AV-unprocessed.smi:2510|AV-procd|sdf|9878|dock7
  -GOLD-   2272013513D 1   1.00000     0.00000
 Structure written by MMmdl.
 48 49  0  0  0  0  0  0  0  0  1 V2000
  149.2954  141.5603  155.0210 C   0  0  0  0  0  0  0  0  0  0  0  0
  149.2259  140.9783  156.4417 C   0  0  0  0  0  0  0  0  0  0  0  0
  150.5885  140.8653  157.1771 C   0  0  0  0  0  0  0  0  0  0  0  0
  150.9348  142.2493  157.7794 C   0  0  0  0  0  0  0  0  0  0  0  0
  152.0843  142.2510  158.8015 C   0  0  0  0  0  0  0  0  0  0  0  0
  150.7967  139.6809  158.1718 C   0  0  1  0  0  0  0  0  0  0  0  0
  149.9571  138.5180  157.8918 N   0  0  0  0  0  0  0  0  0  0  0  0
  150.0318  137.3345  158.5176 C   0  0  0  0  0  0  0  0  0  0  0  0
  150.9092  137.0506  159.3320 O   0  0  0  0  0  0  0  0  0  0  0  0
  148.9217  136.3323  158.1956 C   0  0  0  0  0  0  0  0  0  0  0  0
  148.2602  135.8624  159.4538 C   0  0  0  0  0  0  0  0  0  0  0  0
  148.4471  136.2239  160.7593 C   0  0  0  0  0  0  0  0  0  0  0  0
  147.5683  135.3728  161.4903 C   0  0  0  0  0  0  0  0  0  0  0  0
  147.3737  135.3005  162.9757 C   0  0  0  0  0  0  0  0  0  0  0  0
  146.8746  134.5652  160.7021 N   0  0  0  0  0  0  0  0  0  0  0  0
  147.3032  134.8732  159.4639 N   0  0  0  0  0  0  0  0  0  0  0  0
  152.2197  139.4946  157.6156 C   0  0  1  0  0  0  0  0  0  0  0  0
  152.8619  138.1115  157.5252 C   0  0  0  0  0  0  0  0  0  0  0  0
  151.7460  140.2376  156.3526 C   0  0  1  0  0  0  0  0  0  0  0  0
  151.2595  139.3512  155.3494 O   0  0  0  0  0  0  0  0  0  0  0  0
  152.2898  138.7221  154.6083 C   0  0  0  0  0  0  0  0  0  0  0  0
  146.9501  134.3957  158.6467 H   0  0  0  0  0  0  0  0  0  0  0  0
  148.3246  141.4832  154.5315 H   0  0  0  0  0  0  0  0  0  0  0  0
  150.0164  141.0225  154.4053 H   0  0  0  0  0  0  0  0  0  0  0  0
  149.5689  142.6148  155.0233 H   0  0  0  0  0  0  0  0  0  0  0  0
  148.5088  141.5461  157.0337 H   0  0  0  0  0  0  0  0  0  0  0  0
  148.7681  139.9955  156.3401 H   0  0  0  0  0  0  0  0  0  0  0  0
  151.2169  142.9380  156.9833 H   0  0  0  0  0  0  0  0  0  0  0  0
  150.0548  142.7091  158.2277 H   0  0  0  0  0  0  0  0  0  0  0  0
  152.3478  143.2726  159.0756 H   0  0  0  0  0  0  0  0  0  0  0  0
  152.9806  141.7773  158.4017 H   0  0  0  0  0  0  0  0  0  0  0  0
  151.8118  141.7349  159.7215 H   0  0  0  0  0  0  0  0  0  0  0  0
  150.8001  139.9723  159.2229 H   0  0  0  0  0  0  0  0  0  0  0  0
  149.1989  138.6581  157.2395 H   0  0  0  0  0  0  0  0  0  0  0  0
  148.1905  136.8075  157.5412 H   0  0  0  0  0  0  0  0  0  0  0  0
  149.3357  135.4862  157.6456 H   0  0  0  0  0  0  0  0  0  0  0  0
  149.1316  136.9677  161.1390 H   0  0  0  0  0  0  0  0  0  0  0  0
  147.9923  136.0363  163.4900 H   0  0  0  0  0  0  0  0  0  0  0  0
  147.6446  134.3160  163.3580 H   0  0  0  0  0  0  0  0  0  0  0  0
  146.3353  135.4910  163.2469 H   0  0  0  0  0  0  0  0  0  0  0  0
  152.8863  140.1565  158.1706 H   0  0  0  0  0  0  0  0  0  0  0  0
  152.2782  137.4269  156.9095 H   0  0  0  0  0  0  0  0  0  0  0  0
  152.9606  137.6605  158.5126 H   0  0  0  0  0  0  0  0  0  0  0  0
  153.8602  138.1705  157.0916 H   0  0  0  0  0  0  0  0  0  0  0  0
  152.4503  140.9804  155.9732 H   0  0  0  0  0  0  0  0  0  0  0  0
  151.8501  138.0331  153.8873 H   0  0  0  0  0  0  0  0  0  0  0  0
  152.9603  138.1545  155.2535 H   0  0  0  0  0  0  0  0  0  0  0  0
  152.8765  139.4570  154.0560 H   0  0  0  0  0  0  0  0  0  0  0  0
  1  2  1  0  0  0  0
  1 23  1  0  0  0  0
  1 24  1  0  0  0  0
  1 25  1  0  0  0  0
  2  3  1  0  0  0  0
  2 26  1  0  0  0  0
  2 27  1  0  0  0  0
  3 19  1  0  0  0  0
  3  4  1  0  0  0  0
  3  6  1  0  0  0  0
  4  5  1  0  0  0  0
  4 28  1  0  0  0  0
  4 29  1  0  0  0  0
  5 30  1  0  0  0  0
  5 31  1  0  0  0  0
  5 32  1  0  0  0  0
  6  7  1  0  0  0  0
  6 17  1  0  0  0  0
  6 33  1  0  0  0  0
  7  8  1  0  0  0  0
  7 34  1  0  0  0  0
  8  9  2  0  0  0  0
  8 10  1  0  0  0  0
 10 35  1  0  0  0  0
 10 36  1  0  0  0  0
 10 11  1  0  0  0  0
 11 16  1  0  0  0  0
 11 12  2  0  0  0  0
 12 13  1  0  0  0  0
 12 37  1  0  0  0  0
 13 14  1  0  0  0  0
 13 15  2  0  0  0  0
 14 38  1  0  0  0  0
 14 39  1  0  0  0  0
 14 40  1  0  0  0  0
 15 16  1  0  0  0  0
 16 22  1  0  0  0  0
 17 18  1  0  0  0  0
 17 19  1  0  0  0  0
 17 41  1  0  0  0  0
 18 42  1  0  0  0  0
 18 43  1  0  0  0  0
 18 44  1  0  0  0  0
 19 20  1  0  0  0  0
 19 45  1  0  0  0  0
 20 21  1  0  0  0  0
 21 46  1  0  0  0  0
 21 47  1  0  0  0  0
 21 48  1  0  0  0  0
M  END
> <s_m_source_file>
AV-unprocessed.smi

> <i_m_source_file_index>
2510

> <i_lp_mmshare_version>
43012

> <i_f3d_flags>
0

> <s_epik_input>
W0NIM11PW0NAQEhdMVtDQEhdKFtDSDNdKVtDQEBIXShDMShbQ0gyXVtDSDNdKVtDSDJdW0NIM10pW05IXUMoPU8pW0NIMl1jMltjSF1jKFtDSDNdKVtuSF1uMg==

> <s_epik_cmdline>
J2VwaWtfcHl0aG9uJywgJy1waCcsICc3LjAnLCAnLXRuJywgJzgnLCAnLW1hJywgJzIwMCcsICctbWV0YWxfYmluZGluZycsICctaW1hZScsICc8aW5maWxlLm1hZT4nLCAnLW9tYWUnLCAnPG91dGZpbGUubWFlPic=

> <r_lp_tautomer_probability>
0.5

> <r_epik_Ionization_Penalty>
0.000134763

> <r_epik_Ionization_Penalty_Charging>
0

> <r_epik_Ionization_Penalty_Neutral>
0.000134763

> <r_epik_State_Penalty>
0.41068

> <r_epik_Charging_Adjusted_Penalty>
0.41068

> <i_epik_Tot_Q>
0

> <i_epik_Tot_abs_Q>
0

> <r_epik_Metal_State_Penalty>
0.410661

> <b_epik_Metal_Only>
0

> <s_lp_Force_Field>
OPLS_2005

> <r_lp_Energy>
25.663

> <b_lp_Chiralities_Consistent>
1

> <s_lp_Variant>
AV-unprocessed.smi:2510-9

> <Gold.Version>
5.8.1

> <Gold.Id.Protein>
6NUR|6NUR_protein|mol2

> <Gold.PLP.Fitness>
37.5859

> <Gold.PLP.PLP>
-35.5913

> <Gold.PLP.part.hbond>
-1.0000

> <Gold.PLP.part.metal>
0.0000

> <Gold.PLP.part.buried>
-5.9640

> <Gold.PLP.part.nonpolar>
-29.8360

> <Gold.PLP.part.repulsive>
0.1383

> <Gold.PLP.ligand.clash>
0.0000

> <Gold.PLP.ligand.torsion>
0.8313

> <Gold.PLP.Chemscore.Hbond>
1.0000

> <Gold.PLP.Chemscore.CHOScore>
0.0000

> <Gold.PLP.Chemscore.Metal>
0.0000

> <Gold.Chemscore.Hbonds>
donor molecule, donor type, donor heavy atom, donor atom, acceptor molecule, acceptor atom, score
      P1  H  6896  6909       L1     9  0.99

> <Gold.PLP.Chemscore.Internal.Correction>
0.6571

> <Gold.Rescore>
     Score         DG    S(hbond)    S(metal)    S(lipo)     H(rot)  DE(clash)    DE(int)     intcor
     12.45     -15.02       0.97        0.00      93.41       1.81       0.01       2.57       ----

> <Gold.Chemscore.Fitness>
12.4494

> <Gold.Chemscore.DG>
-15.0223

> <Gold.Chemscore.ZeroCoef>
-5.4800

> <Gold.Chemscore.Hbond>
0.9724

> <Gold.Chemscore.Metal>
0.0000

> <Gold.Chemscore.Lipo>
93.4058

> <Gold.Chemscore.Internal_Hbond>
0.0000

> <Gold.Chemscore.DEClash>
0.0073

> <Gold.Chemscore.DEInternal>
2.5656

> <Gold.Chemscore.Rot>
1.8102

> <Gold.Chemscore.Internal.Correction>
   9.000000E+99

> <Gold.Chemscore.Hbonds>
donor molecule, donor type, donor heavy atom, donor atom, acceptor molecule, acceptor atom, score
      P1  H  6896  6909       L1     9  0.92

> <Gold.Chemscore.Hbond.Weighted>
-3.2480

> <Gold.Chemscore.Metal.Weighted>
-0.0000

> <Gold.Chemscore.Lipo.Weighted>
-10.9285

> <Gold.Chemscore.Internal_Hbond.Weighted>
0.0000

> <Gold.Chemscore.DEClash.Weighted>
0.0073

> <Gold.Chemscore.DEInternal.Weighted>
2.5656

> <Gold.Chemscore.Rot.Weighted>
4.6341

> <Gold.Chemscore.Internal.Correction.Weighted>
   9.000000E+99

> <Gold.Protein.RotatedTorsions>
[ 6907 6896 6895 6894 ] final  107.14 input  -60.11 | X-H torsion
[ 7974 7965 7964 7962 ] final -131.61 input  175.53 | X-H torsion
[ 8008 7997 7996 7995 ] final  -48.73 input   59.86 | X-H torsion
[ 10167 10162 10161 10158 ] final  -31.81 input  -65.29 | X-H torsion
[ 10718 10713 10712 10709 ] final -124.18 input   66.30 | X-H torsion
[ 10763 10752 10751 10750 ] final    0.97 input  -60.55 | X-H torsion
[ 11005 11000 10999 10996 ] final   22.81 input  -57.11 | X-H torsion

> <Gold.Protein.ActiveResidues>
 VAL166  LYS551  ARG553  GLY616  TRP617  ASP618  TYR619  PRO620  LYS621  CYS622 
 ASP623  PHE694  ASN695  SER759  ASP760  ASP761  ALA762  ILE779  LEU786  VAL792 
 PHE793  MET794  SER795  GLU796  ALA797  LYS798  CYS799  TRP800  GLU811  SER814 

> <Gold.Protein.RotatedAtoms>
  152.5166  133.9279  159.7565 H   0  0  0  0  0  0  0  0  0  0  0  0  # atno 6907 bound_to 6896
  150.9636  133.6410  159.2757 H   0  0  0  0  0  0  0  0  0  0  0  0  # atno 6908 bound_to 6896
  151.3647  135.0916  159.9499 H   0  0  0  0  0  0  0  0  0  0  0  0  # atno 6909 bound_to 6896
  144.9363  140.7187  143.4875 H   0  0  0  0  0  0  0  0  0  0  0  0  # atno 7974 bound_to 7965
  154.4033  140.1314  156.4387 H   0  0  0  0  0  0  0  0  0  0  0  0  # atno 8008 bound_to 7997
  155.7480  140.3488  155.5116 H   0  0  0  0  0  0  0  0  0  0  0  0  # atno 8009 bound_to 7997
  155.8977  140.1014  157.1363 H   0  0  0  0  0  0  0  0  0  0  0  0  # atno 8010 bound_to 7997
  140.7231  143.3742  151.1721 H   0  0  0  0  0  0  0  0  0  0  0  0  # atno 10167 bound_to 10162
  156.1566  130.6572  150.9990 H   0  0  0  0  0  0  0  0  0  0  0  0  # atno 10718 bound_to 10713
  153.3139  135.6964  153.7091 H   0  0  0  0  0  0  0  0  0  0  0  0  # atno 10763 bound_to 10752
  153.5957  135.3471  155.2928 H   0  0  0  0  0  0  0  0  0  0  0  0  # atno 10764 bound_to 10752
  154.8582  135.4328  154.2285 H   0  0  0  0  0  0  0  0  0  0  0  0  # atno 10765 bound_to 10752
  140.3765  134.1967  155.7665 H   0  0  0  0  0  0  0  0  0  0  0  0  # atno 11005 bound_to 11000
  145.3062  139.1834  143.4663 LP  0  0  0  0  0  0  0  0  0  0  0  0  # atno 17320 bound_to 7965
  146.3268  140.3060  142.8623 LP  0  0  0  0  0  0  0  0  0  0  0  0  # atno 17321 bound_to 7965
  139.7319  143.9059  152.3022 LP  0  0  0  0  0  0  0  0  0  0  0  0  # atno 17342 bound_to 10162
  139.8851  144.6996  150.8834 LP  0  0  0  0  0  0  0  0  0  0  0  0  # atno 17343 bound_to 10162
  157.6699  131.0863  150.7637 LP  0  0  0  0  0  0  0  0  0  0  0  0  # atno 17370 bound_to 10713
  156.7702  130.4826  149.5420 LP  0  0  0  0  0  0  0  0  0  0  0  0  # atno 17371 bound_to 10713
  141.1938  133.8143  157.0785 LP  0  0  0  0  0  0  0  0  0  0  0  0  # atno 17394 bound_to 11000
  140.0512  134.9805  157.1139 LP  0  0  0  0  0  0  0  0  0  0  0  0  # atno 17395 bound_to 11000

$$$$
