AV-unprocessed.smi:43|AV-procd|sdf|391|dock2
  -GOLD-   2262016243D 1   1.00000     0.00000
 Structure written by MMmdl.
 25 26  0  0  0  0  0  0  0  0  2 V2000
  150.0828  137.4676  158.2695 C   0  0  0  0  0  0  0  0  0  0  0  0
  151.3090  137.9446  158.8833 N   0  0  0  0  0  0  0  0  0  0  0  0
  152.0278  137.1037  159.6691 N   0  0  0  0  0  0  0  0  0  0  0  0
  153.0643  137.7670  160.0889 N   0  0  0  0  0  0  0  0  0  0  0  0
  153.0651  139.0561  159.5979 N   0  0  0  0  0  0  0  0  0  0  0  0
  151.9616  139.1226  158.8612 C   0  0  0  0  0  0  0  0  0  0  0  0
  151.5357  140.2529  158.1482 N   0  0  0  0  0  0  0  0  0  0  0  0
  151.6986  141.6706  158.4811 C   0  0  0  0  0  0  0  0  0  0  0  0
  151.1952  142.5052  157.3032 C   0  0  2  0  0  0  0  0  0  0  0  0
  150.6729  143.7534  157.7079 O   0  0  0  0  0  0  0  0  0  0  0  0
  150.1439  141.5993  156.6940 C   0  0  0  0  0  0  0  0  0  0  0  0
  150.7534  140.2092  156.9062 C   0  0  1  0  0  0  0  0  0  0  0  0
  151.6063  139.7565  155.7070 C   0  0  0  0  0  0  0  0  0  0  0  0
  151.0368  139.7204  154.5948 O   0  0  0  0  0  0  0  0  0  0  0  0
  152.8046  139.4600  155.9146 O   0  5  0  0  0  0  0  0  0  0  0  0
  152.0026  142.6691  156.5884 H   0  0  0  0  0  0  0  0  0  0  0  0
  149.9442  139.4878  157.0287 H   0  0  0  0  0  0  0  0  0  0  0  0
  150.1264  137.6066  157.1899 H   0  0  0  0  0  0  0  0  0  0  0  0
  149.2302  138.0087  158.6789 H   0  0  0  0  0  0  0  0  0  0  0  0
  149.9441  136.4049  158.4719 H   0  0  0  0  0  0  0  0  0  0  0  0
  151.1103  141.8767  159.3763 H   0  0  0  0  0  0  0  0  0  0  0  0
  152.7381  141.9174  158.6917 H   0  0  0  0  0  0  0  0  0  0  0  0
  150.1840  144.1200  156.9873 H   0  0  0  0  0  0  0  0  0  0  0  0
  149.2067  141.6738  157.2478 H   0  0  0  0  0  0  0  0  0  0  0  0
  149.9342  141.8356  155.6497 H   0  0  0  0  0  0  0  0  0  0  0  0
  1  2  1  0  0  0  0
  1 18  1  0  0  0  0
  1 19  1  0  0  0  0
  1 20  1  0  0  0  0
  2  6  1  0  0  0  0
  2  3  1  0  0  0  0
  3  4  2  0  0  0  0
  4  5  1  0  0  0  0
  5  6  2  0  0  0  0
  6  7  1  0  0  0  0
  7 12  1  0  0  0  0
  7  8  1  0  0  0  0
  8  9  1  0  0  0  0
  8 21  1  0  0  0  0
  8 22  1  0  0  0  0
  9 16  1  0  0  0  0
  9 10  1  0  0  0  0
  9 11  1  0  0  0  0
 10 23  1  0  0  0  0
 11 12  1  0  0  0  0
 11 24  1  0  0  0  0
 11 25  1  0  0  0  0
 12 17  1  0  0  0  0
 12 13  1  0  0  0  0
 13 14  2  0  0  0  0
 13 15  1  0  0  0  0
M  CHG  1  15  -1
M  END
> <s_m_source_file>
AV-unprocessed.smi

> <i_m_source_file_index>
43

> <i_lp_mmshare_version>
43012

> <i_f3d_flags>
0

> <s_epik_input>
W0NIM11uMW5ubmMxTjJbQ0gyXVtDQEhdKFtPSF0pW0NIMl1bQ0BIXTJDKD1PKVtPSF0=

> <s_epik_cmdline>
J2VwaWtfcHl0aG9uJywgJy1waCcsICc3LjAnLCAnLXRuJywgJzgnLCAnLW1hJywgJzIwMCcsICctbWV0YWxfYmluZGluZycsICctaW1hZScsICc8aW5maWxlLm1hZT4nLCAnLW9tYWUnLCAnPG91dGZpbGUubWFlPic=

> <r_lp_tautomer_probability>
1

> <r_epik_Ionization_Penalty>
0.000193127

> <r_epik_Ionization_Penalty_Charging>
0.000192933

> <r_epik_Ionization_Penalty_Neutral>
1.93728e-07

> <r_epik_State_Penalty>
-0

> <r_epik_Charging_Adjusted_Penalty>
0.000192933

> <i_epik_Tot_Q>
-1

> <i_epik_Tot_abs_Q>
1

> <r_epik_Metal_State_Penalty>
-0

> <b_epik_Metal_Only>
0

> <s_lp_Force_Field>
OPLS_2005

> <r_lp_Energy>
20.0938

> <b_lp_Chiralities_Consistent>
1

> <s_lp_Variant>
AV-unprocessed.smi:43-1

> <Gold.Version>
5.8.1

> <Gold.Id.Protein>
6NUR|6NUR_protein|mol2

> <Gold.PLP.Fitness>
38.6832

> <Gold.PLP.PLP>
-24.5040

> <Gold.PLP.part.hbond>
-4.0000

> <Gold.PLP.part.metal>
0.0000

> <Gold.PLP.part.buried>
-6.2443

> <Gold.PLP.part.nonpolar>
-14.8365

> <Gold.PLP.part.repulsive>
0.0834

> <Gold.PLP.ligand.clash>
0.0000

> <Gold.PLP.ligand.torsion>
0.4125

> <Gold.PLP.Chemscore.Hbond>
5.0000

> <Gold.PLP.Chemscore.CHOScore>
0.0000

> <Gold.PLP.Chemscore.Metal>
0.0000

> <Gold.Chemscore.Hbonds>
donor molecule, donor type, donor heavy atom, donor atom, acceptor molecule, acceptor atom, score
      L1  H    10    23       P1  8028  1.00
      P1  H  6896  6907       L1     3  1.00
      P1  H  7989  7998       L1    14  1.00
      P1  H  7997  8010       L1    15  2.00

> <Gold.PLP.Chemscore.Internal.Correction>
0.0041

> <Gold.Rescore>
     Score         DG    S(hbond)    S(metal)    S(lipo)     H(rot)  DE(clash)    DE(int)     intcor
     17.30     -17.63       3.84        0.00      31.17       1.69       0.00       0.34       ----

> <Gold.Chemscore.Fitness>
17.2971

> <Gold.Chemscore.DG>
-17.6333

> <Gold.Chemscore.ZeroCoef>
-5.4800

> <Gold.Chemscore.Hbond>
3.8413

> <Gold.Chemscore.Metal>
0.0000

> <Gold.Chemscore.Lipo>
31.1661

> <Gold.Chemscore.Internal_Hbond>
0.0000

> <Gold.Chemscore.DEClash>
0.0000

> <Gold.Chemscore.DEInternal>
0.3361

> <Gold.Chemscore.Rot>
1.6887

> <Gold.Chemscore.Internal.Correction>
   9.000000E+99

> <Gold.Chemscore.Hbonds>
donor molecule, donor type, donor heavy atom, donor atom, acceptor molecule, acceptor atom, score
      L1  H    10    23       P1  8028  0.94
      P1  H  6896  6907       L1     3  0.96
      P1  H  7989  7998       L1    14  0.85
      P1  H  7997  8010       L1    15  1.00

> <Gold.Chemscore.Hbond.Weighted>
-12.8300

> <Gold.Chemscore.Metal.Weighted>
-0.0000

> <Gold.Chemscore.Lipo.Weighted>
-3.6464

> <Gold.Chemscore.Internal_Hbond.Weighted>
0.0000

> <Gold.Chemscore.DEClash.Weighted>
0.0000

> <Gold.Chemscore.DEInternal.Weighted>
0.3361

> <Gold.Chemscore.Rot.Weighted>
4.3232

> <Gold.Chemscore.Internal.Correction.Weighted>
   9.000000E+99

> <Gold.Protein.RotatedTorsions>
[ 6907 6896 6895 6894 ] final    7.83 input  -60.11 | X-H torsion
[ 7974 7965 7964 7962 ] final  101.66 input  175.53 | X-H torsion
[ 8008 7997 7996 7995 ] final   89.62 input   59.86 | X-H torsion
[ 10167 10162 10161 10158 ] final  102.26 input  -65.29 | X-H torsion
[ 10718 10713 10712 10709 ] final  -62.13 input   66.30 | X-H torsion
[ 10763 10752 10751 10750 ] final  -73.42 input  -60.55 | X-H torsion
[ 11005 11000 10999 10996 ] final  106.96 input  -57.11 | X-H torsion

> <Gold.Protein.ActiveResidues>
 VAL166  LYS551  ARG553  GLY616  TRP617  ASP618  TYR619  PRO620  LYS621  CYS622 
 ASP623  PHE694  ASN695  SER759  ASP760  ASP761  ALA762  ILE779  LEU786  VAL792 
 PHE793  MET794  SER795  GLU796  ALA797  LYS798  CYS799  TRP800  GLU811  SER814 

> <Gold.Protein.RotatedAtoms>
  151.6962  135.0938  160.0242 H   0  0  0  0  0  0  0  0  0  0  0  0  # atno 6907 bound_to 6896
  152.3748  133.6462  159.6123 H   0  0  0  0  0  0  0  0  0  0  0  0  # atno 6908 bound_to 6896
  150.7701  133.9127  159.3416 H   0  0  0  0  0  0  0  0  0  0  0  0  # atno 6909 bound_to 6896
  145.3694  139.2401  143.3463 H   0  0  0  0  0  0  0  0  0  0  0  0  # atno 7974 bound_to 7965
  156.0021  140.3358  155.6856 H   0  0  0  0  0  0  0  0  0  0  0  0  # atno 8008 bound_to 7997
  155.6276  140.0681  157.2677 H   0  0  0  0  0  0  0  0  0  0  0  0  # atno 8009 bound_to 7997
  154.4253  140.1765  156.1425 H   0  0  0  0  0  0  0  0  0  0  0  0  # atno 8010 bound_to 7997
  139.7366  144.7022  151.0640 H   0  0  0  0  0  0  0  0  0  0  0  0  # atno 10167 bound_to 10162
  156.0875  130.4206  150.1092 H   0  0  0  0  0  0  0  0  0  0  0  0  # atno 10718 bound_to 10713
  154.4592  135.5898  153.6244 H   0  0  0  0  0  0  0  0  0  0  0  0  # atno 10763 bound_to 10752
  152.9821  135.6040  154.3507 H   0  0  0  0  0  0  0  0  0  0  0  0  # atno 10764 bound_to 10752
  154.3377  135.2842  155.2418 H   0  0  0  0  0  0  0  0  0  0  0  0  # atno 10765 bound_to 10752
  139.8821  134.9386  156.5747 H   0  0  0  0  0  0  0  0  0  0  0  0  # atno 11005 bound_to 11000
  146.2892  140.4343  142.8746 LP  0  0  0  0  0  0  0  0  0  0  0  0  # atno 17320 bound_to 7965
  144.8587  140.7108  143.6121 LP  0  0  0  0  0  0  0  0  0  0  0  0  # atno 17321 bound_to 7965
  140.7779  143.4977  150.9812 LP  0  0  0  0  0  0  0  0  0  0  0  0  # atno 17342 bound_to 10162
  139.8665  143.7247  152.3170 LP  0  0  0  0  0  0  0  0  0  0  0  0  # atno 17343 bound_to 10162
  156.9110  130.9651  151.3563 LP  0  0  0  0  0  0  0  0  0  0  0  0  # atno 17370 bound_to 10713
  157.6014  130.8515  149.8808 LP  0  0  0  0  0  0  0  0  0  0  0  0  # atno 17371 bound_to 10713
  140.8072  133.8458  155.8778 LP  0  0  0  0  0  0  0  0  0  0  0  0  # atno 17394 bound_to 11000
  140.9539  134.1743  157.4707 LP  0  0  0  0  0  0  0  0  0  0  0  0  # atno 17395 bound_to 11000

$$$$
