AV-unprocessed.smi:1529|AV-procd|sdf|6153|dock4
  -GOLD-   22720 6303D 1   1.00000     0.00000
 Structure written by MMmdl.
 50 51  0  0  0  0  0  0  0  0  1 V2000
  145.9926  133.5555  151.8625 C   0  0  0  0  0  0  0  0  0  0  0  0
  147.3569  133.0074  152.2657 C   0  0  0  0  0  0  0  0  0  0  0  0
  147.5614  131.7939  152.2619 O   0  0  0  0  0  0  0  0  0  0  0  0
  148.2813  133.9154  152.6133 N   0  0  0  0  0  0  0  0  0  0  0  0
  149.6445  133.6071  153.0302 C   0  0  0  0  0  0  0  0  0  0  0  0
  150.2303  134.7126  153.9238 C   0  0  0  0  0  0  0  0  0  0  0  0
  149.2528  135.1494  155.0268 C   0  0  0  0  0  0  0  0  0  0  0  0
  149.7882  136.2528  155.8159 N   0  0  0  0  0  0  0  0  0  0  0  0
  150.5672  136.1175  156.9017 C   0  0  0  0  0  0  0  0  0  0  0  0
  150.9330  135.0285  157.3442 O   0  0  0  0  0  0  0  0  0  0  0  0
  151.0395  137.3986  157.5264 C   0  0  0  0  0  0  0  0  0  0  0  0
  152.2772  137.4864  158.2002 C   0  0  0  0  0  0  0  0  0  0  0  0
  152.6738  138.7215  158.7482 C   0  0  0  0  0  0  0  0  0  0  0  0
  151.8259  139.8450  158.6053 C   0  0  0  0  0  0  0  0  0  0  0  0
  152.2011  141.0902  159.1538 N   0  0  0  0  0  0  0  0  0  0  0  0
  151.5848  142.2610  158.5382 C   0  0  0  0  0  0  0  0  0  0  0  0
  151.7749  143.4991  159.4322 C   0  0  2  0  0  0  0  0  0  0  0  0
  151.2573  144.7741  158.7582 C   0  0  0  0  0  0  0  0  0  0  0  0
  153.1627  143.6794  159.7121 O   0  0  0  0  0  0  0  0  0  0  0  0
  153.7956  142.5645  160.3441 C   0  0  1  0  0  0  0  0  0  0  0  0
  153.3491  142.3946  161.8073 C   0  0  0  0  0  0  0  0  0  0  0  0
  153.6080  141.2935  159.4931 C   0  0  0  0  0  0  0  0  0  0  0  0
  150.6478  139.7631  157.9400 N   0  0  0  0  0  0  0  0  0  0  0  0
  150.2718  138.5775  157.4159 C   0  0  0  0  0  0  0  0  0  0  0  0
  145.5506  134.1183  152.6852 H   0  0  0  0  0  0  0  0  0  0  0  0
  145.3114  132.7460  151.5982 H   0  0  0  0  0  0  0  0  0  0  0  0
  146.0871  134.2176  151.0012 H   0  0  0  0  0  0  0  0  0  0  0  0
  148.0224  134.8909  152.5824 H   0  0  0  0  0  0  0  0  0  0  0  0
  149.6691  132.6457  153.5460 H   0  0  0  0  0  0  0  0  0  0  0  0
  150.2536  133.4937  152.1332 H   0  0  0  0  0  0  0  0  0  0  0  0
  151.1577  134.3610  154.3780 H   0  0  0  0  0  0  0  0  0  0  0  0
  150.4950  135.5743  153.3093 H   0  0  0  0  0  0  0  0  0  0  0  0
  148.2899  135.4296  154.5960 H   0  0  0  0  0  0  0  0  0  0  0  0
  149.0591  134.3158  155.7022 H   0  0  0  0  0  0  0  0  0  0  0  0
  149.5587  137.1868  155.5089 H   0  0  0  0  0  0  0  0  0  0  0  0
  152.9255  136.6275  158.2976 H   0  0  0  0  0  0  0  0  0  0  0  0
  153.6246  138.7967  159.2543 H   0  0  0  0  0  0  0  0  0  0  0  0
  152.0477  142.4262  157.5642 H   0  0  0  0  0  0  0  0  0  0  0  0
  150.5209  142.1106  158.3597 H   0  0  0  0  0  0  0  0  0  0  0  0
  151.2257  143.3651  160.3642 H   0  0  0  0  0  0  0  0  0  0  0  0
  150.1937  144.6951  158.5326 H   0  0  0  0  0  0  0  0  0  0  0  0
  151.7844  144.9688  157.8237 H   0  0  0  0  0  0  0  0  0  0  0  0
  151.3955  145.6402  159.4056 H   0  0  0  0  0  0  0  0  0  0  0  0
  154.8616  142.7929  160.3658 H   0  0  0  0  0  0  0  0  0  0  0  0
  153.9445  141.6292  162.3055 H   0  0  0  0  0  0  0  0  0  0  0  0
  152.3049  142.0944  161.8897 H   0  0  0  0  0  0  0  0  0  0  0  0
  153.4762  143.3239  162.3627 H   0  0  0  0  0  0  0  0  0  0  0  0
  154.0016  140.4306  160.0320 H   0  0  0  0  0  0  0  0  0  0  0  0
  154.1805  141.3842  158.5687 H   0  0  0  0  0  0  0  0  0  0  0  0
  149.3236  138.5766  156.8979 H   0  0  0  0  0  0  0  0  0  0  0  0
  1  2  1  0  0  0  0
  1 25  1  0  0  0  0
  1 26  1  0  0  0  0
  1 27  1  0  0  0  0
  2  3  2  0  0  0  0
  2  4  1  0  0  0  0
  4  5  1  0  0  0  0
  4 28  1  0  0  0  0
  5  6  1  0  0  0  0
  5 29  1  0  0  0  0
  5 30  1  0  0  0  0
  6  7  1  0  0  0  0
  6 31  1  0  0  0  0
  6 32  1  0  0  0  0
  7  8  1  0  0  0  0
  7 33  1  0  0  0  0
  7 34  1  0  0  0  0
  8  9  1  0  0  0  0
  8 35  1  0  0  0  0
  9 10  2  0  0  0  0
  9 11  1  0  0  0  0
 11 24  1  0  0  0  0
 11 12  2  0  0  0  0
 12 13  1  0  0  0  0
 12 36  1  0  0  0  0
 13 14  2  0  0  0  0
 13 37  1  0  0  0  0
 14 15  1  0  0  0  0
 14 23  1  0  0  0  0
 15 22  1  0  0  0  0
 15 16  1  0  0  0  0
 16 17  1  0  0  0  0
 16 38  1  0  0  0  0
 16 39  1  0  0  0  0
 17 18  1  0  0  0  0
 17 19  1  0  0  0  0
 17 40  1  0  0  0  0
 18 41  1  0  0  0  0
 18 42  1  0  0  0  0
 18 43  1  0  0  0  0
 19 20  1  0  0  0  0
 20 21  1  0  0  0  0
 20 22  1  0  0  0  0
 20 44  1  0  0  0  0
 21 45  1  0  0  0  0
 21 46  1  0  0  0  0
 21 47  1  0  0  0  0
 22 48  1  0  0  0  0
 22 49  1  0  0  0  0
 23 24  2  0  0  0  0
 24 50  1  0  0  0  0
M  END
> <s_m_source_file>
AV-unprocessed.smi

> <i_m_source_file_index>
1529

> <i_lp_mmshare_version>
43012

> <i_f3d_flags>
0

> <s_epik_input>
W0NIM11DKD1PKVtOSF1bQ0gyXVtDSDJdW0NIMl1bTkhdQyg9TyljMVtjSF1bY0hdYyhuW2NIXTEpTjJbQ0gyXVtDQEBIXShbQ0gzXSlPW0NAQEhdKFtDSDNdKVtDSDJdMg==

> <s_epik_cmdline>
J2VwaWtfcHl0aG9uJywgJy1waCcsICc3LjAnLCAnLXRuJywgJzgnLCAnLW1hJywgJzIwMCcsICctbWV0YWxfYmluZGluZycsICctaW1hZScsICc8aW5maWxlLm1hZT4nLCAnLW9tYWUnLCAnPG91dGZpbGUubWFlPic=

> <r_lp_tautomer_probability>
1

> <r_epik_Ionization_Penalty>
2.1474e-05

> <r_epik_Ionization_Penalty_Charging>
0

> <r_epik_Ionization_Penalty_Neutral>
2.1474e-05

> <r_epik_State_Penalty>
-0

> <r_epik_Charging_Adjusted_Penalty>
0

> <i_epik_Tot_Q>
0

> <i_epik_Tot_abs_Q>
0

> <r_epik_Metal_State_Penalty>
-0

> <b_epik_Metal_Only>
0

> <s_lp_Force_Field>
OPLS_2005

> <r_lp_Energy>
19.6089

> <b_lp_Chiralities_Consistent>
1

> <s_lp_Variant>
AV-unprocessed.smi:1529-2

> <Gold.Version>
5.8.1

> <Gold.Id.Protein>
6NUR|6NUR_protein|mol2

> <Gold.PLP.Fitness>
46.5762

> <Gold.PLP.PLP>
-42.8146

> <Gold.PLP.part.hbond>
-2.0000

> <Gold.PLP.part.metal>
0.0000

> <Gold.PLP.part.buried>
-6.5175

> <Gold.PLP.part.nonpolar>
-34.8710

> <Gold.PLP.part.repulsive>
0.1873

> <Gold.PLP.ligand.clash>
0.0000

> <Gold.PLP.ligand.torsion>
1.3231

> <Gold.PLP.Chemscore.Hbond>
2.0000

> <Gold.PLP.Chemscore.CHOScore>
0.0000

> <Gold.PLP.Chemscore.Metal>
0.0000

> <Gold.Chemscore.Hbonds>
donor molecule, donor type, donor heavy atom, donor atom, acceptor molecule, acceptor atom, score
      L1  H     4    28       P1  7948  0.51
      P1  H  6896  6907       L1    10  0.11

> <Gold.PLP.Chemscore.Internal.Correction>
0.4078

> <Gold.Rescore>
     Score         DG    S(hbond)    S(metal)    S(lipo)     H(rot)  DE(clash)    DE(int)     intcor
     16.82     -17.75       1.75        0.00     100.33       2.07       0.01       0.92       ----

> <Gold.Chemscore.Fitness>
16.8171

> <Gold.Chemscore.DG>
-17.7528

> <Gold.Chemscore.ZeroCoef>
-5.4800

> <Gold.Chemscore.Hbond>
1.7476

> <Gold.Chemscore.Metal>
0.0000

> <Gold.Chemscore.Lipo>
100.3272

> <Gold.Chemscore.Internal_Hbond>
0.0000

> <Gold.Chemscore.DEClash>
0.0127

> <Gold.Chemscore.DEInternal>
0.9230

> <Gold.Chemscore.Rot>
2.0713

> <Gold.Chemscore.Internal.Correction>
   9.000000E+99

> <Gold.Chemscore.Hbonds>
donor molecule, donor type, donor heavy atom, donor atom, acceptor molecule, acceptor atom, score
      L1  H     4    28       P1  7948  0.41
      P1  H  6896  6907       L1    10  0.11

> <Gold.Chemscore.Hbond.Weighted>
-5.8370

> <Gold.Chemscore.Metal.Weighted>
-0.0000

> <Gold.Chemscore.Lipo.Weighted>
-11.7383

> <Gold.Chemscore.Internal_Hbond.Weighted>
0.0000

> <Gold.Chemscore.DEClash.Weighted>
0.0127

> <Gold.Chemscore.DEInternal.Weighted>
0.9230

> <Gold.Chemscore.Rot.Weighted>
5.3025

> <Gold.Chemscore.Internal.Correction.Weighted>
   9.000000E+99

> <Gold.Protein.RotatedTorsions>
[ 6907 6896 6895 6894 ] final  -64.75 input  -60.11 | X-H torsion
[ 7974 7965 7964 7962 ] final -141.10 input  175.53 | X-H torsion
[ 8008 7997 7996 7995 ] final -105.18 input   59.86 | X-H torsion
[ 10167 10162 10161 10158 ] final  -55.61 input  -65.29 | X-H torsion
[ 10718 10713 10712 10709 ] final -156.68 input   66.30 | X-H torsion
[ 10763 10752 10751 10750 ] final   59.99 input  -60.55 | X-H torsion
[ 11005 11000 10999 10996 ] final  120.69 input  -57.11 | X-H torsion

> <Gold.Protein.ActiveResidues>
 VAL166  LYS551  ARG553  GLY616  TRP617  ASP618  TYR619  PRO620  LYS621  CYS622 
 ASP623  PHE694  ASN695  SER759  ASP760  ASP761  ALA762  ILE779  LEU786  VAL792 
 PHE793  MET794  SER795  GLU796  ALA797  LYS798  CYS799  TRP800  GLU811  SER814 

> <Gold.Protein.RotatedAtoms>
  150.7566  134.6256  159.6158 H   0  0  0  0  0  0  0  0  0  0  0  0  # atno 6907 bound_to 6896
  152.3549  134.6951  160.0234 H   0  0  0  0  0  0  0  0  0  0  0  0  # atno 6908 bound_to 6896
  151.7360  133.3283  159.3389 H   0  0  0  0  0  0  0  0  0  0  0  0  # atno 6909 bound_to 6896
  144.8545  140.6120  143.5368 H   0  0  0  0  0  0  0  0  0  0  0  0  # atno 7974 bound_to 7965
  154.8960  140.0414  157.1866 H   0  0  0  0  0  0  0  0  0  0  0  0  # atno 8008 bound_to 7997
  154.8492  140.2926  155.5588 H   0  0  0  0  0  0  0  0  0  0  0  0  # atno 8009 bound_to 7997
  156.2995  140.2468  156.3448 H   0  0  0  0  0  0  0  0  0  0  0  0  # atno 8010 bound_to 7997
  140.6365  143.2485  151.5105 H   0  0  0  0  0  0  0  0  0  0  0  0  # atno 10167 bound_to 10162
  156.5299  130.8516  151.2712 H   0  0  0  0  0  0  0  0  0  0  0  0  # atno 10718 bound_to 10713
  152.9909  135.5552  154.5801 H   0  0  0  0  0  0  0  0  0  0  0  0  # atno 10763 bound_to 10752
  154.5184  135.2806  155.1285 H   0  0  0  0  0  0  0  0  0  0  0  0  # atno 10764 bound_to 10752
  154.2649  135.6374  153.5341 H   0  0  0  0  0  0  0  0  0  0  0  0  # atno 10765 bound_to 10752
  139.9195  134.9636  156.7845 H   0  0  0  0  0  0  0  0  0  0  0  0  # atno 11005 bound_to 11000
  145.4433  139.1533  143.3958 LP  0  0  0  0  0  0  0  0  0  0  0  0  # atno 17320 bound_to 7965
  146.2812  140.4555  142.8775 LP  0  0  0  0  0  0  0  0  0  0  0  0  # atno 17321 bound_to 7965
  139.5575  144.2239  152.1636 LP  0  0  0  0  0  0  0  0  0  0  0  0  # atno 17342 bound_to 10162
  140.1497  144.5126  150.6695 LP  0  0  0  0  0  0  0  0  0  0  0  0  # atno 17343 bound_to 10162
  157.7423  130.9888  150.2509 LP  0  0  0  0  0  0  0  0  0  0  0  0  # atno 17370 bound_to 10713
  156.3069  130.3766  149.7697 LP  0  0  0  0  0  0  0  0  0  0  0  0  # atno 17371 bound_to 10713
  140.6517  133.9725  155.7758 LP  0  0  0  0  0  0  0  0  0  0  0  0  # atno 17394 bound_to 11000
  141.0703  134.0215  157.3535 LP  0  0  0  0  0  0  0  0  0  0  0  0  # atno 17395 bound_to 11000

$$$$
