AV-unprocessed.smi:86|AV-procd|sdf|816|dock5
  -GOLD-   2262017213D 1   1.00000     0.00000
 Structure written by MMmdl.
 51 55  0  0  0  0  0  0  0  0  1 V2000
  144.7453  134.6169  159.7653 O   0  0  0  0  0  0  0  0  0  0  0  0
  145.5272  135.7327  159.3894 C   0  0  0  0  0  0  0  0  0  0  0  0
  146.9699  135.6117  159.9119 C   0  0  0  0  0  0  0  0  0  0  0  0
  147.6383  134.3194  159.3967 C   0  0  0  0  0  0  0  0  0  0  0  0
  147.5284  134.1187  157.9595 N   0  0  0  0  0  0  0  0  0  0  0  0
  148.0757  134.9126  156.9784 C   0  0  0  0  0  0  0  0  0  0  0  0
  147.8364  134.5279  155.7555 N   0  0  0  0  0  0  0  0  0  0  0  0
  147.0776  133.3705  155.8968 C   0  0  0  0  0  0  0  0  0  0  0  0
  146.4845  132.4419  154.9886 C   0  0  0  0  0  0  0  0  0  0  0  0
  146.5518  132.5307  153.6344 N   0  0  0  0  0  0  0  0  0  0  0  0
  146.9444  133.7619  152.9526 C   0  0  0  0  0  0  0  0  0  0  0  0
  146.2806  133.7001  151.5683 C   0  0  2  0  0  0  0  0  0  0  0  0
  144.9280  134.4465  151.5651 C   0  0  0  0  0  0  0  0  0  0  0  0
  144.0691  134.0868  150.3459 C   0  0  0  0  0  0  0  0  0  0  0  0
  143.8124  132.5730  150.3012 C   0  0  1  0  0  0  0  0  0  0  0  0
  143.0208  132.2626  149.1741 O   0  0  0  0  0  0  0  0  0  0  0  0
  145.1370  131.7960  150.2254 C   0  0  0  0  0  0  0  0  0  0  0  0
  146.1244  132.1867  151.3427 C   0  0  2  0  0  0  0  0  0  0  0  0
  145.8061  131.6570  152.7421 C   0  0  0  0  0  0  0  0  0  0  0  0
  145.7926  131.4040  155.5285 N   0  0  0  0  0  0  0  0  0  0  0  0
  145.6913  131.2683  156.8530 C   0  0  0  0  0  0  0  0  0  0  0  0
  146.1929  132.0482  157.8106 N   0  0  0  0  0  0  0  0  0  0  0  0
  146.8811  133.0993  157.2827 C   0  0  0  0  0  0  0  0  0  0  0  0
  147.8092  136.8905  159.7830 C   0  0  0  0  0  0  0  0  0  0  0  0
  147.5973  137.2362  161.1677 O   0  0  0  0  0  0  0  0  0  0  0  0
  147.1225  135.8960  161.4132 C   0  0  0  0  0  0  0  0  0  0  0  0
  143.8370  134.8175  159.5980 H   0  0  0  0  0  0  0  0  0  0  0  0
  145.5191  135.7920  158.3004 H   0  0  0  0  0  0  0  0  0  0  0  0
  145.0449  136.6448  159.7416 H   0  0  0  0  0  0  0  0  0  0  0  0
  148.6966  134.3107  159.6602 H   0  0  0  0  0  0  0  0  0  0  0  0
  147.2114  133.4444  159.8882 H   0  0  0  0  0  0  0  0  0  0  0  0
  148.6554  135.7970  157.1996 H   0  0  0  0  0  0  0  0  0  0  0  0
  146.6459  134.6586  153.4975 H   0  0  0  0  0  0  0  0  0  0  0  0
  148.0306  133.7730  152.8573 H   0  0  0  0  0  0  0  0  0  0  0  0
  146.9265  134.1359  150.8050 H   0  0  0  0  0  0  0  0  0  0  0  0
  144.3676  134.2064  152.4698 H   0  0  0  0  0  0  0  0  0  0  0  0
  145.1004  135.5228  151.5936 H   0  0  0  0  0  0  0  0  0  0  0  0
  143.1221  134.6260  150.3931 H   0  0  0  0  0  0  0  0  0  0  0  0
  144.5699  134.4128  149.4331 H   0  0  0  0  0  0  0  0  0  0  0  0
  143.2576  132.2702  151.1897 H   0  0  0  0  0  0  0  0  0  0  0  0
  142.3973  132.9606  149.0435 H   0  0  0  0  0  0  0  0  0  0  0  0
  144.9503  130.7217  150.2518 H   0  0  0  0  0  0  0  0  0  0  0  0
  145.6108  131.9982  149.2637 H   0  0  0  0  0  0  0  0  0  0  0  0
  147.1038  131.7894  151.0706 H   0  0  0  0  0  0  0  0  0  0  0  0
  146.1123  130.6161  152.8484 H   0  0  0  0  0  0  0  0  0  0  0  0
  144.7413  131.7322  152.9644 H   0  0  0  0  0  0  0  0  0  0  0  0
  145.1268  130.4130  157.1940 H   0  0  0  0  0  0  0  0  0  0  0  0
  148.8635  136.7085  159.5678 H   0  0  0  0  0  0  0  0  0  0  0  0
  147.3946  137.6298  159.0967 H   0  0  0  0  0  0  0  0  0  0  0  0
  146.1837  135.8753  161.9679 H   0  0  0  0  0  0  0  0  0  0  0  0
  147.8816  135.2905  161.9099 H   0  0  0  0  0  0  0  0  0  0  0  0
  1  2  1  0  0  0  0
  1 27  1  0  0  0  0
  2  3  1  0  0  0  0
  2 28  1  0  0  0  0
  2 29  1  0  0  0  0
  3 26  1  0  0  0  0
  3  4  1  0  0  0  0
  3 24  1  0  0  0  0
  4  5  1  0  0  0  0
  4 30  1  0  0  0  0
  4 31  1  0  0  0  0
  5 23  1  0  0  0  0
  5  6  1  0  0  0  0
  6  7  2  0  0  0  0
  6 32  1  0  0  0  0
  7  8  1  0  0  0  0
  8 23  2  0  0  0  0
  8  9  1  0  0  0  0
  9 10  1  0  0  0  0
  9 20  2  0  0  0  0
 10 19  1  0  0  0  0
 10 11  1  0  0  0  0
 11 12  1  0  0  0  0
 11 33  1  0  0  0  0
 11 34  1  0  0  0  0
 12 18  1  0  0  0  0
 12 13  1  0  0  0  0
 12 35  1  0  0  0  0
 13 14  1  0  0  0  0
 13 36  1  0  0  0  0
 13 37  1  0  0  0  0
 14 15  1  0  0  0  0
 14 38  1  0  0  0  0
 14 39  1  0  0  0  0
 15 16  1  0  0  0  0
 15 17  1  0  0  0  0
 15 40  1  0  0  0  0
 16 41  1  0  0  0  0
 17 18  1  0  0  0  0
 17 42  1  0  0  0  0
 17 43  1  0  0  0  0
 18 19  1  0  0  0  0
 18 44  1  0  0  0  0
 19 45  1  0  0  0  0
 19 46  1  0  0  0  0
 20 21  1  0  0  0  0
 21 22  2  0  0  0  0
 21 47  1  0  0  0  0
 22 23  1  0  0  0  0
 24 25  1  0  0  0  0
 24 48  1  0  0  0  0
 24 49  1  0  0  0  0
 25 26  1  0  0  0  0
 26 50  1  0  0  0  0
 26 51  1  0  0  0  0
M  END
> <s_m_source_file>
AV-unprocessed.smi

> <i_m_source_file_index>
86

> <i_lp_mmshare_version>
43012

> <i_f3d_flags>
0

> <s_epik_input>
W0NIMl0xT1tDSDJdQzEoW0NIMl1bT0hdKVtDSDJdbihbY0hdbjIpYyhjMjMpbltjSF1uYzNOKFtDSDJdNClbQ0gyXVtDQEBIXShbQ0BIXTQ1KVtDSDJdW0NASF0oW09IXSlbQ0gyXVtDSDJdNQ==

> <s_epik_cmdline>
J2VwaWtfcHl0aG9uJywgJy1waCcsICc3LjAnLCAnLXRuJywgJzgnLCAnLW1hJywgJzIwMCcsICctbWV0YWxfYmluZGluZycsICctaW1hZScsICc8aW5maWxlLm1hZT4nLCAnLW9tYWUnLCAnPG91dGZpbGUubWFlPic=

> <r_lp_tautomer_probability>
1

> <r_epik_Ionization_Penalty>
0.00425795

> <r_epik_Ionization_Penalty_Charging>
0

> <r_epik_Ionization_Penalty_Neutral>
0.00425795

> <r_epik_State_Penalty>
0.00299946

> <r_epik_Charging_Adjusted_Penalty>
0.00299946

> <i_epik_Tot_Q>
0

> <i_epik_Tot_abs_Q>
0

> <r_epik_Metal_State_Penalty>
-0

> <b_epik_Metal_Only>
0

> <s_lp_Force_Field>
OPLS_2005

> <r_lp_Energy>
53.5956

> <b_lp_Chiralities_Consistent>
1

> <s_lp_Variant>
AV-unprocessed.smi:86-5

> <Gold.Version>
5.8.1

> <Gold.Id.Protein>
6NUR|6NUR_protein|mol2

> <Gold.PLP.Fitness>
41.9837

> <Gold.PLP.PLP>
-31.8089

> <Gold.PLP.part.hbond>
-4.7567

> <Gold.PLP.part.metal>
0.0000

> <Gold.PLP.part.buried>
-4.7463

> <Gold.PLP.part.nonpolar>
-22.7300

> <Gold.PLP.part.repulsive>
0.2227

> <Gold.PLP.ligand.clash>
0.0000

> <Gold.PLP.ligand.torsion>
0.3214

> <Gold.PLP.Chemscore.Hbond>
3.4500

> <Gold.PLP.Chemscore.CHOScore>
0.0000

> <Gold.PLP.Chemscore.Metal>
0.0000

> <Gold.Chemscore.Hbonds>
donor molecule, donor type, donor heavy atom, donor atom, acceptor molecule, acceptor atom, score
      L1  H    16    41       P1 10186  0.91
      P1  H  6931  6943       L1    25  0.90
      P1  H  6934  6947       L1    25  0.81
      P1  H 10785 10796       L1    16  0.65

> <Gold.PLP.Chemscore.Internal.Correction>
0.4677

> <Gold.Rescore>
     Score         DG    S(hbond)    S(metal)    S(lipo)     H(rot)  DE(clash)    DE(int)     intcor
     15.23     -16.62       2.84        0.00      74.57       2.76       0.18       1.22       ----

> <Gold.Chemscore.Fitness>
15.2265

> <Gold.Chemscore.DG>
-16.6187

> <Gold.Chemscore.ZeroCoef>
-5.4800

> <Gold.Chemscore.Hbond>
2.8405

> <Gold.Chemscore.Metal>
0.0000

> <Gold.Chemscore.Lipo>
74.5712

> <Gold.Chemscore.Internal_Hbond>
0.0000

> <Gold.Chemscore.DEClash>
0.1768

> <Gold.Chemscore.DEInternal>
1.2154

> <Gold.Chemscore.Rot>
2.7630

> <Gold.Chemscore.Internal.Correction>
   9.000000E+99

> <Gold.Chemscore.Hbonds>
donor molecule, donor type, donor heavy atom, donor atom, acceptor molecule, acceptor atom, score
      L1  H    16    41       P1 10186  0.87
      P1  H  6931  6943       L1    25  0.75
      P1  H  6934  6947       L1    25  0.16
      P1  H 10785 10796       L1    16  0.48

> <Gold.Chemscore.Hbond.Weighted>
-9.4872

> <Gold.Chemscore.Metal.Weighted>
-0.0000

> <Gold.Chemscore.Lipo.Weighted>
-8.7248

> <Gold.Chemscore.Internal_Hbond.Weighted>
0.0000

> <Gold.Chemscore.DEClash.Weighted>
0.1768

> <Gold.Chemscore.DEInternal.Weighted>
1.2154

> <Gold.Chemscore.Rot.Weighted>
7.0734

> <Gold.Chemscore.Internal.Correction.Weighted>
   9.000000E+99

> <Gold.Protein.RotatedTorsions>
[ 6907 6896 6895 6894 ] final  -18.27 input  -60.11 | X-H torsion
[ 7974 7965 7964 7962 ] final -155.88 input  175.53 | X-H torsion
[ 8008 7997 7996 7995 ] final -148.25 input   59.86 | X-H torsion
[ 10167 10162 10161 10158 ] final   81.27 input  -65.29 | X-H torsion
[ 10718 10713 10712 10709 ] final  132.49 input   66.30 | X-H torsion
[ 10763 10752 10751 10750 ] final  -17.03 input  -60.55 | X-H torsion
[ 11005 11000 10999 10996 ] final  131.31 input  -57.11 | X-H torsion

> <Gold.Protein.ActiveResidues>
 VAL166  LYS551  ARG553  GLY616  TRP617  ASP618  TYR619  PRO620  LYS621  CYS622 
 ASP623  PHE694  ASN695  SER759  ASP760  ASP761  ALA762  ILE779  LEU786  VAL792 
 PHE793  MET794  SER795  GLU796  ALA797  LYS798  CYS799  TRP800  GLU811  SER814 

> <Gold.Protein.RotatedAtoms>
  151.2807  135.0713  159.9167 H   0  0  0  0  0  0  0  0  0  0  0  0  # atno 6907 bound_to 6896
  152.5334  134.0034  159.7915 H   0  0  0  0  0  0  0  0  0  0  0  0  # atno 6908 bound_to 6896
  151.0287  133.5759  159.2694 H   0  0  0  0  0  0  0  0  0  0  0  0  # atno 6909 bound_to 6896
  144.7619  140.4188  143.5970 H   0  0  0  0  0  0  0  0  0  0  0  0  # atno 7974 bound_to 7965
  155.5886  140.0650  157.2764 H   0  0  0  0  0  0  0  0  0  0  0  0  # atno 8008 bound_to 7997
  154.4312  140.1839  156.1098 H   0  0  0  0  0  0  0  0  0  0  0  0  # atno 8009 bound_to 7997
  156.0250  140.3312  155.7082 H   0  0  0  0  0  0  0  0  0  0  0  0  # atno 8010 bound_to 7997
  139.9411  144.6089  150.8251 H   0  0  0  0  0  0  0  0  0  0  0  0  # atno 10167 bound_to 10162
  157.4865  131.1088  150.9613 H   0  0  0  0  0  0  0  0  0  0  0  0  # atno 10718 bound_to 10713
  153.5676  135.7008  153.5519 H   0  0  0  0  0  0  0  0  0  0  0  0  # atno 10763 bound_to 10752
  153.3373  135.4031  155.1543 H   0  0  0  0  0  0  0  0  0  0  0  0  # atno 10764 bound_to 10752
  154.8638  135.3733  154.5197 H   0  0  0  0  0  0  0  0  0  0  0  0  # atno 10765 bound_to 10752
  139.9723  134.9574  156.9420 H   0  0  0  0  0  0  0  0  0  0  0  0  # atno 11005 bound_to 11000
  145.6592  139.1578  143.2818 LP  0  0  0  0  0  0  0  0  0  0  0  0  # atno 17320 bound_to 7965
  146.1690  140.6674  142.9242 LP  0  0  0  0  0  0  0  0  0  0  0  0  # atno 17321 bound_to 7965
  140.7611  143.3166  151.2720 LP  0  0  0  0  0  0  0  0  0  0  0  0  # atno 17342 bound_to 10162
  139.6704  144.0030  152.2749 LP  0  0  0  0  0  0  0  0  0  0  0  0  # atno 17343 bound_to 10162
  157.0328  130.5718  149.5345 LP  0  0  0  0  0  0  0  0  0  0  0  0  # atno 17370 bound_to 10713
  156.0150  130.5243  150.8106 LP  0  0  0  0  0  0  0  0  0  0  0  0  # atno 17371 bound_to 10713
  140.5268  134.0853  155.7305 LP  0  0  0  0  0  0  0  0  0  0  0  0  # atno 17394 bound_to 11000
  141.1402  133.9152  157.2344 LP  0  0  0  0  0  0  0  0  0  0  0  0  # atno 17395 bound_to 11000

$$$$
