AV-unprocessed.smi:1362|AV-procd|sdf|5561|dock10
  -GOLD-   22720 5153D 1   1.00000     0.00000
 Structure written by MMmdl.
 39 39  0  0  0  0  0  0  0  0  1 V2000
  146.7769  138.5279  153.1171 C   0  0  0  0  0  0  0  0  0  0  0  0
  147.9437  139.0670  153.9160 C   0  0  0  0  0  0  0  0  0  0  0  0
  149.1220  138.3653  153.7224 N   0  0  0  0  0  0  0  0  0  0  0  0
  150.2472  138.7879  154.4079 C   0  0  0  0  0  0  0  0  0  0  0  0
  151.4967  137.9677  154.1370 C   0  0  0  0  0  0  0  0  0  0  0  0
  150.2010  139.8572  155.2426 C   0  0  0  0  0  0  0  0  0  0  0  0
  151.4236  140.3574  156.0107 C   0  0  0  0  0  0  0  0  0  0  0  0
  151.2319  140.5521  157.5169 C   0  0  0  0  0  0  0  0  0  0  0  0
  150.2420  140.0898  158.0844 O   0  0  0  0  0  0  0  0  0  0  0  0
  152.1899  141.2463  158.1504 N   0  0  0  0  0  0  0  0  0  0  0  0
  152.1978  141.5848  159.5732 C   0  0  1  0  0  0  0  0  0  0  0  0
  153.5402  141.1378  160.1828 C   0  0  0  0  0  0  0  0  0  0  0  0
  151.9104  143.0978  159.7639 C   0  0  0  0  0  0  0  0  0  0  0  0
  152.7856  143.9806  158.8555 C   0  0  0  0  0  0  0  0  0  0  0  0
  152.0796  143.5446  161.2296 C   0  0  0  0  0  0  0  0  0  0  0  0
  148.9120  140.5703  155.4064 C   0  0  0  0  0  0  0  0  0  0  0  0
  148.8076  141.5527  156.1396 O   0  0  0  0  0  0  0  0  0  0  0  0
  147.7990  140.0980  154.6918 N   0  0  0  0  0  0  0  0  0  0  0  0
  149.2017  137.5686  153.1072 H   0  0  0  0  0  0  0  0  0  0  0  0
  145.8417  138.9933  153.4305 H   0  0  0  0  0  0  0  0  0  0  0  0
  146.6824  137.4502  153.2546 H   0  0  0  0  0  0  0  0  0  0  0  0
  146.9204  138.7311  152.0555 H   0  0  0  0  0  0  0  0  0  0  0  0
  151.8510  137.4980  155.0549 H   0  0  0  0  0  0  0  0  0  0  0  0
  152.2920  138.6015  153.7440 H   0  0  0  0  0  0  0  0  0  0  0  0
  151.3086  137.1783  153.4081 H   0  0  0  0  0  0  0  0  0  0  0  0
  151.7317  141.3086  155.5747 H   0  0  0  0  0  0  0  0  0  0  0  0
  152.2755  139.6940  155.8585 H   0  0  0  0  0  0  0  0  0  0  0  0
  152.9678  141.5826  157.6018 H   0  0  0  0  0  0  0  0  0  0  0  0
  151.3980  141.0303  160.0680 H   0  0  0  0  0  0  0  0  0  0  0  0
  153.5476  141.2468  161.2667 H   0  0  0  0  0  0  0  0  0  0  0  0
  154.3720  141.7172  159.7804 H   0  0  0  0  0  0  0  0  0  0  0  0
  153.7383  140.0862  159.9730 H   0  0  0  0  0  0  0  0  0  0  0  0
  150.8705  143.2810  159.4895 H   0  0  0  0  0  0  0  0  0  0  0  0
  153.8467  143.8011  159.0322 H   0  0  0  0  0  0  0  0  0  0  0  0
  152.5949  145.0390  159.0355 H   0  0  0  0  0  0  0  0  0  0  0  0
  152.5853  143.8017  157.7997 H   0  0  0  0  0  0  0  0  0  0  0  0
  153.0913  143.3498  161.5867 H   0  0  0  0  0  0  0  0  0  0  0  0
  151.3869  143.0316  161.8971 H   0  0  0  0  0  0  0  0  0  0  0  0
  151.8905  144.6130  161.3384 H   0  0  0  0  0  0  0  0  0  0  0  0
  1 20  1  0  0  0  0
  1 21  1  0  0  0  0
  1 22  1  0  0  0  0
  1  2  1  0  0  0  0
  2  3  1  0  0  0  0
  2 18  2  0  0  0  0
  3  4  1  0  0  0  0
  3 19  1  0  0  0  0
  4  6  2  0  0  0  0
  4  5  1  0  0  0  0
  5 23  1  0  0  0  0
  5 24  1  0  0  0  0
  5 25  1  0  0  0  0
  6 16  1  0  0  0  0
  6  7  1  0  0  0  0
  7  8  1  0  0  0  0
  7 26  1  0  0  0  0
  7 27  1  0  0  0  0
  8  9  2  0  0  0  0
  8 10  1  0  0  0  0
 10 11  1  0  0  0  0
 10 28  1  0  0  0  0
 11 12  1  0  0  0  0
 11 13  1  0  0  0  0
 11 29  1  0  0  0  0
 12 30  1  0  0  0  0
 12 31  1  0  0  0  0
 12 32  1  0  0  0  0
 13 14  1  0  0  0  0
 13 15  1  0  0  0  0
 13 33  1  0  0  0  0
 14 34  1  0  0  0  0
 14 35  1  0  0  0  0
 14 36  1  0  0  0  0
 15 37  1  0  0  0  0
 15 38  1  0  0  0  0
 15 39  1  0  0  0  0
 16 17  2  0  0  0  0
 16 18  1  0  0  0  0
M  END
> <s_m_source_file>
AV-unprocessed.smi

> <i_m_source_file_index>
1362

> <i_lp_mmshare_version>
43012

> <i_f3d_flags>
0

> <s_epik_input>
W0NIM11jMW5jKFtDSDNdKWMoYyg9TylbbkhdMSlbQ0gyXUMoPU8pW05IXVtDQEhdKFtDSDNdKVtDSF0oW0NIM10pW0NIM10=

> <s_epik_cmdline>
J2VwaWtfcHl0aG9uJywgJy1waCcsICc3LjAnLCAnLXRuJywgJzgnLCAnLW1hJywgJzIwMCcsICctbWV0YWxfYmluZGluZycsICctaW1hZScsICc8aW5maWxlLm1hZT4nLCAnLW9tYWUnLCAnPG91dGZpbGUubWFlPic=

> <r_lp_tautomer_probability>
0.156392

> <r_epik_Ionization_Penalty>
0.0140737

> <r_epik_Ionization_Penalty_Charging>
0.0139511

> <r_epik_Ionization_Penalty_Neutral>
0.000122633

> <r_epik_State_Penalty>
1.53034

> <r_epik_Charging_Adjusted_Penalty>
1.54429

> <i_epik_Tot_Q>
0

> <i_epik_Tot_abs_Q>
0

> <r_epik_Metal_State_Penalty>
1.70655

> <b_epik_Metal_Only>
0

> <s_lp_Force_Field>
OPLS_2005

> <r_lp_Energy>
10.7391

> <b_lp_Chiralities_Consistent>
1

> <s_lp_Variant>
AV-unprocessed.smi:1362-4

> <Gold.Version>
5.8.1

> <Gold.Id.Protein>
6NUR|6NUR_protein|mol2

> <Gold.PLP.Fitness>
40.2674

> <Gold.PLP.PLP>
-38.0969

> <Gold.PLP.part.hbond>
-2.0000

> <Gold.PLP.part.metal>
0.0000

> <Gold.PLP.part.buried>
-3.3640

> <Gold.PLP.part.nonpolar>
-33.3865

> <Gold.PLP.part.repulsive>
0.9846

> <Gold.PLP.ligand.clash>
0.0000

> <Gold.PLP.ligand.torsion>
0.4267

> <Gold.PLP.Chemscore.Hbond>
1.0000

> <Gold.PLP.Chemscore.CHOScore>
0.0000

> <Gold.PLP.Chemscore.Metal>
0.0000

> <Gold.Chemscore.Hbonds>
donor molecule, donor type, donor heavy atom, donor atom, acceptor molecule, acceptor atom, score
      L1  H     3    19       P1  7948  1.00

> <Gold.PLP.Chemscore.Internal.Correction>
0.0239

> <Gold.Rescore>
     Score         DG    S(hbond)    S(metal)    S(lipo)     H(rot)  DE(clash)    DE(int)     intcor
     13.87     -15.11       0.98        0.00      91.27       1.69       0.10       1.14       ----

> <Gold.Chemscore.Fitness>
13.8658

> <Gold.Chemscore.DG>
-15.1064

> <Gold.Chemscore.ZeroCoef>
-5.4800

> <Gold.Chemscore.Hbond>
0.9815

> <Gold.Chemscore.Metal>
0.0000

> <Gold.Chemscore.Lipo>
91.2725

> <Gold.Chemscore.Internal_Hbond>
0.0000

> <Gold.Chemscore.DEClash>
0.1036

> <Gold.Chemscore.DEInternal>
1.1370

> <Gold.Chemscore.Rot>
1.6916

> <Gold.Chemscore.Internal.Correction>
   9.000000E+99

> <Gold.Chemscore.Hbonds>
donor molecule, donor type, donor heavy atom, donor atom, acceptor molecule, acceptor atom, score
      L1  H     3    19       P1  7948  0.99

> <Gold.Chemscore.Hbond.Weighted>
-3.2781

> <Gold.Chemscore.Metal.Weighted>
-0.0000

> <Gold.Chemscore.Lipo.Weighted>
-10.6789

> <Gold.Chemscore.Internal_Hbond.Weighted>
0.0000

> <Gold.Chemscore.DEClash.Weighted>
0.1036

> <Gold.Chemscore.DEInternal.Weighted>
1.1370

> <Gold.Chemscore.Rot.Weighted>
4.3305

> <Gold.Chemscore.Internal.Correction.Weighted>
   9.000000E+99

> <Gold.Protein.RotatedTorsions>
[ 6907 6896 6895 6894 ] final   61.48 input  -60.11 | X-H torsion
[ 7974 7965 7964 7962 ] final -126.84 input  175.53 | X-H torsion
[ 8008 7997 7996 7995 ] final -118.34 input   59.86 | X-H torsion
[ 10167 10162 10161 10158 ] final   33.43 input  -65.29 | X-H torsion
[ 10718 10713 10712 10709 ] final  -58.78 input   66.30 | X-H torsion
[ 10763 10752 10751 10750 ] final  139.56 input  -60.55 | X-H torsion
[ 11005 11000 10999 10996 ] final  -66.93 input  -57.11 | X-H torsion

> <Gold.Protein.ActiveResidues>
 VAL166  LYS551  ARG553  GLY616  TRP617  ASP618  TYR619  PRO620  LYS621  CYS622 
 ASP623  PHE694  ASN695  SER759  ASP760  ASP761  ALA762  ILE779  LEU786  VAL792 
 PHE793  MET794  SER795  GLU796  ALA797  LYS798  CYS799  TRP800  GLU811  SER814 

> <Gold.Protein.RotatedAtoms>
  152.4092  134.6154  160.0036 H   0  0  0  0  0  0  0  0  0  0  0  0  # atno 6907 bound_to 6896
  151.6336  133.3325  159.3122 H   0  0  0  0  0  0  0  0  0  0  0  0  # atno 6908 bound_to 6896
  150.7984  134.7101  159.6644 H   0  0  0  0  0  0  0  0  0  0  0  0  # atno 6909 bound_to 6896
  144.9831  140.7660  143.4600 H   0  0  0  0  0  0  0  0  0  0  0  0  # atno 7974 bound_to 7965
  155.0982  140.0395  157.2689 H   0  0  0  0  0  0  0  0  0  0  0  0  # atno 8008 bound_to 7997
  154.6779  140.2626  155.6914 H   0  0  0  0  0  0  0  0  0  0  0  0  # atno 8009 bound_to 7997
  156.2683  140.2784  156.1312 H   0  0  0  0  0  0  0  0  0  0  0  0  # atno 8010 bound_to 7997
  140.4408  144.1190  150.6174 H   0  0  0  0  0  0  0  0  0  0  0  0  # atno 10167 bound_to 10162
  156.1109  130.4175  150.0625 H   0  0  0  0  0  0  0  0  0  0  0  0  # atno 10718 bound_to 10713
  153.9082  135.3014  155.3448 H   0  0  0  0  0  0  0  0  0  0  0  0  # atno 10763 bound_to 10752
  154.7636  135.4921  153.9515 H   0  0  0  0  0  0  0  0  0  0  0  0  # atno 10764 bound_to 10752
  153.1207  135.6781  153.9441 H   0  0  0  0  0  0  0  0  0  0  0  0  # atno 10765 bound_to 10752
  141.1495  133.6709  156.6214 H   0  0  0  0  0  0  0  0  0  0  0  0  # atno 11005 bound_to 11000
  145.2392  139.2080  143.5002 LP  0  0  0  0  0  0  0  0  0  0  0  0  # atno 17320 bound_to 7965
  146.3413  140.2284  142.8593 LP  0  0  0  0  0  0  0  0  0  0  0  0  # atno 17321 bound_to 7965
  140.4320  143.2564  151.9583 LP  0  0  0  0  0  0  0  0  0  0  0  0  # atno 17342 bound_to 10162
  139.4789  144.5734  151.8050 LP  0  0  0  0  0  0  0  0  0  0  0  0  # atno 17343 bound_to 10162
  156.8588  130.9484  151.3619 LP  0  0  0  0  0  0  0  0  0  0  0  0  # atno 17370 bound_to 10713
  157.6290  130.8714  149.9241 LP  0  0  0  0  0  0  0  0  0  0  0  0  # atno 17371 bound_to 10713
  140.3537  134.7747  157.4485 LP  0  0  0  0  0  0  0  0  0  0  0  0  # atno 17394 bound_to 11000
  140.0840  134.5692  155.8511 LP  0  0  0  0  0  0  0  0  0  0  0  0  # atno 17395 bound_to 11000

$$$$
