AV-unprocessed.smi:1546|AV-procd|sdf|6218|dock4
  -GOLD-   22720 6393D 1   1.00000     0.00000
 Structure written by MMmdl.
 30 31  0  0  0  0  0  0  0  0  1 V2000
  151.6583  140.0294  155.3554 O   0  0  0  0  0  0  0  0  0  0  0  0
  151.2446  140.7472  156.2656 C   0  0  0  0  0  0  0  0  0  0  0  0
  152.1385  141.0431  157.4716 C   0  0  0  0  0  0  0  0  0  0  0  0
  151.5951  142.1200  158.2196 O   0  0  0  0  0  0  0  0  0  0  0  0
  152.5318  142.6836  159.1210 C   0  0  0  0  0  0  0  0  0  0  0  0
  151.9383  143.9361  159.7293 C   0  0  0  0  0  0  0  0  0  0  0  0
  150.7785  144.6345  159.0564 C   0  0  0  0  0  0  0  0  0  0  0  0
  152.1387  145.2838  159.0738 C   0  0  0  0  0  0  0  0  0  0  0  0
  150.0288  141.3266  156.3095 N   0  0  0  0  0  0  0  0  0  0  0  0
  148.9719  141.2654  155.3858 C   0  0  0  0  0  0  0  0  0  0  0  0
  149.0608  140.8397  154.0992 C   0  0  0  0  0  0  0  0  0  0  0  0
  147.9847  140.7960  153.2237 N   0  0  0  0  0  0  0  0  0  0  0  0
  146.7398  141.2098  153.6694 C   0  0  0  0  0  0  0  0  0  0  0  0
  146.5148  141.6527  154.9219 C   0  0  0  0  0  0  0  0  0  0  0  0
  147.6385  141.7076  155.8838 C   0  0  0  0  0  0  0  0  0  0  0  0
  147.4661  142.1015  157.0373 O   0  0  0  0  0  0  0  0  0  0  0  0
  152.2116  140.1515  158.0968 H   0  0  0  0  0  0  0  0  0  0  0  0
  153.1408  141.2924  157.1200 H   0  0  0  0  0  0  0  0  0  0  0  0
  152.7846  141.9725  159.9094 H   0  0  0  0  0  0  0  0  0  0  0  0
  153.4515  142.9462  158.5966 H   0  0  0  0  0  0  0  0  0  0  0  0
  151.9154  143.9275  160.8174 H   0  0  0  0  0  0  0  0  0  0  0  0
  150.4260  144.2352  158.1074 H   0  0  0  0  0  0  0  0  0  0  0  0
  150.0094  145.0613  159.6971 H   0  0  0  0  0  0  0  0  0  0  0  0
  152.2788  146.1429  159.7267 H   0  0  0  0  0  0  0  0  0  0  0  0
  152.6912  145.3158  158.1367 H   0  0  0  0  0  0  0  0  0  0  0  0
  149.8403  141.8992  157.1199 H   0  0  0  0  0  0  0  0  0  0  0  0
  149.9709  140.4935  153.6373 H   0  0  0  0  0  0  0  0  0  0  0  0
  145.9603  141.1481  152.9244 H   0  0  0  0  0  0  0  0  0  0  0  0
  145.5326  141.9698  155.2405 H   0  0  0  0  0  0  0  0  0  0  0  0
  148.1082  140.4672  152.2764 H   0  0  0  0  0  0  0  0  0  0  0  0
  1  2  2  0  0  0  0
  2  3  1  0  0  0  0
  2  9  1  0  0  0  0
  3  4  1  0  0  0  0
  3 17  1  0  0  0  0
  3 18  1  0  0  0  0
  4  5  1  0  0  0  0
  5  6  1  0  0  0  0
  5 19  1  0  0  0  0
  5 20  1  0  0  0  0
  6  8  1  0  0  0  0
  6  7  1  0  0  0  0
  6 21  1  0  0  0  0
  7  8  1  0  0  0  0
  7 22  1  0  0  0  0
  7 23  1  0  0  0  0
  8 24  1  0  0  0  0
  8 25  1  0  0  0  0
  9 26  1  0  0  0  0
  9 10  1  0  0  0  0
 10 15  1  0  0  0  0
 10 11  2  0  0  0  0
 11 27  1  0  0  0  0
 11 12  1  0  0  0  0
 12 30  1  0  0  0  0
 12 13  1  0  0  0  0
 13 28  1  0  0  0  0
 13 14  2  0  0  0  0
 14 15  1  0  0  0  0
 14 29  1  0  0  0  0
 15 16  2  0  0  0  0
M  END
> <s_m_source_file>
AV-unprocessed.smi

> <i_m_source_file_index>
1546

> <i_lp_mmshare_version>
43012

> <i_f3d_flags>
0

> <s_epik_input>
W0NIMl0xW0NIMl1bQ0hdMVtDSDJdT1tDSDJdQyg9TylbTkhdYzJbY0hdbltjSF1bY0hdYzJbT0hd

> <s_epik_cmdline>
J2VwaWtfcHl0aG9uJywgJy1waCcsICc3LjAnLCAnLXRuJywgJzgnLCAnLW1hJywgJzIwMCcsICctbWV0YWxfYmluZGluZycsICctaW1hZScsICc8aW5maWxlLm1hZT4nLCAnLW9tYWUnLCAnPG91dGZpbGUubWFlPic=

> <r_lp_tautomer_probability>
1

> <r_epik_Ionization_Penalty>
0.000226134

> <r_epik_Ionization_Penalty_Charging>
0.000226086

> <r_epik_Ionization_Penalty_Neutral>
4.85517e-08

> <r_epik_State_Penalty>
-0

> <r_epik_Charging_Adjusted_Penalty>
0.000226086

> <i_epik_Tot_Q>
0

> <i_epik_Tot_abs_Q>
0

> <r_epik_Metal_State_Penalty>
0.0890487

> <b_epik_Metal_Only>
0

> <s_lp_Force_Field>
OPLS_2005

> <r_lp_Energy>
13.4663

> <b_lp_Chiralities_Consistent>
1

> <s_lp_Variant>
AV-unprocessed.smi:1546-1

> <Gold.Version>
5.8.1

> <Gold.Id.Protein>
6NUR|6NUR_protein|mol2

> <Gold.PLP.Fitness>
40.1565

> <Gold.PLP.PLP>
-31.5145

> <Gold.PLP.part.hbond>
-2.0000

> <Gold.PLP.part.metal>
0.0000

> <Gold.PLP.part.buried>
-4.0851

> <Gold.PLP.part.nonpolar>
-25.0347

> <Gold.PLP.part.repulsive>
0.3993

> <Gold.PLP.ligand.clash>
0.0000

> <Gold.PLP.ligand.torsion>
0.7718

> <Gold.PLP.Chemscore.Hbond>
1.7120

> <Gold.PLP.Chemscore.CHOScore>
1.4938

> <Gold.PLP.Chemscore.Metal>
0.0000

> <Gold.Chemscore.Hbonds>
donor molecule, donor type, donor heavy atom, donor atom, acceptor molecule, acceptor atom, score
      L1  H    12    30       P1  7957  0.74
      P1  H  7989  7998       L1     1  0.96
      L1  C    11    27       P1  7957  0.61
      L1  C    13    28       P1 10175  0.89

> <Gold.PLP.Chemscore.Internal.Correction>
0.5682

> <Gold.Rescore>
     Score         DG    S(hbond)    S(metal)    S(lipo)     H(rot)  DE(clash)    DE(int)     intcor
     13.73     -15.63       1.59        0.00      79.79       1.75       0.07       1.84       ----

> <Gold.Chemscore.Fitness>
13.7291

> <Gold.Chemscore.DG>
-15.6335

> <Gold.Chemscore.ZeroCoef>
-5.4800

> <Gold.Chemscore.Hbond>
1.5892

> <Gold.Chemscore.Metal>
0.0000

> <Gold.Chemscore.Lipo>
79.7937

> <Gold.Chemscore.Internal_Hbond>
0.0000

> <Gold.Chemscore.DEClash>
0.0681

> <Gold.Chemscore.DEInternal>
1.8363

> <Gold.Chemscore.Rot>
1.7540

> <Gold.Chemscore.Internal.Correction>
   9.000000E+99

> <Gold.Chemscore.Hbonds>
donor molecule, donor type, donor heavy atom, donor atom, acceptor molecule, acceptor atom, score
      L1  H    12    30       P1  7957  0.74
      P1  H  7989  7998       L1     1  0.78

> <Gold.Chemscore.Hbond.Weighted>
-5.3078

> <Gold.Chemscore.Metal.Weighted>
-0.0000

> <Gold.Chemscore.Lipo.Weighted>
-9.3359

> <Gold.Chemscore.Internal_Hbond.Weighted>
0.0000

> <Gold.Chemscore.DEClash.Weighted>
0.0681

> <Gold.Chemscore.DEInternal.Weighted>
1.8363

> <Gold.Chemscore.Rot.Weighted>
4.4901

> <Gold.Chemscore.Internal.Correction.Weighted>
   9.000000E+99

> <Gold.Protein.RotatedTorsions>
[ 6907 6896 6895 6894 ] final  108.95 input  -60.11 | X-H torsion
[ 7974 7965 7964 7962 ] final   33.99 input  175.53 | X-H torsion
[ 8008 7997 7996 7995 ] final  -97.36 input   59.86 | X-H torsion
[ 10167 10162 10161 10158 ] final  170.45 input  -65.29 | X-H torsion
[ 10718 10713 10712 10709 ] final  -51.68 input   66.30 | X-H torsion
[ 10763 10752 10751 10750 ] final  -74.32 input  -60.55 | X-H torsion
[ 11005 11000 10999 10996 ] final   -8.09 input  -57.11 | X-H torsion

> <Gold.Protein.ActiveResidues>
 VAL166  LYS551  ARG553  GLY616  TRP617  ASP618  TYR619  PRO620  LYS621  CYS622 
 ASP623  PHE694  ASN695  SER759  ASP760  ASP761  ALA762  ILE779  LEU786  VAL792 
 PHE793  MET794  SER795  GLU796  ALA797  LYS798  CYS799  TRP800  GLU811  SER814 

> <Gold.Protein.RotatedAtoms>
  152.5089  133.9014  159.7442 H   0  0  0  0  0  0  0  0  0  0  0  0  # atno 6907 bound_to 6896
  150.9429  133.6627  159.2794 H   0  0  0  0  0  0  0  0  0  0  0  0  # atno 6908 bound_to 6896
  151.3932  135.0964  159.9585 H   0  0  0  0  0  0  0  0  0  0  0  0  # atno 6909 bound_to 6896
  146.1383  139.6326  142.9180 H   0  0  0  0  0  0  0  0  0  0  0  0  # atno 7974 bound_to 7965
  154.7867  140.0464  157.1169 H   0  0  0  0  0  0  0  0  0  0  0  0  # atno 8008 bound_to 7997
  154.9640  140.3081  155.4998 H   0  0  0  0  0  0  0  0  0  0  0  0  # atno 8009 bound_to 7997
  156.2944  140.2265  156.4728 H   0  0  0  0  0  0  0  0  0  0  0  0  # atno 8010 bound_to 7997
  139.5019  144.3595  151.9839 H   0  0  0  0  0  0  0  0  0  0  0  0  # atno 10167 bound_to 10162
  156.1688  130.4149  149.9679 H   0  0  0  0  0  0  0  0  0  0  0  0  # atno 10718 bound_to 10713
  154.4714  135.5868  153.6325 H   0  0  0  0  0  0  0  0  0  0  0  0  # atno 10763 bound_to 10752
  152.9835  135.6068  154.3361 H   0  0  0  0  0  0  0  0  0  0  0  0  # atno 10764 bound_to 10752
  154.3243  135.2843  155.2483 H   0  0  0  0  0  0  0  0  0  0  0  0  # atno 10765 bound_to 10752
  140.7198  133.8838  155.8812 H   0  0  0  0  0  0  0  0  0  0  0  0  # atno 11005 bound_to 11000
  145.5105  141.0435  143.2490 LP  0  0  0  0  0  0  0  0  0  0  0  0  # atno 17320 bound_to 7965
  144.7764  139.6621  143.7173 LP  0  0  0  0  0  0  0  0  0  0  0  0  # atno 17321 bound_to 7965
  140.3032  144.3623  150.6054 LP  0  0  0  0  0  0  0  0  0  0  0  0  # atno 17342 bound_to 10162
  140.5857  143.2170  151.7346 LP  0  0  0  0  0  0  0  0  0  0  0  0  # atno 17343 bound_to 10162
  156.7486  130.9106  151.3636 LP  0  0  0  0  0  0  0  0  0  0  0  0  # atno 17370 bound_to 10713
  157.6787  130.9119  150.0214 LP  0  0  0  0  0  0  0  0  0  0  0  0  # atno 17371 bound_to 10713
  141.0013  134.1146  157.4314 LP  0  0  0  0  0  0  0  0  0  0  0  0  # atno 17394 bound_to 11000
  139.8851  135.0069  156.6412 LP  0  0  0  0  0  0  0  0  0  0  0  0  # atno 17395 bound_to 11000

$$$$
