AV-unprocessed.smi:3348|AV-procd|sdf|12918|dock4
  -GOLD-   2272019333D 1   1.00000     0.00000
 Structure written by MMmdl.
 47 48  0  0  0  0  0  0  0  0  2 V2000
  144.1251  136.3162  152.7700 C   0  0  0  0  0  0  0  0  0  0  0  0
  145.4376  136.1151  151.9873 C   0  0  1  0  0  0  0  0  0  0  0  0
  145.2020  135.4867  150.5980 C   0  0  0  0  0  0  0  0  0  0  0  0
  145.0915  134.0397  150.6395 N   0  0  0  0  0  0  0  0  0  0  0  0
  143.9875  133.2536  150.3833 C   0  0  0  0  0  0  0  0  0  0  0  0
  144.3697  131.9527  150.5438 C   0  0  0  0  0  0  0  0  0  0  0  0
  145.7451  132.0451  150.8963 C   0  0  0  0  0  0  0  0  0  0  0  0
  146.1742  133.2958  150.9511 N   0  0  0  0  0  0  0  0  0  0  0  0
  146.1660  137.3933  151.8246 N   0  3  0  0  0  0  0  0  0  0  0  0
  146.3103  138.2043  153.0523 C   0  0  0  0  0  0  0  0  0  0  0  0
  146.9460  139.5614  152.7371 C   0  0  0  0  0  0  0  0  0  0  0  0
  146.4694  140.5078  153.6816 O   0  0  0  0  0  0  0  0  0  0  0  0
  147.1625  141.7519  153.6840 C   0  0  1  0  0  0  0  0  0  0  0  0
  146.2117  142.9048  154.0717 C   0  0  0  0  0  0  0  0  0  0  0  0
  145.7008  142.7592  155.5143 C   0  0  0  0  0  0  0  0  0  0  0  0
  146.8670  142.6536  156.5087 C   0  0  0  0  0  0  0  0  0  0  0  0
  147.8218  141.5093  156.1323 C   0  0  0  0  0  0  0  0  0  0  0  0
  148.3355  141.6528  154.6853 C   0  0  1  0  0  0  0  0  0  0  0  0
  149.3194  140.5321  154.3139 C   0  0  0  0  0  0  0  0  0  0  0  0
  143.5975  135.3731  152.9136 H   0  0  0  0  0  0  0  0  0  0  0  0
  143.4518  136.9947  152.2449 H   0  0  0  0  0  0  0  0  0  0  0  0
  144.3035  136.7263  153.7634 H   0  0  0  0  0  0  0  0  0  0  0  0
  146.0787  135.4382  152.5545 H   0  0  0  0  0  0  0  0  0  0  0  0
  144.2912  135.8882  150.1510 H   0  0  0  0  0  0  0  0  0  0  0  0
  146.0191  135.7444  149.9223 H   0  0  0  0  0  0  0  0  0  0  0  0
  143.0321  133.6794  150.1143 H   0  0  0  0  0  0  0  0  0  0  0  0
  143.7605  131.0687  150.4254 H   0  0  0  0  0  0  0  0  0  0  0  0
  146.4393  131.2463  151.1116 H   0  0  0  0  0  0  0  0  0  0  0  0
  147.1000  137.1708  151.5100 H   0  0  0  0  0  0  0  0  0  0  0  0
  145.3301  138.3636  153.5008 H   0  0  0  0  0  0  0  0  0  0  0  0
  146.9185  137.6711  153.7843 H   0  0  0  0  0  0  0  0  0  0  0  0
  148.0341  139.4895  152.7750 H   0  0  0  0  0  0  0  0  0  0  0  0
  146.6719  139.8632  151.7265 H   0  0  0  0  0  0  0  0  0  0  0  0
  147.5760  141.9423  152.6920 H   0  0  0  0  0  0  0  0  0  0  0  0
  146.7433  143.8525  153.9768 H   0  0  0  0  0  0  0  0  0  0  0  0
  145.3695  142.9679  153.3834 H   0  0  0  0  0  0  0  0  0  0  0  0
  145.0697  143.6100  155.7722 H   0  0  0  0  0  0  0  0  0  0  0  0
  145.0703  141.8727  155.5932 H   0  0  0  0  0  0  0  0  0  0  0  0
  147.4164  143.5958  156.5278 H   0  0  0  0  0  0  0  0  0  0  0  0
  146.4823  142.5005  157.5175 H   0  0  0  0  0  0  0  0  0  0  0  0
  148.6628  141.4955  156.8264 H   0  0  0  0  0  0  0  0  0  0  0  0
  147.3103  140.5533  156.2520 H   0  0  0  0  0  0  0  0  0  0  0  0
  148.8903  142.5907  154.6290 H   0  0  0  0  0  0  0  0  0  0  0  0
  148.8485  139.5504  154.3710 H   0  0  0  0  0  0  0  0  0  0  0  0
  150.1772  140.5266  154.9867 H   0  0  0  0  0  0  0  0  0  0  0  0
  149.6981  140.6622  153.2999 H   0  0  0  0  0  0  0  0  0  0  0  0
  145.7120  137.9437  151.1099 H   0  0  0  0  0  0  0  0  0  0  0  0
  1  2  1  0  0  0  0
  1 20  1  0  0  0  0
  1 21  1  0  0  0  0
  1 22  1  0  0  0  0
  2  3  1  0  0  0  0
  2  9  1  0  0  0  0
  2 23  1  0  0  0  0
  3  4  1  0  0  0  0
  3 24  1  0  0  0  0
  3 25  1  0  0  0  0
  4  8  1  0  0  0  0
  4  5  1  0  0  0  0
  5  6  2  0  0  0  0
  5 26  1  0  0  0  0
  6  7  1  0  0  0  0
  6 27  1  0  0  0  0
  7  8  2  0  0  0  0
  7 28  1  0  0  0  0
  9 10  1  0  0  0  0
  9 29  1  0  0  0  0
  9 47  1  0  0  0  0
 10 11  1  0  0  0  0
 10 30  1  0  0  0  0
 10 31  1  0  0  0  0
 11 12  1  0  0  0  0
 11 32  1  0  0  0  0
 11 33  1  0  0  0  0
 12 13  1  0  0  0  0
 13 18  1  0  0  0  0
 13 14  1  0  0  0  0
 13 34  1  0  0  0  0
 14 15  1  0  0  0  0
 14 35  1  0  0  0  0
 14 36  1  0  0  0  0
 15 16  1  0  0  0  0
 15 37  1  0  0  0  0
 15 38  1  0  0  0  0
 16 17  1  0  0  0  0
 16 39  1  0  0  0  0
 16 40  1  0  0  0  0
 17 18  1  0  0  0  0
 17 41  1  0  0  0  0
 17 42  1  0  0  0  0
 18 19  1  0  0  0  0
 18 43  1  0  0  0  0
 19 44  1  0  0  0  0
 19 45  1  0  0  0  0
 19 46  1  0  0  0  0
M  CHG  1   9   1
M  END
> <s_m_source_file>
AV-unprocessed.smi

> <i_m_source_file_index>
3348

> <i_lp_mmshare_version>
43012

> <i_f3d_flags>
0

> <s_epik_input>
bjFbY0hdW2NIXVtjSF1uMVtDSDJdW0NAQEhdKFtDSDNdKVtOSF1bQ0gyXVtDSDJdT1tDQEBIXTJbQ0gyXVtDSDJdW0NIMl1bQ0gyXVtDQEhdMltDSDNd

> <s_epik_cmdline>
J2VwaWtfcHl0aG9uJywgJy1waCcsICc3LjAnLCAnLXRuJywgJzgnLCAnLW1hJywgJzIwMCcsICctbWV0YWxfYmluZGluZycsICctaW1hZScsICc8aW5maWxlLm1hZT4nLCAnLW9tYWUnLCAnPG91dGZpbGUubWFlPic=

> <r_lp_tautomer_probability>
1

> <r_epik_Ionization_Penalty>
0.00925088

> <r_epik_Ionization_Penalty_Charging>
0.00924645

> <r_epik_Ionization_Penalty_Neutral>
4.42413e-06

> <r_epik_State_Penalty>
0.0070118

> <r_epik_Charging_Adjusted_Penalty>
0.0162583

> <i_epik_Tot_Q>
1

> <i_epik_Tot_abs_Q>
1

> <r_epik_Metal_State_Penalty>
0.00701222

> <b_epik_Metal_Only>
0

> <s_lp_Force_Field>
OPLS_2005

> <r_lp_Energy>
16.697

> <b_lp_Chiralities_Consistent>
1

> <s_lp_Variant>
AV-unprocessed.smi:3348-4

> <Gold.Version>
5.8.1

> <Gold.Id.Protein>
6NUR|6NUR_protein|mol2

> <Gold.PLP.Fitness>
48.2073

> <Gold.PLP.PLP>
-37.6360

> <Gold.PLP.part.hbond>
-1.0299

> <Gold.PLP.part.metal>
0.0000

> <Gold.PLP.part.buried>
-3.8105

> <Gold.PLP.part.nonpolar>
-33.3463

> <Gold.PLP.part.repulsive>
0.9352

> <Gold.PLP.ligand.clash>
0.0000

> <Gold.PLP.ligand.torsion>
1.0105

> <Gold.PLP.Chemscore.Hbond>
2.1300

> <Gold.PLP.Chemscore.CHOScore>
2.0000

> <Gold.PLP.Chemscore.Metal>
0.0000

> <Gold.Chemscore.Hbonds>
donor molecule, donor type, donor heavy atom, donor atom, acceptor molecule, acceptor atom, score
      L1  H     9    29       P1  7948  1.79
      L1  H     9    47       P1 10171  0.23
      L1  C     5    26       P1 10186  1.00
      L1  C     7    28       P1 10747  0.58

> <Gold.PLP.Chemscore.Internal.Correction>
0.2022

> <Gold.Rescore>
     Score         DG    S(hbond)    S(metal)    S(lipo)     H(rot)  DE(clash)    DE(int)     intcor
     13.80     -14.82       0.98        0.00      91.54       1.82       0.10       0.92       ----

> <Gold.Chemscore.Fitness>
13.8001

> <Gold.Chemscore.DG>
-14.8153

> <Gold.Chemscore.ZeroCoef>
-5.4800

> <Gold.Chemscore.Hbond>
0.9805

> <Gold.Chemscore.Metal>
0.0000

> <Gold.Chemscore.Lipo>
91.5407

> <Gold.Chemscore.Internal_Hbond>
0.0000

> <Gold.Chemscore.DEClash>
0.0990

> <Gold.Chemscore.DEInternal>
0.9162

> <Gold.Chemscore.Rot>
1.8163

> <Gold.Chemscore.Internal.Correction>
   9.000000E+99

> <Gold.Chemscore.Hbonds>
donor molecule, donor type, donor heavy atom, donor atom, acceptor molecule, acceptor atom, score
      L1  H     9    29       P1  7948  0.82
      L1  H     9    47       P1 10171  0.22

> <Gold.Chemscore.Hbond.Weighted>
-3.2748

> <Gold.Chemscore.Metal.Weighted>
-0.0000

> <Gold.Chemscore.Lipo.Weighted>
-10.7103

> <Gold.Chemscore.Internal_Hbond.Weighted>
0.0000

> <Gold.Chemscore.DEClash.Weighted>
0.0990

> <Gold.Chemscore.DEInternal.Weighted>
0.9162

> <Gold.Chemscore.Rot.Weighted>
4.6497

> <Gold.Chemscore.Internal.Correction.Weighted>
   9.000000E+99

> <Gold.Protein.RotatedTorsions>
[ 6907 6896 6895 6894 ] final   -2.55 input  -60.11 | X-H torsion
[ 7974 7965 7964 7962 ] final   29.99 input  175.53 | X-H torsion
[ 8008 7997 7996 7995 ] final   58.25 input   59.86 | X-H torsion
[ 10167 10162 10161 10158 ] final   33.61 input  -65.29 | X-H torsion
[ 10718 10713 10712 10709 ] final -139.60 input   66.30 | X-H torsion
[ 10763 10752 10751 10750 ] final  -17.01 input  -60.55 | X-H torsion
[ 11005 11000 10999 10996 ] final   69.55 input  -57.11 | X-H torsion

> <Gold.Protein.ActiveResidues>
 VAL166  LYS551  ARG553  GLY616  TRP617  ASP618  TYR619  PRO620  LYS621  CYS622 
 ASP623  PHE694  ASN695  SER759  ASP760  ASP761  ALA762  ILE779  LEU786  VAL792 
 PHE793  MET794  SER795  GLU796  ALA797  LYS798  CYS799  TRP800  GLU811  SER814 

> <Gold.Protein.RotatedAtoms>
  151.5281  135.1068  159.9895 H   0  0  0  0  0  0  0  0  0  0  0  0  # atno 6907 bound_to 6896
  152.4590  133.7779  159.6845 H   0  0  0  0  0  0  0  0  0  0  0  0  # atno 6908 bound_to 6896
  150.8545  133.7671  159.3038 H   0  0  0  0  0  0  0  0  0  0  0  0  # atno 6909 bound_to 6896
  146.1639  139.6848  142.9015 H   0  0  0  0  0  0  0  0  0  0  0  0  # atno 7974 bound_to 7965
  155.5470  140.3485  155.4460 H   0  0  0  0  0  0  0  0  0  0  0  0  # atno 8008 bound_to 7997
  156.0611  140.1340  156.9966 H   0  0  0  0  0  0  0  0  0  0  0  0  # atno 8009 bound_to 7997
  154.4480  140.0985  156.6502 H   0  0  0  0  0  0  0  0  0  0  0  0  # atno 8010 bound_to 7997
  140.4391  144.1213  150.6171 H   0  0  0  0  0  0  0  0  0  0  0  0  # atno 10167 bound_to 10162
  156.3126  130.7490  151.1569 H   0  0  0  0  0  0  0  0  0  0  0  0  # atno 10718 bound_to 10713
  153.5673  135.7008  153.5520 H   0  0  0  0  0  0  0  0  0  0  0  0  # atno 10763 bound_to 10752
  153.3376  135.4030  155.1545 H   0  0  0  0  0  0  0  0  0  0  0  0  # atno 10764 bound_to 10752
  154.8638  135.3734  154.5194 H   0  0  0  0  0  0  0  0  0  0  0  0  # atno 10765 bound_to 10752
  139.9647  134.7001  156.0571 H   0  0  0  0  0  0  0  0  0  0  0  0  # atno 11005 bound_to 11000
  145.4518  141.0428  143.2800 LP  0  0  0  0  0  0  0  0  0  0  0  0  # atno 17320 bound_to 7965
  144.8065  139.6042  143.7049 LP  0  0  0  0  0  0  0  0  0  0  0  0  # atno 17321 bound_to 7965
  140.4339  143.2556  151.9560 LP  0  0  0  0  0  0  0  0  0  0  0  0  # atno 17342 bound_to 10162
  139.4788  144.5718  151.8076 LP  0  0  0  0  0  0  0  0  0  0  0  0  # atno 17343 bound_to 10162
  157.7394  131.0529  150.5231 LP  0  0  0  0  0  0  0  0  0  0  0  0  # atno 17370 bound_to 10713
  156.5373  130.4199  149.6171 LP  0  0  0  0  0  0  0  0  0  0  0  0  # atno 17371 bound_to 10713
  141.1326  133.6582  156.3506 LP  0  0  0  0  0  0  0  0  0  0  0  0  # atno 17394 bound_to 11000
  140.5423  134.6109  157.5383 LP  0  0  0  0  0  0  0  0  0  0  0  0  # atno 17395 bound_to 11000

$$$$
