AV-unprocessed.smi:1285|AV-procd|sdf|5370|dock7
  -GOLD-   22720 4513D 1   1.00000     0.00000
 Structure written by MMmdl.
 46 47  0  0  0  0  0  0  0  0  1 V2000
  151.7389  141.8929  157.9349 C   0  0  0  0  0  0  0  0  0  0  0  0
  151.2426  142.3031  156.5361 C   0  0  0  0  0  0  0  0  0  0  0  0
  150.2203  141.3283  155.8693 C   0  0  2  0  0  0  0  0  0  0  0  0
  149.4542  142.1600  154.8054 C   0  0  0  0  0  0  0  0  0  0  0  0
  149.2073  140.8578  156.9636 C   0  0  0  0  0  0  0  0  0  0  0  0
  148.1637  141.8360  157.2705 N   0  0  0  0  0  0  0  0  0  0  0  0
  147.0858  141.6190  158.0415 C   0  0  0  0  0  0  0  0  0  0  0  0
  146.8462  140.5367  158.5779 O   0  0  0  0  0  0  0  0  0  0  0  0
  146.1361  142.8109  158.2325 C   0  0  1  0  0  0  0  0  0  0  0  0
  144.6988  142.4959  157.7696 C   0  0  0  0  0  0  0  0  0  0  0  0
  146.1883  143.2749  159.6137 N   0  0  0  0  0  0  0  0  0  0  0  0
  146.6296  144.4324  160.1116 C   0  0  0  0  0  0  0  0  0  0  0  0
  146.5802  144.5049  161.4343 N   0  0  0  0  0  0  0  0  0  0  0  0
  146.0756  143.2661  161.7113 C   0  0  0  0  0  0  0  0  0  0  0  0
  145.8337  142.4854  160.6584 N   0  0  0  0  0  0  0  0  0  0  0  0
  150.9171  140.1792  155.2242 N   0  0  0  0  0  0  0  0  0  0  0  0
  150.0590  139.0373  154.8844 C   0  0  0  0  0  0  0  0  0  0  0  0
  150.8201  137.9591  154.0945 C   0  0  0  0  0  0  0  0  0  0  0  0
  151.9539  137.5296  154.8384 O   0  0  0  0  0  0  0  0  0  0  0  0
  152.8422  138.5985  155.1413 C   0  0  0  0  0  0  0  0  0  0  0  0
  152.0964  139.6795  155.9418 C   0  0  0  0  0  0  0  0  0  0  0  0
  152.4371  142.6343  158.3239 H   0  0  0  0  0  0  0  0  0  0  0  0
  152.2616  140.9371  157.9148 H   0  0  0  0  0  0  0  0  0  0  0  0
  150.9199  141.8130  158.6498 H   0  0  0  0  0  0  0  0  0  0  0  0
  150.8246  143.3081  156.5932 H   0  0  0  0  0  0  0  0  0  0  0  0
  152.1218  142.4122  155.9002 H   0  0  0  0  0  0  0  0  0  0  0  0
  149.1412  143.1308  155.1908 H   0  0  0  0  0  0  0  0  0  0  0  0
  148.5477  141.6563  154.4693 H   0  0  0  0  0  0  0  0  0  0  0  0
  150.0665  142.3488  153.9232 H   0  0  0  0  0  0  0  0  0  0  0  0
  148.7466  139.9086  156.6904 H   0  0  0  0  0  0  0  0  0  0  0  0
  149.7253  140.6711  157.9038 H   0  0  0  0  0  0  0  0  0  0  0  0
  148.2756  142.7545  156.8666 H   0  0  0  0  0  0  0  0  0  0  0  0
  146.5011  143.6283  157.6080 H   0  0  0  0  0  0  0  0  0  0  0  0
  144.6819  142.1940  156.7216 H   0  0  0  0  0  0  0  0  0  0  0  0
  144.0594  143.3737  157.8657 H   0  0  0  0  0  0  0  0  0  0  0  0
  144.2448  141.6919  158.3502 H   0  0  0  0  0  0  0  0  0  0  0  0
  146.9993  145.2375  159.4937 H   0  0  0  0  0  0  0  0  0  0  0  0
  145.8876  142.9270  162.7193 H   0  0  0  0  0  0  0  0  0  0  0  0
  149.6538  138.5841  155.7889 H   0  0  0  0  0  0  0  0  0  0  0  0
  149.2098  139.3524  154.2808 H   0  0  0  0  0  0  0  0  0  0  0  0
  150.1737  137.1022  153.9044 H   0  0  0  0  0  0  0  0  0  0  0  0
  151.1365  138.3433  153.1235 H   0  0  0  0  0  0  0  0  0  0  0  0
  153.6811  138.2105  155.7191 H   0  0  0  0  0  0  0  0  0  0  0  0
  153.2526  139.0143  154.2196 H   0  0  0  0  0  0  0  0  0  0  0  0
  152.7989  140.4843  156.1496 H   0  0  0  0  0  0  0  0  0  0  0  0
  151.8033  139.2583  156.9035 H   0  0  0  0  0  0  0  0  0  0  0  0
  1  2  1  0  0  0  0
  1 22  1  0  0  0  0
  1 23  1  0  0  0  0
  1 24  1  0  0  0  0
  2  3  1  0  0  0  0
  2 25  1  0  0  0  0
  2 26  1  0  0  0  0
  3  4  1  0  0  0  0
  3  5  1  0  0  0  0
  3 16  1  0  0  0  0
  4 27  1  0  0  0  0
  4 28  1  0  0  0  0
  4 29  1  0  0  0  0
  5  6  1  0  0  0  0
  5 30  1  0  0  0  0
  5 31  1  0  0  0  0
  6  7  1  0  0  0  0
  6 32  1  0  0  0  0
  7  8  2  0  0  0  0
  7  9  1  0  0  0  0
  9 10  1  0  0  0  0
  9 11  1  0  0  0  0
  9 33  1  0  0  0  0
 10 34  1  0  0  0  0
 10 35  1  0  0  0  0
 10 36  1  0  0  0  0
 11 15  1  0  0  0  0
 11 12  1  0  0  0  0
 12 13  2  0  0  0  0
 12 37  1  0  0  0  0
 13 14  1  0  0  0  0
 14 15  2  0  0  0  0
 14 38  1  0  0  0  0
 16 21  1  0  0  0  0
 16 17  1  0  0  0  0
 17 18  1  0  0  0  0
 17 39  1  0  0  0  0
 17 40  1  0  0  0  0
 18 19  1  0  0  0  0
 18 41  1  0  0  0  0
 18 42  1  0  0  0  0
 19 20  1  0  0  0  0
 20 21  1  0  0  0  0
 20 43  1  0  0  0  0
 20 44  1  0  0  0  0
 21 45  1  0  0  0  0
 21 46  1  0  0  0  0
M  END
> <s_m_source_file>
AV-unprocessed.smi

> <i_m_source_file_index>
1285

> <i_lp_mmshare_version>
43012

> <i_f3d_flags>
0

> <s_epik_input>
W0NIMl0xW0NIMl1PW0NIMl1bQ0gyXU4xW0NAQF0oW0NIM10pKFtDSDJdW0NIM10pW0NIMl1bTkhdQyg9TylbQ0BIXShbQ0gzXSluMltjSF1uW2NIXW4y

> <s_epik_cmdline>
J2VwaWtfcHl0aG9uJywgJy1waCcsICc3LjAnLCAnLXRuJywgJzgnLCAnLW1hJywgJzIwMCcsICctbWV0YWxfYmluZGluZycsICctaW1hZScsICc8aW5maWxlLm1hZT4nLCAnLW9tYWUnLCAnPG91dGZpbGUubWFlPic=

> <r_lp_tautomer_probability>
1

> <r_epik_Ionization_Penalty>
0.285697

> <r_epik_Ionization_Penalty_Charging>
0

> <r_epik_Ionization_Penalty_Neutral>
0.285697

> <r_epik_State_Penalty>
0.278478

> <r_epik_Charging_Adjusted_Penalty>
0.278478

> <i_epik_Tot_Q>
0

> <i_epik_Tot_abs_Q>
0

> <r_epik_Metal_State_Penalty>
0.278477

> <b_epik_Metal_Only>
0

> <s_lp_Force_Field>
OPLS_2005

> <r_lp_Energy>
49.308

> <b_lp_Chiralities_Consistent>
1

> <s_lp_Variant>
AV-unprocessed.smi:1285-4

> <Gold.Version>
5.8.1

> <Gold.Id.Protein>
6NUR|6NUR_protein|mol2

> <Gold.PLP.Fitness>
39.2219

> <Gold.PLP.PLP>
-30.0955

> <Gold.PLP.part.hbond>
-4.0170

> <Gold.PLP.part.metal>
0.0000

> <Gold.PLP.part.buried>
-2.0646

> <Gold.PLP.part.nonpolar>
-23.2590

> <Gold.PLP.part.repulsive>
0.3183

> <Gold.PLP.ligand.clash>
0.0025

> <Gold.PLP.ligand.torsion>
1.3570

> <Gold.PLP.Chemscore.Hbond>
2.8827

> <Gold.PLP.Chemscore.CHOScore>
1.0000

> <Gold.PLP.Chemscore.Metal>
0.0000

> <Gold.Chemscore.Hbonds>
donor molecule, donor type, donor heavy atom, donor atom, acceptor molecule, acceptor atom, score
      L1  H     6    32       P1  8028  0.15
      P1  H  6934  6946       L1    15  1.00
      P1  H  7989  7998       L1    16  1.00
      P1  H 10752 10763       L1    19  0.54
      L1  C    12    37       P1  8029  1.00

> <Gold.PLP.Chemscore.Internal.Correction>
0.1948

> <Gold.Rescore>
     Score         DG    S(hbond)    S(metal)    S(lipo)     H(rot)  DE(clash)    DE(int)     intcor
      7.01     -12.11       1.63        0.00      68.77       2.68       3.44       1.66       ----

> <Gold.Chemscore.Fitness>
7.0069

> <Gold.Chemscore.DG>
-12.1144

> <Gold.Chemscore.ZeroCoef>
-5.4800

> <Gold.Chemscore.Hbond>
1.6329

> <Gold.Chemscore.Metal>
0.0000

> <Gold.Chemscore.Lipo>
68.7742

> <Gold.Chemscore.Internal_Hbond>
0.0000

> <Gold.Chemscore.DEClash>
3.4438

> <Gold.Chemscore.DEInternal>
1.6637

> <Gold.Chemscore.Rot>
2.6821

> <Gold.Chemscore.Internal.Correction>
   9.000000E+99

> <Gold.Chemscore.Hbonds>
donor molecule, donor type, donor heavy atom, donor atom, acceptor molecule, acceptor atom, score
      L1  H     6    32       P1  8028  0.09
      P1  H  6934  6946       L1    15  0.64
      P1  H  7989  7998       L1    16  0.14
      P1  H 10752 10763       L1    19  0.47

> <Gold.Chemscore.Hbond.Weighted>
-5.4540

> <Gold.Chemscore.Metal.Weighted>
-0.0000

> <Gold.Chemscore.Lipo.Weighted>
-8.0466

> <Gold.Chemscore.Internal_Hbond.Weighted>
0.0000

> <Gold.Chemscore.DEClash.Weighted>
3.4438

> <Gold.Chemscore.DEInternal.Weighted>
1.6637

> <Gold.Chemscore.Rot.Weighted>
6.8661

> <Gold.Chemscore.Internal.Correction.Weighted>
   9.000000E+99

> <Gold.Protein.RotatedTorsions>
[ 6907 6896 6895 6894 ] final  144.88 input  -60.11 | X-H torsion
[ 7974 7965 7964 7962 ] final   61.88 input  175.53 | X-H torsion
[ 8008 7997 7996 7995 ] final  159.93 input   59.86 | X-H torsion
[ 10167 10162 10161 10158 ] final -125.89 input  -65.29 | X-H torsion
[ 10718 10713 10712 10709 ] final   31.50 input   66.30 | X-H torsion
[ 10763 10752 10751 10750 ] final   57.36 input  -60.55 | X-H torsion
[ 11005 11000 10999 10996 ] final  -39.50 input  -57.11 | X-H torsion

> <Gold.Protein.ActiveResidues>
 VAL166  LYS551  ARG553  GLY616  TRP617  ASP618  TYR619  PRO620  LYS621  CYS622 
 ASP623  PHE694  ASN695  SER759  ASP760  ASP761  ALA762  ILE779  LEU786  VAL792 
 PHE793  MET794  SER795  GLU796  ALA797  LYS798  CYS799  TRP800  GLU811  SER814 

> <Gold.Protein.RotatedAtoms>
  152.1880  133.4753  159.4992 H   0  0  0  0  0  0  0  0  0  0  0  0  # atno 6907 bound_to 6896
  150.6946  134.1749  159.4235 H   0  0  0  0  0  0  0  0  0  0  0  0  # atno 6908 bound_to 6896
  151.9663  135.0098  160.0601 H   0  0  0  0  0  0  0  0  0  0  0  0  # atno 6909 bound_to 6896
  145.8797  139.3434  143.0713 H   0  0  0  0  0  0  0  0  0  0  0  0  # atno 7974 bound_to 7965
  156.2206  140.1818  156.7485 H   0  0  0  0  0  0  0  0  0  0  0  0  # atno 8008 bound_to 7997
  154.5860  140.0658  156.9200 H   0  0  0  0  0  0  0  0  0  0  0  0  # atno 8009 bound_to 7997
  155.2420  140.3322  155.4294 H   0  0  0  0  0  0  0  0  0  0  0  0  # atno 8010 bound_to 7997
  139.9773  143.5780  152.2391 H   0  0  0  0  0  0  0  0  0  0  0  0  # atno 10167 bound_to 10162
  157.2732  130.7218  149.6516 H   0  0  0  0  0  0  0  0  0  0  0  0  # atno 10718 bound_to 10713
  152.9848  135.5644  154.5377 H   0  0  0  0  0  0  0  0  0  0  0  0  # atno 10763 bound_to 10752
  154.4837  135.2790  155.1552 H   0  0  0  0  0  0  0  0  0  0  0  0  # atno 10764 bound_to 10752
  154.3050  135.6300  153.5494 H   0  0  0  0  0  0  0  0  0  0  0  0  # atno 10765 bound_to 10752
  141.0107  133.6909  156.2196 H   0  0  0  0  0  0  0  0  0  0  0  0  # atno 11005 bound_to 11000
  145.9039  140.9225  143.0489 LP  0  0  0  0  0  0  0  0  0  0  0  0  # atno 17320 bound_to 7965
  144.6727  140.1069  143.7457 LP  0  0  0  0  0  0  0  0  0  0  0  0  # atno 17321 bound_to 7965
  139.6436  144.7656  151.2289 LP  0  0  0  0  0  0  0  0  0  0  0  0  # atno 17342 bound_to 10162
  140.7501  143.6276  150.8453 LP  0  0  0  0  0  0  0  0  0  0  0  0  # atno 17343 bound_to 10162
  155.9663  130.4361  150.5119 LP  0  0  0  0  0  0  0  0  0  0  0  0  # atno 17370 bound_to 10713
  157.3048  131.0652  151.2043 LP  0  0  0  0  0  0  0  0  0  0  0  0  # atno 17371 bound_to 10713
  140.6739  134.4839  157.5588 LP  0  0  0  0  0  0  0  0  0  0  0  0  # atno 17394 bound_to 11000
  139.9088  134.8390  156.1605 LP  0  0  0  0  0  0  0  0  0  0  0  0  # atno 17395 bound_to 11000

$$$$
