AV-unprocessed.smi:700|AV-procd|sdf|3407|dock7
  -GOLD-   22720 0383D 1   1.00000     0.00000
 Structure written by MMmdl.
 43 44  0  0  0  0  0  0  0  0  1 V2000
  145.8705  134.1905  161.7545 C   0  0  0  0  0  0  0  0  0  0  0  0
  146.7554  135.2479  161.1889 C   0  0  0  0  0  0  0  0  0  0  0  0
  147.7702  135.2213  160.2754 C   0  0  0  0  0  0  0  0  0  0  0  0
  148.1791  136.5811  160.1863 C   0  0  0  0  0  0  0  0  0  0  0  0
  149.2689  137.1751  159.3312 C   0  0  0  0  0  0  0  0  0  0  0  0
  148.7159  138.1546  158.2878 C   0  0  0  0  0  0  0  0  0  0  0  0
  147.5289  138.4858  158.2889 O   0  0  0  0  0  0  0  0  0  0  0  0
  149.5994  138.6051  157.3835 N   0  0  0  0  0  0  0  0  0  0  0  0
  149.2938  139.5298  156.2978 C   0  0  0  0  0  0  0  0  0  0  0  0
  150.2586  140.7274  156.2835 C   0  0  0  0  0  0  0  0  0  0  0  0
  150.3860  141.3992  157.6581 C   0  0  0  0  0  0  0  0  0  0  0  0
  151.3896  142.5632  157.6499 C   0  0  0  0  0  0  0  0  0  0  0  0
  151.3019  143.4548  158.9012 C   0  0  0  0  0  0  0  0  0  0  0  0
  151.9281  144.8369  158.7063 C   0  0  0  0  0  0  0  0  0  0  0  0
  152.1520  145.3639  160.1256 C   0  0  0  0  0  0  0  0  0  0  0  0
  152.3388  144.1239  161.0120 C   0  0  0  0  0  0  0  0  0  0  0  0
  152.0457  142.9064  160.1248 C   0  0  0  0  0  0  0  0  0  0  0  0
  147.4732  137.3582  160.9930 N   0  0  0  0  0  0  0  0  0  0  0  0
  146.5586  136.5154  161.6343 O   0  0  0  0  0  0  0  0  0  0  0  0
  146.3091  133.2021  161.6164 H   0  0  0  0  0  0  0  0  0  0  0  0
  144.8970  134.1998  161.2642 H   0  0  0  0  0  0  0  0  0  0  0  0
  145.7144  134.3437  162.8225 H   0  0  0  0  0  0  0  0  0  0  0  0
  148.1570  134.3634  159.7464 H   0  0  0  0  0  0  0  0  0  0  0  0
  150.0026  137.6885  159.9544 H   0  0  0  0  0  0  0  0  0  0  0  0
  149.8063  136.3832  158.8089 H   0  0  0  0  0  0  0  0  0  0  0  0
  150.5540  138.2830  157.4518 H   0  0  0  0  0  0  0  0  0  0  0  0
  149.3196  139.0047  155.3412 H   0  0  0  0  0  0  0  0  0  0  0  0
  148.2699  139.8790  156.4324 H   0  0  0  0  0  0  0  0  0  0  0  0
  151.2433  140.3972  155.9507 H   0  0  0  0  0  0  0  0  0  0  0  0
  149.9178  141.4640  155.5550 H   0  0  0  0  0  0  0  0  0  0  0  0
  149.4093  141.7666  157.9751 H   0  0  0  0  0  0  0  0  0  0  0  0
  150.6902  140.6542  158.3939 H   0  0  0  0  0  0  0  0  0  0  0  0
  152.4037  142.1754  157.5447 H   0  0  0  0  0  0  0  0  0  0  0  0
  151.2072  143.1769  156.7667 H   0  0  0  0  0  0  0  0  0  0  0  0
  150.2530  143.5966  159.1674 H   0  0  0  0  0  0  0  0  0  0  0  0
  152.8886  144.7430  158.1971 H   0  0  0  0  0  0  0  0  0  0  0  0
  151.3009  145.5005  158.1101 H   0  0  0  0  0  0  0  0  0  0  0  0
  153.0041  146.0425  160.1773 H   0  0  0  0  0  0  0  0  0  0  0  0
  151.2726  145.9184  160.4551 H   0  0  0  0  0  0  0  0  0  0  0  0
  153.3496  144.0718  161.4183 H   0  0  0  0  0  0  0  0  0  0  0  0
  151.6502  144.1603  161.8570 H   0  0  0  0  0  0  0  0  0  0  0  0
  151.4729  142.1420  160.6508 H   0  0  0  0  0  0  0  0  0  0  0  0
  152.9882  142.4529  159.8147 H   0  0  0  0  0  0  0  0  0  0  0  0
  1  2  1  0  0  0  0
  1 20  1  0  0  0  0
  1 21  1  0  0  0  0
  1 22  1  0  0  0  0
  2 19  1  0  0  0  0
  2  3  2  0  0  0  0
  3  4  1  0  0  0  0
  3 23  1  0  0  0  0
  4  5  1  0  0  0  0
  4 18  2  0  0  0  0
  5  6  1  0  0  0  0
  5 24  1  0  0  0  0
  5 25  1  0  0  0  0
  6  7  2  0  0  0  0
  6  8  1  0  0  0  0
  8  9  1  0  0  0  0
  8 26  1  0  0  0  0
  9 10  1  0  0  0  0
  9 27  1  0  0  0  0
  9 28  1  0  0  0  0
 10 11  1  0  0  0  0
 10 29  1  0  0  0  0
 10 30  1  0  0  0  0
 11 12  1  0  0  0  0
 11 31  1  0  0  0  0
 11 32  1  0  0  0  0
 12 13  1  0  0  0  0
 12 33  1  0  0  0  0
 12 34  1  0  0  0  0
 13 17  1  0  0  0  0
 13 14  1  0  0  0  0
 13 35  1  0  0  0  0
 14 15  1  0  0  0  0
 14 36  1  0  0  0  0
 14 37  1  0  0  0  0
 15 16  1  0  0  0  0
 15 38  1  0  0  0  0
 15 39  1  0  0  0  0
 16 17  1  0  0  0  0
 16 40  1  0  0  0  0
 16 41  1  0  0  0  0
 17 42  1  0  0  0  0
 17 43  1  0  0  0  0
 18 19  1  0  0  0  0
M  END
> <s_m_source_file>
AV-unprocessed.smi

> <i_m_source_file_index>
700

> <i_lp_mmshare_version>
43012

> <i_f3d_flags>
0

> <s_epik_input>
W0NIM11jMVtjSF1jKG5vMSlbQ0gyXUMoPU8pW05IXVtDSDJdW0NIMl1bQ0gyXVtDSDJdW0NIXTJbQ0gyXVtDSDJdW0NIMl1bQ0gyXTI=

> <s_epik_cmdline>
J2VwaWtfcHl0aG9uJywgJy1waCcsICc3LjAnLCAnLXRuJywgJzgnLCAnLW1hJywgJzIwMCcsICctbWV0YWxfYmluZGluZycsICctaW1hZScsICc8aW5maWxlLm1hZT4nLCAnLW9tYWUnLCAnPG91dGZpbGUubWFlPic=

> <r_lp_tautomer_probability>
1

> <r_epik_Ionization_Penalty>
7.08657e-08

> <r_epik_Ionization_Penalty_Charging>
0

> <r_epik_Ionization_Penalty_Neutral>
7.08657e-08

> <r_epik_State_Penalty>
-0

> <r_epik_Charging_Adjusted_Penalty>
0

> <i_epik_Tot_Q>
0

> <i_epik_Tot_abs_Q>
0

> <r_epik_Metal_State_Penalty>
-0

> <b_epik_Metal_Only>
0

> <s_lp_Force_Field>
OPLS_2005

> <r_lp_Energy>
19.5762

> <b_lp_Chiralities_Consistent>
1

> <s_lp_Variant>
AV-unprocessed.smi:700-1

> <Gold.Version>
5.8.1

> <Gold.Id.Protein>
6NUR|6NUR_protein|mol2

> <Gold.PLP.Fitness>
43.1897

> <Gold.PLP.PLP>
-38.6378

> <Gold.PLP.part.hbond>
-2.6535

> <Gold.PLP.part.metal>
0.0000

> <Gold.PLP.part.buried>
-4.9608

> <Gold.PLP.part.nonpolar>
-30.8727

> <Gold.PLP.part.repulsive>
0.0447

> <Gold.PLP.ligand.clash>
0.0000

> <Gold.PLP.ligand.torsion>
0.3695

> <Gold.PLP.Chemscore.Hbond>
1.7440

> <Gold.PLP.Chemscore.CHOScore>
0.0000

> <Gold.PLP.Chemscore.Metal>
0.0000

> <Gold.Chemscore.Hbonds>
donor molecule, donor type, donor heavy atom, donor atom, acceptor molecule, acceptor atom, score
      P1  H  6931  6943       L1    18  0.65
      P1  H  6934  6947       L1    18  0.99

> <Gold.PLP.Chemscore.Internal.Correction>
0.0588

> <Gold.Rescore>
     Score         DG    S(hbond)    S(metal)    S(lipo)     H(rot)  DE(clash)    DE(int)     intcor
     17.44     -18.82       1.46        0.00     112.59       1.84       0.20       1.18       ----

> <Gold.Chemscore.Fitness>
17.4369

> <Gold.Chemscore.DG>
-18.8167

> <Gold.Chemscore.ZeroCoef>
-5.4800

> <Gold.Chemscore.Hbond>
1.4593

> <Gold.Chemscore.Metal>
0.0000

> <Gold.Chemscore.Lipo>
112.5894

> <Gold.Chemscore.Internal_Hbond>
0.0000

> <Gold.Chemscore.DEClash>
0.1964

> <Gold.Chemscore.DEInternal>
1.1834

> <Gold.Chemscore.Rot>
1.8399

> <Gold.Chemscore.Internal.Correction>
   9.000000E+99

> <Gold.Chemscore.Hbonds>
donor molecule, donor type, donor heavy atom, donor atom, acceptor molecule, acceptor atom, score
      P1  H  6931  6943       L1    18  0.11
      P1  H  6934  6947       L1    18  0.92

> <Gold.Chemscore.Hbond.Weighted>
-4.8740

> <Gold.Chemscore.Metal.Weighted>
-0.0000

> <Gold.Chemscore.Lipo.Weighted>
-13.1730

> <Gold.Chemscore.Internal_Hbond.Weighted>
0.0000

> <Gold.Chemscore.DEClash.Weighted>
0.1964

> <Gold.Chemscore.DEInternal.Weighted>
1.1834

> <Gold.Chemscore.Rot.Weighted>
4.7103

> <Gold.Chemscore.Internal.Correction.Weighted>
   9.000000E+99

> <Gold.Protein.RotatedTorsions>
[ 6907 6896 6895 6894 ] final   77.05 input  -60.11 | X-H torsion
[ 7974 7965 7964 7962 ] final -137.18 input  175.53 | X-H torsion
[ 8008 7997 7996 7995 ] final  -86.04 input   59.86 | X-H torsion
[ 10167 10162 10161 10158 ] final   85.16 input  -65.29 | X-H torsion
[ 10718 10713 10712 10709 ] final -125.85 input   66.30 | X-H torsion
[ 10763 10752 10751 10750 ] final -176.91 input  -60.55 | X-H torsion
[ 11005 11000 10999 10996 ] final  -74.20 input  -57.11 | X-H torsion

> <Gold.Protein.ActiveResidues>
 VAL166  LYS551  ARG553  GLY616  TRP617  ASP618  TYR619  PRO620  LYS621  CYS622 
 ASP623  PHE694  ASN695  SER759  ASP760  ASP761  ALA762  ILE779  LEU786  VAL792 
 PHE793  MET794  SER795  GLU796  ALA797  LYS798  CYS799  TRP800  GLU811  SER814 

> <Gold.Protein.RotatedAtoms>
  152.5100  134.3876  159.9372 H   0  0  0  0  0  0  0  0  0  0  0  0  # atno 6907 bound_to 6896
  151.3835  133.3807  159.2720 H   0  0  0  0  0  0  0  0  0  0  0  0  # atno 6908 bound_to 6896
  150.9486  134.8909  159.7717 H   0  0  0  0  0  0  0  0  0  0  0  0  # atno 6909 bound_to 6896
  144.8863  140.6580  143.5173 H   0  0  0  0  0  0  0  0  0  0  0  0  # atno 7974 bound_to 7965
  154.6475  140.0583  156.9917 H   0  0  0  0  0  0  0  0  0  0  0  0  # atno 8008 bound_to 7997
  155.1422  140.3266  155.4431 H   0  0  0  0  0  0  0  0  0  0  0  0  # atno 8009 bound_to 7997
  156.2560  140.1962  156.6538 H   0  0  0  0  0  0  0  0  0  0  0  0  # atno 8010 bound_to 7997
  139.9006  144.6331  150.8641 H   0  0  0  0  0  0  0  0  0  0  0  0  # atno 10167 bound_to 10162
  156.1713  130.6669  151.0183 H   0  0  0  0  0  0  0  0  0  0  0  0  # atno 10718 bound_to 10713
  154.5666  135.2824  155.0868 H   0  0  0  0  0  0  0  0  0  0  0  0  # atno 10763 bound_to 10752
  154.2257  135.6383  153.5162 H   0  0  0  0  0  0  0  0  0  0  0  0  # atno 10764 bound_to 10752
  153.0045  135.5525  154.6276 H   0  0  0  0  0  0  0  0  0  0  0  0  # atno 10765 bound_to 10752
  141.1632  133.6903  156.7329 H   0  0  0  0  0  0  0  0  0  0  0  0  # atno 11005 bound_to 11000
  145.3862  139.1626  143.4253 LP  0  0  0  0  0  0  0  0  0  0  0  0  # atno 17320 bound_to 7965
  146.3026  140.3948  142.8698 LP  0  0  0  0  0  0  0  0  0  0  0  0  # atno 17321 bound_to 7965
  140.7707  143.3439  151.2150 LP  0  0  0  0  0  0  0  0  0  0  0  0  # atno 17342 bound_to 10162
  139.7028  143.9504  152.2913 LP  0  0  0  0  0  0  0  0  0  0  0  0  # atno 17343 bound_to 10162
  157.6804  131.0839  150.7384 LP  0  0  0  0  0  0  0  0  0  0  0  0  # atno 17370 bound_to 10713
  156.7443  130.4749  149.5470 LP  0  0  0  0  0  0  0  0  0  0  0  0  # atno 17371 bound_to 10713
  140.2732  134.8376  157.3866 LP  0  0  0  0  0  0  0  0  0  0  0  0  # atno 17394 bound_to 11000
  140.1502  134.4859  155.7967 LP  0  0  0  0  0  0  0  0  0  0  0  0  # atno 17395 bound_to 11000

$$$$
