AV-unprocessed.smi:916|AV-procd|sdf|4160|dock8
  -GOLD-   22720 2 63D 1   1.00000     0.00000
 Structure written by MMmdl.
 43 44  0  0  0  0  0  0  0  0  1 V2000
  143.9556  132.7148  149.6775 C   0  0  0  0  0  0  0  0  0  0  0  0
  143.5031  132.6301  151.1396 C   0  0  0  0  0  0  0  0  0  0  0  0
  143.8406  133.8687  151.9125 C   0  0  0  0  0  0  0  0  0  0  0  0
  142.9619  134.7006  152.5629 C   0  0  0  0  0  0  0  0  0  0  0  0
  143.7761  136.0292  153.3449 S   0  0  0  0  0  0  0  0  0  0  0  0
  145.3020  135.3918  152.7526 C   0  0  0  0  0  0  0  0  0  0  0  0
  146.5421  136.0182  153.0435 N   0  0  0  0  0  0  0  0  0  0  0  0
  146.8244  136.8765  154.0391 C   0  0  0  0  0  0  0  0  0  0  0  0
  146.0401  137.2285  154.9210 O   0  0  0  0  0  0  0  0  0  0  0  0
  148.0880  137.3172  153.9563 N   0  0  0  0  0  0  0  0  0  0  0  0
  148.6994  138.2802  154.8668 C   0  0  0  0  0  0  0  0  0  0  0  0
  149.9823  138.9189  154.2761 C   0  0  2  0  0  0  0  0  0  0  0  0
  151.1018  137.9058  154.0793 C   0  0  0  0  0  0  0  0  0  0  0  0
  151.8303  137.9088  155.4258 C   0  0  0  0  0  0  0  0  0  0  0  0
  151.3735  139.0662  156.1201 O   0  0  0  0  0  0  0  0  0  0  0  0
  150.6885  139.9163  155.2101 C   0  0  2  0  0  0  0  0  0  0  0  0
  149.8067  140.9500  155.9469 C   0  0  0  0  0  0  0  0  0  0  0  0
  148.8417  141.6634  154.9842 C   0  0  0  0  0  0  0  0  0  0  0  0
  150.6707  141.9848  156.6857 C   0  0  0  0  0  0  0  0  0  0  0  0
  145.1733  134.2759  152.0262 N   0  0  0  0  0  0  0  0  0  0  0  0
  143.6983  131.8034  149.1377 H   0  0  0  0  0  0  0  0  0  0  0  0
  145.0351  132.8508  149.6075 H   0  0  0  0  0  0  0  0  0  0  0  0
  143.4784  133.5507  149.1648 H   0  0  0  0  0  0  0  0  0  0  0  0
  142.4280  132.4507  151.1739 H   0  0  0  0  0  0  0  0  0  0  0  0
  143.9660  131.7603  151.6071 H   0  0  0  0  0  0  0  0  0  0  0  0
  141.8879  134.6109  152.6306 H   0  0  0  0  0  0  0  0  0  0  0  0
  147.2934  135.8102  152.4025 H   0  0  0  0  0  0  0  0  0  0  0  0
  148.6656  136.9739  153.2030 H   0  0  0  0  0  0  0  0  0  0  0  0
  147.9592  139.0421  155.1114 H   0  0  0  0  0  0  0  0  0  0  0  0
  148.9268  137.7655  155.8007 H   0  0  0  0  0  0  0  0  0  0  0  0
  149.7381  139.4027  153.3297 H   0  0  0  0  0  0  0  0  0  0  0  0
  150.7605  136.9129  153.7861 H   0  0  0  0  0  0  0  0  0  0  0  0
  151.7778  138.2599  153.2998 H   0  0  0  0  0  0  0  0  0  0  0  0
  151.5881  137.0230  156.0131 H   0  0  0  0  0  0  0  0  0  0  0  0
  152.9118  137.9415  155.2908 H   0  0  0  0  0  0  0  0  0  0  0  0
  151.4463  140.4522  154.6341 H   0  0  0  0  0  0  0  0  0  0  0  0
  149.2138  140.4337  156.7021 H   0  0  0  0  0  0  0  0  0  0  0  0
  149.3857  142.2004  154.2065 H   0  0  0  0  0  0  0  0  0  0  0  0
  148.2217  142.3865  155.5147 H   0  0  0  0  0  0  0  0  0  0  0  0
  148.1689  140.9616  154.4917 H   0  0  0  0  0  0  0  0  0  0  0  0
  151.3038  142.5406  155.9933 H   0  0  0  0  0  0  0  0  0  0  0  0
  151.3202  141.5078  157.4202 H   0  0  0  0  0  0  0  0  0  0  0  0
  150.0504  142.7050  157.2202 H   0  0  0  0  0  0  0  0  0  0  0  0
  1  2  1  0  0  0  0
  1 21  1  0  0  0  0
  1 22  1  0  0  0  0
  1 23  1  0  0  0  0
  2  3  1  0  0  0  0
  2 24  1  0  0  0  0
  2 25  1  0  0  0  0
  3 20  1  0  0  0  0
  3  4  2  0  0  0  0
  4  5  1  0  0  0  0
  4 26  1  0  0  0  0
  5  6  1  0  0  0  0
  6  7  1  0  0  0  0
  6 20  2  0  0  0  0
  7  8  1  0  0  0  0
  7 27  1  0  0  0  0
  8  9  2  0  0  0  0
  8 10  1  0  0  0  0
 10 11  1  0  0  0  0
 10 28  1  0  0  0  0
 11 12  1  0  0  0  0
 11 29  1  0  0  0  0
 11 30  1  0  0  0  0
 12 16  1  0  0  0  0
 12 13  1  0  0  0  0
 12 31  1  0  0  0  0
 13 14  1  0  0  0  0
 13 32  1  0  0  0  0
 13 33  1  0  0  0  0
 14 15  1  0  0  0  0
 14 34  1  0  0  0  0
 14 35  1  0  0  0  0
 15 16  1  0  0  0  0
 16 17  1  0  0  0  0
 16 36  1  0  0  0  0
 17 18  1  0  0  0  0
 17 19  1  0  0  0  0
 17 37  1  0  0  0  0
 18 38  1  0  0  0  0
 18 39  1  0  0  0  0
 18 40  1  0  0  0  0
 19 41  1  0  0  0  0
 19 42  1  0  0  0  0
 19 43  1  0  0  0  0
M  END
> <s_m_source_file>
AV-unprocessed.smi

> <i_m_source_file_index>
916

> <i_lp_mmshare_version>
43012

> <i_f3d_flags>
0

> <s_epik_input>
W0NIM11bQ0gyXWMxW2NIXXNjKG4xKVtOSF1DKD1PKVtOSF1bQ0gyXVtDQEBIXTJbQ0gyXVtDSDJdT1tDQEhdMltDSF0oW0NIM10pW0NIM10=

> <s_epik_cmdline>
J2VwaWtfcHl0aG9uJywgJy1waCcsICc3LjAnLCAnLXRuJywgJzgnLCAnLW1hJywgJzIwMCcsICctbWV0YWxfYmluZGluZycsICctaW1hZScsICc8aW5maWxlLm1hZT4nLCAnLW9tYWUnLCAnPG91dGZpbGUubWFlPic=

> <r_lp_tautomer_probability>
0.999

> <r_epik_Ionization_Penalty>
0.000518907

> <r_epik_Ionization_Penalty_Charging>
0

> <r_epik_Ionization_Penalty_Neutral>
0.000518907

> <r_epik_State_Penalty>
0.000177984

> <r_epik_Charging_Adjusted_Penalty>
0.000177984

> <i_epik_Tot_Q>
0

> <i_epik_Tot_abs_Q>
0

> <r_epik_Metal_State_Penalty>
-0

> <b_epik_Metal_Only>
0

> <s_lp_Force_Field>
OPLS_2005

> <r_lp_Energy>
18.5448

> <b_lp_Chiralities_Consistent>
1

> <s_lp_Variant>
AV-unprocessed.smi:916-3

> <Gold.Version>
5.8.1

> <Gold.Id.Protein>
6NUR|6NUR_protein|mol2

> <Gold.PLP.Fitness>
38.3424

> <Gold.PLP.PLP>
-33.0522

> <Gold.PLP.part.hbond>
-1.9320

> <Gold.PLP.part.metal>
0.0000

> <Gold.PLP.part.buried>
-2.6525

> <Gold.PLP.part.nonpolar>
-29.2143

> <Gold.PLP.part.repulsive>
0.1447

> <Gold.PLP.ligand.clash>
0.0000

> <Gold.PLP.ligand.torsion>
0.3260

> <Gold.PLP.Chemscore.Hbond>
1.9600

> <Gold.PLP.Chemscore.CHOScore>
0.0000

> <Gold.PLP.Chemscore.Metal>
0.0000

> <Gold.Chemscore.Hbonds>
donor molecule, donor type, donor heavy atom, donor atom, acceptor molecule, acceptor atom, score
      L1  H     7    27       P1  7948  0.96
      L1  H    10    28       P1  7948  1.00

> <Gold.PLP.Chemscore.Internal.Correction>
0.0622

> <Gold.Rescore>
     Score         DG    S(hbond)    S(metal)    S(lipo)     H(rot)  DE(clash)    DE(int)     intcor
     16.61     -18.02       1.91        0.00      86.08       1.52       0.13       1.28       ----

> <Gold.Chemscore.Fitness>
16.6120

> <Gold.Chemscore.DG>
-18.0232

> <Gold.Chemscore.ZeroCoef>
-5.4800

> <Gold.Chemscore.Hbond>
1.9081

> <Gold.Chemscore.Metal>
0.0000

> <Gold.Chemscore.Lipo>
86.0775

> <Gold.Chemscore.Internal_Hbond>
0.0000

> <Gold.Chemscore.DEClash>
0.1314

> <Gold.Chemscore.DEInternal>
1.2798

> <Gold.Chemscore.Rot>
1.5238

> <Gold.Chemscore.Internal.Correction>
   9.000000E+99

> <Gold.Chemscore.Hbonds>
donor molecule, donor type, donor heavy atom, donor atom, acceptor molecule, acceptor atom, score
      L1  H     7    27       P1  7948  0.92
      L1  H    10    28       P1  7948  0.94

> <Gold.Chemscore.Hbond.Weighted>
-6.3729

> <Gold.Chemscore.Metal.Weighted>
-0.0000

> <Gold.Chemscore.Lipo.Weighted>
-10.0711

> <Gold.Chemscore.Internal_Hbond.Weighted>
0.0000

> <Gold.Chemscore.DEClash.Weighted>
0.1314

> <Gold.Chemscore.DEInternal.Weighted>
1.2798

> <Gold.Chemscore.Rot.Weighted>
3.9008

> <Gold.Chemscore.Internal.Correction.Weighted>
   9.000000E+99

> <Gold.Protein.RotatedTorsions>
[ 6907 6896 6895 6894 ] final  119.04 input  -60.11 | X-H torsion
[ 7974 7965 7964 7962 ] final   98.99 input  175.53 | X-H torsion
[ 8008 7997 7996 7995 ] final  -13.41 input   59.86 | X-H torsion
[ 10167 10162 10161 10158 ] final  -33.39 input  -65.29 | X-H torsion
[ 10718 10713 10712 10709 ] final  -24.97 input   66.30 | X-H torsion
[ 10763 10752 10751 10750 ] final   71.44 input  -60.55 | X-H torsion
[ 11005 11000 10999 10996 ] final  135.03 input  -57.11 | X-H torsion

> <Gold.Protein.ActiveResidues>
 VAL166  LYS551  ARG553  GLY616  TRP617  ASP618  TYR619  PRO620  LYS621  CYS622 
 ASP623  PHE694  ASN695  SER759  ASP760  ASP761  ALA762  ILE779  LEU786  VAL792 
 PHE793  MET794  SER795  GLU796  ALA797  LYS798  CYS799  TRP800  GLU811  SER814 

> <Gold.Protein.RotatedAtoms>
  152.4500  133.7611  159.6746 H   0  0  0  0  0  0  0  0  0  0  0  0  # atno 6907 bound_to 6896
  150.8410  133.7926  159.3067 H   0  0  0  0  0  0  0  0  0  0  0  0  # atno 6908 bound_to 6896
  151.5551  135.1069  160.0011 H   0  0  0  0  0  0  0  0  0  0  0  0  # atno 6909 bound_to 6896
  145.4048  139.2342  143.3280 H   0  0  0  0  0  0  0  0  0  0  0  0  # atno 7974 bound_to 7965
  154.5295  140.2250  155.8830 H   0  0  0  0  0  0  0  0  0  0  0  0  # atno 8008 bound_to 7997
  156.1749  140.3113  155.9004 H   0  0  0  0  0  0  0  0  0  0  0  0  # atno 8009 bound_to 7997
  155.3481  140.0454  157.3036 H   0  0  0  0  0  0  0  0  0  0  0  0  # atno 8010 bound_to 7997
  140.7205  143.3624  151.1936 H   0  0  0  0  0  0  0  0  0  0  0  0  # atno 10167 bound_to 10162
  156.4705  130.4523  149.6872 H   0  0  0  0  0  0  0  0  0  0  0  0  # atno 10718 bound_to 10713
  153.0399  135.5137  154.7594 H   0  0  0  0  0  0  0  0  0  0  0  0  # atno 10763 bound_to 10752
  154.6540  135.2929  154.9954 H   0  0  0  0  0  0  0  0  0  0  0  0  # atno 10764 bound_to 10752
  154.0828  135.6661  153.4893 H   0  0  0  0  0  0  0  0  0  0  0  0  # atno 10765 bound_to 10752
  139.9953  134.9499  156.9950 H   0  0  0  0  0  0  0  0  0  0  0  0  # atno 11005 bound_to 11000
  146.2734  140.4751  142.8805 LP  0  0  0  0  0  0  0  0  0  0  0  0  # atno 17320 bound_to 7965
  144.8349  140.6766  143.6267 LP  0  0  0  0  0  0  0  0  0  0  0  0  # atno 17321 bound_to 7965
  139.7179  143.9271  152.2974 LP  0  0  0  0  0  0  0  0  0  0  0  0  # atno 17342 bound_to 10162
  139.9018  144.6907  150.8657 LP  0  0  0  0  0  0  0  0  0  0  0  0  # atno 17343 bound_to 10162
  156.3623  130.7488  151.2461 LP  0  0  0  0  0  0  0  0  0  0  0  0  # atno 17370 bound_to 10713
  157.7491  131.0347  150.4328 LP  0  0  0  0  0  0  0  0  0  0  0  0  # atno 17371 bound_to 10713
  140.4830  134.1270  155.7220 LP  0  0  0  0  0  0  0  0  0  0  0  0  # atno 17394 bound_to 11000
  141.1599  133.8812  157.1876 LP  0  0  0  0  0  0  0  0  0  0  0  0  # atno 17395 bound_to 11000

$$$$
