AV-unprocessed.smi:1791|AV-procd|sdf|7221|dock4
  -GOLD-   22720 8463D 1   1.00000     0.00000
 Structure written by MMmdl.
 38 39  0  0  0  0  0  0  0  0  1 V2000
  150.9844  142.3050  157.6083 C   0  0  0  0  0  0  0  0  0  0  0  0
  150.7677  142.0622  156.2225 O   0  0  0  0  0  0  0  0  0  0  0  0
  150.5100  140.7690  155.8167 C   0  0  0  0  0  0  0  0  0  0  0  0
  150.8083  139.7127  156.7004 C   0  0  0  0  0  0  0  0  0  0  0  0
  150.5480  138.3899  156.2941 C   0  0  0  0  0  0  0  0  0  0  0  0
  150.0010  138.1648  155.0083 C   0  0  0  0  0  0  0  0  0  0  0  0
  149.6711  136.8826  154.4930 N   0  0  0  0  0  0  0  0  0  0  0  0
  149.7922  135.6847  155.0898 C   0  0  0  0  0  0  0  0  0  0  0  0
  150.2747  135.4919  156.2055 O   0  0  0  0  0  0  0  0  0  0  0  0
  149.3375  134.7045  154.2958 N   0  0  0  0  0  0  0  0  0  0  0  0
  149.3186  133.2781  154.6160 C   0  0  1  0  0  0  0  0  0  0  0  0
  148.6248  133.0852  155.9723 C   0  0  0  0  0  0  0  0  0  0  0  0
  148.6155  132.4879  153.4942 C   0  0  1  0  0  0  0  0  0  0  0  0
  148.2208  131.0563  153.8593 C   0  0  0  0  0  0  0  0  0  0  0  0
  147.0931  130.7455  152.8890 C   0  0  0  0  0  0  0  0  0  0  0  0
  146.6253  132.1232  152.4095 C   0  0  0  0  0  0  0  0  0  0  0  0
  147.3560  133.0638  153.1854 O   0  0  0  0  0  0  0  0  0  0  0  0
  149.7259  139.2911  154.2057 C   0  0  0  0  0  0  0  0  0  0  0  0
  149.9750  140.5612  154.5881 N   0  0  0  0  0  0  0  0  0  0  0  0
  151.1816  143.3657  157.7621 H   0  0  0  0  0  0  0  0  0  0  0  0
  151.8471  141.7515  157.9818 H   0  0  0  0  0  0  0  0  0  0  0  0
  150.1064  142.0424  158.2003 H   0  0  0  0  0  0  0  0  0  0  0  0
  151.2249  139.9135  157.6764 H   0  0  0  0  0  0  0  0  0  0  0  0
  150.7567  137.5825  156.9786 H   0  0  0  0  0  0  0  0  0  0  0  0
  149.3425  136.8716  153.5386 H   0  0  0  0  0  0  0  0  0  0  0  0
  148.9696  134.9652  153.3927 H   0  0  0  0  0  0  0  0  0  0  0  0
  150.3393  132.9037  154.7133 H   0  0  0  0  0  0  0  0  0  0  0  0
  148.6268  132.0360  156.2688 H   0  0  0  0  0  0  0  0  0  0  0  0
  147.5873  133.4196  155.9406 H   0  0  0  0  0  0  0  0  0  0  0  0
  149.1327  133.6472  156.7567 H   0  0  0  0  0  0  0  0  0  0  0  0
  149.2299  132.4817  152.5914 H   0  0  0  0  0  0  0  0  0  0  0  0
  149.0513  130.3538  153.7834 H   0  0  0  0  0  0  0  0  0  0  0  0
  147.8422  131.0210  154.8818 H   0  0  0  0  0  0  0  0  0  0  0  0
  147.4513  130.1529  152.0464 H   0  0  0  0  0  0  0  0  0  0  0  0
  146.2935  130.1870  153.3767 H   0  0  0  0  0  0  0  0  0  0  0  0
  146.8652  132.2635  151.3548 H   0  0  0  0  0  0  0  0  0  0  0  0
  145.5522  132.2675  152.5358 H   0  0  0  0  0  0  0  0  0  0  0  0
  149.2950  139.1716  153.2224 H   0  0  0  0  0  0  0  0  0  0  0  0
  1  2  1  0  0  0  0
  1 20  1  0  0  0  0
  1 21  1  0  0  0  0
  1 22  1  0  0  0  0
  2  3  1  0  0  0  0
  3 19  1  0  0  0  0
  3  4  2  0  0  0  0
  4  5  1  0  0  0  0
  4 23  1  0  0  0  0
  5  6  2  0  0  0  0
  5 24  1  0  0  0  0
  6  7  1  0  0  0  0
  6 18  1  0  0  0  0
  7  8  1  0  0  0  0
  7 25  1  0  0  0  0
  8  9  2  0  0  0  0
  8 10  1  0  0  0  0
 10 11  1  0  0  0  0
 10 26  1  0  0  0  0
 11 12  1  0  0  0  0
 11 13  1  0  0  0  0
 11 27  1  0  0  0  0
 12 28  1  0  0  0  0
 12 29  1  0  0  0  0
 12 30  1  0  0  0  0
 13 17  1  0  0  0  0
 13 14  1  0  0  0  0
 13 31  1  0  0  0  0
 14 15  1  0  0  0  0
 14 32  1  0  0  0  0
 14 33  1  0  0  0  0
 15 16  1  0  0  0  0
 15 34  1  0  0  0  0
 15 35  1  0  0  0  0
 16 17  1  0  0  0  0
 16 36  1  0  0  0  0
 16 37  1  0  0  0  0
 18 19  2  0  0  0  0
 18 38  1  0  0  0  0
M  END
> <s_m_source_file>
AV-unprocessed.smi

> <i_m_source_file_index>
1791

> <i_lp_mmshare_version>
43012

> <i_f3d_flags>
0

> <s_epik_input>
W0NIM11PYzFbY0hdW2NIXWMoW2NIXW4xKVtOSF1DKD1PKVtOSF1bQ0BIXShbQ0gzXSlbQ0BASF0yW0NIMl1bQ0gyXVtDSDJdTzI=

> <s_epik_cmdline>
J2VwaWtfcHl0aG9uJywgJy1waCcsICc3LjAnLCAnLXRuJywgJzgnLCAnLW1hJywgJzIwMCcsICctbWV0YWxfYmluZGluZycsICctaW1hZScsICc8aW5maWxlLm1hZT4nLCAnLW9tYWUnLCAnPG91dGZpbGUubWFlPic=

> <r_lp_tautomer_probability>
1

> <r_epik_Ionization_Penalty>
9.18737e-05

> <r_epik_Ionization_Penalty_Charging>
0

> <r_epik_Ionization_Penalty_Neutral>
9.18737e-05

> <r_epik_State_Penalty>
-0

> <r_epik_Charging_Adjusted_Penalty>
0

> <i_epik_Tot_Q>
0

> <i_epik_Tot_abs_Q>
0

> <r_epik_Metal_State_Penalty>
-0

> <b_epik_Metal_Only>
0

> <s_lp_Force_Field>
OPLS_2005

> <r_lp_Energy>
20.4699

> <b_lp_Chiralities_Consistent>
1

> <s_lp_Variant>
AV-unprocessed.smi:1791-4

> <Gold.Version>
5.8.1

> <Gold.Id.Protein>
6NUR|6NUR_protein|mol2

> <Gold.PLP.Fitness>
38.5208

> <Gold.PLP.PLP>
-27.6086

> <Gold.PLP.part.hbond>
-3.0000

> <Gold.PLP.part.metal>
0.0000

> <Gold.PLP.part.buried>
-3.1862

> <Gold.PLP.part.nonpolar>
-21.6833

> <Gold.PLP.part.repulsive>
0.3904

> <Gold.PLP.ligand.clash>
0.0000

> <Gold.PLP.ligand.torsion>
0.4143

> <Gold.PLP.Chemscore.Hbond>
2.9040

> <Gold.PLP.Chemscore.CHOScore>
1.0000

> <Gold.PLP.Chemscore.Metal>
0.0000

> <Gold.Chemscore.Hbonds>
donor molecule, donor type, donor heavy atom, donor atom, acceptor molecule, acceptor atom, score
      L1  H     7    25       P1  7948  1.00
      L1  H    10    26       P1  7948  0.98
      P1  H  7989  7998       L1    19  0.77
      L1  C    18    38       P1  7957  1.00

> <Gold.PLP.Chemscore.Internal.Correction>
0.0287

> <Gold.Rescore>
     Score         DG    S(hbond)    S(metal)    S(lipo)     H(rot)  DE(clash)    DE(int)     intcor
     13.90     -17.20       2.58        0.00      58.55       1.47       1.38       1.92       ----

> <Gold.Chemscore.Fitness>
13.9026

> <Gold.Chemscore.DG>
-17.2016

> <Gold.Chemscore.ZeroCoef>
-5.4800

> <Gold.Chemscore.Hbond>
2.5846

> <Gold.Chemscore.Metal>
0.0000

> <Gold.Chemscore.Lipo>
58.5497

> <Gold.Chemscore.Internal_Hbond>
0.0000

> <Gold.Chemscore.DEClash>
1.3815

> <Gold.Chemscore.DEInternal>
1.9176

> <Gold.Chemscore.Rot>
1.4693

> <Gold.Chemscore.Internal.Correction>
   9.000000E+99

> <Gold.Chemscore.Hbonds>
donor molecule, donor type, donor heavy atom, donor atom, acceptor molecule, acceptor atom, score
      L1  H     7    25       P1  7948  0.94
      L1  H    10    26       P1  7948  0.28
      P1  H  7989  7998       L1    19  0.04

> <Gold.Chemscore.Hbond.Weighted>
-8.6326

> <Gold.Chemscore.Metal.Weighted>
-0.0000

> <Gold.Chemscore.Lipo.Weighted>
-6.8503

> <Gold.Chemscore.Internal_Hbond.Weighted>
0.0000

> <Gold.Chemscore.DEClash.Weighted>
1.3815

> <Gold.Chemscore.DEInternal.Weighted>
1.9176

> <Gold.Chemscore.Rot.Weighted>
3.7613

> <Gold.Chemscore.Internal.Correction.Weighted>
   9.000000E+99

> <Gold.Protein.RotatedTorsions>
[ 6907 6896 6895 6894 ] final -142.85 input  -60.11 | X-H torsion
[ 7974 7965 7964 7962 ] final  -42.08 input  175.53 | X-H torsion
[ 8008 7997 7996 7995 ] final   52.16 input   59.86 | X-H torsion
[ 10167 10162 10161 10158 ] final -162.41 input  -65.29 | X-H torsion
[ 10718 10713 10712 10709 ] final  124.92 input   66.30 | X-H torsion
[ 10763 10752 10751 10750 ] final  -77.86 input  -60.55 | X-H torsion
[ 11005 11000 10999 10996 ] final  151.88 input  -57.11 | X-H torsion

> <Gold.Protein.ActiveResidues>
 VAL166  LYS551  ARG553  GLY616  TRP617  ASP618  TYR619  PRO620  LYS621  CYS622 
 ASP623  PHE694  ASN695  SER759  ASP760  ASP761  ALA762  ILE779  LEU786  VAL792 
 PHE793  MET794  SER795  GLU796  ALA797  LYS798  CYS799  TRP800  GLU811  SER814 

> <Gold.Protein.RotatedAtoms>
  151.0925  133.5305  159.2613 H   0  0  0  0  0  0  0  0  0  0  0  0  # atno 6907 bound_to 6896
  151.2166  135.0502  159.8943 H   0  0  0  0  0  0  0  0  0  0  0  0  # atno 6908 bound_to 6896
  152.5435  134.0734  159.8257 H   0  0  0  0  0  0  0  0  0  0  0  0  # atno 6909 bound_to 6896
  146.0150  140.6919  142.9206 H   0  0  0  0  0  0  0  0  0  0  0  0  # atno 7974 bound_to 7965
  155.4472  140.3457  155.4296 H   0  0  0  0  0  0  0  0  0  0  0  0  # atno 8008 bound_to 7997
  156.1242  140.1496  156.9190 H   0  0  0  0  0  0  0  0  0  0  0  0  # atno 8009 bound_to 7997
  154.4846  140.0859  156.7436 H   0  0  0  0  0  0  0  0  0  0  0  0  # atno 8010 bound_to 7997
  139.6394  144.0288  152.2080 H   0  0  0  0  0  0  0  0  0  0  0  0  # atno 10167 bound_to 10162
  157.5545  131.1092  150.8645 H   0  0  0  0  0  0  0  0  0  0  0  0  # atno 10718 bound_to 10713
  154.5184  135.5749  153.6661 H   0  0  0  0  0  0  0  0  0  0  0  0  # atno 10763 bound_to 10752
  152.9912  135.6175  154.2787 H   0  0  0  0  0  0  0  0  0  0  0  0  # atno 10764 bound_to 10752
  154.2706  135.2853  155.2719 H   0  0  0  0  0  0  0  0  0  0  0  0  # atno 10765 bound_to 10752
  140.1258  134.8834  157.2136 H   0  0  0  0  0  0  0  0  0  0  0  0  # atno 11005 bound_to 11000
  144.6967  140.3465  143.7189 LP  0  0  0  0  0  0  0  0  0  0  0  0  # atno 17320 bound_to 7965
  145.7282  139.1729  143.2445 LP  0  0  0  0  0  0  0  0  0  0  0  0  # atno 17321 bound_to 7965
  139.9974  144.6318  150.7760 LP  0  0  0  0  0  0  0  0  0  0  0  0  # atno 17342 bound_to 10162
  140.7483  143.2919  151.3307 LP  0  0  0  0  0  0  0  0  0  0  0  0  # atno 17343 bound_to 10162
  156.9160  130.5298  149.5279 LP  0  0  0  0  0  0  0  0  0  0  0  0  # atno 17370 bound_to 10713
  156.0606  130.5660  150.9185 LP  0  0  0  0  0  0  0  0  0  0  0  0  # atno 17371 bound_to 10713
  140.2905  134.3245  155.7316 LP  0  0  0  0  0  0  0  0  0  0  0  0  # atno 17394 bound_to 11000
  141.2161  133.7532  156.9496 LP  0  0  0  0  0  0  0  0  0  0  0  0  # atno 17395 bound_to 11000

$$$$
