AV-unprocessed.smi:93|AV-procd|sdf|850|dock9
  -GOLD-   2262017293D 1   1.00000     0.00000
 Structure written by MMmdl.
 50 52  0  0  0  0  0  0  0  0  1 V2000
  144.3945  135.9749  151.3884 C   0  0  0  0  0  0  0  0  0  0  0  0
  144.9545  135.2686  152.5355 N   0  0  0  0  0  0  0  0  0  0  0  0
  144.8574  133.8049  152.6030 C   0  0  0  0  0  0  0  0  0  0  0  0
  145.4899  133.0409  151.3999 C   0  0  0  0  0  0  0  0  0  0  0  0
  146.9007  133.5850  151.0758 C   0  0  0  0  0  0  0  0  0  0  0  0
  145.5892  131.5392  151.7809 C   0  0  0  0  0  0  0  0  0  0  0  0
  146.2545  131.3314  153.0118 O   0  0  0  0  0  0  0  0  0  0  0  0
  144.5792  133.1814  150.1509 C   0  0  0  0  0  0  0  0  0  0  0  0
  143.2558  132.7411  150.3848 O   0  0  0  0  0  0  0  0  0  0  0  0
  145.5295  135.9844  153.5412 C   0  0  0  0  0  0  0  0  0  0  0  0
  145.5548  135.4495  154.7906 N   0  0  0  0  0  0  0  0  0  0  0  0
  146.1184  136.1096  155.8053 C   0  0  0  0  0  0  0  0  0  0  0  0
  146.7146  137.3017  155.7945 N   0  0  0  0  0  0  0  0  0  0  0  0
  146.7037  137.8473  154.5455 C   0  0  0  0  0  0  0  0  0  0  0  0
  146.1310  137.2689  153.3752 C   0  0  0  0  0  0  0  0  0  0  0  0
  146.3210  138.1259  152.2958 N   0  0  0  0  0  0  0  0  0  0  0  0
  146.9610  139.1454  152.7971 C   0  0  0  0  0  0  0  0  0  0  0  0
  147.2474  139.0543  154.1394 N   0  0  0  0  0  0  0  0  0  0  0  0
  147.9640  140.0304  154.9467 C   0  0  0  0  0  0  0  0  0  0  0  0
  149.4580  140.1699  154.5669 C   0  0  2  0  0  0  0  0  0  0  0  0
  149.5624  140.9099  153.3629 O   0  0  0  0  0  0  0  0  0  0  0  0
  150.1475  138.8270  154.3644 C   0  0  0  0  0  0  0  0  0  0  0  0
  151.5968  139.1403  154.7104 C   0  0  0  0  0  0  0  0  0  0  0  0
  151.4773  140.0128  155.8212 O   0  0  0  0  0  0  0  0  0  0  0  0
  150.3401  140.8509  155.6341 C   0  0  0  0  0  0  0  0  0  0  0  0
  143.8540  136.8663  151.7086 H   0  0  0  0  0  0  0  0  0  0  0  0
  143.6931  135.3440  150.8419 H   0  0  0  0  0  0  0  0  0  0  0  0
  145.1808  136.2755  150.6965 H   0  0  0  0  0  0  0  0  0  0  0  0
  145.2756  133.4441  153.5427 H   0  0  0  0  0  0  0  0  0  0  0  0
  143.7997  133.5460  152.6613 H   0  0  0  0  0  0  0  0  0  0  0  0
  147.4011  132.9755  150.3231 H   0  0  0  0  0  0  0  0  0  0  0  0
  147.5400  133.5965  151.9589 H   0  0  0  0  0  0  0  0  0  0  0  0
  146.8606  134.6024  150.6871 H   0  0  0  0  0  0  0  0  0  0  0  0
  144.5947  131.0972  151.8510 H   0  0  0  0  0  0  0  0  0  0  0  0
  146.1278  130.9764  151.0181 H   0  0  0  0  0  0  0  0  0  0  0  0
  146.3532  130.4012  153.1462 H   0  0  0  0  0  0  0  0  0  0  0  0
  144.5429  134.2192  149.8175 H   0  0  0  0  0  0  0  0  0  0  0  0
  144.9689  132.5941  149.3198 H   0  0  0  0  0  0  0  0  0  0  0  0
  142.6591  133.3803  150.0265 H   0  0  0  0  0  0  0  0  0  0  0  0
  146.0917  135.6080  156.7613 H   0  0  0  0  0  0  0  0  0  0  0  0
  147.2509  139.9928  152.1930 H   0  0  0  0  0  0  0  0  0  0  0  0
  147.4588  140.9915  154.8409 H   0  0  0  0  0  0  0  0  0  0  0  0
  147.8663  139.7486  155.9959 H   0  0  0  0  0  0  0  0  0  0  0  0
  149.3907  140.3291  152.6375 H   0  0  0  0  0  0  0  0  0  0  0  0
  149.7638  138.0930  155.0745 H   0  0  0  0  0  0  0  0  0  0  0  0
  150.0237  138.4154  153.3617 H   0  0  0  0  0  0  0  0  0  0  0  0
  152.1754  138.2502  154.9584 H   0  0  0  0  0  0  0  0  0  0  0  0
  152.0937  139.6586  153.8888 H   0  0  0  0  0  0  0  0  0  0  0  0
  150.6519  141.8535  155.3372 H   0  0  0  0  0  0  0  0  0  0  0  0
  149.8327  140.9378  156.5942 H   0  0  0  0  0  0  0  0  0  0  0  0
  1  2  1  0  0  0  0
  1 26  1  0  0  0  0
  1 27  1  0  0  0  0
  1 28  1  0  0  0  0
  2  3  1  0  0  0  0
  2 10  1  0  0  0  0
  3  4  1  0  0  0  0
  3 29  1  0  0  0  0
  3 30  1  0  0  0  0
  4  5  1  0  0  0  0
  4  6  1  0  0  0  0
  4  8  1  0  0  0  0
  5 31  1  0  0  0  0
  5 32  1  0  0  0  0
  5 33  1  0  0  0  0
  6  7  1  0  0  0  0
  6 34  1  0  0  0  0
  6 35  1  0  0  0  0
  7 36  1  0  0  0  0
  8  9  1  0  0  0  0
  8 37  1  0  0  0  0
  8 38  1  0  0  0  0
  9 39  1  0  0  0  0
 10 15  1  0  0  0  0
 10 11  2  0  0  0  0
 11 12  1  0  0  0  0
 12 13  2  0  0  0  0
 12 40  1  0  0  0  0
 13 14  1  0  0  0  0
 14 18  1  0  0  0  0
 14 15  2  0  0  0  0
 15 16  1  0  0  0  0
 16 17  2  0  0  0  0
 17 18  1  0  0  0  0
 17 41  1  0  0  0  0
 18 19  1  0  0  0  0
 19 20  1  0  0  0  0
 19 42  1  0  0  0  0
 19 43  1  0  0  0  0
 20 25  1  0  0  0  0
 20 21  1  0  0  0  0
 20 22  1  0  0  0  0
 21 44  1  0  0  0  0
 22 23  1  0  0  0  0
 22 45  1  0  0  0  0
 22 46  1  0  0  0  0
 23 24  1  0  0  0  0
 23 47  1  0  0  0  0
 23 48  1  0  0  0  0
 24 25  1  0  0  0  0
 25 49  1  0  0  0  0
 25 50  1  0  0  0  0
M  END
> <s_m_source_file>
AV-unprocessed.smi

> <i_m_source_file_index>
93

> <i_lp_mmshare_version>
43012

> <i_f3d_flags>
0

> <s_epik_input>
W09IXVtDSDJdQyhbQ0gzXSkoW0NIMl1bT0hdKVtDSDJdTihbQ0gzXSljKG5bY0hdbjEpYyhjMTIpbltjSF1uMltDSDJdW0NAQF0zKFtPSF0pW0NIMl1bQ0gyXU9bQ0gyXTM=

> <s_epik_cmdline>
J2VwaWtfcHl0aG9uJywgJy1waCcsICc3LjAnLCAnLXRuJywgJzgnLCAnLW1hJywgJzIwMCcsICctbWV0YWxfYmluZGluZycsICctaW1hZScsICc8aW5maWxlLm1hZT4nLCAnLW9tYWUnLCAnPG91dGZpbGUubWFlPic=

> <r_lp_tautomer_probability>
1

> <r_epik_Ionization_Penalty>
0.00325397

> <r_epik_Ionization_Penalty_Charging>
0

> <r_epik_Ionization_Penalty_Neutral>
0.00325397

> <r_epik_State_Penalty>
0.00225047

> <r_epik_Charging_Adjusted_Penalty>
0.00225047

> <i_epik_Tot_Q>
0

> <i_epik_Tot_abs_Q>
0

> <r_epik_Metal_State_Penalty>
-0

> <b_epik_Metal_Only>
0

> <s_lp_Force_Field>
OPLS_2005

> <r_lp_Energy>
41.2901

> <b_lp_Chiralities_Consistent>
1

> <s_lp_Variant>
AV-unprocessed.smi:93-2

> <Gold.Version>
5.8.1

> <Gold.Id.Protein>
6NUR|6NUR_protein|mol2

> <Gold.PLP.Fitness>
45.4193

> <Gold.PLP.PLP>
-35.6184

> <Gold.PLP.part.hbond>
-3.2450

> <Gold.PLP.part.metal>
0.0000

> <Gold.PLP.part.buried>
-6.7385

> <Gold.PLP.part.nonpolar>
-25.3156

> <Gold.PLP.part.repulsive>
0.3484

> <Gold.PLP.ligand.clash>
0.0000

> <Gold.PLP.ligand.torsion>
0.7141

> <Gold.PLP.Chemscore.Hbond>
2.8595

> <Gold.PLP.Chemscore.CHOScore>
0.8150

> <Gold.PLP.Chemscore.Metal>
0.0000

> <Gold.Chemscore.Hbonds>
donor molecule, donor type, donor heavy atom, donor atom, acceptor molecule, acceptor atom, score
      L1  H     9    39       P1 10186  1.00
      L1  H    21    44       P1  7957  0.90
      P1  H  7989  7998       L1    21  0.14
      P1  H  8011  8017       L1    21  0.75
      L1  C    17    41       P1  7957  0.76

> <Gold.PLP.Chemscore.Internal.Correction>
0.2054

> <Gold.Rescore>
     Score         DG    S(hbond)    S(metal)    S(lipo)     H(rot)  DE(clash)    DE(int)     intcor
      8.49      -9.57       2.17        0.00      73.62       4.60       0.18       0.90       ----

> <Gold.Chemscore.Fitness>
8.4925

> <Gold.Chemscore.DG>
-9.5736

> <Gold.Chemscore.ZeroCoef>
-5.4800

> <Gold.Chemscore.Hbond>
2.1732

> <Gold.Chemscore.Metal>
0.0000

> <Gold.Chemscore.Lipo>
73.6229

> <Gold.Chemscore.Internal_Hbond>
0.0000

> <Gold.Chemscore.DEClash>
0.1820

> <Gold.Chemscore.DEInternal>
0.8992

> <Gold.Chemscore.Rot>
4.6010

> <Gold.Chemscore.Internal.Correction>
   9.000000E+99

> <Gold.Chemscore.Hbonds>
donor molecule, donor type, donor heavy atom, donor atom, acceptor molecule, acceptor atom, score
      L1  H     9    39       P1 10186  0.95
      L1  H    21    44       P1  7957  0.82
      P1  H  8011  8017       L1    21  0.09

> <Gold.Chemscore.Hbond.Weighted>
-7.2584

> <Gold.Chemscore.Metal.Weighted>
-0.0000

> <Gold.Chemscore.Lipo.Weighted>
-8.6139

> <Gold.Chemscore.Internal_Hbond.Weighted>
0.0000

> <Gold.Chemscore.DEClash.Weighted>
0.1820

> <Gold.Chemscore.DEInternal.Weighted>
0.8992

> <Gold.Chemscore.Rot.Weighted>
11.7787

> <Gold.Chemscore.Internal.Correction.Weighted>
   9.000000E+99

> <Gold.Protein.RotatedTorsions>
[ 6907 6896 6895 6894 ] final -165.76 input  -60.11 | X-H torsion
[ 7974 7965 7964 7962 ] final -119.75 input  175.53 | X-H torsion
[ 8008 7997 7996 7995 ] final  -10.18 input   59.86 | X-H torsion
[ 10167 10162 10161 10158 ] final    3.83 input  -65.29 | X-H torsion
[ 10718 10713 10712 10709 ] final   95.91 input   66.30 | X-H torsion
[ 10763 10752 10751 10750 ] final   64.86 input  -60.55 | X-H torsion
[ 11005 11000 10999 10996 ] final  -63.53 input  -57.11 | X-H torsion

> <Gold.Protein.ActiveResidues>
 VAL166  LYS551  ARG553  GLY616  TRP617  ASP618  TYR619  PRO620  LYS621  CYS622 
 ASP623  PHE694  ASN695  SER759  ASP760  ASP761  ALA762  ILE779  LEU786  VAL792 
 PHE793  MET794  SER795  GLU796  ALA797  LYS798  CYS799  TRP800  GLU811  SER814 

> <Gold.Protein.RotatedAtoms>
  151.4329  133.3665  159.2770 H   0  0  0  0  0  0  0  0  0  0  0  0  # atno 6907 bound_to 6896
  150.9212  134.8631  159.7501 H   0  0  0  0  0  0  0  0  0  0  0  0  # atno 6908 bound_to 6896
  152.4983  134.4267  159.9550 H   0  0  0  0  0  0  0  0  0  0  0  0  # atno 6909 bound_to 6896
  145.0590  140.8276  143.4164 H   0  0  0  0  0  0  0  0  0  0  0  0  # atno 7974 bound_to 7965
  154.5578  140.2335  155.8383 H   0  0  0  0  0  0  0  0  0  0  0  0  # atno 8008 bound_to 7997
  156.2003  140.3054  155.9473 H   0  0  0  0  0  0  0  0  0  0  0  0  # atno 8009 bound_to 7997
  155.2946  140.0428  157.3016 H   0  0  0  0  0  0  0  0  0  0  0  0  # atno 8010 bound_to 7997
  140.6566  143.7411  150.7664 H   0  0  0  0  0  0  0  0  0  0  0  0  # atno 10167 bound_to 10162
  157.6933  131.0561  150.4411 H   0  0  0  0  0  0  0  0  0  0  0  0  # atno 10718 bound_to 10713
  153.0072  135.5378  154.6576 H   0  0  0  0  0  0  0  0  0  0  0  0  # atno 10763 bound_to 10752
  154.5792  135.2848  155.0751 H   0  0  0  0  0  0  0  0  0  0  0  0  # atno 10764 bound_to 10752
  154.1887  135.6504  153.5106 H   0  0  0  0  0  0  0  0  0  0  0  0  # atno 10765 bound_to 10752
  141.1396  133.6653  156.5694 H   0  0  0  0  0  0  0  0  0  0  0  0  # atno 11005 bound_to 11000
  145.1433  139.2559  143.5479 LP  0  0  0  0  0  0  0  0  0  0  0  0  # atno 17320 bound_to 7965
  146.3523  140.1115  142.8603 LP  0  0  0  0  0  0  0  0  0  0  0  0  # atno 17321 bound_to 7965
  140.1072  143.4732  152.2391 LP  0  0  0  0  0  0  0  0  0  0  0  0  # atno 17342 bound_to 10162
  139.5790  144.7501  151.3689 LP  0  0  0  0  0  0  0  0  0  0  0  0  # atno 17343 bound_to 10162
  156.4769  130.4065  149.6484 LP  0  0  0  0  0  0  0  0  0  0  0  0  # atno 17370 bound_to 10713
  156.3544  130.7449  151.2413 LP  0  0  0  0  0  0  0  0  0  0  0  0  # atno 17371 bound_to 10713
  140.3925  134.7428  157.4730 LP  0  0  0  0  0  0  0  0  0  0  0  0  # atno 17394 bound_to 11000
  140.0556  134.6069  155.8809 LP  0  0  0  0  0  0  0  0  0  0  0  0  # atno 17395 bound_to 11000

$$$$
