AV-unprocessed.smi:104|AV-procd|sdf|1003|dock6
  -GOLD-   2262017593D 1   1.00000     0.00000
 Structure written by MMmdl.
 47 49  0  0  0  0  0  0  0  0  1 V2000
  152.4722  143.3160  160.2122 C   0  0  0  0  0  0  0  0  0  0  0  0
  153.1477  141.9627  160.0341 C   0  0  0  0  0  0  0  0  0  0  0  0
  154.0120  141.5721  160.8180 O   0  0  0  0  0  0  0  0  0  0  0  0
  152.6885  141.2981  158.9593 O   0  0  0  0  0  0  0  0  0  0  0  0
  153.2217  140.0292  158.6039 C   0  0  0  0  0  0  0  0  0  0  0  0
  152.2049  138.9103  158.8929 C   0  0  2  0  0  0  0  0  0  0  0  0
  152.3570  137.8293  157.9896 O   0  0  0  0  0  0  0  0  0  0  0  0
  151.2313  137.0227  158.1152 C   0  0  2  0  0  0  0  0  0  0  0  0
  150.9843  136.3491  156.8068 N   0  0  0  0  0  0  0  0  0  0  0  0
  151.3567  136.7369  155.5398 C   0  0  0  0  0  0  0  0  0  0  0  0
  152.3415  138.3329  155.2074 Br  0  0  0  0  0  0  0  0  0  0  0  0
  151.0173  135.9526  154.5548 N   0  0  0  0  0  0  0  0  0  0  0  0
  150.3476  134.9208  155.2014 C   0  0  0  0  0  0  0  0  0  0  0  0
  149.7157  133.7290  154.7650 C   0  0  0  0  0  0  0  0  0  0  0  0
  149.6569  133.3616  153.4777 N   0  0  0  0  0  0  0  0  0  0  0  0
  149.1459  132.9220  155.6906 N   0  0  0  0  0  0  0  0  0  0  0  0
  149.1913  133.2644  156.9821 C   0  0  0  0  0  0  0  0  0  0  0  0
  149.7436  134.3443  157.5409 N   0  0  0  0  0  0  0  0  0  0  0  0
  150.3184  135.1573  156.6066 C   0  0  0  0  0  0  0  0  0  0  0  0
  150.0484  137.9338  158.4815 C   0  0  1  0  0  0  0  0  0  0  0  0
  149.3731  137.4533  159.6358 O   0  0  0  0  0  0  0  0  0  0  0  0
  148.4853  136.4495  159.5279 C   0  0  0  0  0  0  0  0  0  0  0  0
  148.0364  135.9233  160.8843 C   0  0  0  0  0  0  0  0  0  0  0  0
  148.0596  135.9676  158.4779 O   0  0  0  0  0  0  0  0  0  0  0  0
  150.7179  139.2723  158.7869 C   0  0  2  0  0  0  0  0  0  0  0  0
  150.4796  140.1862  157.7225 O   0  0  0  0  0  0  0  0  0  0  0  0
  149.2241  140.4755  157.3398 C   0  0  0  0  0  0  0  0  0  0  0  0
  149.1859  141.2985  156.0594 C   0  0  0  0  0  0  0  0  0  0  0  0
  148.1930  140.1342  157.9192 O   0  0  0  0  0  0  0  0  0  0  0  0
  153.0134  144.0822  159.6572 H   0  0  0  0  0  0  0  0  0  0  0  0
  152.4568  143.5971  161.2652 H   0  0  0  0  0  0  0  0  0  0  0  0
  151.4445  143.2852  159.8495 H   0  0  0  0  0  0  0  0  0  0  0  0
  153.5854  139.9975  157.5761 H   0  0  0  0  0  0  0  0  0  0  0  0
  154.0964  139.8741  159.2356 H   0  0  0  0  0  0  0  0  0  0  0  0
  152.3993  138.5065  159.8887 H   0  0  0  0  0  0  0  0  0  0  0  0
  151.4168  136.2292  158.8391 H   0  0  0  0  0  0  0  0  0  0  0  0
  150.0757  133.9460  152.7684 H   0  0  0  0  0  0  0  0  0  0  0  0
  149.1975  132.5004  153.2194 H   0  0  0  0  0  0  0  0  0  0  0  0
  148.7183  132.5753  157.6661 H   0  0  0  0  0  0  0  0  0  0  0  0
  149.3628  138.0296  157.6375 H   0  0  0  0  0  0  0  0  0  0  0  0
  148.8651  135.4264  161.3889 H   0  0  0  0  0  0  0  0  0  0  0  0
  147.2237  135.2062  160.7668 H   0  0  0  0  0  0  0  0  0  0  0  0
  147.6864  136.7420  161.5132 H   0  0  0  0  0  0  0  0  0  0  0  0
  150.3686  139.7054  159.7260 H   0  0  0  0  0  0  0  0  0  0  0  0
  149.6389  142.2759  156.2259 H   0  0  0  0  0  0  0  0  0  0  0  0
  148.1576  141.4451  155.7282 H   0  0  0  0  0  0  0  0  0  0  0  0
  149.7357  140.7910  155.2666 H   0  0  0  0  0  0  0  0  0  0  0  0
  1  2  1  0  0  0  0
  1 30  1  0  0  0  0
  1 31  1  0  0  0  0
  1 32  1  0  0  0  0
  2  3  2  0  0  0  0
  2  4  1  0  0  0  0
  4  5  1  0  0  0  0
  5  6  1  0  0  0  0
  5 33  1  0  0  0  0
  5 34  1  0  0  0  0
  6 25  1  0  0  0  0
  6  7  1  0  0  0  0
  6 35  1  0  0  0  0
  7  8  1  0  0  0  0
  8  9  1  0  0  0  0
  8 20  1  0  0  0  0
  8 36  1  0  0  0  0
  9 19  1  0  0  0  0
  9 10  1  0  0  0  0
 10 11  1  0  0  0  0
 10 12  2  0  0  0  0
 12 13  1  0  0  0  0
 13 19  2  0  0  0  0
 13 14  1  0  0  0  0
 14 15  1  0  0  0  0
 14 16  2  0  0  0  0
 15 37  1  0  0  0  0
 15 38  1  0  0  0  0
 16 17  1  0  0  0  0
 17 18  2  0  0  0  0
 17 39  1  0  0  0  0
 18 19  1  0  0  0  0
 20 21  1  0  0  0  0
 20 25  1  0  0  0  0
 20 40  1  0  0  0  0
 21 22  1  0  0  0  0
 22 23  1  0  0  0  0
 22 24  2  0  0  0  0
 23 41  1  0  0  0  0
 23 42  1  0  0  0  0
 23 43  1  0  0  0  0
 25 26  1  0  0  0  0
 25 44  1  0  0  0  0
 26 27  1  0  0  0  0
 27 28  1  0  0  0  0
 27 29  2  0  0  0  0
 28 45  1  0  0  0  0
 28 46  1  0  0  0  0
 28 47  1  0  0  0  0
M  END
> <s_m_source_file>
AV-unprocessed.smi

> <i_m_source_file_index>
104

> <i_lp_mmshare_version>
43012

> <i_f3d_flags>
0

> <s_epik_input>
W0NIM11DKD1PKU9bQ0gyXVtDQEBIXTFPW0NASF0oW0NAQEhdKE9DKD1PKVtDSDNdKVtDQEhdMU9DKD1PKVtDSDNdKW4oYyhCciluMiljKGMyMyluW2NIXW5jM1tOSDJd

> <s_epik_cmdline>
J2VwaWtfcHl0aG9uJywgJy1waCcsICc3LjAnLCAnLXRuJywgJzgnLCAnLW1hJywgJzIwMCcsICctbWV0YWxfYmluZGluZycsICctaW1hZScsICc8aW5maWxlLm1hZT4nLCAnLW9tYWUnLCAnPG91dGZpbGUubWFlPic=

> <r_lp_tautomer_probability>
1

> <r_epik_Ionization_Penalty>
7.36622e-05

> <r_epik_Ionization_Penalty_Charging>
0

> <r_epik_Ionization_Penalty_Neutral>
7.36622e-05

> <r_epik_State_Penalty>
-0

> <r_epik_Charging_Adjusted_Penalty>
0

> <i_epik_Tot_Q>
0

> <i_epik_Tot_abs_Q>
0

> <r_epik_Metal_State_Penalty>
-0

> <b_epik_Metal_Only>
0

> <s_epik_Chemistry_Notes>
This compound has an ester and may undergo hydrolysis at high or low pH. This compound contains an acetal/aminal-like group ( X-CH(R)-Y where X, Y are N, S, or O) that may be acid/base labile, releasing an aldehyde.

> <s_lp_Force_Field>
OPLS_2005

> <r_lp_Energy>
15.0278

> <b_lp_Chiralities_Consistent>
1

> <s_lp_Variant>
AV-unprocessed.smi:104-11

> <Gold.Version>
5.8.1

> <Gold.Id.Protein>
6NUR|6NUR_protein|mol2

> <Gold.PLP.Fitness>
37.3381

> <Gold.PLP.PLP>
-35.7859

> <Gold.PLP.part.hbond>
-4.4671

> <Gold.PLP.part.metal>
0.0000

> <Gold.PLP.part.buried>
-4.8644

> <Gold.PLP.part.nonpolar>
-26.9773

> <Gold.PLP.part.repulsive>
0.1968

> <Gold.PLP.ligand.clash>
0.0000

> <Gold.PLP.ligand.torsion>
1.7609

> <Gold.PLP.Chemscore.Hbond>
1.6484

> <Gold.PLP.Chemscore.CHOScore>
0.0000

> <Gold.PLP.Chemscore.Metal>
0.0000

> <Gold.Chemscore.Hbonds>
donor molecule, donor type, donor heavy atom, donor atom, acceptor molecule, acceptor atom, score
      P1  H  6896  6909       L1    18  0.86
      P1  H 10752 10764       L1    12  0.45

> <Gold.PLP.Chemscore.Internal.Correction>
0.1288

> <Gold.Rescore>
     Score         DG    S(hbond)    S(metal)    S(lipo)     H(rot)  DE(clash)    DE(int)     intcor
     -2.03      -4.32       0.99        0.00      56.15       4.31       1.57       4.78       ----

> <Gold.Chemscore.Fitness>
-2.0290

> <Gold.Chemscore.DG>
-4.3229

> <Gold.Chemscore.ZeroCoef>
-5.4800

> <Gold.Chemscore.Hbond>
0.9879

> <Gold.Chemscore.Metal>
0.0000

> <Gold.Chemscore.Lipo>
56.1473

> <Gold.Chemscore.Internal_Hbond>
0.0000

> <Gold.Chemscore.DEClash>
1.5673

> <Gold.Chemscore.DEInternal>
4.7846

> <Gold.Chemscore.Rot>
4.3070

> <Gold.Chemscore.Internal.Correction>
   9.000000E+99

> <Gold.Chemscore.Hbonds>
donor molecule, donor type, donor heavy atom, donor atom, acceptor molecule, acceptor atom, score
      P1  H  6896  6909       L1    18  0.75
      P1  H 10752 10764       L1    12  0.01

> <Gold.Chemscore.Hbond.Weighted>
-3.2996

> <Gold.Chemscore.Metal.Weighted>
-0.0000

> <Gold.Chemscore.Lipo.Weighted>
-6.5692

> <Gold.Chemscore.Internal_Hbond.Weighted>
0.0000

> <Gold.Chemscore.DEClash.Weighted>
1.5673

> <Gold.Chemscore.DEInternal.Weighted>
4.7846

> <Gold.Chemscore.Rot.Weighted>
11.0259

> <Gold.Chemscore.Internal.Correction.Weighted>
   9.000000E+99

> <Gold.Protein.RotatedTorsions>
[ 6907 6896 6895 6894 ] final   29.51 input  -60.11 | X-H torsion
[ 7974 7965 7964 7962 ] final  -13.12 input  175.53 | X-H torsion
[ 8008 7997 7996 7995 ] final   96.56 input   59.86 | X-H torsion
[ 10167 10162 10161 10158 ] final  -58.84 input  -65.29 | X-H torsion
[ 10718 10713 10712 10709 ] final    4.85 input   66.30 | X-H torsion
[ 10763 10752 10751 10750 ] final  -85.19 input  -60.55 | X-H torsion
[ 11005 11000 10999 10996 ] final  -90.20 input  -57.11 | X-H torsion

> <Gold.Protein.ActiveResidues>
 VAL166  LYS551  ARG553  GLY616  TRP617  ASP618  TYR619  PRO620  LYS621  CYS622 
 ASP623  PHE694  ASN695  SER759  ASP760  ASP761  ALA762  ILE779  LEU786  VAL792 
 PHE793  MET794  SER795  GLU796  ALA797  LYS798  CYS799  TRP800  GLU811  SER814 

> <Gold.Protein.RotatedAtoms>
  152.0325  134.9759  160.0572 H   0  0  0  0  0  0  0  0  0  0  0  0  # atno 6907 bound_to 6896
  152.1230  133.4359  159.4693 H   0  0  0  0  0  0  0  0  0  0  0  0  # atno 6908 bound_to 6896
  150.6850  134.2431  159.4523 H   0  0  0  0  0  0  0  0  0  0  0  0  # atno 6909 bound_to 6896
  146.2126  140.3157  142.8386 H   0  0  0  0  0  0  0  0  0  0  0  0  # atno 7974 bound_to 7965
  156.0810  140.3271  155.7693 H   0  0  0  0  0  0  0  0  0  0  0  0  # atno 8008 bound_to 7997
  155.5153  140.0580  157.2933 H   0  0  0  0  0  0  0  0  0  0  0  0  # atno 8009 bound_to 7997
  154.4582  140.1953  156.0336 H   0  0  0  0  0  0  0  0  0  0  0  0  # atno 8010 bound_to 7997
  140.6173  143.2407  151.5567 H   0  0  0  0  0  0  0  0  0  0  0  0  # atno 10167 bound_to 10162
  156.8987  130.5714  149.5648 H   0  0  0  0  0  0  0  0  0  0  0  0  # atno 10718 bound_to 10713
  154.6082  135.5494  153.7445 H   0  0  0  0  0  0  0  0  0  0  0  0  # atno 10763 bound_to 10752
  153.0183  135.6383  154.1616 H   0  0  0  0  0  0  0  0  0  0  0  0  # atno 10764 bound_to 10752
  154.1555  135.2900  155.3103 H   0  0  0  0  0  0  0  0  0  0  0  0  # atno 10765 bound_to 10752
  141.1570  133.7677  156.9703 H   0  0  0  0  0  0  0  0  0  0  0  0  # atno 11005 bound_to 11000
  144.8956  140.7578  143.5899 LP  0  0  0  0  0  0  0  0  0  0  0  0  # atno 17320 bound_to 7965
  145.3081  139.1827  143.4653 LP  0  0  0  0  0  0  0  0  0  0  0  0  # atno 17321 bound_to 7965
  139.5409  144.2651  152.1348 LP  0  0  0  0  0  0  0  0  0  0  0  0  # atno 17342 bound_to 10162
  140.1863  144.4795  150.6502 LP  0  0  0  0  0  0  0  0  0  0  0  0  # atno 17343 bound_to 10162
  156.0593  130.5648  150.9158 LP  0  0  0  0  0  0  0  0  0  0  0  0  # atno 17370 bound_to 10713
  157.6039  131.0940  150.8912 LP  0  0  0  0  0  0  0  0  0  0  0  0  # atno 17371 bound_to 10713
  140.1133  134.9463  157.2098 LP  0  0  0  0  0  0  0  0  0  0  0  0  # atno 17394 bound_to 11000
  140.3165  134.2965  155.7255 LP  0  0  0  0  0  0  0  0  0  0  0  0  # atno 17395 bound_to 11000

$$$$
