AV-unprocessed.smi:2026|AV-procd|sdf|8205|dock2
  -GOLD-   2272010463D 1   1.00000     0.00000
 Structure written by MMmdl.
 45 47  0  0  0  0  0  0  0  0  2 V2000
  151.6197  144.3165  160.7394 C   0  0  0  0  0  0  0  0  0  0  0  0
  152.4039  143.0163  160.7227 C   0  0  0  0  0  0  0  0  0  0  0  0
  153.2540  142.7119  161.8106 C   0  0  0  0  0  0  0  0  0  0  0  0
  154.0002  141.5127  161.8329 C   0  0  0  0  0  0  0  0  0  0  0  0
  154.8801  141.0147  162.7798 N   0  0  0  0  0  0  0  0  0  0  0  0
  155.2471  139.8620  162.2253 C   0  0  0  0  0  0  0  0  0  0  0  0
  154.7081  139.5560  161.0300 N   0  0  0  0  0  0  0  0  0  0  0  0
  154.9457  138.3743  160.2241 C   0  0  0  0  0  0  0  0  0  0  0  0
  153.6319  137.6519  159.8620 C   0  0  2  0  0  0  0  0  0  0  0  0
  153.7147  136.3001  160.2664 O   0  0  0  0  0  0  0  0  0  0  0  0
  153.2878  137.6962  158.3588 C   0  0  0  0  0  0  0  0  0  0  0  0
  151.8818  137.3597  158.0986 N   0  0  0  0  0  0  0  0  0  0  0  0
  151.4511  136.3176  157.3614 C   0  0  0  0  0  0  0  0  0  0  0  0
  152.2250  135.5192  156.8342 O   0  0  0  0  0  0  0  0  0  0  0  0
  150.0993  136.2989  157.2894 N   0  5  0  0  0  0  0  0  0  0  0  0
  149.5746  137.4268  158.0327 C   0  0  0  0  0  0  0  0  0  0  0  0
  148.8034  138.3705  157.0899 C   0  0  0  0  0  0  0  0  0  0  0  0
  148.6892  136.9334  159.1923 C   0  0  0  0  0  0  0  0  0  0  0  0
  150.8459  138.0780  158.5459 C   0  0  0  0  0  0  0  0  0  0  0  0
  150.8794  139.0944  159.2411 O   0  0  0  0  0  0  0  0  0  0  0  0
  153.8718  140.6229  160.7275 C   0  0  0  0  0  0  0  0  0  0  0  0
  153.0301  140.9137  159.6401 C   0  0  0  0  0  0  0  0  0  0  0  0
  152.2910  142.1144  159.6339 C   0  0  0  0  0  0  0  0  0  0  0  0
  151.3838  142.4160  158.4542 C   0  0  0  0  0  0  0  0  0  0  0  0
  151.7793  144.8659  161.6676 H   0  0  0  0  0  0  0  0  0  0  0  0
  150.5513  144.1209  160.6478 H   0  0  0  0  0  0  0  0  0  0  0  0
  151.9277  144.9572  159.9128 H   0  0  0  0  0  0  0  0  0  0  0  0
  153.3398  143.3984  162.6400 H   0  0  0  0  0  0  0  0  0  0  0  0
  155.9463  139.2008  162.7160 H   0  0  0  0  0  0  0  0  0  0  0  0
  155.4690  138.6994  159.3250 H   0  0  0  0  0  0  0  0  0  0  0  0
  155.6251  137.7058  160.7548 H   0  0  0  0  0  0  0  0  0  0  0  0
  152.8105  138.0999  160.4224 H   0  0  0  0  0  0  0  0  0  0  0  0
  154.0497  136.2734  161.1494 H   0  0  0  0  0  0  0  0  0  0  0  0
  153.5367  138.6761  157.9485 H   0  0  0  0  0  0  0  0  0  0  0  0
  153.9162  136.9862  157.8180 H   0  0  0  0  0  0  0  0  0  0  0  0
  148.4062  139.2309  157.6297 H   0  0  0  0  0  0  0  0  0  0  0  0
  147.9597  137.8598  156.6247 H   0  0  0  0  0  0  0  0  0  0  0  0
  149.4382  138.7508  156.2881 H   0  0  0  0  0  0  0  0  0  0  0  0
  148.2783  137.7698  159.7591 H   0  0  0  0  0  0  0  0  0  0  0  0
  149.2472  136.3067  159.8901 H   0  0  0  0  0  0  0  0  0  0  0  0
  147.8489  136.3445  158.8228 H   0  0  0  0  0  0  0  0  0  0  0  0
  152.9533  140.2148  158.8200 H   0  0  0  0  0  0  0  0  0  0  0  0
  151.4438  141.6331  157.6973 H   0  0  0  0  0  0  0  0  0  0  0  0
  151.6665  143.3579  157.9842 H   0  0  0  0  0  0  0  0  0  0  0  0
  150.3459  142.4877  158.7800 H   0  0  0  0  0  0  0  0  0  0  0  0
  1  2  1  0  0  0  0
  1 25  1  0  0  0  0
  1 26  1  0  0  0  0
  1 27  1  0  0  0  0
  2 23  1  0  0  0  0
  2  3  2  0  0  0  0
  3  4  1  0  0  0  0
  3 28  1  0  0  0  0
  4 21  2  0  0  0  0
  4  5  1  0  0  0  0
  5  6  2  0  0  0  0
  6  7  1  0  0  0  0
  6 29  1  0  0  0  0
  7  8  1  0  0  0  0
  7 21  1  0  0  0  0
  8  9  1  0  0  0  0
  8 30  1  0  0  0  0
  8 31  1  0  0  0  0
  9 10  1  0  0  0  0
  9 11  1  0  0  0  0
  9 32  1  0  0  0  0
 10 33  1  0  0  0  0
 11 12  1  0  0  0  0
 11 34  1  0  0  0  0
 11 35  1  0  0  0  0
 12 19  1  0  0  0  0
 12 13  1  0  0  0  0
 13 14  2  0  0  0  0
 13 15  1  0  0  0  0
 15 16  1  0  0  0  0
 16 17  1  0  0  0  0
 16 18  1  0  0  0  0
 16 19  1  0  0  0  0
 17 36  1  0  0  0  0
 17 37  1  0  0  0  0
 17 38  1  0  0  0  0
 18 39  1  0  0  0  0
 18 40  1  0  0  0  0
 18 41  1  0  0  0  0
 19 20  2  0  0  0  0
 21 22  1  0  0  0  0
 22 23  2  0  0  0  0
 22 42  1  0  0  0  0
 23 24  1  0  0  0  0
 24 43  1  0  0  0  0
 24 44  1  0  0  0  0
 24 45  1  0  0  0  0
M  CHG  1  15  -1
M  END
> <s_m_source_file>
AV-unprocessed.smi

> <i_m_source_file_index>
2026

> <i_lp_mmshare_version>
43012

> <i_f3d_flags>
0

> <s_epik_input>
W0NIM11jKFtjSF0xKWMoW0NIM10pW2NIXWMoYzEyKW4oW2NIXW4yKVtDSDJdW0NASF0oW09IXSlbQ0gyXU4oQzM9TylDKD1PKVtOSF1DMyhbQ0gzXSlbQ0gzXQ==

> <s_epik_cmdline>
J2VwaWtfcHl0aG9uJywgJy1waCcsICc3LjAnLCAnLXRuJywgJzgnLCAnLW1hJywgJzIwMCcsICctbWV0YWxfYmluZGluZycsICctaW1hZScsICc8aW5maWxlLm1hZT4nLCAnLW9tYWUnLCAnPG91dGZpbGUubWFlPic=

> <r_lp_tautomer_probability>
1

> <r_epik_Ionization_Penalty>
5.78785

> <r_epik_Ionization_Penalty_Charging>
5.68049

> <r_epik_Ionization_Penalty_Neutral>
0.107354

> <r_epik_State_Penalty>
5.7743

> <r_epik_Charging_Adjusted_Penalty>
11.4548

> <i_epik_Tot_Q>
-1

> <i_epik_Tot_abs_Q>
1

> <r_epik_Metal_State_Penalty>
1.83778

> <b_epik_Metal_Only>
1

> <s_lp_Force_Field>
OPLS_2005

> <r_lp_Energy>
16.8856

> <b_lp_Chiralities_Consistent>
1

> <s_lp_Variant>
AV-unprocessed.smi:2026-5

> <Gold.Version>
5.8.1

> <Gold.Id.Protein>
6NUR|6NUR_protein|mol2

> <Gold.PLP.Fitness>
44.4660

> <Gold.PLP.PLP>
-40.2149

> <Gold.PLP.part.hbond>
-3.7405

> <Gold.PLP.part.metal>
0.0000

> <Gold.PLP.part.buried>
-5.8258

> <Gold.PLP.part.nonpolar>
-30.7136

> <Gold.PLP.part.repulsive>
0.0000

> <Gold.PLP.ligand.clash>
0.0000

> <Gold.PLP.ligand.torsion>
0.8841

> <Gold.PLP.Chemscore.Hbond>
2.0000

> <Gold.PLP.Chemscore.CHOScore>
0.0000

> <Gold.PLP.Chemscore.Metal>
0.0000

> <Gold.Chemscore.Hbonds>
donor molecule, donor type, donor heavy atom, donor atom, acceptor molecule, acceptor atom, score
      P1  H  6896  6908       L1    10  1.00
      P1  H 10752 10764       L1    14  1.00

> <Gold.PLP.Chemscore.Internal.Correction>
0.0192

> <Gold.Rescore>
     Score         DG    S(hbond)    S(metal)    S(lipo)     H(rot)  DE(clash)    DE(int)     intcor
     16.10     -17.88       1.89        0.00     103.93       2.38       0.10       1.67       ----

> <Gold.Chemscore.Fitness>
16.1011

> <Gold.Chemscore.DG>
-17.8773

> <Gold.Chemscore.ZeroCoef>
-5.4800

> <Gold.Chemscore.Hbond>
1.8940

> <Gold.Chemscore.Metal>
0.0000

> <Gold.Chemscore.Lipo>
103.9280

> <Gold.Chemscore.Internal_Hbond>
0.0000

> <Gold.Chemscore.DEClash>
0.1041

> <Gold.Chemscore.DEInternal>
1.6721

> <Gold.Chemscore.Rot>
2.3783

> <Gold.Chemscore.Internal.Correction>
   9.000000E+99

> <Gold.Chemscore.Hbonds>
donor molecule, donor type, donor heavy atom, donor atom, acceptor molecule, acceptor atom, score
      P1  H  6896  6908       L1    10  0.65
      P1  H 10752 10764       L1    14  0.99

> <Gold.Chemscore.Hbond.Weighted>
-6.3261

> <Gold.Chemscore.Metal.Weighted>
-0.0000

> <Gold.Chemscore.Lipo.Weighted>
-12.1596

> <Gold.Chemscore.Internal_Hbond.Weighted>
0.0000

> <Gold.Chemscore.DEClash.Weighted>
0.1041

> <Gold.Chemscore.DEInternal.Weighted>
1.6721

> <Gold.Chemscore.Rot.Weighted>
6.0884

> <Gold.Chemscore.Internal.Correction.Weighted>
   9.000000E+99

> <Gold.Protein.RotatedTorsions>
[ 6907 6896 6895 6894 ] final  -75.64 input  -60.11 | X-H torsion
[ 7974 7965 7964 7962 ] final  128.72 input  175.53 | X-H torsion
[ 8008 7997 7996 7995 ] final   37.35 input   59.86 | X-H torsion
[ 10167 10162 10161 10158 ] final   72.13 input  -65.29 | X-H torsion
[ 10718 10713 10712 10709 ] final  100.03 input   66.30 | X-H torsion
[ 10763 10752 10751 10750 ] final  -14.25 input  -60.55 | X-H torsion
[ 11005 11000 10999 10996 ] final   83.82 input  -57.11 | X-H torsion

> <Gold.Protein.ActiveResidues>
 VAL166  LYS551  ARG553  GLY616  TRP617  ASP618  TYR619  PRO620  LYS621  CYS622 
 ASP623  PHE694  ASN695  SER759  ASP760  ASP761  ALA762  ILE779  LEU786  VAL792 
 PHE793  MET794  SER795  GLU796  ALA797  LYS798  CYS799  TRP800  GLU811  SER814 

> <Gold.Protein.RotatedAtoms>
  150.7052  134.4690  159.5416 H   0  0  0  0  0  0  0  0  0  0  0  0  # atno 6907 bound_to 6896
  152.2350  134.8282  160.0477 H   0  0  0  0  0  0  0  0  0  0  0  0  # atno 6908 bound_to 6896
  151.9084  133.3520  159.3892 H   0  0  0  0  0  0  0  0  0  0  0  0  # atno 6909 bound_to 6896
  145.0365  139.4000  143.5123 H   0  0  0  0  0  0  0  0  0  0  0  0  # atno 7974 bound_to 7965
  155.2024  140.3317  155.4341 H   0  0  0  0  0  0  0  0  0  0  0  0  # atno 8008 bound_to 7997
  156.2402  140.1891  156.7060 H   0  0  0  0  0  0  0  0  0  0  0  0  # atno 8009 bound_to 7997
  154.6132  140.0606  156.9507 H   0  0  0  0  0  0  0  0  0  0  0  0  # atno 8010 bound_to 7997
  140.0386  144.5407  150.7451 H   0  0  0  0  0  0  0  0  0  0  0  0  # atno 10167 bound_to 10162
  157.6863  131.0687  150.5038 H   0  0  0  0  0  0  0  0  0  0  0  0  # atno 10718 bound_to 10713
  153.5255  135.7015  153.5710 H   0  0  0  0  0  0  0  0  0  0  0  0  # atno 10763 bound_to 10752
  153.3740  135.3937  155.1809 H   0  0  0  0  0  0  0  0  0  0  0  0  # atno 10764 bound_to 10752
  154.8690  135.3819  154.4747 H   0  0  0  0  0  0  0  0  0  0  0  0  # atno 10765 bound_to 10752
  139.9019  134.8172  156.2361 H   0  0  0  0  0  0  0  0  0  0  0  0  # atno 11005 bound_to 11000
  146.3505  139.9943  142.8682 LP  0  0  0  0  0  0  0  0  0  0  0  0  # atno 17320 bound_to 7965
  145.1703  140.9717  143.4326 LP  0  0  0  0  0  0  0  0  0  0  0  0  # atno 17321 bound_to 7965
  140.7270  143.2647  151.4086 LP  0  0  0  0  0  0  0  0  0  0  0  0  # atno 17342 bound_to 10162
  139.6028  144.1259  152.2217 LP  0  0  0  0  0  0  0  0  0  0  0  0  # atno 17343 bound_to 10162
  156.5359  130.4196  149.6178 LP  0  0  0  0  0  0  0  0  0  0  0  0  # atno 17370 bound_to 10713
  156.3028  130.7186  151.2062 LP  0  0  0  0  0  0  0  0  0  0  0  0  # atno 17371 bound_to 10713
  141.0315  133.6986  156.1438 LP  0  0  0  0  0  0  0  0  0  0  0  0  # atno 17394 bound_to 11000
  140.7090  134.4482  157.5582 LP  0  0  0  0  0  0  0  0  0  0  0  0  # atno 17395 bound_to 11000

$$$$
