AV-unprocessed.smi:1593|AV-procd|sdf|6409|dock6
  -GOLD-   22720 7 43D 1   1.00000     0.00000
 Structure written by MMmdl.
 36 37  0  0  0  0  0  0  0  0  1 V2000
  149.8298  130.1214  154.6038 C   0  0  0  0  0  0  0  0  0  0  0  0
  149.4126  131.5493  154.6936 C   0  0  0  0  0  0  0  0  0  0  0  0
  149.0149  132.4615  153.7574 C   0  0  0  0  0  0  0  0  0  0  0  0
  148.7693  133.6308  154.5348 C   0  0  0  0  0  0  0  0  0  0  0  0
  148.3322  134.8891  154.0464 N   0  0  0  0  0  0  0  0  0  0  0  0
  147.7275  135.8820  154.7198 C   0  0  0  0  0  0  0  0  0  0  0  0
  147.4637  135.8693  155.9220 O   0  0  0  0  0  0  0  0  0  0  0  0
  147.4387  136.9103  153.9088 N   0  0  0  0  0  0  0  0  0  0  0  0
  146.7479  138.1327  154.3074 C   0  0  0  0  0  0  0  0  0  0  0  0
  147.5994  139.3840  154.0166 C   0  0  0  0  0  0  0  0  0  0  0  0
  148.8743  139.4611  154.7300 N   0  0  0  0  0  0  0  0  0  0  0  0
  149.3430  140.8387  154.8266 C   0  0  0  0  0  0  0  0  0  0  0  0
  150.6768  140.9380  155.5872 C   0  0  0  0  0  0  0  0  0  0  0  0
  151.6511  140.1159  154.9523 O   0  0  0  0  0  0  0  0  0  0  0  0
  151.2502  138.7517  154.8724 C   0  0  0  0  0  0  0  0  0  0  0  0
  149.9185  138.6486  154.1093 C   0  0  0  0  0  0  0  0  0  0  0  0
  148.9979  133.4429  155.8217 N   0  0  0  0  0  0  0  0  0  0  0  0
  149.4112  132.1100  155.9326 O   0  0  0  0  0  0  0  0  0  0  0  0
  149.4915  129.6755  153.6682 H   0  0  0  0  0  0  0  0  0  0  0  0
  149.4091  129.5412  155.4253 H   0  0  0  0  0  0  0  0  0  0  0  0
  150.9155  130.0341  154.6471 H   0  0  0  0  0  0  0  0  0  0  0  0
  148.9223  132.3006  152.6941 H   0  0  0  0  0  0  0  0  0  0  0  0
  148.4921  135.0473  153.0624 H   0  0  0  0  0  0  0  0  0  0  0  0
  147.6954  136.8332  152.9356 H   0  0  0  0  0  0  0  0  0  0  0  0
  145.7577  138.1996  153.8553 H   0  0  0  0  0  0  0  0  0  0  0  0
  146.5745  138.0682  155.3816 H   0  0  0  0  0  0  0  0  0  0  0  0
  147.7815  139.4492  152.9427 H   0  0  0  0  0  0  0  0  0  0  0  0
  146.9976  140.2590  154.2669 H   0  0  0  0  0  0  0  0  0  0  0  0
  149.4654  141.2595  153.8273 H   0  0  0  0  0  0  0  0  0  0  0  0
  148.5950  141.4495  155.3333 H   0  0  0  0  0  0  0  0  0  0  0  0
  151.0318  141.9685  155.5978 H   0  0  0  0  0  0  0  0  0  0  0  0
  150.5526  140.6300  156.6265 H   0  0  0  0  0  0  0  0  0  0  0  0
  152.0257  138.1807  154.3616 H   0  0  0  0  0  0  0  0  0  0  0  0
  151.1524  138.3340  155.8757 H   0  0  0  0  0  0  0  0  0  0  0  0
  149.6187  137.6025  154.0750 H   0  0  0  0  0  0  0  0  0  0  0  0
  150.0688  138.9647  153.0759 H   0  0  0  0  0  0  0  0  0  0  0  0
  1  2  1  0  0  0  0
  1 19  1  0  0  0  0
  1 20  1  0  0  0  0
  1 21  1  0  0  0  0
  2 18  1  0  0  0  0
  2  3  2  0  0  0  0
  3  4  1  0  0  0  0
  3 22  1  0  0  0  0
  4  5  1  0  0  0  0
  4 17  2  0  0  0  0
  5  6  1  0  0  0  0
  5 23  1  0  0  0  0
  6  7  2  0  0  0  0
  6  8  1  0  0  0  0
  8  9  1  0  0  0  0
  8 24  1  0  0  0  0
  9 10  1  0  0  0  0
  9 25  1  0  0  0  0
  9 26  1  0  0  0  0
 10 11  1  0  0  0  0
 10 27  1  0  0  0  0
 10 28  1  0  0  0  0
 11 16  1  0  0  0  0
 11 12  1  0  0  0  0
 12 13  1  0  0  0  0
 12 29  1  0  0  0  0
 12 30  1  0  0  0  0
 13 14  1  0  0  0  0
 13 31  1  0  0  0  0
 13 32  1  0  0  0  0
 14 15  1  0  0  0  0
 15 16  1  0  0  0  0
 15 33  1  0  0  0  0
 15 34  1  0  0  0  0
 16 35  1  0  0  0  0
 16 36  1  0  0  0  0
 17 18  1  0  0  0  0
M  END
> <s_m_source_file>
AV-unprocessed.smi

> <i_m_source_file_index>
1593

> <i_lp_mmshare_version>
43012

> <i_f3d_flags>
0

> <s_epik_input>
W0NIM11jMVtjSF1jKG5vMSlbTkhdQyg9TylbTkhdW0NIMl1bQ0gyXU4yW0NIMl1bQ0gyXU9bQ0gyXVtDSDJdMg==

> <s_epik_cmdline>
J2VwaWtfcHl0aG9uJywgJy1waCcsICc3LjAnLCAnLXRuJywgJzgnLCAnLW1hJywgJzIwMCcsICctbWV0YWxfYmluZGluZycsICctaW1hZScsICc8aW5maWxlLm1hZT4nLCAnLW9tYWUnLCAnPG91dGZpbGUubWFlPic=

> <r_epik_Ionization_Penalty>
0.214073

> <r_epik_Ionization_Penalty_Charging>
0

> <r_epik_Ionization_Penalty_Neutral>
0.214073

> <r_epik_State_Penalty>
0.204211

> <r_epik_Charging_Adjusted_Penalty>
0.204211

> <i_epik_Tot_Q>
0

> <i_epik_Tot_abs_Q>
0

> <r_epik_Metal_State_Penalty>
0.217151

> <b_epik_Metal_Only>
0

> <s_lp_Force_Field>
OPLS_2005

> <r_lp_Energy>
24.5673

> <b_lp_Chiralities_Consistent>
1

> <s_lp_Variant>
AV-unprocessed.smi:1593-1

> <Gold.Version>
5.8.1

> <Gold.Id.Protein>
6NUR|6NUR_protein|mol2

> <Gold.PLP.Fitness>
34.8916

> <Gold.PLP.PLP>
-27.0143

> <Gold.PLP.part.hbond>
-3.0000

> <Gold.PLP.part.metal>
0.0000

> <Gold.PLP.part.buried>
-1.8008

> <Gold.PLP.part.nonpolar>
-21.6843

> <Gold.PLP.part.repulsive>
0.1927

> <Gold.PLP.ligand.clash>
0.0000

> <Gold.PLP.ligand.torsion>
0.3126

> <Gold.PLP.Chemscore.Hbond>
2.8320

> <Gold.PLP.Chemscore.CHOScore>
0.0000

> <Gold.PLP.Chemscore.Metal>
0.0000

> <Gold.Chemscore.Hbonds>
donor molecule, donor type, donor heavy atom, donor atom, acceptor molecule, acceptor atom, score
      L1  H     5    23       P1  7948  0.93
      L1  H     8    24       P1  7948  0.86
      P1  H  7989  7998       L1    14  0.90

> <Gold.PLP.Chemscore.Internal.Correction>
0.0065

> <Gold.Rescore>
     Score         DG    S(hbond)    S(metal)    S(lipo)     H(rot)  DE(clash)    DE(int)     intcor
     12.34     -14.04       1.95        0.00      52.47       1.60       0.01       1.69       ----

> <Gold.Chemscore.Fitness>
12.3399

> <Gold.Chemscore.DG>
-14.0402

> <Gold.Chemscore.ZeroCoef>
-5.4800

> <Gold.Chemscore.Hbond>
1.9526

> <Gold.Chemscore.Metal>
0.0000

> <Gold.Chemscore.Lipo>
52.4741

> <Gold.Chemscore.Internal_Hbond>
0.0000

> <Gold.Chemscore.DEClash>
0.0080

> <Gold.Chemscore.DEInternal>
1.6922

> <Gold.Chemscore.Rot>
1.6019

> <Gold.Chemscore.Internal.Correction>
   9.000000E+99

> <Gold.Chemscore.Hbonds>
donor molecule, donor type, donor heavy atom, donor atom, acceptor molecule, acceptor atom, score
      L1  H     5    23       P1  7948  0.67
      L1  H     8    24       P1  7948  0.85
      P1  H  7989  7998       L1    14  0.14

> <Gold.Chemscore.Hbond.Weighted>
-6.5216

> <Gold.Chemscore.Metal.Weighted>
-0.0000

> <Gold.Chemscore.Lipo.Weighted>
-6.1395

> <Gold.Chemscore.Internal_Hbond.Weighted>
0.0000

> <Gold.Chemscore.DEClash.Weighted>
0.0080

> <Gold.Chemscore.DEInternal.Weighted>
1.6922

> <Gold.Chemscore.Rot.Weighted>
4.1009

> <Gold.Chemscore.Internal.Correction.Weighted>
   9.000000E+99

> <Gold.Protein.RotatedTorsions>
[ 6907 6896 6895 6894 ] final  150.85 input  -60.11 | X-H torsion
[ 7974 7965 7964 7962 ] final   -8.23 input  175.53 | X-H torsion
[ 8008 7997 7996 7995 ] final -131.07 input   59.86 | X-H torsion
[ 10167 10162 10161 10158 ] final   16.36 input  -65.29 | X-H torsion
[ 10718 10713 10712 10709 ] final  -61.87 input   66.30 | X-H torsion
[ 10763 10752 10751 10750 ] final  -22.00 input  -60.55 | X-H torsion
[ 11005 11000 10999 10996 ] final   95.25 input  -57.11 | X-H torsion

> <Gold.Protein.ActiveResidues>
 VAL166  LYS551  ARG553  GLY616  TRP617  ASP618  TYR619  PRO620  LYS621  CYS622 
 ASP623  PHE694  ASN695  SER759  ASP760  ASP761  ALA762  ILE779  LEU786  VAL792 
 PHE793  MET794  SER795  GLU796  ALA797  LYS798  CYS799  TRP800  GLU811  SER814 

> <Gold.Protein.RotatedAtoms>
  152.1088  133.4289  159.4620 H   0  0  0  0  0  0  0  0  0  0  0  0  # atno 6907 bound_to 6896
  150.6866  134.2673  159.4583 H   0  0  0  0  0  0  0  0  0  0  0  0  # atno 6908 bound_to 6896
  152.0540  134.9635  160.0625 H   0  0  0  0  0  0  0  0  0  0  0  0  # atno 6909 bound_to 6896
  146.2286  140.2438  142.8344 H   0  0  0  0  0  0  0  0  0  0  0  0  # atno 7974 bound_to 7965
  155.3062  140.0455  157.3032 H   0  0  0  0  0  0  0  0  0  0  0  0  # atno 8008 bound_to 7997
  154.5458  140.2302  155.8532 H   0  0  0  0  0  0  0  0  0  0  0  0  # atno 8009 bound_to 7997
  156.1923  140.3047  155.9364 H   0  0  0  0  0  0  0  0  0  0  0  0  # atno 8010 bound_to 7997
  140.5803  143.8994  150.6784 H   0  0  0  0  0  0  0  0  0  0  0  0  # atno 10167 bound_to 10162
  156.0893  130.4203  150.1055 H   0  0  0  0  0  0  0  0  0  0  0  0  # atno 10718 bound_to 10713
  153.6450  135.6983  153.5228 H   0  0  0  0  0  0  0  0  0  0  0  0  # atno 10763 bound_to 10752
  153.2752  135.4202  155.1026 H   0  0  0  0  0  0  0  0  0  0  0  0  # atno 10764 bound_to 10752
  154.8490  135.3588  154.5994 H   0  0  0  0  0  0  0  0  0  0  0  0  # atno 10765 bound_to 10752
  139.8791  134.8889  156.3984 H   0  0  0  0  0  0  0  0  0  0  0  0  # atno 11005 bound_to 11000
  144.9464  140.8133  143.5599 LP  0  0  0  0  0  0  0  0  0  0  0  0  # atno 17320 bound_to 7965
  145.2394  139.2079  143.5001 LP  0  0  0  0  0  0  0  0  0  0  0  0  # atno 17321 bound_to 7965
  140.2491  143.3606  152.1421 LP  0  0  0  0  0  0  0  0  0  0  0  0  # atno 17342 bound_to 10162
  139.5166  144.6979  151.5577 LP  0  0  0  0  0  0  0  0  0  0  0  0  # atno 17343 bound_to 10162
  156.9069  130.9639  151.3568 LP  0  0  0  0  0  0  0  0  0  0  0  0  # atno 17370 bound_to 10713
  157.6037  130.8531  149.8841 LP  0  0  0  0  0  0  0  0  0  0  0  0  # atno 17371 bound_to 10713
  140.9284  133.7596  155.9994 LP  0  0  0  0  0  0  0  0  0  0  0  0  # atno 17394 bound_to 11000
  140.8359  134.3123  157.5332 LP  0  0  0  0  0  0  0  0  0  0  0  0  # atno 17395 bound_to 11000

$$$$
