AV-unprocessed.smi:178|AV-procd|sdf|1445|dock2
  -GOLD-   2262019233D 1   1.00000     0.00000
 Structure written by MMmdl.
 50 52  0  0  0  0  0  0  0  0  1 V2000
  152.4256  144.6202  158.3683 C   0  0  0  0  0  0  0  0  0  0  0  0
  151.9431  144.3026  159.6647 O   0  0  0  0  0  0  0  0  0  0  0  0
  151.9438  142.9119  159.9522 C   0  0  0  0  0  0  0  0  0  0  0  0
  153.3571  142.3104  159.8198 C   0  0  0  0  0  0  0  0  0  0  0  0
  153.3730  140.8576  160.0152 N   0  0  0  0  0  0  0  0  0  0  0  0
  154.1425  140.3304  161.1420 C   0  0  0  0  0  0  0  0  0  0  0  0
  154.4053  141.3780  162.2366 C   0  0  0  0  0  0  0  0  0  0  0  0
  155.2983  140.9249  163.3149 C   0  0  0  0  0  0  0  0  0  0  0  0
  156.0024  140.5713  164.1623 N   0  0  0  0  0  0  0  0  0  0  0  0
  152.7383  140.0416  159.1186 C   0  0  0  0  0  0  0  0  0  0  0  0
  152.7677  138.7010  159.3528 N   0  0  0  0  0  0  0  0  0  0  0  0
  152.1610  137.8405  158.5335 C   0  0  0  0  0  0  0  0  0  0  0  0
  151.4705  138.0961  157.4245 N   0  0  0  0  0  0  0  0  0  0  0  0
  151.4337  139.4335  157.1644 C   0  0  0  0  0  0  0  0  0  0  0  0
  152.0311  140.4665  157.9479 C   0  0  0  0  0  0  0  0  0  0  0  0
  151.7498  141.6953  157.3592 N   0  0  0  0  0  0  0  0  0  0  0  0
  151.0394  141.4083  156.3051 C   0  0  0  0  0  0  0  0  0  0  0  0
  150.8125  140.0681  156.1005 N   0  0  0  0  0  0  0  0  0  0  0  0
  150.0545  139.4513  155.0178 C   0  0  0  0  0  0  0  0  0  0  0  0
  148.9910  140.3792  154.3697 C   0  0  1  0  0  0  0  0  0  0  0  0
  149.6398  141.1911  153.4049 O   0  0  0  0  0  0  0  0  0  0  0  0
  147.8700  139.6197  153.6811 C   0  0  0  0  0  0  0  0  0  0  0  0
  146.7520  140.6560  153.5852 C   0  0  0  0  0  0  0  0  0  0  0  0
  147.0151  141.6283  154.5949 O   0  0  0  0  0  0  0  0  0  0  0  0
  148.2089  141.3179  155.3121 C   0  0  1  0  0  0  0  0  0  0  0  0
  147.7332  140.6943  156.6380 C   0  0  0  0  0  0  0  0  0  0  0  0
  152.4338  145.7024  158.2397 H   0  0  0  0  0  0  0  0  0  0  0  0
  151.7959  144.1991  157.5849 H   0  0  0  0  0  0  0  0  0  0  0  0
  153.4455  144.2604  158.2278 H   0  0  0  0  0  0  0  0  0  0  0  0
  151.5146  142.7253  160.9374 H   0  0  0  0  0  0  0  0  0  0  0  0
  151.2773  142.4331  159.2356 H   0  0  0  0  0  0  0  0  0  0  0  0
  153.7419  142.5373  158.8252 H   0  0  0  0  0  0  0  0  0  0  0  0
  154.0543  142.7825  160.5114 H   0  0  0  0  0  0  0  0  0  0  0  0
  153.5642  139.5172  161.5814 H   0  0  0  0  0  0  0  0  0  0  0  0
  155.0663  139.8547  160.8239 H   0  0  0  0  0  0  0  0  0  0  0  0
  154.8395  142.2793  161.8045 H   0  0  0  0  0  0  0  0  0  0  0  0
  153.4625  141.6759  162.6951 H   0  0  0  0  0  0  0  0  0  0  0  0
  152.2391  136.7987  158.8070 H   0  0  0  0  0  0  0  0  0  0  0  0
  150.6567  142.1816  155.6585 H   0  0  0  0  0  0  0  0  0  0  0  0
  150.7692  139.1371  154.2559 H   0  0  0  0  0  0  0  0  0  0  0  0
  149.6021  138.5310  155.3877 H   0  0  0  0  0  0  0  0  0  0  0  0
  149.4480  140.8458  152.5463 H   0  0  0  0  0  0  0  0  0  0  0  0
  148.1535  139.2083  152.7115 H   0  0  0  0  0  0  0  0  0  0  0  0
  147.5429  138.7880  154.3064 H   0  0  0  0  0  0  0  0  0  0  0  0
  146.7668  141.1516  152.6141 H   0  0  0  0  0  0  0  0  0  0  0  0
  145.7677  140.2066  153.7190 H   0  0  0  0  0  0  0  0  0  0  0  0
  148.7683  142.2291  155.5285 H   0  0  0  0  0  0  0  0  0  0  0  0
  148.5606  140.4352  157.2927 H   0  0  0  0  0  0  0  0  0  0  0  0
  147.1467  139.7906  156.4732 H   0  0  0  0  0  0  0  0  0  0  0  0
  147.1026  141.3958  157.1844 H   0  0  0  0  0  0  0  0  0  0  0  0
  1  2  1  0  0  0  0
  1 27  1  0  0  0  0
  1 28  1  0  0  0  0
  1 29  1  0  0  0  0
  2  3  1  0  0  0  0
  3  4  1  0  0  0  0
  3 30  1  0  0  0  0
  3 31  1  0  0  0  0
  4  5  1  0  0  0  0
  4 32  1  0  0  0  0
  4 33  1  0  0  0  0
  5  6  1  0  0  0  0
  5 10  1  0  0  0  0
  6  7  1  0  0  0  0
  6 34  1  0  0  0  0
  6 35  1  0  0  0  0
  7  8  1  0  0  0  0
  7 36  1  0  0  0  0
  7 37  1  0  0  0  0
  8  9  3  0  0  0  0
 10 15  1  0  0  0  0
 10 11  2  0  0  0  0
 11 12  1  0  0  0  0
 12 13  2  0  0  0  0
 12 38  1  0  0  0  0
 13 14  1  0  0  0  0
 14 18  1  0  0  0  0
 14 15  2  0  0  0  0
 15 16  1  0  0  0  0
 16 17  2  0  0  0  0
 17 18  1  0  0  0  0
 17 39  1  0  0  0  0
 18 19  1  0  0  0  0
 19 20  1  0  0  0  0
 19 40  1  0  0  0  0
 19 41  1  0  0  0  0
 20 25  1  0  0  0  0
 20 21  1  0  0  0  0
 20 22  1  0  0  0  0
 21 42  1  0  0  0  0
 22 23  1  0  0  0  0
 22 43  1  0  0  0  0
 22 44  1  0  0  0  0
 23 24  1  0  0  0  0
 23 45  1  0  0  0  0
 23 46  1  0  0  0  0
 24 25  1  0  0  0  0
 25 26  1  0  0  0  0
 25 47  1  0  0  0  0
 26 48  1  0  0  0  0
 26 49  1  0  0  0  0
 26 50  1  0  0  0  0
M  END
> <s_m_source_file>
AV-unprocessed.smi

> <i_m_source_file_index>
178

> <i_lp_mmshare_version>
43012

> <i_f3d_flags>
0

> <s_epik_input>
W0NIM11PW0NIMl1bQ0gyXU4oW0NIMl1bQ0gyXUMjTiljKG5bY0hdbjEpYyhjMTIpbltjSF1uMltDSDJdW0NAQF0zKFtPSF0pW0NIMl1bQ0gyXU9bQ0BIXTNbQ0gzXQ==

> <s_epik_cmdline>
J2VwaWtfcHl0aG9uJywgJy1waCcsICc3LjAnLCAnLXRuJywgJzgnLCAnLW1hJywgJzIwMCcsICctbWV0YWxfYmluZGluZycsICctaW1hZScsICc8aW5maWxlLm1hZT4nLCAnLW9tYWUnLCAnPG91dGZpbGUubWFlPic=

> <r_lp_tautomer_probability>
1

> <r_epik_Ionization_Penalty>
0.000885317

> <r_epik_Ionization_Penalty_Charging>
0

> <r_epik_Ionization_Penalty_Neutral>
0.000885317

> <r_epik_State_Penalty>
0.00047273

> <r_epik_Charging_Adjusted_Penalty>
0.00047273

> <i_epik_Tot_Q>
0

> <i_epik_Tot_abs_Q>
0

> <r_epik_Metal_State_Penalty>
-0

> <b_epik_Metal_Only>
0

> <s_lp_Force_Field>
OPLS_2005

> <r_lp_Energy>
33.9655

> <b_lp_Chiralities_Consistent>
1

> <s_lp_Variant>
AV-unprocessed.smi:178-1

> <Gold.Version>
5.8.1

> <Gold.Id.Protein>
6NUR|6NUR_protein|mol2

> <Gold.PLP.Fitness>
46.3897

> <Gold.PLP.PLP>
-44.2874

> <Gold.PLP.part.hbond>
-2.8438

> <Gold.PLP.part.metal>
0.0000

> <Gold.PLP.part.buried>
-0.0674

> <Gold.PLP.part.nonpolar>
-41.4854

> <Gold.PLP.part.repulsive>
0.1813

> <Gold.PLP.ligand.clash>
0.0000

> <Gold.PLP.ligand.torsion>
1.0038

> <Gold.PLP.Chemscore.Hbond>
1.1920

> <Gold.PLP.Chemscore.CHOScore>
0.0000

> <Gold.PLP.Chemscore.Metal>
0.0000

> <Gold.Chemscore.Hbonds>
donor molecule, donor type, donor heavy atom, donor atom, acceptor molecule, acceptor atom, score
      L1  H    21    42       P1  7957  1.00
      P1  H  7989  7998       L1    21  0.14

> <Gold.PLP.Chemscore.Internal.Correction>
0.5338

> <Gold.Rescore>
     Score         DG    S(hbond)    S(metal)    S(lipo)     H(rot)  DE(clash)    DE(int)     intcor
      7.42     -10.69       1.01        0.00      89.57       3.37       0.09       3.19       ----

> <Gold.Chemscore.Fitness>
7.4151

> <Gold.Chemscore.DG>
-10.6942

> <Gold.Chemscore.ZeroCoef>
-5.4800

> <Gold.Chemscore.Hbond>
1.0091

> <Gold.Chemscore.Metal>
0.0000

> <Gold.Chemscore.Lipo>
89.5658

> <Gold.Chemscore.Internal_Hbond>
0.0000

> <Gold.Chemscore.DEClash>
0.0892

> <Gold.Chemscore.DEInternal>
3.1899

> <Gold.Chemscore.Rot>
3.3732

> <Gold.Chemscore.Internal.Correction>
   9.000000E+99

> <Gold.Chemscore.Hbonds>
donor molecule, donor type, donor heavy atom, donor atom, acceptor molecule, acceptor atom, score
      L1  H    21    42       P1  7957  0.98
      P1  H  7989  7998       L1    21  0.03

> <Gold.Chemscore.Hbond.Weighted>
-3.3704

> <Gold.Chemscore.Metal.Weighted>
-0.0000

> <Gold.Chemscore.Lipo.Weighted>
-10.4792

> <Gold.Chemscore.Internal_Hbond.Weighted>
0.0000

> <Gold.Chemscore.DEClash.Weighted>
0.0892

> <Gold.Chemscore.DEInternal.Weighted>
3.1899

> <Gold.Chemscore.Rot.Weighted>
8.6354

> <Gold.Chemscore.Internal.Correction.Weighted>
   9.000000E+99

> <Gold.Protein.RotatedTorsions>
[ 6907 6896 6895 6894 ] final -129.63 input  -60.11 | X-H torsion
[ 7974 7965 7964 7962 ] final  -68.40 input  175.53 | X-H torsion
[ 8008 7997 7996 7995 ] final  114.07 input   59.86 | X-H torsion
[ 10167 10162 10161 10158 ] final  173.52 input  -65.29 | X-H torsion
[ 10718 10713 10712 10709 ] final -145.04 input   66.30 | X-H torsion
[ 10763 10752 10751 10750 ] final   29.67 input  -60.55 | X-H torsion
[ 11005 11000 10999 10996 ] final  -82.55 input  -57.11 | X-H torsion

> <Gold.Protein.ActiveResidues>
 VAL166  LYS551  ARG553  GLY616  TRP617  ASP618  TYR619  PRO620  LYS621  CYS622 
 ASP623  PHE694  ASN695  SER759  ASP760  ASP761  ALA762  ILE779  LEU786  VAL792 
 PHE793  MET794  SER795  GLU796  ALA797  LYS798  CYS799  TRP800  GLU811  SER814 

> <Gold.Protein.RotatedAtoms>
  150.9309  133.6768  159.2810 H   0  0  0  0  0  0  0  0  0  0  0  0  # atno 6907 bound_to 6896
  151.4191  135.0994  159.9618 H   0  0  0  0  0  0  0  0  0  0  0  0  # atno 6908 bound_to 6896
  152.5025  133.8764  159.7379 H   0  0  0  0  0  0  0  0  0  0  0  0  # atno 6909 bound_to 6896
  145.7170  140.9054  143.0650 H   0  0  0  0  0  0  0  0  0  0  0  0  # atno 7974 bound_to 7965
  156.2298  140.2967  156.0159 H   0  0  0  0  0  0  0  0  0  0  0  0  # atno 8008 bound_to 7997
  155.2257  140.0417  157.2972 H   0  0  0  0  0  0  0  0  0  0  0  0  # atno 8009 bound_to 7997
  154.5976  140.2418  155.7843 H   0  0  0  0  0  0  0  0  0  0  0  0  # atno 8010 bound_to 7997
  139.5111  144.3252  152.0165 H   0  0  0  0  0  0  0  0  0  0  0  0  # atno 10167 bound_to 10162
  156.3776  130.7820  151.2008 H   0  0  0  0  0  0  0  0  0  0  0  0  # atno 10718 bound_to 10713
  153.0416  135.6483  154.0926 H   0  0  0  0  0  0  0  0  0  0  0  0  # atno 10763 bound_to 10752
  154.0632  135.2886  155.3323 H   0  0  0  0  0  0  0  0  0  0  0  0  # atno 10764 bound_to 10752
  154.6644  135.5379  153.8123 H   0  0  0  0  0  0  0  0  0  0  0  0  # atno 10765 bound_to 10752
  141.1662  133.7250  156.8588 H   0  0  0  0  0  0  0  0  0  0  0  0  # atno 11005 bound_to 11000
  144.6926  139.9151  143.7465 LP  0  0  0  0  0  0  0  0  0  0  0  0  # atno 17320 bound_to 7965
  146.0660  139.3651  143.0552 LP  0  0  0  0  0  0  0  0  0  0  0  0  # atno 17321 bound_to 7965
  140.2693  144.3982  150.6157 LP  0  0  0  0  0  0  0  0  0  0  0  0  # atno 17342 bound_to 10162
  140.6100  143.2169  151.6904 LP  0  0  0  0  0  0  0  0  0  0  0  0  # atno 17343 bound_to 10162
  157.7489  131.0354  150.4360 LP  0  0  0  0  0  0  0  0  0  0  0  0  # atno 17370 bound_to 10713
  156.4598  130.4029  149.6583 LP  0  0  0  0  0  0  0  0  0  0  0  0  # atno 17371 bound_to 10713
  140.1863  134.8997  157.3008 LP  0  0  0  0  0  0  0  0  0  0  0  0  # atno 17394 bound_to 11000
  140.2339  134.3876  155.7510 LP  0  0  0  0  0  0  0  0  0  0  0  0  # atno 17395 bound_to 11000

$$$$
