AV-unprocessed.smi:1005|AV-procd|sdf|4383|dock6
  -GOLD-   22720 2303D 1   1.00000     0.00000
 Structure written by MMmdl.
 58 60  0  0  0  0  0  0  0  0  4 V2000
  152.2036  143.8918  160.8687 C   0  0  0  0  0  0  0  0  0  0  0  0
  152.1067  142.9187  159.7060 C   0  0  0  0  0  0  0  0  0  0  0  0
  151.2749  143.2530  158.6138 C   0  0  0  0  0  0  0  0  0  0  0  0
  151.2084  142.3435  157.5652 C   0  0  0  0  0  0  0  0  0  0  0  0
  150.4939  142.3831  156.3664 N   0  3  0  0  0  0  0  0  0  0  0  0
  150.7502  141.2560  155.6469 C   0  0  0  0  0  0  0  0  0  0  0  0
  151.6192  140.4956  156.3675 N   0  0  0  0  0  0  0  0  0  0  0  0
  152.2141  139.1901  156.0434 C   0  0  0  0  0  0  0  0  0  0  0  0
  151.5372  138.5055  154.8385 C   0  0  1  0  0  0  0  0  0  0  0  0
  152.4717  137.6748  154.1768 O   0  0  0  0  0  0  0  0  0  0  0  0
  150.3282  137.6482  155.2654 C   0  0  0  0  0  0  0  0  0  0  0  0
  150.6675  136.2026  155.3689 N   0  3  1  0  0  0  0  0  0  0  0  0
  150.5625  135.6591  156.7448 C   0  0  0  0  0  0  0  0  0  0  0  0
  149.0993  135.3653  157.1157 C   0  0  0  0  0  0  0  0  0  0  0  0
  148.5481  134.4622  156.1651 O   0  0  0  0  0  0  0  0  0  0  0  0
  148.5165  135.0051  154.8488 C   0  0  2  0  0  0  0  0  0  0  0  0
  147.8574  133.9653  153.9216 C   0  0  0  0  0  0  0  0  0  0  0  0
  147.4286  134.5337  152.6171 N   0  3  0  0  0  0  0  0  0  0  0  0
  146.2849  135.4609  152.7664 C   0  0  0  0  0  0  0  0  0  0  0  0
  147.1619  133.5085  151.5815 C   0  0  0  0  0  0  0  0  0  0  0  0
  149.9631  135.3208  154.4020 C   0  0  0  0  0  0  0  0  0  0  0  0
  151.9311  141.1341  157.5751 C   0  0  0  0  0  0  0  0  0  0  0  0
  152.7534  140.7890  158.6458 C   0  0  0  0  0  0  0  0  0  0  0  0
  152.8369  141.7023  159.7211 C   0  0  0  0  0  0  0  0  0  0  0  0
  153.7299  141.3539  160.8998 C   0  0  0  0  0  0  0  0  0  0  0  0
  151.5907  144.7779  160.7000 H   0  0  0  0  0  0  0  0  0  0  0  0
  153.2332  144.2218  161.0087 H   0  0  0  0  0  0  0  0  0  0  0  0
  151.8618  143.4213  161.7909 H   0  0  0  0  0  0  0  0  0  0  0  0
  150.7160  144.1773  158.5949 H   0  0  0  0  0  0  0  0  0  0  0  0
  150.3381  141.0120  154.6784 H   0  0  0  0  0  0  0  0  0  0  0  0
  153.2859  139.3110  155.8850 H   0  0  0  0  0  0  0  0  0  0  0  0
  152.1076  138.5645  156.9305 H   0  0  0  0  0  0  0  0  0  0  0  0
  151.2221  139.2785  154.1381 H   0  0  0  0  0  0  0  0  0  0  0  0
  153.3007  138.1263  154.1280 H   0  0  0  0  0  0  0  0  0  0  0  0
  149.9757  138.0130  156.2315 H   0  0  0  0  0  0  0  0  0  0  0  0
  149.4988  137.7889  154.5722 H   0  0  0  0  0  0  0  0  0  0  0  0
  151.1374  134.7331  156.7917 H   0  0  0  0  0  0  0  0  0  0  0  0
  151.0196  136.3369  157.4666 H   0  0  0  0  0  0  0  0  0  0  0  0
  149.0492  134.9086  158.1044 H   0  0  0  0  0  0  0  0  0  0  0  0
  148.5083  136.2814  157.1591 H   0  0  0  0  0  0  0  0  0  0  0  0
  147.9298  135.9232  154.8475 H   0  0  0  0  0  0  0  0  0  0  0  0
  148.5325  133.1264  153.7458 H   0  0  0  0  0  0  0  0  0  0  0  0
  146.9867  133.5548  154.4353 H   0  0  0  0  0  0  0  0  0  0  0  0
  145.4021  134.9367  153.1346 H   0  0  0  0  0  0  0  0  0  0  0  0
  146.0341  135.9232  151.8112 H   0  0  0  0  0  0  0  0  0  0  0  0
  146.5234  136.2634  153.4652 H   0  0  0  0  0  0  0  0  0  0  0  0
  146.3656  132.8323  151.8948 H   0  0  0  0  0  0  0  0  0  0  0  0
  148.0495  132.9162  151.3643 H   0  0  0  0  0  0  0  0  0  0  0  0
  146.8559  133.9798  150.6469 H   0  0  0  0  0  0  0  0  0  0  0  0
  149.9694  135.7531  153.4021 H   0  0  0  0  0  0  0  0  0  0  0  0
  150.5294  134.3910  154.3316 H   0  0  0  0  0  0  0  0  0  0  0  0
  153.3121  139.8656  158.6608 H   0  0  0  0  0  0  0  0  0  0  0  0
  154.2238  140.3925  160.7565 H   0  0  0  0  0  0  0  0  0  0  0  0
  153.1456  141.2944  161.8183 H   0  0  0  0  0  0  0  0  0  0  0  0
  154.5050  142.1094  161.0302 H   0  0  0  0  0  0  0  0  0  0  0  0
  148.1973  135.0968  152.2813 H   0  0  0  0  0  0  0  0  0  0  0  0
  151.6497  136.1571  155.1346 H   0  0  0  0  0  0  0  0  0  0  0  0
  149.8764  143.1244  156.0600 H   0  0  0  0  0  0  0  0  0  0  0  0
  1  2  1  0  0  0  0
  1 26  1  0  0  0  0
  1 27  1  0  0  0  0
  1 28  1  0  0  0  0
  2 24  1  0  0  0  0
  2  3  2  0  0  0  0
  3  4  1  0  0  0  0
  3 29  1  0  0  0  0
  4 22  2  0  0  0  0
  4  5  1  0  0  0  0
  5  6  2  0  0  0  0
  5 58  1  0  0  0  0
  6  7  1  0  0  0  0
  6 30  1  0  0  0  0
  7  8  1  0  0  0  0
  7 22  1  0  0  0  0
  8  9  1  0  0  0  0
  8 31  1  0  0  0  0
  8 32  1  0  0  0  0
  9 10  1  0  0  0  0
  9 11  1  0  0  0  0
  9 33  1  0  0  0  0
 10 34  1  0  0  0  0
 11 12  1  0  0  0  0
 11 35  1  0  0  0  0
 11 36  1  0  0  0  0
 12 21  1  0  0  0  0
 12 13  1  0  0  0  0
 12 57  1  0  0  0  0
 13 14  1  0  0  0  0
 13 37  1  0  0  0  0
 13 38  1  0  0  0  0
 14 15  1  0  0  0  0
 14 39  1  0  0  0  0
 14 40  1  0  0  0  0
 15 16  1  0  0  0  0
 16 17  1  0  0  0  0
 16 21  1  0  0  0  0
 16 41  1  0  0  0  0
 17 18  1  0  0  0  0
 17 42  1  0  0  0  0
 17 43  1  0  0  0  0
 18 19  1  0  0  0  0
 18 20  1  0  0  0  0
 18 56  1  0  0  0  0
 19 44  1  0  0  0  0
 19 45  1  0  0  0  0
 19 46  1  0  0  0  0
 20 47  1  0  0  0  0
 20 48  1  0  0  0  0
 20 49  1  0  0  0  0
 21 50  1  0  0  0  0
 21 51  1  0  0  0  0
 22 23  1  0  0  0  0
 23 24  2  0  0  0  0
 23 52  1  0  0  0  0
 24 25  1  0  0  0  0
 25 53  1  0  0  0  0
 25 54  1  0  0  0  0
 25 55  1  0  0  0  0
M  CHG  1   5   1
M  CHG  1  12   1
M  CHG  1  18   1
M  END
> <s_m_source_file>
AV-unprocessed.smi

> <i_m_source_file_index>
1005

> <i_lp_mmshare_version>
43012

> <i_f3d_flags>
0

> <s_epik_input>
W0NIM11jKFtjSF0xKWMoW0NIM10pW2NIXWMoYzEyKW4oW2NIXW4yKVtDSDJdW0NASF0oW09IXSlbQ0gyXU4zW0NIMl1bQ0gyXU9bQ0BIXShbQ0gyXTMpW0NIMl1OKFtDSDNdKVtDSDNd

> <s_epik_cmdline>
J2VwaWtfcHl0aG9uJywgJy1waCcsICc3LjAnLCAnLXRuJywgJzgnLCAnLW1hJywgJzIwMCcsICctbWV0YWxfYmluZGluZycsICctaW1hZScsICc8aW5maWxlLm1hZT4nLCAnLW9tYWUnLCAnPG91dGZpbGUubWFlPic=

> <r_epik_Ionization_Penalty>
2.30802

> <r_epik_Ionization_Penalty_Charging>
2.30798

> <r_epik_Ionization_Penalty_Neutral>
3.4851e-05

> <r_epik_State_Penalty>
2.52618

> <r_epik_Charging_Adjusted_Penalty>
4.83416

> <i_epik_Tot_Q>
3

> <i_epik_Tot_abs_Q>
3

> <r_epik_Metal_State_Penalty>
6.53149

> <b_epik_Metal_Only>
0

> <s_lp_Force_Field>
OPLS_2005

> <r_lp_Energy>
46.6994

> <b_lp_Chiralities_Consistent>
1

> <s_lp_Variant>
AV-unprocessed.smi:1005-22

> <Gold.Version>
5.8.1

> <Gold.Id.Protein>
6NUR|6NUR_protein|mol2

> <Gold.PLP.Fitness>
55.8226

> <Gold.PLP.PLP>
-45.6035

> <Gold.PLP.part.hbond>
-3.0000

> <Gold.PLP.part.metal>
0.0000

> <Gold.PLP.part.buried>
-4.0471

> <Gold.PLP.part.nonpolar>
-38.4418

> <Gold.PLP.part.repulsive>
0.1836

> <Gold.PLP.ligand.clash>
0.0000

> <Gold.PLP.ligand.torsion>
1.9628

> <Gold.PLP.Chemscore.Hbond>
4.6552

> <Gold.PLP.Chemscore.CHOScore>
0.0000

> <Gold.PLP.Chemscore.Metal>
0.0000

> <Gold.Chemscore.Hbonds>
donor molecule, donor type, donor heavy atom, donor atom, acceptor molecule, acceptor atom, score
      L1  H     5    58       P1  8028  2.00
      L1  H    18    56       P1  7948  1.27
      P1  H 10752 10765       L1    10  0.67

> <Gold.PLP.Chemscore.Internal.Correction>
0.1790

> <Gold.Rescore>
     Score         DG    S(hbond)    S(metal)    S(lipo)     H(rot)  DE(clash)    DE(int)     intcor
     18.53     -20.73       2.21        0.00     123.12       2.56       0.17       2.03       ----

> <Gold.Chemscore.Fitness>
18.5251

> <Gold.Chemscore.DG>
-20.7303

> <Gold.Chemscore.ZeroCoef>
-5.4800

> <Gold.Chemscore.Hbond>
2.2126

> <Gold.Chemscore.Metal>
0.0000

> <Gold.Chemscore.Lipo>
123.1205

> <Gold.Chemscore.Internal_Hbond>
0.0000

> <Gold.Chemscore.DEClash>
0.1748

> <Gold.Chemscore.DEInternal>
2.0303

> <Gold.Chemscore.Rot>
2.5566

> <Gold.Chemscore.Internal.Correction>
   9.000000E+99

> <Gold.Chemscore.Hbonds>
donor molecule, donor type, donor heavy atom, donor atom, acceptor molecule, acceptor atom, score
      L1  H     5    58       P1  8028  1.00
      L1  H    18    56       P1  7948  0.41
      P1  H 10752 10765       L1    10  0.21

> <Gold.Chemscore.Hbond.Weighted>
-7.3901

> <Gold.Chemscore.Metal.Weighted>
-0.0000

> <Gold.Chemscore.Lipo.Weighted>
-14.4051

> <Gold.Chemscore.Internal_Hbond.Weighted>
0.0000

> <Gold.Chemscore.DEClash.Weighted>
0.1748

> <Gold.Chemscore.DEInternal.Weighted>
2.0303

> <Gold.Chemscore.Rot.Weighted>
6.5450

> <Gold.Chemscore.Internal.Correction.Weighted>
   9.000000E+99

> <Gold.Protein.RotatedTorsions>
[ 6907 6896 6895 6894 ] final   24.34 input  -60.11 | X-H torsion
[ 7974 7965 7964 7962 ] final -131.26 input  175.53 | X-H torsion
[ 8008 7997 7996 7995 ] final -122.10 input   59.86 | X-H torsion
[ 10167 10162 10161 10158 ] final  109.90 input  -65.29 | X-H torsion
[ 10718 10713 10712 10709 ] final  -94.24 input   66.30 | X-H torsion
[ 10763 10752 10751 10750 ] final  149.26 input  -60.55 | X-H torsion
[ 11005 11000 10999 10996 ] final   53.27 input  -57.11 | X-H torsion

> <Gold.Protein.ActiveResidues>
 VAL166  LYS551  ARG553  GLY616  TRP617  ASP618  TYR619  PRO620  LYS621  CYS622 
 ASP623  PHE694  ASN695  SER759  ASP760  ASP761  ALA762  ILE779  LEU786  VAL792 
 PHE793  MET794  SER795  GLU796  ALA797  LYS798  CYS799  TRP800  GLU811  SER814 

> <Gold.Protein.RotatedAtoms>
  151.9560  135.0146  160.0544 H   0  0  0  0  0  0  0  0  0  0  0  0  # atno 6907 bound_to 6896
  152.1911  133.4769  159.5017 H   0  0  0  0  0  0  0  0  0  0  0  0  # atno 6908 bound_to 6896
  150.6935  134.1628  159.4225 H   0  0  0  0  0  0  0  0  0  0  0  0  # atno 6909 bound_to 6896
  144.9396  140.7223  143.4855 H   0  0  0  0  0  0  0  0  0  0  0  0  # atno 7974 bound_to 7965
  155.1588  140.0405  157.2838 H   0  0  0  0  0  0  0  0  0  0  0  0  # atno 8008 bound_to 7997
  154.6351  140.2533  155.7361 H   0  0  0  0  0  0  0  0  0  0  0  0  # atno 8009 bound_to 7997
  156.2504  140.2867  156.0720 H   0  0  0  0  0  0  0  0  0  0  0  0  # atno 8010 bound_to 7997
  139.6730  144.7124  151.1653 H   0  0  0  0  0  0  0  0  0  0  0  0  # atno 10167 bound_to 10162
  156.0024  130.5059  150.5897 H   0  0  0  0  0  0  0  0  0  0  0  0  # atno 10718 bound_to 10713
  154.0683  135.2868  155.3313 H   0  0  0  0  0  0  0  0  0  0  0  0  # atno 10763 bound_to 10752
  154.6763  135.5280  153.8207 H   0  0  0  0  0  0  0  0  0  0  0  0  # atno 10764 bound_to 10752
  153.0495  135.6570  154.0866 H   0  0  0  0  0  0  0  0  0  0  0  0  # atno 10765 bound_to 10752
  140.0781  134.5376  155.8975 H   0  0  0  0  0  0  0  0  0  0  0  0  # atno 11005 bound_to 11000
  145.3012  139.1850  143.4688 LP  0  0  0  0  0  0  0  0  0  0  0  0  # atno 17320 bound_to 7965
  146.3280  140.3004  142.8620 LP  0  0  0  0  0  0  0  0  0  0  0  0  # atno 17321 bound_to 7965
  140.7625  143.5815  150.8890 LP  0  0  0  0  0  0  0  0  0  0  0  0  # atno 17342 bound_to 10162
  139.9482  143.6303  152.3036 LP  0  0  0  0  0  0  0  0  0  0  0  0  # atno 17343 bound_to 10162
  157.3764  131.0774  151.1514 LP  0  0  0  0  0  0  0  0  0  0  0  0  # atno 17370 bound_to 10713
  157.2251  130.6499  149.5827 LP  0  0  0  0  0  0  0  0  0  0  0  0  # atno 17371 bound_to 10713
  141.2037  133.6633  156.6077 LP  0  0  0  0  0  0  0  0  0  0  0  0  # atno 17394 bound_to 11000
  140.3528  134.7754  157.4479 LP  0  0  0  0  0  0  0  0  0  0  0  0  # atno 17395 bound_to 11000

$$$$
