AV-unprocessed.smi:2229|AV-procd|sdf|9029|dock4
  -GOLD-   2272012233D 1   1.00000     0.00000
 Structure written by MMmdl.
 44 45  0  0  0  0  0  0  0  0  1 V2000
  151.8008  145.3364  159.3252 C   0  0  0  0  0  0  0  0  0  0  0  0
  151.6415  143.8154  159.1799 C   0  0  0  0  0  0  0  0  0  0  0  0
  152.8821  143.0906  159.7297 C   0  0  0  0  0  0  0  0  0  0  0  0
  151.3298  143.4378  157.7165 C   0  0  0  0  0  0  0  0  0  0  0  0
  151.2208  141.9221  157.4786 C   0  0  0  0  0  0  0  0  0  0  0  0
  150.9084  141.5363  156.0132 C   0  0  2  0  0  0  0  0  0  0  0  0
  149.4259  141.6509  155.6403 C   0  0  0  0  0  0  0  0  0  0  0  0
  149.2912  140.8052  154.3783 C   0  0  0  0  0  0  0  0  0  0  0  0
  150.2182  139.6120  154.6147 C   0  0  0  0  0  0  0  0  0  0  0  0
  151.3085  140.0979  155.5929 C   0  0  2  0  0  0  0  0  0  0  0  0
  151.4168  139.2166  156.7505 N   0  0  0  0  0  0  0  0  0  0  0  0
  152.5342  138.6488  157.2291 C   0  0  0  0  0  0  0  0  0  0  0  0
  153.6286  138.7582  156.6786 O   0  0  0  0  0  0  0  0  0  0  0  0
  152.4219  137.8536  158.5418 C   0  0  0  0  0  0  0  0  0  0  0  0
  153.4308  138.1997  159.5506 N   0  0  0  0  0  0  0  0  0  0  0  0
  153.6508  139.4897  159.9875 C   0  0  0  0  0  0  0  0  0  0  0  0
  154.5345  139.5369  160.9253 N   0  0  0  0  0  0  0  0  0  0  0  0
  154.8756  138.2345  161.0732 N   0  0  0  0  0  0  0  0  0  0  0  0
  154.2236  137.4013  160.2605 C   0  0  0  0  0  0  0  0  0  0  0  0
  154.3195  136.1771  160.2025 O   0  0  0  0  0  0  0  0  0  0  0  0
  155.5648  137.9803  161.7665 H   0  0  0  0  0  0  0  0  0  0  0  0
  152.6457  145.7037  158.7418 H   0  0  0  0  0  0  0  0  0  0  0  0
  151.9675  145.6172  160.3655 H   0  0  0  0  0  0  0  0  0  0  0  0
  150.9076  145.8614  158.9851 H   0  0  0  0  0  0  0  0  0  0  0  0
  150.7880  143.5214  159.7924 H   0  0  0  0  0  0  0  0  0  0  0  0
  153.7633  143.2972  159.1217 H   0  0  0  0  0  0  0  0  0  0  0  0
  152.7397  142.0106  159.7589 H   0  0  0  0  0  0  0  0  0  0  0  0
  153.1009  143.4092  160.7491 H   0  0  0  0  0  0  0  0  0  0  0  0
  150.3862  143.9054  157.4340 H   0  0  0  0  0  0  0  0  0  0  0  0
  152.0868  143.8603  157.0544 H   0  0  0  0  0  0  0  0  0  0  0  0
  152.1618  141.4527  157.7655 H   0  0  0  0  0  0  0  0  0  0  0  0
  150.4567  141.5125  158.1408 H   0  0  0  0  0  0  0  0  0  0  0  0
  151.4592  142.2179  155.3628 H   0  0  0  0  0  0  0  0  0  0  0  0
  148.8048  141.2295  156.4323 H   0  0  0  0  0  0  0  0  0  0  0  0
  149.1097  142.6818  155.4802 H   0  0  0  0  0  0  0  0  0  0  0  0
  148.2619  140.5038  154.1823 H   0  0  0  0  0  0  0  0  0  0  0  0
  149.6401  141.3763  153.5170 H   0  0  0  0  0  0  0  0  0  0  0  0
  149.6428  138.7935  155.0506 H   0  0  0  0  0  0  0  0  0  0  0  0
  150.6433  139.2411  153.6816 H   0  0  0  0  0  0  0  0  0  0  0  0
  152.2769  140.1347  155.0904 H   0  0  0  0  0  0  0  0  0  0  0  0
  150.5633  139.0590  157.2661 H   0  0  0  0  0  0  0  0  0  0  0  0
  151.4279  138.0204  158.9593 H   0  0  0  0  0  0  0  0  0  0  0  0
  152.4793  136.7884  158.3115 H   0  0  0  0  0  0  0  0  0  0  0  0
  153.0914  140.3135  159.5408 H   0  0  0  0  0  0  0  0  0  0  0  0
  1  2  1  0  0  0  0
  1 22  1  0  0  0  0
  1 23  1  0  0  0  0
  1 24  1  0  0  0  0
  2  3  1  0  0  0  0
  2  4  1  0  0  0  0
  2 25  1  0  0  0  0
  3 26  1  0  0  0  0
  3 27  1  0  0  0  0
  3 28  1  0  0  0  0
  4  5  1  0  0  0  0
  4 29  1  0  0  0  0
  4 30  1  0  0  0  0
  5  6  1  0  0  0  0
  5 31  1  0  0  0  0
  5 32  1  0  0  0  0
  6 10  1  0  0  0  0
  6  7  1  0  0  0  0
  6 33  1  0  0  0  0
  7  8  1  0  0  0  0
  7 34  1  0  0  0  0
  7 35  1  0  0  0  0
  8  9  1  0  0  0  0
  8 36  1  0  0  0  0
  8 37  1  0  0  0  0
  9 10  1  0  0  0  0
  9 38  1  0  0  0  0
  9 39  1  0  0  0  0
 10 11  1  0  0  0  0
 10 40  1  0  0  0  0
 11 12  1  0  0  0  0
 11 41  1  0  0  0  0
 12 13  2  0  0  0  0
 12 14  1  0  0  0  0
 14 15  1  0  0  0  0
 14 42  1  0  0  0  0
 14 43  1  0  0  0  0
 15 19  1  0  0  0  0
 15 16  1  0  0  0  0
 16 17  2  0  0  0  0
 16 44  1  0  0  0  0
 17 18  1  0  0  0  0
 18 21  1  0  0  0  0
 18 19  1  0  0  0  0
 19 20  2  0  0  0  0
M  END
> <s_m_source_file>
AV-unprocessed.smi

> <i_m_source_file_index>
2229

> <i_lp_mmshare_version>
43012

> <i_f3d_flags>
0

> <s_epik_input>
W0NIM11bQ0hdKFtDSDNdKVtDSDJdW0NIMl1bQ0BASF0xW0NIMl1bQ0gyXVtDSDJdW0NASF0xW05IXUMoPU8pW0NIMl1uMltjSF1uW25IXWMyPU8=

> <s_epik_cmdline>
J2VwaWtfcHl0aG9uJywgJy1waCcsICc3LjAnLCAnLXRuJywgJzgnLCAnLW1hJywgJzIwMCcsICctbWV0YWxfYmluZGluZycsICctaW1hZScsICc8aW5maWxlLm1hZT4nLCAnLW9tYWUnLCAnPG91dGZpbGUubWFlPic=

> <r_lp_tautomer_probability>
1

> <r_epik_Ionization_Penalty>
4.14174e-05

> <r_epik_Ionization_Penalty_Charging>
4.13165e-05

> <r_epik_Ionization_Penalty_Neutral>
1.00911e-07

> <r_epik_State_Penalty>
-0

> <r_epik_Charging_Adjusted_Penalty>
4.13165e-05

> <i_epik_Tot_Q>
0

> <i_epik_Tot_abs_Q>
0

> <r_epik_Metal_State_Penalty>
0.0399369

> <b_epik_Metal_Only>
0

> <s_lp_Force_Field>
OPLS_2005

> <r_lp_Energy>
36.2175

> <b_lp_Chiralities_Consistent>
1

> <s_lp_Variant>
AV-unprocessed.smi:2229-3

> <Gold.Version>
5.8.1

> <Gold.Id.Protein>
6NUR|6NUR_protein|mol2

> <Gold.PLP.Fitness>
45.1492

> <Gold.PLP.PLP>
-40.1463

> <Gold.PLP.part.hbond>
-2.0000

> <Gold.PLP.part.metal>
0.0000

> <Gold.PLP.part.buried>
-3.8207

> <Gold.PLP.part.nonpolar>
-34.8744

> <Gold.PLP.part.repulsive>
0.0500

> <Gold.PLP.ligand.clash>
0.0000

> <Gold.PLP.ligand.torsion>
0.4759

> <Gold.PLP.Chemscore.Hbond>
1.9600

> <Gold.PLP.Chemscore.CHOScore>
0.0000

> <Gold.PLP.Chemscore.Metal>
0.0000

> <Gold.Chemscore.Hbonds>
donor molecule, donor type, donor heavy atom, donor atom, acceptor molecule, acceptor atom, score
      P1  H  6896  6907       L1    20  0.06
      P1  H  7997  8010       L1    13  0.83

> <Gold.PLP.Chemscore.Internal.Correction>
0.0747

> <Gold.Rescore>
     Score         DG    S(hbond)    S(metal)    S(lipo)     H(rot)  DE(clash)    DE(int)     intcor
     15.64     -16.03       1.92        0.00      93.20       2.64       0.06       0.33       ----

> <Gold.Chemscore.Fitness>
15.6384

> <Gold.Chemscore.DG>
-16.0316

> <Gold.Chemscore.ZeroCoef>
-5.4800

> <Gold.Chemscore.Hbond>
1.9152

> <Gold.Chemscore.Metal>
0.0000

> <Gold.Chemscore.Lipo>
93.2044

> <Gold.Chemscore.Internal_Hbond>
0.0000

> <Gold.Chemscore.DEClash>
0.0634

> <Gold.Chemscore.DEInternal>
0.3298

> <Gold.Chemscore.Rot>
2.6368

> <Gold.Chemscore.Internal.Correction>
   9.000000E+99

> <Gold.Chemscore.Hbonds>
donor molecule, donor type, donor heavy atom, donor atom, acceptor molecule, acceptor atom, score
      P1  H  6896  6907       L1    20  0.11
      P1  H  7997  8010       L1    13  0.78

> <Gold.Chemscore.Hbond.Weighted>
-6.3968

> <Gold.Chemscore.Metal.Weighted>
-0.0000

> <Gold.Chemscore.Lipo.Weighted>
-10.9049

> <Gold.Chemscore.Internal_Hbond.Weighted>
0.0000

> <Gold.Chemscore.DEClash.Weighted>
0.0634

> <Gold.Chemscore.DEInternal.Weighted>
0.3298

> <Gold.Chemscore.Rot.Weighted>
6.7501

> <Gold.Chemscore.Internal.Correction.Weighted>
   9.000000E+99

> <Gold.Protein.RotatedTorsions>
[ 6907 6896 6895 6894 ] final   60.44 input  -60.11 | X-H torsion
[ 7974 7965 7964 7962 ] final  -58.12 input  175.53 | X-H torsion
[ 8008 7997 7996 7995 ] final   62.72 input   59.86 | X-H torsion
[ 10167 10162 10161 10158 ] final   77.33 input  -65.29 | X-H torsion
[ 10718 10713 10712 10709 ] final  118.45 input   66.30 | X-H torsion
[ 10763 10752 10751 10750 ] final   71.60 input  -60.55 | X-H torsion
[ 11005 11000 10999 10996 ] final   26.29 input  -57.11 | X-H torsion

> <Gold.Protein.ActiveResidues>
 VAL166  LYS551  ARG553  GLY616  TRP617  ASP618  TYR619  PRO620  LYS621  CYS622 
 ASP623  PHE694  ASN695  SER759  ASP760  ASP761  ALA762  ILE779  LEU786  VAL792 
 PHE793  MET794  SER795  GLU796  ALA797  LYS798  CYS799  TRP800  GLU811  SER814 

> <Gold.Protein.RotatedAtoms>
  152.4003  134.6298  160.0072 H   0  0  0  0  0  0  0  0  0  0  0  0  # atno 6907 bound_to 6896
  151.6505  133.3315  159.3159 H   0  0  0  0  0  0  0  0  0  0  0  0  # atno 6908 bound_to 6896
  150.7904  134.6966  159.6571 H   0  0  0  0  0  0  0  0  0  0  0  0  # atno 6909 bound_to 6896
  145.8430  140.8404  143.0025 H   0  0  0  0  0  0  0  0  0  0  0  0  # atno 7974 bound_to 7965
  155.6188  140.3495  155.4645 H   0  0  0  0  0  0  0  0  0  0  0  0  # atno 8008 bound_to 7997
  156.0096  140.1230  157.0491 H   0  0  0  0  0  0  0  0  0  0  0  0  # atno 8009 bound_to 7997
  154.4276  140.1084  156.5797 H   0  0  0  0  0  0  0  0  0  0  0  0  # atno 8010 bound_to 7997
  139.9828  144.5814  150.7886 H   0  0  0  0  0  0  0  0  0  0  0  0  # atno 10167 bound_to 10162
  157.6029  131.1048  150.7757 H   0  0  0  0  0  0  0  0  0  0  0  0  # atno 10718 bound_to 10713
  153.0408  135.5131  154.7617 H   0  0  0  0  0  0  0  0  0  0  0  0  # atno 10763 bound_to 10752
  154.6556  135.2931  154.9934 H   0  0  0  0  0  0  0  0  0  0  0  0  # atno 10764 bound_to 10752
  154.0803  135.6665  153.4889 H   0  0  0  0  0  0  0  0  0  0  0  0  # atno 10765 bound_to 10752
  140.3386  134.2358  155.7693 H   0  0  0  0  0  0  0  0  0  0  0  0  # atno 11005 bound_to 11000
  144.6732  140.0840  143.7468 LP  0  0  0  0  0  0  0  0  0  0  0  0  # atno 17320 bound_to 7965
  145.9444  139.2690  143.1250 LP  0  0  0  0  0  0  0  0  0  0  0  0  # atno 17321 bound_to 7965
  140.7483  143.2920  151.3305 LP  0  0  0  0  0  0  0  0  0  0  0  0  # atno 17342 bound_to 10162
  139.6397  144.0562  152.2545 LP  0  0  0  0  0  0  0  0  0  0  0  0  # atno 17343 bound_to 10162
  156.8152  130.4966  149.5350 LP  0  0  0  0  0  0  0  0  0  0  0  0  # atno 17370 bound_to 10713
  156.1107  130.6038  151.0043 LP  0  0  0  0  0  0  0  0  0  0  0  0  # atno 17371 bound_to 10713
  141.2044  133.7886  157.0286 LP  0  0  0  0  0  0  0  0  0  0  0  0  # atno 17394 bound_to 11000
  140.0800  134.9653  157.1609 LP  0  0  0  0  0  0  0  0  0  0  0  0  # atno 17395 bound_to 11000

$$$$
