AV-unprocessed.smi:1071|AV-procd|sdf|4679|dock1
  -GOLD-   22720 3193D 1   1.00000     0.00000
 Structure written by MMmdl.
 47 48  0  0  0  0  0  0  0  0  2 V2000
  153.6754  131.2549  159.1931 C   0  0  0  0  0  0  0  0  0  0  0  0
  153.0654  132.0327  158.1750 O   0  0  0  0  0  0  0  0  0  0  0  0
  152.7624  131.3027  156.9943 C   0  0  0  0  0  0  0  0  0  0  0  0
  151.8754  130.0837  157.2863 C   0  0  0  0  0  0  0  0  0  0  0  0
  150.5215  130.5173  157.3713 O   0  0  0  0  0  0  0  0  0  0  0  0
  149.8880  130.9302  156.2169 C   0  0  0  0  0  0  0  0  0  0  0  0
  150.4462  130.5660  154.9753 C   0  0  0  0  0  0  0  0  0  0  0  0
  149.8059  130.9814  153.7921 C   0  0  0  0  0  0  0  0  0  0  0  0
  148.6177  131.7440  153.8894 C   0  0  0  0  0  0  0  0  0  0  0  0
  147.8920  132.2395  152.7728 N   0  0  0  0  0  0  0  0  0  0  0  0
  146.9280  133.1813  152.7444 C   0  0  0  0  0  0  0  0  0  0  0  0
  146.6100  133.8380  153.7362 O   0  0  0  0  0  0  0  0  0  0  0  0
  146.4009  133.4108  151.5101 N   0  0  0  0  0  0  0  0  0  0  0  0
  146.8615  132.7681  150.2599 C   0  0  0  0  0  0  0  0  0  0  0  0
  145.6998  132.1016  149.5081 C   0  0  0  0  0  0  0  0  0  0  0  0
  144.6087  133.0672  149.2552 N   0  3  1  0  0  0  0  0  0  0  0  0
  143.5150  132.4877  148.4464 C   0  0  0  0  0  0  0  0  0  0  0  0
  144.1204  133.6891  150.5062 C   0  0  0  0  0  0  0  0  0  0  0  0
  145.2591  134.3339  151.3250 C   0  0  2  0  0  0  0  0  0  0  0  0
  145.7313  135.6832  150.7556 C   0  0  0  0  0  0  0  0  0  0  0  0
  148.1506  132.0694  155.1794 C   0  0  0  0  0  0  0  0  0  0  0  0
  148.7587  131.6740  156.3171 N   0  0  0  0  0  0  0  0  0  0  0  0
  153.8381  131.8752  160.0744 H   0  0  0  0  0  0  0  0  0  0  0  0
  154.6440  130.8643  158.8815 H   0  0  0  0  0  0  0  0  0  0  0  0
  153.0386  130.4193  159.4863 H   0  0  0  0  0  0  0  0  0  0  0  0
  152.3131  131.9468  156.2369 H   0  0  0  0  0  0  0  0  0  0  0  0
  153.7103  130.9559  156.5819 H   0  0  0  0  0  0  0  0  0  0  0  0
  151.9823  129.3548  156.4813 H   0  0  0  0  0  0  0  0  0  0  0  0
  152.1779  129.6070  158.2191 H   0  0  0  0  0  0  0  0  0  0  0  0
  151.3533  129.9816  154.9310 H   0  0  0  0  0  0  0  0  0  0  0  0
  150.2441  130.7208  152.8412 H   0  0  0  0  0  0  0  0  0  0  0  0
  148.1668  131.8616  151.8779 H   0  0  0  0  0  0  0  0  0  0  0  0
  147.3243  133.5274  149.6288 H   0  0  0  0  0  0  0  0  0  0  0  0
  147.6279  132.0076  150.4084 H   0  0  0  0  0  0  0  0  0  0  0  0
  146.0602  131.7008  148.5601 H   0  0  0  0  0  0  0  0  0  0  0  0
  145.3158  131.2588  150.0853 H   0  0  0  0  0  0  0  0  0  0  0  0
  143.0277  131.6681  148.9763 H   0  0  0  0  0  0  0  0  0  0  0  0
  143.8972  132.1037  147.4999 H   0  0  0  0  0  0  0  0  0  0  0  0
  142.7620  133.2428  148.2185 H   0  0  0  0  0  0  0  0  0  0  0  0
  143.3558  134.4330  150.2768 H   0  0  0  0  0  0  0  0  0  0  0  0
  143.6340  132.9205  151.1094 H   0  0  0  0  0  0  0  0  0  0  0  0
  144.8028  134.5747  152.2860 H   0  0  0  0  0  0  0  0  0  0  0  0
  144.9062  136.3937  150.7021 H   0  0  0  0  0  0  0  0  0  0  0  0
  146.1406  135.5803  149.7506 H   0  0  0  0  0  0  0  0  0  0  0  0
  146.5031  136.1264  151.3859 H   0  0  0  0  0  0  0  0  0  0  0  0
  147.2565  132.6626  155.3051 H   0  0  0  0  0  0  0  0  0  0  0  0
  145.0099  133.8130  148.7047 H   0  0  0  0  0  0  0  0  0  0  0  0
  1  2  1  0  0  0  0
  1 23  1  0  0  0  0
  1 24  1  0  0  0  0
  1 25  1  0  0  0  0
  2  3  1  0  0  0  0
  3  4  1  0  0  0  0
  3 26  1  0  0  0  0
  3 27  1  0  0  0  0
  4  5  1  0  0  0  0
  4 28  1  0  0  0  0
  4 29  1  0  0  0  0
  5  6  1  0  0  0  0
  6 22  1  0  0  0  0
  6  7  2  0  0  0  0
  7  8  1  0  0  0  0
  7 30  1  0  0  0  0
  8  9  2  0  0  0  0
  8 31  1  0  0  0  0
  9 10  1  0  0  0  0
  9 21  1  0  0  0  0
 10 11  1  0  0  0  0
 10 32  1  0  0  0  0
 11 12  2  0  0  0  0
 11 13  1  0  0  0  0
 13 19  1  0  0  0  0
 13 14  1  0  0  0  0
 14 15  1  0  0  0  0
 14 33  1  0  0  0  0
 14 34  1  0  0  0  0
 15 16  1  0  0  0  0
 15 35  1  0  0  0  0
 15 36  1  0  0  0  0
 16 17  1  0  0  0  0
 16 18  1  0  0  0  0
 16 47  1  0  0  0  0
 17 37  1  0  0  0  0
 17 38  1  0  0  0  0
 17 39  1  0  0  0  0
 18 19  1  0  0  0  0
 18 40  1  0  0  0  0
 18 41  1  0  0  0  0
 19 20  1  0  0  0  0
 19 42  1  0  0  0  0
 20 43  1  0  0  0  0
 20 44  1  0  0  0  0
 20 45  1  0  0  0  0
 21 22  2  0  0  0  0
 21 46  1  0  0  0  0
M  CHG  1  16   1
M  END
> <s_m_source_file>
AV-unprocessed.smi

> <i_m_source_file_index>
1071

> <i_lp_mmshare_version>
43012

> <i_f3d_flags>
0

> <s_epik_input>
W0NIM11PW0NIMl1bQ0gyXU9jMVtjSF1bY0hdYyhbY0hdbjEpW05IXUMoPU8pTjJbQ0gyXVtDSDJdTihbQ0gzXSlbQ0gyXVtDQEhdMltDSDNd

> <s_epik_cmdline>
J2VwaWtfcHl0aG9uJywgJy1waCcsICc3LjAnLCAnLXRuJywgJzgnLCAnLW1hJywgJzIwMCcsICctbWV0YWxfYmluZGluZycsICctaW1hZScsICc8aW5maWxlLm1hZT4nLCAnLW9tYWUnLCAnPG91dGZpbGUubWFlPic=

> <r_lp_tautomer_probability>
1

> <r_epik_Ionization_Penalty>
0.25455

> <r_epik_Ionization_Penalty_Charging>
0.254506

> <r_epik_Ionization_Penalty_Neutral>
4.43365e-05

> <r_epik_State_Penalty>
0.245983

> <r_epik_Charging_Adjusted_Penalty>
0.500488

> <i_epik_Tot_Q>
1

> <i_epik_Tot_abs_Q>
1

> <r_epik_Metal_State_Penalty>
0.245987

> <b_epik_Metal_Only>
0

> <s_lp_Force_Field>
OPLS_2005

> <r_lp_Energy>
58.5188

> <b_lp_Chiralities_Consistent>
1

> <s_lp_Variant>
AV-unprocessed.smi:1071-3

> <Gold.Version>
5.8.1

> <Gold.Id.Protein>
6NUR|6NUR_protein|mol2

> <Gold.PLP.Fitness>
38.8338

> <Gold.PLP.PLP>
-30.8729

> <Gold.PLP.part.hbond>
-2.8960

> <Gold.PLP.part.metal>
0.0000

> <Gold.PLP.part.buried>
-1.8682

> <Gold.PLP.part.nonpolar>
-25.7038

> <Gold.PLP.part.repulsive>
0.2431

> <Gold.PLP.ligand.clash>
0.0000

> <Gold.PLP.ligand.torsion>
0.4450

> <Gold.PLP.Chemscore.Hbond>
2.9100

> <Gold.PLP.Chemscore.CHOScore>
0.0000

> <Gold.PLP.Chemscore.Metal>
0.0000

> <Gold.Chemscore.Hbonds>
donor molecule, donor type, donor heavy atom, donor atom, acceptor molecule, acceptor atom, score
      L1  H    10    32       P1 10747  0.94
      L1  H    16    47       P1  7921  1.00
      P1  H  6896  6909       L1     2  0.90

> <Gold.PLP.Chemscore.Internal.Correction>
0.1209

> <Gold.Rescore>
     Score         DG    S(hbond)    S(metal)    S(lipo)     H(rot)  DE(clash)    DE(int)     intcor
     16.90     -19.30       2.53        0.00      81.03       1.60       0.52       1.87       ----

> <Gold.Chemscore.Fitness>
16.9022

> <Gold.Chemscore.DG>
-19.2969

> <Gold.Chemscore.ZeroCoef>
-5.4800

> <Gold.Chemscore.Hbond>
2.5280

> <Gold.Chemscore.Metal>
0.0000

> <Gold.Chemscore.Lipo>
81.0324

> <Gold.Chemscore.Internal_Hbond>
0.0000

> <Gold.Chemscore.DEClash>
0.5205

> <Gold.Chemscore.DEInternal>
1.8742

> <Gold.Chemscore.Rot>
1.6045

> <Gold.Chemscore.Internal.Correction>
   9.000000E+99

> <Gold.Chemscore.Hbonds>
donor molecule, donor type, donor heavy atom, donor atom, acceptor molecule, acceptor atom, score
      L1  H    10    32       P1 10747  0.90
      L1  H    16    47       P1  7921  0.94
      P1  H  6896  6909       L1     2  0.19

> <Gold.Chemscore.Hbond.Weighted>
-8.4437

> <Gold.Chemscore.Metal.Weighted>
-0.0000

> <Gold.Chemscore.Lipo.Weighted>
-9.4808

> <Gold.Chemscore.Internal_Hbond.Weighted>
0.0000

> <Gold.Chemscore.DEClash.Weighted>
0.5205

> <Gold.Chemscore.DEInternal.Weighted>
1.8742

> <Gold.Chemscore.Rot.Weighted>
4.1075

> <Gold.Chemscore.Internal.Correction.Weighted>
   9.000000E+99

> <Gold.Protein.RotatedTorsions>
[ 6907 6896 6895 6894 ] final  -79.91 input  -60.11 | X-H torsion
[ 7974 7965 7964 7962 ] final  129.17 input  175.53 | X-H torsion
[ 8008 7997 7996 7995 ] final  -28.93 input   59.86 | X-H torsion
[ 10167 10162 10161 10158 ] final -168.54 input  -65.29 | X-H torsion
[ 10718 10713 10712 10709 ] final    0.97 input   66.30 | X-H torsion
[ 10763 10752 10751 10750 ] final -166.64 input  -60.55 | X-H torsion
[ 11005 11000 10999 10996 ] final  -80.41 input  -57.11 | X-H torsion

> <Gold.Protein.ActiveResidues>
 VAL166  LYS551  ARG553  GLY616  TRP617  ASP618  TYR619  PRO620  LYS621  CYS622 
 ASP623  PHE694  ASN695  SER759  ASP760  ASP761  ALA762  ILE779  LEU786  VAL792 
 PHE793  MET794  SER795  GLU796  ALA797  LYS798  CYS799  TRP800  GLU811  SER814 

> <Gold.Protein.RotatedAtoms>
  150.6940  134.4050  159.5135 H   0  0  0  0  0  0  0  0  0  0  0  0  # atno 6907 bound_to 6896
  152.1818  134.8745  160.0535 H   0  0  0  0  0  0  0  0  0  0  0  0  # atno 6908 bound_to 6896
  151.9733  133.3698  159.4116 H   0  0  0  0  0  0  0  0  0  0  0  0  # atno 6909 bound_to 6896
  145.0316  139.4041  143.5147 H   0  0  0  0  0  0  0  0  0  0  0  0  # atno 7974 bound_to 7965
  154.4311  140.1832  156.1167 H   0  0  0  0  0  0  0  0  0  0  0  0  # atno 8008 bound_to 7997
  156.0175  140.3344  155.6979 H   0  0  0  0  0  0  0  0  0  0  0  0  # atno 8009 bound_to 7997
  155.6023  140.0641  157.2720 H   0  0  0  0  0  0  0  0  0  0  0  0  # atno 8010 bound_to 7997
  139.5978  144.1074  152.1709 H   0  0  0  0  0  0  0  0  0  0  0  0  # atno 10167 bound_to 10162
  156.8413  130.5522  149.5677 H   0  0  0  0  0  0  0  0  0  0  0  0  # atno 10718 bound_to 10713
  154.6812  135.2955  154.9610 H   0  0  0  0  0  0  0  0  0  0  0  0  # atno 10763 bound_to 10752
  154.0604  135.6632  153.4815 H   0  0  0  0  0  0  0  0  0  0  0  0  # atno 10764 bound_to 10752
  153.0549  135.5151  154.7857 H   0  0  0  0  0  0  0  0  0  0  0  0  # atno 10765 bound_to 10752
  141.1668  133.7149  156.8269 H   0  0  0  0  0  0  0  0  0  0  0  0  # atno 11005 bound_to 11000
  146.3499  139.9869  142.8690 LP  0  0  0  0  0  0  0  0  0  0  0  0  # atno 17320 bound_to 7965
  145.1763  140.9745  143.4292 LP  0  0  0  0  0  0  0  0  0  0  0  0  # atno 17321 bound_to 7965
  140.0663  144.5815  150.7225 LP  0  0  0  0  0  0  0  0  0  0  0  0  # atno 17342 bound_to 10162
  140.7226  143.2604  151.4228 LP  0  0  0  0  0  0  0  0  0  0  0  0  # atno 17343 bound_to 10162
  156.0879  130.5873  150.9681 LP  0  0  0  0  0  0  0  0  0  0  0  0  # atno 17370 bound_to 10713
  157.6354  131.0916  150.8358 LP  0  0  0  0  0  0  0  0  0  0  0  0  # atno 17371 bound_to 10713
  140.2079  134.8849  157.3242 LP  0  0  0  0  0  0  0  0  0  0  0  0  # atno 17394 bound_to 11000
  140.2118  134.4130  155.7609 LP  0  0  0  0  0  0  0  0  0  0  0  0  # atno 17395 bound_to 11000

$$$$
