AV-unprocessed.smi:2734|AV-procd|sdf|10539|dock1
  -GOLD-   2272014583D 1   1.00000     0.00000
 Structure written by MMmdl.
 41 43  0  0  0  0  0  0  0  0  2 V2000
  152.1603  144.6328  160.4367 C   0  0  0  0  0  0  0  0  0  0  0  0
  151.9800  143.5312  159.4061 C   0  0  0  0  0  0  0  0  0  0  0  0
  151.1200  143.7681  158.3100 C   0  0  0  0  0  0  0  0  0  0  0  0
  150.9782  142.7433  157.3820 C   0  0  0  0  0  0  0  0  0  0  0  0
  150.2208  142.6661  156.2109 N   0  3  0  0  0  0  0  0  0  0  0  0
  150.4091  141.4500  155.6273 C   0  0  0  0  0  0  0  0  0  0  0  0
  151.2753  140.7505  156.4093 N   0  0  0  0  0  0  0  0  0  0  0  0
  151.8210  139.3978  156.2377 C   0  0  0  0  0  0  0  0  0  0  0  0
  150.8499  138.4514  155.5053 C   0  0  2  0  0  0  0  0  0  0  0  0
  149.6435  138.3555  156.2388 O   0  0  0  0  0  0  0  0  0  0  0  0
  151.4456  137.0468  155.3212 C   0  0  0  0  0  0  0  0  0  0  0  0
  150.2035  135.8507  154.7411 S   0  0  0  0  0  0  0  0  0  0  0  0
  150.6458  134.4531  155.7268 C   0  0  0  0  0  0  0  0  0  0  0  0
  151.3655  134.4655  156.8430 N   0  0  0  0  0  0  0  0  0  0  0  0
  151.4248  133.1366  157.2180 N   0  0  0  0  0  0  0  0  0  0  0  0
  150.7815  132.3803  156.3769 N   0  0  0  0  0  0  0  0  0  0  0  0
  150.2799  133.2016  155.4228 N   0  0  0  0  0  0  0  0  0  0  0  0
  149.4984  132.6789  154.3198 C   0  0  0  0  0  0  0  0  0  0  0  0
  151.6558  141.5161  157.5157 C   0  0  0  0  0  0  0  0  0  0  0  0
  152.5053  141.2646  158.5900 C   0  0  0  0  0  0  0  0  0  0  0  0
  152.6623  142.2943  159.5454 C   0  0  0  0  0  0  0  0  0  0  0  0
  153.5835  142.0498  160.7285 C   0  0  0  0  0  0  0  0  0  0  0  0
  151.6177  145.5357  160.1549 H   0  0  0  0  0  0  0  0  0  0  0  0
  153.2133  144.8965  160.5376 H   0  0  0  0  0  0  0  0  0  0  0  0
  151.7885  144.3100  161.4093 H   0  0  0  0  0  0  0  0  0  0  0  0
  150.5968  144.7065  158.1981 H   0  0  0  0  0  0  0  0  0  0  0  0
  149.9589  141.1050  154.7075 H   0  0  0  0  0  0  0  0  0  0  0  0
  152.7708  139.4736  155.7069 H   0  0  0  0  0  0  0  0  0  0  0  0
  152.0515  139.0095  157.2310 H   0  0  0  0  0  0  0  0  0  0  0  0
  150.6145  138.8674  154.5251 H   0  0  0  0  0  0  0  0  0  0  0  0
  149.7301  138.8731  157.0252 H   0  0  0  0  0  0  0  0  0  0  0  0
  152.2512  137.0857  154.5871 H   0  0  0  0  0  0  0  0  0  0  0  0
  151.8801  136.6944  156.2577 H   0  0  0  0  0  0  0  0  0  0  0  0
  149.9619  132.9638  153.3751 H   0  0  0  0  0  0  0  0  0  0  0  0
  148.4891  133.0891  154.3602 H   0  0  0  0  0  0  0  0  0  0  0  0
  149.4414  131.5907  154.3717 H   0  0  0  0  0  0  0  0  0  0  0  0
  153.0264  140.3243  158.6925 H   0  0  0  0  0  0  0  0  0  0  0  0
  153.9628  141.0275  160.7338 H   0  0  0  0  0  0  0  0  0  0  0  0
  153.0558  142.2116  161.6687 H   0  0  0  0  0  0  0  0  0  0  0  0
  154.4396  142.7240  160.6903 H   0  0  0  0  0  0  0  0  0  0  0  0
  149.6216  143.3889  155.8333 H   0  0  0  0  0  0  0  0  0  0  0  0
  1  2  1  0  0  0  0
  1 23  1  0  0  0  0
  1 24  1  0  0  0  0
  1 25  1  0  0  0  0
  2 21  1  0  0  0  0
  2  3  2  0  0  0  0
  3  4  1  0  0  0  0
  3 26  1  0  0  0  0
  4 19  2  0  0  0  0
  4  5  1  0  0  0  0
  5  6  2  0  0  0  0
  5 41  1  0  0  0  0
  6  7  1  0  0  0  0
  6 27  1  0  0  0  0
  7  8  1  0  0  0  0
  7 19  1  0  0  0  0
  8  9  1  0  0  0  0
  8 28  1  0  0  0  0
  8 29  1  0  0  0  0
  9 10  1  0  0  0  0
  9 11  1  0  0  0  0
  9 30  1  0  0  0  0
 10 31  1  0  0  0  0
 11 12  1  0  0  0  0
 11 32  1  0  0  0  0
 11 33  1  0  0  0  0
 12 13  1  0  0  0  0
 13 17  1  0  0  0  0
 13 14  2  0  0  0  0
 14 15  1  0  0  0  0
 15 16  2  0  0  0  0
 16 17  1  0  0  0  0
 17 18  1  0  0  0  0
 18 34  1  0  0  0  0
 18 35  1  0  0  0  0
 18 36  1  0  0  0  0
 19 20  1  0  0  0  0
 20 21  2  0  0  0  0
 20 37  1  0  0  0  0
 21 22  1  0  0  0  0
 22 38  1  0  0  0  0
 22 39  1  0  0  0  0
 22 40  1  0  0  0  0
M  CHG  1   5   1
M  END
> <s_m_source_file>
AV-unprocessed.smi

> <i_m_source_file_index>
2734

> <i_lp_mmshare_version>
43012

> <i_f3d_flags>
0

> <s_epik_input>
W0NIM11jKFtjSF0xKWMoW0NIM10pW2NIXWMoYzEyKW4oW2NIXW4yKVtDSDJdW0NASF0oW09IXSlbQ0gyXVNjM25ubm4zW0NIM10=

> <s_epik_cmdline>
J2VwaWtfcHl0aG9uJywgJy1waCcsICc3LjAnLCAnLXRuJywgJzgnLCAnLW1hJywgJzIwMCcsICctbWV0YWxfYmluZGluZycsICctaW1hZScsICc8aW5maWxlLm1hZT4nLCAnLW9tYWUnLCAnPG91dGZpbGUubWFlPic=

> <r_lp_tautomer_probability>
1

> <r_epik_Ionization_Penalty>
1.07429

> <r_epik_Ionization_Penalty_Charging>
1.07429

> <r_epik_Ionization_Penalty_Neutral>
3.30514e-06

> <r_epik_State_Penalty>
1.12915

> <r_epik_Charging_Adjusted_Penalty>
2.20344

> <i_epik_Tot_Q>
1

> <i_epik_Tot_abs_Q>
1

> <r_epik_Metal_State_Penalty>
1.22002

> <b_epik_Metal_Only>
0

> <s_lp_Force_Field>
OPLS_2005

> <r_lp_Energy>
14.6731

> <b_lp_Chiralities_Consistent>
1

> <s_lp_Variant>
AV-unprocessed.smi:2734-3

> <Gold.Version>
5.8.1

> <Gold.Id.Protein>
6NUR|6NUR_protein|mol2

> <Gold.PLP.Fitness>
51.6386

> <Gold.PLP.PLP>
-45.2697

> <Gold.PLP.part.hbond>
-2.7517

> <Gold.PLP.part.metal>
0.0000

> <Gold.PLP.part.buried>
-4.2608

> <Gold.PLP.part.nonpolar>
-37.6865

> <Gold.PLP.part.repulsive>
0.1114

> <Gold.PLP.ligand.clash>
0.0000

> <Gold.PLP.ligand.torsion>
0.9955

> <Gold.PLP.Chemscore.Hbond>
2.7680

> <Gold.PLP.Chemscore.CHOScore>
0.0000

> <Gold.PLP.Chemscore.Metal>
0.0000

> <Gold.Chemscore.Hbonds>
donor molecule, donor type, donor heavy atom, donor atom, acceptor molecule, acceptor atom, score
      L1  H     5    41       P1  8028  1.98
      P1  H  6896  6909       L1    15  0.77

> <Gold.PLP.Chemscore.Internal.Correction>
0.0558

> <Gold.Rescore>
     Score         DG    S(hbond)    S(metal)    S(lipo)     H(rot)  DE(clash)    DE(int)     intcor
     14.82     -15.90       1.47        0.00     110.88       2.92       0.05       1.03       ----

> <Gold.Chemscore.Fitness>
14.8213

> <Gold.Chemscore.DG>
-15.9009

> <Gold.Chemscore.ZeroCoef>
-5.4800

> <Gold.Chemscore.Hbond>
1.4711

> <Gold.Chemscore.Metal>
0.0000

> <Gold.Chemscore.Lipo>
110.8829

> <Gold.Chemscore.Internal_Hbond>
0.0000

> <Gold.Chemscore.DEClash>
0.0484

> <Gold.Chemscore.DEInternal>
1.0312

> <Gold.Chemscore.Rot>
2.9164

> <Gold.Chemscore.Internal.Correction>
   9.000000E+99

> <Gold.Chemscore.Hbonds>
donor molecule, donor type, donor heavy atom, donor atom, acceptor molecule, acceptor atom, score
      L1  H     5    41       P1  8028  0.93
      P1  H  6896  6909       L1    15  0.18

> <Gold.Chemscore.Hbond.Weighted>
-4.9135

> <Gold.Chemscore.Metal.Weighted>
-0.0000

> <Gold.Chemscore.Lipo.Weighted>
-12.9733

> <Gold.Chemscore.Internal_Hbond.Weighted>
0.0000

> <Gold.Chemscore.DEClash.Weighted>
0.0484

> <Gold.Chemscore.DEInternal.Weighted>
1.0312

> <Gold.Chemscore.Rot.Weighted>
7.4660

> <Gold.Chemscore.Internal.Correction.Weighted>
   9.000000E+99

> <Gold.Protein.RotatedTorsions>
[ 6907 6896 6895 6894 ] final  -49.57 input  -60.11 | X-H torsion
[ 7974 7965 7964 7962 ] final  134.13 input  175.53 | X-H torsion
[ 8008 7997 7996 7995 ] final  147.65 input   59.86 | X-H torsion
[ 10167 10162 10161 10158 ] final -123.15 input  -65.29 | X-H torsion
[ 10718 10713 10712 10709 ] final   73.05 input   66.30 | X-H torsion
[ 10763 10752 10751 10750 ] final  -80.71 input  -60.55 | X-H torsion
[ 11005 11000 10999 10996 ] final  165.30 input  -57.11 | X-H torsion

> <Gold.Protein.ActiveResidues>
 VAL166  LYS551  ARG553  GLY616  TRP617  ASP618  TYR619  PRO620  LYS621  CYS622 
 ASP623  PHE694  ASN695  SER759  ASP760  ASP761  ALA762  ILE779  LEU786  VAL792 
 PHE793  MET794  SER795  GLU796  ALA797  LYS798  CYS799  TRP800  GLU811  SER814 

> <Gold.Protein.RotatedAtoms>
  150.8792  134.8180  159.7212 H   0  0  0  0  0  0  0  0  0  0  0  0  # atno 6907 bound_to 6896
  152.4767  134.4823  159.9679 H   0  0  0  0  0  0  0  0  0  0  0  0  # atno 6908 bound_to 6896
  151.4900  133.3488  159.2887 H   0  0  0  0  0  0  0  0  0  0  0  0  # atno 6909 bound_to 6896
  144.9794  139.4520  143.5393 H   0  0  0  0  0  0  0  0  0  0  0  0  # atno 7974 bound_to 7965
  156.2817  140.2150  156.5572 H   0  0  0  0  0  0  0  0  0  0  0  0  # atno 8008 bound_to 7997
  154.7242  140.0501  157.0690 H   0  0  0  0  0  0  0  0  0  0  0  0  # atno 8009 bound_to 7997
  155.0438  140.3148  155.4718 H   0  0  0  0  0  0  0  0  0  0  0  0  # atno 8010 bound_to 7997
  140.0066  143.5485  152.2281 H   0  0  0  0  0  0  0  0  0  0  0  0  # atno 10167 bound_to 10162
  157.6530  130.9609  150.1015 H   0  0  0  0  0  0  0  0  0  0  0  0  # atno 10718 bound_to 10713
  154.5545  135.5651  153.6952 H   0  0  0  0  0  0  0  0  0  0  0  0  # atno 10763 bound_to 10752
  152.9999  135.6259  154.2328 H   0  0  0  0  0  0  0  0  0  0  0  0  # atno 10764 bound_to 10752
  154.2264  135.2867  155.2886 H   0  0  0  0  0  0  0  0  0  0  0  0  # atno 10765 bound_to 10752
  140.2547  134.7949  157.3535 H   0  0  0  0  0  0  0  0  0  0  0  0  # atno 11005 bound_to 11000
  146.3404  139.9058  142.8787 LP  0  0  0  0  0  0  0  0  0  0  0  0  # atno 17320 bound_to 7965
  145.2442  141.0020  143.3918 LP  0  0  0  0  0  0  0  0  0  0  0  0  # atno 17321 bound_to 7965
  139.6234  144.7633  151.2691 LP  0  0  0  0  0  0  0  0  0  0  0  0  # atno 17342 bound_to 10162
  140.7398  143.6607  150.8167 LP  0  0  0  0  0  0  0  0  0  0  0  0  # atno 17343 bound_to 10162
  156.1936  130.3656  149.8877 LP  0  0  0  0  0  0  0  0  0  0  0  0  # atno 17370 bound_to 10713
  156.6799  130.8854  151.3574 LP  0  0  0  0  0  0  0  0  0  0  0  0  # atno 17371 bound_to 10713
  140.1523  134.4834  155.7952 LP  0  0  0  0  0  0  0  0  0  0  0  0  # atno 17394 bound_to 11000
  141.2197  133.6867  156.7400 LP  0  0  0  0  0  0  0  0  0  0  0  0  # atno 17395 bound_to 11000

$$$$
