AV-unprocessed.smi:1535|AV-procd|sdf|6174|dock2
  -GOLD-   22720 6323D 1   1.00000     0.00000
 Structure written by MMmdl.
 47 48  0  0  0  0  0  0  0  0  2 V2000
  152.7138  143.7254  162.0433 C   0  0  0  0  0  0  0  0  0  0  0  0
  152.2897  143.1434  160.7056 C   0  0  0  0  0  0  0  0  0  0  0  0
  152.4374  141.7542  160.4970 C   0  0  0  0  0  0  0  0  0  0  0  0
  152.0401  141.2517  159.2638 C   0  0  0  0  0  0  0  0  0  0  0  0
  152.0526  139.9477  158.7670 N   0  3  0  0  0  0  0  0  0  0  0  0
  151.5550  139.9398  157.5006 C   0  0  0  0  0  0  0  0  0  0  0  0
  151.2413  141.2235  157.1707 N   0  0  0  0  0  0  0  0  0  0  0  0
  150.6407  141.7516  155.9330 C   0  0  0  0  0  0  0  0  0  0  0  0
  149.9032  140.6728  155.1161 C   0  0  2  0  0  0  0  0  0  0  0  0
  150.8604  139.9048  154.4111 O   0  0  0  0  0  0  0  0  0  0  0  0
  148.9185  141.3037  154.1127 C   0  0  0  0  0  0  0  0  0  0  0  0
  147.5187  140.8623  154.1729 N   0  0  0  0  0  0  0  0  0  0  0  0
  147.3828  139.6147  153.4306 C   0  0  0  0  0  0  0  0  0  0  0  0
  146.5700  141.8605  153.6667 C   0  0  0  0  0  0  0  0  0  0  0  0
  146.2505  143.0073  154.6463 C   0  0  2  0  0  0  0  0  0  0  0  0
  145.7029  142.4796  155.9795 C   0  0  0  0  0  0  0  0  0  0  0  0
  145.3049  143.9571  154.0398 C   0  0  0  0  0  0  0  0  0  0  0  0
  144.5615  144.7052  153.5639 N   0  0  0  0  0  0  0  0  0  0  0  0
  151.5122  142.0768  158.2500 C   0  0  0  0  0  0  0  0  0  0  0  0
  151.3578  143.4492  158.4438 C   0  0  0  0  0  0  0  0  0  0  0  0
  151.7565  143.9798  159.6916 C   0  0  0  0  0  0  0  0  0  0  0  0
  151.6049  145.4736  159.9252 C   0  0  0  0  0  0  0  0  0  0  0  0
  153.1061  142.9549  162.7074 H   0  0  0  0  0  0  0  0  0  0  0  0
  151.8660  144.1950  162.5427 H   0  0  0  0  0  0  0  0  0  0  0  0
  153.4936  144.4747  161.9047 H   0  0  0  0  0  0  0  0  0  0  0  0
  152.8408  141.1099  161.2647 H   0  0  0  0  0  0  0  0  0  0  0  0
  151.4345  139.0703  156.8705 H   0  0  0  0  0  0  0  0  0  0  0  0
  149.9504  142.5443  156.2240 H   0  0  0  0  0  0  0  0  0  0  0  0
  151.4091  142.2121  155.3140 H   0  0  0  0  0  0  0  0  0  0  0  0
  149.3650  140.0315  155.8123 H   0  0  0  0  0  0  0  0  0  0  0  0
  150.4089  139.2242  153.9358 H   0  0  0  0  0  0  0  0  0  0  0  0
  148.9517  142.3878  154.2333 H   0  0  0  0  0  0  0  0  0  0  0  0
  149.3019  141.1120  153.1093 H   0  0  0  0  0  0  0  0  0  0  0  0
  146.3684  139.2228  153.5128 H   0  0  0  0  0  0  0  0  0  0  0  0
  148.0576  138.8530  153.8227 H   0  0  0  0  0  0  0  0  0  0  0  0
  147.6082  139.7573  152.3726 H   0  0  0  0  0  0  0  0  0  0  0  0
  146.9386  142.2681  152.7240 H   0  0  0  0  0  0  0  0  0  0  0  0
  145.6216  141.3833  153.4141 H   0  0  0  0  0  0  0  0  0  0  0  0
  147.1411  143.5912  154.8628 H   0  0  0  0  0  0  0  0  0  0  0  0
  145.4784  143.3008  156.6608 H   0  0  0  0  0  0  0  0  0  0  0  0
  146.4267  141.8306  156.4732 H   0  0  0  0  0  0  0  0  0  0  0  0
  144.7857  141.9082  155.8335 H   0  0  0  0  0  0  0  0  0  0  0  0
  150.9535  144.0960  157.6800 H   0  0  0  0  0  0  0  0  0  0  0  0
  151.1600  145.9701  159.0621 H   0  0  0  0  0  0  0  0  0  0  0  0
  152.5770  145.9318  160.1083 H   0  0  0  0  0  0  0  0  0  0  0  0
  150.9633  145.6651  160.7857 H   0  0  0  0  0  0  0  0  0  0  0  0
  152.3712  139.1211  159.2559 H   0  0  0  0  0  0  0  0  0  0  0  0
  1  2  1  0  0  0  0
  1 23  1  0  0  0  0
  1 24  1  0  0  0  0
  1 25  1  0  0  0  0
  2 21  1  0  0  0  0
  2  3  2  0  0  0  0
  3  4  1  0  0  0  0
  3 26  1  0  0  0  0
  4 19  2  0  0  0  0
  4  5  1  0  0  0  0
  5  6  2  0  0  0  0
  5 47  1  0  0  0  0
  6  7  1  0  0  0  0
  6 27  1  0  0  0  0
  7  8  1  0  0  0  0
  7 19  1  0  0  0  0
  8  9  1  0  0  0  0
  8 28  1  0  0  0  0
  8 29  1  0  0  0  0
  9 10  1  0  0  0  0
  9 11  1  0  0  0  0
  9 30  1  0  0  0  0
 10 31  1  0  0  0  0
 11 12  1  0  0  0  0
 11 32  1  0  0  0  0
 11 33  1  0  0  0  0
 12 13  1  0  0  0  0
 12 14  1  0  0  0  0
 13 34  1  0  0  0  0
 13 35  1  0  0  0  0
 13 36  1  0  0  0  0
 14 15  1  0  0  0  0
 14 37  1  0  0  0  0
 14 38  1  0  0  0  0
 15 16  1  0  0  0  0
 15 17  1  0  0  0  0
 15 39  1  0  0  0  0
 16 40  1  0  0  0  0
 16 41  1  0  0  0  0
 16 42  1  0  0  0  0
 17 18  3  0  0  0  0
 19 20  1  0  0  0  0
 20 21  2  0  0  0  0
 20 43  1  0  0  0  0
 21 22  1  0  0  0  0
 22 44  1  0  0  0  0
 22 45  1  0  0  0  0
 22 46  1  0  0  0  0
M  CHG  1   5   1
M  END
> <s_m_source_file>
AV-unprocessed.smi

> <i_m_source_file_index>
1535

> <i_lp_mmshare_version>
43012

> <i_f3d_flags>
0

> <s_epik_input>
W0NIM11jKFtjSF0xKWMoW0NIM10pW2NIXWMoYzEyKW4oW2NIXW4yKVtDSDJdW0NASF0oW09IXSlbQ0gyXU4oW0NIM10pW0NIMl1bQ0BIXShbQ0gzXSlDI04=

> <s_epik_cmdline>
J2VwaWtfcHl0aG9uJywgJy1waCcsICc3LjAnLCAnLXRuJywgJzgnLCAnLW1hJywgJzIwMCcsICctbWV0YWxfYmluZGluZycsICctaW1hZScsICc8aW5maWxlLm1hZT4nLCAnLW9tYWUnLCAnPG91dGZpbGUubWFlPic=

> <r_epik_Ionization_Penalty>
1.22846

> <r_epik_Ionization_Penalty_Charging>
1.21333

> <r_epik_Ionization_Penalty_Neutral>
0.0151341

> <r_epik_State_Penalty>
1.27012

> <r_epik_Charging_Adjusted_Penalty>
2.48344

> <i_epik_Tot_Q>
1

> <i_epik_Tot_abs_Q>
1

> <r_epik_Metal_State_Penalty>
5.28751

> <b_epik_Metal_Only>
0

> <s_lp_Force_Field>
OPLS_2005

> <r_lp_Energy>
32.9236

> <b_lp_Chiralities_Consistent>
1

> <s_lp_Variant>
AV-unprocessed.smi:1535-5

> <Gold.Version>
5.8.1

> <Gold.Id.Protein>
6NUR|6NUR_protein|mol2

> <Gold.PLP.Fitness>
50.6541

> <Gold.PLP.PLP>
-50.7332

> <Gold.PLP.part.hbond>
-1.0000

> <Gold.PLP.part.metal>
0.0000

> <Gold.PLP.part.buried>
-7.1908

> <Gold.PLP.part.nonpolar>
-42.9135

> <Gold.PLP.part.repulsive>
0.3931

> <Gold.PLP.ligand.clash>
0.0000

> <Gold.PLP.ligand.torsion>
1.6533

> <Gold.PLP.Chemscore.Hbond>
1.0000

> <Gold.PLP.Chemscore.CHOScore>
0.0000

> <Gold.PLP.Chemscore.Metal>
0.0000

> <Gold.Chemscore.Hbonds>
donor molecule, donor type, donor heavy atom, donor atom, acceptor molecule, acceptor atom, score
      P1  H  7989  7998       L1    10  1.00

> <Gold.PLP.Chemscore.Internal.Correction>
0.2276

> <Gold.Rescore>
     Score         DG    S(hbond)    S(metal)    S(lipo)     H(rot)  DE(clash)    DE(int)     intcor
     14.69     -16.40       0.90        0.00     124.24       2.59       0.02       1.69       ----

> <Gold.Chemscore.Fitness>
14.6912

> <Gold.Chemscore.DG>
-16.4010

> <Gold.Chemscore.ZeroCoef>
-5.4800

> <Gold.Chemscore.Hbond>
0.9041

> <Gold.Chemscore.Metal>
0.0000

> <Gold.Chemscore.Lipo>
124.2434

> <Gold.Chemscore.Internal_Hbond>
0.0000

> <Gold.Chemscore.DEClash>
0.0244

> <Gold.Chemscore.DEInternal>
1.6853

> <Gold.Chemscore.Rot>
2.5918

> <Gold.Chemscore.Internal.Correction>
   9.000000E+99

> <Gold.Chemscore.Hbonds>
donor molecule, donor type, donor heavy atom, donor atom, acceptor molecule, acceptor atom, score
      P1  H  7989  7998       L1    10  0.48

> <Gold.Chemscore.Hbond.Weighted>
-3.0196

> <Gold.Chemscore.Metal.Weighted>
-0.0000

> <Gold.Chemscore.Lipo.Weighted>
-14.5365

> <Gold.Chemscore.Internal_Hbond.Weighted>
0.0000

> <Gold.Chemscore.DEClash.Weighted>
0.0244

> <Gold.Chemscore.DEInternal.Weighted>
1.6853

> <Gold.Chemscore.Rot.Weighted>
6.6351

> <Gold.Chemscore.Internal.Correction.Weighted>
   9.000000E+99

> <Gold.Protein.RotatedTorsions>
[ 6907 6896 6895 6894 ] final    1.90 input  -60.11 | X-H torsion
[ 7974 7965 7964 7962 ] final   49.45 input  175.53 | X-H torsion
[ 8008 7997 7996 7995 ] final    1.40 input   59.86 | X-H torsion
[ 10167 10162 10161 10158 ] final   55.34 input  -65.29 | X-H torsion
[ 10718 10713 10712 10709 ] final  117.84 input   66.30 | X-H torsion
[ 10763 10752 10751 10750 ] final  -42.49 input  -60.55 | X-H torsion
[ 11005 11000 10999 10996 ] final  147.58 input  -57.11 | X-H torsion

> <Gold.Protein.ActiveResidues>
 VAL166  LYS551  ARG553  GLY616  TRP617  ASP618  TYR619  PRO620  LYS621  CYS622 
 ASP623  PHE694  ASN695  SER759  ASP760  ASP761  ALA762  ILE779  LEU786  VAL792 
 PHE793  MET794  SER795  GLU796  ALA797  LYS798  CYS799  TRP800  GLU811  SER814 

> <Gold.Protein.RotatedAtoms>
  151.6001  135.1048  160.0058 H   0  0  0  0  0  0  0  0  0  0  0  0  # atno 6907 bound_to 6896
  152.4262  133.7195  159.6536 H   0  0  0  0  0  0  0  0  0  0  0  0  # atno 6908 bound_to 6896
  150.8151  133.8279  159.3186 H   0  0  0  0  0  0  0  0  0  0  0  0  # atno 6909 bound_to 6896
  146.0107  139.4540  142.9958 H   0  0  0  0  0  0  0  0  0  0  0  0  # atno 7974 bound_to 7965
  154.6793  140.2629  155.6925 H   0  0  0  0  0  0  0  0  0  0  0  0  # atno 8008 bound_to 7997
  156.2690  140.2813  156.1254 H   0  0  0  0  0  0  0  0  0  0  0  0  # atno 8009 bound_to 7997
  155.1054  140.0375  157.2699 H   0  0  0  0  0  0  0  0  0  0  0  0  # atno 8010 bound_to 7997
  140.2205  144.3794  150.6453 H   0  0  0  0  0  0  0  0  0  0  0  0  # atno 10167 bound_to 10162
  157.6070  131.1041  150.7671 H   0  0  0  0  0  0  0  0  0  0  0  0  # atno 10718 bound_to 10713
  153.9799  135.6718  153.4750 H   0  0  0  0  0  0  0  0  0  0  0  0  # atno 10763 bound_to 10752
  153.0753  135.4952  154.8388 H   0  0  0  0  0  0  0  0  0  0  0  0  # atno 10764 bound_to 10752
  154.7170  135.3109  154.9069 H   0  0  0  0  0  0  0  0  0  0  0  0  # atno 10765 bound_to 10752
  140.0888  134.9053  157.1618 H   0  0  0  0  0  0  0  0  0  0  0  0  # atno 11005 bound_to 11000
  145.7346  141.0030  143.1333 LP  0  0  0  0  0  0  0  0  0  0  0  0  # atno 17320 bound_to 7965
  144.6952  139.9026  143.7459 LP  0  0  0  0  0  0  0  0  0  0  0  0  # atno 17321 bound_to 7965
  140.6259  143.2181  151.6598 LP  0  0  0  0  0  0  0  0  0  0  0  0  # atno 17342 bound_to 10162
  139.5146  144.3405  152.0744 LP  0  0  0  0  0  0  0  0  0  0  0  0  # atno 17343 bound_to 10162
  156.8057  130.4936  149.5363 LP  0  0  0  0  0  0  0  0  0  0  0  0  # atno 17370 bound_to 10713
  156.1160  130.6075  151.0120 LP  0  0  0  0  0  0  0  0  0  0  0  0  # atno 17371 bound_to 10713
  140.3382  134.2734  155.7216 LP  0  0  0  0  0  0  0  0  0  0  0  0  # atno 17394 bound_to 11000
  141.2071  133.7815  157.0138 LP  0  0  0  0  0  0  0  0  0  0  0  0  # atno 17395 bound_to 11000

$$$$
