AV-unprocessed.smi:2995|AV-procd|sdf|11408|dock1
  -GOLD-   2272016333D 1   1.00000     0.00000
 Structure written by MMmdl.
 50 52  0  0  0  0  0  0  0  0  3 V2000
  146.7397  133.7584  152.1502 C   0  0  0  0  0  0  0  0  0  0  0  0
  147.4080  132.6323  152.9199 C   0  0  0  0  0  0  0  0  0  0  0  0
  146.9056  131.3170  152.8042 C   0  0  0  0  0  0  0  0  0  0  0  0
  147.5288  130.2726  153.5142 C   0  0  0  0  0  0  0  0  0  0  0  0
  148.5983  130.5373  154.2926 N   0  3  0  0  0  0  0  0  0  0  0  0
  149.1128  131.7773  154.4356 C   0  0  0  0  0  0  0  0  0  0  0  0
  148.5265  132.8766  153.7581 C   0  0  0  0  0  0  0  0  0  0  0  0
  149.0365  134.2033  153.8514 N   0  0  0  0  0  0  0  0  0  0  0  0
  149.7639  134.7532  154.8391 C   0  0  0  0  0  0  0  0  0  0  0  0
  150.0839  134.1859  155.8833 O   0  0  0  0  0  0  0  0  0  0  0  0
  150.0872  136.0232  154.5538 N   0  0  0  0  0  0  0  0  0  0  0  0
  150.8593  136.9188  155.4123 C   0  0  2  0  0  0  0  0  0  0  0  0
  149.9680  137.4838  156.5269 C   0  0  0  0  0  0  0  0  0  0  0  0
  150.7331  138.5028  157.3887 C   0  0  0  0  0  0  0  0  0  0  0  0
  151.2921  139.6122  156.5655 N   0  3  1  0  0  0  0  0  0  0  0  0
  151.9524  140.6705  157.3849 C   0  0  0  0  0  0  0  0  0  0  0  0
  152.6905  140.1309  158.6200 C   0  0  0  0  0  0  0  0  0  0  0  0
  152.8152  141.3197  159.5800 C   0  0  0  0  0  0  0  0  0  0  0  0
  151.7445  142.3321  159.1523 C   0  0  0  0  0  0  0  0  0  0  0  0
  150.9698  141.6723  158.0086 C   0  0  0  0  0  0  0  0  0  0  0  0
  152.1726  139.0848  155.4853 C   0  0  0  0  0  0  0  0  0  0  0  0
  151.4323  138.0793  154.5875 C   0  0  0  0  0  0  0  0  0  0  0  0
  145.8919  133.3947  151.5689 H   0  0  0  0  0  0  0  0  0  0  0  0
  147.4467  134.2202  151.4605 H   0  0  0  0  0  0  0  0  0  0  0  0
  146.3736  134.5239  152.8351 H   0  0  0  0  0  0  0  0  0  0  0  0
  146.0524  131.1059  152.1762 H   0  0  0  0  0  0  0  0  0  0  0  0
  147.2105  129.2409  153.4784 H   0  0  0  0  0  0  0  0  0  0  0  0
  149.9804  131.8316  155.0755 H   0  0  0  0  0  0  0  0  0  0  0  0
  148.7749  134.8205  153.0965 H   0  0  0  0  0  0  0  0  0  0  0  0
  149.7729  136.4027  153.6725 H   0  0  0  0  0  0  0  0  0  0  0  0
  151.6924  136.3844  155.8730 H   0  0  0  0  0  0  0  0  0  0  0  0
  149.0891  137.9640  156.0937 H   0  0  0  0  0  0  0  0  0  0  0  0
  149.5988  136.6733  157.1568 H   0  0  0  0  0  0  0  0  0  0  0  0
  150.0456  138.8910  158.1393 H   0  0  0  0  0  0  0  0  0  0  0  0
  151.5419  138.0067  157.9276 H   0  0  0  0  0  0  0  0  0  0  0  0
  152.6632  141.2152  156.7604 H   0  0  0  0  0  0  0  0  0  0  0  0
  152.0988  139.3469  159.0952 H   0  0  0  0  0  0  0  0  0  0  0  0
  153.6660  139.7082  158.3776 H   0  0  0  0  0  0  0  0  0  0  0  0
  152.6832  141.0040  160.6154 H   0  0  0  0  0  0  0  0  0  0  0  0
  153.8049  141.7712  159.5016 H   0  0  0  0  0  0  0  0  0  0  0  0
  151.0864  142.6090  159.9767 H   0  0  0  0  0  0  0  0  0  0  0  0
  152.2251  143.2449  158.7974 H   0  0  0  0  0  0  0  0  0  0  0  0
  150.6040  142.4117  157.2956 H   0  0  0  0  0  0  0  0  0  0  0  0
  150.1055  141.1442  158.4144 H   0  0  0  0  0  0  0  0  0  0  0  0
  152.5343  139.8959  154.8545 H   0  0  0  0  0  0  0  0  0  0  0  0
  153.0517  138.6150  155.9298 H   0  0  0  0  0  0  0  0  0  0  0  0
  152.1136  137.6960  153.8264 H   0  0  0  0  0  0  0  0  0  0  0  0
  150.6297  138.5916  154.0547 H   0  0  0  0  0  0  0  0  0  0  0  0
  150.5074  140.0541  156.1080 H   0  0  0  0  0  0  0  0  0  0  0  0
  149.0409  129.7662  154.7931 H   0  0  0  0  0  0  0  0  0  0  0  0
  1  2  1  0  0  0  0
  1 23  1  0  0  0  0
  1 24  1  0  0  0  0
  1 25  1  0  0  0  0
  2  7  1  0  0  0  0
  2  3  2  0  0  0  0
  3  4  1  0  0  0  0
  3 26  1  0  0  0  0
  4  5  2  0  0  0  0
  4 27  1  0  0  0  0
  5  6  1  0  0  0  0
  5 50  1  0  0  0  0
  6  7  2  0  0  0  0
  6 28  1  0  0  0  0
  7  8  1  0  0  0  0
  8  9  1  0  0  0  0
  8 29  1  0  0  0  0
  9 10  2  0  0  0  0
  9 11  1  0  0  0  0
 11 12  1  0  0  0  0
 11 30  1  0  0  0  0
 12 22  1  0  0  0  0
 12 13  1  0  0  0  0
 12 31  1  0  0  0  0
 13 14  1  0  0  0  0
 13 32  1  0  0  0  0
 13 33  1  0  0  0  0
 14 15  1  0  0  0  0
 14 34  1  0  0  0  0
 14 35  1  0  0  0  0
 15 16  1  0  0  0  0
 15 21  1  0  0  0  0
 15 49  1  0  0  0  0
 16 20  1  0  0  0  0
 16 17  1  0  0  0  0
 16 36  1  0  0  0  0
 17 18  1  0  0  0  0
 17 37  1  0  0  0  0
 17 38  1  0  0  0  0
 18 19  1  0  0  0  0
 18 39  1  0  0  0  0
 18 40  1  0  0  0  0
 19 20  1  0  0  0  0
 19 41  1  0  0  0  0
 19 42  1  0  0  0  0
 20 43  1  0  0  0  0
 20 44  1  0  0  0  0
 21 22  1  0  0  0  0
 21 45  1  0  0  0  0
 21 46  1  0  0  0  0
 22 47  1  0  0  0  0
 22 48  1  0  0  0  0
M  CHG  1   5   1
M  CHG  1  15   1
M  END
> <s_m_source_file>
AV-unprocessed.smi

> <i_m_source_file_index>
2995

> <i_lp_mmshare_version>
43012

> <i_f3d_flags>
0

> <s_epik_input>
W0NIM11jMVtjSF1bY0hdbltjSF1jMVtOSF1DKD1PKVtOSF1bQ0hdMltDSDJdW0NIMl1OKFtDSDJdW0NIMl0yKVtDSF0zW0NIMl1bQ0gyXVtDSDJdW0NIMl0z

> <s_epik_cmdline>
J2VwaWtfcHl0aG9uJywgJy1waCcsICc3LjAnLCAnLXRuJywgJzgnLCAnLW1hJywgJzIwMCcsICctbWV0YWxfYmluZGluZycsICctaW1hZScsICc8aW5maWxlLm1hZT4nLCAnLW9tYWUnLCAnPG91dGZpbGUubWFlPic=

> <r_epik_Ionization_Penalty>
2.08537

> <r_epik_Ionization_Penalty_Charging>
2.08535

> <r_epik_Ionization_Penalty_Neutral>
2.13957e-05

> <r_epik_State_Penalty>
2.21824

> <r_epik_Charging_Adjusted_Penalty>
4.30358

> <i_epik_Tot_Q>
2

> <i_epik_Tot_abs_Q>
2

> <r_epik_Metal_State_Penalty>
2.23856

> <b_epik_Metal_Only>
0

> <s_lp_Force_Field>
OPLS_2005

> <r_lp_Energy>
48.7268

> <b_lp_Chiralities_Consistent>
1

> <s_lp_Variant>
AV-unprocessed.smi:2995-3

> <Gold.Version>
5.8.1

> <Gold.Id.Protein>
6NUR|6NUR_protein|mol2

> <Gold.PLP.Fitness>
40.3958

> <Gold.PLP.PLP>
-36.3375

> <Gold.PLP.part.hbond>
-2.4851

> <Gold.PLP.part.metal>
0.0000

> <Gold.PLP.part.buried>
-4.0994

> <Gold.PLP.part.nonpolar>
-30.1498

> <Gold.PLP.part.repulsive>
0.1833

> <Gold.PLP.ligand.clash>
0.0000

> <Gold.PLP.ligand.torsion>
0.9881

> <Gold.PLP.Chemscore.Hbond>
2.0000

> <Gold.PLP.Chemscore.CHOScore>
0.0000

> <Gold.PLP.Chemscore.Metal>
0.0000

> <Gold.Chemscore.Hbonds>
donor molecule, donor type, donor heavy atom, donor atom, acceptor molecule, acceptor atom, score
      L1  H     8    29       P1  7948  1.00
      L1  H    11    30       P1  7948  1.00

> <Gold.PLP.Chemscore.Internal.Correction>
0.0345

> <Gold.Rescore>
     Score         DG    S(hbond)    S(metal)    S(lipo)     H(rot)  DE(clash)    DE(int)     intcor
     15.99     -18.10       1.38        0.00      94.25       1.19       0.12       1.98       ----

> <Gold.Chemscore.Fitness>
15.9924

> <Gold.Chemscore.DG>
-18.0953

> <Gold.Chemscore.ZeroCoef>
-5.4800

> <Gold.Chemscore.Hbond>
1.3845

> <Gold.Chemscore.Metal>
0.0000

> <Gold.Chemscore.Lipo>
94.2521

> <Gold.Chemscore.Internal_Hbond>
0.0000

> <Gold.Chemscore.DEClash>
0.1247

> <Gold.Chemscore.DEInternal>
1.9781

> <Gold.Chemscore.Rot>
1.1861

> <Gold.Chemscore.Internal.Correction>
   9.000000E+99

> <Gold.Chemscore.Hbonds>
donor molecule, donor type, donor heavy atom, donor atom, acceptor molecule, acceptor atom, score
      L1  H     8    29       P1  7948  0.25
      L1  H    11    30       P1  7948  0.33

> <Gold.Chemscore.Hbond.Weighted>
-4.6242

> <Gold.Chemscore.Metal.Weighted>
-0.0000

> <Gold.Chemscore.Lipo.Weighted>
-11.0275

> <Gold.Chemscore.Internal_Hbond.Weighted>
0.0000

> <Gold.Chemscore.DEClash.Weighted>
0.1247

> <Gold.Chemscore.DEInternal.Weighted>
1.9781

> <Gold.Chemscore.Rot.Weighted>
3.0364

> <Gold.Chemscore.Internal.Correction.Weighted>
   9.000000E+99

> <Gold.Protein.RotatedTorsions>
[ 6907 6896 6895 6894 ] final -133.07 input  -60.11 | X-H torsion
[ 7974 7965 7964 7962 ] final   54.73 input  175.53 | X-H torsion
[ 8008 7997 7996 7995 ] final   15.03 input   59.86 | X-H torsion
[ 10167 10162 10161 10158 ] final  112.58 input  -65.29 | X-H torsion
[ 10718 10713 10712 10709 ] final -156.57 input   66.30 | X-H torsion
[ 10763 10752 10751 10750 ] final   20.20 input  -60.55 | X-H torsion
[ 11005 11000 10999 10996 ] final  -63.10 input  -57.11 | X-H torsion

> <Gold.Protein.ActiveResidues>
 VAL166  LYS551  ARG553  GLY616  TRP617  ASP618  TYR619  PRO620  LYS621  CYS622 
 ASP623  PHE694  ASN695  SER759  ASP760  ASP761  ALA762  ILE779  LEU786  VAL792 
 PHE793  MET794  SER795  GLU796  ALA797  LYS798  CYS799  TRP800  GLU811  SER814 

> <Gold.Protein.RotatedAtoms>
  150.9697  133.6357  159.2739 H   0  0  0  0  0  0  0  0  0  0  0  0  # atno 6907 bound_to 6896
  151.3650  135.0910  159.9456 H   0  0  0  0  0  0  0  0  0  0  0  0  # atno 6908 bound_to 6896
  152.5178  133.9263  159.7613 H   0  0  0  0  0  0  0  0  0  0  0  0  # atno 6909 bound_to 6896
  145.9578  139.4031  143.0267 H   0  0  0  0  0  0  0  0  0  0  0  0  # atno 7974 bound_to 7965
  154.8569  140.2938  155.5563 H   0  0  0  0  0  0  0  0  0  0  0  0  # atno 8008 bound_to 7997
  156.3018  140.2485  156.3469 H   0  0  0  0  0  0  0  0  0  0  0  0  # atno 8009 bound_to 7997
  154.8961  140.0393  157.1855 H   0  0  0  0  0  0  0  0  0  0  0  0  # atno 8010 bound_to 7997
  139.6525  144.7128  151.2020 H   0  0  0  0  0  0  0  0  0  0  0  0  # atno 10167 bound_to 10162
  156.5284  130.8509  151.2707 H   0  0  0  0  0  0  0  0  0  0  0  0  # atno 10718 bound_to 10713
  153.1098  135.6694  153.9521 H   0  0  0  0  0  0  0  0  0  0  0  0  # atno 10763 bound_to 10752
  153.9068  135.3029  155.3450 H   0  0  0  0  0  0  0  0  0  0  0  0  # atno 10764 bound_to 10752
  154.7518  135.5031  153.9379 H   0  0  0  0  0  0  0  0  0  0  0  0  # atno 10765 bound_to 10752
  141.1382  133.6648  156.5629 H   0  0  0  0  0  0  0  0  0  0  0  0  # atno 11005 bound_to 11000
  145.8082  140.9738  143.0963 LP  0  0  0  0  0  0  0  0  0  0  0  0  # atno 17320 bound_to 7965
  144.6808  139.9887  143.7484 LP  0  0  0  0  0  0  0  0  0  0  0  0  # atno 17321 bound_to 7965
  140.7544  143.6126  150.8591 LP  0  0  0  0  0  0  0  0  0  0  0  0  # atno 17342 bound_to 10162
  139.9775  143.5987  152.2953 LP  0  0  0  0  0  0  0  0  0  0  0  0  # atno 17343 bound_to 10162
  157.7426  130.9893  150.2527 LP  0  0  0  0  0  0  0  0  0  0  0  0  # atno 17370 bound_to 10713
  156.3083  130.3768  149.7685 LP  0  0  0  0  0  0  0  0  0  0  0  0  # atno 17371 bound_to 10713
  140.3974  134.7387  157.4759 LP  0  0  0  0  0  0  0  0  0  0  0  0  # atno 17394 bound_to 11000
  140.0521  134.6116  155.8849 LP  0  0  0  0  0  0  0  0  0  0  0  0  # atno 17395 bound_to 11000

$$$$
