AV-unprocessed.smi:3076|AV-procd|sdf|11728|dock1
  -GOLD-   2272017123D 1   1.00000     0.00000
 Structure written by MMmdl.
 20 20  0  0  0  0  0  0  0  0  1 V2000
  151.4021  144.2469  156.2074 N   0  0  0  0  0  0  0  0  0  0  0  0
  151.4259  143.4581  157.4487 C   0  0  0  0  0  0  0  0  0  0  0  0
  151.2951  144.3274  158.7114 C   0  0  1  0  0  0  0  0  0  0  0  0
  149.9223  144.5785  158.9397 O   0  0  0  0  0  0  0  0  0  0  0  0
  151.9362  143.6445  159.9091 C   0  0  0  0  0  0  0  0  0  0  0  0
  151.8787  144.2161  161.1990 C   0  0  0  0  0  0  0  0  0  0  0  0
  152.4793  143.5330  162.2739 C   0  0  0  0  0  0  0  0  0  0  0  0
  153.1133  142.3017  162.0156 C   0  0  0  0  0  0  0  0  0  0  0  0
  153.1734  141.7426  160.7881 N   0  0  0  0  0  0  0  0  0  0  0  0
  152.5946  142.4041  159.7627 C   0  0  0  0  0  0  0  0  0  0  0  0
  151.5590  143.6456  155.3999 H   0  0  0  0  0  0  0  0  0  0  0  0
  150.4912  144.6857  156.0818 H   0  0  0  0  0  0  0  0  0  0  0  0
  150.6483  142.6937  157.4306 H   0  0  0  0  0  0  0  0  0  0  0  0
  152.3747  142.9223  157.4927 H   0  0  0  0  0  0  0  0  0  0  0  0
  151.7909  145.2861  158.5510 H   0  0  0  0  0  0  0  0  0  0  0  0
  149.5913  145.1055  158.2287 H   0  0  0  0  0  0  0  0  0  0  0  0
  151.3808  145.1604  161.3646 H   0  0  0  0  0  0  0  0  0  0  0  0
  152.4530  143.9421  163.2730 H   0  0  0  0  0  0  0  0  0  0  0  0
  153.5830  141.7505  162.8167 H   0  0  0  0  0  0  0  0  0  0  0  0
  152.6585  141.9251  158.7967 H   0  0  0  0  0  0  0  0  0  0  0  0
  1  2  1  0  0  0  0
  1 11  1  0  0  0  0
  1 12  1  0  0  0  0
  2  3  1  0  0  0  0
  2 13  1  0  0  0  0
  2 14  1  0  0  0  0
  3  4  1  0  0  0  0
  3  5  1  0  0  0  0
  3 15  1  0  0  0  0
  4 16  1  0  0  0  0
  5 10  1  0  0  0  0
  5  6  2  0  0  0  0
  6  7  1  0  0  0  0
  6 17  1  0  0  0  0
  7  8  2  0  0  0  0
  7 18  1  0  0  0  0
  8  9  1  0  0  0  0
  8 19  1  0  0  0  0
  9 10  2  0  0  0  0
 10 20  1  0  0  0  0
M  END
> <s_m_source_file>
AV-unprocessed.smi

> <i_m_source_file_index>
3076

> <i_lp_mmshare_version>
43012

> <i_f3d_flags>
0

> <s_epik_input>
W05IMl1bQ0gyXVtDQEhdKFtPSF0pYzFbY0hdW2NIXVtjSF1uW2NIXTE=

> <s_epik_cmdline>
J2VwaWtfcHl0aG9uJywgJy1waCcsICc3LjAnLCAnLXRuJywgJzgnLCAnLW1hJywgJzIwMCcsICctbWV0YWxfYmluZGluZycsICctaW1hZScsICc8aW5maWxlLm1hZT4nLCAnLW9tYWUnLCAnPG91dGZpbGUubWFlPic=

> <r_epik_Ionization_Penalty>
2.22627

> <r_epik_Ionization_Penalty_Charging>
0

> <r_epik_Ionization_Penalty_Neutral>
2.22627

> <r_epik_State_Penalty>
2.36938

> <r_epik_Charging_Adjusted_Penalty>
2.36938

> <i_epik_Tot_Q>
0

> <i_epik_Tot_abs_Q>
0

> <r_epik_Metal_State_Penalty>
2.36785

> <b_epik_Metal_Only>
0

> <s_lp_Force_Field>
OPLS_2005

> <r_lp_Energy>
11.5599

> <b_lp_Chiralities_Consistent>
1

> <s_lp_Variant>
AV-unprocessed.smi:3076-4

> <Gold.Version>
5.8.1

> <Gold.Id.Protein>
6NUR|6NUR_protein|mol2

> <Gold.PLP.Fitness>
32.9218

> <Gold.PLP.PLP>
-28.2234

> <Gold.PLP.part.hbond>
-1.9206

> <Gold.PLP.part.metal>
0.0000

> <Gold.PLP.part.buried>
-3.1513

> <Gold.PLP.part.nonpolar>
-23.9034

> <Gold.PLP.part.repulsive>
0.0000

> <Gold.PLP.ligand.clash>
0.0000

> <Gold.PLP.ligand.torsion>
0.2979

> <Gold.PLP.Chemscore.Hbond>
1.7638

> <Gold.PLP.Chemscore.CHOScore>
0.0000

> <Gold.PLP.Chemscore.Metal>
0.0000

> <Gold.Chemscore.Hbonds>
donor molecule, donor type, donor heavy atom, donor atom, acceptor molecule, acceptor atom, score
      L1  H     1    12       P1  8028  1.00
      L1  H     4    16       P1  8029  0.78

> <Gold.PLP.Chemscore.Internal.Correction>
0.0029

> <Gold.Rescore>
     Score         DG    S(hbond)    S(metal)    S(lipo)     H(rot)  DE(clash)    DE(int)     intcor
     14.69     -15.16       1.47        0.00      80.98       1.85       0.05       0.42       ----

> <Gold.Chemscore.Fitness>
14.6882

> <Gold.Chemscore.DG>
-15.1562

> <Gold.Chemscore.ZeroCoef>
-5.4800

> <Gold.Chemscore.Hbond>
1.4747

> <Gold.Chemscore.Metal>
0.0000

> <Gold.Chemscore.Lipo>
80.9836

> <Gold.Chemscore.Internal_Hbond>
0.0000

> <Gold.Chemscore.DEClash>
0.0493

> <Gold.Chemscore.DEInternal>
0.4187

> <Gold.Chemscore.Rot>
1.8455

> <Gold.Chemscore.Internal.Correction>
   9.000000E+99

> <Gold.Chemscore.Hbonds>
donor molecule, donor type, donor heavy atom, donor atom, acceptor molecule, acceptor atom, score
      L1  H     1    12       P1  8028  0.98
      L1  H     4    16       P1  8029  0.29

> <Gold.Chemscore.Hbond.Weighted>
-4.9256

> <Gold.Chemscore.Metal.Weighted>
-0.0000

> <Gold.Chemscore.Lipo.Weighted>
-9.4751

> <Gold.Chemscore.Internal_Hbond.Weighted>
0.0000

> <Gold.Chemscore.DEClash.Weighted>
0.0493

> <Gold.Chemscore.DEInternal.Weighted>
0.4187

> <Gold.Chemscore.Rot.Weighted>
4.7245

> <Gold.Chemscore.Internal.Correction.Weighted>
   9.000000E+99

> <Gold.Protein.RotatedTorsions>
[ 6907 6896 6895 6894 ] final  -14.28 input  -60.11 | X-H torsion
[ 7974 7965 7964 7962 ] final   29.30 input  175.53 | X-H torsion
[ 8008 7997 7996 7995 ] final  -94.41 input   59.86 | X-H torsion
[ 10167 10162 10161 10158 ] final  -82.96 input  -65.29 | X-H torsion
[ 10718 10713 10712 10709 ] final  -47.51 input   66.30 | X-H torsion
[ 10763 10752 10751 10750 ] final  129.66 input  -60.55 | X-H torsion
[ 11005 11000 10999 10996 ] final  179.33 input  -57.11 | X-H torsion

> <Gold.Protein.ActiveResidues>
 VAL166  LYS551  ARG553  GLY616  TRP617  ASP618  TYR619  PRO620  LYS621  CYS622 
 ASP623  PHE694  ASN695  SER759  ASP760  ASP761  ALA762  ILE779  LEU786  VAL792 
 PHE793  MET794  SER795  GLU796  ALA797  LYS798  CYS799  TRP800  GLU811  SER814 

> <Gold.Protein.RotatedAtoms>
  151.3418  135.0865  159.9373 H   0  0  0  0  0  0  0  0  0  0  0  0  # atno 6907 bound_to 6896
  152.5209  133.9440  159.7650 H   0  0  0  0  0  0  0  0  0  0  0  0  # atno 6908 bound_to 6896
  150.9798  133.6204  159.2754 H   0  0  0  0  0  0  0  0  0  0  0  0  # atno 6909 bound_to 6896
  146.1679  139.6940  142.8988 H   0  0  0  0  0  0  0  0  0  0  0  0  # atno 7974 bound_to 7965
  154.7481  140.0489  157.0870 H   0  0  0  0  0  0  0  0  0  0  0  0  # atno 8008 bound_to 7997
  155.0092  140.3134  155.4817 H   0  0  0  0  0  0  0  0  0  0  0  0  # atno 8009 bound_to 7997
  156.2879  140.2187  156.5205 H   0  0  0  0  0  0  0  0  0  0  0  0  # atno 8010 bound_to 7997
  140.4271  143.2562  151.8810 H   0  0  0  0  0  0  0  0  0  0  0  0  # atno 10167 bound_to 10162
  156.2077  130.4159  149.9156 H   0  0  0  0  0  0  0  0  0  0  0  0  # atno 10718 bound_to 10713
  153.7455  135.3218  155.3312 H   0  0  0  0  0  0  0  0  0  0  0  0  # atno 10763 bound_to 10752
  154.8281  135.4555  154.0984 H   0  0  0  0  0  0  0  0  0  0  0  0  # atno 10764 bound_to 10752
  153.2171  135.6943  153.8126 H   0  0  0  0  0  0  0  0  0  0  0  0  # atno 10765 bound_to 10752
  140.4050  134.6743  157.4583 H   0  0  0  0  0  0  0  0  0  0  0  0  # atno 11005 bound_to 11000
  145.4418  141.0423  143.2853 LP  0  0  0  0  0  0  0  0  0  0  0  0  # atno 17320 bound_to 7965
  144.8120  139.5945  143.7025 LP  0  0  0  0  0  0  0  0  0  0  0  0  # atno 17321 bound_to 7965
  139.4784  144.5375  151.8577 LP  0  0  0  0  0  0  0  0  0  0  0  0  # atno 17342 bound_to 10162
  140.4469  144.1909  150.5894 LP  0  0  0  0  0  0  0  0  0  0  0  0  # atno 17343 bound_to 10162
  156.6845  130.8871  151.3580 LP  0  0  0  0  0  0  0  0  0  0  0  0  # atno 17370 bound_to 10713
  157.7021  130.9345  150.0818 LP  0  0  0  0  0  0  0  0  0  0  0  0  # atno 17371 bound_to 10713
  140.0309  134.6408  155.9108 LP  0  0  0  0  0  0  0  0  0  0  0  0  # atno 17394 bound_to 11000
  141.1842  133.6552  156.5149 LP  0  0  0  0  0  0  0  0  0  0  0  0  # atno 17395 bound_to 11000

$$$$
