AV-unprocessed.smi:249|AV-procd|sdf|1900|dock2
  -GOLD-   2262020573D 1   1.00000     0.00000
 Structure written by MMmdl.
 64 67  0  0  0  0  0  0  0  0  2 V2000
  146.7886  128.9875  152.2795 C   0  0  0  0  0  0  0  0  0  0  0  0
  145.8726  130.0567  151.6619 C   0  0  0  0  0  0  0  0  0  0  0  0
  146.5260  131.3893  151.5098 N   0  3  2  0  0  0  0  0  0  0  0  0
  146.9101  131.9708  152.8287 C   0  0  0  0  0  0  0  0  0  0  0  0
  147.6523  133.3091  152.6830 C   0  0  0  0  0  0  0  0  0  0  0  0
  146.8072  134.3442  151.9137 C   0  0  2  0  0  0  0  0  0  0  0  0
  145.6039  134.7815  152.6406 N   0  0  0  0  0  0  0  0  0  0  0  0
  144.4658  135.2276  151.8424 C   0  0  0  0  0  0  0  0  0  0  0  0
  145.8352  135.6470  153.6532 C   0  0  0  0  0  0  0  0  0  0  0  0
  145.6231  135.2003  154.9153 N   0  0  0  0  0  0  0  0  0  0  0  0
  145.8408  136.0126  155.9544 C   0  0  0  0  0  0  0  0  0  0  0  0
  146.2594  137.2803  155.9504 N   0  0  0  0  0  0  0  0  0  0  0  0
  146.4680  137.7317  154.6803 C   0  0  0  0  0  0  0  0  0  0  0  0
  146.2830  136.9871  153.4822 C   0  0  0  0  0  0  0  0  0  0  0  0
  146.5936  137.7733  152.3795 N   0  0  0  0  0  0  0  0  0  0  0  0
  146.9386  138.9212  152.8964 C   0  0  0  0  0  0  0  0  0  0  0  0
  146.8975  138.9820  154.2709 N   0  0  0  0  0  0  0  0  0  0  0  0
  147.2262  140.1320  155.0954 C   0  0  0  0  0  0  0  0  0  0  0  0
  148.7068  140.5691  154.9717 C   0  0  2  0  0  0  0  0  0  0  0  0
  149.6767  139.3676  154.8594 C   0  0  0  0  0  0  0  0  0  0  0  0
  150.4808  139.4592  153.7012 O   0  0  0  0  0  0  0  0  0  0  0  0
  149.1118  141.5457  156.1051 C   0  0  2  0  0  0  0  0  0  0  0  0
  150.5834  141.9200  156.1306 C   0  0  0  0  0  0  0  0  0  0  0  0
  150.7496  142.4603  157.5457 C   0  0  0  0  0  0  0  0  0  0  0  0
  149.8656  141.6893  158.3503 O   0  0  0  0  0  0  0  0  0  0  0  0
  148.9393  140.9903  157.5236 C   0  0  0  0  0  0  0  0  0  0  0  0
  146.4750  133.7080  150.5512 C   0  0  0  0  0  0  0  0  0  0  0  0
  145.7331  132.3574  150.6829 C   0  0  1  0  0  0  0  0  0  0  0  0
  145.4212  131.8302  149.2667 C   0  0  0  0  0  0  0  0  0  0  0  0
  146.3209  128.0046  152.2144 H   0  0  0  0  0  0  0  0  0  0  0  0
  146.9871  129.1703  153.3351 H   0  0  0  0  0  0  0  0  0  0  0  0
  147.7429  128.9319  151.7550 H   0  0  0  0  0  0  0  0  0  0  0  0
  145.5785  129.6677  150.6899 H   0  0  0  0  0  0  0  0  0  0  0  0
  144.9574  130.1561  152.2472 H   0  0  0  0  0  0  0  0  0  0  0  0
  146.0183  132.0961  153.4443 H   0  0  0  0  0  0  0  0  0  0  0  0
  147.5681  131.2914  153.3677 H   0  0  0  0  0  0  0  0  0  0  0  0
  147.9499  133.6828  153.6631 H   0  0  0  0  0  0  0  0  0  0  0  0
  148.5862  133.1387  152.1457 H   0  0  0  0  0  0  0  0  0  0  0  0
  147.4216  135.2271  151.7335 H   0  0  0  0  0  0  0  0  0  0  0  0
  143.7443  135.7912  152.4367 H   0  0  0  0  0  0  0  0  0  0  0  0
  143.9390  134.3692  151.4254 H   0  0  0  0  0  0  0  0  0  0  0  0
  144.7951  135.8612  151.0179 H   0  0  0  0  0  0  0  0  0  0  0  0
  145.6515  135.5874  156.9290 H   0  0  0  0  0  0  0  0  0  0  0  0
  147.2369  139.7613  152.2860 H   0  0  0  0  0  0  0  0  0  0  0  0
  146.5609  140.9435  154.8002 H   0  0  0  0  0  0  0  0  0  0  0  0
  146.9851  139.9005  156.1335 H   0  0  0  0  0  0  0  0  0  0  0  0
  148.7928  141.1184  154.0330 H   0  0  0  0  0  0  0  0  0  0  0  0
  150.3263  139.3041  155.7325 H   0  0  0  0  0  0  0  0  0  0  0  0
  149.1268  138.4273  154.8273 H   0  0  0  0  0  0  0  0  0  0  0  0
  149.9173  139.4657  152.9428 H   0  0  0  0  0  0  0  0  0  0  0  0
  148.5303  142.4654  156.0207 H   0  0  0  0  0  0  0  0  0  0  0  0
  151.2065  141.0353  155.9918 H   0  0  0  0  0  0  0  0  0  0  0  0
  150.8554  142.6544  155.3720 H   0  0  0  0  0  0  0  0  0  0  0  0
  151.7777  142.3941  157.9019 H   0  0  0  0  0  0  0  0  0  0  0  0
  150.4403  143.5051  157.5921 H   0  0  0  0  0  0  0  0  0  0  0  0
  147.9205  141.1081  157.8939 H   0  0  0  0  0  0  0  0  0  0  0  0
  149.1892  139.9290  157.5586 H   0  0  0  0  0  0  0  0  0  0  0  0
  145.8987  134.4010  149.9380 H   0  0  0  0  0  0  0  0  0  0  0  0
  147.4045  133.5493  150.0021 H   0  0  0  0  0  0  0  0  0  0  0  0
  144.7833  132.5336  151.1908 H   0  0  0  0  0  0  0  0  0  0  0  0
  144.9854  132.6147  148.6472 H   0  0  0  0  0  0  0  0  0  0  0  0
  144.6945  131.0188  149.2741 H   0  0  0  0  0  0  0  0  0  0  0  0
  146.3230  131.4802  148.7631 H   0  0  0  0  0  0  0  0  0  0  0  0
  147.3861  131.2298  151.0049 H   0  0  0  0  0  0  0  0  0  0  0  0
  1  2  1  0  0  0  0
  1 30  1  0  0  0  0
  1 31  1  0  0  0  0
  1 32  1  0  0  0  0
  2  3  1  0  0  0  0
  2 33  1  0  0  0  0
  2 34  1  0  0  0  0
  3 28  1  0  0  0  0
  3  4  1  0  0  0  0
  3 64  1  0  0  0  0
  4  5  1  0  0  0  0
  4 35  1  0  0  0  0
  4 36  1  0  0  0  0
  5  6  1  0  0  0  0
  5 37  1  0  0  0  0
  5 38  1  0  0  0  0
  6  7  1  0  0  0  0
  6 27  1  0  0  0  0
  6 39  1  0  0  0  0
  7  8  1  0  0  0  0
  7  9  1  0  0  0  0
  8 40  1  0  0  0  0
  8 41  1  0  0  0  0
  8 42  1  0  0  0  0
  9 14  1  0  0  0  0
  9 10  2  0  0  0  0
 10 11  1  0  0  0  0
 11 12  2  0  0  0  0
 11 43  1  0  0  0  0
 12 13  1  0  0  0  0
 13 17  1  0  0  0  0
 13 14  2  0  0  0  0
 14 15  1  0  0  0  0
 15 16  2  0  0  0  0
 16 17  1  0  0  0  0
 16 44  1  0  0  0  0
 17 18  1  0  0  0  0
 18 19  1  0  0  0  0
 18 45  1  0  0  0  0
 18 46  1  0  0  0  0
 19 20  1  0  0  0  0
 19 22  1  0  0  0  0
 19 47  1  0  0  0  0
 20 21  1  0  0  0  0
 20 48  1  0  0  0  0
 20 49  1  0  0  0  0
 21 50  1  0  0  0  0
 22 26  1  0  0  0  0
 22 23  1  0  0  0  0
 22 51  1  0  0  0  0
 23 24  1  0  0  0  0
 23 52  1  0  0  0  0
 23 53  1  0  0  0  0
 24 25  1  0  0  0  0
 24 54  1  0  0  0  0
 24 55  1  0  0  0  0
 25 26  1  0  0  0  0
 26 56  1  0  0  0  0
 26 57  1  0  0  0  0
 27 28  1  0  0  0  0
 27 58  1  0  0  0  0
 27 59  1  0  0  0  0
 28 29  1  0  0  0  0
 28 60  1  0  0  0  0
 29 61  1  0  0  0  0
 29 62  1  0  0  0  0
 29 63  1  0  0  0  0
M  CHG  1   3   1
M  END
> <s_m_source_file>
AV-unprocessed.smi

> <i_m_source_file_index>
249

> <i_lp_mmshare_version>
43012

> <i_f3d_flags>
0

> <s_epik_input>
W0NIM11bQ0gyXU4xW0NIMl1bQ0gyXVtDQEhdKFtDSDJdW0NASF0xW0NIM10pTihbQ0gzXSljKG5bY0hdbjIpYyhjMjMpbltjSF1uM1tDSDJdW0NASF0oW0NIMl1bT0hdKVtDQEBIXTRbQ0gyXVtDSDJdT1tDSDJdNA==

> <s_epik_cmdline>
J2VwaWtfcHl0aG9uJywgJy1waCcsICc3LjAnLCAnLXRuJywgJzgnLCAnLW1hJywgJzIwMCcsICctbWV0YWxfYmluZGluZycsICctaW1hZScsICc8aW5maWxlLm1hZT4nLCAnLW9tYWUnLCAnPG91dGZpbGUubWFlPic=

> <r_lp_tautomer_probability>
1

> <r_epik_Ionization_Penalty>
0.00294688

> <r_epik_Ionization_Penalty_Charging>
0.00169971

> <r_epik_Ionization_Penalty_Neutral>
0.00124717

> <r_epik_State_Penalty>
-0

> <r_epik_Charging_Adjusted_Penalty>
0.00169971

> <i_epik_Tot_Q>
1

> <i_epik_Tot_abs_Q>
1

> <r_epik_Metal_State_Penalty>
-0

> <b_epik_Metal_Only>
0

> <s_lp_Force_Field>
OPLS_2005

> <r_lp_Energy>
57.7525

> <b_lp_Chiralities_Consistent>
1

> <s_lp_Variant>
AV-unprocessed.smi:249-3

> <Gold.Version>
5.8.1

> <Gold.Id.Protein>
6NUR|6NUR_protein|mol2

> <Gold.PLP.Fitness>
44.3290

> <Gold.PLP.PLP>
-34.3636

> <Gold.PLP.part.hbond>
-3.0000

> <Gold.PLP.part.metal>
0.0000

> <Gold.PLP.part.buried>
-2.4783

> <Gold.PLP.part.nonpolar>
-31.2724

> <Gold.PLP.part.repulsive>
2.4256

> <Gold.PLP.ligand.clash>
0.0000

> <Gold.PLP.ligand.torsion>
1.5635

> <Gold.PLP.Chemscore.Hbond>
3.0000

> <Gold.PLP.Chemscore.CHOScore>
0.9865

> <Gold.PLP.Chemscore.Metal>
0.0000

> <Gold.Chemscore.Hbonds>
donor molecule, donor type, donor heavy atom, donor atom, acceptor molecule, acceptor atom, score
      L1  H     3    64       P1 10747  1.00
      L1  H    21    50       P1  7957  0.96
      P1  H  7989  7998       L1    21  0.96
      L1  C    16    44       P1  7957  0.72

> <Gold.PLP.Chemscore.Internal.Correction>
1.1327

> <Gold.Rescore>
     Score         DG    S(hbond)    S(metal)    S(lipo)     H(rot)  DE(clash)    DE(int)     intcor
     14.55     -19.63       2.54        0.00     111.91       2.90       3.56       1.52       ----

> <Gold.Chemscore.Fitness>
14.5487

> <Gold.Chemscore.DG>
-19.6320

> <Gold.Chemscore.ZeroCoef>
-5.4800

> <Gold.Chemscore.Hbond>
2.5400

> <Gold.Chemscore.Metal>
0.0000

> <Gold.Chemscore.Lipo>
111.9148

> <Gold.Chemscore.Internal_Hbond>
0.0000

> <Gold.Chemscore.DEClash>
3.5628

> <Gold.Chemscore.DEInternal>
1.5206

> <Gold.Chemscore.Rot>
2.9006

> <Gold.Chemscore.Internal.Correction>
   9.000000E+99

> <Gold.Chemscore.Hbonds>
donor molecule, donor type, donor heavy atom, donor atom, acceptor molecule, acceptor atom, score
      L1  H     3    64       P1 10747  1.00
      L1  H    21    50       P1  7957  0.91
      P1  H  7989  7998       L1    21  0.45

> <Gold.Chemscore.Hbond.Weighted>
-8.4836

> <Gold.Chemscore.Metal.Weighted>
-0.0000

> <Gold.Chemscore.Lipo.Weighted>
-13.0940

> <Gold.Chemscore.Internal_Hbond.Weighted>
0.0000

> <Gold.Chemscore.DEClash.Weighted>
3.5628

> <Gold.Chemscore.DEInternal.Weighted>
1.5206

> <Gold.Chemscore.Rot.Weighted>
7.4256

> <Gold.Chemscore.Internal.Correction.Weighted>
   9.000000E+99

> <Gold.Protein.RotatedTorsions>
[ 6907 6896 6895 6894 ] final  -18.61 input  -60.11 | X-H torsion
[ 7974 7965 7964 7962 ] final   58.14 input  175.53 | X-H torsion
[ 8008 7997 7996 7995 ] final  169.76 input   59.86 | X-H torsion
[ 10167 10162 10161 10158 ] final -115.97 input  -65.29 | X-H torsion
[ 10718 10713 10712 10709 ] final  -12.23 input   66.30 | X-H torsion
[ 10763 10752 10751 10750 ] final -111.38 input  -60.55 | X-H torsion
[ 11005 11000 10999 10996 ] final -173.07 input  -57.11 | X-H torsion

> <Gold.Protein.ActiveResidues>
 VAL166  LYS551  ARG553  GLY616  TRP617  ASP618  TYR619  PRO620  LYS621  CYS622 
 ASP623  PHE694  ASN695  SER759  ASP760  ASP761  ALA762  ILE779  LEU786  VAL792 
 PHE793  MET794  SER795  GLU796  ALA797  LYS798  CYS799  TRP800  GLU811  SER814 

> <Gold.Protein.RotatedAtoms>
  151.2756  135.0698  159.9149 H   0  0  0  0  0  0  0  0  0  0  0  0  # atno 6907 bound_to 6896
  152.5343  134.0085  159.7937 H   0  0  0  0  0  0  0  0  0  0  0  0  # atno 6908 bound_to 6896
  151.0330  133.5723  159.2689 H   0  0  0  0  0  0  0  0  0  0  0  0  # atno 6909 bound_to 6896
  145.9214  139.3733  143.0476 H   0  0  0  0  0  0  0  0  0  0  0  0  # atno 7974 bound_to 7965
  156.1428  140.1555  156.8894 H   0  0  0  0  0  0  0  0  0  0  0  0  # atno 8008 bound_to 7997
  154.5002  140.0827  156.7820 H   0  0  0  0  0  0  0  0  0  0  0  0  # atno 8009 bound_to 7997
  155.4046  140.3416  155.4261 H   0  0  0  0  0  0  0  0  0  0  0  0  # atno 8010 bound_to 7997
  140.0843  143.4759  152.1908 H   0  0  0  0  0  0  0  0  0  0  0  0  # atno 10167 bound_to 10162
  156.6476  130.4945  149.6073 H   0  0  0  0  0  0  0  0  0  0  0  0  # atno 10718 bound_to 10713
  154.8297  135.4529  154.1031 H   0  0  0  0  0  0  0  0  0  0  0  0  # atno 10763 bound_to 10752
  153.2314  135.6906  153.7892 H   0  0  0  0  0  0  0  0  0  0  0  0  # atno 10764 bound_to 10752
  153.7273  135.3332  155.3255 H   0  0  0  0  0  0  0  0  0  0  0  0  # atno 10765 bound_to 10752
  140.4898  134.5995  157.4950 H   0  0  0  0  0  0  0  0  0  0  0  0  # atno 11005 bound_to 11000
  145.8545  140.9510  143.0732 LP  0  0  0  0  0  0  0  0  0  0  0  0  # atno 17320 bound_to 7965
  144.6753  140.0449  143.7480 LP  0  0  0  0  0  0  0  0  0  0  0  0  # atno 17321 bound_to 7965
  139.5761  144.7488  151.3760 LP  0  0  0  0  0  0  0  0  0  0  0  0  # atno 17342 bound_to 10162
  140.7062  143.7508  150.7486 LP  0  0  0  0  0  0  0  0  0  0  0  0  # atno 17343 bound_to 10162
  156.2109  130.6678  151.1269 LP  0  0  0  0  0  0  0  0  0  0  0  0  # atno 17370 bound_to 10713
  157.7151  131.0714  150.6357 LP  0  0  0  0  0  0  0  0  0  0  0  0  # atno 17371 bound_to 10713
  139.9776  134.7190  155.9921 LP  0  0  0  0  0  0  0  0  0  0  0  0  # atno 17394 bound_to 11000
  141.1489  133.6551  156.3953 LP  0  0  0  0  0  0  0  0  0  0  0  0  # atno 17395 bound_to 11000

$$$$
