AV-unprocessed.smi:790|AV-procd|sdf|3742|dock3
  -GOLD-   22720 1173D 1   1.00000     0.00000
 Structure written by MMmdl.
 38 40  0  0  0  0  0  0  0  0  1 V2000
  145.9244  137.6925  154.4514 O   0  0  0  0  0  0  0  0  0  0  0  0
  146.8333  137.3058  153.7171 C   0  0  0  0  0  0  0  0  0  0  0  0
  147.9934  137.9504  153.5068 N   0  0  0  0  0  0  0  0  0  0  0  0
  148.4115  139.2134  154.0069 C   0  0  0  0  0  0  0  0  0  0  0  0
  147.5767  140.3539  154.0964 C   0  0  0  0  0  0  0  0  0  0  0  0
  148.1191  141.5557  154.5908 C   0  0  0  0  0  0  0  0  0  0  0  0
  149.4752  141.5763  154.9707 C   0  0  0  0  0  0  0  0  0  0  0  0
  150.2852  140.5007  154.8800 N   0  0  0  0  0  0  0  0  0  0  0  0
  149.7584  139.3521  154.4045 C   0  0  0  0  0  0  0  0  0  0  0  0
  146.7886  136.1570  153.0290 N   0  0  0  0  0  0  0  0  0  0  0  0
  145.6621  135.2271  153.0210 C   0  0  2  0  0  0  0  0  0  0  0  0
  145.7475  134.2837  151.8008 C   0  0  1  0  0  0  0  0  0  0  0  0
  144.8073  133.0878  152.0346 C   0  0  0  0  0  0  0  0  0  0  0  0
  143.4143  133.7203  151.8551 C   0  0  0  0  0  0  0  0  0  0  0  0
  143.7403  135.2006  151.5606 C   0  0  2  0  0  0  0  0  0  0  0  0
  145.0002  135.0560  150.7165 C   0  0  0  0  0  0  0  0  0  0  0  0
  144.3001  135.9355  152.8043 C   0  0  1  0  0  0  0  0  0  0  0  0
  143.3924  135.9535  154.0497 C   0  0  0  0  0  0  0  0  0  0  0  0
  143.4371  134.7055  154.7081 O   0  0  0  0  0  0  0  0  0  0  0  0
  148.6752  137.4627  152.9440 H   0  0  0  0  0  0  0  0  0  0  0  0
  146.5442  140.3383  153.7855 H   0  0  0  0  0  0  0  0  0  0  0  0
  147.5100  142.4436  154.6719 H   0  0  0  0  0  0  0  0  0  0  0  0
  149.9226  142.4824  155.3519 H   0  0  0  0  0  0  0  0  0  0  0  0
  150.4370  138.5137  154.3419 H   0  0  0  0  0  0  0  0  0  0  0  0
  147.5830  135.9131  152.4559 H   0  0  0  0  0  0  0  0  0  0  0  0
  145.6748  134.6454  153.9450 H   0  0  0  0  0  0  0  0  0  0  0  0
  146.7635  133.9849  151.5391 H   0  0  0  0  0  0  0  0  0  0  0  0
  144.9735  132.3098  151.2885 H   0  0  0  0  0  0  0  0  0  0  0  0
  144.9386  132.6386  153.0197 H   0  0  0  0  0  0  0  0  0  0  0  0
  142.9053  133.2686  151.0027 H   0  0  0  0  0  0  0  0  0  0  0  0
  142.7703  133.5805  152.7223 H   0  0  0  0  0  0  0  0  0  0  0  0
  142.9269  135.7355  151.0696 H   0  0  0  0  0  0  0  0  0  0  0  0
  145.4653  136.0099  150.4621 H   0  0  0  0  0  0  0  0  0  0  0  0
  144.8462  134.4803  149.8020 H   0  0  0  0  0  0  0  0  0  0  0  0
  144.4786  136.9738  152.5161 H   0  0  0  0  0  0  0  0  0  0  0  0
  143.6666  136.7449  154.7460 H   0  0  0  0  0  0  0  0  0  0  0  0
  142.3608  136.1445  153.7542 H   0  0  0  0  0  0  0  0  0  0  0  0
  143.3179  134.8503  155.6344 H   0  0  0  0  0  0  0  0  0  0  0  0
  1  2  2  0  0  0  0
  2  3  1  0  0  0  0
  2 10  1  0  0  0  0
  3  4  1  0  0  0  0
  3 20  1  0  0  0  0
  4  9  1  0  0  0  0
  4  5  2  0  0  0  0
  5  6  1  0  0  0  0
  5 21  1  0  0  0  0
  6  7  2  0  0  0  0
  6 22  1  0  0  0  0
  7  8  1  0  0  0  0
  7 23  1  0  0  0  0
  8  9  2  0  0  0  0
  9 24  1  0  0  0  0
 10 11  1  0  0  0  0
 10 25  1  0  0  0  0
 11 17  1  0  0  0  0
 11 12  1  0  0  0  0
 11 26  1  0  0  0  0
 12 16  1  0  0  0  0
 12 13  1  0  0  0  0
 12 27  1  0  0  0  0
 13 14  1  0  0  0  0
 13 28  1  0  0  0  0
 13 29  1  0  0  0  0
 14 15  1  0  0  0  0
 14 30  1  0  0  0  0
 14 31  1  0  0  0  0
 15 16  1  0  0  0  0
 15 17  1  0  0  0  0
 15 32  1  0  0  0  0
 16 33  1  0  0  0  0
 16 34  1  0  0  0  0
 17 18  1  0  0  0  0
 17 35  1  0  0  0  0
 18 19  1  0  0  0  0
 18 36  1  0  0  0  0
 18 37  1  0  0  0  0
 19 38  1  0  0  0  0
M  END
> <s_m_source_file>
AV-unprocessed.smi

> <i_m_source_file_index>
790

> <i_lp_mmshare_version>
43012

> <i_f3d_flags>
0

> <s_epik_input>
W0NIMl0xW0NIMl1bQ0BASF0oW0NIMl0yKVtDQEBIXShbQ0gyXVtPSF0pW0NAQEhdKFtDQEhdMTIpW05IXUMoPU8pW05IXWMzW2NIXVtjSF1bY0hdbltjSF0z

> <s_epik_cmdline>
J2VwaWtfcHl0aG9uJywgJy1waCcsICc3LjAnLCAnLXRuJywgJzgnLCAnLW1hJywgJzIwMCcsICctbWV0YWxfYmluZGluZycsICctaW1hZScsICc8aW5maWxlLm1hZT4nLCAnLW9tYWUnLCAnPG91dGZpbGUubWFlPic=

> <r_epik_Ionization_Penalty>
0.00497582

> <r_epik_Ionization_Penalty_Charging>
0

> <r_epik_Ionization_Penalty_Neutral>
0.00497582

> <r_epik_State_Penalty>
0.00358602

> <r_epik_Charging_Adjusted_Penalty>
0.00358602

> <i_epik_Tot_Q>
0

> <i_epik_Tot_abs_Q>
0

> <r_epik_Metal_State_Penalty>
-0

> <b_epik_Metal_Only>
0

> <s_lp_Force_Field>
OPLS_2005

> <r_lp_Energy>
52.0716

> <b_lp_Chiralities_Consistent>
1

> <s_lp_Variant>
AV-unprocessed.smi:790-3

> <Gold.Version>
5.8.1

> <Gold.Id.Protein>
6NUR|6NUR_protein|mol2

> <Gold.PLP.Fitness>
39.5151

> <Gold.PLP.PLP>
-29.0908

> <Gold.PLP.part.hbond>
-3.5499

> <Gold.PLP.part.metal>
0.0000

> <Gold.PLP.part.buried>
-3.0691

> <Gold.PLP.part.nonpolar>
-23.4925

> <Gold.PLP.part.repulsive>
0.2146

> <Gold.PLP.ligand.clash>
0.0000

> <Gold.PLP.ligand.torsion>
0.6629

> <Gold.PLP.Chemscore.Hbond>
2.9200

> <Gold.PLP.Chemscore.CHOScore>
0.9904

> <Gold.PLP.Chemscore.Metal>
0.0000

> <Gold.Chemscore.Hbonds>
donor molecule, donor type, donor heavy atom, donor atom, acceptor molecule, acceptor atom, score
      L1  H     3    20       P1  7948  0.96
      L1  H    10    25       P1  7948  0.96
      P1  H  7989  7998       L1     8  0.98
      L1  C     7    23       P1  8028  0.97

> <Gold.PLP.Chemscore.Internal.Correction>
0.0189

> <Gold.Rescore>
     Score         DG    S(hbond)    S(metal)    S(lipo)     H(rot)  DE(clash)    DE(int)     intcor
     14.95     -17.10       2.46        0.00      67.93       1.78       0.30       1.85       ----

> <Gold.Chemscore.Fitness>
14.9496

> <Gold.Chemscore.DG>
-17.1019

> <Gold.Chemscore.ZeroCoef>
-5.4800

> <Gold.Chemscore.Hbond>
2.4630

> <Gold.Chemscore.Metal>
0.0000

> <Gold.Chemscore.Lipo>
67.9326

> <Gold.Chemscore.Internal_Hbond>
0.0000

> <Gold.Chemscore.DEClash>
0.3042

> <Gold.Chemscore.DEInternal>
1.8480

> <Gold.Chemscore.Rot>
1.7783

> <Gold.Chemscore.Internal.Correction>
   9.000000E+99

> <Gold.Chemscore.Hbonds>
donor molecule, donor type, donor heavy atom, donor atom, acceptor molecule, acceptor atom, score
      L1  H     3    20       P1  7948  0.92
      L1  H    10    25       P1  7948  0.88
      P1  H  7989  7998       L1     8  0.17

> <Gold.Chemscore.Hbond.Weighted>
-8.2263

> <Gold.Chemscore.Metal.Weighted>
-0.0000

> <Gold.Chemscore.Lipo.Weighted>
-7.9481

> <Gold.Chemscore.Internal_Hbond.Weighted>
0.0000

> <Gold.Chemscore.DEClash.Weighted>
0.3042

> <Gold.Chemscore.DEInternal.Weighted>
1.8480

> <Gold.Chemscore.Rot.Weighted>
4.5525

> <Gold.Chemscore.Internal.Correction.Weighted>
   9.000000E+99

> <Gold.Protein.RotatedTorsions>
[ 6907 6896 6895 6894 ] final -123.33 input  -60.11 | X-H torsion
[ 7974 7965 7964 7962 ] final   51.29 input  175.53 | X-H torsion
[ 8008 7997 7996 7995 ] final   41.02 input   59.86 | X-H torsion
[ 10167 10162 10161 10158 ] final  129.89 input  -65.29 | X-H torsion
[ 10718 10713 10712 10709 ] final  -25.58 input   66.30 | X-H torsion
[ 10763 10752 10751 10750 ] final -102.74 input  -60.55 | X-H torsion
[ 11005 11000 10999 10996 ] final -117.55 input  -57.11 | X-H torsion

> <Gold.Protein.ActiveResidues>
 VAL166  LYS551  ARG553  GLY616  TRP617  ASP618  TYR619  PRO620  LYS621  CYS622 
 ASP623  PHE694  ASN695  SER759  ASP760  ASP761  ALA762  ILE779  LEU786  VAL792 
 PHE793  MET794  SER795  GLU796  ALA797  LYS798  CYS799  TRP800  GLU811  SER814 

> <Gold.Protein.RotatedAtoms>
  150.8661  133.7573  159.2976 H   0  0  0  0  0  0  0  0  0  0  0  0  # atno 6907 bound_to 6896
  151.5200  135.1065  159.9885 H   0  0  0  0  0  0  0  0  0  0  0  0  # atno 6908 bound_to 6896
  152.4661  133.7883  159.6944 H   0  0  0  0  0  0  0  0  0  0  0  0  # atno 6909 bound_to 6896
  145.9928  139.4357  143.0063 H   0  0  0  0  0  0  0  0  0  0  0  0  # atno 7974 bound_to 7965
  155.2627  140.3360  155.4272 H   0  0  0  0  0  0  0  0  0  0  0  0  # atno 8008 bound_to 7997
  156.2168  140.1792  156.7613 H   0  0  0  0  0  0  0  0  0  0  0  0  # atno 8009 bound_to 7997
  154.5765  140.0661  156.9026 H   0  0  0  0  0  0  0  0  0  0  0  0  # atno 8010 bound_to 7997
  139.5456  144.6770  151.4485 H   0  0  0  0  0  0  0  0  0  0  0  0  # atno 10167 bound_to 10162
  156.4625  130.4507  149.6920 H   0  0  0  0  0  0  0  0  0  0  0  0  # atno 10718 bound_to 10713
  154.7756  135.4849  153.9737 H   0  0  0  0  0  0  0  0  0  0  0  0  # atno 10763 bound_to 10752
  153.1424  135.6775  153.9014 H   0  0  0  0  0  0  0  0  0  0  0  0  # atno 10764 bound_to 10752
  153.8684  135.3146  155.3419 H   0  0  0  0  0  0  0  0  0  0  0  0  # atno 10765 bound_to 10752
  141.0347  133.9927  157.3089 H   0  0  0  0  0  0  0  0  0  0  0  0  # atno 11005 bound_to 11000
  145.7604  140.9937  143.1203 LP  0  0  0  0  0  0  0  0  0  0  0  0  # atno 17320 bound_to 7965
  144.6894  139.9324  143.7472 LP  0  0  0  0  0  0  0  0  0  0  0  0  # atno 17321 bound_to 7965
  140.6702  143.8309  150.6990 LP  0  0  0  0  0  0  0  0  0  0  0  0  # atno 17342 bound_to 10162
  140.1731  143.4177  152.1986 LP  0  0  0  0  0  0  0  0  0  0  0  0  # atno 17343 bound_to 10162
  156.3702  130.7526  151.2509 LP  0  0  0  0  0  0  0  0  0  0  0  0  # atno 17370 bound_to 10713
  157.7497  131.0325  150.4230 LP  0  0  0  0  0  0  0  0  0  0  0  0  # atno 17371 bound_to 10713
  139.9232  135.0201  156.8141 LP  0  0  0  0  0  0  0  0  0  0  0  0  # atno 17394 bound_to 11000
  140.6343  133.9876  155.7677 LP  0  0  0  0  0  0  0  0  0  0  0  0  # atno 17395 bound_to 11000

$$$$
