AV-unprocessed.smi:1443|AV-procd|sdf|5879|dock9
  -GOLD-   22720 5553D 1   1.00000     0.00000
 Structure written by MMmdl.
 27 28  0  0  0  0  0  0  0  0  1 V2000
  151.5939  137.0952  155.5661 C   0  0  0  0  0  0  0  0  0  0  0  0
  151.1555  137.8880  153.9964 S   0  0  0  0  0  0  0  0  0  0  0  0
  150.2684  139.3542  154.4153 C   0  0  0  0  0  0  0  0  0  0  0  0
  148.9901  139.5077  154.0252 N   0  0  0  0  0  0  0  0  0  0  0  0
  148.4368  141.0083  154.5700 S   0  0  0  0  0  0  0  0  0  0  0  0
  149.9798  141.3479  155.2960 C   0  0  0  0  0  0  0  0  0  0  0  0
  150.2435  142.5688  155.9816 N   0  0  0  0  0  0  0  0  0  0  0  0
  151.1354  142.8750  156.9477 C   0  0  0  0  0  0  0  0  0  0  0  0
  151.9068  142.0248  157.3887 O   0  0  0  0  0  0  0  0  0  0  0  0
  151.1231  144.1439  157.3848 N   0  0  0  0  0  0  0  0  0  0  0  0
  151.9538  144.6812  158.4138 C   0  0  2  0  0  0  0  0  0  0  0  0
  152.1730  143.8227  159.6408 C   0  0  0  0  0  0  0  0  0  0  0  0
  151.3269  145.0639  159.7421 C   0  0  2  0  0  0  0  0  0  0  0  0
  149.8341  144.9656  159.9857 C   0  0  0  0  0  0  0  0  0  0  0  0
  150.8431  140.3469  155.1189 N   0  0  0  0  0  0  0  0  0  0  0  0
  152.1945  136.2046  155.3822 H   0  0  0  0  0  0  0  0  0  0  0  0
  150.6930  136.7980  156.1016 H   0  0  0  0  0  0  0  0  0  0  0  0
  152.1682  137.7764  156.1940 H   0  0  0  0  0  0  0  0  0  0  0  0
  149.6848  143.3496  155.6690 H   0  0  0  0  0  0  0  0  0  0  0  0
  150.4586  144.7764  156.9622 H   0  0  0  0  0  0  0  0  0  0  0  0
  152.8075  145.2794  158.0984 H   0  0  0  0  0  0  0  0  0  0  0  0
  151.6670  142.8597  159.6829 H   0  0  0  0  0  0  0  0  0  0  0  0
  153.1586  143.8488  160.1010 H   0  0  0  0  0  0  0  0  0  0  0  0
  151.7869  145.9123  160.2454 H   0  0  0  0  0  0  0  0  0  0  0  0
  149.4182  144.0741  159.5177 H   0  0  0  0  0  0  0  0  0  0  0  0
  149.3303  145.8406  159.5752 H   0  0  0  0  0  0  0  0  0  0  0  0
  149.6331  144.9185  161.0560 H   0  0  0  0  0  0  0  0  0  0  0  0
  1  2  1  0  0  0  0
  1 16  1  0  0  0  0
  1 17  1  0  0  0  0
  1 18  1  0  0  0  0
  2  3  1  0  0  0  0
  3 15  1  0  0  0  0
  3  4  2  0  0  0  0
  4  5  1  0  0  0  0
  5  6  1  0  0  0  0
  6  7  1  0  0  0  0
  6 15  2  0  0  0  0
  7  8  1  0  0  0  0
  7 19  1  0  0  0  0
  8  9  2  0  0  0  0
  8 10  1  0  0  0  0
 10 11  1  0  0  0  0
 10 20  1  0  0  0  0
 11 13  1  0  0  0  0
 11 12  1  0  0  0  0
 11 21  1  0  0  0  0
 12 13  1  0  0  0  0
 12 22  1  0  0  0  0
 12 23  1  0  0  0  0
 13 14  1  0  0  0  0
 13 24  1  0  0  0  0
 14 25  1  0  0  0  0
 14 26  1  0  0  0  0
 14 27  1  0  0  0  0
M  END
> <s_m_source_file>
AV-unprocessed.smi

> <i_m_source_file_index>
1443

> <i_lp_mmshare_version>
43012

> <i_f3d_flags>
0

> <s_epik_input>
W0NIM11TYzFuc2MobjEpW05IXUMoPU8pW05IXVtDQEBIXTJbQ0gyXVtDQEhdMltDSDNd

> <s_epik_cmdline>
J2VwaWtfcHl0aG9uJywgJy1waCcsICc3LjAnLCAnLXRuJywgJzgnLCAnLW1hJywgJzIwMCcsICctbWV0YWxfYmluZGluZycsICctaW1hZScsICc8aW5maWxlLm1hZT4nLCAnLW9tYWUnLCAnPG91dGZpbGUubWFlPic=

> <r_lp_tautomer_probability>
1

> <r_epik_Ionization_Penalty>
2.74658e-05

> <r_epik_Ionization_Penalty_Charging>
0

> <r_epik_Ionization_Penalty_Neutral>
2.74658e-05

> <r_epik_State_Penalty>
-0

> <r_epik_Charging_Adjusted_Penalty>
0

> <i_epik_Tot_Q>
0

> <i_epik_Tot_abs_Q>
0

> <r_epik_Metal_State_Penalty>
-0

> <b_epik_Metal_Only>
0

> <s_lp_Force_Field>
OPLS_2005

> <r_lp_Energy>
21.2108

> <b_lp_Chiralities_Consistent>
1

> <s_lp_Variant>
AV-unprocessed.smi:1443-3

> <Gold.Version>
5.8.1

> <Gold.Id.Protein>
6NUR|6NUR_protein|mol2

> <Gold.PLP.Fitness>
39.0843

> <Gold.PLP.PLP>
-32.5666

> <Gold.PLP.part.hbond>
-3.0000

> <Gold.PLP.part.metal>
0.0000

> <Gold.PLP.part.buried>
-3.2897

> <Gold.PLP.part.nonpolar>
-27.7796

> <Gold.PLP.part.repulsive>
0.5101

> <Gold.PLP.ligand.clash>
0.0000

> <Gold.PLP.ligand.torsion>
0.3085

> <Gold.PLP.Chemscore.Hbond>
2.3660

> <Gold.PLP.Chemscore.CHOScore>
0.0000

> <Gold.PLP.Chemscore.Metal>
0.0000

> <Gold.Chemscore.Hbonds>
donor molecule, donor type, donor heavy atom, donor atom, acceptor molecule, acceptor atom, score
      L1  H     7    19       P1  8028  1.00
      L1  H    10    20       P1  8028  0.82
      P1  H  7989  7998       L1    15  0.35

> <Gold.PLP.Chemscore.Internal.Correction>
0.0368

> <Gold.Rescore>
     Score         DG    S(hbond)    S(metal)    S(lipo)     H(rot)  DE(clash)    DE(int)     intcor
     12.72     -16.25       1.87        0.00      66.33       1.27       1.17       2.37       ----

> <Gold.Chemscore.Fitness>
12.7160

> <Gold.Chemscore.DG>
-16.2518

> <Gold.Chemscore.ZeroCoef>
-5.4800

> <Gold.Chemscore.Hbond>
1.8748

> <Gold.Chemscore.Metal>
0.0000

> <Gold.Chemscore.Lipo>
66.3327

> <Gold.Chemscore.Internal_Hbond>
0.0000

> <Gold.Chemscore.DEClash>
1.1705

> <Gold.Chemscore.DEInternal>
2.3652

> <Gold.Chemscore.Rot>
1.2699

> <Gold.Chemscore.Internal.Correction>
   9.000000E+99

> <Gold.Chemscore.Hbonds>
donor molecule, donor type, donor heavy atom, donor atom, acceptor molecule, acceptor atom, score
      L1  H     7    19       P1  8028  0.98
      L1  H    10    20       P1  8028  0.47

> <Gold.Chemscore.Hbond.Weighted>
-6.2618

> <Gold.Chemscore.Metal.Weighted>
-0.0000

> <Gold.Chemscore.Lipo.Weighted>
-7.7609

> <Gold.Chemscore.Internal_Hbond.Weighted>
0.0000

> <Gold.Chemscore.DEClash.Weighted>
1.1705

> <Gold.Chemscore.DEInternal.Weighted>
2.3652

> <Gold.Chemscore.Rot.Weighted>
3.2509

> <Gold.Chemscore.Internal.Correction.Weighted>
   9.000000E+99

> <Gold.Protein.RotatedTorsions>
[ 6907 6896 6895 6894 ] final  119.42 input  -60.11 | X-H torsion
[ 7974 7965 7964 7962 ] final  113.04 input  175.53 | X-H torsion
[ 8008 7997 7996 7995 ] final -122.70 input   59.86 | X-H torsion
[ 10167 10162 10161 10158 ] final   33.33 input  -65.29 | X-H torsion
[ 10718 10713 10712 10709 ] final  101.44 input   66.30 | X-H torsion
[ 10763 10752 10751 10750 ] final  -28.35 input  -60.55 | X-H torsion
[ 11005 11000 10999 10996 ] final  -63.96 input  -57.11 | X-H torsion

> <Gold.Protein.ActiveResidues>
 VAL166  LYS551  ARG553  GLY616  TRP617  ASP618  TYR619  PRO620  LYS621  CYS622 
 ASP623  PHE694  ASN695  SER759  ASP760  ASP761  ALA762  ILE779  LEU786  VAL792 
 PHE793  MET794  SER795  GLU796  ALA797  LYS798  CYS799  TRP800  GLU811  SER814 

> <Gold.Protein.RotatedAtoms>
  152.4473  133.7561  159.6720 H   0  0  0  0  0  0  0  0  0  0  0  0  # atno 6907 bound_to 6896
  150.8376  133.7978  159.3079 H   0  0  0  0  0  0  0  0  0  0  0  0  # atno 6908 bound_to 6896
  151.5612  135.1068  160.0025 H   0  0  0  0  0  0  0  0  0  0  0  0  # atno 6909 bound_to 6896
  145.2219  139.2858  143.4214 H   0  0  0  0  0  0  0  0  0  0  0  0  # atno 7974 bound_to 7965
  155.1686  140.0407  157.2858 H   0  0  0  0  0  0  0  0  0  0  0  0  # atno 8008 bound_to 7997
  154.6285  140.2518  155.7435 H   0  0  0  0  0  0  0  0  0  0  0  0  # atno 8009 bound_to 7997
  156.2472  140.2880  156.0626 H   0  0  0  0  0  0  0  0  0  0  0  0  # atno 8010 bound_to 7997
  140.4417  144.1178  150.6175 H   0  0  0  0  0  0  0  0  0  0  0  0  # atno 10167 bound_to 10162
  157.6829  131.0726  150.5253 H   0  0  0  0  0  0  0  0  0  0  0  0  # atno 10718 bound_to 10713
  153.7469  135.6928  153.4954 H   0  0  0  0  0  0  0  0  0  0  0  0  # atno 10763 bound_to 10752
  153.2030  135.4429  155.0288 H   0  0  0  0  0  0  0  0  0  0  0  0  # atno 10764 bound_to 10752
  154.8201  135.3418  154.6991 H   0  0  0  0  0  0  0  0  0  0  0  0  # atno 10765 bound_to 10752
  141.1410  133.6659  156.5760 H   0  0  0  0  0  0  0  0  0  0  0  0  # atno 11005 bound_to 11000
  146.3374  140.2527  142.8599 LP  0  0  0  0  0  0  0  0  0  0  0  0  # atno 17320 bound_to 7965
  144.9757  140.8412  143.5428 LP  0  0  0  0  0  0  0  0  0  0  0  0  # atno 17321 bound_to 7965
  140.4310  143.2568  151.9595 LP  0  0  0  0  0  0  0  0  0  0  0  0  # atno 17342 bound_to 10162
  139.4790  144.5743  151.8037 LP  0  0  0  0  0  0  0  0  0  0  0  0  # atno 17343 bound_to 10162
  156.5565  130.4244  149.6083 LP  0  0  0  0  0  0  0  0  0  0  0  0  # atno 17370 bound_to 10713
  156.2858  130.7096  151.1932 LP  0  0  0  0  0  0  0  0  0  0  0  0  # atno 17371 bound_to 10713
  140.3875  134.7469  157.4700 LP  0  0  0  0  0  0  0  0  0  0  0  0  # atno 17394 bound_to 11000
  140.0591  134.6021  155.8770 LP  0  0  0  0  0  0  0  0  0  0  0  0  # atno 17395 bound_to 11000

$$$$
