AV-unprocessed.smi:3064|AV-procd|sdf|11690|dock8
  -GOLD-   2272017 93D 1   1.00000     0.00000
 Structure written by MMmdl.
 21 22  0  0  0  0  0  0  0  0  1 V2000
  152.7113  143.1288  159.9290 C   0  0  0  0  0  0  0  0  0  0  0  0
  152.3835  144.2102  159.1518 C   0  0  0  0  0  0  0  0  0  0  0  0
  151.6405  143.7250  157.6524 S   0  0  0  0  0  0  0  0  0  0  0  0
  151.7887  142.0435  158.1550 C   0  0  0  0  0  0  0  0  0  0  0  0
  151.3565  140.8994  157.2937 C   0  0  1  0  0  0  0  0  0  0  0  0
  150.8232  141.3660  155.9253 C   0  0  0  0  0  0  0  0  0  0  0  0
  150.4868  140.2119  155.0932 N   0  0  0  0  0  0  0  0  0  0  0  0
  151.6275  139.3071  154.9593 C   0  0  0  0  0  0  0  0  0  0  0  0
  152.1493  138.8940  156.3475 C   0  0  0  0  0  0  0  0  0  0  0  0
  152.4894  140.0560  157.0967 O   0  0  0  0  0  0  0  0  0  0  0  0
  152.3783  141.9032  159.3473 N   0  0  0  0  0  0  0  0  0  0  0  0
  153.1835  143.1387  160.9002 H   0  0  0  0  0  0  0  0  0  0  0  0
  152.5365  145.2570  159.3676 H   0  0  0  0  0  0  0  0  0  0  0  0
  150.5827  140.3475  157.8307 H   0  0  0  0  0  0  0  0  0  0  0  0
  149.9457  141.9989  156.0585 H   0  0  0  0  0  0  0  0  0  0  0  0
  151.5765  141.9755  155.4242 H   0  0  0  0  0  0  0  0  0  0  0  0
  150.1942  140.5287  154.1744 H   0  0  0  0  0  0  0  0  0  0  0  0
  151.3398  138.4239  154.3887 H   0  0  0  0  0  0  0  0  0  0  0  0
  152.4256  139.7959  154.3992 H   0  0  0  0  0  0  0  0  0  0  0  0
  151.4058  138.3029  156.8846 H   0  0  0  0  0  0  0  0  0  0  0  0
  153.0365  138.2694  156.2433 H   0  0  0  0  0  0  0  0  0  0  0  0
  1 11  1  0  0  0  0
  1  2  2  0  0  0  0
  1 12  1  0  0  0  0
  2  3  1  0  0  0  0
  2 13  1  0  0  0  0
  3  4  1  0  0  0  0
  4  5  1  0  0  0  0
  4 11  2  0  0  0  0
  5 10  1  0  0  0  0
  5  6  1  0  0  0  0
  5 14  1  0  0  0  0
  6  7  1  0  0  0  0
  6 15  1  0  0  0  0
  6 16  1  0  0  0  0
  7  8  1  0  0  0  0
  7 17  1  0  0  0  0
  8  9  1  0  0  0  0
  8 18  1  0  0  0  0
  8 19  1  0  0  0  0
  9 10  1  0  0  0  0
  9 20  1  0  0  0  0
  9 21  1  0  0  0  0
M  END
> <s_m_source_file>
AV-unprocessed.smi

> <i_m_source_file_index>
3064

> <i_lp_mmshare_version>
43012

> <i_f3d_flags>
0

> <s_epik_input>
bjFbY0hdW2NIXXNjMVtDQEBIXTJbQ0gyXVtOSF1bQ0gyXVtDSDJdTzI=

> <s_epik_cmdline>
J2VwaWtfcHl0aG9uJywgJy1waCcsICc3LjAnLCAnLXRuJywgJzgnLCAnLW1hJywgJzIwMCcsICctbWV0YWxfYmluZGluZycsICctaW1hZScsICc8aW5maWxlLm1hZT4nLCAnLW9tYWUnLCAnPG91dGZpbGUubWFlPic=

> <r_epik_Ionization_Penalty>
0.980767

> <r_epik_Ionization_Penalty_Charging>
0

> <r_epik_Ionization_Penalty_Neutral>
0.980767

> <r_epik_State_Penalty>
1.0271

> <r_epik_Charging_Adjusted_Penalty>
1.0271

> <i_epik_Tot_Q>
0

> <i_epik_Tot_abs_Q>
0

> <r_epik_Metal_State_Penalty>
1.02673

> <b_epik_Metal_Only>
0

> <s_lp_Force_Field>
OPLS_2005

> <r_lp_Energy>
8.04051

> <b_lp_Chiralities_Consistent>
1

> <s_lp_Variant>
AV-unprocessed.smi:3064-4

> <Gold.Version>
5.8.1

> <Gold.Id.Protein>
6NUR|6NUR_protein|mol2

> <Gold.PLP.Fitness>
29.2853

> <Gold.PLP.PLP>
-26.3423

> <Gold.PLP.part.hbond>
-1.9779

> <Gold.PLP.part.metal>
0.0000

> <Gold.PLP.part.buried>
-2.2777

> <Gold.PLP.part.nonpolar>
-22.0829

> <Gold.PLP.part.repulsive>
0.0000

> <Gold.PLP.ligand.clash>
0.0000

> <Gold.PLP.ligand.torsion>
0.0338

> <Gold.PLP.Chemscore.Hbond>
1.0000

> <Gold.PLP.Chemscore.CHOScore>
0.0000

> <Gold.PLP.Chemscore.Metal>
0.0000

> <Gold.Chemscore.Hbonds>
donor molecule, donor type, donor heavy atom, donor atom, acceptor molecule, acceptor atom, score
      P1  H  7997  8008       L1    10  1.00

> <Gold.PLP.Chemscore.Internal.Correction>
0.0106

> <Gold.Rescore>
     Score         DG    S(hbond)    S(metal)    S(lipo)     H(rot)  DE(clash)    DE(int)     intcor
     14.18     -14.22       0.86        0.00      72.01       1.00       0.01       0.03       ----

> <Gold.Chemscore.Fitness>
14.1764

> <Gold.Chemscore.DG>
-14.2172

> <Gold.Chemscore.ZeroCoef>
-5.4800

> <Gold.Chemscore.Hbond>
0.8600

> <Gold.Chemscore.Metal>
0.0000

> <Gold.Chemscore.Lipo>
72.0082

> <Gold.Chemscore.Internal_Hbond>
0.0000

> <Gold.Chemscore.DEClash>
0.0085

> <Gold.Chemscore.DEInternal>
0.0323

> <Gold.Chemscore.Rot>
1.0000

> <Gold.Chemscore.Internal.Correction>
   9.000000E+99

> <Gold.Chemscore.Hbonds>
donor molecule, donor type, donor heavy atom, donor atom, acceptor molecule, acceptor atom, score
      P1  H  7997  8008       L1    10  0.24

> <Gold.Chemscore.Hbond.Weighted>
-2.8723

> <Gold.Chemscore.Metal.Weighted>
-0.0000

> <Gold.Chemscore.Lipo.Weighted>
-8.4250

> <Gold.Chemscore.Internal_Hbond.Weighted>
0.0000

> <Gold.Chemscore.DEClash.Weighted>
0.0085

> <Gold.Chemscore.DEInternal.Weighted>
0.0323

> <Gold.Chemscore.Rot.Weighted>
2.5600

> <Gold.Chemscore.Internal.Correction.Weighted>
   9.000000E+99

> <Gold.Protein.RotatedTorsions>
[ 6907 6896 6895 6894 ] final -148.17 input  -60.11 | X-H torsion
[ 7974 7965 7964 7962 ] final -121.71 input  175.53 | X-H torsion
[ 8008 7997 7996 7995 ] final  -71.39 input   59.86 | X-H torsion
[ 10167 10162 10161 10158 ] final  113.09 input  -65.29 | X-H torsion
[ 10718 10713 10712 10709 ] final  108.37 input   66.30 | X-H torsion
[ 10763 10752 10751 10750 ] final  161.59 input  -60.55 | X-H torsion
[ 11005 11000 10999 10996 ] final  -31.57 input  -57.11 | X-H torsion

> <Gold.Protein.ActiveResidues>
 VAL166  LYS551  ARG553  GLY616  TRP617  ASP618  TYR619  PRO620  LYS621  CYS622 
 ASP623  PHE694  ASN695  SER759  ASP760  ASP761  ALA762  ILE779  LEU786  VAL792 
 PHE793  MET794  SER795  GLU796  ALA797  LYS798  CYS799  TRP800  GLU811  SER814 

> <Gold.Protein.RotatedAtoms>
  151.1660  133.4815  159.2593 H   0  0  0  0  0  0  0  0  0  0  0  0  # atno 6907 bound_to 6896
  151.1405  135.0177  159.8633 H   0  0  0  0  0  0  0  0  0  0  0  0  # atno 6908 bound_to 6896
  152.5462  134.1554  159.8589 H   0  0  0  0  0  0  0  0  0  0  0  0  # atno 6909 bound_to 6896
  145.0373  140.8116  143.4287 H   0  0  0  0  0  0  0  0  0  0  0  0  # atno 7974 bound_to 7965
  154.5084  140.0816  156.7941 H   0  0  0  0  0  0  0  0  0  0  0  0  # atno 8008 bound_to 7997
  155.3840  140.3429  155.4230 H   0  0  0  0  0  0  0  0  0  0  0  0  # atno 8009 bound_to 7997
  156.1544  140.1568  156.8705 H   0  0  0  0  0  0  0  0  0  0  0  0  # atno 8010 bound_to 7997
  139.6487  144.7127  151.2091 H   0  0  0  0  0  0  0  0  0  0  0  0  # atno 10167 bound_to 10162
  157.6589  131.0892  150.6295 H   0  0  0  0  0  0  0  0  0  0  0  0  # atno 10718 bound_to 10713
  154.2652  135.2767  155.2761 H   0  0  0  0  0  0  0  0  0  0  0  0  # atno 10763 bound_to 10752
  154.5349  135.5719  153.6793 H   0  0  0  0  0  0  0  0  0  0  0  0  # atno 10764 bound_to 10752
  152.9955  135.6237  154.2804 H   0  0  0  0  0  0  0  0  0  0  0  0  # atno 10765 bound_to 10752
  140.9479  133.7238  156.1176 H   0  0  0  0  0  0  0  0  0  0  0  0  # atno 11005 bound_to 11000
  145.1693  139.2413  143.5350 LP  0  0  0  0  0  0  0  0  0  0  0  0  # atno 17320 bound_to 7965
  146.3505  140.1439  142.8594 LP  0  0  0  0  0  0  0  0  0  0  0  0  # atno 17321 bound_to 7965
  140.7527  143.6186  150.8535 LP  0  0  0  0  0  0  0  0  0  0  0  0  # atno 17342 bound_to 10162
  139.9832  143.5928  152.2936 LP  0  0  0  0  0  0  0  0  0  0  0  0  # atno 17343 bound_to 10162
  156.6600  130.4509  149.5691 LP  0  0  0  0  0  0  0  0  0  0  0  0  # atno 17370 bound_to 10713
  156.2074  130.6658  151.1233 LP  0  0  0  0  0  0  0  0  0  0  0  0  # atno 17371 bound_to 10713
  140.7643  134.3904  157.5520 LP  0  0  0  0  0  0  0  0  0  0  0  0  # atno 17394 bound_to 11000
  139.8839  134.8981  156.2738 LP  0  0  0  0  0  0  0  0  0  0  0  0  # atno 17395 bound_to 11000

$$$$
