AV-unprocessed.smi:1740|AV-procd|sdf|7012|dock2
  -GOLD-   22720 8223D 1   1.00000     0.00000
 Structure written by MMmdl.
 51 53  0  0  0  0  0  0  0  0  3 V2000
  145.8164  128.1319  154.1739 N   0  5  0  0  0  0  0  0  0  0  0  0
  147.0481  128.6279  154.4081 C   0  0  0  0  0  0  0  0  0  0  0  0
  147.6018  128.7951  155.4921 O   0  0  0  0  0  0  0  0  0  0  0  0
  147.7800  129.0055  153.1155 C   0  0  0  0  0  0  0  0  0  0  0  0
  148.1307  130.4489  153.1124 N   0  3  2  0  0  0  0  0  0  0  0  0
  149.1924  130.7786  154.0963 C   0  0  0  0  0  0  0  0  0  0  0  0
  149.6395  132.2440  153.9600 C   0  0  0  0  0  0  0  0  0  0  0  0
  148.4497  133.2066  154.1062 C   0  0  1  0  0  0  0  0  0  0  0  0
  148.8913  134.5801  153.8814 N   0  0  0  0  0  0  0  0  0  0  0  0
  149.6553  135.2926  154.7217 C   0  0  0  0  0  0  0  0  0  0  0  0
  150.0962  134.8484  155.7817 O   0  0  0  0  0  0  0  0  0  0  0  0
  149.8793  136.5286  154.2448 N   0  0  0  0  0  0  0  0  0  0  0  0
  150.6292  137.5831  154.8403 C   0  0  0  0  0  0  0  0  0  0  0  0
  151.7966  137.3299  155.6021 C   0  0  0  0  0  0  0  0  0  0  0  0
  152.4600  138.4005  156.2260 C   0  0  0  0  0  0  0  0  0  0  0  0
  151.9229  139.6903  156.0811 C   0  0  0  0  0  0  0  0  0  0  0  0
  150.8060  139.9467  155.3718 N   0  0  0  0  0  0  0  0  0  0  0  0
  150.1635  138.9263  154.7519 C   0  0  0  0  0  0  0  0  0  0  0  0
  149.0091  139.2558  154.0061 N   0  0  0  0  0  0  0  0  0  0  0  0
  148.7844  140.6648  153.6962 C   0  0  0  0  0  0  0  0  0  0  0  0
  147.2729  140.8949  153.7976 C   0  0  0  0  0  0  0  0  0  0  0  0
  146.6838  139.4987  153.6235 C   0  0  0  0  0  0  0  0  0  0  0  0
  147.7296  138.6195  154.3028 C   0  0  0  0  0  0  0  0  0  0  0  0
  147.3467  132.8174  153.1046 C   0  0  0  0  0  0  0  0  0  0  0  0
  146.9495  131.3406  153.2595 C   0  0  0  0  0  0  0  0  0  0  0  0
  145.0012  128.7214  154.3812 H   0  0  0  0  0  0  0  0  0  0  0  0
  148.6753  128.3952  152.9862 H   0  0  0  0  0  0  0  0  0  0  0  0
  147.1203  128.7711  152.2784 H   0  0  0  0  0  0  0  0  0  0  0  0
  148.8268  130.5859  155.1062 H   0  0  0  0  0  0  0  0  0  0  0  0
  150.0531  130.1271  153.9396 H   0  0  0  0  0  0  0  0  0  0  0  0
  150.3975  132.4686  154.7113 H   0  0  0  0  0  0  0  0  0  0  0  0
  150.1154  132.3863  152.9884 H   0  0  0  0  0  0  0  0  0  0  0  0
  148.0588  133.1167  155.1218 H   0  0  0  0  0  0  0  0  0  0  0  0
  148.5806  135.0252  153.0301 H   0  0  0  0  0  0  0  0  0  0  0  0
  149.5372  136.7170  153.3138 H   0  0  0  0  0  0  0  0  0  0  0  0
  152.1819  136.3313  155.7392 H   0  0  0  0  0  0  0  0  0  0  0  0
  153.3518  138.2344  156.8120 H   0  0  0  0  0  0  0  0  0  0  0  0
  152.3982  140.5382  156.5515 H   0  0  0  0  0  0  0  0  0  0  0  0
  149.3340  141.3277  154.3663 H   0  0  0  0  0  0  0  0  0  0  0  0
  149.1223  140.8583  152.6778 H   0  0  0  0  0  0  0  0  0  0  0  0
  147.0251  141.2734  154.7903 H   0  0  0  0  0  0  0  0  0  0  0  0
  146.9023  141.6099  153.0627 H   0  0  0  0  0  0  0  0  0  0  0  0
  145.6906  139.3944  154.0607 H   0  0  0  0  0  0  0  0  0  0  0  0
  146.6181  139.2508  152.5631 H   0  0  0  0  0  0  0  0  0  0  0  0
  147.7005  137.5948  153.9316 H   0  0  0  0  0  0  0  0  0  0  0  0
  147.5420  138.6007  155.3771 H   0  0  0  0  0  0  0  0  0  0  0  0
  146.4681  133.4478  153.2460 H   0  0  0  0  0  0  0  0  0  0  0  0
  147.6918  132.9934  152.0845 H   0  0  0  0  0  0  0  0  0  0  0  0
  146.1960  131.0948  152.5107 H   0  0  0  0  0  0  0  0  0  0  0  0
  146.4890  131.1774  154.2350 H   0  0  0  0  0  0  0  0  0  0  0  0
  148.5232  130.6230  152.1973 H   0  0  0  0  0  0  0  0  0  0  0  0
  1  2  1  0  0  0  0
  1 26  1  0  0  0  0
  2  3  2  0  0  0  0
  2  4  1  0  0  0  0
  4  5  1  0  0  0  0
  4 27  1  0  0  0  0
  4 28  1  0  0  0  0
  5 25  1  0  0  0  0
  5  6  1  0  0  0  0
  5 51  1  0  0  0  0
  6  7  1  0  0  0  0
  6 29  1  0  0  0  0
  6 30  1  0  0  0  0
  7  8  1  0  0  0  0
  7 31  1  0  0  0  0
  7 32  1  0  0  0  0
  8  9  1  0  0  0  0
  8 24  1  0  0  0  0
  8 33  1  0  0  0  0
  9 10  1  0  0  0  0
  9 34  1  0  0  0  0
 10 11  2  0  0  0  0
 10 12  1  0  0  0  0
 12 13  1  0  0  0  0
 12 35  1  0  0  0  0
 13 18  1  0  0  0  0
 13 14  2  0  0  0  0
 14 15  1  0  0  0  0
 14 36  1  0  0  0  0
 15 16  2  0  0  0  0
 15 37  1  0  0  0  0
 16 17  1  0  0  0  0
 16 38  1  0  0  0  0
 17 18  2  0  0  0  0
 18 19  1  0  0  0  0
 19 23  1  0  0  0  0
 19 20  1  0  0  0  0
 20 21  1  0  0  0  0
 20 39  1  0  0  0  0
 20 40  1  0  0  0  0
 21 22  1  0  0  0  0
 21 41  1  0  0  0  0
 21 42  1  0  0  0  0
 22 23  1  0  0  0  0
 22 43  1  0  0  0  0
 22 44  1  0  0  0  0
 23 45  1  0  0  0  0
 23 46  1  0  0  0  0
 24 25  1  0  0  0  0
 24 47  1  0  0  0  0
 24 48  1  0  0  0  0
 25 49  1  0  0  0  0
 25 50  1  0  0  0  0
M  CHG  1   1  -1
M  CHG  1   5   1
M  END
> <s_m_source_file>
AV-unprocessed.smi

> <i_m_source_file_index>
1740

> <i_lp_mmshare_version>
43012

> <i_f3d_flags>
0

> <s_epik_input>
W05IMl1DKD1PKVtDSDJdTjFbQ0gyXVtDSDJdW0NIXShbQ0gyXVtDSDJdMSlbTkhdQyg9TylbTkhdYzJbY0hdW2NIXVtjSF1uYzJOM1tDSDJdW0NIMl1bQ0gyXVtDSDJdMw==

> <s_epik_cmdline>
J2VwaWtfcHl0aG9uJywgJy1waCcsICc3LjAnLCAnLXRuJywgJzgnLCAnLW1hJywgJzIwMCcsICctbWV0YWxfYmluZGluZycsICctaW1hZScsICc8aW5maWxlLm1hZT4nLCAnLW9tYWUnLCAnPG91dGZpbGUubWFlPic=

> <r_lp_tautomer_probability>
1

> <r_epik_Ionization_Penalty>
5.80652

> <r_epik_Ionization_Penalty_Charging>
5.7288

> <r_epik_Ionization_Penalty_Neutral>
0.0777157

> <r_epik_State_Penalty>
6.60246

> <r_epik_Charging_Adjusted_Penalty>
12.3313

> <i_epik_Tot_Q>
0

> <i_epik_Tot_abs_Q>
2

> <r_epik_Metal_State_Penalty>
2.64988

> <b_epik_Metal_Only>
1

> <s_lp_Force_Field>
OPLS_2005

> <r_lp_Energy>
35.8158

> <b_lp_Chiralities_Consistent>
1

> <s_lp_Variant>
AV-unprocessed.smi:1740-7

> <Gold.Version>
5.8.1

> <Gold.Id.Protein>
6NUR|6NUR_protein|mol2

> <Gold.PLP.Fitness>
45.3183

> <Gold.PLP.PLP>
-32.2796

> <Gold.PLP.part.hbond>
-5.8735

> <Gold.PLP.part.metal>
0.0000

> <Gold.PLP.part.buried>
2.3454

> <Gold.PLP.part.nonpolar>
-29.5728

> <Gold.PLP.part.repulsive>
1.8873

> <Gold.PLP.ligand.clash>
0.0220

> <Gold.PLP.ligand.torsion>
0.6154

> <Gold.PLP.Chemscore.Hbond>
4.6547

> <Gold.PLP.Chemscore.CHOScore>
0.0000

> <Gold.PLP.Chemscore.Metal>
0.0000

> <Gold.Chemscore.Hbonds>
donor molecule, donor type, donor heavy atom, donor atom, acceptor molecule, acceptor atom, score
      L1  H     1    26       P1 10956  1.00
      L1  H     5    51       P1 10747  1.00
      L1  H     9    34       P1  7948  0.88
      L1  H    12    35       P1  7948  1.00
      P1  H  7989  7998       L1    17  0.38

> <Gold.PLP.Chemscore.Internal.Correction>
0.3274

> <Gold.Rescore>
     Score         DG    S(hbond)    S(metal)    S(lipo)     H(rot)  DE(clash)    DE(int)     intcor
     17.62     -20.68       3.58        0.00      74.95       2.16       0.06       3.01       ----

> <Gold.Chemscore.Fitness>
17.6162

> <Gold.Chemscore.DG>
-20.6792

> <Gold.Chemscore.ZeroCoef>
-5.4800

> <Gold.Chemscore.Hbond>
3.5780

> <Gold.Chemscore.Metal>
0.0000

> <Gold.Chemscore.Lipo>
74.9457

> <Gold.Chemscore.Internal_Hbond>
0.0000

> <Gold.Chemscore.DEClash>
0.0558

> <Gold.Chemscore.DEInternal>
3.0072

> <Gold.Chemscore.Rot>
2.1562

> <Gold.Chemscore.Internal.Correction>
   9.000000E+99

> <Gold.Chemscore.Hbonds>
donor molecule, donor type, donor heavy atom, donor atom, acceptor molecule, acceptor atom, score
      L1  H     1    26       P1 10956  0.99
      L1  H     5    51       P1 10747  0.84
      L1  H     9    34       P1  7948  0.52
      L1  H    12    35       P1  7948  0.67
      P1  H  7989  7998       L1    17  0.02

> <Gold.Chemscore.Hbond.Weighted>
-11.9504

> <Gold.Chemscore.Metal.Weighted>
-0.0000

> <Gold.Chemscore.Lipo.Weighted>
-8.7687

> <Gold.Chemscore.Internal_Hbond.Weighted>
0.0000

> <Gold.Chemscore.DEClash.Weighted>
0.0558

> <Gold.Chemscore.DEInternal.Weighted>
3.0072

> <Gold.Chemscore.Rot.Weighted>
5.5198

> <Gold.Chemscore.Internal.Correction.Weighted>
   9.000000E+99

> <Gold.Protein.RotatedTorsions>
[ 6907 6896 6895 6894 ] final  141.46 input  -60.11 | X-H torsion
[ 7974 7965 7964 7962 ] final -122.80 input  175.53 | X-H torsion
[ 8008 7997 7996 7995 ] final  -76.79 input   59.86 | X-H torsion
[ 10167 10162 10161 10158 ] final  -98.02 input  -65.29 | X-H torsion
[ 10718 10713 10712 10709 ] final  -67.01 input   66.30 | X-H torsion
[ 10763 10752 10751 10750 ] final    1.00 input  -60.55 | X-H torsion
[ 11005 11000 10999 10996 ] final  -39.18 input  -57.11 | X-H torsion

> <Gold.Protein.ActiveResidues>
 VAL166  LYS551  ARG553  GLY616  TRP617  ASP618  TYR619  PRO620  LYS621  CYS622 
 ASP623  PHE694  ASN695  SER759  ASP760  ASP761  ALA762  ILE779  LEU786  VAL792 
 PHE793  MET794  SER795  GLU796  ALA797  LYS798  CYS799  TRP800  GLU811  SER814 

> <Gold.Protein.RotatedAtoms>
  152.2307  133.5056  159.5214 H   0  0  0  0  0  0  0  0  0  0  0  0  # atno 6907 bound_to 6896
  150.7037  134.1220  159.4047 H   0  0  0  0  0  0  0  0  0  0  0  0  # atno 6908 bound_to 6896
  151.9141  135.0326  160.0567 H   0  0  0  0  0  0  0  0  0  0  0  0  # atno 6909 bound_to 6896
  145.0255  140.8024  143.4355 H   0  0  0  0  0  0  0  0  0  0  0  0  # atno 7974 bound_to 7965
  154.5537  140.0721  156.8709 H   0  0  0  0  0  0  0  0  0  0  0  0  # atno 8008 bound_to 7997
  155.2943  140.3380  155.4232 H   0  0  0  0  0  0  0  0  0  0  0  0  # atno 8009 bound_to 7997
  156.1984  140.1712  156.7937 H   0  0  0  0  0  0  0  0  0  0  0  0  # atno 8010 bound_to 7997
  140.2773  143.3305  152.0476 H   0  0  0  0  0  0  0  0  0  0  0  0  # atno 10167 bound_to 10162
  156.0580  130.4271  150.1793 H   0  0  0  0  0  0  0  0  0  0  0  0  # atno 10718 bound_to 10713
  153.3136  135.6964  153.7093 H   0  0  0  0  0  0  0  0  0  0  0  0  # atno 10763 bound_to 10752
  153.5961  135.3471  155.2929 H   0  0  0  0  0  0  0  0  0  0  0  0  # atno 10764 bound_to 10752
  154.8581  135.4329  154.2281 H   0  0  0  0  0  0  0  0  0  0  0  0  # atno 10765 bound_to 10752
  141.0083  133.6920  156.2153 H   0  0  0  0  0  0  0  0  0  0  0  0  # atno 11005 bound_to 11000
  145.1839  139.2337  143.5278 LP  0  0  0  0  0  0  0  0  0  0  0  0  # atno 17320 bound_to 7965
  146.3491  140.1619  142.8590 LP  0  0  0  0  0  0  0  0  0  0  0  0  # atno 17321 bound_to 7965
  139.4972  144.6616  151.6452 LP  0  0  0  0  0  0  0  0  0  0  0  0  # atno 17342 bound_to 10162
  140.5841  143.9895  150.6285 LP  0  0  0  0  0  0  0  0  0  0  0  0  # atno 17343 bound_to 10162
  156.9866  130.9880  151.3425 LP  0  0  0  0  0  0  0  0  0  0  0  0  # atno 17370 bound_to 10713
  157.5567  130.8218  149.8213 LP  0  0  0  0  0  0  0  0  0  0  0  0  # atno 17371 bound_to 10713
  140.6776  134.4801  157.5588 LP  0  0  0  0  0  0  0  0  0  0  0  0  # atno 17394 bound_to 11000
  139.9075  134.8416  156.1649 LP  0  0  0  0  0  0  0  0  0  0  0  0  # atno 17395 bound_to 11000

$$$$
