AV-unprocessed.smi:890|AV-procd|sdf|4061|dock2
  -GOLD-   22720 1553D 1   1.00000     0.00000
 Structure written by MMmdl.
 53 56  0  0  0  0  0  0  0  0  3 V2000
  149.8021  137.5563  156.3141 O   0  0  0  0  0  0  0  0  0  0  0  0
  148.9022  137.1859  155.5621 C   0  0  0  0  0  0  0  0  0  0  0  0
  148.6705  135.9194  155.1755 N   0  0  0  0  0  0  0  0  0  0  0  0
  149.3696  134.7160  155.4935 C   0  0  0  0  0  0  0  0  0  0  0  0
  150.4818  134.6537  156.3744 C   0  0  0  0  0  0  0  0  0  0  0  0
  151.1098  133.4172  156.6231 C   0  0  0  0  0  0  0  0  0  0  0  0
  150.6225  132.2596  155.9906 C   0  0  0  0  0  0  0  0  0  0  0  0
  149.5651  132.3493  155.1584 N   0  3  0  0  0  0  0  0  0  0  0  0
  148.9245  133.5126  154.8860 C   0  0  0  0  0  0  0  0  0  0  0  0
  147.8351  133.4930  153.9974 N   0  0  0  0  0  0  0  0  0  0  0  0
  146.6790  132.7260  154.4311 C   0  0  0  0  0  0  0  0  0  0  0  0
  145.8210  132.5400  153.1769 C   0  0  0  0  0  0  0  0  0  0  0  0
  146.7893  132.7368  152.0035 C   0  0  0  0  0  0  0  0  0  0  0  0
  148.1434  133.0301  152.6549 C   0  0  0  0  0  0  0  0  0  0  0  0
  148.0105  138.0244  155.0147 N   0  0  0  0  0  0  0  0  0  0  0  0
  147.9765  139.4700  155.2188 C   0  0  2  0  0  0  0  0  0  0  0  0
  149.1765  140.1222  154.5107 C   0  0  0  0  0  0  0  0  0  0  0  0
  149.2381  141.6361  154.7901 C   0  0  0  0  0  0  0  0  0  0  0  0
  149.2556  141.9354  156.2448 N   0  3  2  0  0  0  0  0  0  0  0  0
  150.5564  141.6373  156.8897 C   0  0  0  0  0  0  0  0  0  0  0  0
  150.5040  141.6555  158.3996 C   0  0  0  0  0  0  0  0  0  0  0  0
  151.1367  142.8067  157.6500 C   0  0  0  0  0  0  0  0  0  0  0  0
  148.0966  141.3316  156.9506 C   0  0  0  0  0  0  0  0  0  0  0  0
  148.0055  139.8111  156.7215 C   0  0  0  0  0  0  0  0  0  0  0  0
  147.8787  135.7945  154.5620 H   0  0  0  0  0  0  0  0  0  0  0  0
  150.8797  135.5232  156.8710 H   0  0  0  0  0  0  0  0  0  0  0  0
  151.9569  133.3597  157.2912 H   0  0  0  0  0  0  0  0  0  0  0  0
  151.0432  131.2734  156.1225 H   0  0  0  0  0  0  0  0  0  0  0  0
  146.9851  131.7545  154.8214 H   0  0  0  0  0  0  0  0  0  0  0  0
  146.1333  133.2489  155.2173 H   0  0  0  0  0  0  0  0  0  0  0  0
  145.3418  131.5607  153.1603 H   0  0  0  0  0  0  0  0  0  0  0  0
  145.0346  133.2949  153.1394 H   0  0  0  0  0  0  0  0  0  0  0  0
  146.8379  131.8622  151.3544 H   0  0  0  0  0  0  0  0  0  0  0  0
  146.4683  133.5836  151.3954 H   0  0  0  0  0  0  0  0  0  0  0  0
  148.7032  133.7819  152.0977 H   0  0  0  0  0  0  0  0  0  0  0  0
  148.7458  132.1215  152.6937 H   0  0  0  0  0  0  0  0  0  0  0  0
  147.3011  137.6349  154.4110 H   0  0  0  0  0  0  0  0  0  0  0  0
  147.0614  139.8719  154.7793 H   0  0  0  0  0  0  0  0  0  0  0  0
  150.1043  139.6498  154.8361 H   0  0  0  0  0  0  0  0  0  0  0  0
  149.1105  139.9526  153.4354 H   0  0  0  0  0  0  0  0  0  0  0  0
  150.1118  142.0769  154.3086 H   0  0  0  0  0  0  0  0  0  0  0  0
  148.3674  142.1234  154.3492 H   0  0  0  0  0  0  0  0  0  0  0  0
  151.2132  140.9394  156.3741 H   0  0  0  0  0  0  0  0  0  0  0  0
  149.5453  141.8373  158.8817 H   0  0  0  0  0  0  0  0  0  0  0  0
  151.1718  140.9814  158.9323 H   0  0  0  0  0  0  0  0  0  0  0  0
  152.2209  142.8917  157.6907 H   0  0  0  0  0  0  0  0  0  0  0  0
  150.5969  143.7519  157.6337 H   0  0  0  0  0  0  0  0  0  0  0  0
  148.1532  141.5532  158.0170 H   0  0  0  0  0  0  0  0  0  0  0  0
  147.1858  141.8088  156.5865 H   0  0  0  0  0  0  0  0  0  0  0  0
  147.1109  139.4252  157.2116 H   0  0  0  0  0  0  0  0  0  0  0  0
  148.8510  139.3151  157.1999 H   0  0  0  0  0  0  0  0  0  0  0  0
  149.1421  142.9358  156.3263 H   0  0  0  0  0  0  0  0  0  0  0  0
  149.2311  131.4960  154.7097 H   0  0  0  0  0  0  0  0  0  0  0  0
  1  2  2  0  0  0  0
  2  3  1  0  0  0  0
  2 15  1  0  0  0  0
  3  4  1  0  0  0  0
  3 25  1  0  0  0  0
  4  9  1  0  0  0  0
  4  5  2  0  0  0  0
  5  6  1  0  0  0  0
  5 26  1  0  0  0  0
  6  7  2  0  0  0  0
  6 27  1  0  0  0  0
  7  8  1  0  0  0  0
  7 28  1  0  0  0  0
  8  9  2  0  0  0  0
  8 53  1  0  0  0  0
  9 10  1  0  0  0  0
 10 14  1  0  0  0  0
 10 11  1  0  0  0  0
 11 12  1  0  0  0  0
 11 29  1  0  0  0  0
 11 30  1  0  0  0  0
 12 13  1  0  0  0  0
 12 31  1  0  0  0  0
 12 32  1  0  0  0  0
 13 14  1  0  0  0  0
 13 33  1  0  0  0  0
 13 34  1  0  0  0  0
 14 35  1  0  0  0  0
 14 36  1  0  0  0  0
 15 16  1  0  0  0  0
 15 37  1  0  0  0  0
 16 24  1  0  0  0  0
 16 17  1  0  0  0  0
 16 38  1  0  0  0  0
 17 18  1  0  0  0  0
 17 39  1  0  0  0  0
 17 40  1  0  0  0  0
 18 19  1  0  0  0  0
 18 41  1  0  0  0  0
 18 42  1  0  0  0  0
 19 20  1  0  0  0  0
 19 23  1  0  0  0  0
 19 52  1  0  0  0  0
 20 22  1  0  0  0  0
 20 21  1  0  0  0  0
 20 43  1  0  0  0  0
 21 22  1  0  0  0  0
 21 44  1  0  0  0  0
 21 45  1  0  0  0  0
 22 46  1  0  0  0  0
 22 47  1  0  0  0  0
 23 24  1  0  0  0  0
 23 48  1  0  0  0  0
 23 49  1  0  0  0  0
 24 50  1  0  0  0  0
 24 51  1  0  0  0  0
M  CHG  1   8   1
M  CHG  1  19   1
M  END
> <s_m_source_file>
AV-unprocessed.smi

> <i_m_source_file_index>
890

> <i_lp_mmshare_version>
43012

> <i_f3d_flags>
0

> <s_epik_input>
W0NIMl0xW0NIMl1bQ0hdMU4oW0NIMl1bQ0gyXTIpW0NIMl1bQ0gyXVtDSF0yW05IXUMoPU8pW05IXWMzW2NIXVtjSF1bY0hdbmMzTjRbQ0gyXVtDSDJdW0NIMl1bQ0gyXTQ=

> <s_epik_cmdline>
J2VwaWtfcHl0aG9uJywgJy1waCcsICc3LjAnLCAnLXRuJywgJzgnLCAnLW1hJywgJzIwMCcsICctbWV0YWxfYmluZGluZycsICctaW1hZScsICc8aW5maWxlLm1hZT4nLCAnLW9tYWUnLCAnPG91dGZpbGUubWFlPic=

> <r_lp_tautomer_probability>
0.999994

> <r_epik_Ionization_Penalty>
1.36901

> <r_epik_Ionization_Penalty_Charging>
1.36899

> <r_epik_Ionization_Penalty_Neutral>
1.88098e-05

> <r_epik_State_Penalty>
1.38441

> <r_epik_Charging_Adjusted_Penalty>
2.7534

> <i_epik_Tot_Q>
2

> <i_epik_Tot_abs_Q>
2

> <r_epik_Metal_State_Penalty>
1.45718

> <b_epik_Metal_Only>
0

> <s_lp_Force_Field>
OPLS_2005

> <r_lp_Energy>
67.0325

> <b_lp_Chiralities_Consistent>
1

> <s_lp_Variant>
AV-unprocessed.smi:890-5

> <Gold.Version>
5.8.1

> <Gold.Id.Protein>
6NUR|6NUR_protein|mol2

> <Gold.PLP.Fitness>
37.9831

> <Gold.PLP.PLP>
-32.5482

> <Gold.PLP.part.hbond>
-1.3435

> <Gold.PLP.part.metal>
0.0000

> <Gold.PLP.part.buried>
-4.4438

> <Gold.PLP.part.nonpolar>
-26.6325

> <Gold.PLP.part.repulsive>
0.1993

> <Gold.PLP.ligand.clash>
0.0000

> <Gold.PLP.ligand.torsion>
0.9277

> <Gold.PLP.Chemscore.Hbond>
2.0000

> <Gold.PLP.Chemscore.CHOScore>
0.0000

> <Gold.PLP.Chemscore.Metal>
0.0000

> <Gold.Chemscore.Hbonds>
donor molecule, donor type, donor heavy atom, donor atom, acceptor molecule, acceptor atom, score
      L1  H    19    52       P1  8028  2.00

> <Gold.PLP.Chemscore.Internal.Correction>
1.2903

> <Gold.Rescore>
     Score         DG    S(hbond)    S(metal)    S(lipo)     H(rot)  DE(clash)    DE(int)     intcor
     12.06     -15.40       0.99        0.00      86.04       1.35       0.27       3.07       ----

> <Gold.Chemscore.Fitness>
12.0633

> <Gold.Chemscore.DG>
-15.4043

> <Gold.Chemscore.ZeroCoef>
-5.4800

> <Gold.Chemscore.Hbond>
0.9913

> <Gold.Chemscore.Metal>
0.0000

> <Gold.Chemscore.Lipo>
86.0390

> <Gold.Chemscore.Internal_Hbond>
0.0000

> <Gold.Chemscore.DEClash>
0.2696

> <Gold.Chemscore.DEInternal>
3.0714

> <Gold.Chemscore.Rot>
1.3489

> <Gold.Chemscore.Internal.Correction>
   9.000000E+99

> <Gold.Chemscore.Hbonds>
donor molecule, donor type, donor heavy atom, donor atom, acceptor molecule, acceptor atom, score
      L1  H    19    52       P1  8028  0.98

> <Gold.Chemscore.Hbond.Weighted>
-3.3110

> <Gold.Chemscore.Metal.Weighted>
-0.0000

> <Gold.Chemscore.Lipo.Weighted>
-10.0666

> <Gold.Chemscore.Internal_Hbond.Weighted>
0.0000

> <Gold.Chemscore.DEClash.Weighted>
0.2696

> <Gold.Chemscore.DEInternal.Weighted>
3.0714

> <Gold.Chemscore.Rot.Weighted>
3.4532

> <Gold.Chemscore.Internal.Correction.Weighted>
   9.000000E+99

> <Gold.Protein.RotatedTorsions>
[ 6907 6896 6895 6894 ] final   33.08 input  -60.11 | X-H torsion
[ 7974 7965 7964 7962 ] final  120.85 input  175.53 | X-H torsion
[ 8008 7997 7996 7995 ] final  -72.44 input   59.86 | X-H torsion
[ 10167 10162 10161 10158 ] final  -77.56 input  -65.29 | X-H torsion
[ 10718 10713 10712 10709 ] final -155.88 input   66.30 | X-H torsion
[ 10763 10752 10751 10750 ] final -174.91 input  -60.55 | X-H torsion
[ 11005 11000 10999 10996 ] final  -46.46 input  -57.11 | X-H torsion

> <Gold.Protein.ActiveResidues>
 VAL166  LYS551  ARG553  GLY616  TRP617  ASP618  TYR619  PRO620  LYS621  CYS622 
 ASP623  PHE694  ASN695  SER759  ASP760  ASP761  ALA762  ILE779  LEU786  VAL792 
 PHE793  MET794  SER795  GLU796  ALA797  LYS798  CYS799  TRP800  GLU811  SER814 

> <Gold.Protein.RotatedAtoms>
  152.0835  134.9455  160.0572 H   0  0  0  0  0  0  0  0  0  0  0  0  # atno 6907 bound_to 6896
  152.0735  133.4113  159.4478 H   0  0  0  0  0  0  0  0  0  0  0  0  # atno 6908 bound_to 6896
  150.6836  134.2985  159.4740 H   0  0  0  0  0  0  0  0  0  0  0  0  # atno 6909 bound_to 6896
  145.1262  139.3357  143.4688 H   0  0  0  0  0  0  0  0  0  0  0  0  # atno 7974 bound_to 7965
  154.5166  140.0797  156.8093 H   0  0  0  0  0  0  0  0  0  0  0  0  # atno 8008 bound_to 7997
  155.3666  140.3420  155.4224 H   0  0  0  0  0  0  0  0  0  0  0  0  # atno 8009 bound_to 7997
  156.1635  140.1596  156.8559 H   0  0  0  0  0  0  0  0  0  0  0  0  # atno 8010 bound_to 7997
  140.4759  143.2414  151.8133 H   0  0  0  0  0  0  0  0  0  0  0  0  # atno 10167 bound_to 10162
  156.5189  130.8469  151.2674 H   0  0  0  0  0  0  0  0  0  0  0  0  # atno 10718 bound_to 10713
  154.5907  135.2845  155.0638 H   0  0  0  0  0  0  0  0  0  0  0  0  # atno 10763 bound_to 10752
  154.1940  135.6436  153.5072 H   0  0  0  0  0  0  0  0  0  0  0  0  # atno 10764 bound_to 10752
  153.0120  135.5453  154.6591 H   0  0  0  0  0  0  0  0  0  0  0  0  # atno 10765 bound_to 10752
  141.0580  133.6719  156.3158 H   0  0  0  0  0  0  0  0  0  0  0  0  # atno 11005 bound_to 11000
  146.3517  140.1242  142.8599 LP  0  0  0  0  0  0  0  0  0  0  0  0  # atno 17320 bound_to 7965
  145.0685  140.9139  143.4896 LP  0  0  0  0  0  0  0  0  0  0  0  0  # atno 17321 bound_to 7965
  139.4825  144.4834  151.9278 LP  0  0  0  0  0  0  0  0  0  0  0  0  # atno 17342 bound_to 10162
  140.3919  144.2605  150.5899 LP  0  0  0  0  0  0  0  0  0  0  0  0  # atno 17343 bound_to 10162
  157.7440  130.9924  150.2635 LP  0  0  0  0  0  0  0  0  0  0  0  0  # atno 17370 bound_to 10713
  156.3169  130.3780  149.7611 LP  0  0  0  0  0  0  0  0  0  0  0  0  # atno 17371 bound_to 10713
  140.5925  134.5636  157.5502 LP  0  0  0  0  0  0  0  0  0  0  0  0  # atno 17394 bound_to 11000
  139.9407  134.7792  156.0686 LP  0  0  0  0  0  0  0  0  0  0  0  0  # atno 17395 bound_to 11000

$$$$
