AV-unprocessed.smi:1738|AV-procd|sdf|7000|dock10
  -GOLD-   22720 8213D 1   1.00000     0.00000
 Structure written by MMmdl.
 46 48  0  0  0  0  0  0  0  0  2 V2000
  152.3135  138.9523  158.1848 C   0  0  0  0  0  0  0  0  0  0  0  0
  152.6481  137.1456  158.2633 S   0  0  0  0  0  0  0  0  0  0  0  0
  154.0037  136.9042  157.7451 O   0  0  0  0  0  0  0  0  0  0  0  0
  152.2925  136.6791  159.6126 O   0  0  0  0  0  0  0  0  0  0  0  0
  151.4816  136.4465  157.1007 C   0  0  0  0  0  0  0  0  0  0  0  0
  150.2249  135.9846  157.5400 C   0  0  0  0  0  0  0  0  0  0  0  0
  149.3273  135.4838  156.5779 C   0  0  0  0  0  0  0  0  0  0  0  0
  149.7157  135.4780  155.2145 C   0  0  0  0  0  0  0  0  0  0  0  0
  148.9140  135.0041  154.1389 N   0  0  0  0  0  0  0  0  0  0  0  0
  147.8959  134.1265  154.1528 C   0  0  0  0  0  0  0  0  0  0  0  0
  147.4799  133.5234  155.1407 O   0  0  0  0  0  0  0  0  0  0  0  0
  147.3724  133.9775  152.9272 N   0  0  0  0  0  0  0  0  0  0  0  0
  146.2383  133.1167  152.5944 C   0  0  1  0  0  0  0  0  0  0  0  0
  145.8214  133.2098  151.1145 C   0  0  0  0  0  0  0  0  0  0  0  0
  145.4703  131.7708  150.7234 C   0  0  0  0  0  0  0  0  0  0  0  0
  146.4125  130.9783  151.5219 N   0  3  2  0  0  0  0  0  0  0  0  0
  146.2251  129.5155  151.5969 C   0  0  0  0  0  0  0  0  0  0  0  0
  147.4454  128.9064  152.3210 C   0  0  0  0  0  0  0  0  0  0  0  0
  147.7235  129.5898  153.6796 C   0  0  0  0  0  0  0  0  0  0  0  0
  147.7725  131.1282  153.5524 C   0  0  0  0  0  0  0  0  0  0  0  0
  146.4917  131.6118  152.8492 C   0  0  1  0  0  0  0  0  0  0  0  0
  150.9991  135.9719  154.8953 C   0  0  0  0  0  0  0  0  0  0  0  0
  151.8675  136.4553  155.8076 N   0  0  0  0  0  0  0  0  0  0  0  0
  152.9772  139.4744  158.8734 H   0  0  0  0  0  0  0  0  0  0  0  0
  151.2773  139.1430  158.4634 H   0  0  0  0  0  0  0  0  0  0  0  0
  152.4885  139.3111  157.1707 H   0  0  0  0  0  0  0  0  0  0  0  0
  149.9513  136.0081  158.5844 H   0  0  0  0  0  0  0  0  0  0  0  0
  148.3704  135.1181  156.9130 H   0  0  0  0  0  0  0  0  0  0  0  0
  149.1188  135.4217  153.2428 H   0  0  0  0  0  0  0  0  0  0  0  0
  147.7781  134.5102  152.1716 H   0  0  0  0  0  0  0  0  0  0  0  0
  145.3786  133.4210  153.1951 H   0  0  0  0  0  0  0  0  0  0  0  0
  144.9930  133.9004  150.9531 H   0  0  0  0  0  0  0  0  0  0  0  0
  146.6591  133.5528  150.5054 H   0  0  0  0  0  0  0  0  0  0  0  0
  144.4464  131.5309  151.0149 H   0  0  0  0  0  0  0  0  0  0  0  0
  145.5807  131.5850  149.6548 H   0  0  0  0  0  0  0  0  0  0  0  0
  145.2996  129.2810  152.1247 H   0  0  0  0  0  0  0  0  0  0  0  0
  146.1393  129.1020  150.5916 H   0  0  0  0  0  0  0  0  0  0  0  0
  147.2997  127.8353  152.4641 H   0  0  0  0  0  0  0  0  0  0  0  0
  148.3255  129.0121  151.6854 H   0  0  0  0  0  0  0  0  0  0  0  0
  146.9395  129.3131  154.3856 H   0  0  0  0  0  0  0  0  0  0  0  0
  148.6588  129.2194  154.1002 H   0  0  0  0  0  0  0  0  0  0  0  0
  147.8605  131.5765  154.5423 H   0  0  0  0  0  0  0  0  0  0  0  0
  148.6546  131.4288  152.9856 H   0  0  0  0  0  0  0  0  0  0  0  0
  145.6394  131.2566  153.4329 H   0  0  0  0  0  0  0  0  0  0  0  0
  151.3402  135.9859  153.8704 H   0  0  0  0  0  0  0  0  0  0  0  0
  147.3142  131.1268  151.0917 H   0  0  0  0  0  0  0  0  0  0  0  0
  1  2  1  0  0  0  0
  1 24  1  0  0  0  0
  1 25  1  0  0  0  0
  1 26  1  0  0  0  0
  2  3  2  0  0  0  0
  2  4  2  0  0  0  0
  2  5  1  0  0  0  0
  5 23  1  0  0  0  0
  5  6  2  0  0  0  0
  6  7  1  0  0  0  0
  6 27  1  0  0  0  0
  7  8  2  0  0  0  0
  7 28  1  0  0  0  0
  8  9  1  0  0  0  0
  8 22  1  0  0  0  0
  9 10  1  0  0  0  0
  9 29  1  0  0  0  0
 10 11  2  0  0  0  0
 10 12  1  0  0  0  0
 12 13  1  0  0  0  0
 12 30  1  0  0  0  0
 13 21  1  0  0  0  0
 13 14  1  0  0  0  0
 13 31  1  0  0  0  0
 14 15  1  0  0  0  0
 14 32  1  0  0  0  0
 14 33  1  0  0  0  0
 15 16  1  0  0  0  0
 15 34  1  0  0  0  0
 15 35  1  0  0  0  0
 16 21  1  0  0  0  0
 16 17  1  0  0  0  0
 16 46  1  0  0  0  0
 17 18  1  0  0  0  0
 17 36  1  0  0  0  0
 17 37  1  0  0  0  0
 18 19  1  0  0  0  0
 18 38  1  0  0  0  0
 18 39  1  0  0  0  0
 19 20  1  0  0  0  0
 19 40  1  0  0  0  0
 19 41  1  0  0  0  0
 20 21  1  0  0  0  0
 20 42  1  0  0  0  0
 20 43  1  0  0  0  0
 21 44  1  0  0  0  0
 22 23  2  0  0  0  0
 22 45  1  0  0  0  0
M  CHG  1  16   1
M  END
> <s_m_source_file>
AV-unprocessed.smi

> <i_m_source_file_index>
1738

> <i_lp_mmshare_version>
43012

> <i_f3d_flags>
0

> <s_epik_input>
W0NIM11TKD1PKSg9TyljMVtjSF1bY0hdYyhbY0hdbjEpW05IXUMoPU8pW05IXVtDQEhdKFtDSDJdW0NIMl0yKVtDQEBIXShOMjMpW0NIMl1bQ0gyXVtDSDJdW0NIMl0z

> <s_epik_cmdline>
J2VwaWtfcHl0aG9uJywgJy1waCcsICc3LjAnLCAnLXRuJywgJzgnLCAnLW1hJywgJzIwMCcsICctbWV0YWxfYmluZGluZycsICctaW1hZScsICc8aW5maWxlLm1hZT4nLCAnLW9tYWUnLCAnPG91dGZpbGUubWFlPic=

> <r_epik_Ionization_Penalty>
0.00100042

> <r_epik_Ionization_Penalty_Charging>
0.000974069

> <r_epik_Ionization_Penalty_Neutral>
2.63543e-05

> <r_epik_State_Penalty>
0.000633842

> <r_epik_Charging_Adjusted_Penalty>
0.00160791

> <i_epik_Tot_Q>
1

> <i_epik_Tot_abs_Q>
1

> <r_epik_Metal_State_Penalty>
-0

> <b_epik_Metal_Only>
0

> <s_lp_Force_Field>
OPLS_2005

> <r_lp_Energy>
43.1339

> <b_lp_Chiralities_Consistent>
1

> <s_lp_Variant>
AV-unprocessed.smi:1738-4

> <Gold.Version>
5.8.1

> <Gold.Id.Protein>
6NUR|6NUR_protein|mol2

> <Gold.PLP.Fitness>
44.2721

> <Gold.PLP.PLP>
-28.4933

> <Gold.PLP.part.hbond>
-4.9389

> <Gold.PLP.part.metal>
0.0000

> <Gold.PLP.part.buried>
-2.8289

> <Gold.PLP.part.nonpolar>
-20.4112

> <Gold.PLP.part.repulsive>
0.0794

> <Gold.PLP.ligand.clash>
0.0000

> <Gold.PLP.ligand.torsion>
1.1388

> <Gold.PLP.Chemscore.Hbond>
4.3453

> <Gold.PLP.Chemscore.CHOScore>
1.0000

> <Gold.PLP.Chemscore.Metal>
0.0000

> <Gold.Chemscore.Hbonds>
donor molecule, donor type, donor heavy atom, donor atom, acceptor molecule, acceptor atom, score
      L1  H     9    29       P1  7948  1.00
      L1  H    12    30       P1  7948  0.77
      L1  H    16    46       P1 10747  1.00
      P1  H  6896  6907       L1     4  1.00
      P1  H 10752 10765       L1    23  0.62
      L1  C    22    45       P1  7949  1.00

> <Gold.PLP.Chemscore.Internal.Correction>
2.0207

> <Gold.Rescore>
     Score         DG    S(hbond)    S(metal)    S(lipo)     H(rot)  DE(clash)    DE(int)     intcor
     19.20     -23.05       3.59        0.00      69.74       1.00       0.19       3.67       ----

> <Gold.Chemscore.Fitness>
19.1979

> <Gold.Chemscore.DG>
-23.0535

> <Gold.Chemscore.ZeroCoef>
-5.4800

> <Gold.Chemscore.Hbond>
3.5850

> <Gold.Chemscore.Metal>
0.0000

> <Gold.Chemscore.Lipo>
69.7394

> <Gold.Chemscore.Internal_Hbond>
0.0000

> <Gold.Chemscore.DEClash>
0.1889

> <Gold.Chemscore.DEInternal>
3.6667

> <Gold.Chemscore.Rot>
1.0000

> <Gold.Chemscore.Internal.Correction>
   9.000000E+99

> <Gold.Chemscore.Hbonds>
donor molecule, donor type, donor heavy atom, donor atom, acceptor molecule, acceptor atom, score
      L1  H     9    29       P1  7948  0.39
      L1  H    12    30       P1  7948  0.32
      L1  H    16    46       P1 10747  1.00
      P1  H  6896  6907       L1     4  0.97
      P1  H 10752 10765       L1    23  0.05

> <Gold.Chemscore.Hbond.Weighted>
-11.9740

> <Gold.Chemscore.Metal.Weighted>
-0.0000

> <Gold.Chemscore.Lipo.Weighted>
-8.1595

> <Gold.Chemscore.Internal_Hbond.Weighted>
0.0000

> <Gold.Chemscore.DEClash.Weighted>
0.1889

> <Gold.Chemscore.DEInternal.Weighted>
3.6667

> <Gold.Chemscore.Rot.Weighted>
2.5600

> <Gold.Chemscore.Internal.Correction.Weighted>
   9.000000E+99

> <Gold.Protein.RotatedTorsions>
[ 6907 6896 6895 6894 ] final   27.07 input  -60.11 | X-H torsion
[ 7974 7965 7964 7962 ] final  -20.72 input  175.53 | X-H torsion
[ 8008 7997 7996 7995 ] final   32.74 input   59.86 | X-H torsion
[ 10167 10162 10161 10158 ] final   62.25 input  -65.29 | X-H torsion
[ 10718 10713 10712 10709 ] final  -97.34 input   66.30 | X-H torsion
[ 10763 10752 10751 10750 ] final -139.78 input  -60.55 | X-H torsion
[ 11005 11000 10999 10996 ] final  -37.35 input  -57.11 | X-H torsion

> <Gold.Protein.ActiveResidues>
 VAL166  LYS551  ARG553  GLY616  TRP617  ASP618  TYR619  PRO620  LYS621  CYS622 
 ASP623  PHE694  ASN695  SER759  ASP760  ASP761  ALA762  ILE779  LEU786  VAL792 
 PHE793  MET794  SER795  GLU796  ALA797  LYS798  CYS799  TRP800  GLU811  SER814 

> <Gold.Protein.RotatedAtoms>
  151.9968  134.9950  160.0563 H   0  0  0  0  0  0  0  0  0  0  0  0  # atno 6907 bound_to 6896
  152.1557  133.4545  159.4844 H   0  0  0  0  0  0  0  0  0  0  0  0  # atno 6908 bound_to 6896
  150.6881  134.2052  159.4381 H   0  0  0  0  0  0  0  0  0  0  0  0  # atno 6909 bound_to 6896
  146.1772  140.4242  142.8508 H   0  0  0  0  0  0  0  0  0  0  0  0  # atno 7974 bound_to 7965
  155.1274  140.3254  155.4482 H   0  0  0  0  0  0  0  0  0  0  0  0  # atno 8008 bound_to 7997
  156.2644  140.2016  156.6343 H   0  0  0  0  0  0  0  0  0  0  0  0  # atno 8009 bound_to 7997
  154.6638  140.0544  157.0078 H   0  0  0  0  0  0  0  0  0  0  0  0  # atno 8010 bound_to 7997
  140.1459  144.4509  150.6785 H   0  0  0  0  0  0  0  0  0  0  0  0  # atno 10167 bound_to 10162
  156.0081  130.5190  150.6359 H   0  0  0  0  0  0  0  0  0  0  0  0  # atno 10718 bound_to 10713
  154.8599  135.3572  154.5602 H   0  0  0  0  0  0  0  0  0  0  0  0  # atno 10763 bound_to 10752
  153.6218  135.7005  153.5312 H   0  0  0  0  0  0  0  0  0  0  0  0  # atno 10764 bound_to 10752
  153.3123  135.4175  155.1306 H   0  0  0  0  0  0  0  0  0  0  0  0  # atno 10765 bound_to 10752
  140.9945  133.6987  156.1910 H   0  0  0  0  0  0  0  0  0  0  0  0  # atno 11005 bound_to 11000
  144.8256  140.6623  143.6324 LP  0  0  0  0  0  0  0  0  0  0  0  0  # atno 17320 bound_to 7965
  145.4177  139.1569  143.4091 LP  0  0  0  0  0  0  0  0  0  0  0  0  # atno 17321 bound_to 7965
  140.6732  143.2294  151.5573 LP  0  0  0  0  0  0  0  0  0  0  0  0  # atno 17342 bound_to 10162
  139.5449  144.2548  152.1423 LP  0  0  0  0  0  0  0  0  0  0  0  0  # atno 17343 bound_to 10162
  157.4149  131.0829  151.1186 LP  0  0  0  0  0  0  0  0  0  0  0  0  # atno 17370 bound_to 10713
  157.1806  130.6308  149.5671 LP  0  0  0  0  0  0  0  0  0  0  0  0  # atno 17371 bound_to 10713
  140.6987  134.4587  157.5587 LP  0  0  0  0  0  0  0  0  0  0  0  0  # atno 17394 bound_to 11000
  139.9008  134.8560  156.1904 LP  0  0  0  0  0  0  0  0  0  0  0  0  # atno 17395 bound_to 11000

$$$$
