AV-unprocessed.smi:415|AV-procd|sdf|2518|dock10
  -GOLD-   2262022473D 1   1.00000     0.00000
 Structure written by MMmdl.
 53 54  0  0  0  0  0  0  0  0  1 V2000
  150.4651  134.6552  154.8392 C   0  0  0  0  0  0  0  0  0  0  0  0
  149.1055  134.4627  155.1867 O   0  0  0  0  0  0  0  0  0  0  0  0
  148.2746  135.5232  154.7451 C   0  0  0  0  0  0  0  0  0  0  0  0
  148.3675  136.7061  155.7225 C   0  0  0  0  0  0  0  0  0  0  0  0
  149.6212  137.4298  155.6225 N   0  0  0  0  0  0  0  0  0  0  0  0
  149.9686  138.1918  154.5105 C   0  0  0  0  0  0  0  0  0  0  0  0
  149.0851  138.2970  153.4512 N   0  0  0  0  0  0  0  0  0  0  0  0
  151.1501  138.8444  154.4441 C   0  0  0  0  0  0  0  0  0  0  0  0
  152.1209  138.7894  155.5279 C   0  0  0  0  0  0  0  0  0  0  0  0
  153.2164  139.3485  155.4722 O   0  0  0  0  0  0  0  0  0  0  0  0
  151.7351  138.0359  156.6601 N   0  0  0  0  0  0  0  0  0  0  0  0
  152.6823  137.9234  157.7947 C   0  0  0  0  0  0  0  0  0  0  0  0
  153.1666  139.2684  158.3663 C   0  0  0  0  0  0  0  0  0  0  0  0
  154.3638  139.4186  158.6061 O   0  0  0  0  0  0  0  0  0  0  0  0
  152.2515  140.2325  158.5683 N   0  0  0  0  0  0  0  0  0  0  0  0
  152.5046  141.5872  159.0512 C   0  0  2  0  0  0  0  0  0  0  0  0
  152.9278  141.5073  160.5305 C   0  0  0  0  0  0  0  0  0  0  0  0
  153.1186  142.8991  161.1487 C   0  0  0  0  0  0  0  0  0  0  0  0
  151.8559  143.7585  160.9790 C   0  0  0  0  0  0  0  0  0  0  0  0
  151.4250  143.8769  159.5027 C   0  0  1  0  0  0  0  0  0  0  0  0
  152.3699  144.8008  158.7077 C   0  0  0  0  0  0  0  0  0  0  0  0
  151.2390  142.4685  158.8777 C   0  0  1  0  0  0  0  0  0  0  0  0
  150.7405  142.5336  157.4201 C   0  0  0  0  0  0  0  0  0  0  0  0
  150.4978  137.3552  156.7356 C   0  0  0  0  0  0  0  0  0  0  0  0
  150.2085  136.7060  157.7444 O   0  0  0  0  0  0  0  0  0  0  0  0
  151.0589  133.8186  155.2073 H   0  0  0  0  0  0  0  0  0  0  0  0
  150.8607  135.5697  155.2830 H   0  0  0  0  0  0  0  0  0  0  0  0
  150.5911  134.7069  153.7569 H   0  0  0  0  0  0  0  0  0  0  0  0
  148.5995  135.8466  153.7552 H   0  0  0  0  0  0  0  0  0  0  0  0
  147.2410  135.1864  154.6523 H   0  0  0  0  0  0  0  0  0  0  0  0
  147.5386  137.4063  155.6090 H   0  0  0  0  0  0  0  0  0  0  0  0
  148.2995  136.3608  156.7538 H   0  0  0  0  0  0  0  0  0  0  0  0
  148.1872  137.8345  153.4580 H   0  0  0  0  0  0  0  0  0  0  0  0
  149.3109  138.8222  152.6187 H   0  0  0  0  0  0  0  0  0  0  0  0
  151.3922  139.4237  153.5645 H   0  0  0  0  0  0  0  0  0  0  0  0
  152.2515  137.3446  158.6131 H   0  0  0  0  0  0  0  0  0  0  0  0
  153.5603  137.3441  157.5044 H   0  0  0  0  0  0  0  0  0  0  0  0
  151.2924  140.0123  158.3423 H   0  0  0  0  0  0  0  0  0  0  0  0
  153.3247  142.0355  158.4886 H   0  0  0  0  0  0  0  0  0  0  0  0
  152.1718  140.9651  161.1009 H   0  0  0  0  0  0  0  0  0  0  0  0
  153.8518  140.9353  160.6239 H   0  0  0  0  0  0  0  0  0  0  0  0
  153.3590  142.8020  162.2078 H   0  0  0  0  0  0  0  0  0  0  0  0
  153.9735  143.3934  160.6864 H   0  0  0  0  0  0  0  0  0  0  0  0
  151.0439  143.3123  161.5549 H   0  0  0  0  0  0  0  0  0  0  0  0
  152.0181  144.7486  161.4065 H   0  0  0  0  0  0  0  0  0  0  0  0
  150.4496  144.3652  159.4990 H   0  0  0  0  0  0  0  0  0  0  0  0
  153.3706  144.3812  158.6089 H   0  0  0  0  0  0  0  0  0  0  0  0
  152.4681  145.7693  159.1987 H   0  0  0  0  0  0  0  0  0  0  0  0
  151.9918  144.9924  157.7039 H   0  0  0  0  0  0  0  0  0  0  0  0
  150.4397  141.9883  159.4451 H   0  0  0  0  0  0  0  0  0  0  0  0
  151.5246  142.8720  156.7427 H   0  0  0  0  0  0  0  0  0  0  0  0
  149.8951  143.2153  157.3233 H   0  0  0  0  0  0  0  0  0  0  0  0
  150.4054  141.5571  157.0691 H   0  0  0  0  0  0  0  0  0  0  0  0
  1  2  1  0  0  0  0
  1 26  1  0  0  0  0
  1 27  1  0  0  0  0
  1 28  1  0  0  0  0
  2  3  1  0  0  0  0
  3  4  1  0  0  0  0
  3 29  1  0  0  0  0
  3 30  1  0  0  0  0
  4  5  1  0  0  0  0
  4 31  1  0  0  0  0
  4 32  1  0  0  0  0
  5 24  1  0  0  0  0
  5  6  1  0  0  0  0
  6  7  1  0  0  0  0
  6  8  2  0  0  0  0
  7 33  1  0  0  0  0
  7 34  1  0  0  0  0
  8  9  1  0  0  0  0
  8 35  1  0  0  0  0
  9 10  2  0  0  0  0
  9 11  1  0  0  0  0
 11 12  1  0  0  0  0
 11 24  1  0  0  0  0
 12 13  1  0  0  0  0
 12 36  1  0  0  0  0
 12 37  1  0  0  0  0
 13 14  2  0  0  0  0
 13 15  1  0  0  0  0
 15 16  1  0  0  0  0
 15 38  1  0  0  0  0
 16 22  1  0  0  0  0
 16 17  1  0  0  0  0
 16 39  1  0  0  0  0
 17 18  1  0  0  0  0
 17 40  1  0  0  0  0
 17 41  1  0  0  0  0
 18 19  1  0  0  0  0
 18 42  1  0  0  0  0
 18 43  1  0  0  0  0
 19 20  1  0  0  0  0
 19 44  1  0  0  0  0
 19 45  1  0  0  0  0
 20 21  1  0  0  0  0
 20 22  1  0  0  0  0
 20 46  1  0  0  0  0
 21 47  1  0  0  0  0
 21 48  1  0  0  0  0
 21 49  1  0  0  0  0
 22 23  1  0  0  0  0
 22 50  1  0  0  0  0
 23 51  1  0  0  0  0
 23 52  1  0  0  0  0
 23 53  1  0  0  0  0
 24 25  2  0  0  0  0
M  END
> <s_m_source_file>
AV-unprocessed.smi

> <i_m_source_file_index>
415

> <i_lp_mmshare_version>
43012

> <i_f3d_flags>
0

> <s_epik_input>
W0NIM11PW0NIMl1bQ0gyXW4xYyhbTkgyXSlbY0hdYyg9TyluKGMxPU8pW0NIMl1DKD1PKVtOSF1bQ0BASF0yW0NIMl1bQ0gyXVtDSDJdW0NAQEhdKFtDSDNdKVtDQEhdMltDSDNd

> <s_epik_cmdline>
J2VwaWtfcHl0aG9uJywgJy1waCcsICc3LjAnLCAnLXRuJywgJzgnLCAnLW1hJywgJzIwMCcsICctbWV0YWxfYmluZGluZycsICctaW1hZScsICc8aW5maWxlLm1hZT4nLCAnLW9tYWUnLCAnPG91dGZpbGUubWFlPic=

> <r_lp_tautomer_probability>
1

> <r_epik_Ionization_Penalty>
8.6647e-06

> <r_epik_Ionization_Penalty_Charging>
1.81162e-08

> <r_epik_Ionization_Penalty_Neutral>
8.64658e-06

> <r_epik_State_Penalty>
-0

> <r_epik_Charging_Adjusted_Penalty>
1.81162e-08

> <i_epik_Tot_Q>
0

> <i_epik_Tot_abs_Q>
0

> <r_epik_Metal_State_Penalty>
-0

> <b_epik_Metal_Only>
0

> <s_lp_Force_Field>
OPLS_2005

> <r_lp_Energy>
23.489

> <b_lp_Chiralities_Consistent>
1

> <s_lp_Variant>
AV-unprocessed.smi:415-1

> <Gold.Version>
5.8.1

> <Gold.Id.Protein>
6NUR|6NUR_protein|mol2

> <Gold.PLP.Fitness>
51.1753

> <Gold.PLP.PLP>
-43.1913

> <Gold.PLP.part.hbond>
-4.0000

> <Gold.PLP.part.metal>
0.0000

> <Gold.PLP.part.buried>
-4.6707

> <Gold.PLP.part.nonpolar>
-34.1465

> <Gold.PLP.part.repulsive>
0.2638

> <Gold.PLP.ligand.clash>
0.0000

> <Gold.PLP.ligand.torsion>
0.5253

> <Gold.PLP.Chemscore.Hbond>
2.9920

> <Gold.PLP.Chemscore.CHOScore>
0.0000

> <Gold.PLP.Chemscore.Metal>
0.0000

> <Gold.Chemscore.Hbonds>
donor molecule, donor type, donor heavy atom, donor atom, acceptor molecule, acceptor atom, score
      L1  H     7    34       P1  7957  1.00
      P1  H  7997  8008       L1    14  1.00
      P1  H  7997  8009       L1    10  0.99

> <Gold.PLP.Chemscore.Internal.Correction>
0.0587

> <Gold.Rescore>
     Score         DG    S(hbond)    S(metal)    S(lipo)     H(rot)  DE(clash)    DE(int)     intcor
     19.89     -21.74       2.88        0.00     106.28       2.26       0.05       1.80       ----

> <Gold.Chemscore.Fitness>
19.8937

> <Gold.Chemscore.DG>
-21.7435

> <Gold.Chemscore.ZeroCoef>
-5.4800

> <Gold.Chemscore.Hbond>
2.8820

> <Gold.Chemscore.Metal>
0.0000

> <Gold.Chemscore.Lipo>
106.2793

> <Gold.Chemscore.Internal_Hbond>
0.0000

> <Gold.Chemscore.DEClash>
0.0457

> <Gold.Chemscore.DEInternal>
1.8041

> <Gold.Chemscore.Rot>
2.2645

> <Gold.Chemscore.Internal.Correction>
   9.000000E+99

> <Gold.Chemscore.Hbonds>
donor molecule, donor type, donor heavy atom, donor atom, acceptor molecule, acceptor atom, score
      L1  H     7    34       P1  7957  0.92
      P1  H  7997  8008       L1    14  0.83
      P1  H  7997  8009       L1    10  0.92

> <Gold.Chemscore.Hbond.Weighted>
-9.6260

> <Gold.Chemscore.Metal.Weighted>
-0.0000

> <Gold.Chemscore.Lipo.Weighted>
-12.4347

> <Gold.Chemscore.Internal_Hbond.Weighted>
0.0000

> <Gold.Chemscore.DEClash.Weighted>
0.0457

> <Gold.Chemscore.DEInternal.Weighted>
1.8041

> <Gold.Chemscore.Rot.Weighted>
5.7972

> <Gold.Chemscore.Internal.Correction.Weighted>
   9.000000E+99

> <Gold.Protein.RotatedTorsions>
[ 6907 6896 6895 6894 ] final  -45.67 input  -60.11 | X-H torsion
[ 7974 7965 7964 7962 ] final -103.03 input  175.53 | X-H torsion
[ 8008 7997 7996 7995 ] final -125.32 input   59.86 | X-H torsion
[ 10167 10162 10161 10158 ] final   21.89 input  -65.29 | X-H torsion
[ 10718 10713 10712 10709 ] final  -90.45 input   66.30 | X-H torsion
[ 10763 10752 10751 10750 ] final   88.99 input  -60.55 | X-H torsion
[ 11005 11000 10999 10996 ] final   13.66 input  -57.11 | X-H torsion

> <Gold.Protein.ActiveResidues>
 VAL166  LYS551  ARG553  GLY616  TRP617  ASP618  TYR619  PRO620  LYS621  CYS622 
 ASP623  PHE694  ASN695  SER759  ASP760  ASP761  ALA762  ILE779  LEU786  VAL792 
 PHE793  MET794  SER795  GLU796  ALA797  LYS798  CYS799  TRP800  GLU811  SER814 

> <Gold.Protein.RotatedAtoms>
  150.9195  134.8612  159.7478 H   0  0  0  0  0  0  0  0  0  0  0  0  # atno 6907 bound_to 6896
  152.4985  134.4240  159.9500 H   0  0  0  0  0  0  0  0  0  0  0  0  # atno 6908 bound_to 6896
  151.4275  133.3640  159.2799 H   0  0  0  0  0  0  0  0  0  0  0  0  # atno 6909 bound_to 6896
  145.2612  140.9269  143.3040 H   0  0  0  0  0  0  0  0  0  0  0  0  # atno 7974 bound_to 7965
  155.2113  140.0419  157.2934 H   0  0  0  0  0  0  0  0  0  0  0  0  # atno 8008 bound_to 7997
  154.6010  140.2452  155.7764 H   0  0  0  0  0  0  0  0  0  0  0  0  # atno 8009 bound_to 7997
  156.2320  140.2935  156.0224 H   0  0  0  0  0  0  0  0  0  0  0  0  # atno 8010 bound_to 7997
  140.5391  143.9708  150.6509 H   0  0  0  0  0  0  0  0  0  0  0  0  # atno 10167 bound_to 10162
  155.9988  130.4910  150.5325 H   0  0  0  0  0  0  0  0  0  0  0  0  # atno 10718 bound_to 10713
  153.1825  135.4486  155.0046 H   0  0  0  0  0  0  0  0  0  0  0  0  # atno 10763 bound_to 10752
  154.8039  135.3266  154.7483 H   0  0  0  0  0  0  0  0  0  0  0  0  # atno 10764 bound_to 10752
  153.7946  135.6967  153.4921 H   0  0  0  0  0  0  0  0  0  0  0  0  # atno 10765 bound_to 10752
  140.4782  134.0962  155.7746 H   0  0  0  0  0  0  0  0  0  0  0  0  # atno 11005 bound_to 11000
  144.9417  139.4181  143.6445 LP  0  0  0  0  0  0  0  0  0  0  0  0  # atno 17320 bound_to 7965
  146.3275  139.8380  142.8896 LP  0  0  0  0  0  0  0  0  0  0  0  0  # atno 17321 bound_to 7965
  140.3104  143.3202  152.0885 LP  0  0  0  0  0  0  0  0  0  0  0  0  # atno 17342 bound_to 10162
  139.4982  144.6640  151.6399 LP  0  0  0  0  0  0  0  0  0  0  0  0  # atno 17343 bound_to 10162
  157.3272  131.0693  151.1888 LP  0  0  0  0  0  0  0  0  0  0  0  0  # atno 17370 bound_to 10713
  157.2780  130.6736  149.6052 LP  0  0  0  0  0  0  0  0  0  0  0  0  # atno 17371 bound_to 10713
  141.1544  133.8910  157.2015 LP  0  0  0  0  0  0  0  0  0  0  0  0  # atno 17394 bound_to 11000
  139.9843  135.0087  156.9824 LP  0  0  0  0  0  0  0  0  0  0  0  0  # atno 17395 bound_to 11000

$$$$
