AV-unprocessed.smi:1111|AV-procd|sdf|4795|dock5
  -GOLD-   22720 3343D 1   1.00000     0.00000
 Structure written by MMmdl.
 33 34  0  0  0  0  0  0  0  0  2 V2000
  149.5059  131.6504  153.9394 C   0  0  0  0  0  0  0  0  0  0  0  0
  149.1658  133.0768  154.4214 C   0  0  2  0  0  0  0  0  0  0  0  0
  148.3885  133.7956  153.4023 N   0  0  0  0  0  0  0  0  0  0  0  0
  147.1915  133.4695  152.8832 C   0  0  0  0  0  0  0  0  0  0  0  0
  146.5600  132.4587  153.1876 O   0  0  0  0  0  0  0  0  0  0  0  0
  146.6138  134.4401  151.8531 C   0  0  0  0  0  0  0  0  0  0  0  0
  145.6618  133.7689  150.9635 N   0  0  0  0  0  0  0  0  0  0  0  0
  145.8879  132.6617  150.1860 C   0  0  0  0  0  0  0  0  0  0  0  0
  144.7131  132.3986  149.5294 C   0  0  0  0  0  0  0  0  0  0  0  0
  143.8198  133.3542  149.9346 N   0  3  0  0  0  0  0  0  0  0  0  0
  144.3987  134.1873  150.8055 C   0  0  0  0  0  0  0  0  0  0  0  0
  150.4686  133.8791  154.6539 C   0  0  0  0  0  0  0  0  0  0  0  0
  150.1660  135.1319  155.4862 C   0  0  0  0  0  0  0  0  0  0  0  0
  148.7736  134.6752  156.5824 S   0  0  0  0  0  0  0  0  0  0  0  0
  149.2732  134.4356  157.9445 O   0  0  0  0  0  0  0  0  0  0  0  0
  147.6543  135.5968  156.3355 O   0  0  0  0  0  0  0  0  0  0  0  0
  148.4243  133.0648  155.7782 C   0  0  0  0  0  0  0  0  0  0  0  0
  150.1686  131.1437  154.6415 H   0  0  0  0  0  0  0  0  0  0  0  0
  150.0088  131.6691  152.9719 H   0  0  0  0  0  0  0  0  0  0  0  0
  148.6167  131.0284  153.8394 H   0  0  0  0  0  0  0  0  0  0  0  0
  148.8053  134.6531  153.0696 H   0  0  0  0  0  0  0  0  0  0  0  0
  146.0998  135.2626  152.3533 H   0  0  0  0  0  0  0  0  0  0  0  0
  147.4098  134.8743  151.2460 H   0  0  0  0  0  0  0  0  0  0  0  0
  146.8425  132.1566  150.1573 H   0  0  0  0  0  0  0  0  0  0  0  0
  144.4530  131.6235  148.8232 H   0  0  0  0  0  0  0  0  0  0  0  0
  143.9366  135.0301  151.2886 H   0  0  0  0  0  0  0  0  0  0  0  0
  151.1687  133.2628  155.2197 H   0  0  0  0  0  0  0  0  0  0  0  0
  150.9700  134.1335  153.7190 H   0  0  0  0  0  0  0  0  0  0  0  0
  151.0186  135.4645  156.0783 H   0  0  0  0  0  0  0  0  0  0  0  0
  149.8402  135.9560  154.8510 H   0  0  0  0  0  0  0  0  0  0  0  0
  147.3484  132.9061  155.7107 H   0  0  0  0  0  0  0  0  0  0  0  0
  148.8302  132.2888  156.4280 H   0  0  0  0  0  0  0  0  0  0  0  0
  142.8592  133.4231  149.6219 H   0  0  0  0  0  0  0  0  0  0  0  0
  1  2  1  0  0  0  0
  1 18  1  0  0  0  0
  1 19  1  0  0  0  0
  1 20  1  0  0  0  0
  2 17  1  0  0  0  0
  2  3  1  0  0  0  0
  2 12  1  0  0  0  0
  3  4  1  0  0  0  0
  3 21  1  0  0  0  0
  4  5  2  0  0  0  0
  4  6  1  0  0  0  0
  6  7  1  0  0  0  0
  6 22  1  0  0  0  0
  6 23  1  0  0  0  0
  7 11  1  0  0  0  0
  7  8  1  0  0  0  0
  8  9  2  0  0  0  0
  8 24  1  0  0  0  0
  9 10  1  0  0  0  0
  9 25  1  0  0  0  0
 10 11  2  0  0  0  0
 10 33  1  0  0  0  0
 11 26  1  0  0  0  0
 12 13  1  0  0  0  0
 12 27  1  0  0  0  0
 12 28  1  0  0  0  0
 13 14  1  0  0  0  0
 13 29  1  0  0  0  0
 13 30  1  0  0  0  0
 14 15  2  0  0  0  0
 14 16  2  0  0  0  0
 14 17  1  0  0  0  0
 17 31  1  0  0  0  0
 17 32  1  0  0  0  0
M  CHG  1  10   1
M  END
> <s_m_source_file>
AV-unprocessed.smi

> <i_m_source_file_index>
1111

> <i_lp_mmshare_version>
43012

> <i_f3d_flags>
0

> <s_epik_input>
Tz1TKD1PKShbQ0gyXTEpW0NIMl1bQ0gyXVtDQEBdMShbQ0gzXSlbTkhdQyg9TylbQ0gyXW4yW2NIXVtjSF1uW2NIXTI=

> <s_epik_cmdline>
J2VwaWtfcHl0aG9uJywgJy1waCcsICc3LjAnLCAnLXRuJywgJzgnLCAnLW1hJywgJzIwMCcsICctbWV0YWxfYmluZGluZycsICctaW1hZScsICc8aW5maWxlLm1hZT4nLCAnLW9tYWUnLCAnPG91dGZpbGUubWFlPic=

> <r_lp_tautomer_probability>
1

> <r_epik_Ionization_Penalty>
0.638881

> <r_epik_Ionization_Penalty_Charging>
0

> <r_epik_Ionization_Penalty_Neutral>
0.638881

> <r_epik_State_Penalty>
0.656385

> <r_epik_Charging_Adjusted_Penalty>
0.656385

> <i_epik_Tot_Q>
1

> <i_epik_Tot_abs_Q>
1

> <r_epik_Metal_State_Penalty>
0.832701

> <b_epik_Metal_Only>
0

> <s_lp_Force_Field>
OPLS_2005

> <r_lp_Energy>
7.98032

> <b_lp_Chiralities_Consistent>
1

> <s_lp_Variant>
AV-unprocessed.smi:1111-4

> <Gold.Version>
5.8.1

> <Gold.Id.Protein>
6NUR|6NUR_protein|mol2

> <Gold.PLP.Fitness>
38.6672

> <Gold.PLP.PLP>
-24.6737

> <Gold.PLP.part.hbond>
-3.0000

> <Gold.PLP.part.metal>
0.0000

> <Gold.PLP.part.buried>
-3.3768

> <Gold.PLP.part.nonpolar>
-17.7390

> <Gold.PLP.part.repulsive>
0.1752

> <Gold.PLP.ligand.clash>
0.0000

> <Gold.PLP.ligand.torsion>
0.3672

> <Gold.PLP.Chemscore.Hbond>
3.9825

> <Gold.PLP.Chemscore.CHOScore>
0.9215

> <Gold.PLP.Chemscore.Metal>
0.0000

> <Gold.Chemscore.Hbonds>
donor molecule, donor type, donor heavy atom, donor atom, acceptor molecule, acceptor atom, score
      L1  H     3    21       P1  7948  0.85
      L1  H    10    33       P1 10186  1.62
      P1  H  6896  6907       L1    15  1.00
      L1  C     8    24       P1 10747  1.00

> <Gold.PLP.Chemscore.Internal.Correction>
0.0158

> <Gold.Rescore>
     Score         DG    S(hbond)    S(metal)    S(lipo)     H(rot)  DE(clash)    DE(int)     intcor
     15.03     -15.61       2.78        0.00      46.14       1.78       0.19       0.39       ----

> <Gold.Chemscore.Fitness>
15.0342

> <Gold.Chemscore.DG>
-15.6135

> <Gold.Chemscore.ZeroCoef>
-5.4800

> <Gold.Chemscore.Hbond>
2.7810

> <Gold.Chemscore.Metal>
0.0000

> <Gold.Chemscore.Lipo>
46.1399

> <Gold.Chemscore.Internal_Hbond>
0.0000

> <Gold.Chemscore.DEClash>
0.1911

> <Gold.Chemscore.DEInternal>
0.3882

> <Gold.Chemscore.Rot>
1.7787

> <Gold.Chemscore.Internal.Correction>
   9.000000E+99

> <Gold.Chemscore.Hbonds>
donor molecule, donor type, donor heavy atom, donor atom, acceptor molecule, acceptor atom, score
      L1  H     3    21       P1  7948  0.14
      L1  H    10    33       P1 10186  0.77
      P1  H  6896  6907       L1    15  0.96

> <Gold.Chemscore.Hbond.Weighted>
-9.2887

> <Gold.Chemscore.Metal.Weighted>
-0.0000

> <Gold.Chemscore.Lipo.Weighted>
-5.3984

> <Gold.Chemscore.Internal_Hbond.Weighted>
0.0000

> <Gold.Chemscore.DEClash.Weighted>
0.1911

> <Gold.Chemscore.DEInternal.Weighted>
0.3882

> <Gold.Chemscore.Rot.Weighted>
4.5536

> <Gold.Chemscore.Internal.Correction.Weighted>
   9.000000E+99

> <Gold.Protein.RotatedTorsions>
[ 6907 6896 6895 6894 ] final  -95.84 input  -60.11 | X-H torsion
[ 7974 7965 7964 7962 ] final  178.31 input  175.53 | X-H torsion
[ 8008 7997 7996 7995 ] final   74.15 input   59.86 | X-H torsion
[ 10167 10162 10161 10158 ] final -165.51 input  -65.29 | X-H torsion
[ 10718 10713 10712 10709 ] final -111.55 input   66.30 | X-H torsion
[ 10763 10752 10751 10750 ] final   89.82 input  -60.55 | X-H torsion
[ 11005 11000 10999 10996 ] final -151.38 input  -57.11 | X-H torsion

> <Gold.Protein.ActiveResidues>
 VAL166  LYS551  ARG553  GLY616  TRP617  ASP618  TYR619  PRO620  LYS621  CYS622 
 ASP623  PHE694  ASN695  SER759  ASP760  ASP761  ALA762  ILE779  LEU786  VAL792 
 PHE793  MET794  SER795  GLU796  ALA797  LYS798  CYS799  TRP800  GLU811  SER814 

> <Gold.Protein.RotatedAtoms>
  150.6973  134.1595  159.4170 H   0  0  0  0  0  0  0  0  0  0  0  0  # atno 6907 bound_to 6896
  151.9576  135.0137  160.0555 H   0  0  0  0  0  0  0  0  0  0  0  0  # atno 6908 bound_to 6896
  152.1955  133.4768  159.5067 H   0  0  0  0  0  0  0  0  0  0  0  0  # atno 6909 bound_to 6896
  144.7158  140.0378  143.6438 H   0  0  0  0  0  0  0  0  0  0  0  0  # atno 7974 bound_to 7965
  155.7941  140.3478  155.5366 H   0  0  0  0  0  0  0  0  0  0  0  0  # atno 8008 bound_to 7997
  155.8604  140.0970  157.1637 H   0  0  0  0  0  0  0  0  0  0  0  0  # atno 8009 bound_to 7997
  154.4011  140.1359  156.3941 H   0  0  0  0  0  0  0  0  0  0  0  0  # atno 8010 bound_to 7997
  139.6177  144.0687  152.1903 H   0  0  0  0  0  0  0  0  0  0  0  0  # atno 10167 bound_to 10162
  156.0653  130.5873  150.8388 H   0  0  0  0  0  0  0  0  0  0  0  0  # atno 10718 bound_to 10713
  153.1911  135.4456  155.0150 H   0  0  0  0  0  0  0  0  0  0  0  0  # atno 10763 bound_to 10752
  154.8091  135.3286  154.7356 H   0  0  0  0  0  0  0  0  0  0  0  0  # atno 10764 bound_to 10752
  153.7810  135.6977  153.4943 H   0  0  0  0  0  0  0  0  0  0  0  0  # atno 10765 bound_to 10752
  140.7302  134.3630  157.5168 H   0  0  0  0  0  0  0  0  0  0  0  0  # atno 11005 bound_to 11000
  146.0049  139.3121  143.0905 LP  0  0  0  0  0  0  0  0  0  0  0  0  # atno 17320 bound_to 7965
  145.8750  140.9397  143.0631 LP  0  0  0  0  0  0  0  0  0  0  0  0  # atno 17321 bound_to 7965
  140.0321  144.6073  150.7479 LP  0  0  0  0  0  0  0  0  0  0  0  0  # atno 17342 bound_to 10162
  140.7361  143.2749  151.3771 LP  0  0  0  0  0  0  0  0  0  0  0  0  # atno 17343 bound_to 10162
  157.5691  131.0946  150.9445 LP  0  0  0  0  0  0  0  0  0  0  0  0  # atno 17370 bound_to 10713
  156.9665  130.5475  149.5288 LP  0  0  0  0  0  0  0  0  0  0  0  0  # atno 17371 bound_to 10713
  139.8828  134.9013  156.2808 LP  0  0  0  0  0  0  0  0  0  0  0  0  # atno 17394 bound_to 11000
  140.9928  133.7198  156.0839 LP  0  0  0  0  0  0  0  0  0  0  0  0  # atno 17395 bound_to 11000

$$$$
