AV-unprocessed.smi:1259|AV-procd|sdf|5291|dock10
  -GOLD-   22720 4413D 1   1.00000     0.00000
 Structure written by MMmdl.
 34 35  0  0  0  0  0  0  0  0  1 V2000
  147.9467  140.2178  153.6061 C   0  0  0  0  0  0  0  0  0  0  0  0
  149.1796  140.1445  154.4577 C   0  0  0  0  0  0  0  0  0  0  0  0
  149.4477  140.8355  155.6750 C   0  0  0  0  0  0  0  0  0  0  0  0
  150.7005  140.3937  156.0025 C   0  0  0  0  0  0  0  0  0  0  0  0
  151.4698  140.7220  157.0744 N   0  0  0  0  0  0  0  0  0  0  0  0
  151.5879  141.9102  157.6924 C   0  0  0  0  0  0  0  0  0  0  0  0
  151.0019  142.9438  157.3700 O   0  0  0  0  0  0  0  0  0  0  0  0
  152.4388  141.8335  158.7261 N   0  0  0  0  0  0  0  0  0  0  0  0
  152.7864  142.9340  159.6196 C   0  0  2  0  0  0  0  0  0  0  0  0
  153.3334  142.3495  160.9292 C   0  0  0  0  0  0  0  0  0  0  0  0
  151.6283  143.8796  159.8913 C   0  0  0  0  0  0  0  0  0  0  0  0
  151.3988  145.1085  159.0432 C   0  0  0  0  0  0  0  0  0  0  0  0
  151.8665  145.2530  160.4729 C   0  0  0  0  0  0  0  0  0  0  0  0
  151.1254  139.5064  155.0384 N   0  0  0  0  0  0  0  0  0  0  0  0
  152.3761  138.7796  154.9387 C   0  0  0  0  0  0  0  0  0  0  0  0
  150.1818  139.3570  154.0838 N   0  0  0  0  0  0  0  0  0  0  0  0
  147.1950  140.8664  154.0565 H   0  0  0  0  0  0  0  0  0  0  0  0
  147.4987  139.2323  153.4765 H   0  0  0  0  0  0  0  0  0  0  0  0
  148.1762  140.6140  152.6166 H   0  0  0  0  0  0  0  0  0  0  0  0
  148.8137  141.5336  156.2003 H   0  0  0  0  0  0  0  0  0  0  0  0
  152.0174  139.9657  157.4578 H   0  0  0  0  0  0  0  0  0  0  0  0
  152.8744  140.9429  158.9161 H   0  0  0  0  0  0  0  0  0  0  0  0
  153.5929  143.5103  159.1620 H   0  0  0  0  0  0  0  0  0  0  0  0
  153.6576  143.1402  161.6063 H   0  0  0  0  0  0  0  0  0  0  0  0
  154.1935  141.7049  160.7441 H   0  0  0  0  0  0  0  0  0  0  0  0
  152.5776  141.7580  161.4471 H   0  0  0  0  0  0  0  0  0  0  0  0
  150.7313  143.3743  160.2455 H   0  0  0  0  0  0  0  0  0  0  0  0
  152.1191  145.3275  158.2574 H   0  0  0  0  0  0  0  0  0  0  0  0
  150.3686  145.3777  158.8195 H   0  0  0  0  0  0  0  0  0  0  0  0
  151.1484  145.6205  161.2031 H   0  0  0  0  0  0  0  0  0  0  0  0
  152.8967  145.5653  160.6336 H   0  0  0  0  0  0  0  0  0  0  0  0
  153.1615  139.4522  154.5941 H   0  0  0  0  0  0  0  0  0  0  0  0
  152.2818  137.9516  154.2349 H   0  0  0  0  0  0  0  0  0  0  0  0
  152.6514  138.3794  155.9146 H   0  0  0  0  0  0  0  0  0  0  0  0
  1  2  1  0  0  0  0
  1 17  1  0  0  0  0
  1 18  1  0  0  0  0
  1 19  1  0  0  0  0
  2 16  2  0  0  0  0
  2  3  1  0  0  0  0
  3  4  2  0  0  0  0
  3 20  1  0  0  0  0
  4  5  1  0  0  0  0
  4 14  1  0  0  0  0
  5  6  1  0  0  0  0
  5 21  1  0  0  0  0
  6  7  2  0  0  0  0
  6  8  1  0  0  0  0
  8  9  1  0  0  0  0
  8 22  1  0  0  0  0
  9 10  1  0  0  0  0
  9 11  1  0  0  0  0
  9 23  1  0  0  0  0
 10 24  1  0  0  0  0
 10 25  1  0  0  0  0
 10 26  1  0  0  0  0
 11 13  1  0  0  0  0
 11 12  1  0  0  0  0
 11 27  1  0  0  0  0
 12 13  1  0  0  0  0
 12 28  1  0  0  0  0
 12 29  1  0  0  0  0
 13 30  1  0  0  0  0
 13 31  1  0  0  0  0
 14 15  1  0  0  0  0
 14 16  1  0  0  0  0
 15 32  1  0  0  0  0
 15 33  1  0  0  0  0
 15 34  1  0  0  0  0
M  END
> <s_m_source_file>
AV-unprocessed.smi

> <i_m_source_file_index>
1259

> <i_lp_mmshare_version>
43012

> <i_f3d_flags>
0

> <s_epik_input>
W0NIM11jMVtjSF1jKG4objEpW0NIM10pW05IXUMoPU8pW05IXVtDQEhdKFtDSDNdKVtDSF0yW0NIMl1bQ0gyXTI=

> <s_epik_cmdline>
J2VwaWtfcHl0aG9uJywgJy1waCcsICc3LjAnLCAnLXRuJywgJzgnLCAnLW1hJywgJzIwMCcsICctbWV0YWxfYmluZGluZycsICctaW1hZScsICc8aW5maWxlLm1hZT4nLCAnLW9tYWUnLCAnPG91dGZpbGUubWFlPic=

> <r_lp_tautomer_probability>
1

> <r_epik_Ionization_Penalty>
0.000100032

> <r_epik_Ionization_Penalty_Charging>
0

> <r_epik_Ionization_Penalty_Neutral>
0.000100032

> <r_epik_State_Penalty>
-0

> <r_epik_Charging_Adjusted_Penalty>
0

> <i_epik_Tot_Q>
0

> <i_epik_Tot_abs_Q>
0

> <r_epik_Metal_State_Penalty>
-0

> <b_epik_Metal_Only>
0

> <s_lp_Force_Field>
OPLS_2005

> <r_lp_Energy>
14.2457

> <b_lp_Chiralities_Consistent>
1

> <s_lp_Variant>
AV-unprocessed.smi:1259-1

> <Gold.Version>
5.8.1

> <Gold.Id.Protein>
6NUR|6NUR_protein|mol2

> <Gold.PLP.Fitness>
36.0164

> <Gold.PLP.PLP>
-37.2348

> <Gold.PLP.part.hbond>
-0.6930

> <Gold.PLP.part.metal>
0.0000

> <Gold.PLP.part.buried>
-3.6621

> <Gold.PLP.part.nonpolar>
-33.9110

> <Gold.PLP.part.repulsive>
0.9771

> <Gold.PLP.ligand.clash>
0.0000

> <Gold.PLP.ligand.torsion>
1.1401

> <Gold.PLP.Chemscore.Hbond>
0.0000

> <Gold.PLP.Chemscore.CHOScore>
0.0000

> <Gold.PLP.Chemscore.Metal>
0.0000

> <Gold.PLP.Chemscore.Internal.Correction>
1.0617

> <Gold.Rescore>
     Score         DG    S(hbond)    S(metal)    S(lipo)     H(rot)  DE(clash)    DE(int)     intcor
      8.85     -12.48       0.00        0.00      86.04       1.20       0.07       3.55       ----

> <Gold.Chemscore.Fitness>
8.8547

> <Gold.Chemscore.DG>
-12.4769

> <Gold.Chemscore.ZeroCoef>
-5.4800

> <Gold.Chemscore.Hbond>
0.0000

> <Gold.Chemscore.Metal>
0.0000

> <Gold.Chemscore.Lipo>
86.0382

> <Gold.Chemscore.Internal_Hbond>
0.0000

> <Gold.Chemscore.DEClash>
0.0682

> <Gold.Chemscore.DEInternal>
3.5539

> <Gold.Chemscore.Rot>
1.1990

> <Gold.Chemscore.Internal.Correction>
   9.000000E+99

> <Gold.Chemscore.Hbond.Weighted>
-0.0000

> <Gold.Chemscore.Metal.Weighted>
-0.0000

> <Gold.Chemscore.Lipo.Weighted>
-10.0665

> <Gold.Chemscore.Internal_Hbond.Weighted>
0.0000

> <Gold.Chemscore.DEClash.Weighted>
0.0682

> <Gold.Chemscore.DEInternal.Weighted>
3.5539

> <Gold.Chemscore.Rot.Weighted>
3.0695

> <Gold.Chemscore.Internal.Correction.Weighted>
   9.000000E+99

> <Gold.Protein.RotatedTorsions>
[ 6907 6896 6895 6894 ] final  116.43 input  -60.11 | X-H torsion
[ 7974 7965 7964 7962 ] final  149.32 input  175.53 | X-H torsion
[ 8008 7997 7996 7995 ] final   85.88 input   59.86 | X-H torsion
[ 10167 10162 10161 10158 ] final  -12.52 input  -65.29 | X-H torsion
[ 10718 10713 10712 10709 ] final   96.03 input   66.30 | X-H torsion
[ 10763 10752 10751 10750 ] final   19.38 input  -60.55 | X-H torsion
[ 11005 11000 10999 10996 ] final -141.64 input  -57.11 | X-H torsion

> <Gold.Protein.ActiveResidues>
 VAL166  LYS551  ARG553  GLY616  TRP617  ASP618  TYR619  PRO620  LYS621  CYS622 
 ASP623  PHE694  ASN695  SER759  ASP760  ASP761  ALA762  ILE779  LEU786  VAL792 
 PHE793  MET794  SER795  GLU796  ALA797  LYS798  CYS799  TRP800  GLU811  SER814 

> <Gold.Protein.RotatedAtoms>
  152.4678  133.7962  159.6928 H   0  0  0  0  0  0  0  0  0  0  0  0  # atno 6907 bound_to 6896
  150.8651  133.7576  159.2986 H   0  0  0  0  0  0  0  0  0  0  0  0  # atno 6908 bound_to 6896
  151.5129  135.1068  159.9910 H   0  0  0  0  0  0  0  0  0  0  0  0  # atno 6909 bound_to 6896
  144.8447  139.6266  143.6001 H   0  0  0  0  0  0  0  0  0  0  0  0  # atno 7974 bound_to 7965
  155.9557  140.3397  155.6446 H   0  0  0  0  0  0  0  0  0  0  0  0  # atno 8008 bound_to 7997
  155.6863  140.0743  157.2483 H   0  0  0  0  0  0  0  0  0  0  0  0  # atno 8009 bound_to 7997
  154.4131  140.1665  156.2025 H   0  0  0  0  0  0  0  0  0  0  0  0  # atno 8010 bound_to 7997
  140.7163  143.5524  150.9286 H   0  0  0  0  0  0  0  0  0  0  0  0  # atno 10167 bound_to 10162
  157.6932  131.0565  150.4428 H   0  0  0  0  0  0  0  0  0  0  0  0  # atno 10718 bound_to 10713
  153.1167  135.6709  153.9406 H   0  0  0  0  0  0  0  0  0  0  0  0  # atno 10763 bound_to 10752
  153.8933  135.3044  155.3449 H   0  0  0  0  0  0  0  0  0  0  0  0  # atno 10764 bound_to 10752
  154.7583  135.5001  153.9494 H   0  0  0  0  0  0  0  0  0  0  0  0  # atno 10765 bound_to 10752
  140.8304  134.2524  157.4859 H   0  0  0  0  0  0  0  0  0  0  0  0  # atno 11005 bound_to 11000
  146.2733  139.6690  142.9280 LP  0  0  0  0  0  0  0  0  0  0  0  0  # atno 17320 bound_to 7965
  145.4622  141.0433  143.2745 LP  0  0  0  0  0  0  0  0  0  0  0  0  # atno 17321 bound_to 7965
  139.9248  143.6562  152.3089 LP  0  0  0  0  0  0  0  0  0  0  0  0  # atno 17342 bound_to 10162
  139.6992  144.7637  151.1302 LP  0  0  0  0  0  0  0  0  0  0  0  0  # atno 17343 bound_to 10162
  156.4786  130.4068  149.6475 LP  0  0  0  0  0  0  0  0  0  0  0  0  # atno 17370 bound_to 10713
  156.3529  130.7441  151.2403 LP  0  0  0  0  0  0  0  0  0  0  0  0  # atno 17371 bound_to 10713
  139.8705  134.9583  156.4296 LP  0  0  0  0  0  0  0  0  0  0  0  0  # atno 17394 bound_to 11000
  140.9004  133.7783  155.9673 LP  0  0  0  0  0  0  0  0  0  0  0  0  # atno 17395 bound_to 11000

$$$$
