AV-unprocessed.smi:1207|AV-procd|sdf|5059|dock8
  -GOLD-   22720 4 93D 1   1.00000     0.00000
 Structure written by MMmdl.
 53 55  0  0  0  0  0  0  0  0  3 V2000
  152.6966  144.1806  160.1740 C   0  0  0  0  0  0  0  0  0  0  0  0
  152.3116  143.1605  159.1160 C   0  0  0  0  0  0  0  0  0  0  0  0
  151.3537  143.5267  158.1436 C   0  0  0  0  0  0  0  0  0  0  0  0
  151.0223  142.5727  157.1891 C   0  0  0  0  0  0  0  0  0  0  0  0
  150.1339  142.6248  156.1126 N   0  3  0  0  0  0  0  0  0  0  0  0
  150.1497  141.4342  155.4518 C   0  0  0  0  0  0  0  0  0  0  0  0
  151.0259  140.6175  156.0990 N   0  0  0  0  0  0  0  0  0  0  0  0
  151.4242  139.2352  155.8047 C   0  0  0  0  0  0  0  0  0  0  0  0
  150.4983  138.5336  154.7897 C   0  0  2  0  0  0  0  0  0  0  0  0
  150.6614  139.1769  153.5425 O   0  0  0  0  0  0  0  0  0  0  0  0
  149.0034  138.5672  155.1768 C   0  0  0  0  0  0  0  0  0  0  0  0
  148.1888  137.6838  154.3044 N   0  3  2  0  0  0  0  0  0  0  0  0
  147.0946  138.4175  153.6269 C   0  0  0  0  0  0  0  0  0  0  0  0
  147.7135  136.4576  154.9963 C   0  0  0  0  0  0  0  0  0  0  0  0
  148.8001  135.8631  155.8531 C   0  0  0  0  0  0  0  0  0  0  0  0
  149.2048  136.2345  157.1689 C   0  0  0  0  0  0  0  0  0  0  0  0
  148.6615  137.3159  158.0584 C   0  0  0  0  0  0  0  0  0  0  0  0
  150.2012  135.4843  157.6069 N   0  0  0  0  0  0  0  0  0  0  0  0
  150.4910  134.5870  156.5749 O   0  0  0  0  0  0  0  0  0  0  0  0
  149.6462  134.8343  155.5428 C   0  0  0  0  0  0  0  0  0  0  0  0
  149.7965  133.9781  154.3306 C   0  0  0  0  0  0  0  0  0  0  0  0
  151.6057  141.2909  157.1799 C   0  0  0  0  0  0  0  0  0  0  0  0
  152.5561  140.9159  158.1263 C   0  0  0  0  0  0  0  0  0  0  0  0
  152.9057  141.8719  159.1067 C   0  0  0  0  0  0  0  0  0  0  0  0
  153.9360  141.4900  160.1559 C   0  0  0  0  0  0  0  0  0  0  0  0
  152.1565  145.1182  160.0398 H   0  0  0  0  0  0  0  0  0  0  0  0
  153.7631  144.4012  160.1223 H   0  0  0  0  0  0  0  0  0  0  0  0
  152.4679  143.8040  161.1714 H   0  0  0  0  0  0  0  0  0  0  0  0
  150.9007  144.5075  158.1423 H   0  0  0  0  0  0  0  0  0  0  0  0
  149.5703  141.1840  154.5746 H   0  0  0  0  0  0  0  0  0  0  0  0
  152.4461  139.2674  155.4239 H   0  0  0  0  0  0  0  0  0  0  0  0
  151.4601  138.6856  156.7468 H   0  0  0  0  0  0  0  0  0  0  0  0
  150.8292  137.5035  154.6663 H   0  0  0  0  0  0  0  0  0  0  0  0
  149.8286  139.1921  153.0952 H   0  0  0  0  0  0  0  0  0  0  0  0
  148.8536  138.2660  156.2143 H   0  0  0  0  0  0  0  0  0  0  0  0
  148.6512  139.5978  155.1088 H   0  0  0  0  0  0  0  0  0  0  0  0
  146.3679  138.7910  154.3496 H   0  0  0  0  0  0  0  0  0  0  0  0
  146.5728  137.7767  152.9165 H   0  0  0  0  0  0  0  0  0  0  0  0
  147.4872  139.2664  153.0664 H   0  0  0  0  0  0  0  0  0  0  0  0
  146.8533  136.6942  155.6222 H   0  0  0  0  0  0  0  0  0  0  0  0
  147.3393  135.7453  154.2599 H   0  0  0  0  0  0  0  0  0  0  0  0
  147.7288  137.7251  157.6715 H   0  0  0  0  0  0  0  0  0  0  0  0
  149.3708  138.1388  158.1498 H   0  0  0  0  0  0  0  0  0  0  0  0
  148.4610  136.9369  159.0610 H   0  0  0  0  0  0  0  0  0  0  0  0
  148.8336  133.5698  154.0237 H   0  0  0  0  0  0  0  0  0  0  0  0
  150.4709  133.1423  154.5193 H   0  0  0  0  0  0  0  0  0  0  0  0
  150.1995  134.5556  153.4987 H   0  0  0  0  0  0  0  0  0  0  0  0
  153.0130  139.9374  158.1166 H   0  0  0  0  0  0  0  0  0  0  0  0
  154.3085  140.4772  160.0000 H   0  0  0  0  0  0  0  0  0  0  0  0
  153.4997  141.5346  161.1541 H   0  0  0  0  0  0  0  0  0  0  0  0
  154.7896  142.1670  160.1199 H   0  0  0  0  0  0  0  0  0  0  0  0
  148.8152  137.3791  153.5725 H   0  0  0  0  0  0  0  0  0  0  0  0
  149.5650  143.4167  155.8411 H   0  0  0  0  0  0  0  0  0  0  0  0
  1  2  1  0  0  0  0
  1 26  1  0  0  0  0
  1 27  1  0  0  0  0
  1 28  1  0  0  0  0
  2 24  1  0  0  0  0
  2  3  2  0  0  0  0
  3  4  1  0  0  0  0
  3 29  1  0  0  0  0
  4 22  2  0  0  0  0
  4  5  1  0  0  0  0
  5  6  2  0  0  0  0
  5 53  1  0  0  0  0
  6  7  1  0  0  0  0
  6 30  1  0  0  0  0
  7  8  1  0  0  0  0
  7 22  1  0  0  0  0
  8  9  1  0  0  0  0
  8 31  1  0  0  0  0
  8 32  1  0  0  0  0
  9 10  1  0  0  0  0
  9 11  1  0  0  0  0
  9 33  1  0  0  0  0
 10 34  1  0  0  0  0
 11 12  1  0  0  0  0
 11 35  1  0  0  0  0
 11 36  1  0  0  0  0
 12 13  1  0  0  0  0
 12 14  1  0  0  0  0
 12 52  1  0  0  0  0
 13 37  1  0  0  0  0
 13 38  1  0  0  0  0
 13 39  1  0  0  0  0
 14 15  1  0  0  0  0
 14 40  1  0  0  0  0
 14 41  1  0  0  0  0
 15 20  2  0  0  0  0
 15 16  1  0  0  0  0
 16 17  1  0  0  0  0
 16 18  2  0  0  0  0
 17 42  1  0  0  0  0
 17 43  1  0  0  0  0
 17 44  1  0  0  0  0
 18 19  1  0  0  0  0
 19 20  1  0  0  0  0
 20 21  1  0  0  0  0
 21 45  1  0  0  0  0
 21 46  1  0  0  0  0
 21 47  1  0  0  0  0
 22 23  1  0  0  0  0
 23 24  2  0  0  0  0
 23 48  1  0  0  0  0
 24 25  1  0  0  0  0
 25 49  1  0  0  0  0
 25 50  1  0  0  0  0
 25 51  1  0  0  0  0
M  CHG  1   5   1
M  CHG  1  12   1
M  END
> <s_m_source_file>
AV-unprocessed.smi

> <i_m_source_file_index>
1207

> <i_lp_mmshare_version>
43012

> <i_f3d_flags>
0

> <s_epik_input>
W0NIM11jKFtjSF0xKWMoW0NIM10pW2NIXWMoYzEyKW4oW2NIXW4yKVtDSDJdW0NASF0oW09IXSlbQ0gyXU4oW0NIM10pW0NIMl1jM2MoW0NIM10pbm9jM1tDSDNd

> <s_epik_cmdline>
J2VwaWtfcHl0aG9uJywgJy1waCcsICc3LjAnLCAnLXRuJywgJzgnLCAnLW1hJywgJzIwMCcsICctbWV0YWxfYmluZGluZycsICctaW1hZScsICc8aW5maWxlLm1hZT4nLCAnLW9tYWUnLCAnPG91dGZpbGUubWFlPic=

> <r_epik_Ionization_Penalty>
1.77463

> <r_epik_Ionization_Penalty_Charging>
1.77463

> <r_epik_Ionization_Penalty_Neutral>
3.70885e-06

> <r_epik_State_Penalty>
1.85225

> <r_epik_Charging_Adjusted_Penalty>
3.62688

> <i_epik_Tot_Q>
2

> <i_epik_Tot_abs_Q>
2

> <r_epik_Metal_State_Penalty>
1.92674

> <b_epik_Metal_Only>
0

> <s_lp_Force_Field>
OPLS_2005

> <r_lp_Energy>
20.2471

> <b_lp_Chiralities_Consistent>
1

> <s_lp_Variant>
AV-unprocessed.smi:1207-11

> <Gold.Version>
5.8.1

> <Gold.Id.Protein>
6NUR|6NUR_protein|mol2

> <Gold.PLP.Fitness>
56.1410

> <Gold.PLP.PLP>
-41.8795

> <Gold.PLP.part.hbond>
-5.0000

> <Gold.PLP.part.metal>
0.0000

> <Gold.PLP.part.buried>
-3.7851

> <Gold.PLP.part.nonpolar>
-33.5734

> <Gold.PLP.part.repulsive>
0.1125

> <Gold.PLP.ligand.clash>
0.0000

> <Gold.PLP.ligand.torsion>
1.3418

> <Gold.PLP.Chemscore.Hbond>
5.6073

> <Gold.PLP.Chemscore.CHOScore>
0.0000

> <Gold.PLP.Chemscore.Metal>
0.0000

> <Gold.Chemscore.Hbonds>
donor molecule, donor type, donor heavy atom, donor atom, acceptor molecule, acceptor atom, score
      L1  H     5    53       P1  8028  1.76
      L1  H    10    34       P1  7957  0.34
      L1  H    12    52       P1  7948  1.69
      P1  H  6896  6908       L1    18  0.45
      P1  H  7989  7998       L1    10  0.86

> <Gold.PLP.Chemscore.Internal.Correction>
0.1231

> <Gold.Rescore>
     Score         DG    S(hbond)    S(metal)    S(lipo)     H(rot)  DE(clash)    DE(int)     intcor
     19.62     -23.26       3.20        0.00     116.19       2.54       1.14       2.51       ----

> <Gold.Chemscore.Fitness>
19.6190

> <Gold.Chemscore.DG>
-23.2635

> <Gold.Chemscore.ZeroCoef>
-5.4800

> <Gold.Chemscore.Hbond>
3.1975

> <Gold.Chemscore.Metal>
0.0000

> <Gold.Chemscore.Lipo>
116.1857

> <Gold.Chemscore.Internal_Hbond>
0.0000

> <Gold.Chemscore.DEClash>
1.1390

> <Gold.Chemscore.DEInternal>
2.5055

> <Gold.Chemscore.Rot>
2.5351

> <Gold.Chemscore.Internal.Correction>
   9.000000E+99

> <Gold.Chemscore.Hbonds>
donor molecule, donor type, donor heavy atom, donor atom, acceptor molecule, acceptor atom, score
      L1  H     5    53       P1  8028  0.86
      L1  H    10    34       P1  7957  0.34
      L1  H    12    52       P1  7948  0.79
      P1  H  6896  6908       L1    18  0.24
      P1  H  7989  7998       L1    10  0.73

> <Gold.Chemscore.Hbond.Weighted>
-10.6797

> <Gold.Chemscore.Metal.Weighted>
-0.0000

> <Gold.Chemscore.Lipo.Weighted>
-13.5937

> <Gold.Chemscore.Internal_Hbond.Weighted>
0.0000

> <Gold.Chemscore.DEClash.Weighted>
1.1390

> <Gold.Chemscore.DEInternal.Weighted>
2.5055

> <Gold.Chemscore.Rot.Weighted>
6.4900

> <Gold.Chemscore.Internal.Correction.Weighted>
   9.000000E+99

> <Gold.Protein.RotatedTorsions>
[ 6907 6896 6895 6894 ] final  158.95 input  -60.11 | X-H torsion
[ 7974 7965 7964 7962 ] final  110.61 input  175.53 | X-H torsion
[ 8008 7997 7996 7995 ] final  -53.97 input   59.86 | X-H torsion
[ 10167 10162 10161 10158 ] final   31.19 input  -65.29 | X-H torsion
[ 10718 10713 10712 10709 ] final  -87.74 input   66.30 | X-H torsion
[ 10763 10752 10751 10750 ] final   20.02 input  -60.55 | X-H torsion
[ 11005 11000 10999 10996 ] final -146.41 input  -57.11 | X-H torsion

> <Gold.Protein.ActiveResidues>
 VAL166  LYS551  ARG553  GLY616  TRP617  ASP618  TYR619  PRO620  LYS621  CYS622 
 ASP623  PHE694  ASN695  SER759  ASP760  ASP761  ALA762  ILE779  LEU786  VAL792 
 PHE793  MET794  SER795  GLU796  ALA797  LYS798  CYS799  TRP800  GLU811  SER814 

> <Gold.Protein.RotatedAtoms>
  151.9927  133.3797  159.4150 H   0  0  0  0  0  0  0  0  0  0  0  0  # atno 6907 bound_to 6896
  150.6919  134.3919  159.5089 H   0  0  0  0  0  0  0  0  0  0  0  0  # atno 6908 bound_to 6896
  152.1654  134.8877  160.0589 H   0  0  0  0  0  0  0  0  0  0  0  0  # atno 6909 bound_to 6896
  145.2527  139.2733  143.4058 H   0  0  0  0  0  0  0  0  0  0  0  0  # atno 7974 bound_to 7965
  154.4148  140.1187  156.5240 H   0  0  0  0  0  0  0  0  0  0  0  0  # atno 8008 bound_to 7997
  155.6674  140.3496  155.4786 H   0  0  0  0  0  0  0  0  0  0  0  0  # atno 8009 bound_to 7997
  155.9662  140.1132  157.0842 H   0  0  0  0  0  0  0  0  0  0  0  0  # atno 8010 bound_to 7997
  140.4611  144.0905  150.6213 H   0  0  0  0  0  0  0  0  0  0  0  0  # atno 10167 bound_to 10162
  155.9984  130.4811  150.4913 H   0  0  0  0  0  0  0  0  0  0  0  0  # atno 10718 bound_to 10713
  153.1113  135.6697  153.9496 H   0  0  0  0  0  0  0  0  0  0  0  0  # atno 10763 bound_to 10752
  153.9039  135.3033  155.3450 H   0  0  0  0  0  0  0  0  0  0  0  0  # atno 10764 bound_to 10752
  154.7532  135.5024  153.9404 H   0  0  0  0  0  0  0  0  0  0  0  0  # atno 10765 bound_to 10752
  140.7822  134.3065  157.5041 H   0  0  0  0  0  0  0  0  0  0  0  0  # atno 11005 bound_to 11000
  146.3298  140.2922  142.8616 LP  0  0  0  0  0  0  0  0  0  0  0  0  # atno 17320 bound_to 7965
  144.9488  140.8157  143.5585 LP  0  0  0  0  0  0  0  0  0  0  0  0  # atno 17321 bound_to 7965
  140.4093  143.2665  151.9853 LP  0  0  0  0  0  0  0  0  0  0  0  0  # atno 17342 bound_to 10162
  139.4806  144.5930  151.7739 LP  0  0  0  0  0  0  0  0  0  0  0  0  # atno 17343 bound_to 10162
  157.2908  131.0626  151.2135 LP  0  0  0  0  0  0  0  0  0  0  0  0  # atno 17370 bound_to 10713
  157.3148  130.6908  149.6236 LP  0  0  0  0  0  0  0  0  0  0  0  0  # atno 17371 bound_to 10713
  139.8741  134.9325  156.3556 LP  0  0  0  0  0  0  0  0  0  0  0  0  # atno 17394 bound_to 11000
  140.9471  133.7476  156.0222 LP  0  0  0  0  0  0  0  0  0  0  0  0  # atno 17395 bound_to 11000

$$$$
