AV-unprocessed.smi:2878|AV-procd|sdf|11046|dock9
  -GOLD-   2272015513D 1   1.00000     0.00000
 Structure written by MMmdl.
 42 43  0  0  0  0  0  0  0  0  1 V2000
  145.9089  128.8797  151.8867 C   0  0  0  0  0  0  0  0  0  0  0  0
  146.2228  130.3832  152.8497 S   0  0  0  0  0  0  0  0  0  0  0  0
  145.8388  131.6760  151.6246 C   0  0  1  0  0  0  0  0  0  0  0  0
  144.4632  131.4164  150.9797 C   0  0  0  0  0  0  0  0  0  0  0  0
  144.1276  132.4781  149.9207 C   0  0  0  0  0  0  0  0  0  0  0  0
  144.1901  133.8938  150.5128 C   0  0  0  0  0  0  0  0  0  0  0  0
  145.5600  134.1668  151.1572 C   0  0  0  0  0  0  0  0  0  0  0  0
  145.9307  133.1052  152.2147 C   0  0  1  0  0  0  0  0  0  0  0  0
  145.0839  133.2413  153.4003 N   0  0  0  0  0  0  0  0  0  0  0  0
  144.9880  134.3392  154.1621 C   0  0  0  0  0  0  0  0  0  0  0  0
  145.5986  135.3865  153.9468 O   0  0  0  0  0  0  0  0  0  0  0  0
  144.1456  134.1592  155.1885 N   0  0  0  0  0  0  0  0  0  0  0  0
  143.8403  135.1628  156.2015 C   0  0  0  0  0  0  0  0  0  0  0  0
  144.3110  134.7263  157.5984 C   0  0  0  0  0  0  0  0  0  0  0  0
  143.9906  133.2976  157.8836 C   0  0  0  0  0  0  0  0  0  0  0  0
  142.7822  132.7493  157.9847 N   0  0  0  0  0  0  0  0  0  0  0  0
  143.1056  131.4426  158.1885 C   0  0  0  0  0  0  0  0  0  0  0  0
  142.0814  130.3763  158.3772 C   0  0  0  0  0  0  0  0  0  0  0  0
  144.4024  131.1598  158.1990 N   0  0  0  0  0  0  0  0  0  0  0  0
  145.0066  132.4067  157.9831 O   0  0  0  0  0  0  0  0  0  0  0  0
  146.0207  128.0017  152.5228 H   0  0  0  0  0  0  0  0  0  0  0  0
  146.6145  128.7918  151.0613 H   0  0  0  0  0  0  0  0  0  0  0  0
  144.8960  128.8873  151.4844 H   0  0  0  0  0  0  0  0  0  0  0  0
  146.5886  131.5872  150.8372 H   0  0  0  0  0  0  0  0  0  0  0  0
  144.4499  130.4277  150.5201 H   0  0  0  0  0  0  0  0  0  0  0  0
  143.6873  131.4074  151.7464 H   0  0  0  0  0  0  0  0  0  0  0  0
  144.8290  132.3985  149.0894 H   0  0  0  0  0  0  0  0  0  0  0  0
  143.1361  132.2912  149.5073 H   0  0  0  0  0  0  0  0  0  0  0  0
  143.9939  134.6309  149.7334 H   0  0  0  0  0  0  0  0  0  0  0  0
  143.4013  134.0157  151.2561 H   0  0  0  0  0  0  0  0  0  0  0  0
  146.3230  134.1735  150.3780 H   0  0  0  0  0  0  0  0  0  0  0  0
  145.5725  135.1640  151.5990 H   0  0  0  0  0  0  0  0  0  0  0  0
  146.9665  133.2827  152.5061 H   0  0  0  0  0  0  0  0  0  0  0  0
  144.5426  132.4310  153.6641 H   0  0  0  0  0  0  0  0  0  0  0  0
  143.6916  133.2622  155.2818 H   0  0  0  0  0  0  0  0  0  0  0  0
  144.3357  136.0916  155.9169 H   0  0  0  0  0  0  0  0  0  0  0  0
  142.7689  135.3710  156.2068 H   0  0  0  0  0  0  0  0  0  0  0  0
  145.3884  134.8627  157.6992 H   0  0  0  0  0  0  0  0  0  0  0  0
  143.8442  135.3478  158.3636 H   0  0  0  0  0  0  0  0  0  0  0  0
  142.4533  129.6005  159.0475 H   0  0  0  0  0  0  0  0  0  0  0  0
  141.8347  129.9188  157.4188 H   0  0  0  0  0  0  0  0  0  0  0  0
  141.1702  130.7928  158.8078 H   0  0  0  0  0  0  0  0  0  0  0  0
  1  2  1  0  0  0  0
  1 21  1  0  0  0  0
  1 22  1  0  0  0  0
  1 23  1  0  0  0  0
  2  3  1  0  0  0  0
  3  8  1  0  0  0  0
  3  4  1  0  0  0  0
  3 24  1  0  0  0  0
  4  5  1  0  0  0  0
  4 25  1  0  0  0  0
  4 26  1  0  0  0  0
  5  6  1  0  0  0  0
  5 27  1  0  0  0  0
  5 28  1  0  0  0  0
  6  7  1  0  0  0  0
  6 29  1  0  0  0  0
  6 30  1  0  0  0  0
  7  8  1  0  0  0  0
  7 31  1  0  0  0  0
  7 32  1  0  0  0  0
  8  9  1  0  0  0  0
  8 33  1  0  0  0  0
  9 10  1  0  0  0  0
  9 34  1  0  0  0  0
 10 11  2  0  0  0  0
 10 12  1  0  0  0  0
 12 13  1  0  0  0  0
 12 35  1  0  0  0  0
 13 14  1  0  0  0  0
 13 36  1  0  0  0  0
 13 37  1  0  0  0  0
 14 15  1  0  0  0  0
 14 38  1  0  0  0  0
 14 39  1  0  0  0  0
 15 20  1  0  0  0  0
 15 16  2  0  0  0  0
 16 17  1  0  0  0  0
 17 18  1  0  0  0  0
 17 19  2  0  0  0  0
 18 40  1  0  0  0  0
 18 41  1  0  0  0  0
 18 42  1  0  0  0  0
 19 20  1  0  0  0  0
M  END
> <s_m_source_file>
AV-unprocessed.smi

> <i_m_source_file_index>
2878

> <i_lp_mmshare_version>
43012

> <i_f3d_flags>
0

> <s_epik_input>
W0NIM11TW0NAQEhdMVtDSDJdW0NIMl1bQ0gyXVtDSDJdW0NASF0xW05IXUMoPU8pW05IXVtDSDJdW0NIMl1jMm5jKFtDSDNdKW5vMg==

> <s_epik_cmdline>
J2VwaWtfcHl0aG9uJywgJy1waCcsICc3LjAnLCAnLXRuJywgJzgnLCAnLW1hJywgJzIwMCcsICctbWV0YWxfYmluZGluZycsICctaW1hZScsICc8aW5maWxlLm1hZT4nLCAnLW9tYWUnLCAnPG91dGZpbGUubWFlPic=

> <r_lp_tautomer_probability>
1

> <r_epik_Ionization_Penalty>
4.9299e-05

> <r_epik_Ionization_Penalty_Charging>
0

> <r_epik_Ionization_Penalty_Neutral>
4.9299e-05

> <r_epik_State_Penalty>
-0

> <r_epik_Charging_Adjusted_Penalty>
0

> <i_epik_Tot_Q>
0

> <i_epik_Tot_abs_Q>
0

> <r_epik_Metal_State_Penalty>
-0

> <b_epik_Metal_Only>
0

> <s_lp_Force_Field>
OPLS_2005

> <r_lp_Energy>
0.0435146

> <b_lp_Chiralities_Consistent>
1

> <s_lp_Variant>
AV-unprocessed.smi:2878-2

> <Gold.Version>
5.8.1

> <Gold.Id.Protein>
6NUR|6NUR_protein|mol2

> <Gold.PLP.Fitness>
36.9509

> <Gold.PLP.PLP>
-29.9082

> <Gold.PLP.part.hbond>
-2.6656

> <Gold.PLP.part.metal>
0.0000

> <Gold.PLP.part.buried>
-6.3607

> <Gold.PLP.part.nonpolar>
-22.2605

> <Gold.PLP.part.repulsive>
0.3675

> <Gold.PLP.ligand.clash>
0.0000

> <Gold.PLP.ligand.torsion>
0.1474

> <Gold.PLP.Chemscore.Hbond>
2.4298

> <Gold.PLP.Chemscore.CHOScore>
0.0000

> <Gold.PLP.Chemscore.Metal>
0.0000

> <Gold.Chemscore.Hbonds>
donor molecule, donor type, donor heavy atom, donor atom, acceptor molecule, acceptor atom, score
      L1  H     9    34       P1 10957  0.36
      L1  H    12    35       P1 10957  1.00
      P1  H 11000 11005       L1    16  0.75

> <Gold.PLP.Chemscore.Internal.Correction>
0.0482

> <Gold.Rescore>
     Score         DG    S(hbond)    S(metal)    S(lipo)     H(rot)  DE(clash)    DE(int)     intcor
     15.68     -15.79       2.26        0.00      69.49       2.09       0.00       0.11       ----

> <Gold.Chemscore.Fitness>
15.6753

> <Gold.Chemscore.DG>
-15.7893

> <Gold.Chemscore.ZeroCoef>
-5.4800

> <Gold.Chemscore.Hbond>
2.2561

> <Gold.Chemscore.Metal>
0.0000

> <Gold.Chemscore.Lipo>
69.4895

> <Gold.Chemscore.Internal_Hbond>
0.0000

> <Gold.Chemscore.DEClash>
0.0015

> <Gold.Chemscore.DEInternal>
0.1125

> <Gold.Chemscore.Rot>
2.0923

> <Gold.Chemscore.Internal.Correction>
   9.000000E+99

> <Gold.Chemscore.Hbonds>
donor molecule, donor type, donor heavy atom, donor atom, acceptor molecule, acceptor atom, score
      L1  H     9    34       P1 10957  0.09
      L1  H    12    35       P1 10957  0.99
      P1  H 11000 11005       L1    16  0.66

> <Gold.Chemscore.Hbond.Weighted>
-7.5352

> <Gold.Chemscore.Metal.Weighted>
-0.0000

> <Gold.Chemscore.Lipo.Weighted>
-8.1303

> <Gold.Chemscore.Internal_Hbond.Weighted>
0.0000

> <Gold.Chemscore.DEClash.Weighted>
0.0015

> <Gold.Chemscore.DEInternal.Weighted>
0.1125

> <Gold.Chemscore.Rot.Weighted>
5.3562

> <Gold.Chemscore.Internal.Correction.Weighted>
   9.000000E+99

> <Gold.Protein.RotatedTorsions>
[ 6907 6896 6895 6894 ] final   36.75 input  -60.11 | X-H torsion
[ 7974 7965 7964 7962 ] final  -38.86 input  175.53 | X-H torsion
[ 8008 7997 7996 7995 ] final  112.41 input   59.86 | X-H torsion
[ 10167 10162 10161 10158 ] final  126.18 input  -65.29 | X-H torsion
[ 10718 10713 10712 10709 ] final -168.40 input   66.30 | X-H torsion
[ 10763 10752 10751 10750 ] final   -6.64 input  -60.55 | X-H torsion
[ 11005 11000 10999 10996 ] final  -81.51 input  -57.11 | X-H torsion

> <Gold.Protein.ActiveResidues>
 VAL166  LYS551  ARG553  GLY616  TRP617  ASP618  TYR619  PRO620  LYS621  CYS622 
 ASP623  PHE694  ASN695  SER759  ASP760  ASP761  ALA762  ILE779  LEU786  VAL792 
 PHE793  MET794  SER795  GLU796  ALA797  LYS798  CYS799  TRP800  GLU811  SER814 

> <Gold.Protein.RotatedAtoms>
  152.1340  134.9113  160.0557 H   0  0  0  0  0  0  0  0  0  0  0  0  # atno 6907 bound_to 6896
  152.0207  133.3892  159.4265 H   0  0  0  0  0  0  0  0  0  0  0  0  # atno 6908 bound_to 6896
  150.6859  134.3551  159.4969 H   0  0  0  0  0  0  0  0  0  0  0  0  # atno 6909 bound_to 6896
  146.0449  140.6560  142.9069 H   0  0  0  0  0  0  0  0  0  0  0  0  # atno 7974 bound_to 7965
  156.2190  140.3000  155.9907 H   0  0  0  0  0  0  0  0  0  0  0  0  # atno 8008 bound_to 7997
  155.2531  140.0427  157.3006 H   0  0  0  0  0  0  0  0  0  0  0  0  # atno 8009 bound_to 7997
  154.5811  140.2375  155.8060 H   0  0  0  0  0  0  0  0  0  0  0  0  # atno 8010 bound_to 7997
  139.5645  144.6903  151.3949 H   0  0  0  0  0  0  0  0  0  0  0  0  # atno 10167 bound_to 10162
  156.6964  130.9179  151.3075 H   0  0  0  0  0  0  0  0  0  0  0  0  # atno 10718 bound_to 10713
  153.4152  135.7008  153.6332 H   0  0  0  0  0  0  0  0  0  0  0  0  # atno 10763 bound_to 10752
  153.4809  135.3694  155.2442 H   0  0  0  0  0  0  0  0  0  0  0  0  # atno 10764 bound_to 10752
  154.8719  135.4066  154.3511 H   0  0  0  0  0  0  0  0  0  0  0  0  # atno 10765 bound_to 10752
  141.1666  133.7200  156.8433 H   0  0  0  0  0  0  0  0  0  0  0  0  # atno 11005 bound_to 11000
  144.7093  140.3975  143.7093 LP  0  0  0  0  0  0  0  0  0  0  0  0  # atno 17320 bound_to 7965
  145.6823  139.1621  143.2694 LP  0  0  0  0  0  0  0  0  0  0  0  0  # atno 17321 bound_to 7965
  140.6928  143.7822  150.7280 LP  0  0  0  0  0  0  0  0  0  0  0  0  # atno 17342 bound_to 10162
  140.1309  143.4527  152.2255 LP  0  0  0  0  0  0  0  0  0  0  0  0  # atno 17343 bound_to 10162
  157.6989  130.9312  150.0727 LP  0  0  0  0  0  0  0  0  0  0  0  0  # atno 17370 bound_to 10713
  156.1760  130.3648  149.9100 LP  0  0  0  0  0  0  0  0  0  0  0  0  # atno 17371 bound_to 10713
  140.1968  134.8926  157.3123 LP  0  0  0  0  0  0  0  0  0  0  0  0  # atno 17394 bound_to 11000
  140.2231  134.4000  155.7556 LP  0  0  0  0  0  0  0  0  0  0  0  0  # atno 17395 bound_to 11000

$$$$
