AV-unprocessed.smi:2095|AV-procd|sdf|8556|dock10
  -GOLD-   2272011283D 1   1.00000     0.00000
 Structure written by MMmdl.
 42 43  0  0  0  0  0  0  0  0  2 V2000
  152.6661  144.8135  158.0408 C   0  0  0  0  0  0  0  0  0  0  0  0
  151.6829  144.1347  159.0105 C   0  0  2  0  0  0  0  0  0  0  0  0
  152.3479  143.7053  160.3324 C   0  0  0  0  0  0  0  0  0  0  0  0
  153.2365  142.4674  160.1374 C   0  0  0  0  0  0  0  0  0  0  0  0
  152.4581  141.3281  159.4605 C   0  0  0  0  0  0  0  0  0  0  0  0
  151.8730  141.7829  158.1720 N   0  3  1  0  0  0  0  0  0  0  0  0
  151.3370  140.6691  157.3369 C   0  0  2  0  0  0  0  0  0  0  0  0
  150.0962  140.0388  157.9992 C   0  0  0  0  0  0  0  0  0  0  0  0
  152.4128  139.6198  156.9558 C   0  0  0  0  0  0  0  0  0  0  0  0
  151.8270  138.4372  156.3363 N   0  0  0  0  0  0  0  0  0  0  0  0
  151.1871  138.4251  155.1570 C   0  0  0  0  0  0  0  0  0  0  0  0
  151.0847  139.4135  154.4311 O   0  0  0  0  0  0  0  0  0  0  0  0
  150.5381  137.1030  154.7495 C   0  0  0  0  0  0  0  0  0  0  0  0
  150.8947  136.0548  155.6866 N   0  0  0  0  0  0  0  0  0  0  0  0
  150.1400  135.3068  156.4941 C   0  0  0  0  0  0  0  0  0  0  0  0
  150.8749  134.4790  157.2211 N   0  0  0  0  0  0  0  0  0  0  0  0
  152.1670  134.7590  156.8082 N   0  0  0  0  0  0  0  0  0  0  0  0
  152.1852  135.6933  155.8979 N   0  0  0  0  0  0  0  0  0  0  0  0
  150.9545  142.9401  158.3610 C   0  0  0  0  0  0  0  0  0  0  0  0
  153.4566  144.1355  157.7192 H   0  0  0  0  0  0  0  0  0  0  0  0
  153.1403  145.6780  158.5065 H   0  0  0  0  0  0  0  0  0  0  0  0
  152.1516  145.1658  157.1462 H   0  0  0  0  0  0  0  0  0  0  0  0
  150.9281  144.8831  159.2554 H   0  0  0  0  0  0  0  0  0  0  0  0
  152.9287  144.5261  160.7547 H   0  0  0  0  0  0  0  0  0  0  0  0
  151.5728  143.4731  161.0640 H   0  0  0  0  0  0  0  0  0  0  0  0
  154.1081  142.7255  159.5351 H   0  0  0  0  0  0  0  0  0  0  0  0
  153.6211  142.1322  161.1011 H   0  0  0  0  0  0  0  0  0  0  0  0
  153.1337  140.4890  159.2908 H   0  0  0  0  0  0  0  0  0  0  0  0
  151.6688  140.9709  160.1231 H   0  0  0  0  0  0  0  0  0  0  0  0
  150.9730  141.1245  156.4149 H   0  0  0  0  0  0  0  0  0  0  0  0
  149.5859  139.3576  157.3175 H   0  0  0  0  0  0  0  0  0  0  0  0
  149.3739  140.8037  158.2860 H   0  0  0  0  0  0  0  0  0  0  0  0
  150.3529  139.4703  158.8928 H   0  0  0  0  0  0  0  0  0  0  0  0
  153.1595  140.0468  156.2848 H   0  0  0  0  0  0  0  0  0  0  0  0
  152.9499  139.2819  157.8419 H   0  0  0  0  0  0  0  0  0  0  0  0
  151.8642  137.5772  156.8649 H   0  0  0  0  0  0  0  0  0  0  0  0
  149.4521  137.2061  154.7323 H   0  0  0  0  0  0  0  0  0  0  0  0
  150.8536  136.8173  153.7448 H   0  0  0  0  0  0  0  0  0  0  0  0
  149.0638  135.3756  156.5557 H   0  0  0  0  0  0  0  0  0  0  0  0
  150.1209  142.6426  158.9986 H   0  0  0  0  0  0  0  0  0  0  0  0
  150.5235  143.2510  157.4098 H   0  0  0  0  0  0  0  0  0  0  0  0
  152.6564  142.1424  157.6455 H   0  0  0  0  0  0  0  0  0  0  0  0
  1  2  1  0  0  0  0
  1 20  1  0  0  0  0
  1 21  1  0  0  0  0
  1 22  1  0  0  0  0
  2 19  1  0  0  0  0
  2  3  1  0  0  0  0
  2 23  1  0  0  0  0
  3  4  1  0  0  0  0
  3 24  1  0  0  0  0
  3 25  1  0  0  0  0
  4  5  1  0  0  0  0
  4 26  1  0  0  0  0
  4 27  1  0  0  0  0
  5  6  1  0  0  0  0
  5 28  1  0  0  0  0
  5 29  1  0  0  0  0
  6  7  1  0  0  0  0
  6 19  1  0  0  0  0
  6 42  1  0  0  0  0
  7  8  1  0  0  0  0
  7  9  1  0  0  0  0
  7 30  1  0  0  0  0
  8 31  1  0  0  0  0
  8 32  1  0  0  0  0
  8 33  1  0  0  0  0
  9 10  1  0  0  0  0
  9 34  1  0  0  0  0
  9 35  1  0  0  0  0
 10 11  1  0  0  0  0
 10 36  1  0  0  0  0
 11 12  2  0  0  0  0
 11 13  1  0  0  0  0
 13 14  1  0  0  0  0
 13 37  1  0  0  0  0
 13 38  1  0  0  0  0
 14 18  1  0  0  0  0
 14 15  1  0  0  0  0
 15 16  2  0  0  0  0
 15 39  1  0  0  0  0
 16 17  1  0  0  0  0
 17 18  2  0  0  0  0
 19 40  1  0  0  0  0
 19 41  1  0  0  0  0
M  CHG  1   6   1
M  END
> <s_m_source_file>
AV-unprocessed.smi

> <i_m_source_file_index>
2095

> <i_lp_mmshare_version>
43012

> <i_f3d_flags>
0

> <s_epik_input>
W0NIM11bQ0BASF0xW0NIMl1bQ0gyXVtDSDJdTihbQ0gyXTEpW0NASF0oW0NIM10pW0NIMl1bTkhdQyg9TylbQ0gyXW4yW2NIXW5ubjI=

> <s_epik_cmdline>
J2VwaWtfcHl0aG9uJywgJy1waCcsICc3LjAnLCAnLXRuJywgJzgnLCAnLW1hJywgJzIwMCcsICctbWV0YWxfYmluZGluZycsICctaW1hZScsICc8aW5maWxlLm1hZT4nLCAnLW9tYWUnLCAnPG91dGZpbGUubWFlPic=

> <r_lp_tautomer_probability>
1

> <r_epik_Ionization_Penalty>
0.00268321

> <r_epik_Ionization_Penalty_Charging>
0.00267875

> <r_epik_Ionization_Penalty_Neutral>
4.46125e-06

> <r_epik_State_Penalty>
0.00186642

> <r_epik_Charging_Adjusted_Penalty>
0.00454517

> <i_epik_Tot_Q>
1

> <i_epik_Tot_abs_Q>
1

> <r_epik_Metal_State_Penalty>
-0

> <b_epik_Metal_Only>
0

> <s_lp_Force_Field>
OPLS_2005

> <r_lp_Energy>
23.935

> <b_lp_Chiralities_Consistent>
1

> <s_lp_Variant>
AV-unprocessed.smi:2095-3

> <Gold.Version>
5.8.1

> <Gold.Id.Protein>
6NUR|6NUR_protein|mol2

> <Gold.PLP.Fitness>
43.2042

> <Gold.PLP.PLP>
-35.6381

> <Gold.PLP.part.hbond>
-4.0000

> <Gold.PLP.part.metal>
0.0000

> <Gold.PLP.part.buried>
-4.5459

> <Gold.PLP.part.nonpolar>
-27.4637

> <Gold.PLP.part.repulsive>
0.3010

> <Gold.PLP.ligand.clash>
0.0000

> <Gold.PLP.ligand.torsion>
0.1857

> <Gold.PLP.Chemscore.Hbond>
2.6080

> <Gold.PLP.Chemscore.CHOScore>
0.0000

> <Gold.PLP.Chemscore.Metal>
0.0000

> <Gold.Chemscore.Hbonds>
donor molecule, donor type, donor heavy atom, donor atom, acceptor molecule, acceptor atom, score
      P1  H  6896  6909       L1    16  0.29
      P1  H  7989  7998       L1    12  1.00
      P1  H 10752 10764       L1    18  0.41

> <Gold.PLP.Chemscore.Internal.Correction>
0.1136

> <Gold.Rescore>
     Score         DG    S(hbond)    S(metal)    S(lipo)     H(rot)  DE(clash)    DE(int)     intcor
     15.32     -16.87       2.34        0.00      88.42       2.64       0.02       1.53       ----

> <Gold.Chemscore.Fitness>
15.3243

> <Gold.Chemscore.DG>
-16.8669

> <Gold.Chemscore.ZeroCoef>
-5.4800

> <Gold.Chemscore.Hbond>
2.3383

> <Gold.Chemscore.Metal>
0.0000

> <Gold.Chemscore.Lipo>
88.4235

> <Gold.Chemscore.Internal_Hbond>
0.0000

> <Gold.Chemscore.DEClash>
0.0174

> <Gold.Chemscore.DEInternal>
1.5252

> <Gold.Chemscore.Rot>
2.6439

> <Gold.Chemscore.Internal.Correction>
   9.000000E+99

> <Gold.Chemscore.Hbonds>
donor molecule, donor type, donor heavy atom, donor atom, acceptor molecule, acceptor atom, score
      P1  H  6896  6909       L1    16  0.25
      P1  H  7989  7998       L1    12  1.00
      P1  H 10752 10764       L1    18  0.32

> <Gold.Chemscore.Hbond.Weighted>
-7.8098

> <Gold.Chemscore.Metal.Weighted>
-0.0000

> <Gold.Chemscore.Lipo.Weighted>
-10.3455

> <Gold.Chemscore.Internal_Hbond.Weighted>
0.0000

> <Gold.Chemscore.DEClash.Weighted>
0.0174

> <Gold.Chemscore.DEInternal.Weighted>
1.5252

> <Gold.Chemscore.Rot.Weighted>
6.7685

> <Gold.Chemscore.Internal.Correction.Weighted>
   9.000000E+99

> <Gold.Protein.RotatedTorsions>
[ 6907 6896 6895 6894 ] final   16.87 input  -60.11 | X-H torsion
[ 7974 7965 7964 7962 ] final  -23.25 input  175.53 | X-H torsion
[ 8008 7997 7996 7995 ] final   74.27 input   59.86 | X-H torsion
[ 10167 10162 10161 10158 ] final   12.33 input  -65.29 | X-H torsion
[ 10718 10713 10712 10709 ] final -148.04 input   66.30 | X-H torsion
[ 10763 10752 10751 10750 ] final  -32.18 input  -60.55 | X-H torsion
[ 11005 11000 10999 10996 ] final   73.93 input  -57.11 | X-H torsion

> <Gold.Protein.ActiveResidues>
 VAL166  LYS551  ARG553  GLY616  TRP617  ASP618  TYR619  PRO620  LYS621  CYS622 
 ASP623  PHE694  ASN695  SER759  ASP760  ASP761  ALA762  ILE779  LEU786  VAL792 
 PHE793  MET794  SER795  GLU796  ALA797  LYS798  CYS799  TRP800  GLU811  SER814 

> <Gold.Protein.RotatedAtoms>
  151.8408  135.0591  160.0447 H   0  0  0  0  0  0  0  0  0  0  0  0  # atno 6907 bound_to 6896
  152.2811  133.5466  159.5506 H   0  0  0  0  0  0  0  0  0  0  0  0  # atno 6908 bound_to 6896
  150.7190  134.0479  159.3830 H   0  0  0  0  0  0  0  0  0  0  0  0  # atno 6909 bound_to 6896
  146.1628  140.4590  142.8564 H   0  0  0  0  0  0  0  0  0  0  0  0  # atno 7974 bound_to 7965
  155.7959  140.3478  155.5375 H   0  0  0  0  0  0  0  0  0  0  0  0  # atno 8008 bound_to 7997
  155.8587  140.0968  157.1648 H   0  0  0  0  0  0  0  0  0  0  0  0  # atno 8009 bound_to 7997
  154.4011  140.1363  156.3921 H   0  0  0  0  0  0  0  0  0  0  0  0  # atno 8010 bound_to 7997
  140.6075  143.8478  150.7029 H   0  0  0  0  0  0  0  0  0  0  0  0  # atno 10167 bound_to 10162
  156.4152  130.8001  151.2221 H   0  0  0  0  0  0  0  0  0  0  0  0  # atno 10718 bound_to 10713
  153.8095  135.6883  153.4843 H   0  0  0  0  0  0  0  0  0  0  0  0  # atno 10763 bound_to 10752
  153.1637  135.4570  154.9806 H   0  0  0  0  0  0  0  0  0  0  0  0  # atno 10764 bound_to 10752
  154.7973  135.3324  154.7577 H   0  0  0  0  0  0  0  0  0  0  0  0  # atno 10765 bound_to 10752
  139.9416  134.7389  156.1086 H   0  0  0  0  0  0  0  0  0  0  0  0  # atno 11005 bound_to 11000
  144.8050  140.6283  143.6453 LP  0  0  0  0  0  0  0  0  0  0  0  0  # atno 17320 bound_to 7965
  145.4546  139.1519  143.3900 LP  0  0  0  0  0  0  0  0  0  0  0  0  # atno 17321 bound_to 7965
  140.2038  143.3938  152.1771 LP  0  0  0  0  0  0  0  0  0  0  0  0  # atno 17342 bound_to 10162
  139.5336  144.7185  151.4971 LP  0  0  0  0  0  0  0  0  0  0  0  0  # atno 17343 bound_to 10162
  157.7508  131.0245  150.3879 LP  0  0  0  0  0  0  0  0  0  0  0  0  # atno 17370 bound_to 10713
  156.4186  130.3948  149.6841 LP  0  0  0  0  0  0  0  0  0  0  0  0  # atno 17371 bound_to 10713
  141.1052  133.6662  156.2847 LP  0  0  0  0  0  0  0  0  0  0  0  0  # atno 17394 bound_to 11000
  140.5938  134.5623  157.5505 LP  0  0  0  0  0  0  0  0  0  0  0  0  # atno 17395 bound_to 11000

$$$$
