AV-unprocessed.smi:3318|AV-procd|sdf|12765|dock7
  -GOLD-   2272019103D 1   1.00000     0.00000
 Structure written by MMmdl.
 44 45  0  0  0  0  0  0  0  0  2 V2000
  149.6541  132.3022  153.7594 C   0  0  0  0  0  0  0  0  0  0  0  0
  150.1059  133.7638  153.8527 C   0  0  0  0  0  0  0  0  0  0  0  0
  149.0653  134.6542  154.5534 C   0  0  0  0  0  0  0  0  0  0  0  0
  149.4190  136.0956  154.4982 N   0  3  2  0  0  0  0  0  0  0  0  0
  150.7141  136.4099  155.1585 C   0  0  0  0  0  0  0  0  0  0  0  0
  151.0947  137.8877  154.9663 C   0  0  0  0  0  0  0  0  0  0  0  0
  149.9831  138.8196  155.4870 C   0  0  1  0  0  0  0  0  0  0  0  0
  150.2783  140.2154  155.1882 N   0  0  0  0  0  0  0  0  0  0  0  0
  151.2573  140.7768  156.1080 C   0  0  0  0  0  0  0  0  0  0  0  0
  150.8282  142.1900  156.5251 C   0  0  0  0  0  0  0  0  0  0  0  0
  151.4615  142.6079  157.8387 C   0  0  0  0  0  0  0  0  0  0  0  0
  152.1993  141.6843  158.6095 C   0  0  0  0  0  0  0  0  0  0  0  0
  152.7794  142.1278  159.8137 C   0  0  0  0  0  0  0  0  0  0  0  0
  152.6011  143.4707  160.1985 C   0  0  0  0  0  0  0  0  0  0  0  0
  151.8468  144.3138  159.3583 C   0  0  0  0  0  0  0  0  0  0  0  0
  151.2869  143.8990  158.2014 N   0  0  0  0  0  0  0  0  0  0  0  0
  148.6545  138.4492  154.8088 C   0  0  0  0  0  0  0  0  0  0  0  0
  148.3259  136.9612  155.0110 C   0  0  0  0  0  0  0  0  0  0  0  0
  150.4094  131.6936  153.2619 H   0  0  0  0  0  0  0  0  0  0  0  0
  148.7280  132.2106  153.1914 H   0  0  0  0  0  0  0  0  0  0  0  0
  149.4843  131.8779  154.7493 H   0  0  0  0  0  0  0  0  0  0  0  0
  151.0582  133.7979  154.3808 H   0  0  0  0  0  0  0  0  0  0  0  0
  150.2947  134.1430  152.8479 H   0  0  0  0  0  0  0  0  0  0  0  0
  148.1075  134.5042  154.0534 H   0  0  0  0  0  0  0  0  0  0  0  0
  148.9228  134.3441  155.5898 H   0  0  0  0  0  0  0  0  0  0  0  0
  150.6476  136.1770  156.2225 H   0  0  0  0  0  0  0  0  0  0  0  0
  151.5102  135.7888  154.7501 H   0  0  0  0  0  0  0  0  0  0  0  0
  152.0353  138.0803  155.4825 H   0  0  0  0  0  0  0  0  0  0  0  0
  151.2778  138.0796  153.9078 H   0  0  0  0  0  0  0  0  0  0  0  0
  149.8678  138.6956  156.5652 H   0  0  0  0  0  0  0  0  0  0  0  0
  150.5968  140.3122  154.2344 H   0  0  0  0  0  0  0  0  0  0  0  0
  151.3414  140.1389  156.9889 H   0  0  0  0  0  0  0  0  0  0  0  0
  152.2392  140.8173  155.6369 H   0  0  0  0  0  0  0  0  0  0  0  0
  151.1059  142.9114  155.7549 H   0  0  0  0  0  0  0  0  0  0  0  0
  149.7423  142.2412  156.6180 H   0  0  0  0  0  0  0  0  0  0  0  0
  152.3220  140.6610  158.2862 H   0  0  0  0  0  0  0  0  0  0  0  0
  153.3521  141.4507  160.4299 H   0  0  0  0  0  0  0  0  0  0  0  0
  153.0324  143.8457  161.1146 H   0  0  0  0  0  0  0  0  0  0  0  0
  151.6905  145.3494  159.6216 H   0  0  0  0  0  0  0  0  0  0  0  0
  147.8454  139.0606  155.2110 H   0  0  0  0  0  0  0  0  0  0  0  0
  148.7042  138.6654  153.7402 H   0  0  0  0  0  0  0  0  0  0  0  0
  147.3959  136.7295  154.4906 H   0  0  0  0  0  0  0  0  0  0  0  0
  148.1588  136.7519  156.0690 H   0  0  0  0  0  0  0  0  0  0  0  0
  149.5229  136.3262  153.5204 H   0  0  0  0  0  0  0  0  0  0  0  0
  1  2  1  0  0  0  0
  1 19  1  0  0  0  0
  1 20  1  0  0  0  0
  1 21  1  0  0  0  0
  2  3  1  0  0  0  0
  2 22  1  0  0  0  0
  2 23  1  0  0  0  0
  3  4  1  0  0  0  0
  3 24  1  0  0  0  0
  3 25  1  0  0  0  0
  4 18  1  0  0  0  0
  4  5  1  0  0  0  0
  4 44  1  0  0  0  0
  5  6  1  0  0  0  0
  5 26  1  0  0  0  0
  5 27  1  0  0  0  0
  6  7  1  0  0  0  0
  6 28  1  0  0  0  0
  6 29  1  0  0  0  0
  7  8  1  0  0  0  0
  7 17  1  0  0  0  0
  7 30  1  0  0  0  0
  8  9  1  0  0  0  0
  8 31  1  0  0  0  0
  9 10  1  0  0  0  0
  9 32  1  0  0  0  0
  9 33  1  0  0  0  0
 10 11  1  0  0  0  0
 10 34  1  0  0  0  0
 10 35  1  0  0  0  0
 11 16  1  0  0  0  0
 11 12  2  0  0  0  0
 12 13  1  0  0  0  0
 12 36  1  0  0  0  0
 13 14  2  0  0  0  0
 13 37  1  0  0  0  0
 14 15  1  0  0  0  0
 14 38  1  0  0  0  0
 15 16  2  0  0  0  0
 15 39  1  0  0  0  0
 17 18  1  0  0  0  0
 17 40  1  0  0  0  0
 17 41  1  0  0  0  0
 18 42  1  0  0  0  0
 18 43  1  0  0  0  0
M  CHG  1   4   1
M  END
> <s_m_source_file>
AV-unprocessed.smi

> <i_m_source_file_index>
3318

> <i_lp_mmshare_version>
43012

> <i_f3d_flags>
0

> <s_epik_input>
W0NIM11bQ0gyXVtDSDJdTjFbQ0gyXVtDSDJdW0NIXShbQ0gyXVtDSDJdMSlbTkhdW0NIMl1bQ0gyXWMyW2NIXVtjSF1bY0hdW2NIXW4y

> <s_epik_cmdline>
J2VwaWtfcHl0aG9uJywgJy1waCcsICc3LjAnLCAnLXRuJywgJzgnLCAnLW1hJywgJzIwMCcsICctbWV0YWxfYmluZGluZycsICctaW1hZScsICc8aW5maWxlLm1hZT4nLCAnLW9tYWUnLCAnPG91dGZpbGUubWFlPic=

> <r_epik_Ionization_Penalty>
2.30703

> <r_epik_Ionization_Penalty_Charging>
0.000286176

> <r_epik_Ionization_Penalty_Neutral>
2.30674

> <r_epik_State_Penalty>
2.39905

> <r_epik_Charging_Adjusted_Penalty>
2.39933

> <i_epik_Tot_Q>
1

> <i_epik_Tot_abs_Q>
1

> <r_epik_Metal_State_Penalty>
2.30906

> <b_epik_Metal_Only>
0

> <s_lp_Force_Field>
OPLS_2005

> <r_lp_Energy>
18.8506

> <b_lp_Chiralities_Consistent>
1

> <s_lp_Variant>
AV-unprocessed.smi:3318-4

> <Gold.Version>
5.8.1

> <Gold.Id.Protein>
6NUR|6NUR_protein|mol2

> <Gold.PLP.Fitness>
41.4695

> <Gold.PLP.PLP>
-36.7304

> <Gold.PLP.part.hbond>
-1.8273

> <Gold.PLP.part.metal>
0.0000

> <Gold.PLP.part.buried>
-5.3748

> <Gold.PLP.part.nonpolar>
-28.6851

> <Gold.PLP.part.repulsive>
0.1373

> <Gold.PLP.ligand.clash>
0.0000

> <Gold.PLP.ligand.torsion>
0.6682

> <Gold.PLP.Chemscore.Hbond>
2.0000

> <Gold.PLP.Chemscore.CHOScore>
0.0000

> <Gold.PLP.Chemscore.Metal>
0.0000

> <Gold.Chemscore.Hbonds>
donor molecule, donor type, donor heavy atom, donor atom, acceptor molecule, acceptor atom, score
      L1  H     4    44       P1  7948  2.00

> <Gold.PLP.Chemscore.Internal.Correction>
0.0756

> <Gold.Rescore>
     Score         DG    S(hbond)    S(metal)    S(lipo)     H(rot)  DE(clash)    DE(int)     intcor
     16.54     -17.17       0.91        0.00     106.40       1.48       0.00       0.63       ----

> <Gold.Chemscore.Fitness>
16.5447

> <Gold.Chemscore.DG>
-17.1725

> <Gold.Chemscore.ZeroCoef>
-5.4800

> <Gold.Chemscore.Hbond>
0.9089

> <Gold.Chemscore.Metal>
0.0000

> <Gold.Chemscore.Lipo>
106.3979

> <Gold.Chemscore.Internal_Hbond>
0.0000

> <Gold.Chemscore.DEClash>
0.0021

> <Gold.Chemscore.DEInternal>
0.6257

> <Gold.Chemscore.Rot>
1.4811

> <Gold.Chemscore.Internal.Correction>
   9.000000E+99

> <Gold.Chemscore.Hbonds>
donor molecule, donor type, donor heavy atom, donor atom, acceptor molecule, acceptor atom, score
      L1  H     4    44       P1  7948  0.58

> <Gold.Chemscore.Hbond.Weighted>
-3.0357

> <Gold.Chemscore.Metal.Weighted>
-0.0000

> <Gold.Chemscore.Lipo.Weighted>
-12.4486

> <Gold.Chemscore.Internal_Hbond.Weighted>
0.0000

> <Gold.Chemscore.DEClash.Weighted>
0.0021

> <Gold.Chemscore.DEInternal.Weighted>
0.6257

> <Gold.Chemscore.Rot.Weighted>
3.7917

> <Gold.Chemscore.Internal.Correction.Weighted>
   9.000000E+99

> <Gold.Protein.RotatedTorsions>
[ 6907 6896 6895 6894 ] final   79.62 input  -60.11 | X-H torsion
[ 7974 7965 7964 7962 ] final -117.26 input  175.53 | X-H torsion
[ 8008 7997 7996 7995 ] final   15.34 input   59.86 | X-H torsion
[ 10167 10162 10161 10158 ] final   97.95 input  -65.29 | X-H torsion
[ 10718 10713 10712 10709 ] final  100.90 input   66.30 | X-H torsion
[ 10763 10752 10751 10750 ] final    7.73 input  -60.55 | X-H torsion
[ 11005 11000 10999 10996 ] final   34.72 input  -57.11 | X-H torsion

> <Gold.Protein.ActiveResidues>
 VAL166  LYS551  ARG553  GLY616  TRP617  ASP618  TYR619  PRO620  LYS621  CYS622 
 ASP623  PHE694  ASN695  SER759  ASP760  ASP761  ALA762  ILE779  LEU786  VAL792 
 PHE793  MET794  SER795  GLU796  ALA797  LYS798  CYS799  TRP800  GLU811  SER814 

> <Gold.Protein.RotatedAtoms>
  152.5205  134.3483  159.9241 H   0  0  0  0  0  0  0  0  0  0  0  0  # atno 6907 bound_to 6896
  151.3433  133.3947  159.2681 H   0  0  0  0  0  0  0  0  0  0  0  0  # atno 6908 bound_to 6896
  150.9785  134.9163  159.7888 H   0  0  0  0  0  0  0  0  0  0  0  0  # atno 6909 bound_to 6896
  145.0872  140.8466  143.4004 H   0  0  0  0  0  0  0  0  0  0  0  0  # atno 7974 bound_to 7965
  154.8613  140.2945  155.5537 H   0  0  0  0  0  0  0  0  0  0  0  0  # atno 8008 bound_to 7997
  156.3020  140.2477  156.3520 H   0  0  0  0  0  0  0  0  0  0  0  0  # atno 8009 bound_to 7997
  154.8915  140.0394  157.1830 H   0  0  0  0  0  0  0  0  0  0  0  0  # atno 8010 bound_to 7997
  139.7754  144.6908  151.0097 H   0  0  0  0  0  0  0  0  0  0  0  0  # atno 10167 bound_to 10162
  157.6843  131.0711  150.5170 H   0  0  0  0  0  0  0  0  0  0  0  0  # atno 10718 bound_to 10713
  153.2330  135.6895  153.7868 H   0  0  0  0  0  0  0  0  0  0  0  0  # atno 10763 bound_to 10752
  153.7026  135.3295  155.3229 H   0  0  0  0  0  0  0  0  0  0  0  0  # atno 10764 bound_to 10752
  154.8322  135.4571  154.1223 H   0  0  0  0  0  0  0  0  0  0  0  0  # atno 10765 bound_to 10752
  140.2499  134.3315  155.7894 H   0  0  0  0  0  0  0  0  0  0  0  0  # atno 11005 bound_to 11000
  145.1108  139.2758  143.5638 LP  0  0  0  0  0  0  0  0  0  0  0  0  # atno 17320 bound_to 7965
  146.3531  140.0703  142.8623 LP  0  0  0  0  0  0  0  0  0  0  0  0  # atno 17321 bound_to 7965
  140.7816  143.4542  151.0369 LP  0  0  0  0  0  0  0  0  0  0  0  0  # atno 17342 bound_to 10162
  139.8224  143.7801  152.3177 LP  0  0  0  0  0  0  0  0  0  0  0  0  # atno 17343 bound_to 10162
  156.5485  130.4225  149.6119 LP  0  0  0  0  0  0  0  0  0  0  0  0  # atno 17370 bound_to 10713
  156.2923  130.7131  151.1983 LP  0  0  0  0  0  0  0  0  0  0  0  0  # atno 17371 bound_to 10713
  141.2202  133.7347  156.9021 LP  0  0  0  0  0  0  0  0  0  0  0  0  # atno 17394 bound_to 11000
  140.1568  134.9193  157.2664 LP  0  0  0  0  0  0  0  0  0  0  0  0  # atno 17395 bound_to 11000

$$$$
