AV-unprocessed.smi:35|AV-procd|sdf|263|dock7
  -GOLD-   2262016 33D 1   1.00000     0.00000
 Structure written by MMmdl.
 28 29  0  0  0  0  0  0  0  0  2 V2000
  152.7559  141.1572  159.0621 O   0  0  0  0  0  0  0  0  0  0  0  0
  152.1216  141.0786  158.0117 C   0  0  0  0  0  0  0  0  0  0  0  0
  152.4371  140.1970  157.0198 N   0  5  0  0  0  0  0  0  0  0  0  0
  151.7233  140.1064  155.8594 C   0  0  0  0  0  0  0  0  0  0  0  0
  152.0130  139.3251  154.9529 O   0  0  0  0  0  0  0  0  0  0  0  0
  150.5899  140.9474  155.6766 N   0  0  0  0  0  0  0  0  0  0  0  0
  149.8067  140.8415  154.3787 C   0  0  2  0  0  0  0  0  0  0  0  0
  148.8144  141.8268  154.3491 O   0  0  0  0  0  0  0  0  0  0  0  0
  147.5736  141.2710  154.7742 C   0  0  1  0  0  0  0  0  0  0  0  0
  146.3906  142.1708  154.3773 C   0  0  0  0  0  0  0  0  0  0  0  0
  145.1709  141.5353  154.6971 O   0  0  0  0  0  0  0  0  0  0  0  0
  147.6096  139.8881  154.1166 C   0  0  1  0  0  0  0  0  0  0  0  0
  147.2194  139.9737  152.7552 O   0  0  0  0  0  0  0  0  0  0  0  0
  149.0740  139.4844  154.2861 C   0  0  1  0  0  0  0  0  0  0  0  0
  149.5392  138.6649  153.2299 O   0  0  0  0  0  0  0  0  0  0  0  0
  150.2644  141.8729  156.6570 C   0  0  0  0  0  0  0  0  0  0  0  0
  150.9786  141.9611  157.7972 C   0  0  0  0  0  0  0  0  0  0  0  0
  150.3938  143.3251  159.1104 Br  0  0  0  0  0  0  0  0  0  0  0  0
  150.5343  141.0250  153.5861 H   0  0  0  0  0  0  0  0  0  0  0  0
  147.5873  141.1304  155.8566 H   0  0  0  0  0  0  0  0  0  0  0  0
  146.4487  143.1446  154.8646 H   0  0  0  0  0  0  0  0  0  0  0  0
  146.3956  142.3436  153.3008 H   0  0  0  0  0  0  0  0  0  0  0  0
  144.6597  141.4527  153.9066 H   0  0  0  0  0  0  0  0  0  0  0  0
  146.9419  139.1855  154.6162 H   0  0  0  0  0  0  0  0  0  0  0  0
  147.9775  139.7921  152.2206 H   0  0  0  0  0  0  0  0  0  0  0  0
  149.1877  138.9469  155.2290 H   0  0  0  0  0  0  0  0  0  0  0  0
  149.4879  139.1645  152.4281 H   0  0  0  0  0  0  0  0  0  0  0  0
  149.4312  142.5460  156.5262 H   0  0  0  0  0  0  0  0  0  0  0  0
  1  2  2  0  0  0  0
  2 17  1  0  0  0  0
  2  3  1  0  0  0  0
  3  4  1  0  0  0  0
  4  5  2  0  0  0  0
  4  6  1  0  0  0  0
  6  7  1  0  0  0  0
  6 16  1  0  0  0  0
  7 14  1  0  0  0  0
  7  8  1  0  0  0  0
  7 19  1  0  0  0  0
  8  9  1  0  0  0  0
  9 10  1  0  0  0  0
  9 12  1  0  0  0  0
  9 20  1  0  0  0  0
 10 11  1  0  0  0  0
 10 21  1  0  0  0  0
 10 22  1  0  0  0  0
 11 23  1  0  0  0  0
 12 13  1  0  0  0  0
 12 14  1  0  0  0  0
 12 24  1  0  0  0  0
 13 25  1  0  0  0  0
 14 15  1  0  0  0  0
 14 26  1  0  0  0  0
 15 27  1  0  0  0  0
 16 17  2  0  0  0  0
 16 28  1  0  0  0  0
 17 18  1  0  0  0  0
M  CHG  1   3  -1
M  END
> <s_m_source_file>
AV-unprocessed.smi

> <i_m_source_file_index>
35

> <i_lp_mmshare_version>
43012

> <i_f3d_flags>
0

> <s_epik_input>
Tz1jMVtuSF1jKD1PKW4oW2NIXWMxQnIpW0NAQEhdMk9bQ0BASF0oW0NIMl1bT0hdKVtDQEBIXShbT0hdKVtDQEhdMltPSF0=

> <s_epik_cmdline>
J2VwaWtfcHl0aG9uJywgJy1waCcsICc3LjAnLCAnLXRuJywgJzgnLCAnLW1hJywgJzIwMCcsICctbWV0YWxfYmluZGluZycsICctaW1hZScsICc8aW5maWxlLm1hZT4nLCAnLW9tYWUnLCAnPG91dGZpbGUubWFlPic=

> <r_epik_Ionization_Penalty>
1.06112

> <r_epik_Ionization_Penalty_Charging>
2.1796e-09

> <r_epik_Ionization_Penalty_Neutral>
1.06112

> <r_epik_State_Penalty>
1.11484

> <r_epik_Charging_Adjusted_Penalty>
1.11484

> <i_epik_Tot_Q>
-1

> <i_epik_Tot_abs_Q>
1

> <r_epik_Metal_State_Penalty>
0.0032876

> <b_epik_Metal_Only>
0

> <s_epik_Chemistry_Notes>
This compound contains an acetal/aminal-like group ( X-CH(R)-Y where X, Y are N, S, or O) that may be acid/base labile, releasing an aldehyde.

> <s_lp_Force_Field>
OPLS_2005

> <r_lp_Energy>
42.0638

> <b_lp_Chiralities_Consistent>
1

> <s_lp_Variant>
AV-unprocessed.smi:35-17

> <Gold.Version>
5.8.1

> <Gold.Id.Protein>
6NUR|6NUR_protein|mol2

> <Gold.PLP.Fitness>
49.9214

> <Gold.PLP.PLP>
-30.8326

> <Gold.PLP.part.hbond>
-6.8640

> <Gold.PLP.part.metal>
0.0000

> <Gold.PLP.part.buried>
-1.0921

> <Gold.PLP.part.nonpolar>
-22.4016

> <Gold.PLP.part.repulsive>
0.2113

> <Gold.PLP.ligand.clash>
0.0000

> <Gold.PLP.ligand.torsion>
0.0749

> <Gold.PLP.Chemscore.Hbond>
5.4059

> <Gold.PLP.Chemscore.CHOScore>
1.0000

> <Gold.PLP.Chemscore.Metal>
0.0000

> <Gold.Chemscore.Hbonds>
donor molecule, donor type, donor heavy atom, donor atom, acceptor molecule, acceptor atom, score
      L1  H    11    23       P1 10175  1.00
      L1  H    13    25       P1  7957  1.00
      L1  H    15    27       P1  7957  1.00
      P1  H  7989  7998       L1     5  0.38
      P1  H  7997  8010       L1     3  2.00
      P1  H  8011  8017       L1     8  0.03
      L1  C    16    28       P1  8028  1.00

> <Gold.PLP.Chemscore.Internal.Correction>
0.0210

> <Gold.Rescore>
     Score         DG    S(hbond)    S(metal)    S(lipo)     H(rot)  DE(clash)    DE(int)     intcor
     11.01     -12.52       3.51        0.00      39.25       3.63       0.51       1.00       ----

> <Gold.Chemscore.Fitness>
11.0129

> <Gold.Chemscore.DG>
-12.5160

> <Gold.Chemscore.ZeroCoef>
-5.4800

> <Gold.Chemscore.Hbond>
3.5111

> <Gold.Chemscore.Metal>
0.0000

> <Gold.Chemscore.Lipo>
39.2455

> <Gold.Chemscore.Internal_Hbond>
0.0000

> <Gold.Chemscore.DEClash>
0.5074

> <Gold.Chemscore.DEInternal>
0.9957

> <Gold.Chemscore.Rot>
3.6261

> <Gold.Chemscore.Internal.Correction>
   9.000000E+99

> <Gold.Chemscore.Hbonds>
donor molecule, donor type, donor heavy atom, donor atom, acceptor molecule, acceptor atom, score
      L1  H    11    23       P1 10175  0.25
      L1  H    13    25       P1  7957  0.99
      L1  H    15    27       P1  7957  0.90
      P1  H  7989  7998       L1     5  0.02
      P1  H  7997  8010       L1     3  0.44

> <Gold.Chemscore.Hbond.Weighted>
-11.7270

> <Gold.Chemscore.Metal.Weighted>
-0.0000

> <Gold.Chemscore.Lipo.Weighted>
-4.5917

> <Gold.Chemscore.Internal_Hbond.Weighted>
0.0000

> <Gold.Chemscore.DEClash.Weighted>
0.5074

> <Gold.Chemscore.DEInternal.Weighted>
0.9957

> <Gold.Chemscore.Rot.Weighted>
9.2828

> <Gold.Chemscore.Internal.Correction.Weighted>
   9.000000E+99

> <Gold.Protein.RotatedTorsions>
[ 6907 6896 6895 6894 ] final  179.63 input  -60.11 | X-H torsion
[ 7974 7965 7964 7962 ] final  156.77 input  175.53 | X-H torsion
[ 8008 7997 7996 7995 ] final   72.28 input   59.86 | X-H torsion
[ 10167 10162 10161 10158 ] final   84.22 input  -65.29 | X-H torsion
[ 10718 10713 10712 10709 ] final  -93.40 input   66.30 | X-H torsion
[ 10763 10752 10751 10750 ] final   -4.23 input  -60.55 | X-H torsion
[ 11005 11000 10999 10996 ] final   85.18 input  -57.11 | X-H torsion

> <Gold.Protein.ActiveResidues>
 VAL166  LYS551  ARG553  GLY616  TRP617  ASP618  TYR619  PRO620  LYS621  CYS622 
 ASP623  PHE694  ASN695  SER759  ASP760  ASP761  ALA762  ILE779  LEU786  VAL792 
 PHE793  MET794  SER795  GLU796  ALA797  LYS798  CYS799  TRP800  GLU811  SER814 

> <Gold.Protein.RotatedAtoms>
  151.6685  133.3314  159.3190 H   0  0  0  0  0  0  0  0  0  0  0  0  # atno 6907 bound_to 6896
  150.7879  134.6882  159.6491 H   0  0  0  0  0  0  0  0  0  0  0  0  # atno 6908 bound_to 6896
  152.3952  134.6380  160.0144 H   0  0  0  0  0  0  0  0  0  0  0  0  # atno 6909 bound_to 6896
  144.7943  139.7250  143.6208 H   0  0  0  0  0  0  0  0  0  0  0  0  # atno 7974 bound_to 7965
  155.7665  140.3485  155.5225 H   0  0  0  0  0  0  0  0  0  0  0  0  # atno 8008 bound_to 7997
  155.8863  140.1010  157.1471 H   0  0  0  0  0  0  0  0  0  0  0  0  # atno 8009 bound_to 7997
  154.4029  140.1313  156.4247 H   0  0  0  0  0  0  0  0  0  0  0  0  # atno 8010 bound_to 7997
  139.9102  144.6276  150.8545 H   0  0  0  0  0  0  0  0  0  0  0  0  # atno 10167 bound_to 10162
  156.0013  130.5025  150.5771 H   0  0  0  0  0  0  0  0  0  0  0  0  # atno 10718 bound_to 10713
  153.3820  135.6999  153.6558 H   0  0  0  0  0  0  0  0  0  0  0  0  # atno 10763 bound_to 10752
  153.5165  135.3621  155.2612 H   0  0  0  0  0  0  0  0  0  0  0  0  # atno 10764 bound_to 10752
  154.8693  135.4147  154.3120 H   0  0  0  0  0  0  0  0  0  0  0  0  # atno 10765 bound_to 10752
  139.8979  134.8269  156.2547 H   0  0  0  0  0  0  0  0  0  0  0  0  # atno 11005 bound_to 11000
  146.2205  139.5628  142.9621 LP  0  0  0  0  0  0  0  0  0  0  0  0  # atno 17320 bound_to 7965
  145.5714  141.0393  143.2172 LP  0  0  0  0  0  0  0  0  0  0  0  0  # atno 17321 bound_to 7965
  140.7687  143.3371  151.2286 LP  0  0  0  0  0  0  0  0  0  0  0  0  # atno 17342 bound_to 10162
  139.6949  143.9630  152.2877 LP  0  0  0  0  0  0  0  0  0  0  0  0  # atno 17343 bound_to 10162
  157.3657  131.0757  151.1600 LP  0  0  0  0  0  0  0  0  0  0  0  0  # atno 17370 bound_to 10713
  157.2370  130.6552  149.5873 LP  0  0  0  0  0  0  0  0  0  0  0  0  # atno 17371 bound_to 10713
  141.0201  133.7046  156.1254 LP  0  0  0  0  0  0  0  0  0  0  0  0  # atno 17394 bound_to 11000
  140.7245  134.4322  157.5572 LP  0  0  0  0  0  0  0  0  0  0  0  0  # atno 17395 bound_to 11000

$$$$
