AV-unprocessed.smi:1473|AV-procd|sdf|5970|dock4
  -GOLD-   22720 6 53D 1   1.00000     0.00000
 Structure written by MMmdl.
 33 34  0  0  0  0  0  0  0  0  2 V2000
  149.8712  134.9431  154.3673 N   0  5  0  0  0  0  0  0  0  0  0  0
  150.5929  136.0748  155.2607 S   0  0  0  0  0  0  0  0  0  0  0  0
  149.6661  136.8453  156.1046 O   0  0  0  0  0  0  0  0  0  0  0  0
  151.8682  135.6374  155.8486 O   0  0  0  0  0  0  0  0  0  0  0  0
  151.0114  137.1081  153.9518 N   0  0  0  0  0  0  0  0  0  0  0  0
  151.9038  138.2462  154.1449 C   0  0  0  0  0  0  0  0  0  0  0  0
  151.2133  139.3958  154.8477 C   0  0  0  0  0  0  0  0  0  0  0  0
  149.9416  139.8343  154.4277 C   0  0  0  0  0  0  0  0  0  0  0  0
  149.3495  140.9178  155.1051 C   0  0  0  0  0  0  0  0  0  0  0  0
  149.9402  141.5596  156.1357 N   0  0  0  0  0  0  0  0  0  0  0  0
  151.1660  141.1411  156.5342 C   0  0  0  0  0  0  0  0  0  0  0  0
  151.7875  141.8126  157.5968 N   0  0  0  0  0  0  0  0  0  0  0  0
  151.0980  143.0332  157.9962 C   0  0  0  0  0  0  0  0  0  0  0  0
  151.9111  143.7670  159.0764 C   0  0  0  0  0  0  0  0  0  0  0  0
  152.1418  142.8912  160.1765 O   0  0  0  0  0  0  0  0  0  0  0  0
  152.8806  141.7344  159.7933 C   0  0  0  0  0  0  0  0  0  0  0  0
  152.0942  140.9482  158.7296 C   0  0  0  0  0  0  0  0  0  0  0  0
  151.8384  140.0636  155.9203 C   0  0  0  0  0  0  0  0  0  0  0  0
  149.3820  135.4090  153.5935 H   0  0  0  0  0  0  0  0  0  0  0  0
  150.3240  137.1793  153.2022 H   0  0  0  0  0  0  0  0  0  0  0  0
  152.7638  137.9318  154.7374 H   0  0  0  0  0  0  0  0  0  0  0  0
  152.2870  138.5684  153.1762 H   0  0  0  0  0  0  0  0  0  0  0  0
  149.4325  139.3550  153.6043 H   0  0  0  0  0  0  0  0  0  0  0  0
  148.3760  141.2805  154.8099 H   0  0  0  0  0  0  0  0  0  0  0  0
  150.9578  143.6789  157.1284 H   0  0  0  0  0  0  0  0  0  0  0  0
  150.1070  142.7899  158.3822 H   0  0  0  0  0  0  0  0  0  0  0  0
  152.8618  144.1216  158.6747 H   0  0  0  0  0  0  0  0  0  0  0  0
  151.3660  144.6433  159.4267 H   0  0  0  0  0  0  0  0  0  0  0  0
  153.8616  142.0264  159.4153 H   0  0  0  0  0  0  0  0  0  0  0  0
  153.0496  141.1127  160.6725 H   0  0  0  0  0  0  0  0  0  0  0  0
  151.1693  140.5642  159.1624 H   0  0  0  0  0  0  0  0  0  0  0  0
  152.6753  140.0889  158.3926 H   0  0  0  0  0  0  0  0  0  0  0  0
  152.8175  139.7588  156.2610 H   0  0  0  0  0  0  0  0  0  0  0  0
  1  2  1  0  0  0  0
  1 19  1  0  0  0  0
  2  3  2  0  0  0  0
  2  4  2  0  0  0  0
  2  5  1  0  0  0  0
  5  6  1  0  0  0  0
  5 20  1  0  0  0  0
  6  7  1  0  0  0  0
  6 21  1  0  0  0  0
  6 22  1  0  0  0  0
  7 18  1  0  0  0  0
  7  8  2  0  0  0  0
  8  9  1  0  0  0  0
  8 23  1  0  0  0  0
  9 10  2  0  0  0  0
  9 24  1  0  0  0  0
 10 11  1  0  0  0  0
 11 12  1  0  0  0  0
 11 18  2  0  0  0  0
 12 17  1  0  0  0  0
 12 13  1  0  0  0  0
 13 14  1  0  0  0  0
 13 25  1  0  0  0  0
 13 26  1  0  0  0  0
 14 15  1  0  0  0  0
 14 27  1  0  0  0  0
 14 28  1  0  0  0  0
 15 16  1  0  0  0  0
 16 17  1  0  0  0  0
 16 29  1  0  0  0  0
 16 30  1  0  0  0  0
 17 31  1  0  0  0  0
 17 32  1  0  0  0  0
 18 33  1  0  0  0  0
M  CHG  1   1  -1
M  END
> <s_m_source_file>
AV-unprocessed.smi

> <i_m_source_file_index>
1473

> <i_lp_mmshare_version>
43012

> <i_f3d_flags>
0

> <s_epik_input>
W05IMl1TKD1PKSg9TylbTkhdW0NIMl1jMVtjSF1bY0hdbmMoW2NIXTEpTjJbQ0gyXVtDSDJdT1tDSDJdW0NIMl0y

> <s_epik_cmdline>
J2VwaWtfcHl0aG9uJywgJy1waCcsICc3LjAnLCAnLXRuJywgJzgnLCAnLW1hJywgJzIwMCcsICctbWV0YWxfYmluZGluZycsICctaW1hZScsICc8aW5maWxlLm1hZT4nLCAnLW9tYWUnLCAnPG91dGZpbGUubWFlPic=

> <r_lp_tautomer_probability>
1

> <r_epik_Ionization_Penalty>
2.7939

> <r_epik_Ionization_Penalty_Charging>
2.75358

> <r_epik_Ionization_Penalty_Neutral>
0.0403146

> <r_epik_State_Penalty>
2.98411

> <r_epik_Charging_Adjusted_Penalty>
5.73769

> <i_epik_Tot_Q>
-1

> <i_epik_Tot_abs_Q>
1

> <r_epik_Metal_State_Penalty>
0.875881

> <b_epik_Metal_Only>
1

> <s_lp_Force_Field>
OPLS_2005

> <r_lp_Energy>
15.423

> <b_lp_Chiralities_Consistent>
1

> <s_lp_Variant>
AV-unprocessed.smi:1473-5

> <Gold.Version>
5.8.1

> <Gold.Id.Protein>
6NUR|6NUR_protein|mol2

> <Gold.PLP.Fitness>
42.3697

> <Gold.PLP.PLP>
-34.3260

> <Gold.PLP.part.hbond>
-4.0000

> <Gold.PLP.part.metal>
0.0000

> <Gold.PLP.part.buried>
-3.2158

> <Gold.PLP.part.nonpolar>
-27.6880

> <Gold.PLP.part.repulsive>
0.2642

> <Gold.PLP.ligand.clash>
0.0000

> <Gold.PLP.ligand.torsion>
0.9285

> <Gold.PLP.Chemscore.Hbond>
2.9120

> <Gold.PLP.Chemscore.CHOScore>
0.0000

> <Gold.PLP.Chemscore.Metal>
0.0000

> <Gold.Chemscore.Hbonds>
donor molecule, donor type, donor heavy atom, donor atom, acceptor molecule, acceptor atom, score
      L1  H     1    19       P1  7948  1.00
      L1  H     5    20       P1  7948  0.47
      P1  H 10752 10763       L1     4  0.94

> <Gold.PLP.Chemscore.Internal.Correction>
1.1647

> <Gold.Rescore>
     Score         DG    S(hbond)    S(metal)    S(lipo)     H(rot)  DE(clash)    DE(int)     intcor
     16.07     -17.16       2.26        0.00      76.39       1.88       0.21       0.89       ----

> <Gold.Chemscore.Fitness>
16.0655

> <Gold.Chemscore.DG>
-17.1600

> <Gold.Chemscore.ZeroCoef>
-5.4800

> <Gold.Chemscore.Hbond>
2.2633

> <Gold.Chemscore.Metal>
0.0000

> <Gold.Chemscore.Lipo>
76.3858

> <Gold.Chemscore.Internal_Hbond>
0.0000

> <Gold.Chemscore.DEClash>
0.2079

> <Gold.Chemscore.DEInternal>
0.8867

> <Gold.Chemscore.Rot>
1.8814

> <Gold.Chemscore.Internal.Correction>
   9.000000E+99

> <Gold.Chemscore.Hbonds>
donor molecule, donor type, donor heavy atom, donor atom, acceptor molecule, acceptor atom, score
      L1  H     1    19       P1  7948  0.25
      L1  H     5    20       P1  7948  0.02
      P1  H 10752 10763       L1     4  0.89

> <Gold.Chemscore.Hbond.Weighted>
-7.5593

> <Gold.Chemscore.Metal.Weighted>
-0.0000

> <Gold.Chemscore.Lipo.Weighted>
-8.9371

> <Gold.Chemscore.Internal_Hbond.Weighted>
0.0000

> <Gold.Chemscore.DEClash.Weighted>
0.2079

> <Gold.Chemscore.DEInternal.Weighted>
0.8867

> <Gold.Chemscore.Rot.Weighted>
4.8165

> <Gold.Chemscore.Internal.Correction.Weighted>
   9.000000E+99

> <Gold.Protein.RotatedTorsions>
[ 6907 6896 6895 6894 ] final  -51.45 input  -60.11 | X-H torsion
[ 7974 7965 7964 7962 ] final  -11.26 input  175.53 | X-H torsion
[ 8008 7997 7996 7995 ] final   98.66 input   59.86 | X-H torsion
[ 10167 10162 10161 10158 ] final  -76.08 input  -65.29 | X-H torsion
[ 10718 10713 10712 10709 ] final  151.46 input   66.30 | X-H torsion
[ 10763 10752 10751 10750 ] final   90.18 input  -60.55 | X-H torsion
[ 11005 11000 10999 10996 ] final   62.56 input  -57.11 | X-H torsion

> <Gold.Protein.ActiveResidues>
 VAL166  LYS551  ARG553  GLY616  TRP617  ASP618  TYR619  PRO620  LYS621  CYS622 
 ASP623  PHE694  ASN695  SER759  ASP760  ASP761  ALA762  ILE779  LEU786  VAL792 
 PHE793  MET794  SER795  GLU796  ALA797  LYS798  CYS799  TRP800  GLU811  SER814 

> <Gold.Protein.RotatedAtoms>
  150.8610  134.7962  159.7082 H   0  0  0  0  0  0  0  0  0  0  0  0  # atno 6907 bound_to 6896
  152.4647  134.5099  159.9760 H   0  0  0  0  0  0  0  0  0  0  0  0  # atno 6908 bound_to 6896
  151.5203  133.3429  159.2936 H   0  0  0  0  0  0  0  0  0  0  0  0  # atno 6909 bound_to 6896
  146.2193  140.2884  142.8367 H   0  0  0  0  0  0  0  0  0  0  0  0  # atno 7974 bound_to 7965
  156.1027  140.3240  155.7964 H   0  0  0  0  0  0  0  0  0  0  0  0  # atno 8008 bound_to 7997
  155.4809  140.0554  157.2984 H   0  0  0  0  0  0  0  0  0  0  0  0  # atno 8009 bound_to 7997
  154.4707  140.2010  156.0016 H   0  0  0  0  0  0  0  0  0  0  0  0  # atno 8010 bound_to 7997
  140.4888  143.2385  151.7941 H   0  0  0  0  0  0  0  0  0  0  0  0  # atno 10167 bound_to 10162
  157.2704  131.0816  151.1604 H   0  0  0  0  0  0  0  0  0  0  0  0  # atno 10718 bound_to 10713
  153.1949  135.4443  155.0195 H   0  0  0  0  0  0  0  0  0  0  0  0  # atno 10763 bound_to 10752
  154.8112  135.3295  154.7301 H   0  0  0  0  0  0  0  0  0  0  0  0  # atno 10764 bound_to 10752
  153.7751  135.6981  153.4954 H   0  0  0  0  0  0  0  0  0  0  0  0  # atno 10765 bound_to 10752
  140.0084  134.6334  155.9819 H   0  0  0  0  0  0  0  0  0  0  0  0  # atno 11005 bound_to 11000
  144.9145  140.7796  143.5787 LP  0  0  0  0  0  0  0  0  0  0  0  0  # atno 17320 bound_to 7965
  145.2817  139.1916  143.4787 LP  0  0  0  0  0  0  0  0  0  0  0  0  # atno 17321 bound_to 7965
  139.4847  144.4677  151.9463 LP  0  0  0  0  0  0  0  0  0  0  0  0  # atno 17342 bound_to 10162
  140.3763  144.2792  150.5913 LP  0  0  0  0  0  0  0  0  0  0  0  0  # atno 17343 bound_to 10162
  157.3078  130.6875  149.6199 LP  0  0  0  0  0  0  0  0  0  0  0  0  # atno 17370 bound_to 10713
  155.9663  130.4372  150.5168 LP  0  0  0  0  0  0  0  0  0  0  0  0  # atno 17371 bound_to 10713
  141.1693  133.6537  156.4594 LP  0  0  0  0  0  0  0  0  0  0  0  0  # atno 17394 bound_to 11000
  140.4599  134.6851  157.5080 LP  0  0  0  0  0  0  0  0  0  0  0  0  # atno 17395 bound_to 11000

$$$$
