AV-unprocessed.smi:2336|AV-procd|sdf|9329|dock4
  -GOLD-   2272012553D 1   1.00000     0.00000
 Structure written by MMmdl.
 50 51  0  0  0  0  0  0  0  0  2 V2000
  149.0026  135.0866  158.0667 C   0  0  0  0  0  0  0  0  0  0  0  0
  149.9171  135.9601  157.1866 C   0  0  0  0  0  0  0  0  0  0  0  0
  150.0222  137.3621  157.8198 C   0  0  0  0  0  0  0  0  0  0  0  0
  149.4544  136.0271  155.7011 C   0  0  2  0  0  0  0  0  0  0  0  0
  149.3285  134.6205  155.0465 C   0  0  0  0  0  0  0  0  0  0  0  0
  148.5542  134.6276  153.8079 N   0  0  0  0  0  0  0  0  0  0  0  0
  147.5020  133.8420  153.5365 C   0  0  0  0  0  0  0  0  0  0  0  0
  147.0555  133.0081  154.3236 O   0  0  0  0  0  0  0  0  0  0  0  0
  147.0392  134.0672  152.2953 N   0  0  0  0  0  0  0  0  0  0  0  0
  145.9547  133.4403  151.6231 C   0  0  0  0  0  0  0  0  0  0  0  0
  145.6277  132.0684  151.7494 C   0  0  0  0  0  0  0  0  0  0  0  0
  144.5114  131.5738  151.0452 C   0  0  0  0  0  0  0  0  0  0  0  0
  143.7282  132.3413  150.2582 N   0  0  0  0  0  0  0  0  0  0  0  0
  144.0358  133.6512  150.1500 C   0  0  0  0  0  0  0  0  0  0  0  0
  145.1291  134.2463  150.8113 C   0  0  0  0  0  0  0  0  0  0  0  0
  145.3813  135.5695  150.6628 F   0  0  0  0  0  0  0  0  0  0  0  0
  150.3275  136.9778  154.9415 N   0  3  0  0  0  0  0  0  0  0  0  0
  151.7886  136.7971  155.1349 C   0  0  0  0  0  0  0  0  0  0  0  0
  152.5703  137.6443  154.1097 C   0  0  0  0  0  0  0  0  0  0  0  0
  152.2138  139.0628  154.1791 N   0  0  0  0  0  0  0  0  0  0  0  0
  152.7073  139.7207  155.3846 C   0  0  0  0  0  0  0  0  0  0  0  0
  150.7716  139.2257  153.9841 C   0  0  0  0  0  0  0  0  0  0  0  0
  149.9520  138.4136  155.0074 C   0  0  0  0  0  0  0  0  0  0  0  0
  147.9625  135.4083  158.0025 H   0  0  0  0  0  0  0  0  0  0  0  0
  149.2994  135.1399  159.1145 H   0  0  0  0  0  0  0  0  0  0  0  0
  149.0504  134.0342  157.7879 H   0  0  0  0  0  0  0  0  0  0  0  0
  150.9103  135.5115  157.2222 H   0  0  0  0  0  0  0  0  0  0  0  0
  149.0649  137.8836  157.7885 H   0  0  0  0  0  0  0  0  0  0  0  0
  150.7601  137.9864  157.3159 H   0  0  0  0  0  0  0  0  0  0  0  0
  150.3278  137.2987  158.8646 H   0  0  0  0  0  0  0  0  0  0  0  0
  148.4524  136.4590  155.7192 H   0  0  0  0  0  0  0  0  0  0  0  0
  150.3171  134.1817  154.9041 H   0  0  0  0  0  0  0  0  0  0  0  0
  148.7966  133.9421  155.7117 H   0  0  0  0  0  0  0  0  0  0  0  0
  148.8426  135.2872  153.0997 H   0  0  0  0  0  0  0  0  0  0  0  0
  147.5623  134.7264  151.7375 H   0  0  0  0  0  0  0  0  0  0  0  0
  146.1928  131.3948  152.3749 H   0  0  0  0  0  0  0  0  0  0  0  0
  144.2363  130.5322  151.1225 H   0  0  0  0  0  0  0  0  0  0  0  0
  143.3895  134.2434  149.5188 H   0  0  0  0  0  0  0  0  0  0  0  0
  152.0923  137.0575  156.1467 H   0  0  0  0  0  0  0  0  0  0  0  0
  152.0473  135.7474  154.9935 H   0  0  0  0  0  0  0  0  0  0  0  0
  153.6443  137.5285  154.2602 H   0  0  0  0  0  0  0  0  0  0  0  0
  152.3597  137.2829  153.1021 H   0  0  0  0  0  0  0  0  0  0  0  0
  152.4734  140.7855  155.3552 H   0  0  0  0  0  0  0  0  0  0  0  0
  153.7914  139.6231  155.4509 H   0  0  0  0  0  0  0  0  0  0  0  0
  152.2769  139.3081  156.2965 H   0  0  0  0  0  0  0  0  0  0  0  0
  150.5113  140.2832  154.0418 H   0  0  0  0  0  0  0  0  0  0  0  0
  150.5189  138.8999  152.9740 H   0  0  0  0  0  0  0  0  0  0  0  0
  148.8917  138.5288  154.7842 H   0  0  0  0  0  0  0  0  0  0  0  0
  150.1015  138.8130  156.0080 H   0  0  0  0  0  0  0  0  0  0  0  0
  150.1809  136.7176  153.9766 H   0  0  0  0  0  0  0  0  0  0  0  0
  1  2  1  0  0  0  0
  1 24  1  0  0  0  0
  1 25  1  0  0  0  0
  1 26  1  0  0  0  0
  2  3  1  0  0  0  0
  2  4  1  0  0  0  0
  2 27  1  0  0  0  0
  3 28  1  0  0  0  0
  3 29  1  0  0  0  0
  3 30  1  0  0  0  0
  4  5  1  0  0  0  0
  4 17  1  0  0  0  0
  4 31  1  0  0  0  0
  5  6  1  0  0  0  0
  5 32  1  0  0  0  0
  5 33  1  0  0  0  0
  6  7  1  0  0  0  0
  6 34  1  0  0  0  0
  7  8  2  0  0  0  0
  7  9  1  0  0  0  0
  9 10  1  0  0  0  0
  9 35  1  0  0  0  0
 10 15  1  0  0  0  0
 10 11  2  0  0  0  0
 11 12  1  0  0  0  0
 11 36  1  0  0  0  0
 12 13  2  0  0  0  0
 12 37  1  0  0  0  0
 13 14  1  0  0  0  0
 14 15  2  0  0  0  0
 14 38  1  0  0  0  0
 15 16  1  0  0  0  0
 17 23  1  0  0  0  0
 17 18  1  0  0  0  0
 17 50  1  0  0  0  0
 18 19  1  0  0  0  0
 18 39  1  0  0  0  0
 18 40  1  0  0  0  0
 19 20  1  0  0  0  0
 19 41  1  0  0  0  0
 19 42  1  0  0  0  0
 20 21  1  0  0  0  0
 20 22  1  0  0  0  0
 21 43  1  0  0  0  0
 21 44  1  0  0  0  0
 21 45  1  0  0  0  0
 22 23  1  0  0  0  0
 22 46  1  0  0  0  0
 22 47  1  0  0  0  0
 23 48  1  0  0  0  0
 23 49  1  0  0  0  0
M  CHG  1  17   1
M  END
> <s_m_source_file>
AV-unprocessed.smi

> <i_m_source_file_index>
2336

> <i_lp_mmshare_version>
43012

> <i_f3d_flags>
0

> <s_epik_input>
W0NIMl0xW0NIMl1OKFtDSDNdKVtDSDJdW0NIMl1OMVtDQEhdKFtDSF0oW0NIM10pW0NIM10pW0NIMl1bTkhdQyg9TylbTkhdYzJbY0hdW2NIXW5bY0hdYzJG

> <s_epik_cmdline>
J2VwaWtfcHl0aG9uJywgJy1waCcsICc3LjAnLCAnLXRuJywgJzgnLCAnLW1hJywgJzIwMCcsICctbWV0YWxfYmluZGluZycsICctaW1hZScsICc8aW5maWxlLm1hZT4nLCAnLW9tYWUnLCAnPG91dGZpbGUubWFlPic=

> <r_epik_Ionization_Penalty>
0.204575

> <r_epik_Ionization_Penalty_Charging>
0.20006

> <r_epik_Ionization_Penalty_Neutral>
0.00451444

> <r_epik_State_Penalty>
1.43207

> <r_epik_Charging_Adjusted_Penalty>
1.63213

> <i_epik_Tot_Q>
1

> <i_epik_Tot_abs_Q>
1

> <r_epik_Metal_State_Penalty>
1.43277

> <b_epik_Metal_Only>
0

> <s_lp_Force_Field>
OPLS_2005

> <r_lp_Energy>
38.6222

> <b_lp_Chiralities_Consistent>
1

> <s_lp_Variant>
AV-unprocessed.smi:2336-3

> <Gold.Version>
5.8.1

> <Gold.Id.Protein>
6NUR|6NUR_protein|mol2

> <Gold.PLP.Fitness>
47.5928

> <Gold.PLP.PLP>
-37.0815

> <Gold.PLP.part.hbond>
-3.5665

> <Gold.PLP.part.metal>
0.0000

> <Gold.PLP.part.buried>
-6.4736

> <Gold.PLP.part.nonpolar>
-27.6754

> <Gold.PLP.part.repulsive>
0.3237

> <Gold.PLP.ligand.clash>
0.0000

> <Gold.PLP.ligand.torsion>
0.8965

> <Gold.PLP.Chemscore.Hbond>
3.0286

> <Gold.PLP.Chemscore.CHOScore>
1.0000

> <Gold.PLP.Chemscore.Metal>
0.0000

> <Gold.Chemscore.Hbonds>
donor molecule, donor type, donor heavy atom, donor atom, acceptor molecule, acceptor atom, score
      L1  H     6    34       P1  7948  0.99
      L1  H     9    35       P1  7948  0.88
      L1  C    14    38       P1 10186  0.99

> <Gold.PLP.Chemscore.Internal.Correction>
0.2186

> <Gold.Rescore>
     Score         DG    S(hbond)    S(metal)    S(lipo)     H(rot)  DE(clash)    DE(int)     intcor
     14.04     -15.95       1.72        0.00      76.91       1.67       0.01       1.90       ----

> <Gold.Chemscore.Fitness>
14.0421

> <Gold.Chemscore.DG>
-15.9461

> <Gold.Chemscore.ZeroCoef>
-5.4800

> <Gold.Chemscore.Hbond>
1.7223

> <Gold.Chemscore.Metal>
0.0000

> <Gold.Chemscore.Lipo>
76.9113

> <Gold.Chemscore.Internal_Hbond>
0.0000

> <Gold.Chemscore.DEClash>
0.0077

> <Gold.Chemscore.DEInternal>
1.8962

> <Gold.Chemscore.Rot>
1.6739

> <Gold.Chemscore.Internal.Correction>
   9.000000E+99

> <Gold.Chemscore.Hbonds>
donor molecule, donor type, donor heavy atom, donor atom, acceptor molecule, acceptor atom, score
      L1  H     6    34       P1  7948  0.51
      L1  H     9    35       P1  7948  0.42
      L1  H    17    50       P1  7948  0.01

> <Gold.Chemscore.Hbond.Weighted>
-5.7526

> <Gold.Chemscore.Metal.Weighted>
-0.0000

> <Gold.Chemscore.Lipo.Weighted>
-8.9986

> <Gold.Chemscore.Internal_Hbond.Weighted>
0.0000

> <Gold.Chemscore.DEClash.Weighted>
0.0077

> <Gold.Chemscore.DEInternal.Weighted>
1.8962

> <Gold.Chemscore.Rot.Weighted>
4.2851

> <Gold.Chemscore.Internal.Correction.Weighted>
   9.000000E+99

> <Gold.Protein.RotatedTorsions>
[ 6907 6896 6895 6894 ] final   95.85 input  -60.11 | X-H torsion
[ 7974 7965 7964 7962 ] final   78.74 input  175.53 | X-H torsion
[ 8008 7997 7996 7995 ] final   33.42 input   59.86 | X-H torsion
[ 10167 10162 10161 10158 ] final   77.25 input  -65.29 | X-H torsion
[ 10718 10713 10712 10709 ] final  -76.67 input   66.30 | X-H torsion
[ 10763 10752 10751 10750 ] final  -52.25 input  -60.55 | X-H torsion
[ 11005 11000 10999 10996 ] final  136.69 input  -57.11 | X-H torsion

> <Gold.Protein.ActiveResidues>
 VAL166  LYS551  ARG553  GLY616  TRP617  ASP618  TYR619  PRO620  LYS621  CYS622 
 ASP623  PHE694  ASN695  SER759  ASP760  ASP761  ALA762  ILE779  LEU786  VAL792 
 PHE793  MET794  SER795  GLU796  ALA797  LYS798  CYS799  TRP800  GLU811  SER814 

> <Gold.Protein.RotatedAtoms>
  152.5440  134.0977  159.8303 H   0  0  0  0  0  0  0  0  0  0  0  0  # atno 6907 bound_to 6896
  151.1058  133.5202  159.2615 H   0  0  0  0  0  0  0  0  0  0  0  0  # atno 6908 bound_to 6896
  151.1939  135.0423  159.8898 H   0  0  0  0  0  0  0  0  0  0  0  0  # atno 6909 bound_to 6896
  145.6732  139.2502  143.1856 H   0  0  0  0  0  0  0  0  0  0  0  0  # atno 7974 bound_to 7965
  155.1383  140.3264  155.4458 H   0  0  0  0  0  0  0  0  0  0  0  0  # atno 8008 bound_to 7997
  156.2613  140.1998  156.6449 H   0  0  0  0  0  0  0  0  0  0  0  0  # atno 8009 bound_to 7997
  154.6561  140.0552  156.9997 H   0  0  0  0  0  0  0  0  0  0  0  0  # atno 8010 bound_to 7997
  139.9836  144.5809  150.7879 H   0  0  0  0  0  0  0  0  0  0  0  0  # atno 10167 bound_to 10162
  156.0168  130.4471  150.3229 H   0  0  0  0  0  0  0  0  0  0  0  0  # atno 10718 bound_to 10713
  154.1397  135.6507  153.4939 H   0  0  0  0  0  0  0  0  0  0  0  0  # atno 10763 bound_to 10752
  153.0170  135.5312  154.6918 H   0  0  0  0  0  0  0  0  0  0  0  0  # atno 10764 bound_to 10752
  154.6176  135.2961  155.0334 H   0  0  0  0  0  0  0  0  0  0  0  0  # atno 10765 bound_to 10752
  140.0063  134.9458  157.0182 H   0  0  0  0  0  0  0  0  0  0  0  0  # atno 11005 bound_to 11000
  146.1028  140.7523  142.9541 LP  0  0  0  0  0  0  0  0  0  0  0  0  # atno 17320 bound_to 7965
  144.7050  140.3814  143.7125 LP  0  0  0  0  0  0  0  0  0  0  0  0  # atno 17321 bound_to 7965
  140.7480  143.2916  151.3316 LP  0  0  0  0  0  0  0  0  0  0  0  0  # atno 17342 bound_to 10162
  139.6392  144.0572  152.2540 LP  0  0  0  0  0  0  0  0  0  0  0  0  # atno 17343 bound_to 10162
  157.1329  131.0276  151.2961 LP  0  0  0  0  0  0  0  0  0  0  0  0  # atno 17370 bound_to 10713
  157.4536  130.7612  149.7173 LP  0  0  0  0  0  0  0  0  0  0  0  0  # atno 17371 bound_to 10713
  140.4635  134.1459  155.7194 LP  0  0  0  0  0  0  0  0  0  0  0  0  # atno 17394 bound_to 11000
  141.1679  133.8667  157.1660 LP  0  0  0  0  0  0  0  0  0  0  0  0  # atno 17395 bound_to 11000

$$$$
