AV-unprocessed.smi:2591|AV-procd|sdf|10154|dock3
  -GOLD-   2272014163D 1   1.00000     0.00000
 Structure written by MMmdl.
 35 36  0  0  0  0  0  0  0  0  2 V2000
  150.0545  135.3571  155.6174 C   0  0  0  0  0  0  0  0  0  0  0  0
  150.4734  136.7743  155.6496 N   0  3  2  0  0  0  0  0  0  0  0  0
  149.4328  137.6912  155.1326 C   0  0  0  0  0  0  0  0  0  0  0  0
  149.8956  139.1513  155.2620 C   0  0  0  0  0  0  0  0  0  0  0  0
  151.1421  139.3242  154.5874 O   0  0  0  0  0  0  0  0  0  0  0  0
  152.2011  138.4872  155.0633 C   0  0  1  0  0  0  0  0  0  0  0  0
  152.6597  138.9332  156.4654 C   0  0  0  0  0  0  0  0  0  0  0  0
  153.3601  138.1903  157.1545 O   0  0  0  0  0  0  0  0  0  0  0  0
  152.2398  140.1550  156.8452 N   0  0  0  0  0  0  0  0  0  0  0  0
  152.4855  140.8289  158.0707 C   0  0  0  0  0  0  0  0  0  0  0  0
  151.9055  142.1128  158.1743 C   0  0  0  0  0  0  0  0  0  0  0  0
  152.0833  142.8684  159.3530 C   0  0  0  0  0  0  0  0  0  0  0  0
  151.4718  144.2554  159.4768 C   0  0  0  0  0  0  0  0  0  0  0  0
  151.6832  144.7761  160.6859 F   0  0  0  0  0  0  0  0  0  0  0  0
  152.0157  145.0584  158.5631 F   0  0  0  0  0  0  0  0  0  0  0  0
  150.1561  144.1968  159.2692 F   0  0  0  0  0  0  0  0  0  0  0  0
  152.8508  142.3091  160.3954 C   0  0  0  0  0  0  0  0  0  0  0  0
  153.3934  141.0245  160.2102 C   0  0  0  0  0  0  0  0  0  0  0  0
  153.2161  140.3026  159.0841 N   0  0  0  0  0  0  0  0  0  0  0  0
  151.7666  137.0048  154.9627 C   0  0  0  0  0  0  0  0  0  0  0  0
  149.8794  135.0225  154.5942 H   0  0  0  0  0  0  0  0  0  0  0  0
  149.1352  135.2156  156.1866 H   0  0  0  0  0  0  0  0  0  0  0  0
  150.8214  134.7203  156.0599 H   0  0  0  0  0  0  0  0  0  0  0  0
  149.2234  137.4568  154.0876 H   0  0  0  0  0  0  0  0  0  0  0  0
  148.5042  137.5473  155.6863 H   0  0  0  0  0  0  0  0  0  0  0  0
  149.1602  139.8164  154.8092 H   0  0  0  0  0  0  0  0  0  0  0  0
  149.9721  139.4431  156.3102 H   0  0  0  0  0  0  0  0  0  0  0  0
  153.0523  138.6355  154.3975 H   0  0  0  0  0  0  0  0  0  0  0  0
  151.6731  140.6596  156.1789 H   0  0  0  0  0  0  0  0  0  0  0  0
  151.3285  142.5207  157.3569 H   0  0  0  0  0  0  0  0  0  0  0  0
  153.0257  142.8457  161.3162 H   0  0  0  0  0  0  0  0  0  0  0  0
  153.9868  140.5641  160.9862 H   0  0  0  0  0  0  0  0  0  0  0  0
  152.5323  136.3531  155.3862 H   0  0  0  0  0  0  0  0  0  0  0  0
  151.6694  136.7246  153.9127 H   0  0  0  0  0  0  0  0  0  0  0  0
  150.6162  137.0115  156.6216 H   0  0  0  0  0  0  0  0  0  0  0  0
  1  2  1  0  0  0  0
  1 21  1  0  0  0  0
  1 22  1  0  0  0  0
  1 23  1  0  0  0  0
  2 20  1  0  0  0  0
  2  3  1  0  0  0  0
  2 35  1  0  0  0  0
  3  4  1  0  0  0  0
  3 24  1  0  0  0  0
  3 25  1  0  0  0  0
  4  5  1  0  0  0  0
  4 26  1  0  0  0  0
  4 27  1  0  0  0  0
  5  6  1  0  0  0  0
  6  7  1  0  0  0  0
  6 20  1  0  0  0  0
  6 28  1  0  0  0  0
  7  8  2  0  0  0  0
  7  9  1  0  0  0  0
  9 10  1  0  0  0  0
  9 29  1  0  0  0  0
 10 19  1  0  0  0  0
 10 11  2  0  0  0  0
 11 12  1  0  0  0  0
 11 30  1  0  0  0  0
 12 13  1  0  0  0  0
 12 17  2  0  0  0  0
 13 14  1  0  0  0  0
 13 15  1  0  0  0  0
 13 16  1  0  0  0  0
 17 18  1  0  0  0  0
 17 31  1  0  0  0  0
 18 19  2  0  0  0  0
 18 32  1  0  0  0  0
 20 33  1  0  0  0  0
 20 34  1  0  0  0  0
M  CHG  1   2   1
M  END
> <s_m_source_file>
AV-unprocessed.smi

> <i_m_source_file_index>
2591

> <i_lp_mmshare_version>
43012

> <i_f3d_flags>
0

> <s_epik_input>
W0NIM11OMVtDSDJdW0NIMl1PW0NASF0oW0NIMl0xKUMoPU8pW05IXWMyW2NIXWMoQyhGKShGKUYpW2NIXVtjSF1uMg==

> <s_epik_cmdline>
J2VwaWtfcHl0aG9uJywgJy1waCcsICc3LjAnLCAnLXRuJywgJzgnLCAnLW1hJywgJzIwMCcsICctbWV0YWxfYmluZGluZycsICctaW1hZScsICc8aW5maWxlLm1hZT4nLCAnLW9tYWUnLCAnPG91dGZpbGUubWFlPic=

> <r_epik_Ionization_Penalty>
0.314028

> <r_epik_Ionization_Penalty_Charging>
0.314023

> <r_epik_Ionization_Penalty_Neutral>
5.2303e-06

> <r_epik_State_Penalty>
0.308208

> <r_epik_Charging_Adjusted_Penalty>
0.62223

> <i_epik_Tot_Q>
1

> <i_epik_Tot_abs_Q>
1

> <r_epik_Metal_State_Penalty>
0.308209

> <b_epik_Metal_Only>
0

> <s_lp_Force_Field>
OPLS_2005

> <r_lp_Energy>
16.4571

> <b_lp_Chiralities_Consistent>
1

> <s_lp_Variant>
AV-unprocessed.smi:2591-2

> <Gold.Version>
5.8.1

> <Gold.Id.Protein>
6NUR|6NUR_protein|mol2

> <Gold.PLP.Fitness>
44.0600

> <Gold.PLP.PLP>
-41.6064

> <Gold.PLP.part.hbond>
-1.8825

> <Gold.PLP.part.metal>
0.0000

> <Gold.PLP.part.buried>
-5.1618

> <Gold.PLP.part.nonpolar>
-34.4660

> <Gold.PLP.part.repulsive>
0.2827

> <Gold.PLP.ligand.clash>
0.1877

> <Gold.PLP.ligand.torsion>
0.5003

> <Gold.PLP.Chemscore.Hbond>
1.1254

> <Gold.PLP.Chemscore.CHOScore>
0.0000

> <Gold.PLP.Chemscore.Metal>
0.0000

> <Gold.Chemscore.Hbonds>
donor molecule, donor type, donor heavy atom, donor atom, acceptor molecule, acceptor atom, score
      P1  H  7989  7998       L1     5  1.00

> <Gold.PLP.Chemscore.Internal.Correction>
0.2657

> <Gold.Rescore>
     Score         DG    S(hbond)    S(metal)    S(lipo)     H(rot)  DE(clash)    DE(int)     intcor
     12.78     -15.63       0.97        0.00      80.89       1.00       0.06       2.80       ----

> <Gold.Chemscore.Fitness>
12.7770

> <Gold.Chemscore.DG>
-15.6296

> <Gold.Chemscore.ZeroCoef>
-5.4800

> <Gold.Chemscore.Hbond>
0.9715

> <Gold.Chemscore.Metal>
0.0000

> <Gold.Chemscore.Lipo>
80.8943

> <Gold.Chemscore.Internal_Hbond>
0.0000

> <Gold.Chemscore.DEClash>
0.0559

> <Gold.Chemscore.DEInternal>
2.7966

> <Gold.Chemscore.Rot>
1.0000

> <Gold.Chemscore.Internal.Correction>
   9.000000E+99

> <Gold.Chemscore.Hbonds>
donor molecule, donor type, donor heavy atom, donor atom, acceptor molecule, acceptor atom, score
      P1  H  7989  7998       L1     5  0.93

> <Gold.Chemscore.Hbond.Weighted>
-3.2449

> <Gold.Chemscore.Metal.Weighted>
-0.0000

> <Gold.Chemscore.Lipo.Weighted>
-9.4646

> <Gold.Chemscore.Internal_Hbond.Weighted>
0.0000

> <Gold.Chemscore.DEClash.Weighted>
0.0559

> <Gold.Chemscore.DEInternal.Weighted>
2.7966

> <Gold.Chemscore.Rot.Weighted>
2.5600

> <Gold.Chemscore.Internal.Correction.Weighted>
   9.000000E+99

> <Gold.Protein.RotatedTorsions>
[ 6907 6896 6895 6894 ] final  -92.47 input  -60.11 | X-H torsion
[ 7974 7965 7964 7962 ] final  -11.18 input  175.53 | X-H torsion
[ 8008 7997 7996 7995 ] final   37.10 input   59.86 | X-H torsion
[ 10167 10162 10161 10158 ] final  -11.24 input  -65.29 | X-H torsion
[ 10718 10713 10712 10709 ] final -147.74 input   66.30 | X-H torsion
[ 10763 10752 10751 10750 ] final   12.27 input  -60.55 | X-H torsion
[ 11005 11000 10999 10996 ] final   56.31 input  -57.11 | X-H torsion

> <Gold.Protein.ActiveResidues>
 VAL166  LYS551  ARG553  GLY616  TRP617  ASP618  TYR619  PRO620  LYS621  CYS622 
 ASP623  PHE694  ASN695  SER759  ASP760  ASP761  ALA762  ILE779  LEU786  VAL792 
 PHE793  MET794  SER795  GLU796  ALA797  LYS798  CYS799  TRP800  GLU811  SER814 

> <Gold.Protein.RotatedAtoms>
  150.6907  134.2117  159.4361 H   0  0  0  0  0  0  0  0  0  0  0  0  # atno 6907 bound_to 6896
  152.0079  134.9890  160.0576 H   0  0  0  0  0  0  0  0  0  0  0  0  # atno 6908 bound_to 6896
  152.1517  133.4491  159.4853 H   0  0  0  0  0  0  0  0  0  0  0  0  # atno 6909 bound_to 6896
  146.2196  140.2873  142.8366 H   0  0  0  0  0  0  0  0  0  0  0  0  # atno 7974 bound_to 7965
  155.1983  140.3313  155.4347 H   0  0  0  0  0  0  0  0  0  0  0  0  # atno 8008 bound_to 7997
  156.2416  140.1898  156.7021 H   0  0  0  0  0  0  0  0  0  0  0  0  # atno 8009 bound_to 7997
  154.6159  140.0602  156.9539 H   0  0  0  0  0  0  0  0  0  0  0  0  # atno 8010 bound_to 7997
  140.7133  143.5661  150.9143 H   0  0  0  0  0  0  0  0  0  0  0  0  # atno 10167 bound_to 10162
  156.4113  130.7983  151.2200 H   0  0  0  0  0  0  0  0  0  0  0  0  # atno 10718 bound_to 10713
  153.1840  135.6832  153.8440 H   0  0  0  0  0  0  0  0  0  0  0  0  # atno 10763 bound_to 10752
  153.7762  135.3189  155.3360 H   0  0  0  0  0  0  0  0  0  0  0  0  # atno 10764 bound_to 10752
  154.8077  135.4738  154.0531 H   0  0  0  0  0  0  0  0  0  0  0  0  # atno 10765 bound_to 10752
  140.0539  134.5698  155.9231 H   0  0  0  0  0  0  0  0  0  0  0  0  # atno 11005 bound_to 11000
  144.9153  140.7805  143.5782 LP  0  0  0  0  0  0  0  0  0  0  0  0  # atno 17320 bound_to 7965
  145.2806  139.1920  143.4793 LP  0  0  0  0  0  0  0  0  0  0  0  0  # atno 17321 bound_to 7965
  139.9387  143.6407  152.3059 LP  0  0  0  0  0  0  0  0  0  0  0  0  # atno 17342 bound_to 10162
  139.6884  144.7649  151.1482 LP  0  0  0  0  0  0  0  0  0  0  0  0  # atno 17343 bound_to 10162
  157.7507  131.0256  150.3929 LP  0  0  0  0  0  0  0  0  0  0  0  0  # atno 17370 bound_to 10713
  156.4227  130.3956  149.6814 LP  0  0  0  0  0  0  0  0  0  0  0  0  # atno 17371 bound_to 10713
  141.1943  133.6582  156.5588 LP  0  0  0  0  0  0  0  0  0  0  0  0  # atno 17394 bound_to 11000
  140.3875  134.7469  157.4700 LP  0  0  0  0  0  0  0  0  0  0  0  0  # atno 17395 bound_to 11000

$$$$
