AV-unprocessed.smi:1696|AV-procd|sdf|6800|dock6
  -GOLD-   22720 7563D 1   1.00000     0.00000
 Structure written by MMmdl.
 39 40  0  0  0  0  0  0  0  0  2 V2000
  146.9196  141.3445  153.5206 C   0  0  0  0  0  0  0  0  0  0  0  0
  147.4397  139.8993  153.5493 C   0  0  0  0  0  0  0  0  0  0  0  0
  146.4179  138.8362  153.0625 C   0  0  1  0  0  0  0  0  0  0  0  0
  146.1543  138.9282  151.5325 C   0  0  0  0  0  0  0  0  0  0  0  0
  146.9477  137.9833  150.7470 N   0  0  0  0  0  0  0  0  0  0  0  0
  146.8983  137.8401  149.4149 C   0  0  0  0  0  0  0  0  0  0  0  0
  146.1765  138.5186  148.6857 O   0  0  0  0  0  0  0  0  0  0  0  0
  147.7319  136.8728  148.9996 N   0  0  0  0  0  0  0  0  0  0  0  0
  147.9682  136.4439  147.6701 C   0  0  0  0  0  0  0  0  0  0  0  0
  147.4944  137.1791  146.6626 N   0  0  0  0  0  0  0  0  0  0  0  0
  147.8106  136.6284  145.4172 C   0  0  0  0  0  0  0  0  0  0  0  0
  148.5297  135.4616  145.4964 C   0  0  0  0  0  0  0  0  0  0  0  0
  148.8414  135.0010  147.1484 S   0  0  0  0  0  0  0  0  0  0  0  0
  146.8340  137.4531  153.4491 N   0  3  0  0  0  0  0  0  0  0  0  0
  147.2883  137.2715  154.8455 C   0  0  0  0  0  0  0  0  0  0  0  0
  147.1743  135.7747  155.1079 C   0  0  0  0  0  0  0  0  0  0  0  0
  145.9123  135.3864  154.3475 C   0  0  0  0  0  0  0  0  0  0  0  0
  145.8202  136.3965  153.1955 C   0  0  0  0  0  0  0  0  0  0  0  0
  147.6398  142.0184  153.9850 H   0  0  0  0  0  0  0  0  0  0  0  0
  145.9816  141.4373  154.0683 H   0  0  0  0  0  0  0  0  0  0  0  0
  146.7555  141.7044  152.5058 H   0  0  0  0  0  0  0  0  0  0  0  0
  148.3637  139.8293  152.9752 H   0  0  0  0  0  0  0  0  0  0  0  0
  147.7184  139.7038  154.5838 H   0  0  0  0  0  0  0  0  0  0  0  0
  145.4756  139.0423  153.5728 H   0  0  0  0  0  0  0  0  0  0  0  0
  145.1083  138.7004  151.3281 H   0  0  0  0  0  0  0  0  0  0  0  0
  146.2846  139.9450  151.1629 H   0  0  0  0  0  0  0  0  0  0  0  0
  147.5631  137.3705  151.2621 H   0  0  0  0  0  0  0  0  0  0  0  0
  148.2563  136.3860  149.7113 H   0  0  0  0  0  0  0  0  0  0  0  0
  147.4842  137.1357  144.5213 H   0  0  0  0  0  0  0  0  0  0  0  0
  148.8942  134.8478  144.6859 H   0  0  0  0  0  0  0  0  0  0  0  0
  148.3077  137.6284  154.9949 H   0  0  0  0  0  0  0  0  0  0  0  0
  146.6287  137.8169  155.5229 H   0  0  0  0  0  0  0  0  0  0  0  0
  148.0363  135.2574  154.6843 H   0  0  0  0  0  0  0  0  0  0  0  0
  147.1230  135.5316  156.1698 H   0  0  0  0  0  0  0  0  0  0  0  0
  145.9393  134.3537  153.9987 H   0  0  0  0  0  0  0  0  0  0  0  0
  145.0440  135.4926  154.9993 H   0  0  0  0  0  0  0  0  0  0  0  0
  144.8106  136.8078  153.1542 H   0  0  0  0  0  0  0  0  0  0  0  0
  146.0254  135.9233  152.2350 H   0  0  0  0  0  0  0  0  0  0  0  0
  147.6299  137.2175  152.8737 H   0  0  0  0  0  0  0  0  0  0  0  0
  1  2  1  0  0  0  0
  1 19  1  0  0  0  0
  1 20  1  0  0  0  0
  1 21  1  0  0  0  0
  2  3  1  0  0  0  0
  2 22  1  0  0  0  0
  2 23  1  0  0  0  0
  3  4  1  0  0  0  0
  3 14  1  0  0  0  0
  3 24  1  0  0  0  0
  4  5  1  0  0  0  0
  4 25  1  0  0  0  0
  4 26  1  0  0  0  0
  5  6  1  0  0  0  0
  5 27  1  0  0  0  0
  6  7  2  0  0  0  0
  6  8  1  0  0  0  0
  8  9  1  0  0  0  0
  8 28  1  0  0  0  0
  9 13  1  0  0  0  0
  9 10  2  0  0  0  0
 10 11  1  0  0  0  0
 11 12  2  0  0  0  0
 11 29  1  0  0  0  0
 12 13  1  0  0  0  0
 12 30  1  0  0  0  0
 14 18  1  0  0  0  0
 14 15  1  0  0  0  0
 14 39  1  0  0  0  0
 15 16  1  0  0  0  0
 15 31  1  0  0  0  0
 15 32  1  0  0  0  0
 16 17  1  0  0  0  0
 16 33  1  0  0  0  0
 16 34  1  0  0  0  0
 17 18  1  0  0  0  0
 17 35  1  0  0  0  0
 17 36  1  0  0  0  0
 18 37  1  0  0  0  0
 18 38  1  0  0  0  0
M  CHG  1  14   1
M  END
> <s_m_source_file>
AV-unprocessed.smi

> <i_m_source_file_index>
1696

> <i_lp_mmshare_version>
43012

> <i_f3d_flags>
0

> <s_epik_input>
W0NIMl0xW0NIMl1bQ0gyXVtDSDJdTjFbQ0BIXShbQ0gyXVtDSDNdKVtDSDJdW05IXUMoPU8pW05IXWMybltjSF1bY0hdczI=

> <s_epik_cmdline>
J2VwaWtfcHl0aG9uJywgJy1waCcsICc3LjAnLCAnLXRuJywgJzgnLCAnLW1hJywgJzIwMCcsICctbWV0YWxfYmluZGluZycsICctaW1hZScsICc8aW5maWxlLm1hZT4nLCAnLW9tYWUnLCAnPG91dGZpbGUubWFlPic=

> <r_lp_tautomer_probability>
1

> <r_epik_Ionization_Penalty>
0.0013883

> <r_epik_Ionization_Penalty_Charging>
0.00115997

> <r_epik_Ionization_Penalty_Neutral>
0.000228323

> <r_epik_State_Penalty>
-0

> <r_epik_Charging_Adjusted_Penalty>
0.00115997

> <i_epik_Tot_Q>
1

> <i_epik_Tot_abs_Q>
1

> <r_epik_Metal_State_Penalty>
0.0131845

> <b_epik_Metal_Only>
0

> <s_lp_Force_Field>
OPLS_2005

> <r_lp_Energy>
36.9264

> <b_lp_Chiralities_Consistent>
1

> <s_lp_Variant>
AV-unprocessed.smi:1696-2

> <Gold.Version>
5.8.1

> <Gold.Id.Protein>
6NUR|6NUR_protein|mol2

> <Gold.PLP.Fitness>
42.6442

> <Gold.PLP.PLP>
-28.8801

> <Gold.PLP.part.hbond>
-3.0000

> <Gold.PLP.part.metal>
0.0000

> <Gold.PLP.part.buried>
-0.8196

> <Gold.PLP.part.nonpolar>
-24.9635

> <Gold.PLP.part.repulsive>
0.3629

> <Gold.PLP.ligand.clash>
0.0000

> <Gold.PLP.ligand.torsion>
0.6484

> <Gold.PLP.Chemscore.Hbond>
4.0000

> <Gold.PLP.Chemscore.CHOScore>
0.9902

> <Gold.PLP.Chemscore.Metal>
0.0000

> <Gold.Chemscore.Hbonds>
donor molecule, donor type, donor heavy atom, donor atom, acceptor molecule, acceptor atom, score
      L1  H     5    27       P1  7948  1.00
      L1  H    14    39       P1  7948  2.00

> <Gold.PLP.Chemscore.Internal.Correction>
0.0904

> <Gold.Rescore>
     Score         DG    S(hbond)    S(metal)    S(lipo)     H(rot)  DE(clash)    DE(int)     intcor
     16.76     -18.89       2.88        0.00      71.16       1.77       0.02       2.10       ----

> <Gold.Chemscore.Fitness>
16.7643

> <Gold.Chemscore.DG>
-18.8857

> <Gold.Chemscore.ZeroCoef>
-5.4800

> <Gold.Chemscore.Hbond>
2.8778

> <Gold.Chemscore.Metal>
0.0000

> <Gold.Chemscore.Lipo>
71.1649

> <Gold.Chemscore.Internal_Hbond>
0.0000

> <Gold.Chemscore.DEClash>
0.0166

> <Gold.Chemscore.DEInternal>
2.1048

> <Gold.Chemscore.Rot>
1.7705

> <Gold.Chemscore.Internal.Correction>
   9.000000E+99

> <Gold.Chemscore.Hbonds>
donor molecule, donor type, donor heavy atom, donor atom, acceptor molecule, acceptor atom, score
      L1  H     5    27       P1  7948  1.00
      L1  H    14    39       P1  7948  0.99

> <Gold.Chemscore.Hbond.Weighted>
-9.6119

> <Gold.Chemscore.Metal.Weighted>
-0.0000

> <Gold.Chemscore.Lipo.Weighted>
-8.3263

> <Gold.Chemscore.Internal_Hbond.Weighted>
0.0000

> <Gold.Chemscore.DEClash.Weighted>
0.0166

> <Gold.Chemscore.DEInternal.Weighted>
2.1048

> <Gold.Chemscore.Rot.Weighted>
4.5324

> <Gold.Chemscore.Internal.Correction.Weighted>
   9.000000E+99

> <Gold.Protein.RotatedTorsions>
[ 6907 6896 6895 6894 ] final  -87.05 input  -60.11 | X-H torsion
[ 7974 7965 7964 7962 ] final   19.71 input  175.53 | X-H torsion
[ 8008 7997 7996 7995 ] final  -13.62 input   59.86 | X-H torsion
[ 10167 10162 10161 10158 ] final   38.63 input  -65.29 | X-H torsion
[ 10718 10713 10712 10709 ] final   12.34 input   66.30 | X-H torsion
[ 10763 10752 10751 10750 ] final -156.29 input  -60.55 | X-H torsion
[ 11005 11000 10999 10996 ] final  -70.84 input  -57.11 | X-H torsion

> <Gold.Protein.ActiveResidues>
 VAL166  LYS551  ARG553  GLY616  TRP617  ASP618  TYR619  PRO620  LYS621  CYS622 
 ASP623  PHE694  ASN695  SER759  ASP760  ASP761  ALA762  ILE779  LEU786  VAL792 
 PHE793  MET794  SER795  GLU796  ALA797  LYS798  CYS799  TRP800  GLU811  SER814 

> <Gold.Protein.RotatedAtoms>
  150.6866  134.2957  159.4684 H   0  0  0  0  0  0  0  0  0  0  0  0  # atno 6907 bound_to 6896
  152.0857  134.9438  160.0582 H   0  0  0  0  0  0  0  0  0  0  0  0  # atno 6908 bound_to 6896
  152.0774  133.4101  159.4523 H   0  0  0  0  0  0  0  0  0  0  0  0  # atno 6909 bound_to 6896
  146.2139  139.8274  142.8667 H   0  0  0  0  0  0  0  0  0  0  0  0  # atno 7974 bound_to 7965
  154.5277  140.2245  155.8859 H   0  0  0  0  0  0  0  0  0  0  0  0  # atno 8008 bound_to 7997
  156.1731  140.3117  155.8974 H   0  0  0  0  0  0  0  0  0  0  0  0  # atno 8009 bound_to 7997
  155.3516  140.0456  157.3037 H   0  0  0  0  0  0  0  0  0  0  0  0  # atno 8010 bound_to 7997
  140.3917  144.1843  150.6131 H   0  0  0  0  0  0  0  0  0  0  0  0  # atno 10167 bound_to 10162
  157.0088  130.6108  149.5705 H   0  0  0  0  0  0  0  0  0  0  0  0  # atno 10718 bound_to 10713
  154.7723  135.3149  154.8163 H   0  0  0  0  0  0  0  0  0  0  0  0  # atno 10763 bound_to 10752
  153.8895  135.6827  153.4766 H   0  0  0  0  0  0  0  0  0  0  0  0  # atno 10764 bound_to 10752
  153.1340  135.4768  154.9328 H   0  0  0  0  0  0  0  0  0  0  0  0  # atno 10765 bound_to 10752
  141.1581  133.6801  156.6815 H   0  0  0  0  0  0  0  0  0  0  0  0  # atno 11005 bound_to 11000
  145.3033  141.0200  143.3596 LP  0  0  0  0  0  0  0  0  0  0  0  0  # atno 17320 bound_to 7965
  144.8990  139.4674  143.6642 LP  0  0  0  0  0  0  0  0  0  0  0  0  # atno 17321 bound_to 7965
  140.4832  143.2372  151.8925 LP  0  0  0  0  0  0  0  0  0  0  0  0  # atno 17342 bound_to 10162
  139.4788  144.5246  151.8752 LP  0  0  0  0  0  0  0  0  0  0  0  0  # atno 17343 bound_to 10162
  156.0144  130.5237  150.8088 LP  0  0  0  0  0  0  0  0  0  0  0  0  # atno 17370 bound_to 10713
  157.5336  131.0938  150.9922 LP  0  0  0  0  0  0  0  0  0  0  0  0  # atno 17371 bound_to 10713
  140.3099  134.8094  157.4168 LP  0  0  0  0  0  0  0  0  0  0  0  0  # atno 17394 bound_to 11000
  140.1188  134.5248  155.8202 LP  0  0  0  0  0  0  0  0  0  0  0  0  # atno 17395 bound_to 11000

$$$$
