AV-unprocessed.smi:3112|AV-procd|sdf|11847|dock2
  -GOLD-   2272017223D 1   1.00000     0.00000
 Structure written by MMmdl.
 36 36  0  0  0  0  0  0  0  0  1 V2000
  150.4272  137.6971  154.8732 C   0  0  0  0  0  0  0  0  0  0  0  0
  151.7646  138.4486  154.7725 C   0  0  0  0  0  0  0  0  0  0  0  0
  151.8025  139.8003  155.5130 C   0  0  1  0  0  0  0  0  0  0  0  0
  150.7233  140.5967  155.0679 O   0  0  0  0  0  0  0  0  0  0  0  0
  151.7201  139.6571  157.0424 C   0  0  0  0  0  0  0  0  0  0  0  0
  152.1823  140.8745  157.7085 N   0  0  0  0  0  0  0  0  0  0  0  0
  152.5549  140.7279  159.1204 C   0  0  1  0  0  0  0  0  0  0  0  0
  153.5497  139.5607  159.2413 C   0  0  0  0  0  0  0  0  0  0  0  0
  153.1319  142.0295  159.7566 C   0  0  2  0  0  0  0  0  0  0  0  0
  153.4774  141.9419  161.2553 C   0  0  0  0  0  0  0  0  0  0  0  0
  152.3455  143.2209  159.4464 N   0  0  0  0  0  0  0  0  0  0  0  0
  152.0783  144.2992  160.2659 C   0  0  0  0  0  0  0  0  0  0  0  0
  151.3281  145.1860  159.5486 C   0  0  0  0  0  0  0  0  0  0  0  0
  151.1885  144.5599  158.2793 C   0  0  0  0  0  0  0  0  0  0  0  0
  151.8011  143.3895  158.2190 N   0  0  0  0  0  0  0  0  0  0  0  0
  150.4701  136.7612  154.3160 H   0  0  0  0  0  0  0  0  0  0  0  0
  149.6061  138.2853  154.4634 H   0  0  0  0  0  0  0  0  0  0  0  0
  150.1817  137.4511  155.9063 H   0  0  0  0  0  0  0  0  0  0  0  0
  152.5572  137.8079  155.1604 H   0  0  0  0  0  0  0  0  0  0  0  0
  152.0020  138.6095  153.7201 H   0  0  0  0  0  0  0  0  0  0  0  0
  152.7308  140.3053  155.2411 H   0  0  0  0  0  0  0  0  0  0  0  0
  150.3545  141.0418  155.8161 H   0  0  0  0  0  0  0  0  0  0  0  0
  150.7107  139.3832  157.3372 H   0  0  0  0  0  0  0  0  0  0  0  0
  152.3599  138.8303  157.3527 H   0  0  0  0  0  0  0  0  0  0  0  0
  152.9656  141.2588  157.1902 H   0  0  0  0  0  0  0  0  0  0  0  0
  151.6721  140.4365  159.6910 H   0  0  0  0  0  0  0  0  0  0  0  0
  153.8530  139.4067  160.2771 H   0  0  0  0  0  0  0  0  0  0  0  0
  154.4511  139.7318  158.6519 H   0  0  0  0  0  0  0  0  0  0  0  0
  153.1028  138.6294  158.8923 H   0  0  0  0  0  0  0  0  0  0  0  0
  154.0961  142.1821  159.2690 H   0  0  0  0  0  0  0  0  0  0  0  0
  154.0447  141.0379  161.4776 H   0  0  0  0  0  0  0  0  0  0  0  0
  152.5912  141.9511  161.8885 H   0  0  0  0  0  0  0  0  0  0  0  0
  154.0877  142.7935  161.5566 H   0  0  0  0  0  0  0  0  0  0  0  0
  152.4439  144.3460  161.2811 H   0  0  0  0  0  0  0  0  0  0  0  0
  150.9408  146.1382  159.8790 H   0  0  0  0  0  0  0  0  0  0  0  0
  150.6661  144.9195  157.4052 H   0  0  0  0  0  0  0  0  0  0  0  0
  1  2  1  0  0  0  0
  1 16  1  0  0  0  0
  1 17  1  0  0  0  0
  1 18  1  0  0  0  0
  2  3  1  0  0  0  0
  2 19  1  0  0  0  0
  2 20  1  0  0  0  0
  3  4  1  0  0  0  0
  3  5  1  0  0  0  0
  3 21  1  0  0  0  0
  4 22  1  0  0  0  0
  5  6  1  0  0  0  0
  5 23  1  0  0  0  0
  5 24  1  0  0  0  0
  6  7  1  0  0  0  0
  6 25  1  0  0  0  0
  7  8  1  0  0  0  0
  7  9  1  0  0  0  0
  7 26  1  0  0  0  0
  8 27  1  0  0  0  0
  8 28  1  0  0  0  0
  8 29  1  0  0  0  0
  9 10  1  0  0  0  0
  9 11  1  0  0  0  0
  9 30  1  0  0  0  0
 10 31  1  0  0  0  0
 10 32  1  0  0  0  0
 10 33  1  0  0  0  0
 11 15  1  0  0  0  0
 11 12  1  0  0  0  0
 12 13  2  0  0  0  0
 12 34  1  0  0  0  0
 13 14  1  0  0  0  0
 13 35  1  0  0  0  0
 14 15  2  0  0  0  0
 14 36  1  0  0  0  0
M  END
> <s_m_source_file>
AV-unprocessed.smi

> <i_m_source_file_index>
3112

> <i_lp_mmshare_version>
43012

> <i_f3d_flags>
0

> <s_epik_input>
W0NIM11bQ0gyXVtDQEhdKFtPSF0pW0NIMl1bTkhdW0NASF0oW0NIM10pW0NASF0oW0NIM10pbjFbY0hdW2NIXVtjSF1uMQ==

> <s_epik_cmdline>
J2VwaWtfcHl0aG9uJywgJy1waCcsICc3LjAnLCAnLXRuJywgJzgnLCAnLW1hJywgJzIwMCcsICctbWV0YWxfYmluZGluZycsICctaW1hZScsICc8aW5maWxlLm1hZT4nLCAnLW9tYWUnLCAnPG91dGZpbGUubWFlPic=

> <r_lp_tautomer_probability>
1

> <r_epik_Ionization_Penalty>
2.16876

> <r_epik_Ionization_Penalty_Charging>
0

> <r_epik_Ionization_Penalty_Neutral>
2.16876

> <r_epik_State_Penalty>
2.30854

> <r_epik_Charging_Adjusted_Penalty>
2.30854

> <i_epik_Tot_Q>
0

> <i_epik_Tot_abs_Q>
0

> <r_epik_Metal_State_Penalty>
2.3073

> <b_epik_Metal_Only>
0

> <s_lp_Force_Field>
OPLS_2005

> <r_lp_Energy>
21.8482

> <b_lp_Chiralities_Consistent>
1

> <s_lp_Variant>
AV-unprocessed.smi:3112-12

> <Gold.Version>
5.8.1

> <Gold.Id.Protein>
6NUR|6NUR_protein|mol2

> <Gold.PLP.Fitness>
43.9950

> <Gold.PLP.PLP>
-39.0933

> <Gold.PLP.part.hbond>
-1.0948

> <Gold.PLP.part.metal>
0.0000

> <Gold.PLP.part.buried>
-3.9617

> <Gold.PLP.part.nonpolar>
-33.5313

> <Gold.PLP.part.repulsive>
0.0481

> <Gold.PLP.ligand.clash>
0.0000

> <Gold.PLP.ligand.torsion>
0.7498

> <Gold.PLP.Chemscore.Hbond>
1.0000

> <Gold.PLP.Chemscore.CHOScore>
0.9947

> <Gold.PLP.Chemscore.Metal>
0.0000

> <Gold.Chemscore.Hbonds>
donor molecule, donor type, donor heavy atom, donor atom, acceptor molecule, acceptor atom, score
      P1  H  7989  7998       L1     4  0.43
      L1  C    14    36       P1  8028  1.00

> <Gold.PLP.Chemscore.Internal.Correction>
0.4171

> <Gold.Rescore>
     Score         DG    S(hbond)    S(metal)    S(lipo)     H(rot)  DE(clash)    DE(int)     intcor
     11.95     -13.69       0.94        0.00      93.78       2.31       0.01       1.73       ----

> <Gold.Chemscore.Fitness>
11.9512

> <Gold.Chemscore.DG>
-13.6894

> <Gold.Chemscore.ZeroCoef>
-5.4800

> <Gold.Chemscore.Hbond>
0.9438

> <Gold.Chemscore.Metal>
0.0000

> <Gold.Chemscore.Lipo>
93.7842

> <Gold.Chemscore.Internal_Hbond>
0.0000

> <Gold.Chemscore.DEClash>
0.0106

> <Gold.Chemscore.DEInternal>
1.7276

> <Gold.Chemscore.Rot>
2.3108

> <Gold.Chemscore.Internal.Correction>
   9.000000E+99

> <Gold.Chemscore.Hbonds>
donor molecule, donor type, donor heavy atom, donor atom, acceptor molecule, acceptor atom, score
      P1  H  7989  7998       L1     4  0.01

> <Gold.Chemscore.Hbond.Weighted>
-3.1523

> <Gold.Chemscore.Metal.Weighted>
-0.0000

> <Gold.Chemscore.Lipo.Weighted>
-10.9727

> <Gold.Chemscore.Internal_Hbond.Weighted>
0.0000

> <Gold.Chemscore.DEClash.Weighted>
0.0106

> <Gold.Chemscore.DEInternal.Weighted>
1.7276

> <Gold.Chemscore.Rot.Weighted>
5.9157

> <Gold.Chemscore.Internal.Correction.Weighted>
   9.000000E+99

> <Gold.Protein.RotatedTorsions>
[ 6907 6896 6895 6894 ] final   41.19 input  -60.11 | X-H torsion
[ 7974 7965 7964 7962 ] final  -98.80 input  175.53 | X-H torsion
[ 8008 7997 7996 7995 ] final   38.16 input   59.86 | X-H torsion
[ 10167 10162 10161 10158 ] final  142.49 input  -65.29 | X-H torsion
[ 10718 10713 10712 10709 ] final  139.29 input   66.30 | X-H torsion
[ 10763 10752 10751 10750 ] final -169.56 input  -60.55 | X-H torsion
[ 11005 11000 10999 10996 ] final -127.59 input  -57.11 | X-H torsion

> <Gold.Protein.ActiveResidues>
 VAL166  LYS551  ARG553  GLY616  TRP617  ASP618  TYR619  PRO620  LYS621  CYS622 
 ASP623  PHE694  ASN695  SER759  ASP760  ASP761  ALA762  ILE779  LEU786  VAL792 
 PHE793  MET794  SER795  GLU796  ALA797  LYS798  CYS799  TRP800  GLU811  SER814 

> <Gold.Protein.RotatedAtoms>
  152.1921  134.8663  160.0516 H   0  0  0  0  0  0  0  0  0  0  0  0  # atno 6907 bound_to 6896
  151.9548  133.3672  159.4021 H   0  0  0  0  0  0  0  0  0  0  0  0  # atno 6908 bound_to 6896
  150.6937  134.4226  159.5256 H   0  0  0  0  0  0  0  0  0  0  0  0  # atno 6909 bound_to 6896
  145.3159  140.9411  143.2743 H   0  0  0  0  0  0  0  0  0  0  0  0  # atno 7974 bound_to 7965
  155.2156  140.3327  155.4322 H   0  0  0  0  0  0  0  0  0  0  0  0  # atno 8008 bound_to 7997
  156.2353  140.1869  156.7183 H   0  0  0  0  0  0  0  0  0  0  0  0  # atno 8009 bound_to 7997
  154.6049  140.0617  156.9403 H   0  0  0  0  0  0  0  0  0  0  0  0  # atno 8010 bound_to 7997
  139.4993  144.6103  151.6286 H   0  0  0  0  0  0  0  0  0  0  0  0  # atno 10167 bound_to 10162
  157.4160  131.1033  151.0404 H   0  0  0  0  0  0  0  0  0  0  0  0  # atno 10718 bound_to 10713
  154.6509  135.2911  154.9988 H   0  0  0  0  0  0  0  0  0  0  0  0  # atno 10763 bound_to 10752
  154.1081  135.6566  153.4884 H   0  0  0  0  0  0  0  0  0  0  0  0  # atno 10764 bound_to 10752
  153.0376  135.5258  154.7417 H   0  0  0  0  0  0  0  0  0  0  0  0  # atno 10765 bound_to 10752
  140.9587  134.0967  157.3991 H   0  0  0  0  0  0  0  0  0  0  0  0  # atno 11005 bound_to 11000
  144.8978  139.4689  143.6647 LP  0  0  0  0  0  0  0  0  0  0  0  0  # atno 17320 bound_to 7965
  146.3101  139.7715  142.9026 LP  0  0  0  0  0  0  0  0  0  0  0  0  # atno 17321 bound_to 7965
  140.5776  144.0001  150.6250 LP  0  0  0  0  0  0  0  0  0  0  0  0  # atno 17342 bound_to 10162
  140.3140  143.3180  152.0851 LP  0  0  0  0  0  0  0  0  0  0  0  0  # atno 17343 bound_to 10162
  157.1351  130.6119  149.5540 LP  0  0  0  0  0  0  0  0  0  0  0  0  # atno 17370 bound_to 10713
  155.9865  130.4900  150.7083 LP  0  0  0  0  0  0  0  0  0  0  0  0  # atno 17371 bound_to 10713
  139.8870  135.0086  156.6537 LP  0  0  0  0  0  0  0  0  0  0  0  0  # atno 17394 bound_to 11000
  140.7499  133.8906  155.8339 LP  0  0  0  0  0  0  0  0  0  0  0  0  # atno 17395 bound_to 11000

$$$$
