AV-unprocessed.smi:1898|AV-procd|sdf|7703|dock3
  -GOLD-   22720 9443D 1   1.00000     0.00000
 Structure written by MMmdl.
 46 47  0  0  0  0  0  0  0  0  3 V2000
  157.6700  135.9308  153.1845 C   0  0  0  0  0  0  0  0  0  0  0  0
  157.0048  135.5130  154.4129 N   0  5  0  0  0  0  0  0  0  0  0  0
  157.4566  135.8310  155.6555 C   0  0  0  0  0  0  0  0  0  0  0  0
  158.4214  136.5159  156.0118 O   0  0  0  0  0  0  0  0  0  0  0  0
  156.5593  135.2276  156.7420 C   0  0  0  0  0  0  0  0  0  0  0  0
  155.9706  136.3086  157.5707 N   0  3  2  0  0  0  0  0  0  0  0  0
  156.9435  136.8737  158.5392 C   0  0  0  0  0  0  0  0  0  0  0  0
  156.3542  138.0918  159.2698 C   0  0  0  0  0  0  0  0  0  0  0  0
  155.0370  137.7349  159.9772 C   0  0  1  0  0  0  0  0  0  0  0  0
  154.4554  138.9337  160.5740 N   0  0  0  0  0  0  0  0  0  0  0  0
  153.9252  139.9585  159.8914 C   0  0  0  0  0  0  0  0  0  0  0  0
  153.8505  139.9863  158.6635 O   0  0  0  0  0  0  0  0  0  0  0  0
  153.4916  140.9193  160.7251 N   0  0  0  0  0  0  0  0  0  0  0  0
  152.8870  142.1730  160.4251 C   0  0  0  0  0  0  0  0  0  0  0  0
  152.4399  142.5542  159.1359 C   0  0  0  0  0  0  0  0  0  0  0  0
  151.8711  143.8289  158.9586 C   0  0  0  0  0  0  0  0  0  0  0  0
  151.7735  144.6809  160.0735 C   0  0  0  0  0  0  0  0  0  0  0  0
  152.2034  144.3373  161.3044 N   0  0  0  0  0  0  0  0  0  0  0  0
  152.7529  143.1090  161.4780 C   0  0  0  0  0  0  0  0  0  0  0  0
  153.1992  142.7624  162.7394 O   0  0  0  0  0  0  0  0  0  0  0  0
  153.3513  143.7895  163.7131 C   0  0  0  0  0  0  0  0  0  0  0  0
  154.0618  137.1047  158.9660 C   0  0  0  0  0  0  0  0  0  0  0  0
  154.7033  135.9107  158.2405 C   0  0  0  0  0  0  0  0  0  0  0  0
  157.1668  135.5438  152.2989 H   0  0  0  0  0  0  0  0  0  0  0  0
  158.7021  135.5836  153.1301 H   0  0  0  0  0  0  0  0  0  0  0  0
  157.6956  137.0155  153.0753 H   0  0  0  0  0  0  0  0  0  0  0  0
  155.7759  134.5815  156.3390 H   0  0  0  0  0  0  0  0  0  0  0  0
  157.1960  134.5899  157.3568 H   0  0  0  0  0  0  0  0  0  0  0  0
  157.2325  136.1041  159.2568 H   0  0  0  0  0  0  0  0  0  0  0  0
  157.8509  137.1777  158.0159 H   0  0  0  0  0  0  0  0  0  0  0  0
  157.0767  138.4714  159.9934 H   0  0  0  0  0  0  0  0  0  0  0  0
  156.1846  138.8952  158.5510 H   0  0  0  0  0  0  0  0  0  0  0  0
  155.2561  137.0091  160.7630 H   0  0  0  0  0  0  0  0  0  0  0  0
  154.4688  138.9931  161.5818 H   0  0  0  0  0  0  0  0  0  0  0  0
  153.5743  140.7161  161.7106 H   0  0  0  0  0  0  0  0  0  0  0  0
  152.5289  141.9090  158.2769 H   0  0  0  0  0  0  0  0  0  0  0  0
  151.5211  144.1472  157.9879 H   0  0  0  0  0  0  0  0  0  0  0  0
  151.3430  145.6664  159.9736 H   0  0  0  0  0  0  0  0  0  0  0  0
  153.7115  143.3526  164.6442 H   0  0  0  0  0  0  0  0  0  0  0  0
  152.4018  144.2832  163.9255 H   0  0  0  0  0  0  0  0  0  0  0  0
  154.0805  144.5361  163.3950 H   0  0  0  0  0  0  0  0  0  0  0  0
  153.1522  136.7786  159.4719 H   0  0  0  0  0  0  0  0  0  0  0  0
  153.7559  137.8505  158.2306 H   0  0  0  0  0  0  0  0  0  0  0  0
  153.9946  135.5204  157.5098 H   0  0  0  0  0  0  0  0  0  0  0  0
  154.9016  135.1037  158.9475 H   0  0  0  0  0  0  0  0  0  0  0  0
  155.7432  137.0528  156.9267 H   0  0  0  0  0  0  0  0  0  0  0  0
  1  2  1  0  0  0  0
  1 24  1  0  0  0  0
  1 25  1  0  0  0  0
  1 26  1  0  0  0  0
  2  3  1  0  0  0  0
  3  4  2  0  0  0  0
  3  5  1  0  0  0  0
  5  6  1  0  0  0  0
  5 27  1  0  0  0  0
  5 28  1  0  0  0  0
  6 23  1  0  0  0  0
  6  7  1  0  0  0  0
  6 46  1  0  0  0  0
  7  8  1  0  0  0  0
  7 29  1  0  0  0  0
  7 30  1  0  0  0  0
  8  9  1  0  0  0  0
  8 31  1  0  0  0  0
  8 32  1  0  0  0  0
  9 10  1  0  0  0  0
  9 22  1  0  0  0  0
  9 33  1  0  0  0  0
 10 11  1  0  0  0  0
 10 34  1  0  0  0  0
 11 12  2  0  0  0  0
 11 13  1  0  0  0  0
 13 14  1  0  0  0  0
 13 35  1  0  0  0  0
 14 19  1  0  0  0  0
 14 15  2  0  0  0  0
 15 16  1  0  0  0  0
 15 36  1  0  0  0  0
 16 17  2  0  0  0  0
 16 37  1  0  0  0  0
 17 18  1  0  0  0  0
 17 38  1  0  0  0  0
 18 19  2  0  0  0  0
 19 20  1  0  0  0  0
 20 21  1  0  0  0  0
 21 39  1  0  0  0  0
 21 40  1  0  0  0  0
 21 41  1  0  0  0  0
 22 23  1  0  0  0  0
 22 42  1  0  0  0  0
 22 43  1  0  0  0  0
 23 44  1  0  0  0  0
 23 45  1  0  0  0  0
M  CHG  1   2  -1
M  CHG  1   6   1
M  END
> <s_m_source_file>
AV-unprocessed.smi

> <i_m_source_file_index>
1898

> <i_lp_mmshare_version>
43012

> <i_f3d_flags>
0

> <s_epik_input>
W0NIM11bTkhdQyg9TylbQ0gyXU4xW0NIMl1bQ0gyXVtDSF0oW0NIMl1bQ0gyXTEpW05IXUMoPU8pW05IXWMyW2NIXVtjSF1bY0hdbmMyT1tDSDNd

> <s_epik_cmdline>
J2VwaWtfcHl0aG9uJywgJy1waCcsICc3LjAnLCAnLXRuJywgJzgnLCAnLW1hJywgJzIwMCcsICctbWV0YWxfYmluZGluZycsICctaW1hZScsICc8aW5maWxlLm1hZT4nLCAnLW9tYWUnLCAnPG91dGZpbGUubWFlPic=

> <r_lp_tautomer_probability>
1

> <r_epik_Ionization_Penalty>
6.13954

> <r_epik_Ionization_Penalty_Charging>
6.13946

> <r_epik_Ionization_Penalty_Neutral>
7.84403e-05

> <r_epik_State_Penalty>
6.9595

> <r_epik_Charging_Adjusted_Penalty>
13.099

> <i_epik_Tot_Q>
0

> <i_epik_Tot_abs_Q>
2

> <r_epik_Metal_State_Penalty>
2.89145

> <b_epik_Metal_Only>
1

> <s_lp_Force_Field>
OPLS_2005

> <r_lp_Energy>
12.3689

> <b_lp_Chiralities_Consistent>
1

> <s_lp_Variant>
AV-unprocessed.smi:1898-4

> <Gold.Version>
5.8.1

> <Gold.Id.Protein>
6NUR|6NUR_protein|mol2

> <Gold.PLP.Fitness>
41.8722

> <Gold.PLP.PLP>
-33.7536

> <Gold.PLP.part.hbond>
-2.0000

> <Gold.PLP.part.metal>
0.0000

> <Gold.PLP.part.buried>
-5.6886

> <Gold.PLP.part.nonpolar>
-25.7271

> <Gold.PLP.part.repulsive>
0.5382

> <Gold.PLP.ligand.clash>
0.0000

> <Gold.PLP.ligand.torsion>
0.4762

> <Gold.PLP.Chemscore.Hbond>
3.0000

> <Gold.PLP.Chemscore.CHOScore>
0.0000

> <Gold.PLP.Chemscore.Metal>
0.0000

> <Gold.Chemscore.Hbonds>
donor molecule, donor type, donor heavy atom, donor atom, acceptor molecule, acceptor atom, score
      P1  H  7997  8010       L1    12  1.00
      P1  H 10752 10763       L1     2  1.82

> <Gold.PLP.Chemscore.Internal.Correction>
0.0711

> <Gold.Rescore>
     Score         DG    S(hbond)    S(metal)    S(lipo)     H(rot)  DE(clash)    DE(int)     intcor
     12.95     -16.06       1.75        0.00      82.71       1.93       0.08       3.03       ----

> <Gold.Chemscore.Fitness>
12.9471

> <Gold.Chemscore.DG>
-16.0583

> <Gold.Chemscore.ZeroCoef>
-5.4800

> <Gold.Chemscore.Hbond>
1.7479

> <Gold.Chemscore.Metal>
0.0000

> <Gold.Chemscore.Lipo>
82.7075

> <Gold.Chemscore.Internal_Hbond>
0.0000

> <Gold.Chemscore.DEClash>
0.0796

> <Gold.Chemscore.DEInternal>
3.0316

> <Gold.Chemscore.Rot>
1.9283

> <Gold.Chemscore.Internal.Correction>
   9.000000E+99

> <Gold.Chemscore.Hbonds>
donor molecule, donor type, donor heavy atom, donor atom, acceptor molecule, acceptor atom, score
      P1  H  7997  8010       L1    12  0.95
      P1  H 10752 10763       L1     2  0.63

> <Gold.Chemscore.Hbond.Weighted>
-5.8381

> <Gold.Chemscore.Metal.Weighted>
-0.0000

> <Gold.Chemscore.Lipo.Weighted>
-9.6768

> <Gold.Chemscore.Internal_Hbond.Weighted>
0.0000

> <Gold.Chemscore.DEClash.Weighted>
0.0796

> <Gold.Chemscore.DEInternal.Weighted>
3.0316

> <Gold.Chemscore.Rot.Weighted>
4.9365

> <Gold.Chemscore.Internal.Correction.Weighted>
   9.000000E+99

> <Gold.Protein.RotatedTorsions>
[ 6907 6896 6895 6894 ] final -166.46 input  -60.11 | X-H torsion
[ 7974 7965 7964 7962 ] final   48.05 input  175.53 | X-H torsion
[ 8008 7997 7996 7995 ] final   11.90 input   59.86 | X-H torsion
[ 10167 10162 10161 10158 ] final   17.22 input  -65.29 | X-H torsion
[ 10718 10713 10712 10709 ] final -118.35 input   66.30 | X-H torsion
[ 10763 10752 10751 10750 ] final -130.31 input  -60.55 | X-H torsion
[ 11005 11000 10999 10996 ] final   98.57 input  -57.11 | X-H torsion

> <Gold.Protein.ActiveResidues>
 VAL166  LYS551  ARG553  GLY616  TRP617  ASP618  TYR619  PRO620  LYS621  CYS622 
 ASP623  PHE694  ASN695  SER759  ASP760  ASP761  ALA762  ILE779  LEU786  VAL792 
 PHE793  MET794  SER795  GLU796  ALA797  LYS798  CYS799  TRP800  GLU811  SER814 

> <Gold.Protein.RotatedAtoms>
  151.4440  133.3635  159.2785 H   0  0  0  0  0  0  0  0  0  0  0  0  # atno 6907 bound_to 6896
  150.9138  134.8556  159.7453 H   0  0  0  0  0  0  0  0  0  0  0  0  # atno 6908 bound_to 6896
  152.4946  134.4372  159.9583 H   0  0  0  0  0  0  0  0  0  0  0  0  # atno 6909 bound_to 6896
  146.0240  139.4684  142.9879 H   0  0  0  0  0  0  0  0  0  0  0  0  # atno 7974 bound_to 7965
  154.8132  140.2871  155.5838 H   0  0  0  0  0  0  0  0  0  0  0  0  # atno 8008 bound_to 7997
  156.2990  140.2564  156.2954 H   0  0  0  0  0  0  0  0  0  0  0  0  # atno 8009 bound_to 7997
  154.9423  140.0381  157.2092 H   0  0  0  0  0  0  0  0  0  0  0  0  # atno 8010 bound_to 7997
  140.5742  143.9104  150.6737 H   0  0  0  0  0  0  0  0  0  0  0  0  # atno 10167 bound_to 10162
  156.1100  130.6241  150.9280 H   0  0  0  0  0  0  0  0  0  0  0  0  # atno 10718 bound_to 10713
  154.8756  135.3867  154.4062 H   0  0  0  0  0  0  0  0  0  0  0  0  # atno 10763 bound_to 10752
  153.4781  135.7030  153.5959 H   0  0  0  0  0  0  0  0  0  0  0  0  # atno 10764 bound_to 10752
  153.4387  135.3861  155.2182 H   0  0  0  0  0  0  0  0  0  0  0  0  # atno 10765 bound_to 10752
  139.8772  134.9055  156.4475 H   0  0  0  0  0  0  0  0  0  0  0  0  # atno 11005 bound_to 11000
  145.7147  141.0094  143.1434 LP  0  0  0  0  0  0  0  0  0  0  0  0  # atno 17320 bound_to 7965
  144.7002  139.8799  143.7446 LP  0  0  0  0  0  0  0  0  0  0  0  0  # atno 17321 bound_to 7965
  140.2587  143.3540  152.1342 LP  0  0  0  0  0  0  0  0  0  0  0  0  # atno 17342 bound_to 10162
  139.5133  144.6931  151.5705 LP  0  0  0  0  0  0  0  0  0  0  0  0  # atno 17343 bound_to 10162
  157.6280  131.0924  150.8496 LP  0  0  0  0  0  0  0  0  0  0  0  0  # atno 17370 bound_to 10713
  156.8608  130.5112  149.5304 LP  0  0  0  0  0  0  0  0  0  0  0  0  # atno 17371 bound_to 10713
  140.8955  133.7817  155.9620 LP  0  0  0  0  0  0  0  0  0  0  0  0  # atno 17394 bound_to 11000
  140.8707  134.2730  157.5192 LP  0  0  0  0  0  0  0  0  0  0  0  0  # atno 17395 bound_to 11000

$$$$
