AV-unprocessed.smi:2417|AV-procd|sdf|9549|dock1
  -GOLD-   2272013183D 1   1.00000     0.00000
 Structure written by MMmdl.
 38 39  0  0  0  0  0  0  0  0  1 V2000
  144.2272  143.0597  157.8274 C   0  0  0  0  0  0  0  0  0  0  0  0
  145.1947  142.7072  156.7113 C   0  0  0  0  0  0  0  0  0  0  0  0
  146.0715  141.6528  156.9826 N   0  0  0  0  0  0  0  0  0  0  0  0
  146.9328  141.2849  156.0913 C   0  0  0  0  0  0  0  0  0  0  0  0
  147.0129  141.9150  154.8389 N   0  0  0  0  0  0  0  0  0  0  0  0
  148.0376  141.4018  153.9150 C   0  0  0  0  0  0  0  0  0  0  0  0
  149.2241  140.7546  154.6647 C   0  0  1  0  0  0  0  0  0  0  0  0
  150.1001  140.1254  153.7514 O   0  0  0  0  0  0  0  0  0  0  0  0
  150.0467  141.7661  155.4798 C   0  0  0  0  0  0  0  0  0  0  0  0
  151.0231  141.0823  156.2569 O   0  0  0  0  0  0  0  0  0  0  0  0
  151.4621  141.6733  157.4218 C   0  0  0  0  0  0  0  0  0  0  0  0
  152.0940  140.8362  158.3646 C   0  0  0  0  0  0  0  0  0  0  0  0
  152.5766  141.3558  159.5812 C   0  0  0  0  0  0  0  0  0  0  0  0
  152.4294  142.7253  159.8684 C   0  0  0  0  0  0  0  0  0  0  0  0
  152.8926  143.2276  161.0373 F   0  0  0  0  0  0  0  0  0  0  0  0
  151.7994  143.5720  158.9378 C   0  0  0  0  0  0  0  0  0  0  0  0
  151.3174  143.0521  157.7206 C   0  0  0  0  0  0  0  0  0  0  0  0
  146.2021  142.9574  154.4961 C   0  0  0  0  0  0  0  0  0  0  0  0
  146.2940  143.5144  153.4003 O   0  0  0  0  0  0  0  0  0  0  0  0
  145.2261  143.3643  155.5198 C   0  0  0  0  0  0  0  0  0  0  0  0
  144.2999  144.5224  155.1700 C   0  0  0  0  0  0  0  0  0  0  0  0
  143.1963  142.9453  157.4912 H   0  0  0  0  0  0  0  0  0  0  0  0
  144.3769  144.0902  158.1502 H   0  0  0  0  0  0  0  0  0  0  0  0
  144.3690  142.4146  158.6952 H   0  0  0  0  0  0  0  0  0  0  0  0
  147.6443  140.4737  156.2559 H   0  0  0  0  0  0  0  0  0  0  0  0
  147.6210  140.7061  153.1833 H   0  0  0  0  0  0  0  0  0  0  0  0
  148.4029  142.2349  153.3113 H   0  0  0  0  0  0  0  0  0  0  0  0
  148.8658  139.9876  155.3524 H   0  0  0  0  0  0  0  0  0  0  0  0
  149.6515  140.0298  152.9250 H   0  0  0  0  0  0  0  0  0  0  0  0
  150.5523  142.4402  154.7865 H   0  0  0  0  0  0  0  0  0  0  0  0
  149.3924  142.3700  156.1111 H   0  0  0  0  0  0  0  0  0  0  0  0
  152.2110  139.7836  158.1526 H   0  0  0  0  0  0  0  0  0  0  0  0
  153.0598  140.7030  160.2930 H   0  0  0  0  0  0  0  0  0  0  0  0
  151.6853  144.6234  159.1572 H   0  0  0  0  0  0  0  0  0  0  0  0
  150.8400  143.7331  157.0328 H   0  0  0  0  0  0  0  0  0  0  0  0
  144.8835  145.4207  154.9655 H   0  0  0  0  0  0  0  0  0  0  0  0
  143.5946  144.7636  155.9637 H   0  0  0  0  0  0  0  0  0  0  0  0
  143.7203  144.2849  154.2773 H   0  0  0  0  0  0  0  0  0  0  0  0
  1  2  1  0  0  0  0
  1 22  1  0  0  0  0
  1 23  1  0  0  0  0
  1 24  1  0  0  0  0
  2 20  2  0  0  0  0
  2  3  1  0  0  0  0
  3  4  2  0  0  0  0
  4  5  1  0  0  0  0
  4 25  1  0  0  0  0
  5  6  1  0  0  0  0
  5 18  1  0  0  0  0
  6  7  1  0  0  0  0
  6 26  1  0  0  0  0
  6 27  1  0  0  0  0
  7  8  1  0  0  0  0
  7  9  1  0  0  0  0
  7 28  1  0  0  0  0
  8 29  1  0  0  0  0
  9 10  1  0  0  0  0
  9 30  1  0  0  0  0
  9 31  1  0  0  0  0
 10 11  1  0  0  0  0
 11 17  1  0  0  0  0
 11 12  2  0  0  0  0
 12 13  1  0  0  0  0
 12 32  1  0  0  0  0
 13 14  2  0  0  0  0
 13 33  1  0  0  0  0
 14 15  1  0  0  0  0
 14 16  1  0  0  0  0
 16 17  2  0  0  0  0
 16 34  1  0  0  0  0
 17 35  1  0  0  0  0
 18 19  2  0  0  0  0
 18 20  1  0  0  0  0
 20 21  1  0  0  0  0
 21 36  1  0  0  0  0
 21 37  1  0  0  0  0
 21 38  1  0  0  0  0
M  END
> <s_m_source_file>
AV-unprocessed.smi

> <i_m_source_file_index>
2417

> <i_lp_mmshare_version>
43012

> <i_f3d_flags>
0

> <s_epik_input>
W0NIM11jMW5bY0hdbihjKD1PKWMxW0NIM10pW0NIMl1bQ0BIXShbT0hdKVtDSDJdT2MyW2NIXVtjSF1jKEYpW2NIXVtjSF0y

> <s_epik_cmdline>
J2VwaWtfcHl0aG9uJywgJy1waCcsICc3LjAnLCAnLXRuJywgJzgnLCAnLW1hJywgJzIwMCcsICctbWV0YWxfYmluZGluZycsICctaW1hZScsICc8aW5maWxlLm1hZT4nLCAnLW9tYWUnLCAnPG91dGZpbGUubWFlPic=

> <r_lp_tautomer_probability>
1

> <r_epik_Ionization_Penalty>
3.65384e-05

> <r_epik_Ionization_Penalty_Charging>
8.23007e-08

> <r_epik_Ionization_Penalty_Neutral>
3.64561e-05

> <r_epik_State_Penalty>
-0

> <r_epik_Charging_Adjusted_Penalty>
8.23007e-08

> <i_epik_Tot_Q>
0

> <i_epik_Tot_abs_Q>
0

> <r_epik_Metal_State_Penalty>
-0

> <b_epik_Metal_Only>
0

> <s_lp_Force_Field>
OPLS_2005

> <r_lp_Energy>
22.9041

> <b_lp_Chiralities_Consistent>
1

> <s_lp_Variant>
AV-unprocessed.smi:2417-2

> <Gold.Version>
5.8.1

> <Gold.Id.Protein>
6NUR|6NUR_protein|mol2

> <Gold.PLP.Fitness>
45.8527

> <Gold.PLP.PLP>
-41.7730

> <Gold.PLP.part.hbond>
-3.0000

> <Gold.PLP.part.metal>
0.0000

> <Gold.PLP.part.buried>
-3.5282

> <Gold.PLP.part.nonpolar>
-34.6294

> <Gold.PLP.part.repulsive>
0.3158

> <Gold.PLP.ligand.clash>
0.0000

> <Gold.PLP.ligand.torsion>
0.8233

> <Gold.PLP.Chemscore.Hbond>
1.8480

> <Gold.PLP.Chemscore.CHOScore>
0.0000

> <Gold.PLP.Chemscore.Metal>
0.0000

> <Gold.Chemscore.Hbonds>
donor molecule, donor type, donor heavy atom, donor atom, acceptor molecule, acceptor atom, score
      L1  H     8    29       P1  7957  1.00
      P1  H  7989  7998       L1     8  0.78

> <Gold.PLP.Chemscore.Internal.Correction>
0.1822

> <Gold.Rescore>
     Score         DG    S(hbond)    S(metal)    S(lipo)     H(rot)  DE(clash)    DE(int)     intcor
     13.21     -15.32       1.57        0.00      94.90       2.54       1.44       0.67       ----

> <Gold.Chemscore.Fitness>
13.2062

> <Gold.Chemscore.DG>
-15.3202

> <Gold.Chemscore.ZeroCoef>
-5.4800

> <Gold.Chemscore.Hbond>
1.5651

> <Gold.Chemscore.Metal>
0.0000

> <Gold.Chemscore.Lipo>
94.9028

> <Gold.Chemscore.Internal_Hbond>
0.0000

> <Gold.Chemscore.DEClash>
1.4448

> <Gold.Chemscore.DEInternal>
0.6692

> <Gold.Chemscore.Rot>
2.5355

> <Gold.Chemscore.Internal.Correction>
   9.000000E+99

> <Gold.Chemscore.Hbonds>
donor molecule, donor type, donor heavy atom, donor atom, acceptor molecule, acceptor atom, score
      L1  H     8    29       P1  7957  0.96
      P1  H  7989  7998       L1     8  0.49

> <Gold.Chemscore.Hbond.Weighted>
-5.2274

> <Gold.Chemscore.Metal.Weighted>
-0.0000

> <Gold.Chemscore.Lipo.Weighted>
-11.1036

> <Gold.Chemscore.Internal_Hbond.Weighted>
0.0000

> <Gold.Chemscore.DEClash.Weighted>
1.4448

> <Gold.Chemscore.DEInternal.Weighted>
0.6692

> <Gold.Chemscore.Rot.Weighted>
6.4908

> <Gold.Chemscore.Internal.Correction.Weighted>
   9.000000E+99

> <Gold.Protein.RotatedTorsions>
[ 6907 6896 6895 6894 ] final  141.64 input  -60.11 | X-H torsion
[ 7974 7965 7964 7962 ] final  -92.81 input  175.53 | X-H torsion
[ 8008 7997 7996 7995 ] final   39.82 input   59.86 | X-H torsion
[ 10167 10162 10161 10158 ] final   83.57 input  -65.29 | X-H torsion
[ 10718 10713 10712 10709 ] final  159.45 input   66.30 | X-H torsion
[ 10763 10752 10751 10750 ] final   97.74 input  -60.55 | X-H torsion
[ 11005 11000 10999 10996 ] final  136.34 input  -57.11 | X-H torsion

> <Gold.Protein.ActiveResidues>
 VAL166  LYS551  ARG553  GLY616  TRP617  ASP618  TYR619  PRO620  LYS621  CYS622 
 ASP623  PHE694  ASN695  SER759  ASP760  ASP761  ALA762  ILE779  LEU786  VAL792 
 PHE793  MET794  SER795  GLU796  ALA797  LYS798  CYS799  TRP800  GLU811  SER814 

> <Gold.Protein.RotatedAtoms>
  152.2284  133.5039  159.5201 H   0  0  0  0  0  0  0  0  0  0  0  0  # atno 6907 bound_to 6896
  150.7031  134.1249  159.4057 H   0  0  0  0  0  0  0  0  0  0  0  0  # atno 6908 bound_to 6896
  151.9170  135.0314  160.0570 H   0  0  0  0  0  0  0  0  0  0  0  0  # atno 6909 bound_to 6896
  145.3948  140.9532  143.2320 H   0  0  0  0  0  0  0  0  0  0  0  0  # atno 7974 bound_to 7965
  155.2429  140.3347  155.4290 H   0  0  0  0  0  0  0  0  0  0  0  0  # atno 8008 bound_to 7997
  156.2248  140.1824  156.7434 H   0  0  0  0  0  0  0  0  0  0  0  0  # atno 8009 bound_to 7997
  154.5882  140.0642  156.9186 H   0  0  0  0  0  0  0  0  0  0  0  0  # atno 8010 bound_to 7997
  139.9170  144.6237  150.8479 H   0  0  0  0  0  0  0  0  0  0  0  0  # atno 10167 bound_to 10162
  157.1641  131.0594  151.2217 H   0  0  0  0  0  0  0  0  0  0  0  0  # atno 10718 bound_to 10713
  153.2805  135.4173  155.1074 H   0  0  0  0  0  0  0  0  0  0  0  0  # atno 10763 bound_to 10752
  154.8488  135.3494  154.6118 H   0  0  0  0  0  0  0  0  0  0  0  0  # atno 10764 bound_to 10752
  153.6539  135.7051  153.5257 H   0  0  0  0  0  0  0  0  0  0  0  0  # atno 10765 bound_to 10752
  140.0040  134.9467  157.0134 H   0  0  0  0  0  0  0  0  0  0  0  0  # atno 11005 bound_to 11000
  144.8415  139.5465  143.6898 LP  0  0  0  0  0  0  0  0  0  0  0  0  # atno 17320 bound_to 7965
  146.2780  139.6803  142.9249 LP  0  0  0  0  0  0  0  0  0  0  0  0  # atno 17321 bound_to 7965
  140.7672  143.3324  151.2381 LP  0  0  0  0  0  0  0  0  0  0  0  0  # atno 17342 bound_to 10162
  139.6894  143.9718  152.2851 LP  0  0  0  0  0  0  0  0  0  0  0  0  # atno 17343 bound_to 10162
  157.4105  130.7382  149.6835 LP  0  0  0  0  0  0  0  0  0  0  0  0  # atno 17370 bound_to 10713
  155.9749  130.4096  150.3890 LP  0  0  0  0  0  0  0  0  0  0  0  0  # atno 17371 bound_to 10713
  140.4676  134.1420  155.7199 LP  0  0  0  0  0  0  0  0  0  0  0  0  # atno 17394 bound_to 11000
  141.1663  133.8696  157.1705 LP  0  0  0  0  0  0  0  0  0  0  0  0  # atno 17395 bound_to 11000

$$$$
