AV-unprocessed.smi:1135|AV-procd|sdf|4858|dock2
  -GOLD-   22720 3433D 1   1.00000     0.00000
 Structure written by MMmdl.
 45 46  0  0  0  0  0  0  0  0  1 V2000
  150.1536  141.8362  157.4063 C   0  0  0  0  0  0  0  0  0  0  0  0
  149.2221  141.1497  156.3974 C   0  0  2  0  0  0  0  0  0  0  0  0
  149.4525  141.6772  154.9718 C   0  0  0  0  0  0  0  0  0  0  0  0
  148.5151  141.0010  153.9559 C   0  0  0  0  0  0  0  0  0  0  0  0
  147.0119  141.1091  154.3183 C   0  0  1  0  0  0  0  0  0  0  0  0
  146.5120  142.5590  154.1078 C   0  0  0  0  0  0  0  0  0  0  0  0
  146.3101  140.2032  153.3986 N   0  0  0  0  0  0  0  0  0  0  0  0
  146.7017  138.9979  152.9519 C   0  0  0  0  0  0  0  0  0  0  0  0
  147.7569  138.4442  153.2611 O   0  0  0  0  0  0  0  0  0  0  0  0
  145.7940  138.4622  152.1242 N   0  0  0  0  0  0  0  0  0  0  0  0
  145.9119  137.1534  151.4918 C   0  0  0  0  0  0  0  0  0  0  0  0
  144.7350  136.2386  151.8690 C   0  0  0  0  0  0  0  0  0  0  0  0
  144.9314  134.8156  151.3809 C   0  0  0  0  0  0  0  0  0  0  0  0
  143.8380  133.9274  151.2940 C   0  0  0  0  0  0  0  0  0  0  0  0
  144.0736  132.6160  150.8376 C   0  0  0  0  0  0  0  0  0  0  0  0
  145.3866  132.2445  150.4898 C   0  0  0  0  0  0  0  0  0  0  0  0
  146.4100  133.2052  150.6144 C   0  0  0  0  0  0  0  0  0  0  0  0
  146.1948  134.4659  151.0491 N   0  0  0  0  0  0  0  0  0  0  0  0
  146.8024  140.6350  155.7825 C   0  0  0  0  0  0  0  0  0  0  0  0
  147.7448  141.3169  156.7898 C   0  0  0  0  0  0  0  0  0  0  0  0
  149.9705  142.9104  157.4470 H   0  0  0  0  0  0  0  0  0  0  0  0
  151.2000  141.6867  157.1388 H   0  0  0  0  0  0  0  0  0  0  0  0
  150.0100  141.4359  158.4103 H   0  0  0  0  0  0  0  0  0  0  0  0
  149.4551  140.0837  156.4055 H   0  0  0  0  0  0  0  0  0  0  0  0
  149.3118  142.7581  154.9471 H   0  0  0  0  0  0  0  0  0  0  0  0
  150.4878  141.5021  154.6772 H   0  0  0  0  0  0  0  0  0  0  0  0
  148.6932  141.4172  152.9633 H   0  0  0  0  0  0  0  0  0  0  0  0
  148.7967  139.9484  153.8912 H   0  0  0  0  0  0  0  0  0  0  0  0
  147.0680  143.2752  154.7112 H   0  0  0  0  0  0  0  0  0  0  0  0
  145.4628  142.6732  154.3794 H   0  0  0  0  0  0  0  0  0  0  0  0
  146.6162  142.8650  153.0663 H   0  0  0  0  0  0  0  0  0  0  0  0
  145.4188  140.5382  153.0631 H   0  0  0  0  0  0  0  0  0  0  0  0
  144.9577  138.9915  151.9253 H   0  0  0  0  0  0  0  0  0  0  0  0
  145.9382  137.3016  150.4119 H   0  0  0  0  0  0  0  0  0  0  0  0
  146.8605  136.6875  151.7647 H   0  0  0  0  0  0  0  0  0  0  0  0
  144.5999  136.2264  152.9514 H   0  0  0  0  0  0  0  0  0  0  0  0
  143.8076  136.6312  151.4493 H   0  0  0  0  0  0  0  0  0  0  0  0
  142.8422  134.2417  151.5706 H   0  0  0  0  0  0  0  0  0  0  0  0
  143.2622  131.9079  150.7571 H   0  0  0  0  0  0  0  0  0  0  0  0
  145.6042  131.2470  150.1375 H   0  0  0  0  0  0  0  0  0  0  0  0
  147.4287  132.9538  150.3590 H   0  0  0  0  0  0  0  0  0  0  0  0
  145.7713  140.7991  156.0965 H   0  0  0  0  0  0  0  0  0  0  0  0
  146.9648  139.5573  155.8395 H   0  0  0  0  0  0  0  0  0  0  0  0
  147.5761  140.8957  157.7813 H   0  0  0  0  0  0  0  0  0  0  0  0
  147.4982  142.3762  156.8664 H   0  0  0  0  0  0  0  0  0  0  0  0
  1  2  1  0  0  0  0
  1 21  1  0  0  0  0
  1 22  1  0  0  0  0
  1 23  1  0  0  0  0
  2 20  1  0  0  0  0
  2  3  1  0  0  0  0
  2 24  1  0  0  0  0
  3  4  1  0  0  0  0
  3 25  1  0  0  0  0
  3 26  1  0  0  0  0
  4  5  1  0  0  0  0
  4 27  1  0  0  0  0
  4 28  1  0  0  0  0
  5  6  1  0  0  0  0
  5  7  1  0  0  0  0
  5 19  1  0  0  0  0
  6 29  1  0  0  0  0
  6 30  1  0  0  0  0
  6 31  1  0  0  0  0
  7  8  1  0  0  0  0
  7 32  1  0  0  0  0
  8  9  2  0  0  0  0
  8 10  1  0  0  0  0
 10 11  1  0  0  0  0
 10 33  1  0  0  0  0
 11 12  1  0  0  0  0
 11 34  1  0  0  0  0
 11 35  1  0  0  0  0
 12 13  1  0  0  0  0
 12 36  1  0  0  0  0
 12 37  1  0  0  0  0
 13 18  1  0  0  0  0
 13 14  2  0  0  0  0
 14 15  1  0  0  0  0
 14 38  1  0  0  0  0
 15 16  2  0  0  0  0
 15 39  1  0  0  0  0
 16 17  1  0  0  0  0
 16 40  1  0  0  0  0
 17 18  2  0  0  0  0
 17 41  1  0  0  0  0
 19 20  1  0  0  0  0
 19 42  1  0  0  0  0
 19 43  1  0  0  0  0
 20 44  1  0  0  0  0
 20 45  1  0  0  0  0
M  END
> <s_m_source_file>
AV-unprocessed.smi

> <i_m_source_file_index>
1135

> <i_lp_mmshare_version>
43012

> <i_f3d_flags>
0

> <s_epik_input>
W0NIMl0xW0NIMl1bQ0BIXShbQ0gzXSlbQ0gyXVtDSDJdW0NAQF0xKFtDSDNdKVtOSF1DKD1PKVtOSF1bQ0gyXVtDSDJdYzJbY0hdW2NIXVtjSF1bY0hdbjI=

> <s_epik_cmdline>
J2VwaWtfcHl0aG9uJywgJy1waCcsICc3LjAnLCAnLXRuJywgJzgnLCAnLW1hJywgJzIwMCcsICctbWV0YWxfYmluZGluZycsICctaW1hZScsICc8aW5maWxlLm1hZT4nLCAnLW9tYWUnLCAnPG91dGZpbGUubWFlPic=

> <r_epik_Ionization_Penalty>
0.0448679

> <r_epik_Ionization_Penalty_Charging>
0

> <r_epik_Ionization_Penalty_Neutral>
0.0448679

> <r_epik_State_Penalty>
0.0379931

> <r_epik_Charging_Adjusted_Penalty>
0.0379931

> <i_epik_Tot_Q>
0

> <i_epik_Tot_abs_Q>
0

> <r_epik_Metal_State_Penalty>
0.0353093

> <b_epik_Metal_Only>
0

> <s_lp_Force_Field>
OPLS_2005

> <r_lp_Energy>
8.69074

> <b_lp_Chiralities_Consistent>
1

> <s_lp_Variant>
AV-unprocessed.smi:1135-1

> <Gold.Version>
5.8.1

> <Gold.Id.Protein>
6NUR|6NUR_protein|mol2

> <Gold.PLP.Fitness>
43.5965

> <Gold.PLP.PLP>
-36.1561

> <Gold.PLP.part.hbond>
-2.9552

> <Gold.PLP.part.metal>
0.0000

> <Gold.PLP.part.buried>
-3.5897

> <Gold.PLP.part.nonpolar>
-32.7468

> <Gold.PLP.part.repulsive>
2.1063

> <Gold.PLP.ligand.clash>
0.0000

> <Gold.PLP.ligand.torsion>
0.7104

> <Gold.PLP.Chemscore.Hbond>
1.9913

> <Gold.PLP.Chemscore.CHOScore>
0.9539

> <Gold.PLP.Chemscore.Metal>
0.0000

> <Gold.Chemscore.Hbonds>
donor molecule, donor type, donor heavy atom, donor atom, acceptor molecule, acceptor atom, score
      L1  H     7    32       P1 10175  1.00
      L1  H    10    33       P1 10175  0.99
      L1  C    17    41       P1 10747  0.84

> <Gold.PLP.Chemscore.Internal.Correction>
0.0258

> <Gold.Rescore>
     Score         DG    S(hbond)    S(metal)    S(lipo)     H(rot)  DE(clash)    DE(int)     intcor
     15.00     -19.27       1.92        0.00      94.11       1.42       1.89       2.38       ----

> <Gold.Chemscore.Fitness>
15.0041

> <Gold.Chemscore.DG>
-19.2731

> <Gold.Chemscore.ZeroCoef>
-5.4800

> <Gold.Chemscore.Hbond>
1.9226

> <Gold.Chemscore.Metal>
0.0000

> <Gold.Chemscore.Lipo>
94.1052

> <Gold.Chemscore.Internal_Hbond>
0.0000

> <Gold.Chemscore.DEClash>
1.8899

> <Gold.Chemscore.DEInternal>
2.3791

> <Gold.Chemscore.Rot>
1.4213

> <Gold.Chemscore.Internal.Correction>
   9.000000E+99

> <Gold.Chemscore.Hbonds>
donor molecule, donor type, donor heavy atom, donor atom, acceptor molecule, acceptor atom, score
      L1  H     7    32       P1 10175  0.88
      L1  H    10    33       P1 10175  0.90

> <Gold.Chemscore.Hbond.Weighted>
-6.4213

> <Gold.Chemscore.Metal.Weighted>
-0.0000

> <Gold.Chemscore.Lipo.Weighted>
-11.0103

> <Gold.Chemscore.Internal_Hbond.Weighted>
0.0000

> <Gold.Chemscore.DEClash.Weighted>
1.8899

> <Gold.Chemscore.DEInternal.Weighted>
2.3791

> <Gold.Chemscore.Rot.Weighted>
3.6385

> <Gold.Chemscore.Internal.Correction.Weighted>
   9.000000E+99

> <Gold.Protein.RotatedTorsions>
[ 6907 6896 6895 6894 ] final  112.01 input  -60.11 | X-H torsion
[ 7974 7965 7964 7962 ] final -148.82 input  175.53 | X-H torsion
[ 8008 7997 7996 7995 ] final  -77.37 input   59.86 | X-H torsion
[ 10167 10162 10161 10158 ] final  -46.88 input  -65.29 | X-H torsion
[ 10718 10713 10712 10709 ] final  -23.78 input   66.30 | X-H torsion
[ 10763 10752 10751 10750 ] final  -39.69 input  -60.55 | X-H torsion
[ 11005 11000 10999 10996 ] final  -11.42 input  -57.11 | X-H torsion

> <Gold.Protein.ActiveResidues>
 VAL166  LYS551  ARG553  GLY616  TRP617  ASP618  TYR619  PRO620  LYS621  CYS622 
 ASP623  PHE694  ASN695  SER759  ASP760  ASP761  ALA762  ILE779  LEU786  VAL792 
 PHE793  MET794  SER795  GLU796  ALA797  LYS798  CYS799  TRP800  GLU811  SER814 

> <Gold.Protein.RotatedAtoms>
  152.4939  133.8576  159.7233 H   0  0  0  0  0  0  0  0  0  0  0  0  # atno 6907 bound_to 6896
  150.9096  133.7005  159.2865 H   0  0  0  0  0  0  0  0  0  0  0  0  # atno 6908 bound_to 6896
  151.4419  135.1025  159.9725 H   0  0  0  0  0  0  0  0  0  0  0  0  # atno 6909 bound_to 6896
  144.8006  140.5147  143.5710 H   0  0  0  0  0  0  0  0  0  0  0  0  # atno 7974 bound_to 7965
  154.5590  140.0711  156.8789 H   0  0  0  0  0  0  0  0  0  0  0  0  # atno 8008 bound_to 7997
  155.2847  140.3374  155.4238 H   0  0  0  0  0  0  0  0  0  0  0  0  # atno 8009 bound_to 7997
  156.2026  140.1728  156.7852 H   0  0  0  0  0  0  0  0  0  0  0  0  # atno 8010 bound_to 7997
  140.6799  143.2810  151.3847 H   0  0  0  0  0  0  0  0  0  0  0  0  # atno 10167 bound_to 10162
  156.4864  130.4556  149.6781 H   0  0  0  0  0  0  0  0  0  0  0  0  # atno 10718 bound_to 10713
  153.9336  135.6769  153.4745 H   0  0  0  0  0  0  0  0  0  0  0  0  # atno 10763 bound_to 10752
  153.0967  135.4848  154.8788 H   0  0  0  0  0  0  0  0  0  0  0  0  # atno 10764 bound_to 10752
  154.7415  135.3162  154.8678 H   0  0  0  0  0  0  0  0  0  0  0  0  # atno 10765 bound_to 10752
  140.7551  133.8561  155.9077 H   0  0  0  0  0  0  0  0  0  0  0  0  # atno 11005 bound_to 11000
  145.5563  139.1478  143.3366 LP  0  0  0  0  0  0  0  0  0  0  0  0  # atno 17320 bound_to 7965
  146.2286  140.5700  142.8985 LP  0  0  0  0  0  0  0  0  0  0  0  0  # atno 17321 bound_to 7965
  139.6114  144.1091  152.2302 LP  0  0  0  0  0  0  0  0  0  0  0  0  # atno 17342 bound_to 10162
  140.0506  144.5935  150.7339 LP  0  0  0  0  0  0  0  0  0  0  0  0  # atno 17343 bound_to 10162
  156.3470  130.7412  151.2366 LP  0  0  0  0  0  0  0  0  0  0  0  0  # atno 17370 bound_to 10713
  157.7478  131.0388  150.4518 LP  0  0  0  0  0  0  0  0  0  0  0  0  # atno 17371 bound_to 10713
  140.9715  134.1525  157.4572 LP  0  0  0  0  0  0  0  0  0  0  0  0  # atno 17394 bound_to 11000
  139.8780  134.9980  156.5877 LP  0  0  0  0  0  0  0  0  0  0  0  0  # atno 17395 bound_to 11000

$$$$
