AV-unprocessed.smi:2678|AV-procd|sdf|10367|dock3
  -GOLD-   2272014393D 1   1.00000     0.00000
 Structure written by MMmdl.
 46 47  0  0  0  0  0  0  0  0  1 V2000
  151.5674  139.8388  158.7355 C   0  0  0  0  0  0  0  0  0  0  0  0
  151.4902  140.8463  157.5772 C   0  0  0  0  0  0  0  0  0  0  0  0
  151.5857  142.2931  158.0787 C   0  0  0  0  0  0  0  0  0  0  0  0
  150.2472  140.6738  156.8310 N   0  0  0  0  0  0  0  0  0  0  0  0
  150.1555  140.3414  155.5335 C   0  0  0  0  0  0  0  0  0  0  0  0
  151.1358  140.1386  154.8162 O   0  0  0  0  0  0  0  0  0  0  0  0
  148.7376  140.2160  154.9602 C   0  0  1  0  0  0  0  0  0  0  0  0
  148.4071  141.4010  154.0285 C   0  0  0  0  0  0  0  0  0  0  0  0
  146.9932  141.2701  153.4398 C   0  0  0  0  0  0  0  0  0  0  0  0
  146.8142  139.9296  152.7097 C   0  0  0  0  0  0  0  0  0  0  0  0
  147.1381  138.7405  153.6327 C   0  0  1  0  0  0  0  0  0  0  0  0
  146.9947  137.4890  152.8855 N   0  0  0  0  0  0  0  0  0  0  0  0
  145.8885  136.7442  152.7031 C   0  0  0  0  0  0  0  0  0  0  0  0
  144.8153  137.0686  153.2063 O   0  0  0  0  0  0  0  0  0  0  0  0
  146.0838  135.6373  151.9595 N   0  0  0  0  0  0  0  0  0  0  0  0
  145.1347  134.6688  151.5354 C   0  0  0  0  0  0  0  0  0  0  0  0
  143.8751  134.4635  152.1486 C   0  0  0  0  0  0  0  0  0  0  0  0
  143.0134  133.4838  151.6189 C   0  0  0  0  0  0  0  0  0  0  0  0
  143.4381  132.7510  150.4936 C   0  0  0  0  0  0  0  0  0  0  0  0
  144.6299  132.9454  149.8910 N   0  0  0  0  0  0  0  0  0  0  0  0
  145.4504  133.8873  150.4037 C   0  0  0  0  0  0  0  0  0  0  0  0
  148.5635  138.8796  154.2087 C   0  0  0  0  0  0  0  0  0  0  0  0
  152.4943  139.9595  159.2970 H   0  0  0  0  0  0  0  0  0  0  0  0
  151.5380  138.8115  158.3711 H   0  0  0  0  0  0  0  0  0  0  0  0
  150.7378  139.9693  159.4315 H   0  0  0  0  0  0  0  0  0  0  0  0
  152.3338  140.6715  156.9069 H   0  0  0  0  0  0  0  0  0  0  0  0
  152.5220  142.4615  158.6115 H   0  0  0  0  0  0  0  0  0  0  0  0
  150.7681  142.5340  158.7590 H   0  0  0  0  0  0  0  0  0  0  0  0
  151.5483  142.9999  157.2490 H   0  0  0  0  0  0  0  0  0  0  0  0
  149.3885  140.8200  157.3416 H   0  0  0  0  0  0  0  0  0  0  0  0
  148.0303  140.2311  155.7915 H   0  0  0  0  0  0  0  0  0  0  0  0
  148.4884  142.3422  154.5743 H   0  0  0  0  0  0  0  0  0  0  0  0
  149.1306  141.4541  153.2132 H   0  0  0  0  0  0  0  0  0  0  0  0
  146.2554  141.3527  154.2387 H   0  0  0  0  0  0  0  0  0  0  0  0
  146.7992  142.0949  152.7535 H   0  0  0  0  0  0  0  0  0  0  0  0
  145.7918  139.8489  152.3387 H   0  0  0  0  0  0  0  0  0  0  0  0
  147.4638  139.9067  151.8333 H   0  0  0  0  0  0  0  0  0  0  0  0
  146.4172  138.7546  154.4521 H   0  0  0  0  0  0  0  0  0  0  0  0
  147.8408  137.1386  152.4599 H   0  0  0  0  0  0  0  0  0  0  0  0
  147.0391  135.4513  151.6913 H   0  0  0  0  0  0  0  0  0  0  0  0
  143.5470  135.0423  152.9979 H   0  0  0  0  0  0  0  0  0  0  0  0
  142.0461  133.3017  152.0636 H   0  0  0  0  0  0  0  0  0  0  0  0
  142.8010  131.9933  150.0620 H   0  0  0  0  0  0  0  0  0  0  0  0
  146.3937  134.0183  149.8935 H   0  0  0  0  0  0  0  0  0  0  0  0
  149.2905  138.8097  153.3974 H   0  0  0  0  0  0  0  0  0  0  0  0
  148.7787  138.0503  154.8837 H   0  0  0  0  0  0  0  0  0  0  0  0
  1  2  1  0  0  0  0
  1 23  1  0  0  0  0
  1 24  1  0  0  0  0
  1 25  1  0  0  0  0
  2  3  1  0  0  0  0
  2  4  1  0  0  0  0
  2 26  1  0  0  0  0
  3 27  1  0  0  0  0
  3 28  1  0  0  0  0
  3 29  1  0  0  0  0
  4  5  1  0  0  0  0
  4 30  1  0  0  0  0
  5  6  2  0  0  0  0
  5  7  1  0  0  0  0
  7 22  1  0  0  0  0
  7  8  1  0  0  0  0
  7 31  1  0  0  0  0
  8  9  1  0  0  0  0
  8 32  1  0  0  0  0
  8 33  1  0  0  0  0
  9 10  1  0  0  0  0
  9 34  1  0  0  0  0
  9 35  1  0  0  0  0
 10 11  1  0  0  0  0
 10 36  1  0  0  0  0
 10 37  1  0  0  0  0
 11 12  1  0  0  0  0
 11 22  1  0  0  0  0
 11 38  1  0  0  0  0
 12 13  1  0  0  0  0
 12 39  1  0  0  0  0
 13 14  2  0  0  0  0
 13 15  1  0  0  0  0
 15 16  1  0  0  0  0
 15 40  1  0  0  0  0
 16 21  1  0  0  0  0
 16 17  2  0  0  0  0
 17 18  1  0  0  0  0
 17 41  1  0  0  0  0
 18 19  2  0  0  0  0
 18 42  1  0  0  0  0
 19 20  1  0  0  0  0
 19 43  1  0  0  0  0
 20 21  2  0  0  0  0
 21 44  1  0  0  0  0
 22 45  1  0  0  0  0
 22 46  1  0  0  0  0
M  END
> <s_m_source_file>
AV-unprocessed.smi

> <i_m_source_file_index>
2678

> <i_lp_mmshare_version>
43012

> <i_f3d_flags>
0

> <s_epik_input>
W0NIM11bQ0hdKFtDSDNdKVtOSF1DKD1PKVtDQEBIXTFbQ0gyXVtDSDJdW0NIMl1bQ0BIXShbQ0gyXTEpW05IXUMoPU8pW05IXWMyW2NIXVtjSF1bY0hdbltjSF0y

> <s_epik_cmdline>
J2VwaWtfcHl0aG9uJywgJy1waCcsICc3LjAnLCAnLXRuJywgJzgnLCAnLW1hJywgJzIwMCcsICctbWV0YWxfYmluZGluZycsICctaW1hZScsICc8aW5maWxlLm1hZT4nLCAnLW9tYWUnLCAnPG91dGZpbGUubWFlPic=

> <r_epik_Ionization_Penalty>
0.00482944

> <r_epik_Ionization_Penalty_Charging>
0

> <r_epik_Ionization_Penalty_Neutral>
0.00482944

> <r_epik_State_Penalty>
0.00347168

> <r_epik_Charging_Adjusted_Penalty>
0.00347168

> <i_epik_Tot_Q>
0

> <i_epik_Tot_abs_Q>
0

> <r_epik_Metal_State_Penalty>
-0

> <b_epik_Metal_Only>
0

> <s_lp_Force_Field>
OPLS_2005

> <r_lp_Energy>
23.8457

> <b_lp_Chiralities_Consistent>
1

> <s_lp_Variant>
AV-unprocessed.smi:2678-2

> <Gold.Version>
5.8.1

> <Gold.Id.Protein>
6NUR|6NUR_protein|mol2

> <Gold.PLP.Fitness>
45.7414

> <Gold.PLP.PLP>
-35.1879

> <Gold.PLP.part.hbond>
-2.9336

> <Gold.PLP.part.metal>
0.0000

> <Gold.PLP.part.buried>
-2.5283

> <Gold.PLP.part.nonpolar>
-30.0575

> <Gold.PLP.part.repulsive>
0.4814

> <Gold.PLP.ligand.clash>
0.0000

> <Gold.PLP.ligand.torsion>
0.7086

> <Gold.PLP.Chemscore.Hbond>
2.8480

> <Gold.PLP.Chemscore.CHOScore>
1.1355

> <Gold.PLP.Chemscore.Metal>
0.0000

> <Gold.Chemscore.Hbonds>
donor molecule, donor type, donor heavy atom, donor atom, acceptor molecule, acceptor atom, score
      L1  H    12    39       P1  7948  1.00
      L1  H    15    40       P1  7948  0.86
      P1  H  7989  7998       L1     6  1.00
      L1  C    19    43       P1 10952  0.78
      L1  C    21    44       P1  7921  0.39

> <Gold.PLP.Chemscore.Internal.Correction>
0.0202

> <Gold.Rescore>
     Score         DG    S(hbond)    S(metal)    S(lipo)     H(rot)  DE(clash)    DE(int)     intcor
     19.80     -21.61       2.87        0.00      88.02       1.46       0.03       1.79       ----

> <Gold.Chemscore.Fitness>
19.7959

> <Gold.Chemscore.DG>
-21.6093

> <Gold.Chemscore.ZeroCoef>
-5.4800

> <Gold.Chemscore.Hbond>
2.8651

> <Gold.Chemscore.Metal>
0.0000

> <Gold.Chemscore.Lipo>
88.0181

> <Gold.Chemscore.Internal_Hbond>
0.0000

> <Gold.Chemscore.DEClash>
0.0262

> <Gold.Chemscore.DEInternal>
1.7872

> <Gold.Chemscore.Rot>
1.4603

> <Gold.Chemscore.Internal.Correction>
   9.000000E+99

> <Gold.Chemscore.Hbonds>
donor molecule, donor type, donor heavy atom, donor atom, acceptor molecule, acceptor atom, score
      L1  H    12    39       P1  7948  0.94
      L1  H    15    40       P1  7948  0.78
      P1  H  7989  7998       L1     6  0.98

> <Gold.Chemscore.Hbond.Weighted>
-9.5695

> <Gold.Chemscore.Metal.Weighted>
-0.0000

> <Gold.Chemscore.Lipo.Weighted>
-10.2981

> <Gold.Chemscore.Internal_Hbond.Weighted>
0.0000

> <Gold.Chemscore.DEClash.Weighted>
0.0262

> <Gold.Chemscore.DEInternal.Weighted>
1.7872

> <Gold.Chemscore.Rot.Weighted>
3.7383

> <Gold.Chemscore.Internal.Correction.Weighted>
   9.000000E+99

> <Gold.Protein.RotatedTorsions>
[ 6907 6896 6895 6894 ] final  106.63 input  -60.11 | X-H torsion
[ 7974 7965 7964 7962 ] final  -28.03 input  175.53 | X-H torsion
[ 8008 7997 7996 7995 ] final  142.09 input   59.86 | X-H torsion
[ 10167 10162 10161 10158 ] final  130.85 input  -65.29 | X-H torsion
[ 10718 10713 10712 10709 ] final  112.95 input   66.30 | X-H torsion
[ 10763 10752 10751 10750 ] final  -95.54 input  -60.55 | X-H torsion
[ 11005 11000 10999 10996 ] final   58.11 input  -57.11 | X-H torsion

> <Gold.Protein.ActiveResidues>
 VAL166  LYS551  ARG553  GLY616  TRP617  ASP618  TYR619  PRO620  LYS621  CYS622 
 ASP623  PHE694  ASN695  SER759  ASP760  ASP761  ALA762  ILE779  LEU786  VAL792 
 PHE793  MET794  SER795  GLU796  ALA797  LYS798  CYS799  TRP800  GLU811  SER814 

> <Gold.Protein.RotatedAtoms>
  152.5186  133.9353  159.7599 H   0  0  0  0  0  0  0  0  0  0  0  0  # atno 6907 bound_to 6896
  150.9695  133.6351  159.2747 H   0  0  0  0  0  0  0  0  0  0  0  0  # atno 6908 bound_to 6896
  151.3568  135.0901  159.9474 H   0  0  0  0  0  0  0  0  0  0  0  0  # atno 6909 bound_to 6896
  146.1317  140.5229  142.8690 H   0  0  0  0  0  0  0  0  0  0  0  0  # atno 7974 bound_to 7965
  156.2955  140.2298  156.4670 H   0  0  0  0  0  0  0  0  0  0  0  0  # atno 8008 bound_to 7997
  154.7968  140.0451  157.1264 H   0  0  0  0  0  0  0  0  0  0  0  0  # atno 8009 bound_to 7997
  154.9580  140.3050  155.5047 H   0  0  0  0  0  0  0  0  0  0  0  0  # atno 8010 bound_to 7997
  139.5411  144.6731  151.4623 H   0  0  0  0  0  0  0  0  0  0  0  0  # atno 10167 bound_to 10162
  157.6365  131.0976  150.6969 H   0  0  0  0  0  0  0  0  0  0  0  0  # atno 10718 bound_to 10713
  154.7157  135.5117  153.8734 H   0  0  0  0  0  0  0  0  0  0  0  0  # atno 10763 bound_to 10752
  153.0818  135.6633  154.0038 H   0  0  0  0  0  0  0  0  0  0  0  0  # atno 10764 bound_to 10752
  153.9871  135.3023  155.3395 H   0  0  0  0  0  0  0  0  0  0  0  0  # atno 10765 bound_to 10752
  140.0402  134.5884  155.9391 H   0  0  0  0  0  0  0  0  0  0  0  0  # atno 11005 bound_to 11000
  144.7697  140.5610  143.6678 LP  0  0  0  0  0  0  0  0  0  0  0  0  # atno 17320 bound_to 7965
  145.5246  139.1476  143.3533 LP  0  0  0  0  0  0  0  0  0  0  0  0  # atno 17321 bound_to 7965
  140.6641  143.8437  150.6921 LP  0  0  0  0  0  0  0  0  0  0  0  0  # atno 17342 bound_to 10162
  140.1840  143.4091  152.1912 LP  0  0  0  0  0  0  0  0  0  0  0  0  # atno 17343 bound_to 10162
  156.7300  130.4707  149.5502 LP  0  0  0  0  0  0  0  0  0  0  0  0  # atno 17370 bound_to 10713
  156.1608  130.6373  151.0716 LP  0  0  0  0  0  0  0  0  0  0  0  0  # atno 17371 bound_to 10713
  141.1879  133.6561  156.5301 LP  0  0  0  0  0  0  0  0  0  0  0  0  # atno 17394 bound_to 11000
  140.4081  134.7296  157.4820 LP  0  0  0  0  0  0  0  0  0  0  0  0  # atno 17395 bound_to 11000

$$$$
