AV-unprocessed.smi:3349|AV-procd|sdf|12934|dock4
  -GOLD-   2272019363D 1   1.00000     0.00000
 Structure written by MMmdl.
 40 41  0  0  0  0  0  0  0  0  1 V2000
  145.2088  138.3054  154.7521 C   0  0  0  0  0  0  0  0  0  0  0  0
  146.3978  138.0312  153.7953 C   0  0  1  0  0  0  0  0  0  0  0  0
  145.8472  137.7879  152.3626 C   0  0  0  0  0  0  0  0  0  0  0  0
  146.2199  136.4816  151.8319 N   0  0  0  0  0  0  0  0  0  0  0  0
  145.3475  135.5367  151.4517 C   0  0  0  0  0  0  0  0  0  0  0  0
  144.1266  135.6929  151.4954 O   0  0  0  0  0  0  0  0  0  0  0  0
  145.9525  134.2187  150.9441 C   0  0  1  0  0  0  0  0  0  0  0  0
  146.8929  133.5628  151.9717 C   0  0  0  0  0  0  0  0  0  0  0  0
  144.8997  133.2973  150.5403 N   0  0  0  0  0  0  0  0  0  0  0  0
  144.5456  132.8438  149.3342 C   0  0  0  0  0  0  0  0  0  0  0  0
  143.5113  132.0149  149.3545 N   0  0  0  0  0  0  0  0  0  0  0  0
  143.2546  132.0040  150.6962 C   0  0  0  0  0  0  0  0  0  0  0  0
  144.0543  132.7577  151.4509 N   0  0  0  0  0  0  0  0  0  0  0  0
  147.4311  139.0920  153.8498 N   0  0  0  0  0  0  0  0  0  0  0  0
  148.2606  139.0187  155.0583 C   0  0  0  0  0  0  0  0  0  0  0  0
  149.3169  140.1356  155.1273 C   0  0  0  0  0  0  0  0  0  0  0  0
  148.6810  141.4036  155.0457 O   0  0  0  0  0  0  0  0  0  0  0  0
  147.9290  141.5464  153.8487 C   0  0  0  0  0  0  0  0  0  0  0  0
  146.8604  140.4421  153.7747 C   0  0  0  0  0  0  0  0  0  0  0  0
  144.4278  137.5494  154.6780 H   0  0  0  0  0  0  0  0  0  0  0  0
  144.7493  139.2716  154.5413 H   0  0  0  0  0  0  0  0  0  0  0  0
  145.5090  138.2957  155.7988 H   0  0  0  0  0  0  0  0  0  0  0  0
  146.8584  137.0971  154.1213 H   0  0  0  0  0  0  0  0  0  0  0  0
  144.7604  137.8882  152.3607 H   0  0  0  0  0  0  0  0  0  0  0  0
  146.2395  138.5180  151.6559 H   0  0  0  0  0  0  0  0  0  0  0  0
  147.2066  136.2793  151.7597 H   0  0  0  0  0  0  0  0  0  0  0  0
  146.5504  134.4558  150.0616 H   0  0  0  0  0  0  0  0  0  0  0  0
  147.6810  134.2497  152.2820 H   0  0  0  0  0  0  0  0  0  0  0  0
  147.3759  132.6820  151.5480 H   0  0  0  0  0  0  0  0  0  0  0  0
  146.3565  133.2449  152.8666 H   0  0  0  0  0  0  0  0  0  0  0  0
  145.0543  133.1267  148.4238 H   0  0  0  0  0  0  0  0  0  0  0  0
  142.4529  131.4247  151.1302 H   0  0  0  0  0  0  0  0  0  0  0  0
  147.6272  139.0637  155.9455 H   0  0  0  0  0  0  0  0  0  0  0  0
  148.7995  138.0744  155.1001 H   0  0  0  0  0  0  0  0  0  0  0  0
  149.8702  140.0756  156.0646 H   0  0  0  0  0  0  0  0  0  0  0  0
  150.0431  140.0307  154.3196 H   0  0  0  0  0  0  0  0  0  0  0  0
  147.4584  142.5296  153.8394 H   0  0  0  0  0  0  0  0  0  0  0  0
  148.5929  141.5007  152.9838 H   0  0  0  0  0  0  0  0  0  0  0  0
  146.3243  140.5820  152.8378 H   0  0  0  0  0  0  0  0  0  0  0  0
  146.1371  140.5836  154.5792 H   0  0  0  0  0  0  0  0  0  0  0  0
  1  2  1  0  0  0  0
  1 20  1  0  0  0  0
  1 21  1  0  0  0  0
  1 22  1  0  0  0  0
  2  3  1  0  0  0  0
  2 14  1  0  0  0  0
  2 23  1  0  0  0  0
  3  4  1  0  0  0  0
  3 24  1  0  0  0  0
  3 25  1  0  0  0  0
  4  5  1  0  0  0  0
  4 26  1  0  0  0  0
  5  6  2  0  0  0  0
  5  7  1  0  0  0  0
  7  8  1  0  0  0  0
  7  9  1  0  0  0  0
  7 27  1  0  0  0  0
  8 28  1  0  0  0  0
  8 29  1  0  0  0  0
  8 30  1  0  0  0  0
  9 13  1  0  0  0  0
  9 10  1  0  0  0  0
 10 11  2  0  0  0  0
 10 31  1  0  0  0  0
 11 12  1  0  0  0  0
 12 13  2  0  0  0  0
 12 32  1  0  0  0  0
 14 19  1  0  0  0  0
 14 15  1  0  0  0  0
 15 16  1  0  0  0  0
 15 33  1  0  0  0  0
 15 34  1  0  0  0  0
 16 17  1  0  0  0  0
 16 35  1  0  0  0  0
 16 36  1  0  0  0  0
 17 18  1  0  0  0  0
 18 19  1  0  0  0  0
 18 37  1  0  0  0  0
 18 38  1  0  0  0  0
 19 39  1  0  0  0  0
 19 40  1  0  0  0  0
M  END
> <s_m_source_file>
AV-unprocessed.smi

> <i_m_source_file_index>
3349

> <i_lp_mmshare_version>
43012

> <i_f3d_flags>
0

> <s_epik_input>
W0NIMl0xW0NIMl1PW0NIMl1bQ0gyXU4xW0NASF0oW0NIM10pW0NIMl1bTkhdQyg9TylbQ0BIXShbQ0gzXSluMltjSF1uW2NIXW4y

> <s_epik_cmdline>
J2VwaWtfcHl0aG9uJywgJy1waCcsICc3LjAnLCAnLXRuJywgJzgnLCAnLW1hJywgJzIwMCcsICctbWV0YWxfYmluZGluZycsICctaW1hZScsICc8aW5maWxlLm1hZT4nLCAnLW9tYWUnLCAnPG91dGZpbGUubWFlPic=

> <r_lp_tautomer_probability>
1

> <r_epik_Ionization_Penalty>
0.211373

> <r_epik_Ionization_Penalty_Charging>
0

> <r_epik_Ionization_Penalty_Neutral>
0.211373

> <r_epik_State_Penalty>
0.201459

> <r_epik_Charging_Adjusted_Penalty>
0.201459

> <i_epik_Tot_Q>
0

> <i_epik_Tot_abs_Q>
0

> <r_epik_Metal_State_Penalty>
0.201458

> <b_epik_Metal_Only>
0

> <s_lp_Force_Field>
OPLS_2005

> <r_lp_Energy>
35.0343

> <b_lp_Chiralities_Consistent>
1

> <s_lp_Variant>
AV-unprocessed.smi:3349-4

> <Gold.Version>
5.8.1

> <Gold.Id.Protein>
6NUR|6NUR_protein|mol2

> <Gold.PLP.Fitness>
36.1212

> <Gold.PLP.PLP>
-27.3837

> <Gold.PLP.part.hbond>
-2.0000

> <Gold.PLP.part.metal>
0.0000

> <Gold.PLP.part.buried>
-3.7296

> <Gold.PLP.part.nonpolar>
-23.3977

> <Gold.PLP.part.repulsive>
1.0200

> <Gold.PLP.ligand.clash>
0.0000

> <Gold.PLP.ligand.torsion>
1.0753

> <Gold.PLP.Chemscore.Hbond>
1.9440

> <Gold.PLP.Chemscore.CHOScore>
1.6535

> <Gold.PLP.Chemscore.Metal>
0.0000

> <Gold.Chemscore.Hbonds>
donor molecule, donor type, donor heavy atom, donor atom, acceptor molecule, acceptor atom, score
      L1  H     4    26       P1  7948  1.00
      P1  H 10785 10796       L1    11  0.98
      L1  C    10    31       P1  7921  1.00
      L1  C    12    32       P1 10952  0.40

> <Gold.PLP.Chemscore.Internal.Correction>
0.0956

> <Gold.Rescore>
     Score         DG    S(hbond)    S(metal)    S(lipo)     H(rot)  DE(clash)    DE(int)     intcor
      8.28     -10.74       1.91        0.00      46.48       2.56       0.02       2.43       ----

> <Gold.Chemscore.Fitness>
8.2848

> <Gold.Chemscore.DG>
-10.7432

> <Gold.Chemscore.ZeroCoef>
-5.4800

> <Gold.Chemscore.Hbond>
1.9075

> <Gold.Chemscore.Metal>
0.0000

> <Gold.Chemscore.Lipo>
46.4798

> <Gold.Chemscore.Internal_Hbond>
0.0000

> <Gold.Chemscore.DEClash>
0.0246

> <Gold.Chemscore.DEInternal>
2.4339

> <Gold.Chemscore.Rot>
2.5570

> <Gold.Chemscore.Internal.Correction>
   9.000000E+99

> <Gold.Chemscore.Hbonds>
donor molecule, donor type, donor heavy atom, donor atom, acceptor molecule, acceptor atom, score
      L1  H     4    26       P1  7948  1.00
      P1  H 10785 10796       L1    11  0.50

> <Gold.Chemscore.Hbond.Weighted>
-6.3709

> <Gold.Chemscore.Metal.Weighted>
-0.0000

> <Gold.Chemscore.Lipo.Weighted>
-5.4381

> <Gold.Chemscore.Internal_Hbond.Weighted>
0.0000

> <Gold.Chemscore.DEClash.Weighted>
0.0246

> <Gold.Chemscore.DEInternal.Weighted>
2.4339

> <Gold.Chemscore.Rot.Weighted>
6.5459

> <Gold.Chemscore.Internal.Correction.Weighted>
   9.000000E+99

> <Gold.Protein.RotatedTorsions>
[ 6907 6896 6895 6894 ] final -135.88 input  -60.11 | X-H torsion
[ 7974 7965 7964 7962 ] final   82.80 input  175.53 | X-H torsion
[ 8008 7997 7996 7995 ] final  -50.91 input   59.86 | X-H torsion
[ 10167 10162 10161 10158 ] final   37.41 input  -65.29 | X-H torsion
[ 10718 10713 10712 10709 ] final   62.22 input   66.30 | X-H torsion
[ 10763 10752 10751 10750 ] final  108.48 input  -60.55 | X-H torsion
[ 11005 11000 10999 10996 ] final   46.06 input  -57.11 | X-H torsion

> <Gold.Protein.ActiveResidues>
 VAL166  LYS551  ARG553  GLY616  TRP617  ASP618  TYR619  PRO620  LYS621  CYS622 
 ASP623  PHE694  ASN695  SER759  ASP760  ASP761  ALA762  ILE779  LEU786  VAL792 
 PHE793  MET794  SER795  GLU796  ALA797  LYS798  CYS799  TRP800  GLU811  SER814 

> <Gold.Protein.RotatedAtoms>
  151.0032  133.6036  159.2691 H   0  0  0  0  0  0  0  0  0  0  0  0  # atno 6907 bound_to 6896
  151.3214  135.0818  159.9317 H   0  0  0  0  0  0  0  0  0  0  0  0  # atno 6908 bound_to 6896
  152.5279  133.9679  159.7802 H   0  0  0  0  0  0  0  0  0  0  0  0  # atno 6909 bound_to 6896
  145.6203  139.2384  143.2142 H   0  0  0  0  0  0  0  0  0  0  0  0  # atno 7974 bound_to 7965
  154.4072  140.1260  156.4744 H   0  0  0  0  0  0  0  0  0  0  0  0  # atno 8008 bound_to 7997
  155.7147  140.3493  155.4970 H   0  0  0  0  0  0  0  0  0  0  0  0  # atno 8009 bound_to 7997
  155.9268  140.1062  157.1154 H   0  0  0  0  0  0  0  0  0  0  0  0  # atno 8010 bound_to 7997
  140.4035  144.1691  150.6135 H   0  0  0  0  0  0  0  0  0  0  0  0  # atno 10167 bound_to 10162
  157.5885  130.9038  149.9560 H   0  0  0  0  0  0  0  0  0  0  0  0  # atno 10718 bound_to 10713
  153.4212  135.3811  155.2112 H   0  0  0  0  0  0  0  0  0  0  0  0  # atno 10763 bound_to 10752
  154.8745  135.3817  154.4381 H   0  0  0  0  0  0  0  0  0  0  0  0  # atno 10764 bound_to 10752
  153.4902  135.7088  153.5951 H   0  0  0  0  0  0  0  0  0  0  0  0  # atno 10765 bound_to 10752
  140.1403  134.4591  155.8454 H   0  0  0  0  0  0  0  0  0  0  0  0  # atno 11005 bound_to 11000
  146.1436  140.7024  142.9355 LP  0  0  0  0  0  0  0  0  0  0  0  0  # atno 17320 bound_to 7965
  144.7233  140.4446  143.6991 LP  0  0  0  0  0  0  0  0  0  0  0  0  # atno 17321 bound_to 7965
  140.4714  143.2411  151.9083 LP  0  0  0  0  0  0  0  0  0  0  0  0  # atno 17342 bound_to 10162
  139.4784  144.5365  151.8590 LP  0  0  0  0  0  0  0  0  0  0  0  0  # atno 17343 bound_to 10162
  156.0936  130.3661  150.0347 LP  0  0  0  0  0  0  0  0  0  0  0  0  # atno 17370 bound_to 10713
  156.8475  130.9447  151.3628 LP  0  0  0  0  0  0  0  0  0  0  0  0  # atno 17371 bound_to 10713
  141.2185  133.6831  156.7235 LP  0  0  0  0  0  0  0  0  0  0  0  0  # atno 17394 bound_to 11000
  140.2730  134.8377  157.3864 LP  0  0  0  0  0  0  0  0  0  0  0  0  # atno 17395 bound_to 11000

$$$$
