AV-unprocessed.smi:290|AV-procd|sdf|2237|dock3
  -GOLD-   2262022103D 1   1.00000     0.00000
 Structure written by MMmdl.
 59 62  0  0  0  0  0  0  0  0  2 V2000
  150.8817  136.1403  154.6646 C   0  0  0  0  0  0  0  0  0  0  0  0
  151.2741  137.5073  154.0804 C   0  0  2  0  0  0  0  0  0  0  0  0
  152.5073  137.4141  153.3682 O   0  0  0  0  0  0  0  0  0  0  0  0
  153.4602  138.3079  153.9249 C   0  0  0  0  0  0  0  0  0  0  0  0
  152.6179  139.4282  154.5201 C   0  0  0  0  0  0  0  0  0  0  0  0
  151.4217  138.6749  155.0856 C   0  0  2  0  0  0  0  0  0  0  0  0
  151.7704  138.1921  156.3734 O   0  0  0  0  0  0  0  0  0  0  0  0
  150.1407  139.5336  155.2121 C   0  0  0  0  0  0  0  0  0  0  0  0
  148.9735  138.9252  154.5918 N   0  0  0  0  0  0  0  0  0  0  0  0
  148.4031  139.2746  153.3883 C   0  0  0  0  0  0  0  0  0  0  0  0
  147.3516  138.5801  153.0477 N   0  0  0  0  0  0  0  0  0  0  0  0
  147.1886  137.6785  154.0924 C   0  0  0  0  0  0  0  0  0  0  0  0
  146.2549  136.6427  154.3785 C   0  0  0  0  0  0  0  0  0  0  0  0
  145.2158  136.2968  153.5885 N   0  0  0  0  0  0  0  0  0  0  0  0
  145.4388  136.4235  152.1517 C   0  0  0  0  0  0  0  0  0  0  0  0
  144.7494  135.2209  151.5051 C   0  0  0  0  0  0  0  0  0  0  0  0
  144.8211  134.1596  152.6077 C   0  0  2  0  0  0  0  0  0  0  0  0
  143.9054  132.9915  152.4463 N   0  3  1  0  0  0  0  0  0  0  0  0
  142.5851  133.3716  151.8816 C   0  0  0  0  0  0  0  0  0  0  0  0
  144.5387  131.8795  151.6838 C   0  0  0  0  0  0  0  0  0  0  0  0
  145.9159  131.4679  152.2366 C   0  0  0  0  0  0  0  0  0  0  0  0
  146.4147  130.3504  151.5336 O   0  0  0  0  0  0  0  0  0  0  0  0
  144.5889  135.0099  153.8784 C   0  0  2  0  0  0  0  0  0  0  0  0
  143.1068  135.2351  154.2337 C   0  0  0  0  0  0  0  0  0  0  0  0
  146.4131  135.9414  155.5266 N   0  0  0  0  0  0  0  0  0  0  0  0
  147.4210  136.2342  156.3545 C   0  0  0  0  0  0  0  0  0  0  0  0
  148.3628  137.1716  156.2245 N   0  0  0  0  0  0  0  0  0  0  0  0
  148.2056  137.8770  155.0680 C   0  0  0  0  0  0  0  0  0  0  0  0
  145.8419  133.7752  152.6235 H   0  0  0  0  0  0  0  0  0  0  0  0
  145.0756  134.5350  154.7322 H   0  0  0  0  0  0  0  0  0  0  0  0
  149.9448  136.2056  155.2186 H   0  0  0  0  0  0  0  0  0  0  0  0
  151.6476  135.7551  155.3384 H   0  0  0  0  0  0  0  0  0  0  0  0
  150.7473  135.4055  153.8708 H   0  0  0  0  0  0  0  0  0  0  0  0
  150.5290  137.7789  153.3316 H   0  0  0  0  0  0  0  0  0  0  0  0
  154.0223  137.7916  154.7044 H   0  0  0  0  0  0  0  0  0  0  0  0
  154.1652  138.6625  153.1728 H   0  0  0  0  0  0  0  0  0  0  0  0
  153.1557  140.0219  155.2605 H   0  0  0  0  0  0  0  0  0  0  0  0
  152.2982  140.0986  153.7210 H   0  0  0  0  0  0  0  0  0  0  0  0
  152.5992  137.7423  156.3121 H   0  0  0  0  0  0  0  0  0  0  0  0
  149.9068  139.7066  156.2633 H   0  0  0  0  0  0  0  0  0  0  0  0
  150.2980  140.5181  154.7692 H   0  0  0  0  0  0  0  0  0  0  0  0
  148.7912  140.0705  152.7694 H   0  0  0  0  0  0  0  0  0  0  0  0
  145.0276  137.3625  151.7802 H   0  0  0  0  0  0  0  0  0  0  0  0
  146.5044  136.4165  151.9182 H   0  0  0  0  0  0  0  0  0  0  0  0
  143.7117  135.4670  151.2754 H   0  0  0  0  0  0  0  0  0  0  0  0
  145.2410  134.9183  150.5800 H   0  0  0  0  0  0  0  0  0  0  0  0
  142.7002  133.8285  150.8979 H   0  0  0  0  0  0  0  0  0  0  0  0
  142.0628  134.0771  152.5270 H   0  0  0  0  0  0  0  0  0  0  0  0
  141.9242  132.5129  151.7787 H   0  0  0  0  0  0  0  0  0  0  0  0
  143.8666  131.0201  151.6791 H   0  0  0  0  0  0  0  0  0  0  0  0
  144.6703  132.1597  150.6390 H   0  0  0  0  0  0  0  0  0  0  0  0
  146.6421  132.2786  152.2003 H   0  0  0  0  0  0  0  0  0  0  0  0
  145.8175  131.1890  153.2860 H   0  0  0  0  0  0  0  0  0  0  0  0
  147.2305  130.5926  151.1212 H   0  0  0  0  0  0  0  0  0  0  0  0
  142.6127  134.3049  154.5095 H   0  0  0  0  0  0  0  0  0  0  0  0
  142.5521  135.6757  153.4047 H   0  0  0  0  0  0  0  0  0  0  0  0
  143.0134  135.9096  155.0854 H   0  0  0  0  0  0  0  0  0  0  0  0
  147.4807  135.6333  157.2500 H   0  0  0  0  0  0  0  0  0  0  0  0
  143.7332  132.6385  153.3774 H   0  0  0  0  0  0  0  0  0  0  0  0
  1  2  1  0  0  0  0
  1 31  1  0  0  0  0
  1 32  1  0  0  0  0
  1 33  1  0  0  0  0
  2  6  1  0  0  0  0
  2  3  1  0  0  0  0
  2 34  1  0  0  0  0
  3  4  1  0  0  0  0
  4  5  1  0  0  0  0
  4 35  1  0  0  0  0
  4 36  1  0  0  0  0
  5  6  1  0  0  0  0
  5 37  1  0  0  0  0
  5 38  1  0  0  0  0
  6  7  1  0  0  0  0
  6  8  1  0  0  0  0
  7 39  1  0  0  0  0
  8  9  1  0  0  0  0
  8 40  1  0  0  0  0
  8 41  1  0  0  0  0
  9 28  1  0  0  0  0
  9 10  1  0  0  0  0
 10 11  2  0  0  0  0
 10 42  1  0  0  0  0
 11 12  1  0  0  0  0
 12 28  2  0  0  0  0
 12 13  1  0  0  0  0
 13 14  1  0  0  0  0
 13 25  2  0  0  0  0
 14 23  1  0  0  0  0
 14 15  1  0  0  0  0
 15 16  1  0  0  0  0
 15 43  1  0  0  0  0
 15 44  1  0  0  0  0
 16 17  1  0  0  0  0
 16 45  1  0  0  0  0
 16 46  1  0  0  0  0
 17 29  1  0  0  0  0
 17 18  1  0  0  0  0
 17 23  1  0  0  0  0
 18 19  1  0  0  0  0
 18 20  1  0  0  0  0
 18 59  1  0  0  0  0
 19 47  1  0  0  0  0
 19 48  1  0  0  0  0
 19 49  1  0  0  0  0
 20 21  1  0  0  0  0
 20 50  1  0  0  0  0
 20 51  1  0  0  0  0
 21 22  1  0  0  0  0
 21 52  1  0  0  0  0
 21 53  1  0  0  0  0
 22 54  1  0  0  0  0
 23 30  1  0  0  0  0
 23 24  1  0  0  0  0
 24 55  1  0  0  0  0
 24 56  1  0  0  0  0
 24 57  1  0  0  0  0
 25 26  1  0  0  0  0
 26 27  2  0  0  0  0
 26 58  1  0  0  0  0
 27 28  1  0  0  0  0
M  CHG  1  18   1
M  END
> <s_m_source_file>
AV-unprocessed.smi

> <i_m_source_file_index>
290

> <i_lp_mmshare_version>
43012

> <i_f3d_flags>
0

> <s_epik_input>
W0NIMl0xW0NIMl1PW0NAQEhdKFtDSDNdKVtDQEBdMShbT0hdKVtDSDJdbihbY0hdbjIpYyhjMjMpbltjSF1uYzNONFtDSDJdW0NIMl1bQ0BIXShbQ0BIXTRbQ0gzXSlOKFtDSDNdKVtDSDJdW0NIMl1bT0hd

> <s_epik_cmdline>
J2VwaWtfcHl0aG9uJywgJy1waCcsICc3LjAnLCAnLXRuJywgJzgnLCAnLW1hJywgJzIwMCcsICctbWV0YWxfYmluZGluZycsICctaW1hZScsICc8aW5maWxlLm1hZT4nLCAnLW9tYWUnLCAnPG91dGZpbGUubWFlPic=

> <r_lp_tautomer_probability>
1

> <r_epik_Ionization_Penalty>
0.0036983

> <r_epik_Ionization_Penalty_Charging>
0.0032725

> <r_epik_Ionization_Penalty_Neutral>
0.000425798

> <r_epik_State_Penalty>
-0

> <r_epik_Charging_Adjusted_Penalty>
0.0032725

> <i_epik_Tot_Q>
1

> <i_epik_Tot_abs_Q>
1

> <r_epik_Metal_State_Penalty>
-0

> <b_epik_Metal_Only>
0

> <s_lp_Force_Field>
OPLS_2005

> <r_lp_Energy>
65.7953

> <b_lp_Chiralities_Consistent>
1

> <s_lp_Variant>
AV-unprocessed.smi:290-23

> <Gold.Version>
5.8.1

> <Gold.Id.Protein>
6NUR|6NUR_protein|mol2

> <Gold.PLP.Fitness>
40.3170

> <Gold.PLP.PLP>
-30.5646

> <Gold.PLP.part.hbond>
-3.0000

> <Gold.PLP.part.metal>
0.0000

> <Gold.PLP.part.buried>
-2.5082

> <Gold.PLP.part.nonpolar>
-27.1628

> <Gold.PLP.part.repulsive>
0.4646

> <Gold.PLP.ligand.clash>
0.0000

> <Gold.PLP.ligand.torsion>
2.4172

> <Gold.PLP.Chemscore.Hbond>
3.7985

> <Gold.PLP.Chemscore.CHOScore>
0.9407

> <Gold.PLP.Chemscore.Metal>
0.0000

> <Gold.Chemscore.Hbonds>
donor molecule, donor type, donor heavy atom, donor atom, acceptor molecule, acceptor atom, score
      L1  H    18    59       P1 10957  2.00
      L1  H    22    54       P1 10747  1.00
      P1  H 10752 10765       L1     3  0.60
      L1  C    10    42       P1  7957  0.43

> <Gold.PLP.Chemscore.Internal.Correction>
0.3692

> <Gold.Rescore>
     Score         DG    S(hbond)    S(metal)    S(lipo)     H(rot)  DE(clash)    DE(int)     intcor
      7.62     -12.20       2.08        0.00      78.21       3.67       0.47       4.12       ----

> <Gold.Chemscore.Fitness>
7.6175

> <Gold.Chemscore.DG>
-12.2041

> <Gold.Chemscore.ZeroCoef>
-5.4800

> <Gold.Chemscore.Hbond>
2.0833

> <Gold.Chemscore.Metal>
0.0000

> <Gold.Chemscore.Lipo>
78.2087

> <Gold.Chemscore.Internal_Hbond>
0.0000

> <Gold.Chemscore.DEClash>
0.4686

> <Gold.Chemscore.DEInternal>
4.1181

> <Gold.Chemscore.Rot>
3.6658

> <Gold.Chemscore.Internal.Correction>
   9.000000E+99

> <Gold.Chemscore.Hbonds>
donor molecule, donor type, donor heavy atom, donor atom, acceptor molecule, acceptor atom, score
      L1  H    18    59       P1 10957  0.38
      L1  H    22    54       P1 10747  0.99
      P1  H 10752 10765       L1     3  0.03

> <Gold.Chemscore.Hbond.Weighted>
-6.9581

> <Gold.Chemscore.Metal.Weighted>
-0.0000

> <Gold.Chemscore.Lipo.Weighted>
-9.1504

> <Gold.Chemscore.Internal_Hbond.Weighted>
0.0000

> <Gold.Chemscore.DEClash.Weighted>
0.4686

> <Gold.Chemscore.DEInternal.Weighted>
4.1181

> <Gold.Chemscore.Rot.Weighted>
9.3844

> <Gold.Chemscore.Internal.Correction.Weighted>
   9.000000E+99

> <Gold.Protein.RotatedTorsions>
[ 6907 6896 6895 6894 ] final -126.45 input  -60.11 | X-H torsion
[ 7974 7965 7964 7962 ] final  -33.11 input  175.53 | X-H torsion
[ 8008 7997 7996 7995 ] final -129.85 input   59.86 | X-H torsion
[ 10167 10162 10161 10158 ] final   58.91 input  -65.29 | X-H torsion
[ 10718 10713 10712 10709 ] final   75.61 input   66.30 | X-H torsion
[ 10763 10752 10751 10750 ] final  151.84 input  -60.55 | X-H torsion
[ 11005 11000 10999 10996 ] final  116.07 input  -57.11 | X-H torsion

> <Gold.Protein.ActiveResidues>
 VAL166  LYS551  ARG553  GLY616  TRP617  ASP618  TYR619  PRO620  LYS621  CYS622 
 ASP623  PHE694  ASN695  SER759  ASP760  ASP761  ALA762  ILE779  LEU786  VAL792 
 PHE793  MET794  SER795  GLU796  ALA797  LYS798  CYS799  TRP800  GLU811  SER814 

> <Gold.Protein.RotatedAtoms>
  150.8970  133.7168  159.2888 H   0  0  0  0  0  0  0  0  0  0  0  0  # atno 6907 bound_to 6896
  151.4699  135.1043  159.9758 H   0  0  0  0  0  0  0  0  0  0  0  0  # atno 6908 bound_to 6896
  152.4854  133.8313  159.7160 H   0  0  0  0  0  0  0  0  0  0  0  0  # atno 6909 bound_to 6896
  146.0937  140.5876  142.8853 H   0  0  0  0  0  0  0  0  0  0  0  0  # atno 7974 bound_to 7965
  155.2860  140.0446  157.3019 H   0  0  0  0  0  0  0  0  0  0  0  0  # atno 8008 bound_to 7997
  154.5569  140.2334  155.8364 H   0  0  0  0  0  0  0  0  0  0  0  0  # atno 8009 bound_to 7997
  156.2014  140.3024  155.9543 H   0  0  0  0  0  0  0  0  0  0  0  0  # atno 8010 bound_to 7997
  140.1821  144.4171  150.6610 H   0  0  0  0  0  0  0  0  0  0  0  0  # atno 10167 bound_to 10162
  157.6641  130.9735  150.1378 H   0  0  0  0  0  0  0  0  0  0  0  0  # atno 10718 bound_to 10713
  154.1103  135.2839  155.3232 H   0  0  0  0  0  0  0  0  0  0  0  0  # atno 10763 bound_to 10752
  154.6494  135.5374  153.7887 H   0  0  0  0  0  0  0  0  0  0  0  0  # atno 10764 bound_to 10752
  153.0347  135.6506  154.1262 H   0  0  0  0  0  0  0  0  0  0  0  0  # atno 10765 bound_to 10752
  139.9029  134.9593  156.7141 H   0  0  0  0  0  0  0  0  0  0  0  0  # atno 11005 bound_to 11000
  144.7379  140.4860  143.6890 LP  0  0  0  0  0  0  0  0  0  0  0  0  # atno 17320 bound_to 7965
  145.5990  139.1502  143.3139 LP  0  0  0  0  0  0  0  0  0  0  0  0  # atno 17321 bound_to 7965
  140.6512  143.2225  151.6072 LP  0  0  0  0  0  0  0  0  0  0  0  0  # atno 17342 bound_to 10162
  139.5291  144.2968  152.1106 LP  0  0  0  0  0  0  0  0  0  0  0  0  # atno 17343 bound_to 10162
  156.2208  130.3674  149.8558 LP  0  0  0  0  0  0  0  0  0  0  0  0  # atno 17370 bound_to 10713
  156.6411  130.8705  151.3514 LP  0  0  0  0  0  0  0  0  0  0  0  0  # atno 17371 bound_to 10713
  140.7052  133.9271  155.8049 LP  0  0  0  0  0  0  0  0  0  0  0  0  # atno 17394 bound_to 11000
  141.0342  134.0713  157.3979 LP  0  0  0  0  0  0  0  0  0  0  0  0  # atno 17395 bound_to 11000

$$$$
