AV-unprocessed.smi:1174|AV-procd|sdf|4946|dock9
  -GOLD-   22720 3533D 1   1.00000     0.00000
 Structure written by MMmdl.
 41 42  0  0  0  0  0  0  0  0  1 V2000
  150.2175  144.0954  159.3372 C   0  0  0  0  0  0  0  0  0  0  0  0
  150.9303  142.7746  159.0131 C   0  0  2  0  0  0  0  0  0  0  0  0
  152.4627  142.9071  159.1150 C   0  0  0  0  0  0  0  0  0  0  0  0
  152.9597  142.5255  160.4267 N   0  0  0  0  0  0  0  0  0  0  0  0
  152.6315  143.0575  161.6558 C   0  0  0  0  0  0  0  0  0  0  0  0
  153.3293  142.3601  162.6001 C   0  0  0  0  0  0  0  0  0  0  0  0
  154.0657  141.4074  161.8417 C   0  0  0  0  0  0  0  0  0  0  0  0
  153.8458  141.5116  160.5411 N   0  0  0  0  0  0  0  0  0  0  0  0
  150.5638  142.3247  157.6731 N   0  0  0  0  0  0  0  0  0  0  0  0
  149.3841  141.7935  157.3216 C   0  0  0  0  0  0  0  0  0  0  0  0
  148.4125  141.7379  158.0761 O   0  0  0  0  0  0  0  0  0  0  0  0
  149.3065  141.2042  155.9086 C   0  0  2  0  0  0  0  0  0  0  0  0
  148.2126  141.8882  155.0572 C   0  0  0  0  0  0  0  0  0  0  0  0
  148.0525  141.2013  153.6870 C   0  0  0  0  0  0  0  0  0  0  0  0
  147.8797  139.6792  153.8471 C   0  0  0  0  0  0  0  0  0  0  0  0
  149.0242  139.1464  154.6064 N   0  0  0  0  0  0  0  0  0  0  0  0
  150.0573  138.4252  154.1027 C   0  0  0  0  0  0  0  0  0  0  0  0
  150.1839  138.4632  152.7727 N   0  0  0  0  0  0  0  0  0  0  0  0
  150.8170  137.7450  154.7909 O   0  0  0  0  0  0  0  0  0  0  0  0
  149.0511  139.6824  155.9724 C   0  0  0  0  0  0  0  0  0  0  0  0
  150.4690  144.4389  160.3410 H   0  0  0  0  0  0  0  0  0  0  0  0
  149.1340  143.9793  159.2928 H   0  0  0  0  0  0  0  0  0  0  0  0
  150.4980  144.8815  158.6352 H   0  0  0  0  0  0  0  0  0  0  0  0
  150.6121  142.0301  159.7455 H   0  0  0  0  0  0  0  0  0  0  0  0
  152.9537  142.2964  158.3551 H   0  0  0  0  0  0  0  0  0  0  0  0
  152.7633  143.9386  158.9277 H   0  0  0  0  0  0  0  0  0  0  0  0
  151.9326  143.8749  161.7547 H   0  0  0  0  0  0  0  0  0  0  0  0
  153.3135  142.5053  163.6701 H   0  0  0  0  0  0  0  0  0  0  0  0
  154.7489  140.6492  162.1949 H   0  0  0  0  0  0  0  0  0  0  0  0
  151.2998  142.3262  156.9816 H   0  0  0  0  0  0  0  0  0  0  0  0
  150.2681  141.3664  155.4169 H   0  0  0  0  0  0  0  0  0  0  0  0
  147.2559  141.8513  155.5804 H   0  0  0  0  0  0  0  0  0  0  0  0
  148.4467  142.9442  154.9164 H   0  0  0  0  0  0  0  0  0  0  0  0
  147.1986  141.6230  153.1563 H   0  0  0  0  0  0  0  0  0  0  0  0
  148.9304  141.4043  153.0723 H   0  0  0  0  0  0  0  0  0  0  0  0
  146.9595  139.4663  154.3929 H   0  0  0  0  0  0  0  0  0  0  0  0
  147.7468  139.2197  152.8679 H   0  0  0  0  0  0  0  0  0  0  0  0
  150.9302  137.9536  152.3231 H   0  0  0  0  0  0  0  0  0  0  0  0
  149.5317  139.0048  152.2244 H   0  0  0  0  0  0  0  0  0  0  0  0
  149.8052  139.1955  156.5940 H   0  0  0  0  0  0  0  0  0  0  0  0
  148.0954  139.4733  156.4560 H   0  0  0  0  0  0  0  0  0  0  0  0
  1  2  1  0  0  0  0
  1 21  1  0  0  0  0
  1 22  1  0  0  0  0
  1 23  1  0  0  0  0
  2  3  1  0  0  0  0
  2  9  1  0  0  0  0
  2 24  1  0  0  0  0
  3  4  1  0  0  0  0
  3 25  1  0  0  0  0
  3 26  1  0  0  0  0
  4  8  1  0  0  0  0
  4  5  1  0  0  0  0
  5  6  2  0  0  0  0
  5 27  1  0  0  0  0
  6  7  1  0  0  0  0
  6 28  1  0  0  0  0
  7  8  2  0  0  0  0
  7 29  1  0  0  0  0
  9 10  1  0  0  0  0
  9 30  1  0  0  0  0
 10 11  2  0  0  0  0
 10 12  1  0  0  0  0
 12 20  1  0  0  0  0
 12 13  1  0  0  0  0
 12 31  1  0  0  0  0
 13 14  1  0  0  0  0
 13 32  1  0  0  0  0
 13 33  1  0  0  0  0
 14 15  1  0  0  0  0
 14 34  1  0  0  0  0
 14 35  1  0  0  0  0
 15 16  1  0  0  0  0
 15 36  1  0  0  0  0
 15 37  1  0  0  0  0
 16 17  1  0  0  0  0
 16 20  1  0  0  0  0
 17 18  1  0  0  0  0
 17 19  2  0  0  0  0
 18 38  1  0  0  0  0
 18 39  1  0  0  0  0
 20 40  1  0  0  0  0
 20 41  1  0  0  0  0
M  END
> <s_m_source_file>
AV-unprocessed.smi

> <i_m_source_file_index>
1174

> <i_lp_mmshare_version>
43012

> <i_f3d_flags>
0

> <s_epik_input>
bjFbY0hdW2NIXVtjSF1uMVtDSDJdW0NAQEhdKFtDSDNdKVtOSF1DKD1PKVtDQEBIXTJbQ0gyXVtDSDJdW0NIMl1OKFtDSDJdMilDKD1PKVtOSDJd

> <s_epik_cmdline>
J2VwaWtfcHl0aG9uJywgJy1waCcsICc3LjAnLCAnLXRuJywgJzgnLCAnLW1hJywgJzIwMCcsICctbWV0YWxfYmluZGluZycsICctaW1hZScsICc8aW5maWxlLm1hZT4nLCAnLW9tYWUnLCAnPG91dGZpbGUubWFlPic=

> <r_lp_tautomer_probability>
1

> <r_epik_Ionization_Penalty>
0.000372452

> <r_epik_Ionization_Penalty_Charging>
0

> <r_epik_Ionization_Penalty_Neutral>
0.000372452

> <r_epik_State_Penalty>
-0

> <r_epik_Charging_Adjusted_Penalty>
0

> <i_epik_Tot_Q>
0

> <i_epik_Tot_abs_Q>
0

> <r_epik_Metal_State_Penalty>
-0

> <b_epik_Metal_Only>
0

> <s_lp_Force_Field>
OPLS_2005

> <r_lp_Energy>
26.8287

> <b_lp_Chiralities_Consistent>
1

> <s_lp_Variant>
AV-unprocessed.smi:1174-1

> <Gold.Version>
5.8.1

> <Gold.Id.Protein>
6NUR|6NUR_protein|mol2

> <Gold.PLP.Fitness>
41.0507

> <Gold.PLP.PLP>
-37.9894

> <Gold.PLP.part.hbond>
-3.0000

> <Gold.PLP.part.metal>
0.0000

> <Gold.PLP.part.buried>
0.2029

> <Gold.PLP.part.nonpolar>
-34.7230

> <Gold.PLP.part.repulsive>
0.3446

> <Gold.PLP.ligand.clash>
0.0000

> <Gold.PLP.ligand.torsion>
0.8943

> <Gold.PLP.Chemscore.Hbond>
1.5918

> <Gold.PLP.Chemscore.CHOScore>
0.0000

> <Gold.PLP.Chemscore.Metal>
0.0000

> <Gold.Chemscore.Hbonds>
donor molecule, donor type, donor heavy atom, donor atom, acceptor molecule, acceptor atom, score
      L1  H    18    38       P1  7949  0.46
      L1  H    18    39       P1  7957  0.61

> <Gold.PLP.Chemscore.Internal.Correction>
0.0745

> <Gold.Rescore>
     Score         DG    S(hbond)    S(metal)    S(lipo)     H(rot)  DE(clash)    DE(int)     intcor
     12.46     -14.06       0.76        0.00      91.31       1.82       0.38       1.22       ----

> <Gold.Chemscore.Fitness>
12.4556

> <Gold.Chemscore.DG>
-14.0557

> <Gold.Chemscore.ZeroCoef>
-5.4800

> <Gold.Chemscore.Hbond>
0.7644

> <Gold.Chemscore.Metal>
0.0000

> <Gold.Chemscore.Lipo>
91.3095

> <Gold.Chemscore.Internal_Hbond>
0.0000

> <Gold.Chemscore.DEClash>
0.3754

> <Gold.Chemscore.DEInternal>
1.2246

> <Gold.Chemscore.Rot>
1.8206

> <Gold.Chemscore.Internal.Correction>
   9.000000E+99

> <Gold.Chemscore.Hbonds>
donor molecule, donor type, donor heavy atom, donor atom, acceptor molecule, acceptor atom, score
      L1  H    18    38       P1  7949  0.08
      L1  H    18    39       P1  7957  0.44

> <Gold.Chemscore.Hbond.Weighted>
-2.5532

> <Gold.Chemscore.Metal.Weighted>
-0.0000

> <Gold.Chemscore.Lipo.Weighted>
-10.6832

> <Gold.Chemscore.Internal_Hbond.Weighted>
0.0000

> <Gold.Chemscore.DEClash.Weighted>
0.3754

> <Gold.Chemscore.DEInternal.Weighted>
1.2246

> <Gold.Chemscore.Rot.Weighted>
4.6607

> <Gold.Chemscore.Internal.Correction.Weighted>
   9.000000E+99

> <Gold.Protein.RotatedTorsions>
[ 6907 6896 6895 6894 ] final  155.68 input  -60.11 | X-H torsion
[ 7974 7965 7964 7962 ] final -148.81 input  175.53 | X-H torsion
[ 8008 7997 7996 7995 ] final   87.99 input   59.86 | X-H torsion
[ 10167 10162 10161 10158 ] final  154.63 input  -65.29 | X-H torsion
[ 10718 10713 10712 10709 ] final -173.20 input   66.30 | X-H torsion
[ 10763 10752 10751 10750 ] final  -62.89 input  -60.55 | X-H torsion
[ 11005 11000 10999 10996 ] final  146.61 input  -57.11 | X-H torsion

> <Gold.Protein.ActiveResidues>
 VAL166  LYS551  ARG553  GLY616  TRP617  ASP618  TYR619  PRO620  LYS621  CYS622 
 ASP623  PHE694  ASN695  SER759  ASP760  ASP761  ALA762  ILE779  LEU786  VAL792 
 PHE793  MET794  SER795  GLU796  ALA797  LYS798  CYS799  TRP800  GLU811  SER814 

> <Gold.Protein.RotatedAtoms>
  152.0406  133.3976  159.4335 H   0  0  0  0  0  0  0  0  0  0  0  0  # atno 6907 bound_to 6896
  150.6876  134.3419  159.4881 H   0  0  0  0  0  0  0  0  0  0  0  0  # atno 6908 bound_to 6896
  152.1217  134.9200  160.0613 H   0  0  0  0  0  0  0  0  0  0  0  0  # atno 6909 bound_to 6896
  144.8006  140.5147  143.5710 H   0  0  0  0  0  0  0  0  0  0  0  0  # atno 7974 bound_to 7965
  155.9822  140.3376  155.6674 H   0  0  0  0  0  0  0  0  0  0  0  0  # atno 8008 bound_to 7997
  155.6533  140.0708  157.2597 H   0  0  0  0  0  0  0  0  0  0  0  0  # atno 8009 bound_to 7997
  154.4195  140.1722  156.1685 H   0  0  0  0  0  0  0  0  0  0  0  0  # atno 8010 bound_to 7997
  139.4823  144.5170  151.7936 H   0  0  0  0  0  0  0  0  0  0  0  0  # atno 10167 bound_to 10162
  156.7668  130.9434  151.3119 H   0  0  0  0  0  0  0  0  0  0  0  0  # atno 10718 bound_to 10713
  154.3067  135.6224  153.5448 H   0  0  0  0  0  0  0  0  0  0  0  0  # atno 10763 bound_to 10752
  152.9834  135.5691  154.5223 H   0  0  0  0  0  0  0  0  0  0  0  0  # atno 10764 bound_to 10752
  154.4865  135.2865  155.1507 H   0  0  0  0  0  0  0  0  0  0  0  0  # atno 10765 bound_to 10752
  140.0807  134.9098  157.1496 H   0  0  0  0  0  0  0  0  0  0  0  0  # atno 11005 bound_to 11000
  145.5563  139.1478  143.3366 LP  0  0  0  0  0  0  0  0  0  0  0  0  # atno 17320 bound_to 7965
  146.2286  140.5700  142.8985 LP  0  0  0  0  0  0  0  0  0  0  0  0  # atno 17321 bound_to 7965
  140.4679  144.1628  150.5914 LP  0  0  0  0  0  0  0  0  0  0  0  0  # atno 17342 bound_to 10162
  140.4414  143.2525  151.9468 LP  0  0  0  0  0  0  0  0  0  0  0  0  # atno 17343 bound_to 10162
  157.6709  130.9050  150.0038 LP  0  0  0  0  0  0  0  0  0  0  0  0  # atno 17370 bound_to 10713
  156.1303  130.3643  149.9742 LP  0  0  0  0  0  0  0  0  0  0  0  0  # atno 17371 bound_to 10713
  140.3491  134.2618  155.7201 LP  0  0  0  0  0  0  0  0  0  0  0  0  # atno 17394 bound_to 11000
  141.2046  133.7883  157.0280 LP  0  0  0  0  0  0  0  0  0  0  0  0  # atno 17395 bound_to 11000

$$$$
