AV-unprocessed.smi:1870|AV-procd|sdf|7597|dock8
  -GOLD-   22720 9313D 1   1.00000     0.00000
 Structure written by MMmdl.
 47 49  0  0  0  0  0  0  0  0  1 V2000
  146.2479  137.3389  162.4524 C   0  0  0  0  0  0  0  0  0  0  0  0
  146.9034  136.4522  161.4283 C   0  0  0  0  0  0  0  0  0  0  0  0
  147.8333  136.9867  160.7071 N   0  0  0  0  0  0  0  0  0  0  0  0
  148.4970  136.2621  159.7357 N   0  0  0  0  0  0  0  0  0  0  0  0
  149.5139  137.0314  159.0078 C   0  0  0  0  0  0  0  0  0  0  0  0
  148.8842  138.1175  158.1092 C   0  0  2  0  0  0  0  0  0  0  0  0
  147.9019  137.5115  157.2931 O   0  0  0  0  0  0  0  0  0  0  0  0
  149.9331  138.7388  157.1632 C   0  0  0  0  0  0  0  0  0  0  0  0
  150.1920  140.1677  157.3551 N   0  0  0  0  0  0  0  0  0  0  0  0
  150.7307  140.7673  156.1382 C   0  0  0  0  0  0  0  0  0  0  0  0
  150.7712  142.3005  156.2278 C   0  0  0  0  0  0  0  0  0  0  0  0
  151.3708  142.7823  157.5379 C   0  0  0  0  0  0  0  0  0  0  0  0
  151.7653  144.1280  157.6836 C   0  0  0  0  0  0  0  0  0  0  0  0
  152.2966  144.5791  158.9072 C   0  0  0  0  0  0  0  0  0  0  0  0
  152.4338  143.6866  159.9878 C   0  0  0  0  0  0  0  0  0  0  0  0
  152.0395  142.3419  159.8465 C   0  0  0  0  0  0  0  0  0  0  0  0
  151.5026  141.8856  158.6251 C   0  0  0  0  0  0  0  0  0  0  0  0
  151.1129  140.4208  158.4696 C   0  0  0  0  0  0  0  0  0  0  0  0
  148.2494  134.9548  159.4374 C   0  0  0  0  0  0  0  0  0  0  0  0
  148.8590  134.3463  158.5568 O   0  0  0  0  0  0  0  0  0  0  0  0
  147.1978  134.3543  160.2615 C   0  0  0  0  0  0  0  0  0  0  0  0
  146.9095  132.9842  159.9849 C   0  0  0  0  0  0  0  0  0  0  0  0
  146.6867  131.8672  159.7781 N   0  0  0  0  0  0  0  0  0  0  0  0
  146.5425  135.0535  161.2218 C   0  0  0  0  0  0  0  0  0  0  0  0
  145.4428  134.4766  162.1031 C   0  0  0  0  0  0  0  0  0  0  0  0
  146.4136  136.9550  163.4590 H   0  0  0  0  0  0  0  0  0  0  0  0
  145.1723  137.3951  162.2841 H   0  0  0  0  0  0  0  0  0  0  0  0
  146.6393  138.3569  162.4200 H   0  0  0  0  0  0  0  0  0  0  0  0
  150.1537  137.5099  159.7515 H   0  0  0  0  0  0  0  0  0  0  0  0
  150.1891  136.3911  158.4366 H   0  0  0  0  0  0  0  0  0  0  0  0
  148.4219  138.8831  158.7313 H   0  0  0  0  0  0  0  0  0  0  0  0
  147.0792  137.9532  157.4406 H   0  0  0  0  0  0  0  0  0  0  0  0
  150.8742  138.1960  157.2634 H   0  0  0  0  0  0  0  0  0  0  0  0
  149.6035  138.5651  156.1374 H   0  0  0  0  0  0  0  0  0  0  0  0
  151.7344  140.3804  155.9541 H   0  0  0  0  0  0  0  0  0  0  0  0
  150.1274  140.4849  155.2746 H   0  0  0  0  0  0  0  0  0  0  0  0
  151.3357  142.7099  155.3895 H   0  0  0  0  0  0  0  0  0  0  0  0
  149.7590  142.6994  156.1535 H   0  0  0  0  0  0  0  0  0  0  0  0
  151.6576  144.8175  156.8592 H   0  0  0  0  0  0  0  0  0  0  0  0
  152.5978  145.6102  159.0177 H   0  0  0  0  0  0  0  0  0  0  0  0
  152.8437  144.0332  160.9250 H   0  0  0  0  0  0  0  0  0  0  0  0
  152.1537  141.6607  160.6769 H   0  0  0  0  0  0  0  0  0  0  0  0
  150.6667  140.0967  159.4089 H   0  0  0  0  0  0  0  0  0  0  0  0
  152.0290  139.8432  158.3375 H   0  0  0  0  0  0  0  0  0  0  0  0
  145.2798  133.4151  161.9189 H   0  0  0  0  0  0  0  0  0  0  0  0
  144.4988  134.9907  161.9203 H   0  0  0  0  0  0  0  0  0  0  0  0
  145.6965  134.5876  163.1579 H   0  0  0  0  0  0  0  0  0  0  0  0
  1  2  1  0  0  0  0
  1 26  1  0  0  0  0
  1 27  1  0  0  0  0
  1 28  1  0  0  0  0
  2 24  1  0  0  0  0
  2  3  2  0  0  0  0
  3  4  1  0  0  0  0
  4  5  1  0  0  0  0
  4 19  1  0  0  0  0
  5  6  1  0  0  0  0
  5 29  1  0  0  0  0
  5 30  1  0  0  0  0
  6  7  1  0  0  0  0
  6  8  1  0  0  0  0
  6 31  1  0  0  0  0
  7 32  1  0  0  0  0
  8  9  1  0  0  0  0
  8 33  1  0  0  0  0
  8 34  1  0  0  0  0
  9 18  1  0  0  0  0
  9 10  1  0  0  0  0
 10 11  1  0  0  0  0
 10 35  1  0  0  0  0
 10 36  1  0  0  0  0
 11 12  1  0  0  0  0
 11 37  1  0  0  0  0
 11 38  1  0  0  0  0
 12 17  2  0  0  0  0
 12 13  1  0  0  0  0
 13 14  2  0  0  0  0
 13 39  1  0  0  0  0
 14 15  1  0  0  0  0
 14 40  1  0  0  0  0
 15 16  2  0  0  0  0
 15 41  1  0  0  0  0
 16 17  1  0  0  0  0
 16 42  1  0  0  0  0
 17 18  1  0  0  0  0
 18 43  1  0  0  0  0
 18 44  1  0  0  0  0
 19 20  2  0  0  0  0
 19 21  1  0  0  0  0
 21 22  1  0  0  0  0
 21 24  2  0  0  0  0
 22 23  3  0  0  0  0
 24 25  1  0  0  0  0
 25 45  1  0  0  0  0
 25 46  1  0  0  0  0
 25 47  1  0  0  0  0
M  END
> <s_m_source_file>
AV-unprocessed.smi

> <i_m_source_file_index>
1870

> <i_lp_mmshare_version>
43012

> <i_f3d_flags>
0

> <s_epik_input>
TiNDYyhjMVtDSDNdKWMoPU8pbihuYzFbQ0gzXSlbQ0gyXVtDQEhdKFtPSF0pW0NIMl1OKFtDSDJdW0NIMl0yKVtDSDJdYyhjMjMpW2NIXVtjSF1bY0hdW2NIXTM=

> <s_epik_cmdline>
J2VwaWtfcHl0aG9uJywgJy1waCcsICc3LjAnLCAnLXRuJywgJzgnLCAnLW1hJywgJzIwMCcsICctbWV0YWxfYmluZGluZycsICctaW1hZScsICc8aW5maWxlLm1hZT4nLCAnLW9tYWUnLCAnPG91dGZpbGUubWFlPic=

> <r_epik_Ionization_Penalty>
2.30251

> <r_epik_Ionization_Penalty_Charging>
1.06171e-10

> <r_epik_Ionization_Penalty_Neutral>
2.30251

> <r_epik_State_Penalty>
2.45335

> <r_epik_Charging_Adjusted_Penalty>
2.45335

> <i_epik_Tot_Q>
0

> <i_epik_Tot_abs_Q>
0

> <r_epik_Metal_State_Penalty>
2.45335

> <b_epik_Metal_Only>
0

> <s_lp_Force_Field>
OPLS_2005

> <r_lp_Energy>
46.0919

> <b_lp_Chiralities_Consistent>
1

> <s_lp_Variant>
AV-unprocessed.smi:1870-5

> <Gold.Version>
5.8.1

> <Gold.Id.Protein>
6NUR|6NUR_protein|mol2

> <Gold.PLP.Fitness>
54.9918

> <Gold.PLP.PLP>
-49.2330

> <Gold.PLP.part.hbond>
-3.0000

> <Gold.PLP.part.metal>
0.0000

> <Gold.PLP.part.buried>
-3.2956

> <Gold.PLP.part.nonpolar>
-43.3802

> <Gold.PLP.part.repulsive>
0.0000

> <Gold.PLP.ligand.clash>
0.0000

> <Gold.PLP.ligand.torsion>
1.0865

> <Gold.PLP.Chemscore.Hbond>
2.6378

> <Gold.PLP.Chemscore.CHOScore>
0.0000

> <Gold.PLP.Chemscore.Metal>
0.0000

> <Gold.Chemscore.Hbonds>
donor molecule, donor type, donor heavy atom, donor atom, acceptor molecule, acceptor atom, score
      P1  H  6896  6908       L1    20  0.80
      P1  H  6931  6943       L1     3  0.73
      P1  H  6934  6947       L1     3  0.53

> <Gold.PLP.Chemscore.Internal.Correction>
0.0182

> <Gold.Rescore>
     Score         DG    S(hbond)    S(metal)    S(lipo)     H(rot)  DE(clash)    DE(int)     intcor
     19.54     -20.74       1.41        0.00     136.08       2.10       0.14       1.06       ----

> <Gold.Chemscore.Fitness>
19.5383

> <Gold.Chemscore.DG>
-20.7387

> <Gold.Chemscore.ZeroCoef>
-5.4800

> <Gold.Chemscore.Hbond>
1.4088

> <Gold.Chemscore.Metal>
0.0000

> <Gold.Chemscore.Lipo>
136.0829

> <Gold.Chemscore.Internal_Hbond>
0.0000

> <Gold.Chemscore.DEClash>
0.1438

> <Gold.Chemscore.DEInternal>
1.0566

> <Gold.Chemscore.Rot>
2.0971

> <Gold.Chemscore.Internal.Correction>
   9.000000E+99

> <Gold.Chemscore.Hbonds>
donor molecule, donor type, donor heavy atom, donor atom, acceptor molecule, acceptor atom, score
      P1  H  6896  6908       L1    20  0.11
      P1  H  6931  6943       L1     3  0.48
      P1  H  6934  6947       L1     3  0.09

> <Gold.Chemscore.Hbond.Weighted>
-4.7055

> <Gold.Chemscore.Metal.Weighted>
-0.0000

> <Gold.Chemscore.Lipo.Weighted>
-15.9217

> <Gold.Chemscore.Internal_Hbond.Weighted>
0.0000

> <Gold.Chemscore.DEClash.Weighted>
0.1438

> <Gold.Chemscore.DEInternal.Weighted>
1.0566

> <Gold.Chemscore.Rot.Weighted>
5.3685

> <Gold.Chemscore.Internal.Correction.Weighted>
   9.000000E+99

> <Gold.Protein.RotatedTorsions>
[ 6907 6896 6895 6894 ] final  158.70 input  -60.11 | X-H torsion
[ 7974 7965 7964 7962 ] final   28.98 input  175.53 | X-H torsion
[ 8008 7997 7996 7995 ] final   63.93 input   59.86 | X-H torsion
[ 10167 10162 10161 10158 ] final  121.05 input  -65.29 | X-H torsion
[ 10718 10713 10712 10709 ] final -178.91 input   66.30 | X-H torsion
[ 10763 10752 10751 10750 ] final -171.65 input  -60.55 | X-H torsion
[ 11005 11000 10999 10996 ] final  144.49 input  -57.11 | X-H torsion

> <Gold.Protein.ActiveResidues>
 VAL166  LYS551  ARG553  GLY616  TRP617  ASP618  TYR619  PRO620  LYS621  CYS622 
 ASP623  PHE694  ASN695  SER759  ASP760  ASP761  ALA762  ILE779  LEU786  VAL792 
 PHE793  MET794  SER795  GLU796  ALA797  LYS798  CYS799  TRP800  GLU811  SER814 

> <Gold.Protein.RotatedAtoms>
  151.9965  133.3810  159.4164 H   0  0  0  0  0  0  0  0  0  0  0  0  # atno 6907 bound_to 6896
  150.6915  134.3880  159.5073 H   0  0  0  0  0  0  0  0  0  0  0  0  # atno 6908 bound_to 6896
  152.1621  134.8903  160.0591 H   0  0  0  0  0  0  0  0  0  0  0  0  # atno 6909 bound_to 6896
  146.1698  139.6983  142.8975 H   0  0  0  0  0  0  0  0  0  0  0  0  # atno 7974 bound_to 7965
  155.6380  140.3496  155.4705 H   0  0  0  0  0  0  0  0  0  0  0  0  # atno 8008 bound_to 7997
  155.9949  140.1201  157.0626 H   0  0  0  0  0  0  0  0  0  0  0  0  # atno 8009 bound_to 7997
  154.4230  140.1112  156.5602 H   0  0  0  0  0  0  0  0  0  0  0  0  # atno 8010 bound_to 7997
  139.5944  144.7036  151.3213 H   0  0  0  0  0  0  0  0  0  0  0  0  # atno 10167 bound_to 10162
  156.8513  130.9720  151.3092 H   0  0  0  0  0  0  0  0  0  0  0  0  # atno 10718 bound_to 10713
  154.6281  135.2883  155.0248 H   0  0  0  0  0  0  0  0  0  0  0  0  # atno 10763 bound_to 10752
  154.1419  135.6517  153.4948 H   0  0  0  0  0  0  0  0  0  0  0  0  # atno 10764 bound_to 10752
  153.0267  135.5335  154.7098 H   0  0  0  0  0  0  0  0  0  0  0  0  # atno 10765 bound_to 10752
  140.0637  134.9190  157.1227 H   0  0  0  0  0  0  0  0  0  0  0  0  # atno 11005 bound_to 11000
  145.4371  141.0419  143.2878 LP  0  0  0  0  0  0  0  0  0  0  0  0  # atno 17320 bound_to 7965
  144.8146  139.5900  143.7014 LP  0  0  0  0  0  0  0  0  0  0  0  0  # atno 17321 bound_to 7965
  140.7199  143.7163  150.7730 LP  0  0  0  0  0  0  0  0  0  0  0  0  # atno 17342 bound_to 10162
  140.0726  143.5046  152.2572 LP  0  0  0  0  0  0  0  0  0  0  0  0  # atno 17343 bound_to 10162
  157.6302  130.8723  149.9260 LP  0  0  0  0  0  0  0  0  0  0  0  0  # atno 17370 bound_to 10713
  156.0827  130.3671  150.0549 LP  0  0  0  0  0  0  0  0  0  0  0  0  # atno 17371 bound_to 10713
  140.3732  134.2368  155.7176 LP  0  0  0  0  0  0  0  0  0  0  0  0  # atno 17394 bound_to 11000
  141.1984  133.8037  157.0585 LP  0  0  0  0  0  0  0  0  0  0  0  0  # atno 17395 bound_to 11000

$$$$
