AV-unprocessed.smi:1049|AV-procd|sdf|4608|dock6
  -GOLD-   22720 3103D 1   1.00000     0.00000
 Structure written by MMmdl.
 40 41  0  0  0  0  0  0  0  0  1 V2000
  148.0163  125.0491  154.8769 C   0  0  0  0  0  0  0  0  0  0  0  0
  147.8287  126.1867  153.8640 C   0  0  2  0  0  0  0  0  0  0  0  0
  148.3476  125.7904  152.4637 C   0  0  0  0  0  0  0  0  0  0  0  0
  148.2963  126.9669  151.4703 C   0  0  0  0  0  0  0  0  0  0  0  0
  148.9629  128.2170  152.0704 C   0  0  0  0  0  0  0  0  0  0  0  0
  148.2911  128.5419  153.3407 N   0  0  0  0  0  0  0  0  0  0  0  0
  147.3718  129.5231  153.5249 C   0  0  0  0  0  0  0  0  0  0  0  0
  146.5947  129.5533  154.4802 O   0  0  0  0  0  0  0  0  0  0  0  0
  147.3842  130.4815  152.5850 N   0  0  0  0  0  0  0  0  0  0  0  0
  146.4375  131.5869  152.4881 C   0  0  0  0  0  0  0  0  0  0  0  0
  146.9893  132.7606  151.6546 C   0  0  0  0  0  0  0  0  0  0  0  0
  145.9396  133.7533  151.2428 C   0  0  0  0  0  0  0  0  0  0  0  0
  145.9548  135.0278  151.6225 N   0  0  0  0  0  0  0  0  0  0  0  0
  144.8403  135.5947  151.0165 C   0  0  0  0  0  0  0  0  0  0  0  0
  144.1753  134.6322  150.2977 C   0  0  0  0  0  0  0  0  0  0  0  0
  144.8784  133.4448  150.4689 N   0  0  0  0  0  0  0  0  0  0  0  0
  144.5276  132.1525  149.9015 C   0  0  0  0  0  0  0  0  0  0  0  0
  143.5035  132.2736  149.0564 F   0  0  0  0  0  0  0  0  0  0  0  0
  145.5731  131.6338  149.2612 F   0  0  0  0  0  0  0  0  0  0  0  0
  148.5100  127.4883  154.3399 C   0  0  0  0  0  0  0  0  0  0  0  0
  149.0718  124.8172  155.0215 H   0  0  0  0  0  0  0  0  0  0  0  0
  147.5174  124.1392  154.5422 H   0  0  0  0  0  0  0  0  0  0  0  0
  147.5979  125.3159  155.8477 H   0  0  0  0  0  0  0  0  0  0  0  0
  146.7580  126.3784  153.7834 H   0  0  0  0  0  0  0  0  0  0  0  0
  149.3795  125.4466  152.5467 H   0  0  0  0  0  0  0  0  0  0  0  0
  147.7743  124.9494  152.0724 H   0  0  0  0  0  0  0  0  0  0  0  0
  148.7881  126.6890  150.5379 H   0  0  0  0  0  0  0  0  0  0  0  0
  147.2592  127.1912  151.2174 H   0  0  0  0  0  0  0  0  0  0  0  0
  150.0182  128.0186  152.2638 H   0  0  0  0  0  0  0  0  0  0  0  0
  148.9529  129.0269  151.3414 H   0  0  0  0  0  0  0  0  0  0  0  0
  148.0645  130.4024  151.8432 H   0  0  0  0  0  0  0  0  0  0  0  0
  145.4799  131.2473  152.0905 H   0  0  0  0  0  0  0  0  0  0  0  0
  146.2427  131.9289  153.5049 H   0  0  0  0  0  0  0  0  0  0  0  0
  147.7683  133.2621  152.2272 H   0  0  0  0  0  0  0  0  0  0  0  0
  147.4757  132.3777  150.7572 H   0  0  0  0  0  0  0  0  0  0  0  0
  144.6063  136.6417  151.1416 H   0  0  0  0  0  0  0  0  0  0  0  0
  143.2768  134.6930  149.7015 H   0  0  0  0  0  0  0  0  0  0  0  0
  144.2216  131.4625  150.6878 H   0  0  0  0  0  0  0  0  0  0  0  0
  148.1382  127.7714  155.3259 H   0  0  0  0  0  0  0  0  0  0  0  0
  149.5821  127.3292  154.4664 H   0  0  0  0  0  0  0  0  0  0  0  0
  1  2  1  0  0  0  0
  1 21  1  0  0  0  0
  1 22  1  0  0  0  0
  1 23  1  0  0  0  0
  2 20  1  0  0  0  0
  2  3  1  0  0  0  0
  2 24  1  0  0  0  0
  3  4  1  0  0  0  0
  3 25  1  0  0  0  0
  3 26  1  0  0  0  0
  4  5  1  0  0  0  0
  4 27  1  0  0  0  0
  4 28  1  0  0  0  0
  5  6  1  0  0  0  0
  5 29  1  0  0  0  0
  5 30  1  0  0  0  0
  6  7  1  0  0  0  0
  6 20  1  0  0  0  0
  7  8  2  0  0  0  0
  7  9  1  0  0  0  0
  9 10  1  0  0  0  0
  9 31  1  0  0  0  0
 10 11  1  0  0  0  0
 10 32  1  0  0  0  0
 10 33  1  0  0  0  0
 11 12  1  0  0  0  0
 11 34  1  0  0  0  0
 11 35  1  0  0  0  0
 12 16  1  0  0  0  0
 12 13  2  0  0  0  0
 13 14  1  0  0  0  0
 14 15  2  0  0  0  0
 14 36  1  0  0  0  0
 15 16  1  0  0  0  0
 15 37  1  0  0  0  0
 16 17  1  0  0  0  0
 17 18  1  0  0  0  0
 17 19  1  0  0  0  0
 17 38  1  0  0  0  0
 20 39  1  0  0  0  0
 20 40  1  0  0  0  0
M  END
> <s_m_source_file>
AV-unprocessed.smi

> <i_m_source_file_index>
1049

> <i_lp_mmshare_version>
43012

> <i_f3d_flags>
0

> <s_epik_input>
W0NIM11bQ0BASF0xW0NIMl1bQ0gyXVtDSDJdTihbQ0gyXTEpQyg9TylbTkhdW0NIMl1bQ0gyXWMybltjSF1bY0hdbjJbQ0hdKEYpRg==

> <s_epik_cmdline>
J2VwaWtfcHl0aG9uJywgJy1waCcsICc3LjAnLCAnLXRuJywgJzgnLCAnLW1hJywgJzIwMCcsICctbWV0YWxfYmluZGluZycsICctaW1hZScsICc8aW5maWxlLm1hZT4nLCAnLW9tYWUnLCAnPG91dGZpbGUubWFlPic=

> <r_lp_tautomer_probability>
1

> <r_epik_Ionization_Penalty>
0.101141

> <r_epik_Ionization_Penalty_Charging>
0.101077

> <r_epik_Ionization_Penalty_Neutral>
6.38597e-05

> <r_epik_State_Penalty>
0.091079

> <r_epik_Charging_Adjusted_Penalty>
0.192156

> <i_epik_Tot_Q>
0

> <i_epik_Tot_abs_Q>
0

> <r_epik_Metal_State_Penalty>
0.0777008

> <b_epik_Metal_Only>
0

> <s_lp_Force_Field>
OPLS_2005

> <r_lp_Energy>
32.1831

> <b_lp_Chiralities_Consistent>
1

> <s_lp_Variant>
AV-unprocessed.smi:1049-1

> <Gold.Version>
5.8.1

> <Gold.Id.Protein>
6NUR|6NUR_protein|mol2

> <Gold.PLP.Fitness>
42.8738

> <Gold.PLP.PLP>
-34.7769

> <Gold.PLP.part.hbond>
-1.0000

> <Gold.PLP.part.metal>
0.0000

> <Gold.PLP.part.buried>
-3.0848

> <Gold.PLP.part.nonpolar>
-31.8454

> <Gold.PLP.part.repulsive>
0.4816

> <Gold.PLP.ligand.clash>
0.0489

> <Gold.PLP.ligand.torsion>
0.4145

> <Gold.PLP.Chemscore.Hbond>
1.0000

> <Gold.PLP.Chemscore.CHOScore>
1.9628

> <Gold.PLP.Chemscore.Metal>
0.0000

> <Gold.Chemscore.Hbonds>
donor molecule, donor type, donor heavy atom, donor atom, acceptor molecule, acceptor atom, score
      L1  H     9    31       P1 10747  1.00
      L1  C    14    36       P1 10171  1.00
      L1  C    15    37       P1 10186  1.00

> <Gold.PLP.Chemscore.Internal.Correction>
0.0865

> <Gold.Rescore>
     Score         DG    S(hbond)    S(metal)    S(lipo)     H(rot)  DE(clash)    DE(int)     intcor
     11.35     -12.38       0.96        0.00      65.79       1.56       0.24       0.80       ----

> <Gold.Chemscore.Fitness>
11.3467

> <Gold.Chemscore.DG>
-12.3814

> <Gold.Chemscore.ZeroCoef>
-5.4800

> <Gold.Chemscore.Hbond>
0.9594

> <Gold.Chemscore.Metal>
0.0000

> <Gold.Chemscore.Lipo>
65.7897

> <Gold.Chemscore.Internal_Hbond>
0.0000

> <Gold.Chemscore.DEClash>
0.2379

> <Gold.Chemscore.DEInternal>
0.7969

> <Gold.Chemscore.Rot>
1.5626

> <Gold.Chemscore.Internal.Correction>
   9.000000E+99

> <Gold.Chemscore.Hbonds>
donor molecule, donor type, donor heavy atom, donor atom, acceptor molecule, acceptor atom, score
      L1  H     9    31       P1 10747  0.99

> <Gold.Chemscore.Hbond.Weighted>
-3.2044

> <Gold.Chemscore.Metal.Weighted>
-0.0000

> <Gold.Chemscore.Lipo.Weighted>
-7.6974

> <Gold.Chemscore.Internal_Hbond.Weighted>
0.0000

> <Gold.Chemscore.DEClash.Weighted>
0.2379

> <Gold.Chemscore.DEInternal.Weighted>
0.7969

> <Gold.Chemscore.Rot.Weighted>
4.0004

> <Gold.Chemscore.Internal.Correction.Weighted>
   9.000000E+99

> <Gold.Protein.RotatedTorsions>
[ 6907 6896 6895 6894 ] final  142.23 input  -60.11 | X-H torsion
[ 7974 7965 7964 7962 ] final -145.95 input  175.53 | X-H torsion
[ 8008 7997 7996 7995 ] final  -53.93 input   59.86 | X-H torsion
[ 10167 10162 10161 10158 ] final  -71.62 input  -65.29 | X-H torsion
[ 10718 10713 10712 10709 ] final  -64.74 input   66.30 | X-H torsion
[ 10763 10752 10751 10750 ] final  102.82 input  -60.55 | X-H torsion
[ 11005 11000 10999 10996 ] final  164.86 input  -57.11 | X-H torsion

> <Gold.Protein.ActiveResidues>
 VAL166  LYS551  ARG553  GLY616  TRP617  ASP618  TYR619  PRO620  LYS621  CYS622 
 ASP623  PHE694  ASN695  SER759  ASP760  ASP761  ALA762  ILE779  LEU786  VAL792 
 PHE793  MET794  SER795  GLU796  ALA797  LYS798  CYS799  TRP800  GLU811  SER814 

> <Gold.Protein.RotatedAtoms>
  152.2212  133.4985  159.5163 H   0  0  0  0  0  0  0  0  0  0  0  0  # atno 6907 bound_to 6896
  150.7013  134.1340  159.4089 H   0  0  0  0  0  0  0  0  0  0  0  0  # atno 6908 bound_to 6896
  151.9260  135.0277  160.0576 H   0  0  0  0  0  0  0  0  0  0  0  0  # atno 6909 bound_to 6896
  144.8192  140.5518  143.5590 H   0  0  0  0  0  0  0  0  0  0  0  0  # atno 7974 bound_to 7965
  154.4147  140.1188  156.5233 H   0  0  0  0  0  0  0  0  0  0  0  0  # atno 8008 bound_to 7997
  155.6680  140.3496  155.4788 H   0  0  0  0  0  0  0  0  0  0  0  0  # atno 8009 bound_to 7997
  155.9657  140.1131  157.0847 H   0  0  0  0  0  0  0  0  0  0  0  0  # atno 8010 bound_to 7997
  140.5258  143.2326  151.7349 H   0  0  0  0  0  0  0  0  0  0  0  0  # atno 10167 bound_to 10162
  156.0711  130.4237  150.1463 H   0  0  0  0  0  0  0  0  0  0  0  0  # atno 10718 bound_to 10713
  153.3446  135.3997  155.1598 H   0  0  0  0  0  0  0  0  0  0  0  0  # atno 10763 bound_to 10752
  154.8650  135.3642  154.5301 H   0  0  0  0  0  0  0  0  0  0  0  0  # atno 10764 bound_to 10752
  153.5749  135.7078  153.5548 H   0  0  0  0  0  0  0  0  0  0  0  0  # atno 10765 bound_to 10752
  140.2503  134.7982  157.3495 H   0  0  0  0  0  0  0  0  0  0  0  0  # atno 11005 bound_to 11000
  145.5144  139.1478  143.3587 LP  0  0  0  0  0  0  0  0  0  0  0  0  # atno 17320 bound_to 7965
  146.2497  140.5284  142.8899 LP  0  0  0  0  0  0  0  0  0  0  0  0  # atno 17321 bound_to 7965
  139.4938  144.4187  152.0001 LP  0  0  0  0  0  0  0  0  0  0  0  0  # atno 17342 bound_to 10162
  140.3286  144.3343  150.5992 LP  0  0  0  0  0  0  0  0  0  0  0  0  # atno 17343 bound_to 10162
  156.9514  130.9776  151.3497 LP  0  0  0  0  0  0  0  0  0  0  0  0  # atno 17370 bound_to 10713
  157.5782  130.8358  149.8485 LP  0  0  0  0  0  0  0  0  0  0  0  0  # atno 17371 bound_to 10713
  140.1565  134.4783  155.7924 LP  0  0  0  0  0  0  0  0  0  0  0  0  # atno 17394 bound_to 11000
  141.2202  133.6883  156.7470 LP  0  0  0  0  0  0  0  0  0  0  0  0  # atno 17395 bound_to 11000

$$$$
