AV-unprocessed.smi:1623|AV-procd|sdf|6501|dock7
  -GOLD-   22720 7163D 1   1.00000     0.00000
 Structure written by MMmdl.
 42 43  0  0  0  0  0  0  0  0  1 V2000
  150.8786  144.9375  159.8318 C   0  0  0  0  0  0  0  0  0  0  0  0
  151.4272  143.6534  159.2707 C   0  0  0  0  0  0  0  0  0  0  0  0
  151.0294  143.3220  158.0864 N   0  0  0  0  0  0  0  0  0  0  0  0
  151.4674  142.1612  157.4789 N   0  0  0  0  0  0  0  0  0  0  0  0
  150.9124  141.9428  156.1383 C   0  0  0  0  0  0  0  0  0  0  0  0
  150.0889  140.6385  156.0561 C   0  0  2  0  0  0  0  0  0  0  0  0
  150.9237  139.5280  155.7984 O   0  0  0  0  0  0  0  0  0  0  0  0
  149.0204  140.6822  154.9520 C   0  0  0  0  0  0  0  0  0  0  0  0
  148.0888  141.7192  155.2297 O   0  0  0  0  0  0  0  0  0  0  0  0
  147.0836  141.8807  154.2397 C   0  0  0  0  0  0  0  0  0  0  0  0
  145.9318  142.7658  154.6944 C   0  0  0  0  0  0  0  0  0  0  0  0
  145.3549  143.6734  153.7799 C   0  0  0  0  0  0  0  0  0  0  0  0
  144.2866  144.5010  154.1746 C   0  0  0  0  0  0  0  0  0  0  0  0
  143.7895  144.4288  155.4891 C   0  0  0  0  0  0  0  0  0  0  0  0
  144.3634  143.5305  156.4084 C   0  0  0  0  0  0  0  0  0  0  0  0
  145.4335  142.7004  156.0184 C   0  0  0  0  0  0  0  0  0  0  0  0
  146.1129  141.6158  157.1809 Cl  0  0  0  0  0  0  0  0  0  0  0  0
  152.3250  141.2646  158.0437 C   0  0  0  0  0  0  0  0  0  0  0  0
  152.6806  140.2335  157.4711 O   0  0  0  0  0  0  0  0  0  0  0  0
  152.7756  141.6486  159.3835 C   0  0  0  0  0  0  0  0  0  0  0  0
  153.6779  140.7388  160.0122 C   0  0  0  0  0  0  0  0  0  0  0  0
  154.4164  140.0174  160.5360 N   0  0  0  0  0  0  0  0  0  0  0  0
  152.3626  142.7913  159.9864 C   0  0  0  0  0  0  0  0  0  0  0  0
  152.8018  143.2318  161.3762 C   0  0  0  0  0  0  0  0  0  0  0  0
  150.4565  144.7795  160.8243 H   0  0  0  0  0  0  0  0  0  0  0  0
  150.0882  145.3509  159.2033 H   0  0  0  0  0  0  0  0  0  0  0  0
  151.6641  145.6890  159.9131 H   0  0  0  0  0  0  0  0  0  0  0  0
  150.2602  142.7880  155.9088 H   0  0  0  0  0  0  0  0  0  0  0  0
  151.6829  141.9712  155.3654 H   0  0  0  0  0  0  0  0  0  0  0  0
  149.5836  140.4549  157.0052 H   0  0  0  0  0  0  0  0  0  0  0  0
  150.9242  139.3649  154.8674 H   0  0  0  0  0  0  0  0  0  0  0  0
  149.4721  140.8208  153.9683 H   0  0  0  0  0  0  0  0  0  0  0  0
  148.5065  139.7204  154.9335 H   0  0  0  0  0  0  0  0  0  0  0  0
  147.5416  142.3440  153.3656 H   0  0  0  0  0  0  0  0  0  0  0  0
  146.7212  140.9047  153.9129 H   0  0  0  0  0  0  0  0  0  0  0  0
  145.7277  143.7357  152.7681 H   0  0  0  0  0  0  0  0  0  0  0  0
  143.8486  145.1912  153.4686 H   0  0  0  0  0  0  0  0  0  0  0  0
  142.9700  145.0632  155.7930 H   0  0  0  0  0  0  0  0  0  0  0  0
  143.9809  143.4794  157.4172 H   0  0  0  0  0  0  0  0  0  0  0  0
  153.6224  142.6257  161.7586 H   0  0  0  0  0  0  0  0  0  0  0  0
  151.9720  143.1498  162.0787 H   0  0  0  0  0  0  0  0  0  0  0  0
  153.1448  144.2669  161.3669 H   0  0  0  0  0  0  0  0  0  0  0  0
  1  2  1  0  0  0  0
  1 25  1  0  0  0  0
  1 26  1  0  0  0  0
  1 27  1  0  0  0  0
  2 23  1  0  0  0  0
  2  3  2  0  0  0  0
  3  4  1  0  0  0  0
  4  5  1  0  0  0  0
  4 18  1  0  0  0  0
  5  6  1  0  0  0  0
  5 28  1  0  0  0  0
  5 29  1  0  0  0  0
  6  7  1  0  0  0  0
  6  8  1  0  0  0  0
  6 30  1  0  0  0  0
  7 31  1  0  0  0  0
  8  9  1  0  0  0  0
  8 32  1  0  0  0  0
  8 33  1  0  0  0  0
  9 10  1  0  0  0  0
 10 11  1  0  0  0  0
 10 34  1  0  0  0  0
 10 35  1  0  0  0  0
 11 16  1  0  0  0  0
 11 12  2  0  0  0  0
 12 13  1  0  0  0  0
 12 36  1  0  0  0  0
 13 14  2  0  0  0  0
 13 37  1  0  0  0  0
 14 15  1  0  0  0  0
 14 38  1  0  0  0  0
 15 16  2  0  0  0  0
 15 39  1  0  0  0  0
 16 17  1  0  0  0  0
 18 19  2  0  0  0  0
 18 20  1  0  0  0  0
 20 21  1  0  0  0  0
 20 23  2  0  0  0  0
 21 22  3  0  0  0  0
 23 24  1  0  0  0  0
 24 40  1  0  0  0  0
 24 41  1  0  0  0  0
 24 42  1  0  0  0  0
M  END
> <s_m_source_file>
AV-unprocessed.smi

> <i_m_source_file_index>
1623

> <i_lp_mmshare_version>
43012

> <i_f3d_flags>
0

> <s_epik_input>
TiNDYyhjMVtDSDNdKWMoPU8pbihuYzFbQ0gzXSlbQ0gyXVtDQEhdKFtPSF0pW0NIMl1PW0NIMl1jMltjSF1bY0hdW2NIXVtjSF1jMkNs

> <s_epik_cmdline>
J2VwaWtfcHl0aG9uJywgJy1waCcsICc3LjAnLCAnLXRuJywgJzgnLCAnLW1hJywgJzIwMCcsICctbWV0YWxfYmluZGluZycsICctaW1hZScsICc8aW5maWxlLm1hZT4nLCAnLW9tYWUnLCAnPG91dGZpbGUubWFlPic=

> <r_lp_tautomer_probability>
1

> <r_epik_Ionization_Penalty>
6.50533e-08

> <r_epik_Ionization_Penalty_Charging>
2.19172e-10

> <r_epik_Ionization_Penalty_Neutral>
6.48342e-08

> <r_epik_State_Penalty>
-0

> <r_epik_Charging_Adjusted_Penalty>
2.19172e-10

> <i_epik_Tot_Q>
0

> <i_epik_Tot_abs_Q>
0

> <r_epik_Metal_State_Penalty>
-0

> <b_epik_Metal_Only>
0

> <s_lp_Force_Field>
OPLS_2005

> <r_lp_Energy>
31.4415

> <b_lp_Chiralities_Consistent>
1

> <s_lp_Variant>
AV-unprocessed.smi:1623-1

> <Gold.Version>
5.8.1

> <Gold.Id.Protein>
6NUR|6NUR_protein|mol2

> <Gold.PLP.Fitness>
52.3081

> <Gold.PLP.PLP>
-50.5395

> <Gold.PLP.part.hbond>
-1.0000

> <Gold.PLP.part.metal>
0.0000

> <Gold.PLP.part.buried>
-9.7020

> <Gold.PLP.part.nonpolar>
-40.2976

> <Gold.PLP.part.repulsive>
0.7691

> <Gold.PLP.ligand.clash>
0.0000

> <Gold.PLP.ligand.torsion>
0.6315

> <Gold.PLP.Chemscore.Hbond>
0.9913

> <Gold.PLP.Chemscore.CHOScore>
0.0000

> <Gold.PLP.Chemscore.Metal>
0.0000

> <Gold.Chemscore.Hbonds>
donor molecule, donor type, donor heavy atom, donor atom, acceptor molecule, acceptor atom, score
      P1  H  7997  8008       L1    19  0.99

> <Gold.PLP.Chemscore.Internal.Correction>
0.0579

> <Gold.Rescore>
     Score         DG    S(hbond)    S(metal)    S(lipo)     H(rot)  DE(clash)    DE(int)     intcor
     11.86     -15.31       0.93        0.00     111.61       2.48       0.16       3.29       ----

> <Gold.Chemscore.Fitness>
11.8584

> <Gold.Chemscore.DG>
-15.3126

> <Gold.Chemscore.ZeroCoef>
-5.4800

> <Gold.Chemscore.Hbond>
0.9332

> <Gold.Chemscore.Metal>
0.0000

> <Gold.Chemscore.Lipo>
111.6122

> <Gold.Chemscore.Internal_Hbond>
0.0000

> <Gold.Chemscore.DEClash>
0.1626

> <Gold.Chemscore.DEInternal>
3.2916

> <Gold.Chemscore.Rot>
2.4777

> <Gold.Chemscore.Internal.Correction>
   9.000000E+99

> <Gold.Chemscore.Hbonds>
donor molecule, donor type, donor heavy atom, donor atom, acceptor molecule, acceptor atom, score
      P1  H  7997  8008       L1    19  0.92

> <Gold.Chemscore.Hbond.Weighted>
-3.1168

> <Gold.Chemscore.Metal.Weighted>
-0.0000

> <Gold.Chemscore.Lipo.Weighted>
-13.0586

> <Gold.Chemscore.Internal_Hbond.Weighted>
0.0000

> <Gold.Chemscore.DEClash.Weighted>
0.1626

> <Gold.Chemscore.DEInternal.Weighted>
3.2916

> <Gold.Chemscore.Rot.Weighted>
6.3428

> <Gold.Chemscore.Internal.Correction.Weighted>
   9.000000E+99

> <Gold.Protein.RotatedTorsions>
[ 6907 6896 6895 6894 ] final  -95.93 input  -60.11 | X-H torsion
[ 7974 7965 7964 7962 ] final  122.68 input  175.53 | X-H torsion
[ 8008 7997 7996 7995 ] final  -69.09 input   59.86 | X-H torsion
[ 10167 10162 10161 10158 ] final -135.22 input  -65.29 | X-H torsion
[ 10718 10713 10712 10709 ] final -163.64 input   66.30 | X-H torsion
[ 10763 10752 10751 10750 ] final  -73.30 input  -60.55 | X-H torsion
[ 11005 11000 10999 10996 ] final  -31.16 input  -57.11 | X-H torsion

> <Gold.Protein.ActiveResidues>
 VAL166  LYS551  ARG553  GLY616  TRP617  ASP618  TYR619  PRO620  LYS621  CYS622 
 ASP623  PHE694  ASN695  SER759  ASP760  ASP761  ALA762  ILE779  LEU786  VAL792 
 PHE793  MET794  SER795  GLU796  ALA797  LYS798  CYS799  TRP800  GLU811  SER814 

> <Gold.Protein.RotatedAtoms>
  150.6976  134.1582  159.4165 H   0  0  0  0  0  0  0  0  0  0  0  0  # atno 6907 bound_to 6896
  151.9563  135.0143  160.0554 H   0  0  0  0  0  0  0  0  0  0  0  0  # atno 6908 bound_to 6896
  152.1966  133.4776  159.5073 H   0  0  0  0  0  0  0  0  0  0  0  0  # atno 6909 bound_to 6896
  145.1047  139.3494  143.4794 H   0  0  0  0  0  0  0  0  0  0  0  0  # atno 7974 bound_to 7965
  154.4914  140.0860  156.7601 H   0  0  0  0  0  0  0  0  0  0  0  0  # atno 8008 bound_to 7997
  155.4222  140.3446  155.4254 H   0  0  0  0  0  0  0  0  0  0  0  0  # atno 8009 bound_to 7997
  156.1334  140.1508  156.9019 H   0  0  0  0  0  0  0  0  0  0  0  0  # atno 8010 bound_to 7997
  139.8801  143.6850  152.2628 H   0  0  0  0  0  0  0  0  0  0  0  0  # atno 10167 bound_to 10162
  156.6275  130.8916  151.2971 H   0  0  0  0  0  0  0  0  0  0  0  0  # atno 10718 bound_to 10713
  154.4576  135.5902  153.6233 H   0  0  0  0  0  0  0  0  0  0  0  0  # atno 10763 bound_to 10752
  152.9820  135.6036  154.3527 H   0  0  0  0  0  0  0  0  0  0  0  0  # atno 10764 bound_to 10752
  154.3395  135.2842  155.2409 H   0  0  0  0  0  0  0  0  0  0  0  0  # atno 10765 bound_to 10752
  140.9444  133.7259  156.1125 H   0  0  0  0  0  0  0  0  0  0  0  0  # atno 11005 bound_to 11000
  146.3528  140.0939  142.8611 LP  0  0  0  0  0  0  0  0  0  0  0  0  # atno 17320 bound_to 7965
  145.0915  140.9287  143.4766 LP  0  0  0  0  0  0  0  0  0  0  0  0  # atno 17321 bound_to 7965
  139.7204  144.7603  151.0964 LP  0  0  0  0  0  0  0  0  0  0  0  0  # atno 17342 bound_to 10162
  140.7746  143.5215  150.9531 LP  0  0  0  0  0  0  0  0  0  0  0  0  # atno 17343 bound_to 10162
  157.7209  130.9558  150.1437 LP  0  0  0  0  0  0  0  0  0  0  0  0  # atno 17370 bound_to 10713
  156.2261  130.3678  149.8499 LP  0  0  0  0  0  0  0  0  0  0  0  0  # atno 17371 bound_to 10713
  140.7689  134.3855  157.5511 LP  0  0  0  0  0  0  0  0  0  0  0  0  # atno 17394 bound_to 11000
  139.8829  134.9009  156.2799 LP  0  0  0  0  0  0  0  0  0  0  0  0  # atno 17395 bound_to 11000

$$$$
