AV-unprocessed.smi:1645|AV-procd|sdf|6607|dock1
  -GOLD-   22720 7313D 1   1.00000     0.00000
 Structure written by MMmdl.
 55 58  0  0  0  0  0  0  0  0  2 V2000
  146.2909  137.2487  155.2713 O   0  0  0  0  0  0  0  0  0  0  0  0
  147.0642  137.0150  154.3431 C   0  0  0  0  0  0  0  0  0  0  0  0
  148.2705  137.5817  154.1702 N   0  0  0  0  0  0  0  0  0  0  0  0
  148.9425  138.5183  155.0021 C   0  0  0  0  0  0  0  0  0  0  0  0
  148.7874  138.6022  156.4056 C   0  0  0  0  0  0  0  0  0  0  0  0
  149.5282  139.5650  157.1173 C   0  0  0  0  0  0  0  0  0  0  0  0
  150.4130  140.4174  156.4159 C   0  0  0  0  0  0  0  0  0  0  0  0
  151.1664  141.3866  157.1133 N   0  0  0  0  0  0  0  0  0  0  0  0
  151.6561  141.0362  158.4494 C   0  0  0  0  0  0  0  0  0  0  0  0
  152.7556  142.0074  158.9118 C   0  0  0  0  0  0  0  0  0  0  0  0
  152.2793  143.4645  158.8211 C   0  0  0  0  0  0  0  0  0  0  0  0
  151.7872  143.7682  157.3984 C   0  0  0  0  0  0  0  0  0  0  0  0
  150.7035  142.7676  156.9614 C   0  0  0  0  0  0  0  0  0  0  0  0
  150.5628  140.3305  155.0715 N   0  0  0  0  0  0  0  0  0  0  0  0
  149.8524  139.4055  154.3935 C   0  0  0  0  0  0  0  0  0  0  0  0
  146.7877  136.1534  153.3541 N   0  0  0  0  0  0  0  0  0  0  0  0
  145.5580  135.3742  153.2390 C   0  0  1  0  0  0  0  0  0  0  0  0
  144.3191  136.2459  152.9672 C   0  0  0  0  0  0  0  0  0  0  0  0
  143.4485  135.4274  151.9932 C   0  0  0  0  0  0  0  0  0  0  0  0
  144.1477  134.1383  151.8322 N   0  3  1  0  0  0  0  0  0  0  0  0
  143.8851  133.3793  150.5900 C   0  0  0  0  0  0  0  0  0  0  0  0
  144.6320  132.0320  150.6511 C   0  0  0  0  0  0  0  0  0  0  0  0
  146.1328  132.2236  150.9501 C   0  0  0  0  0  0  0  0  0  0  0  0
  146.3447  133.1005  152.1993 C   0  0  0  0  0  0  0  0  0  0  0  0
  145.5760  134.4236  152.0386 C   0  0  2  0  0  0  0  0  0  0  0  0
  148.7538  137.3438  153.3163 H   0  0  0  0  0  0  0  0  0  0  0  0
  148.1291  137.9470  156.9537 H   0  0  0  0  0  0  0  0  0  0  0  0
  149.4032  139.6445  158.1870 H   0  0  0  0  0  0  0  0  0  0  0  0
  150.8222  141.0555  159.1524 H   0  0  0  0  0  0  0  0  0  0  0  0
  152.0558  140.0213  158.4496 H   0  0  0  0  0  0  0  0  0  0  0  0
  153.0546  141.7733  159.9339 H   0  0  0  0  0  0  0  0  0  0  0  0
  153.6429  141.8749  158.2911 H   0  0  0  0  0  0  0  0  0  0  0  0
  151.4722  143.6338  159.5351 H   0  0  0  0  0  0  0  0  0  0  0  0
  153.0878  144.1432  159.0937 H   0  0  0  0  0  0  0  0  0  0  0  0
  151.3981  144.7853  157.3459 H   0  0  0  0  0  0  0  0  0  0  0  0
  152.6269  143.7213  156.7036 H   0  0  0  0  0  0  0  0  0  0  0  0
  150.4156  142.9868  155.9340 H   0  0  0  0  0  0  0  0  0  0  0  0
  149.8085  142.9018  157.5702 H   0  0  0  0  0  0  0  0  0  0  0  0
  150.0159  139.3763  153.3260 H   0  0  0  0  0  0  0  0  0  0  0  0
  147.4777  136.0284  152.6275 H   0  0  0  0  0  0  0  0  0  0  0  0
  145.3799  134.8031  154.1528 H   0  0  0  0  0  0  0  0  0  0  0  0
  143.7889  136.4736  153.8928 H   0  0  0  0  0  0  0  0  0  0  0  0
  144.5931  137.1958  152.5054 H   0  0  0  0  0  0  0  0  0  0  0  0
  142.4364  135.2729  152.3683 H   0  0  0  0  0  0  0  0  0  0  0  0
  143.3794  135.9403  151.0325 H   0  0  0  0  0  0  0  0  0  0  0  0
  142.8130  133.2111  150.4833 H   0  0  0  0  0  0  0  0  0  0  0  0
  144.2102  133.9583  149.7241 H   0  0  0  0  0  0  0  0  0  0  0  0
  144.1883  131.4093  151.4293 H   0  0  0  0  0  0  0  0  0  0  0  0
  144.5035  131.4902  149.7136 H   0  0  0  0  0  0  0  0  0  0  0  0
  146.6160  131.2554  151.0845 H   0  0  0  0  0  0  0  0  0  0  0  0
  146.6154  132.6930  150.0919 H   0  0  0  0  0  0  0  0  0  0  0  0
  146.0018  132.5709  153.0890 H   0  0  0  0  0  0  0  0  0  0  0  0
  147.4088  133.2923  152.3388 H   0  0  0  0  0  0  0  0  0  0  0  0
  145.9536  134.9583  151.1638 H   0  0  0  0  0  0  0  0  0  0  0  0
  143.8593  133.5571  152.6064 H   0  0  0  0  0  0  0  0  0  0  0  0
  1  2  2  0  0  0  0
  2  3  1  0  0  0  0
  2 16  1  0  0  0  0
  3  4  1  0  0  0  0
  3 26  1  0  0  0  0
  4 15  1  0  0  0  0
  4  5  2  0  0  0  0
  5  6  1  0  0  0  0
  5 27  1  0  0  0  0
  6  7  2  0  0  0  0
  6 28  1  0  0  0  0
  7  8  1  0  0  0  0
  7 14  1  0  0  0  0
  8 13  1  0  0  0  0
  8  9  1  0  0  0  0
  9 10  1  0  0  0  0
  9 29  1  0  0  0  0
  9 30  1  0  0  0  0
 10 11  1  0  0  0  0
 10 31  1  0  0  0  0
 10 32  1  0  0  0  0
 11 12  1  0  0  0  0
 11 33  1  0  0  0  0
 11 34  1  0  0  0  0
 12 13  1  0  0  0  0
 12 35  1  0  0  0  0
 12 36  1  0  0  0  0
 13 37  1  0  0  0  0
 13 38  1  0  0  0  0
 14 15  2  0  0  0  0
 15 39  1  0  0  0  0
 16 17  1  0  0  0  0
 16 40  1  0  0  0  0
 17 25  1  0  0  0  0
 17 18  1  0  0  0  0
 17 41  1  0  0  0  0
 18 19  1  0  0  0  0
 18 42  1  0  0  0  0
 18 43  1  0  0  0  0
 19 20  1  0  0  0  0
 19 44  1  0  0  0  0
 19 45  1  0  0  0  0
 20 25  1  0  0  0  0
 20 21  1  0  0  0  0
 20 55  1  0  0  0  0
 21 22  1  0  0  0  0
 21 46  1  0  0  0  0
 21 47  1  0  0  0  0
 22 23  1  0  0  0  0
 22 48  1  0  0  0  0
 22 49  1  0  0  0  0
 23 24  1  0  0  0  0
 23 50  1  0  0  0  0
 23 51  1  0  0  0  0
 24 25  1  0  0  0  0
 24 52  1  0  0  0  0
 24 53  1  0  0  0  0
 25 54  1  0  0  0  0
M  CHG  1  20   1
M  END
> <s_m_source_file>
AV-unprocessed.smi

> <i_m_source_file_index>
1645

> <i_lp_mmshare_version>
43012

> <i_f3d_flags>
0

> <s_epik_input>
W0NIMl0xW0NIMl1bQ0gyXVtDSDJdW0NASF0oTjEyKVtDQEBIXShbQ0gyXVtDSDJdMilbTkhdQyg9TylbTkhdYzNbY0hdW2NIXWMobltjSF0zKU40W0NIMl1bQ0gyXVtDSDJdW0NIMl1bQ0gyXTQ=

> <s_epik_cmdline>
J2VwaWtfcHl0aG9uJywgJy1waCcsICc3LjAnLCAnLXRuJywgJzgnLCAnLW1hJywgJzIwMCcsICctbWV0YWxfYmluZGluZycsICctaW1hZScsICc8aW5maWxlLm1hZT4nLCAnLW9tYWUnLCAnPG91dGZpbGUubWFlPic=

> <r_lp_tautomer_probability>
1

> <r_epik_Ionization_Penalty>
0.0808019

> <r_epik_Ionization_Penalty_Charging>
0.000974069

> <r_epik_Ionization_Penalty_Neutral>
0.0798278

> <r_epik_State_Penalty>
0.0653665

> <r_epik_Charging_Adjusted_Penalty>
0.0663406

> <i_epik_Tot_Q>
1

> <i_epik_Tot_abs_Q>
1

> <r_epik_Metal_State_Penalty>
0.0585673

> <b_epik_Metal_Only>
0

> <s_lp_Force_Field>
OPLS_2005

> <r_lp_Energy>
50.6971

> <b_lp_Chiralities_Consistent>
1

> <s_lp_Variant>
AV-unprocessed.smi:1645-8

> <Gold.Version>
5.8.1

> <Gold.Id.Protein>
6NUR|6NUR_protein|mol2

> <Gold.PLP.Fitness>
47.1626

> <Gold.PLP.PLP>
-36.9273

> <Gold.PLP.part.hbond>
-3.0000

> <Gold.PLP.part.metal>
0.0000

> <Gold.PLP.part.buried>
-4.3521

> <Gold.PLP.part.nonpolar>
-30.1803

> <Gold.PLP.part.repulsive>
0.1203

> <Gold.PLP.ligand.clash>
0.0000

> <Gold.PLP.ligand.torsion>
0.7256

> <Gold.PLP.Chemscore.Hbond>
2.7500

> <Gold.PLP.Chemscore.CHOScore>
1.0000

> <Gold.PLP.Chemscore.Metal>
0.0000

> <Gold.Chemscore.Hbonds>
donor molecule, donor type, donor heavy atom, donor atom, acceptor molecule, acceptor atom, score
      L1  H     3    26       P1  7948  1.00
      L1  H    16    40       P1  7948  1.00
      P1  H  7989  7998       L1    14  0.70
      L1  C    15    39       P1  7957  1.00

> <Gold.PLP.Chemscore.Internal.Correction>
0.4364

> <Gold.Rescore>
     Score         DG    S(hbond)    S(metal)    S(lipo)     H(rot)  DE(clash)    DE(int)     intcor
     20.97     -21.89       2.05        0.00     107.53       1.17       0.18       0.74       ----

> <Gold.Chemscore.Fitness>
20.9699

> <Gold.Chemscore.DG>
-21.8891

> <Gold.Chemscore.ZeroCoef>
-5.4800

> <Gold.Chemscore.Hbond>
2.0453

> <Gold.Chemscore.Metal>
0.0000

> <Gold.Chemscore.Lipo>
107.5308

> <Gold.Chemscore.Internal_Hbond>
0.0000

> <Gold.Chemscore.DEClash>
0.1815

> <Gold.Chemscore.DEInternal>
0.7377

> <Gold.Chemscore.Rot>
1.1731

> <Gold.Chemscore.Internal.Correction>
   9.000000E+99

> <Gold.Chemscore.Hbonds>
donor molecule, donor type, donor heavy atom, donor atom, acceptor molecule, acceptor atom, score
      L1  H     3    26       P1  7948  0.95
      L1  H    16    40       P1  7948  0.99
      P1  H  7989  7998       L1    14  0.07

> <Gold.Chemscore.Hbond.Weighted>
-6.8312

> <Gold.Chemscore.Metal.Weighted>
-0.0000

> <Gold.Chemscore.Lipo.Weighted>
-12.5811

> <Gold.Chemscore.Internal_Hbond.Weighted>
0.0000

> <Gold.Chemscore.DEClash.Weighted>
0.1815

> <Gold.Chemscore.DEInternal.Weighted>
0.7377

> <Gold.Chemscore.Rot.Weighted>
3.0032

> <Gold.Chemscore.Internal.Correction.Weighted>
   9.000000E+99

> <Gold.Protein.RotatedTorsions>
[ 6907 6896 6895 6894 ] final   95.88 input  -60.11 | X-H torsion
[ 7974 7965 7964 7962 ] final  -78.88 input  175.53 | X-H torsion
[ 8008 7997 7996 7995 ] final   27.11 input   59.86 | X-H torsion
[ 10167 10162 10161 10158 ] final  -12.95 input  -65.29 | X-H torsion
[ 10718 10713 10712 10709 ] final   79.83 input   66.30 | X-H torsion
[ 10763 10752 10751 10750 ] final  143.40 input  -60.55 | X-H torsion
[ 11005 11000 10999 10996 ] final   57.94 input  -57.11 | X-H torsion

> <Gold.Protein.ActiveResidues>
 VAL166  LYS551  ARG553  GLY616  TRP617  ASP618  TYR619  PRO620  LYS621  CYS622 
 ASP623  PHE694  ASN695  SER759  ASP760  ASP761  ALA762  ILE779  LEU786  VAL792 
 PHE793  MET794  SER795  GLU796  ALA797  LYS798  CYS799  TRP800  GLU811  SER814 

> <Gold.Protein.RotatedAtoms>
  152.5440  134.0973  159.8302 H   0  0  0  0  0  0  0  0  0  0  0  0  # atno 6907 bound_to 6896
  151.1055  133.5204  159.2615 H   0  0  0  0  0  0  0  0  0  0  0  0  # atno 6908 bound_to 6896
  151.1943  135.0425  159.8900 H   0  0  0  0  0  0  0  0  0  0  0  0  # atno 6909 bound_to 6896
  145.5806  140.9449  143.1346 H   0  0  0  0  0  0  0  0  0  0  0  0  # atno 7974 bound_to 7965
  155.0378  140.3166  155.4735 H   0  0  0  0  0  0  0  0  0  0  0  0  # atno 8008 bound_to 7997
  156.2861  140.2168  156.5444 H   0  0  0  0  0  0  0  0  0  0  0  0  # atno 8009 bound_to 7997
  154.7316  140.0481  157.0719 H   0  0  0  0  0  0  0  0  0  0  0  0  # atno 8010 bound_to 7997
  140.7172  143.5478  150.9335 H   0  0  0  0  0  0  0  0  0  0  0  0  # atno 10167 bound_to 10162
  157.6788  130.9932  150.1991 H   0  0  0  0  0  0  0  0  0  0  0  0  # atno 10718 bound_to 10713
  153.9718  135.2950  155.3427 H   0  0  0  0  0  0  0  0  0  0  0  0  # atno 10763 bound_to 10752
  154.7318  135.5064  153.8980 H   0  0  0  0  0  0  0  0  0  0  0  0  # atno 10764 bound_to 10752
  153.0896  135.6704  153.9992 H   0  0  0  0  0  0  0  0  0  0  0  0  # atno 10765 bound_to 10752
  140.0415  134.5867  155.9376 H   0  0  0  0  0  0  0  0  0  0  0  0  # atno 11005 bound_to 11000
  144.7396  139.7488  143.7316 LP  0  0  0  0  0  0  0  0  0  0  0  0  # atno 17320 bound_to 7965
  146.1719  139.4873  142.9922 LP  0  0  0  0  0  0  0  0  0  0  0  0  # atno 17321 bound_to 7965
  139.9202  143.6615  152.3098 LP  0  0  0  0  0  0  0  0  0  0  0  0  # atno 17342 bound_to 10162
  139.7029  144.7632  151.1242 LP  0  0  0  0  0  0  0  0  0  0  0  0  # atno 17343 bound_to 10162
  156.2685  130.3719  149.8056 LP  0  0  0  0  0  0  0  0  0  0  0  0  # atno 17370 bound_to 10713
  156.5780  130.8453  151.3375 LP  0  0  0  0  0  0  0  0  0  0  0  0  # atno 17371 bound_to 10713
  141.1885  133.6563  156.5327 LP  0  0  0  0  0  0  0  0  0  0  0  0  # atno 17394 bound_to 11000
  140.4062  134.7313  157.4809 LP  0  0  0  0  0  0  0  0  0  0  0  0  # atno 17395 bound_to 11000

$$$$
