AV-unprocessed.smi:3157|AV-procd|sdf|12038|dock7
  -GOLD-   2272017463D 1   1.00000     0.00000
 Structure written by MMmdl.
 40 41  0  0  0  0  0  0  0  0  2 V2000
  149.0163  140.1650  157.3837 C   0  0  0  0  0  0  0  0  0  0  0  0
  148.8716  141.4436  156.5310 C   0  0  1  0  0  0  0  0  0  0  0  0
  149.5900  142.5664  157.1759 N   0  3  0  0  0  0  0  0  0  0  0  0
  150.9946  142.2896  157.5431 C   0  0  0  0  0  0  0  0  0  0  0  0
  151.5034  143.2957  158.5877 C   0  0  0  0  0  0  0  0  0  0  0  0
  150.3944  143.9490  159.4218 C   0  0  0  0  0  0  0  0  0  0  0  0
  150.9818  145.2721  159.9321 C   0  0  0  0  0  0  0  0  0  0  0  0
  152.2318  145.5488  159.0841 C   0  0  0  0  0  0  0  0  0  0  0  0
  152.2271  144.4957  157.9742 C   0  0  0  0  0  0  0  0  0  0  0  0
  149.3829  141.2619  155.0778 C   0  0  2  0  0  0  0  0  0  0  0  0
  148.2363  141.1603  154.0547 C   0  0  0  0  0  0  0  0  0  0  0  0
  150.2643  140.1076  154.9481 N   0  0  0  0  0  0  0  0  0  0  0  0
  151.4819  139.8756  155.5574 C   0  0  0  0  0  0  0  0  0  0  0  0
  151.9352  138.6654  155.1170 C   0  0  0  0  0  0  0  0  0  0  0  0
  150.9151  138.2256  154.2285 C   0  0  0  0  0  0  0  0  0  0  0  0
  149.9187  139.0904  154.1288 N   0  0  0  0  0  0  0  0  0  0  0  0
  148.4270  139.3407  156.9816 H   0  0  0  0  0  0  0  0  0  0  0  0
  148.6751  140.3174  158.4071 H   0  0  0  0  0  0  0  0  0  0  0  0
  150.0555  139.8370  157.4273 H   0  0  0  0  0  0  0  0  0  0  0  0
  147.8120  141.6999  156.4806 H   0  0  0  0  0  0  0  0  0  0  0  0
  149.5548  143.3693  156.5641 H   0  0  0  0  0  0  0  0  0  0  0  0
  151.0545  141.2794  157.9502 H   0  0  0  0  0  0  0  0  0  0  0  0
  151.6325  142.3143  156.6598 H   0  0  0  0  0  0  0  0  0  0  0  0
  152.1994  142.7946  159.2630 H   0  0  0  0  0  0  0  0  0  0  0  0
  149.5294  144.1610  158.7914 H   0  0  0  0  0  0  0  0  0  0  0  0
  150.0553  143.3075  160.2356 H   0  0  0  0  0  0  0  0  0  0  0  0
  150.2528  146.0782  159.8412 H   0  0  0  0  0  0  0  0  0  0  0  0
  151.2522  145.1965  160.9859 H   0  0  0  0  0  0  0  0  0  0  0  0
  152.2456  146.5632  158.6840 H   0  0  0  0  0  0  0  0  0  0  0  0
  153.1239  145.4288  159.7003 H   0  0  0  0  0  0  0  0  0  0  0  0
  153.2322  144.2491  157.6305 H   0  0  0  0  0  0  0  0  0  0  0  0
  151.6670  144.8723  157.1172 H   0  0  0  0  0  0  0  0  0  0  0  0
  149.9699  142.1461  154.8195 H   0  0  0  0  0  0  0  0  0  0  0  0
  147.6211  142.0601  154.0507 H   0  0  0  0  0  0  0  0  0  0  0  0
  147.5826  140.3138  154.2678 H   0  0  0  0  0  0  0  0  0  0  0  0
  148.6257  141.0320  153.0441 H   0  0  0  0  0  0  0  0  0  0  0  0
  151.9213  140.5837  156.2444 H   0  0  0  0  0  0  0  0  0  0  0  0
  152.8558  138.1696  155.3876 H   0  0  0  0  0  0  0  0  0  0  0  0
  150.8700  137.3108  153.6559 H   0  0  0  0  0  0  0  0  0  0  0  0
  149.1001  142.7947  158.0293 H   0  0  0  0  0  0  0  0  0  0  0  0
  1  2  1  0  0  0  0
  1 17  1  0  0  0  0
  1 18  1  0  0  0  0
  1 19  1  0  0  0  0
  2  3  1  0  0  0  0
  2 10  1  0  0  0  0
  2 20  1  0  0  0  0
  3  4  1  0  0  0  0
  3 21  1  0  0  0  0
  3 40  1  0  0  0  0
  4  5  1  0  0  0  0
  4 22  1  0  0  0  0
  4 23  1  0  0  0  0
  5  9  1  0  0  0  0
  5  6  1  0  0  0  0
  5 24  1  0  0  0  0
  6  7  1  0  0  0  0
  6 25  1  0  0  0  0
  6 26  1  0  0  0  0
  7  8  1  0  0  0  0
  7 27  1  0  0  0  0
  7 28  1  0  0  0  0
  8  9  1  0  0  0  0
  8 29  1  0  0  0  0
  8 30  1  0  0  0  0
  9 31  1  0  0  0  0
  9 32  1  0  0  0  0
 10 11  1  0  0  0  0
 10 12  1  0  0  0  0
 10 33  1  0  0  0  0
 11 34  1  0  0  0  0
 11 35  1  0  0  0  0
 11 36  1  0  0  0  0
 12 16  1  0  0  0  0
 12 13  1  0  0  0  0
 13 14  2  0  0  0  0
 13 37  1  0  0  0  0
 14 15  1  0  0  0  0
 14 38  1  0  0  0  0
 15 16  2  0  0  0  0
 15 39  1  0  0  0  0
M  CHG  1   3   1
M  END
> <s_m_source_file>
AV-unprocessed.smi

> <i_m_source_file_index>
3157

> <i_lp_mmshare_version>
43012

> <i_f3d_flags>
0

> <s_epik_input>
bjFbY0hdW2NIXVtjSF1uMVtDQEBIXShbQ0gzXSlbQ0BIXShbQ0gzXSlbTkhdW0NIMl1bQ0hdMltDSDJdW0NIMl1bQ0gyXVtDSDJdMg==

> <s_epik_cmdline>
J2VwaWtfcHl0aG9uJywgJy1waCcsICc3LjAnLCAnLXRuJywgJzgnLCAnLW1hJywgJzIwMCcsICctbWV0YWxfYmluZGluZycsICctaW1hZScsICc8aW5maWxlLm1hZT4nLCAnLW9tYWUnLCAnPG91dGZpbGUubWFlPic=

> <r_lp_tautomer_probability>
1

> <r_epik_Ionization_Penalty>
0.00132192

> <r_epik_Ionization_Penalty_Charging>
0.0013111

> <r_epik_Ionization_Penalty_Neutral>
1.08112e-05

> <r_epik_State_Penalty>
-0

> <r_epik_Charging_Adjusted_Penalty>
0.0013111

> <i_epik_Tot_Q>
1

> <i_epik_Tot_abs_Q>
1

> <r_epik_Metal_State_Penalty>
-0

> <b_epik_Metal_Only>
0

> <s_lp_Force_Field>
OPLS_2005

> <r_lp_Energy>
32.0676

> <b_lp_Chiralities_Consistent>
1

> <s_lp_Variant>
AV-unprocessed.smi:3157-2

> <Gold.Version>
5.8.1

> <Gold.Id.Protein>
6NUR|6NUR_protein|mol2

> <Gold.PLP.Fitness>
45.3043

> <Gold.PLP.PLP>
-39.8046

> <Gold.PLP.part.hbond>
-1.0000

> <Gold.PLP.part.metal>
0.0000

> <Gold.PLP.part.buried>
-4.0688

> <Gold.PLP.part.nonpolar>
-34.7993

> <Gold.PLP.part.repulsive>
0.4399

> <Gold.PLP.ligand.clash>
0.0000

> <Gold.PLP.ligand.torsion>
1.9598

> <Gold.PLP.Chemscore.Hbond>
2.0000

> <Gold.PLP.Chemscore.CHOScore>
1.1118

> <Gold.PLP.Chemscore.Metal>
0.0000

> <Gold.Chemscore.Hbonds>
donor molecule, donor type, donor heavy atom, donor atom, acceptor molecule, acceptor atom, score
      L1  H     3    21       P1  8028  2.00
      L1  C    15    39       P1  7948  0.15
      L1  C    15    39       P1  7949  0.88

> <Gold.PLP.Chemscore.Internal.Correction>
0.0837

> <Gold.Rescore>
     Score         DG    S(hbond)    S(metal)    S(lipo)     H(rot)  DE(clash)    DE(int)     intcor
     15.93     -17.99       1.00        0.00     111.33       1.50       0.09       1.98       ----

> <Gold.Chemscore.Fitness>
15.9264

> <Gold.Chemscore.DG>
-17.9911

> <Gold.Chemscore.ZeroCoef>
-5.4800

> <Gold.Chemscore.Hbond>
0.9992

> <Gold.Chemscore.Metal>
0.0000

> <Gold.Chemscore.Lipo>
111.3320

> <Gold.Chemscore.Internal_Hbond>
0.0000

> <Gold.Chemscore.DEClash>
0.0859

> <Gold.Chemscore.DEInternal>
1.9787

> <Gold.Chemscore.Rot>
1.5047

> <Gold.Chemscore.Internal.Correction>
   9.000000E+99

> <Gold.Chemscore.Hbonds>
donor molecule, donor type, donor heavy atom, donor atom, acceptor molecule, acceptor atom, score
      L1  H     3    21       P1  8028  0.99

> <Gold.Chemscore.Hbond.Weighted>
-3.3372

> <Gold.Chemscore.Metal.Weighted>
-0.0000

> <Gold.Chemscore.Lipo.Weighted>
-13.0258

> <Gold.Chemscore.Internal_Hbond.Weighted>
0.0000

> <Gold.Chemscore.DEClash.Weighted>
0.0859

> <Gold.Chemscore.DEInternal.Weighted>
1.9787

> <Gold.Chemscore.Rot.Weighted>
3.8520

> <Gold.Chemscore.Internal.Correction.Weighted>
   9.000000E+99

> <Gold.Protein.RotatedTorsions>
[ 6907 6896 6895 6894 ] final -155.38 input  -60.11 | X-H torsion
[ 7974 7965 7964 7962 ] final -113.82 input  175.53 | X-H torsion
[ 8008 7997 7996 7995 ] final  135.23 input   59.86 | X-H torsion
[ 10167 10162 10161 10158 ] final   55.01 input  -65.29 | X-H torsion
[ 10718 10713 10712 10709 ] final  -15.84 input   66.30 | X-H torsion
[ 10763 10752 10751 10750 ] final -137.50 input  -60.55 | X-H torsion
[ 11005 11000 10999 10996 ] final  -24.11 input  -57.11 | X-H torsion

> <Gold.Protein.ActiveResidues>
 VAL166  LYS551  ARG553  GLY616  TRP617  ASP618  TYR619  PRO620  LYS621  CYS622 
 ASP623  PHE694  ASN695  SER759  ASP760  ASP761  ALA762  ILE779  LEU786  VAL792 
 PHE793  MET794  SER795  GLU796  ALA797  LYS798  CYS799  TRP800  GLU811  SER814 

> <Gold.Protein.RotatedAtoms>
  151.2716  133.4252  159.2621 H   0  0  0  0  0  0  0  0  0  0  0  0  # atno 6907 bound_to 6896
  151.0440  134.9627  159.8187 H   0  0  0  0  0  0  0  0  0  0  0  0  # atno 6908 bound_to 6896
  152.5370  134.2673  159.9011 H   0  0  0  0  0  0  0  0  0  0  0  0  # atno 6909 bound_to 6896
  145.1275  140.8705  143.3777 H   0  0  0  0  0  0  0  0  0  0  0  0  # atno 7974 bound_to 7965
  156.3002  140.2476  156.3546 H   0  0  0  0  0  0  0  0  0  0  0  0  # atno 8008 bound_to 7997
  154.8933  140.0408  157.1870 H   0  0  0  0  0  0  0  0  0  0  0  0  # atno 8009 bound_to 7997
  154.8575  140.2915  155.5564 H   0  0  0  0  0  0  0  0  0  0  0  0  # atno 8010 bound_to 7997
  140.2240  144.3758  150.6439 H   0  0  0  0  0  0  0  0  0  0  0  0  # atno 10167 bound_to 10162
  156.5961  130.4812  149.6259 H   0  0  0  0  0  0  0  0  0  0  0  0  # atno 10718 bound_to 10713
  154.8660  135.3640  154.5233 H   0  0  0  0  0  0  0  0  0  0  0  0  # atno 10763 bound_to 10752
  153.5862  135.7017  153.5447 H   0  0  0  0  0  0  0  0  0  0  0  0  # atno 10764 bound_to 10752
  153.3413  135.4097  155.1536 H   0  0  0  0  0  0  0  0  0  0  0  0  # atno 10765 bound_to 10752
  140.8814  133.7651  156.0307 H   0  0  0  0  0  0  0  0  0  0  0  0  # atno 11005 bound_to 11000
  145.0672  139.3059  143.5850 LP  0  0  0  0  0  0  0  0  0  0  0  0  # atno 17320 bound_to 7965
  146.3516  140.0134  142.8665 LP  0  0  0  0  0  0  0  0  0  0  0  0  # atno 17321 bound_to 7965
  140.6234  143.2178  151.6647 LP  0  0  0  0  0  0  0  0  0  0  0  0  # atno 17342 bound_to 10162
  139.5134  144.3445  152.0709 LP  0  0  0  0  0  0  0  0  0  0  0  0  # atno 17343 bound_to 10162
  156.2508  130.6906  151.1643 LP  0  0  0  0  0  0  0  0  0  0  0  0  # atno 17370 bound_to 10713
  157.7291  131.0626  150.5788 LP  0  0  0  0  0  0  0  0  0  0  0  0  # atno 17371 bound_to 10713
  140.8456  134.3014  157.5296 LP  0  0  0  0  0  0  0  0  0  0  0  0  # atno 17394 bound_to 11000
  139.8720  134.9440  156.3869 LP  0  0  0  0  0  0  0  0  0  0  0  0  # atno 17395 bound_to 11000

$$$$
