AV-unprocessed.smi:3031|AV-procd|sdf|11544|dock7
  -GOLD-   2272016493D 1   1.00000     0.00000
 Structure written by MMmdl.
 47 48  0  0  0  0  0  0  0  0  2 V2000
  144.2286  131.5370  150.8267 C   0  0  0  0  0  0  0  0  0  0  0  0
  144.3029  132.9636  151.2889 C   0  0  0  0  0  0  0  0  0  0  0  0
  143.5286  133.5918  152.3056 C   0  0  0  0  0  0  0  0  0  0  0  0
  143.8326  134.8693  152.4674 N   0  0  0  0  0  0  0  0  0  0  0  0
  144.8100  135.1002  151.5660 N   0  0  0  0  0  0  0  0  0  0  0  0
  145.3869  136.4270  151.4530 C   0  0  0  0  0  0  0  0  0  0  0  0
  145.8695  136.9976  152.8053 C   0  0  1  0  0  0  0  0  0  0  0  0
  146.2001  135.8605  153.7813 C   0  0  0  0  0  0  0  0  0  0  0  0
  147.0649  137.8540  152.6304 N   0  3  0  0  0  0  0  0  0  0  0  0
  147.4966  138.5950  153.8360 C   0  0  0  0  0  0  0  0  0  0  0  0
  148.3376  139.8254  153.4577 C   0  0  1  0  0  0  0  0  0  0  0  0
  147.4782  140.7420  152.8060 O   0  0  0  0  0  0  0  0  0  0  0  0
  148.9445  140.5157  154.6984 C   0  0  0  0  0  0  0  0  0  0  0  0
  150.1340  139.8692  155.2520 N   0  0  0  0  0  0  0  0  0  0  0  0
  150.9263  140.8135  156.0336 C   0  0  0  0  0  0  0  0  0  0  0  0
  152.1830  140.1567  156.6302 C   0  0  0  0  0  0  0  0  0  0  0  0
  152.9645  139.5892  155.5843 O   0  0  0  0  0  0  0  0  0  0  0  0
  152.2445  138.6254  154.8230 C   0  0  0  0  0  0  0  0  0  0  0  0
  150.9849  139.2745  154.2232 C   0  0  0  0  0  0  0  0  0  0  0  0
  145.1198  133.9653  150.8466 C   0  0  0  0  0  0  0  0  0  0  0  0
  144.4574  130.8414  151.6341 H   0  0  0  0  0  0  0  0  0  0  0  0
  144.9316  131.3335  150.0187 H   0  0  0  0  0  0  0  0  0  0  0  0
  143.2340  131.2856  150.4578 H   0  0  0  0  0  0  0  0  0  0  0  0
  142.7559  133.1599  152.9246 H   0  0  0  0  0  0  0  0  0  0  0  0
  146.2203  136.3698  150.7513 H   0  0  0  0  0  0  0  0  0  0  0  0
  144.6484  137.0906  151.0006 H   0  0  0  0  0  0  0  0  0  0  0  0
  145.0703  137.5874  153.2577 H   0  0  0  0  0  0  0  0  0  0  0  0
  145.3288  135.2285  153.9568 H   0  0  0  0  0  0  0  0  0  0  0  0
  146.5204  136.2512  154.7476 H   0  0  0  0  0  0  0  0  0  0  0  0
  146.9988  135.2249  153.3972 H   0  0  0  0  0  0  0  0  0  0  0  0
  147.8361  137.2653  152.3497 H   0  0  0  0  0  0  0  0  0  0  0  0
  146.6407  138.9009  154.4363 H   0  0  0  0  0  0  0  0  0  0  0  0
  148.0839  137.9141  154.4532 H   0  0  0  0  0  0  0  0  0  0  0  0
  149.1309  139.5191  152.7738 H   0  0  0  0  0  0  0  0  0  0  0  0
  147.8900  141.5930  152.8029 H   0  0  0  0  0  0  0  0  0  0  0  0
  149.1420  141.5694  154.4931 H   0  0  0  0  0  0  0  0  0  0  0  0
  148.1824  140.5148  155.4788 H   0  0  0  0  0  0  0  0  0  0  0  0
  151.2251  141.6542  155.4057 H   0  0  0  0  0  0  0  0  0  0  0  0
  150.3206  141.2275  156.8405 H   0  0  0  0  0  0  0  0  0  0  0  0
  152.7818  140.8964  157.1618 H   0  0  0  0  0  0  0  0  0  0  0  0
  151.9109  139.3849  157.3518 H   0  0  0  0  0  0  0  0  0  0  0  0
  152.8880  138.2428  154.0308 H   0  0  0  0  0  0  0  0  0  0  0  0
  151.9776  137.7780  155.4562 H   0  0  0  0  0  0  0  0  0  0  0  0
  150.4331  138.5152  153.6698 H   0  0  0  0  0  0  0  0  0  0  0  0
  151.2802  140.0368  153.5007 H   0  0  0  0  0  0  0  0  0  0  0  0
  145.8812  133.9662  150.0803 H   0  0  0  0  0  0  0  0  0  0  0  0
  146.8823  138.5134  151.8872 H   0  0  0  0  0  0  0  0  0  0  0  0
  1  2  1  0  0  0  0
  1 21  1  0  0  0  0
  1 22  1  0  0  0  0
  1 23  1  0  0  0  0
  2 20  2  0  0  0  0
  2  3  1  0  0  0  0
  3  4  2  0  0  0  0
  3 24  1  0  0  0  0
  4  5  1  0  0  0  0
  5  6  1  0  0  0  0
  5 20  1  0  0  0  0
  6  7  1  0  0  0  0
  6 25  1  0  0  0  0
  6 26  1  0  0  0  0
  7  8  1  0  0  0  0
  7  9  1  0  0  0  0
  7 27  1  0  0  0  0
  8 28  1  0  0  0  0
  8 29  1  0  0  0  0
  8 30  1  0  0  0  0
  9 10  1  0  0  0  0
  9 31  1  0  0  0  0
  9 47  1  0  0  0  0
 10 11  1  0  0  0  0
 10 32  1  0  0  0  0
 10 33  1  0  0  0  0
 11 12  1  0  0  0  0
 11 13  1  0  0  0  0
 11 34  1  0  0  0  0
 12 35  1  0  0  0  0
 13 14  1  0  0  0  0
 13 36  1  0  0  0  0
 13 37  1  0  0  0  0
 14 19  1  0  0  0  0
 14 15  1  0  0  0  0
 15 16  1  0  0  0  0
 15 38  1  0  0  0  0
 15 39  1  0  0  0  0
 16 17  1  0  0  0  0
 16 40  1  0  0  0  0
 16 41  1  0  0  0  0
 17 18  1  0  0  0  0
 18 19  1  0  0  0  0
 18 42  1  0  0  0  0
 18 43  1  0  0  0  0
 19 44  1  0  0  0  0
 19 45  1  0  0  0  0
 20 46  1  0  0  0  0
M  CHG  1   9   1
M  END
> <s_m_source_file>
AV-unprocessed.smi

> <i_m_source_file_index>
3031

> <i_lp_mmshare_version>
43012

> <i_f3d_flags>
0

> <s_epik_input>
W0NIM11jMVtjSF1ubihbY0hdMSlbQ0gyXVtDQEhdKFtDSDNdKVtOSF1bQ0gyXVtDQEhdKFtPSF0pW0NIMl1OMltDSDJdW0NIMl1PW0NIMl1bQ0gyXTI=

> <s_epik_cmdline>
J2VwaWtfcHl0aG9uJywgJy1waCcsICc3LjAnLCAnLXRuJywgJzgnLCAnLW1hJywgJzIwMCcsICctbWV0YWxfYmluZGluZycsICctaW1hZScsICc8aW5maWxlLm1hZT4nLCAnLW9tYWUnLCAnPG91dGZpbGUubWFlPic=

> <r_lp_tautomer_probability>
1

> <r_epik_Ionization_Penalty>
0.108564

> <r_epik_Ionization_Penalty_Charging>
0.01811

> <r_epik_Ionization_Penalty_Neutral>
0.0904541

> <r_epik_State_Penalty>
0.141043

> <r_epik_Charging_Adjusted_Penalty>
0.159153

> <i_epik_Tot_Q>
1

> <i_epik_Tot_abs_Q>
1

> <r_epik_Metal_State_Penalty>
0.141052

> <b_epik_Metal_Only>
0

> <s_lp_Force_Field>
OPLS_2005

> <r_lp_Energy>
31.0841

> <b_lp_Chiralities_Consistent>
1

> <s_lp_Variant>
AV-unprocessed.smi:3031-4

> <Gold.Version>
5.8.1

> <Gold.Id.Protein>
6NUR|6NUR_protein|mol2

> <Gold.PLP.Fitness>
45.3716

> <Gold.PLP.PLP>
-32.4759

> <Gold.PLP.part.hbond>
-3.0000

> <Gold.PLP.part.metal>
0.0000

> <Gold.PLP.part.buried>
-0.5073

> <Gold.PLP.part.nonpolar>
-29.6648

> <Gold.PLP.part.repulsive>
0.2179

> <Gold.PLP.ligand.clash>
0.0000

> <Gold.PLP.ligand.torsion>
1.0954

> <Gold.PLP.Chemscore.Hbond>
3.0000

> <Gold.PLP.Chemscore.CHOScore>
1.9894

> <Gold.PLP.Chemscore.Metal>
0.0000

> <Gold.Chemscore.Hbonds>
donor molecule, donor type, donor heavy atom, donor atom, acceptor molecule, acceptor atom, score
      L1  H     9    31       P1  7948  2.00
      P1  H  7997  8008       L1    17  1.00
      L1  C     3    24       P1 10957  1.00
      L1  C    20    46       P1  7921  0.84

> <Gold.PLP.Chemscore.Internal.Correction>
0.1182

> <Gold.Rescore>
     Score         DG    S(hbond)    S(metal)    S(lipo)     H(rot)  DE(clash)    DE(int)     intcor
     14.15     -14.87       1.98        0.00      81.18       2.63       0.22       0.50       ----

> <Gold.Chemscore.Fitness>
14.1479

> <Gold.Chemscore.DG>
-14.8697

> <Gold.Chemscore.ZeroCoef>
-5.4800

> <Gold.Chemscore.Hbond>
1.9812

> <Gold.Chemscore.Metal>
0.0000

> <Gold.Chemscore.Lipo>
81.1759

> <Gold.Chemscore.Internal_Hbond>
0.0000

> <Gold.Chemscore.DEClash>
0.2227

> <Gold.Chemscore.DEInternal>
0.4991

> <Gold.Chemscore.Rot>
2.6270

> <Gold.Chemscore.Internal.Correction>
   9.000000E+99

> <Gold.Chemscore.Hbonds>
donor molecule, donor type, donor heavy atom, donor atom, acceptor molecule, acceptor atom, score
      L1  H     9    31       P1  7948  0.98
      P1  H  7997  8008       L1    17  0.39

> <Gold.Chemscore.Hbond.Weighted>
-6.6173

> <Gold.Chemscore.Metal.Weighted>
-0.0000

> <Gold.Chemscore.Lipo.Weighted>
-9.4976

> <Gold.Chemscore.Internal_Hbond.Weighted>
0.0000

> <Gold.Chemscore.DEClash.Weighted>
0.2227

> <Gold.Chemscore.DEInternal.Weighted>
0.4991

> <Gold.Chemscore.Rot.Weighted>
6.7251

> <Gold.Chemscore.Internal.Correction.Weighted>
   9.000000E+99

> <Gold.Protein.RotatedTorsions>
[ 6907 6896 6895 6894 ] final   59.24 input  -60.11 | X-H torsion
[ 7974 7965 7964 7962 ] final   26.61 input  175.53 | X-H torsion
[ 8008 7997 7996 7995 ] final  -14.05 input   59.86 | X-H torsion
[ 10167 10162 10161 10158 ] final  -45.54 input  -65.29 | X-H torsion
[ 10718 10713 10712 10709 ] final  -12.85 input   66.30 | X-H torsion
[ 10763 10752 10751 10750 ] final  -72.71 input  -60.55 | X-H torsion
[ 11005 11000 10999 10996 ] final   89.25 input  -57.11 | X-H torsion

> <Gold.Protein.ActiveResidues>
 VAL166  LYS551  ARG553  GLY616  TRP617  ASP618  TYR619  PRO620  LYS621  CYS622 
 ASP623  PHE694  ASN695  SER759  ASP760  ASP761  ALA762  ILE779  LEU786  VAL792 
 PHE793  MET794  SER795  GLU796  ALA797  LYS798  CYS799  TRP800  GLU811  SER814 

> <Gold.Protein.RotatedAtoms>
  152.3897  134.6461  160.0112 H   0  0  0  0  0  0  0  0  0  0  0  0  # atno 6907 bound_to 6896
  151.6699  133.3308  159.3202 H   0  0  0  0  0  0  0  0  0  0  0  0  # atno 6908 bound_to 6896
  150.7815  134.6808  159.6487 H   0  0  0  0  0  0  0  0  0  0  0  0  # atno 6909 bound_to 6896
  146.1828  139.7305  142.8888 H   0  0  0  0  0  0  0  0  0  0  0  0  # atno 7974 bound_to 7965
  154.5242  140.2233  155.8920 H   0  0  0  0  0  0  0  0  0  0  0  0  # atno 8008 bound_to 7997
  156.1695  140.3125  155.8913 H   0  0  0  0  0  0  0  0  0  0  0  0  # atno 8009 bound_to 7997
  155.3587  140.0460  157.3037 H   0  0  0  0  0  0  0  0  0  0  0  0  # atno 8010 bound_to 7997
  140.6854  143.2874  151.3654 H   0  0  0  0  0  0  0  0  0  0  0  0  # atno 10167 bound_to 10162
  156.6387  130.4922  149.6102 H   0  0  0  0  0  0  0  0  0  0  0  0  # atno 10718 bound_to 10713
  154.4495  135.5921  153.6182 H   0  0  0  0  0  0  0  0  0  0  0  0  # atno 10763 bound_to 10752
  152.9812  135.6017  154.3622 H   0  0  0  0  0  0  0  0  0  0  0  0  # atno 10764 bound_to 10752
  154.3482  135.2841  155.2365 H   0  0  0  0  0  0  0  0  0  0  0  0  # atno 10765 bound_to 10752
  139.8879  134.8539  156.3115 H   0  0  0  0  0  0  0  0  0  0  0  0  # atno 11005 bound_to 11000
  145.4025  141.0387  143.3062 LP  0  0  0  0  0  0  0  0  0  0  0  0  # atno 17320 bound_to 7965
  144.8345  139.5573  143.6928 LP  0  0  0  0  0  0  0  0  0  0  0  0  # atno 17321 bound_to 7965
  139.6208  144.0912  152.2389 LP  0  0  0  0  0  0  0  0  0  0  0  0  # atno 17342 bound_to 10162
  140.0355  144.6048  150.7453 LP  0  0  0  0  0  0  0  0  0  0  0  0  # atno 17343 bound_to 10162
  156.2176  130.6717  151.1335 LP  0  0  0  0  0  0  0  0  0  0  0  0  # atno 17370 bound_to 10713
  157.7178  131.0700  150.6260 LP  0  0  0  0  0  0  0  0  0  0  0  0  # atno 17371 bound_to 10713
  140.9847  133.7246  156.0724 LP  0  0  0  0  0  0  0  0  0  0  0  0  # atno 17394 bound_to 11000
  140.7704  134.3839  157.5509 LP  0  0  0  0  0  0  0  0  0  0  0  0  # atno 17395 bound_to 11000

$$$$
