AV-unprocessed.smi:686|AV-procd|sdf|3341|dock3
  -GOLD-   22720 0313D 1   1.00000     0.00000
 Structure written by MMmdl.
 41 42  0  0  0  0  0  0  0  0  2 V2000
  150.0990  132.6323  154.8092 C   0  0  0  0  0  0  0  0  0  0  0  0
  148.7434  133.3284  154.6062 C   0  0  2  0  0  0  0  0  0  0  0  0
  148.2198  133.3190  153.1678 C   0  0  0  0  0  0  0  0  0  0  0  0
  147.2689  134.4544  153.0636 N   0  3  1  0  0  0  0  0  0  0  0  0
  145.8708  134.1254  152.6670 C   0  0  0  0  0  0  0  0  0  0  0  0
  145.7745  133.1751  151.4543 C   0  0  0  0  0  0  0  0  0  0  0  0
  145.0522  135.4073  152.4456 C   0  0  0  0  0  0  0  0  0  0  0  0
  147.3992  135.2895  154.2847 C   0  0  0  0  0  0  0  0  0  0  0  0
  148.6593  134.8053  155.0105 C   0  0  2  0  0  0  0  0  0  0  0  0
  149.8292  135.5698  154.5598 N   0  0  0  0  0  0  0  0  0  0  0  0
  150.6233  136.6898  155.6062 S   0  0  0  0  0  0  0  0  0  0  0  0
  149.5912  137.2888  156.4658 O   0  0  0  0  0  0  0  0  0  0  0  0
  151.7673  135.9807  156.1998 O   0  0  0  0  0  0  0  0  0  0  0  0
  151.2366  137.9819  154.4312 C   0  0  0  0  0  0  0  0  0  0  0  0
  150.3291  139.1787  154.4402 C   0  0  0  0  0  0  0  0  0  0  0  0
  148.9302  139.2287  154.1863 C   0  0  0  0  0  0  0  0  0  0  0  0
  148.6283  140.5521  154.3321 C   0  0  0  0  0  0  0  0  0  0  0  0
  149.7403  141.2612  154.6509 O   0  0  0  0  0  0  0  0  0  0  0  0
  150.8211  140.3750  154.7199 N   0  0  0  0  0  0  0  0  0  0  0  0
  150.8861  133.0899  154.2093 H   0  0  0  0  0  0  0  0  0  0  0  0
  150.0407  131.5812  154.5266 H   0  0  0  0  0  0  0  0  0  0  0  0
  150.4068  132.6752  155.8540 H   0  0  0  0  0  0  0  0  0  0  0  0
  148.0122  132.7939  155.2150 H   0  0  0  0  0  0  0  0  0  0  0  0
  149.0372  133.5153  152.4729 H   0  0  0  0  0  0  0  0  0  0  0  0
  147.7975  132.3533  152.8917 H   0  0  0  0  0  0  0  0  0  0  0  0
  145.4216  133.6143  153.5202 H   0  0  0  0  0  0  0  0  0  0  0  0
  144.7365  132.8945  151.2728 H   0  0  0  0  0  0  0  0  0  0  0  0
  146.3300  132.2506  151.6075 H   0  0  0  0  0  0  0  0  0  0  0  0
  146.1427  133.6340  150.5372 H   0  0  0  0  0  0  0  0  0  0  0  0
  144.0064  135.1724  152.2451 H   0  0  0  0  0  0  0  0  0  0  0  0
  145.4252  135.9854  151.5998 H   0  0  0  0  0  0  0  0  0  0  0  0
  145.0796  136.0494  153.3266 H   0  0  0  0  0  0  0  0  0  0  0  0
  147.4332  136.3503  154.0332 H   0  0  0  0  0  0  0  0  0  0  0  0
  146.5398  135.1481  154.9398 H   0  0  0  0  0  0  0  0  0  0  0  0
  148.5559  134.9140  156.0909 H   0  0  0  0  0  0  0  0  0  0  0  0
  149.8494  135.8222  153.5719 H   0  0  0  0  0  0  0  0  0  0  0  0
  152.2500  138.2656  154.7122 H   0  0  0  0  0  0  0  0  0  0  0  0
  151.2915  137.5373  153.4368 H   0  0  0  0  0  0  0  0  0  0  0  0
  148.2558  138.4239  153.9351 H   0  0  0  0  0  0  0  0  0  0  0  0
  147.7127  141.1185  154.2471 H   0  0  0  0  0  0  0  0  0  0  0  0
  147.6300  135.0266  152.3137 H   0  0  0  0  0  0  0  0  0  0  0  0
  1  2  1  0  0  0  0
  1 20  1  0  0  0  0
  1 21  1  0  0  0  0
  1 22  1  0  0  0  0
  2  9  1  0  0  0  0
  2  3  1  0  0  0  0
  2 23  1  0  0  0  0
  3  4  1  0  0  0  0
  3 24  1  0  0  0  0
  3 25  1  0  0  0  0
  4  5  1  0  0  0  0
  4  8  1  0  0  0  0
  4 41  1  0  0  0  0
  5  6  1  0  0  0  0
  5  7  1  0  0  0  0
  5 26  1  0  0  0  0
  6 27  1  0  0  0  0
  6 28  1  0  0  0  0
  6 29  1  0  0  0  0
  7 30  1  0  0  0  0
  7 31  1  0  0  0  0
  7 32  1  0  0  0  0
  8  9  1  0  0  0  0
  8 33  1  0  0  0  0
  8 34  1  0  0  0  0
  9 10  1  0  0  0  0
  9 35  1  0  0  0  0
 10 11  1  0  0  0  0
 10 36  1  0  0  0  0
 11 12  2  0  0  0  0
 11 13  2  0  0  0  0
 11 14  1  0  0  0  0
 14 15  1  0  0  0  0
 14 37  1  0  0  0  0
 14 38  1  0  0  0  0
 15 19  2  0  0  0  0
 15 16  1  0  0  0  0
 16 17  2  0  0  0  0
 16 39  1  0  0  0  0
 17 18  1  0  0  0  0
 17 40  1  0  0  0  0
 18 19  1  0  0  0  0
M  CHG  1   4   1
M  END
> <s_m_source_file>
AV-unprocessed.smi

> <i_m_source_file_index>
686

> <i_lp_mmshare_version>
43012

> <i_f3d_flags>
0

> <s_epik_input>
W0NIM11bQ0BASF0xW0NIMl1OKFtDSF0oW0NIM10pW0NIM10pW0NIMl1bQ0BIXTFbTkhdUyg9TykoPU8pW0NIMl1jMltjSF1bY0hdb24y

> <s_epik_cmdline>
J2VwaWtfcHl0aG9uJywgJy1waCcsICc3LjAnLCAnLXRuJywgJzgnLCAnLW1hJywgJzIwMCcsICctbWV0YWxfYmluZGluZycsICctaW1hZScsICc8aW5maWxlLm1hZT4nLCAnLW9tYWUnLCAnPG91dGZpbGUubWFlPic=

> <r_epik_Ionization_Penalty>
0.00200818

> <r_epik_Ionization_Penalty_Charging>
0.000701289

> <r_epik_Ionization_Penalty_Neutral>
0.00130689

> <r_epik_State_Penalty>
0.00131314

> <r_epik_Charging_Adjusted_Penalty>
0.00201443

> <i_epik_Tot_Q>
1

> <i_epik_Tot_abs_Q>
1

> <r_epik_Metal_State_Penalty>
0.310831

> <b_epik_Metal_Only>
0

> <s_lp_Force_Field>
OPLS_2005

> <r_lp_Energy>
24.0056

> <b_lp_Chiralities_Consistent>
1

> <s_lp_Variant>
AV-unprocessed.smi:686-5

> <Gold.Version>
5.8.1

> <Gold.Id.Protein>
6NUR|6NUR_protein|mol2

> <Gold.PLP.Fitness>
42.3039

> <Gold.PLP.PLP>
-30.1813

> <Gold.PLP.part.hbond>
-4.9903

> <Gold.PLP.part.metal>
0.0000

> <Gold.PLP.part.buried>
-1.7591

> <Gold.PLP.part.nonpolar>
-23.0515

> <Gold.PLP.part.repulsive>
0.3012

> <Gold.PLP.ligand.clash>
0.0000

> <Gold.PLP.ligand.torsion>
1.1947

> <Gold.PLP.Chemscore.Hbond>
4.4420

> <Gold.PLP.Chemscore.CHOScore>
0.0000

> <Gold.PLP.Chemscore.Metal>
0.0000

> <Gold.Chemscore.Hbonds>
donor molecule, donor type, donor heavy atom, donor atom, acceptor molecule, acceptor atom, score
      L1  H     4    41       P1  7948  1.79
      L1  H    10    36       P1  7948  0.65
      P1  H  7989  7998       L1    19  0.95
      P1  H 10752 10765       L1    13  1.00

> <Gold.PLP.Chemscore.Internal.Correction>
1.1859

> <Gold.Rescore>
     Score         DG    S(hbond)    S(metal)    S(lipo)     H(rot)  DE(clash)    DE(int)     intcor
     15.90     -17.28       2.55        0.00      64.29       1.66       0.12       1.27       ----

> <Gold.Chemscore.Fitness>
15.8986

> <Gold.Chemscore.DG>
-17.2828

> <Gold.Chemscore.ZeroCoef>
-5.4800

> <Gold.Chemscore.Hbond>
2.5514

> <Gold.Chemscore.Metal>
0.0000

> <Gold.Chemscore.Lipo>
64.2923

> <Gold.Chemscore.Internal_Hbond>
0.0000

> <Gold.Chemscore.DEClash>
0.1172

> <Gold.Chemscore.DEInternal>
1.2670

> <Gold.Chemscore.Rot>
1.6567

> <Gold.Chemscore.Internal.Correction>
   9.000000E+99

> <Gold.Chemscore.Hbonds>
donor molecule, donor type, donor heavy atom, donor atom, acceptor molecule, acceptor atom, score
      L1  H     4    41       P1  7948  0.84
      L1  H    10    36       P1  7948  0.05
      P1  H  7989  7998       L1    19  0.14
      P1  H 10752 10765       L1    13  0.58

> <Gold.Chemscore.Hbond.Weighted>
-8.5218

> <Gold.Chemscore.Metal.Weighted>
-0.0000

> <Gold.Chemscore.Lipo.Weighted>
-7.5222

> <Gold.Chemscore.Internal_Hbond.Weighted>
0.0000

> <Gold.Chemscore.DEClash.Weighted>
0.1172

> <Gold.Chemscore.DEInternal.Weighted>
1.2670

> <Gold.Chemscore.Rot.Weighted>
4.2413

> <Gold.Chemscore.Internal.Correction.Weighted>
   9.000000E+99

> <Gold.Protein.RotatedTorsions>
[ 6907 6896 6895 6894 ] final  -48.53 input  -60.11 | X-H torsion
[ 7974 7965 7964 7962 ] final -144.74 input  175.53 | X-H torsion
[ 8008 7997 7996 7995 ] final -115.69 input   59.86 | X-H torsion
[ 10167 10162 10161 10158 ] final   -0.36 input  -65.29 | X-H torsion
[ 10718 10713 10712 10709 ] final    1.57 input   66.30 | X-H torsion
[ 10763 10752 10751 10750 ] final -171.29 input  -60.55 | X-H torsion
[ 11005 11000 10999 10996 ] final  130.84 input  -57.11 | X-H torsion

> <Gold.Protein.ActiveResidues>
 VAL166  LYS551  ARG553  GLY616  TRP617  ASP618  TYR619  PRO620  LYS621  CYS622 
 ASP623  PHE694  ASN695  SER759  ASP760  ASP761  ALA762  ILE779  LEU786  VAL792 
 PHE793  MET794  SER795  GLU796  ALA797  LYS798  CYS799  TRP800  GLU811  SER814 

> <Gold.Protein.RotatedAtoms>
  150.8896  134.8298  159.7283 H   0  0  0  0  0  0  0  0  0  0  0  0  # atno 6907 bound_to 6896
  152.4829  134.4669  159.9633 H   0  0  0  0  0  0  0  0  0  0  0  0  # atno 6908 bound_to 6896
  151.4733  133.3525  159.2862 H   0  0  0  0  0  0  0  0  0  0  0  0  # atno 6909 bound_to 6896
  144.8276  140.5671  143.5536 H   0  0  0  0  0  0  0  0  0  0  0  0  # atno 7974 bound_to 7965
  155.0561  140.0393  157.2560 H   0  0  0  0  0  0  0  0  0  0  0  0  # atno 8008 bound_to 7997
  154.7098  140.2690  155.6616 H   0  0  0  0  0  0  0  0  0  0  0  0  # atno 8009 bound_to 7997
  156.2786  140.2724  156.1736 H   0  0  0  0  0  0  0  0  0  0  0  0  # atno 8010 bound_to 7997
  140.6764  143.6903  150.8033 H   0  0  0  0  0  0  0  0  0  0  0  0  # atno 10167 bound_to 10162
  156.8502  130.5551  149.5670 H   0  0  0  0  0  0  0  0  0  0  0  0  # atno 10718 bound_to 10713
  154.6322  135.2888  155.0203 H   0  0  0  0  0  0  0  0  0  0  0  0  # atno 10763 bound_to 10752
  154.1360  135.6526  153.4936 H   0  0  0  0  0  0  0  0  0  0  0  0  # atno 10764 bound_to 10752
  153.0285  135.5321  154.7154 H   0  0  0  0  0  0  0  0  0  0  0  0  # atno 10765 bound_to 10752
  139.9695  134.9581  156.9352 H   0  0  0  0  0  0  0  0  0  0  0  0  # atno 11005 bound_to 11000
  145.4966  139.1485  143.3680 LP  0  0  0  0  0  0  0  0  0  0  0  0  # atno 17320 bound_to 7965
  146.2581  140.5105  142.8865 LP  0  0  0  0  0  0  0  0  0  0  0  0  # atno 17321 bound_to 7965
  140.0597  143.5167  152.2634 LP  0  0  0  0  0  0  0  0  0  0  0  0  # atno 17342 bound_to 10162
  139.6059  144.7596  151.3063 LP  0  0  0  0  0  0  0  0  0  0  0  0  # atno 17343 bound_to 10162
  156.0832  130.5837  150.9601 LP  0  0  0  0  0  0  0  0  0  0  0  0  # atno 17370 bound_to 10713
  157.6307  131.0921  150.8446 LP  0  0  0  0  0  0  0  0  0  0  0  0  # atno 17371 bound_to 10713
  140.5323  134.0801  155.7319 LP  0  0  0  0  0  0  0  0  0  0  0  0  # atno 17394 bound_to 11000
  141.1375  133.9196  157.2401 LP  0  0  0  0  0  0  0  0  0  0  0  0  # atno 17395 bound_to 11000

$$$$
