AV-unprocessed.smi:196|AV-procd|sdf|1531|dock9
  -GOLD-   2262019383D 1   1.00000     0.00000
 Structure written by MMmdl.
 47 50  0  0  0  0  0  0  0  0  1 V2000
  151.9247  140.1434  157.3597 C   0  0  0  0  0  0  0  0  0  0  0  0
  152.0098  139.9572  155.8365 C   0  0  1  0  0  0  0  0  0  0  0  0
  153.2181  139.2531  155.5580 O   0  0  0  0  0  0  0  0  0  0  0  0
  153.0278  138.4386  154.4147 C   0  0  0  0  0  0  0  0  0  0  0  0
  151.6141  137.9151  154.6155 C   0  0  0  0  0  0  0  0  0  0  0  0
  150.8751  139.1304  155.1681 C   0  0  2  0  0  0  0  0  0  0  0  0
  150.3903  139.8813  154.0669 O   0  0  0  0  0  0  0  0  0  0  0  0
  149.6634  138.7670  156.0664 C   0  0  0  0  0  0  0  0  0  0  0  0
  148.7590  137.8040  155.4558 N   0  0  0  0  0  0  0  0  0  0  0  0
  148.9864  136.4581  155.2808 C   0  0  0  0  0  0  0  0  0  0  0  0
  148.0156  135.7999  154.7093 N   0  0  0  0  0  0  0  0  0  0  0  0
  147.0488  136.7665  154.4550 C   0  0  0  0  0  0  0  0  0  0  0  0
  145.7527  136.7459  153.8614 C   0  0  0  0  0  0  0  0  0  0  0  0
  145.1722  135.6171  153.3695 N   0  0  0  0  0  0  0  0  0  0  0  0
  145.9557  134.7495  152.4959 C   0  0  0  0  0  0  0  0  0  0  0  0
  144.9800  134.2323  151.4397 C   0  0  2  0  0  0  0  0  0  0  0  0
  144.9771  135.0611  150.3944 F   0  0  0  0  0  0  0  0  0  0  0  0
  143.6316  134.2993  152.1476 C   0  0  0  0  0  0  0  0  0  0  0  0
  143.7419  135.5491  153.0364 C   0  0  1  0  0  0  0  0  0  0  0  0
  142.7951  135.4465  154.2487 C   0  0  0  0  0  0  0  0  0  0  0  0
  142.1080  134.3148  154.4372 N   0  0  0  0  0  0  0  0  0  0  0  0
  142.6898  136.3977  155.0197 O   0  0  0  0  0  0  0  0  0  0  0  0
  145.0760  137.9240  153.8103 N   0  0  0  0  0  0  0  0  0  0  0  0
  145.6250  139.0449  154.2859 C   0  0  0  0  0  0  0  0  0  0  0  0
  146.8202  139.2117  154.8533 N   0  0  0  0  0  0  0  0  0  0  0  0
  147.5025  138.0332  154.9226 C   0  0  0  0  0  0  0  0  0  0  0  0
  145.2293  133.2373  151.0704 H   0  0  0  0  0  0  0  0  0  0  0  0
  143.4664  136.4230  152.4434 H   0  0  0  0  0  0  0  0  0  0  0  0
  151.0254  140.6893  157.6453 H   0  0  0  0  0  0  0  0  0  0  0  0
  152.7798  140.7126  157.7248 H   0  0  0  0  0  0  0  0  0  0  0  0
  151.9250  139.1858  157.8811 H   0  0  0  0  0  0  0  0  0  0  0  0
  152.0862  140.9435  155.3747 H   0  0  0  0  0  0  0  0  0  0  0  0
  153.1001  139.0453  153.5108 H   0  0  0  0  0  0  0  0  0  0  0  0
  153.7703  137.6424  154.3593 H   0  0  0  0  0  0  0  0  0  0  0  0
  151.1728  137.5032  153.7069 H   0  0  0  0  0  0  0  0  0  0  0  0
  151.6403  137.1206  155.3619 H   0  0  0  0  0  0  0  0  0  0  0  0
  149.5265  140.2001  154.2798 H   0  0  0  0  0  0  0  0  0  0  0  0
  150.0012  138.3481  157.0145 H   0  0  0  0  0  0  0  0  0  0  0  0
  149.0896  139.6619  156.3112 H   0  0  0  0  0  0  0  0  0  0  0  0
  149.8988  135.9757  155.6006 H   0  0  0  0  0  0  0  0  0  0  0  0
  146.8023  135.2570  152.0306 H   0  0  0  0  0  0  0  0  0  0  0  0
  146.3437  133.9230  153.0922 H   0  0  0  0  0  0  0  0  0  0  0  0
  142.7941  134.3505  151.4507 H   0  0  0  0  0  0  0  0  0  0  0  0
  143.5025  133.4013  152.7549 H   0  0  0  0  0  0  0  0  0  0  0  0
  141.4815  134.2328  155.2248 H   0  0  0  0  0  0  0  0  0  0  0  0
  142.2168  133.5484  153.7893 H   0  0  0  0  0  0  0  0  0  0  0  0
  145.0195  139.9350  154.1997 H   0  0  0  0  0  0  0  0  0  0  0  0
  1  2  1  0  0  0  0
  1 29  1  0  0  0  0
  1 30  1  0  0  0  0
  1 31  1  0  0  0  0
  2  6  1  0  0  0  0
  2  3  1  0  0  0  0
  2 32  1  0  0  0  0
  3  4  1  0  0  0  0
  4  5  1  0  0  0  0
  4 33  1  0  0  0  0
  4 34  1  0  0  0  0
  5  6  1  0  0  0  0
  5 35  1  0  0  0  0
  5 36  1  0  0  0  0
  6  7  1  0  0  0  0
  6  8  1  0  0  0  0
  7 37  1  0  0  0  0
  8  9  1  0  0  0  0
  8 38  1  0  0  0  0
  8 39  1  0  0  0  0
  9 26  1  0  0  0  0
  9 10  1  0  0  0  0
 10 11  2  0  0  0  0
 10 40  1  0  0  0  0
 11 12  1  0  0  0  0
 12 26  2  0  0  0  0
 12 13  1  0  0  0  0
 13 14  1  0  0  0  0
 13 23  2  0  0  0  0
 14 19  1  0  0  0  0
 14 15  1  0  0  0  0
 15 16  1  0  0  0  0
 15 41  1  0  0  0  0
 15 42  1  0  0  0  0
 16 27  1  0  0  0  0
 16 17  1  0  0  0  0
 16 18  1  0  0  0  0
 18 19  1  0  0  0  0
 18 43  1  0  0  0  0
 18 44  1  0  0  0  0
 19 28  1  0  0  0  0
 19 20  1  0  0  0  0
 20 21  1  0  0  0  0
 20 22  2  0  0  0  0
 21 45  1  0  0  0  0
 21 46  1  0  0  0  0
 23 24  1  0  0  0  0
 24 25  2  0  0  0  0
 24 47  1  0  0  0  0
 25 26  1  0  0  0  0
M  END
> <s_m_source_file>
AV-unprocessed.smi

> <i_m_source_file_index>
196

> <i_lp_mmshare_version>
43012

> <i_f3d_flags>
0

> <s_epik_input>
W0NIMl0xW0NIMl1PW0NAQEhdKFtDSDNdKVtDQEBdMShbT0hdKVtDSDJdbihbY0hdbjIpYyhjMjMpbltjSF1uYzNONFtDSDJdW0NASF0oRilbQ0gyXVtDQEhdNEMoPU8pW05IMl0=

> <s_epik_cmdline>
J2VwaWtfcHl0aG9uJywgJy1waCcsICc3LjAnLCAnLXRuJywgJzgnLCAnLW1hJywgJzIwMCcsICctbWV0YWxfYmluZGluZycsICctaW1hZScsICc8aW5maWxlLm1hZT4nLCAnLW9tYWUnLCAnPG91dGZpbGUubWFlPic=

> <r_lp_tautomer_probability>
1

> <r_epik_Ionization_Penalty>
0.000857933

> <r_epik_Ionization_Penalty_Charging>
0

> <r_epik_Ionization_Penalty_Neutral>
0.000857933

> <r_epik_State_Penalty>
0.000462053

> <r_epik_Charging_Adjusted_Penalty>
0.000462053

> <i_epik_Tot_Q>
0

> <i_epik_Tot_abs_Q>
0

> <r_epik_Metal_State_Penalty>
-0

> <b_epik_Metal_Only>
0

> <s_lp_Force_Field>
OPLS_2005

> <r_lp_Energy>
43.6884

> <b_lp_Chiralities_Consistent>
1

> <s_lp_Variant>
AV-unprocessed.smi:196-4

> <Gold.Version>
5.8.1

> <Gold.Id.Protein>
6NUR|6NUR_protein|mol2

> <Gold.PLP.Fitness>
42.4704

> <Gold.PLP.PLP>
-31.1945

> <Gold.PLP.part.hbond>
-4.9564

> <Gold.PLP.part.metal>
0.0000

> <Gold.PLP.part.buried>
-3.8142

> <Gold.PLP.part.nonpolar>
-23.4417

> <Gold.PLP.part.repulsive>
0.9611

> <Gold.PLP.ligand.clash>
0.0000

> <Gold.PLP.ligand.torsion>
0.7517

> <Gold.PLP.Chemscore.Hbond>
3.2379

> <Gold.PLP.Chemscore.CHOScore>
0.9319

> <Gold.PLP.Chemscore.Metal>
0.0000

> <Gold.Chemscore.Hbonds>
donor molecule, donor type, donor heavy atom, donor atom, acceptor molecule, acceptor atom, score
      L1  H    21    45       P1 11000  1.00
      L1  H    21    46       P1 10957  0.21
      P1  H  7989  7998       L1     7  1.00
      P1  H  7997  8010       L1     3  1.00
      L1  C    24    47       P1 10175  0.94

> <Gold.PLP.Chemscore.Internal.Correction>
0.2699

> <Gold.Rescore>
     Score         DG    S(hbond)    S(metal)    S(lipo)     H(rot)  DE(clash)    DE(int)     intcor
     12.27     -14.09       2.67        0.00      54.10       2.60       0.53       1.29       ----

> <Gold.Chemscore.Fitness>
12.2684

> <Gold.Chemscore.DG>
-14.0898

> <Gold.Chemscore.ZeroCoef>
-5.4800

> <Gold.Chemscore.Hbond>
2.6729

> <Gold.Chemscore.Metal>
0.0000

> <Gold.Chemscore.Lipo>
54.1040

> <Gold.Chemscore.Internal_Hbond>
0.0000

> <Gold.Chemscore.DEClash>
0.5336

> <Gold.Chemscore.DEInternal>
1.2878

> <Gold.Chemscore.Rot>
2.5968

> <Gold.Chemscore.Internal.Correction>
   9.000000E+99

> <Gold.Chemscore.Hbonds>
donor molecule, donor type, donor heavy atom, donor atom, acceptor molecule, acceptor atom, score
      L1  H    21    45       P1 11000  0.65
      L1  H    21    46       P1 10957  0.21
      P1  H  7989  7998       L1     7  0.72
      P1  H  7997  8010       L1     3  0.63

> <Gold.Chemscore.Hbond.Weighted>
-8.9274

> <Gold.Chemscore.Metal.Weighted>
-0.0000

> <Gold.Chemscore.Lipo.Weighted>
-6.3302

> <Gold.Chemscore.Internal_Hbond.Weighted>
0.0000

> <Gold.Chemscore.DEClash.Weighted>
0.5336

> <Gold.Chemscore.DEInternal.Weighted>
1.2878

> <Gold.Chemscore.Rot.Weighted>
6.6477

> <Gold.Chemscore.Internal.Correction.Weighted>
   9.000000E+99

> <Gold.Protein.RotatedTorsions>
[ 6907 6896 6895 6894 ] final  -42.64 input  -60.11 | X-H torsion
[ 7974 7965 7964 7962 ] final -158.29 input  175.53 | X-H torsion
[ 8008 7997 7996 7995 ] final   98.93 input   59.86 | X-H torsion
[ 10167 10162 10161 10158 ] final  138.41 input  -65.29 | X-H torsion
[ 10718 10713 10712 10709 ] final -146.76 input   66.30 | X-H torsion
[ 10763 10752 10751 10750 ] final -160.12 input  -60.55 | X-H torsion
[ 11005 11000 10999 10996 ] final -142.46 input  -57.11 | X-H torsion

> <Gold.Protein.ActiveResidues>
 VAL166  LYS551  ARG553  GLY616  TRP617  ASP618  TYR619  PRO620  LYS621  CYS622 
 ASP623  PHE694  ASN695  SER759  ASP760  ASP761  ALA762  ILE779  LEU786  VAL792 
 PHE793  MET794  SER795  GLU796  ALA797  LYS798  CYS799  TRP800  GLU811  SER814 

> <Gold.Protein.RotatedAtoms>
  150.9530  134.8927  159.7683 H   0  0  0  0  0  0  0  0  0  0  0  0  # atno 6907 bound_to 6896
  152.5127  134.3780  159.9351 H   0  0  0  0  0  0  0  0  0  0  0  0  # atno 6908 bound_to 6896
  151.3795  133.3786  159.2743 H   0  0  0  0  0  0  0  0  0  0  0  0  # atno 6909 bound_to 6896
  144.7512  140.3848  143.6047 H   0  0  0  0  0  0  0  0  0  0  0  0  # atno 7974 bound_to 7965
  156.1054  140.3236  155.7999 H   0  0  0  0  0  0  0  0  0  0  0  0  # atno 8008 bound_to 7997
  155.4764  140.0550  157.2990 H   0  0  0  0  0  0  0  0  0  0  0  0  # atno 8009 bound_to 7997
  154.4724  140.2017  155.9975 H   0  0  0  0  0  0  0  0  0  0  0  0  # atno 8010 bound_to 7997
  139.5112  144.6355  151.5708 H   0  0  0  0  0  0  0  0  0  0  0  0  # atno 10167 bound_to 10162
  156.3989  130.7924  151.2132 H   0  0  0  0  0  0  0  0  0  0  0  0  # atno 10718 bound_to 10713
  154.7417  135.3070  154.8716 H   0  0  0  0  0  0  0  0  0  0  0  0  # atno 10763 bound_to 10752
  153.9528  135.6762  153.4748 H   0  0  0  0  0  0  0  0  0  0  0  0  # atno 10764 bound_to 10752
  153.1016  135.4909  154.8801 H   0  0  0  0  0  0  0  0  0  0  0  0  # atno 10765 bound_to 10752
  140.8222  134.2617  157.4895 H   0  0  0  0  0  0  0  0  0  0  0  0  # atno 11005 bound_to 11000
  145.6939  139.1645  143.2631 LP  0  0  0  0  0  0  0  0  0  0  0  0  # atno 17320 bound_to 7965
  146.1464  140.6987  142.9343 LP  0  0  0  0  0  0  0  0  0  0  0  0  # atno 17321 bound_to 7965
  140.6102  143.9450  150.6448 LP  0  0  0  0  0  0  0  0  0  0  0  0  # atno 17342 bound_to 10162
  140.2690  143.3469  152.1255 LP  0  0  0  0  0  0  0  0  0  0  0  0  # atno 17343 bound_to 10162
  157.7503  131.0293  150.4086 LP  0  0  0  0  0  0  0  0  0  0  0  0  # atno 17370 bound_to 10713
  156.4361  130.3982  149.6728 LP  0  0  0  0  0  0  0  0  0  0  0  0  # atno 17371 bound_to 10713
  139.8708  134.9541  156.4167 LP  0  0  0  0  0  0  0  0  0  0  0  0  # atno 17394 bound_to 11000
  140.9086  133.7728  155.9765 LP  0  0  0  0  0  0  0  0  0  0  0  0  # atno 17395 bound_to 11000

$$$$
