AV-unprocessed.smi:1357|AV-procd|sdf|5548|dock4
  -GOLD-   22720 5143D 1   1.00000     0.00000
 Structure written by MMmdl.
 43 44  0  0  0  0  0  0  0  0  1 V2000
  152.4107  143.9782  159.8719 C   0  0  0  0  0  0  0  0  0  0  0  0
  151.3601  144.0735  158.7459 C   0  0  0  0  0  0  0  0  0  0  0  0
  150.1134  144.8059  159.2826 C   0  0  0  0  0  0  0  0  0  0  0  0
  151.9570  144.8874  157.5735 C   0  0  0  0  0  0  0  0  0  0  0  0
  150.9516  142.6398  158.3275 C   0  0  0  0  0  0  0  0  0  0  0  0
  151.4593  141.6729  158.8978 O   0  0  0  0  0  0  0  0  0  0  0  0
  150.0495  142.4953  157.3417 N   0  0  0  0  0  0  0  0  0  0  0  0
  149.5973  141.2231  156.7926 C   0  0  0  0  0  0  0  0  0  0  0  0
  148.5460  141.4080  155.7148 C   0  0  0  0  0  0  0  0  0  0  0  0
  148.7919  140.9977  154.3891 C   0  0  0  0  0  0  0  0  0  0  0  0
  147.7901  141.2140  153.4238 C   0  0  0  0  0  0  0  0  0  0  0  0
  146.6041  141.7948  153.7044 N   0  0  0  0  0  0  0  0  0  0  0  0
  146.3684  142.1903  154.9786 C   0  0  0  0  0  0  0  0  0  0  0  0
  145.1334  142.7841  155.2761 N   0  0  0  0  0  0  0  0  0  0  0  0
  144.0287  141.8335  155.2646 C   0  0  0  0  0  0  0  0  0  0  0  0
  142.7338  142.5240  155.7267 C   0  0  0  0  0  0  0  0  0  0  0  0
  142.4798  143.6630  154.9090 O   0  0  0  0  0  0  0  0  0  0  0  0
  143.5319  144.6211  154.9841 C   0  0  0  0  0  0  0  0  0  0  0  0
  144.8451  143.9834  154.4985 C   0  0  0  0  0  0  0  0  0  0  0  0
  147.3103  142.0170  156.0147 C   0  0  0  0  0  0  0  0  0  0  0  0
  152.7270  144.9686  160.2014 H   0  0  0  0  0  0  0  0  0  0  0  0
  153.3030  143.4450  159.5410 H   0  0  0  0  0  0  0  0  0  0  0  0
  152.0224  143.4576  160.7485 H   0  0  0  0  0  0  0  0  0  0  0  0
  149.6723  144.2876  160.1352 H   0  0  0  0  0  0  0  0  0  0  0  0
  149.3423  144.8947  158.5162 H   0  0  0  0  0  0  0  0  0  0  0  0
  150.3614  145.8153  159.6131 H   0  0  0  0  0  0  0  0  0  0  0  0
  152.2393  145.8897  157.8972 H   0  0  0  0  0  0  0  0  0  0  0  0
  151.2432  145.0061  156.7570 H   0  0  0  0  0  0  0  0  0  0  0  0
  152.8550  144.4171  157.1699 H   0  0  0  0  0  0  0  0  0  0  0  0
  149.6729  143.3320  156.9203 H   0  0  0  0  0  0  0  0  0  0  0  0
  150.4376  140.6485  156.3993 H   0  0  0  0  0  0  0  0  0  0  0  0
  149.1769  140.6293  157.6048 H   0  0  0  0  0  0  0  0  0  0  0  0
  149.7283  140.5342  154.1148 H   0  0  0  0  0  0  0  0  0  0  0  0
  147.9461  140.9142  152.3982 H   0  0  0  0  0  0  0  0  0  0  0  0
  143.8972  141.4356  154.2572 H   0  0  0  0  0  0  0  0  0  0  0  0
  144.2577  140.9905  155.9177 H   0  0  0  0  0  0  0  0  0  0  0  0
  141.8926  141.8355  155.6483 H   0  0  0  0  0  0  0  0  0  0  0  0
  142.8043  142.8237  156.7735 H   0  0  0  0  0  0  0  0  0  0  0  0
  143.2770  145.4785  154.3611 H   0  0  0  0  0  0  0  0  0  0  0  0
  143.6313  144.9880  156.0071 H   0  0  0  0  0  0  0  0  0  0  0  0
  145.6665  144.6939  154.5982 H   0  0  0  0  0  0  0  0  0  0  0  0
  144.7620  143.7302  153.4405 H   0  0  0  0  0  0  0  0  0  0  0  0
  147.0897  142.3473  157.0195 H   0  0  0  0  0  0  0  0  0  0  0  0
  1  2  1  0  0  0  0
  1 21  1  0  0  0  0
  1 22  1  0  0  0  0
  1 23  1  0  0  0  0
  2  3  1  0  0  0  0
  2  4  1  0  0  0  0
  2  5  1  0  0  0  0
  3 24  1  0  0  0  0
  3 25  1  0  0  0  0
  3 26  1  0  0  0  0
  4 27  1  0  0  0  0
  4 28  1  0  0  0  0
  4 29  1  0  0  0  0
  5  6  2  0  0  0  0
  5  7  1  0  0  0  0
  7  8  1  0  0  0  0
  7 30  1  0  0  0  0
  8  9  1  0  0  0  0
  8 31  1  0  0  0  0
  8 32  1  0  0  0  0
  9 20  1  0  0  0  0
  9 10  2  0  0  0  0
 10 11  1  0  0  0  0
 10 33  1  0  0  0  0
 11 12  2  0  0  0  0
 11 34  1  0  0  0  0
 12 13  1  0  0  0  0
 13 14  1  0  0  0  0
 13 20  2  0  0  0  0
 14 19  1  0  0  0  0
 14 15  1  0  0  0  0
 15 16  1  0  0  0  0
 15 35  1  0  0  0  0
 15 36  1  0  0  0  0
 16 17  1  0  0  0  0
 16 37  1  0  0  0  0
 16 38  1  0  0  0  0
 17 18  1  0  0  0  0
 18 19  1  0  0  0  0
 18 39  1  0  0  0  0
 18 40  1  0  0  0  0
 19 41  1  0  0  0  0
 19 42  1  0  0  0  0
 20 43  1  0  0  0  0
M  END
> <s_m_source_file>
AV-unprocessed.smi

> <i_m_source_file_index>
1357

> <i_lp_mmshare_version>
43012

> <i_f3d_flags>
0

> <s_epik_input>
W0NIM11DKFtDSDNdKShbQ0gzXSlDKD1PKVtOSF1bQ0gyXWMxW2NIXVtjSF1uYyhbY0hdMSlOMltDSDJdW0NIMl1PW0NIMl1bQ0gyXTI=

> <s_epik_cmdline>
J2VwaWtfcHl0aG9uJywgJy1waCcsICc3LjAnLCAnLXRuJywgJzgnLCAnLW1hJywgJzIwMCcsICctbWV0YWxfYmluZGluZycsICctaW1hZScsICc8aW5maWxlLm1hZT4nLCAnLW9tYWUnLCAnPG91dGZpbGUubWFlPic=

> <r_lp_tautomer_probability>
1

> <r_epik_Ionization_Penalty>
0.00576178

> <r_epik_Ionization_Penalty_Charging>
0

> <r_epik_Ionization_Penalty_Neutral>
0.00576178

> <r_epik_State_Penalty>
0.00422935

> <r_epik_Charging_Adjusted_Penalty>
0.00422935

> <i_epik_Tot_Q>
0

> <i_epik_Tot_abs_Q>
0

> <r_epik_Metal_State_Penalty>
-0

> <b_epik_Metal_Only>
0

> <s_lp_Force_Field>
OPLS_2005

> <r_lp_Energy>
22.6538

> <b_lp_Chiralities_Consistent>
1

> <s_lp_Variant>
AV-unprocessed.smi:1357-1

> <Gold.Version>
5.8.1

> <Gold.Id.Protein>
6NUR|6NUR_protein|mol2

> <Gold.PLP.Fitness>
38.0559

> <Gold.PLP.PLP>
-32.2470

> <Gold.PLP.part.hbond>
-1.0000

> <Gold.PLP.part.metal>
0.0000

> <Gold.PLP.part.buried>
-5.7412

> <Gold.PLP.part.nonpolar>
-26.4020

> <Gold.PLP.part.repulsive>
0.4846

> <Gold.PLP.ligand.clash>
0.0000

> <Gold.PLP.ligand.torsion>
0.1499

> <Gold.PLP.Chemscore.Hbond>
1.0000

> <Gold.PLP.Chemscore.CHOScore>
1.0000

> <Gold.PLP.Chemscore.Metal>
0.0000

> <Gold.Chemscore.Hbonds>
donor molecule, donor type, donor heavy atom, donor atom, acceptor molecule, acceptor atom, score
      L1  H     7    30       P1  8028  1.00
      L1  C    11    34       P1  7957  1.00

> <Gold.PLP.Chemscore.Internal.Correction>
0.1088

> <Gold.Rescore>
     Score         DG    S(hbond)    S(metal)    S(lipo)     H(rot)  DE(clash)    DE(int)     intcor
     14.18     -15.38       0.94        0.00      91.06       1.52       0.94       0.26       ----

> <Gold.Chemscore.Fitness>
14.1797

> <Gold.Chemscore.DG>
-15.3836

> <Gold.Chemscore.ZeroCoef>
-5.4800

> <Gold.Chemscore.Hbond>
0.9384

> <Gold.Chemscore.Metal>
0.0000

> <Gold.Chemscore.Lipo>
91.0554

> <Gold.Chemscore.Internal_Hbond>
0.0000

> <Gold.Chemscore.DEClash>
0.9419

> <Gold.Chemscore.DEInternal>
0.2620

> <Gold.Chemscore.Rot>
1.5173

> <Gold.Chemscore.Internal.Correction>
   9.000000E+99

> <Gold.Chemscore.Hbonds>
donor molecule, donor type, donor heavy atom, donor atom, acceptor molecule, acceptor atom, score
      L1  H     7    30       P1  8028  0.93

> <Gold.Chemscore.Hbond.Weighted>
-3.1344

> <Gold.Chemscore.Metal.Weighted>
-0.0000

> <Gold.Chemscore.Lipo.Weighted>
-10.6535

> <Gold.Chemscore.Internal_Hbond.Weighted>
0.0000

> <Gold.Chemscore.DEClash.Weighted>
0.9419

> <Gold.Chemscore.DEInternal.Weighted>
0.2620

> <Gold.Chemscore.Rot.Weighted>
3.8843

> <Gold.Chemscore.Internal.Correction.Weighted>
   9.000000E+99

> <Gold.Protein.RotatedTorsions>
[ 6907 6896 6895 6894 ] final  -57.67 input  -60.11 | X-H torsion
[ 7974 7965 7964 7962 ] final -164.77 input  175.53 | X-H torsion
[ 8008 7997 7996 7995 ] final -107.84 input   59.86 | X-H torsion
[ 10167 10162 10161 10158 ] final   72.76 input  -65.29 | X-H torsion
[ 10718 10713 10712 10709 ] final   77.34 input   66.30 | X-H torsion
[ 10763 10752 10751 10750 ] final   71.63 input  -60.55 | X-H torsion
[ 11005 11000 10999 10996 ] final  -47.19 input  -57.11 | X-H torsion

> <Gold.Protein.ActiveResidues>
 VAL166  LYS551  ARG553  GLY616  TRP617  ASP618  TYR619  PRO620  LYS621  CYS622 
 ASP623  PHE694  ASN695  SER759  ASP760  ASP761  ALA762  ILE779  LEU786  VAL792 
 PHE793  MET794  SER795  GLU796  ALA797  LYS798  CYS799  TRP800  GLU811  SER814 

> <Gold.Protein.RotatedAtoms>
  150.8068  134.7198  159.6650 H   0  0  0  0  0  0  0  0  0  0  0  0  # atno 6907 bound_to 6896
  152.4187  134.5991  160.0005 H   0  0  0  0  0  0  0  0  0  0  0  0  # atno 6908 bound_to 6896
  151.6212  133.3302  159.3124 H   0  0  0  0  0  0  0  0  0  0  0  0  # atno 6909 bound_to 6896
  144.7287  140.2911  143.6220 H   0  0  0  0  0  0  0  0  0  0  0  0  # atno 7974 bound_to 7965
  154.9353  140.0404  157.2069 H   0  0  0  0  0  0  0  0  0  0  0  0  # atno 8008 bound_to 7997
  154.8121  140.2869  155.5824 H   0  0  0  0  0  0  0  0  0  0  0  0  # atno 8009 bound_to 7997
  156.2972  140.2535  156.3012 H   0  0  0  0  0  0  0  0  0  0  0  0  # atno 8010 bound_to 7997
  140.0318  144.5460  150.7501 H   0  0  0  0  0  0  0  0  0  0  0  0  # atno 10167 bound_to 10162
  157.6707  130.9817  150.1627 H   0  0  0  0  0  0  0  0  0  0  0  0  # atno 10718 bound_to 10713
  153.0410  135.5130  154.7622 H   0  0  0  0  0  0  0  0  0  0  0  0  # atno 10763 bound_to 10752
  154.6559  135.2931  154.9930 H   0  0  0  0  0  0  0  0  0  0  0  0  # atno 10764 bound_to 10752
  154.0798  135.6665  153.4889 H   0  0  0  0  0  0  0  0  0  0  0  0  # atno 10765 bound_to 10752
  141.0625  133.6704  156.3262 H   0  0  0  0  0  0  0  0  0  0  0  0  # atno 11005 bound_to 11000
  145.7854  139.1907  143.2134 LP  0  0  0  0  0  0  0  0  0  0  0  0  # atno 17320 bound_to 7965
  146.0800  140.7775  142.9646 LP  0  0  0  0  0  0  0  0  0  0  0  0  # atno 17321 bound_to 7965
  140.7299  143.2677  151.3990 LP  0  0  0  0  0  0  0  0  0  0  0  0  # atno 17342 bound_to 10162
  139.6071  144.1174  152.2260 LP  0  0  0  0  0  0  0  0  0  0  0  0  # atno 17343 bound_to 10162
  156.2400  130.3690  149.8348 LP  0  0  0  0  0  0  0  0  0  0  0  0  # atno 17370 bound_to 10713
  156.6151  130.8603  151.3463 LP  0  0  0  0  0  0  0  0  0  0  0  0  # atno 17371 bound_to 10713
  140.5839  134.5718  157.5485 LP  0  0  0  0  0  0  0  0  0  0  0  0  # atno 17394 bound_to 11000
  139.9446  134.7725  156.0594 LP  0  0  0  0  0  0  0  0  0  0  0  0  # atno 17395 bound_to 11000

$$$$
