AV-unprocessed.smi:616|AV-procd|sdf|3072|dock6
  -GOLD-   2262023593D 1   1.00000     0.00000
 Structure written by MMmdl.
 34 35  0  0  0  0  0  0  0  0  1 V2000
  148.4663  140.9202  154.1782 C   0  0  0  0  0  0  0  0  0  0  0  0
  149.7261  140.1918  154.6166 C   0  0  0  0  0  0  0  0  0  0  0  0
  150.0812  139.0389  154.0069 C   0  0  0  0  0  0  0  0  0  0  0  0
  151.2802  138.2845  154.3749 C   0  0  0  0  0  0  0  0  0  0  0  0
  151.5921  137.2321  153.8170 O   0  0  0  0  0  0  0  0  0  0  0  0
  152.0283  138.8243  155.3760 N   0  0  0  0  0  0  0  0  0  0  0  0
  153.2494  138.1463  155.8199 C   0  0  0  0  0  0  0  0  0  0  0  0
  151.6674  140.0186  156.0228 C   0  0  0  0  0  0  0  0  0  0  0  0
  150.5609  140.7199  155.6889 C   0  0  0  0  0  0  0  0  0  0  0  0
  150.1534  141.9129  156.3114 N   0  0  0  0  0  0  0  0  0  0  0  0
  150.4817  142.4156  157.5169 C   0  0  0  0  0  0  0  0  0  0  0  0
  151.2561  141.9086  158.3281 O   0  0  0  0  0  0  0  0  0  0  0  0
  149.8488  143.5768  157.7357 N   0  0  0  0  0  0  0  0  0  0  0  0
  149.9892  144.3914  158.9357 C   0  0  0  0  0  0  0  0  0  0  0  0
  151.2636  145.2105  159.0057 C   0  0  0  0  0  0  0  0  0  0  0  0
  152.6216  144.5471  159.0145 C   0  0  0  0  0  0  0  0  0  0  0  0
  152.0999  145.2127  160.2642 C   0  0  0  0  0  0  0  0  0  0  0  0
  147.9553  140.3946  153.3709 H   0  0  0  0  0  0  0  0  0  0  0  0
  148.7119  141.9217  153.8236 H   0  0  0  0  0  0  0  0  0  0  0  0
  147.7705  141.0106  155.0126 H   0  0  0  0  0  0  0  0  0  0  0  0
  149.4625  138.6479  153.2121 H   0  0  0  0  0  0  0  0  0  0  0  0
  153.8126  138.7246  156.5528 H   0  0  0  0  0  0  0  0  0  0  0  0
  153.9177  137.9616  154.9774 H   0  0  0  0  0  0  0  0  0  0  0  0
  153.0054  137.1861  156.2766 H   0  0  0  0  0  0  0  0  0  0  0  0
  152.3534  140.3005  156.8043 H   0  0  0  0  0  0  0  0  0  0  0  0
  149.5186  142.4723  155.7606 H   0  0  0  0  0  0  0  0  0  0  0  0
  149.2294  143.9257  157.0187 H   0  0  0  0  0  0  0  0  0  0  0  0
  149.1436  145.0786  158.9661 H   0  0  0  0  0  0  0  0  0  0  0  0
  149.9042  143.7648  159.8256 H   0  0  0  0  0  0  0  0  0  0  0  0
  151.1977  146.1668  158.4900 H   0  0  0  0  0  0  0  0  0  0  0  0
  152.6554  143.4596  159.0016 H   0  0  0  0  0  0  0  0  0  0  0  0
  153.4256  145.0445  158.4763 H   0  0  0  0  0  0  0  0  0  0  0  0
  152.5579  146.1538  160.5612 H   0  0  0  0  0  0  0  0  0  0  0  0
  151.7892  144.5659  161.0823 H   0  0  0  0  0  0  0  0  0  0  0  0
  1  2  1  0  0  0  0
  1 18  1  0  0  0  0
  1 19  1  0  0  0  0
  1 20  1  0  0  0  0
  2  9  1  0  0  0  0
  2  3  2  0  0  0  0
  3  4  1  0  0  0  0
  3 21  1  0  0  0  0
  4  5  2  0  0  0  0
  4  6  1  0  0  0  0
  6  7  1  0  0  0  0
  6  8  1  0  0  0  0
  7 22  1  0  0  0  0
  7 23  1  0  0  0  0
  7 24  1  0  0  0  0
  8  9  2  0  0  0  0
  8 25  1  0  0  0  0
  9 10  1  0  0  0  0
 10 11  1  0  0  0  0
 10 26  1  0  0  0  0
 11 12  2  0  0  0  0
 11 13  1  0  0  0  0
 13 14  1  0  0  0  0
 13 27  1  0  0  0  0
 14 15  1  0  0  0  0
 14 28  1  0  0  0  0
 14 29  1  0  0  0  0
 15 17  1  0  0  0  0
 15 16  1  0  0  0  0
 15 30  1  0  0  0  0
 16 17  1  0  0  0  0
 16 31  1  0  0  0  0
 16 32  1  0  0  0  0
 17 33  1  0  0  0  0
 17 34  1  0  0  0  0
M  END
> <s_m_source_file>
AV-unprocessed.smi

> <i_m_source_file_index>
616

> <i_lp_mmshare_version>
43012

> <i_f3d_flags>
0

> <s_epik_input>
W0NIM11jMVtjSF1jKD1PKW4oW0NIM10pW2NIXWMxW05IXUMoPU8pW05IXVtDSDJdW0NIXTJbQ0gyXVtDSDJdMg==

> <s_epik_cmdline>
J2VwaWtfcHl0aG9uJywgJy1waCcsICc3LjAnLCAnLXRuJywgJzgnLCAnLW1hJywgJzIwMCcsICctbWV0YWxfYmluZGluZycsICctaW1hZScsICc8aW5maWxlLm1hZT4nLCAnLW9tYWUnLCAnPG91dGZpbGUubWFlPic=

> <r_lp_tautomer_probability>
1

> <r_epik_Ionization_Penalty>
2.97505e-05

> <r_epik_Ionization_Penalty_Charging>
8.23988e-06

> <r_epik_Ionization_Penalty_Neutral>
2.15106e-05

> <r_epik_State_Penalty>
-0

> <r_epik_Charging_Adjusted_Penalty>
8.23988e-06

> <i_epik_Tot_Q>
0

> <i_epik_Tot_abs_Q>
0

> <r_epik_Metal_State_Penalty>
-0

> <b_epik_Metal_Only>
0

> <s_lp_Force_Field>
OPLS_2005

> <r_lp_Energy>
26.2007

> <b_lp_Chiralities_Consistent>
1

> <s_lp_Variant>
AV-unprocessed.smi:616-1

> <Gold.Version>
5.8.1

> <Gold.Id.Protein>
6NUR|6NUR_protein|mol2

> <Gold.PLP.Fitness>
43.5015

> <Gold.PLP.PLP>
-37.4688

> <Gold.PLP.part.hbond>
-3.5960

> <Gold.PLP.part.metal>
0.0000

> <Gold.PLP.part.buried>
-0.3126

> <Gold.PLP.part.nonpolar>
-35.1659

> <Gold.PLP.part.repulsive>
1.8614

> <Gold.PLP.ligand.clash>
0.0000

> <Gold.PLP.ligand.torsion>
0.5462

> <Gold.PLP.Chemscore.Hbond>
2.1955

> <Gold.PLP.Chemscore.CHOScore>
0.0000

> <Gold.PLP.Chemscore.Metal>
0.0000

> <Gold.Chemscore.Hbonds>
donor molecule, donor type, donor heavy atom, donor atom, acceptor molecule, acceptor atom, score
      L1  H    10    26       P1  8028  0.17
      L1  H    13    27       P1  8028  1.00
      P1  H 10752 10765       L1     5  0.75

> <Gold.PLP.Chemscore.Internal.Correction>
0.5386

> <Gold.Rescore>
     Score         DG    S(hbond)    S(metal)    S(lipo)     H(rot)  DE(clash)    DE(int)     intcor
     14.40     -19.09       1.73        0.00      93.00       1.18       2.17       2.53       ----

> <Gold.Chemscore.Fitness>
14.3962

> <Gold.Chemscore.DG>
-19.0918

> <Gold.Chemscore.ZeroCoef>
-5.4800

> <Gold.Chemscore.Hbond>
1.7254

> <Gold.Chemscore.Metal>
0.0000

> <Gold.Chemscore.Lipo>
92.9999

> <Gold.Chemscore.Internal_Hbond>
0.0000

> <Gold.Chemscore.DEClash>
2.1705

> <Gold.Chemscore.DEInternal>
2.5252

> <Gold.Chemscore.Rot>
1.1844

> <Gold.Chemscore.Internal.Correction>
   9.000000E+99

> <Gold.Chemscore.Hbonds>
donor molecule, donor type, donor heavy atom, donor atom, acceptor molecule, acceptor atom, score
      L1  H    10    26       P1  8028  0.18
      L1  H    13    27       P1  8028  0.43
      P1  H 10752 10765       L1     5  0.72

> <Gold.Chemscore.Hbond.Weighted>
-5.7628

> <Gold.Chemscore.Metal.Weighted>
-0.0000

> <Gold.Chemscore.Lipo.Weighted>
-10.8810

> <Gold.Chemscore.Internal_Hbond.Weighted>
0.0000

> <Gold.Chemscore.DEClash.Weighted>
2.1705

> <Gold.Chemscore.DEInternal.Weighted>
2.5252

> <Gold.Chemscore.Rot.Weighted>
3.0320

> <Gold.Chemscore.Internal.Correction.Weighted>
   9.000000E+99

> <Gold.Protein.RotatedTorsions>
[ 6907 6896 6895 6894 ] final  108.25 input  -60.11 | X-H torsion
[ 7974 7965 7964 7962 ] final -134.49 input  175.53 | X-H torsion
[ 8008 7997 7996 7995 ] final -144.37 input   59.86 | X-H torsion
[ 10167 10162 10161 10158 ] final -171.96 input  -65.29 | X-H torsion
[ 10718 10713 10712 10709 ] final   39.37 input   66.30 | X-H torsion
[ 10763 10752 10751 10750 ] final  165.42 input  -60.55 | X-H torsion
[ 11005 11000 10999 10996 ] final  -91.89 input  -57.11 | X-H torsion

> <Gold.Protein.ActiveResidues>
 VAL166  LYS551  ARG553  GLY616  TRP617  ASP618  TYR619  PRO620  LYS621  CYS622 
 ASP623  PHE694  ASN695  SER759  ASP760  ASP761  ALA762  ILE779  LEU786  VAL792 
 PHE793  MET794  SER795  GLU796  ALA797  LYS798  CYS799  TRP800  GLU811  SER814 

> <Gold.Protein.RotatedAtoms>
  152.5120  133.9116  159.7490 H   0  0  0  0  0  0  0  0  0  0  0  0  # atno 6907 bound_to 6896
  150.9508  133.6543  159.2779 H   0  0  0  0  0  0  0  0  0  0  0  0  # atno 6908 bound_to 6896
  151.3822  135.0947  159.9552 H   0  0  0  0  0  0  0  0  0  0  0  0  # atno 6909 bound_to 6896
  144.9098  140.6880  143.5032 H   0  0  0  0  0  0  0  0  0  0  0  0  # atno 7974 bound_to 7965
  155.5257  140.0595  157.2898 H   0  0  0  0  0  0  0  0  0  0  0  0  # atno 8008 bound_to 7997
  154.4502  140.1944  156.0489 H   0  0  0  0  0  0  0  0  0  0  0  0  # atno 8009 bound_to 7997
  156.0687  140.3263  155.7553 H   0  0  0  0  0  0  0  0  0  0  0  0  # atno 8010 bound_to 7997
  139.5772  144.1506  152.1466 H   0  0  0  0  0  0  0  0  0  0  0  0  # atno 10167 bound_to 10162
  157.3698  130.7695  149.7110 H   0  0  0  0  0  0  0  0  0  0  0  0  # atno 10718 bound_to 10713
  154.3238  135.2755  155.2506 H   0  0  0  0  0  0  0  0  0  0  0  0  # atno 10763 bound_to 10752
  154.4848  135.5849  153.6419 H   0  0  0  0  0  0  0  0  0  0  0  0  # atno 10764 bound_to 10752
  152.9874  135.6120  154.3425 H   0  0  0  0  0  0  0  0  0  0  0  0  # atno 10765 bound_to 10752
  141.1534  133.7785  156.9943 H   0  0  0  0  0  0  0  0  0  0  0  0  # atno 11005 bound_to 11000
  145.3473  139.1715  143.4453 LP  0  0  0  0  0  0  0  0  0  0  0  0  # atno 17320 bound_to 7965
  146.3152  140.3521  142.8657 LP  0  0  0  0  0  0  0  0  0  0  0  0  # atno 17321 bound_to 7965
  140.1051  144.5506  150.6962 LP  0  0  0  0  0  0  0  0  0  0  0  0  # atno 17342 bound_to 10162
  140.7053  143.2464  151.4743 LP  0  0  0  0  0  0  0  0  0  0  0  0  # atno 17343 bound_to 10162
  155.9753  130.4091  150.3858 LP  0  0  0  0  0  0  0  0  0  0  0  0  # atno 17370 bound_to 10713
  157.1948  131.0424  151.2681 LP  0  0  0  0  0  0  0  0  0  0  0  0  # atno 17371 bound_to 10713
  140.0982  134.9551  157.1882 LP  0  0  0  0  0  0  0  0  0  0  0  0  # atno 17394 bound_to 11000
  140.3354  134.2763  155.7221 LP  0  0  0  0  0  0  0  0  0  0  0  0  # atno 17395 bound_to 11000

$$$$
