AV-unprocessed.smi:2822|AV-procd|sdf|10863|dock5
  -GOLD-   2272015303D 1   1.00000     0.00000
 Structure written by MMmdl.
 41 43  0  0  0  0  0  0  0  0  3 V2000
  153.2980  140.7855  160.6824 Cl  0  0  0  0  0  0  0  0  0  0  0  0
  152.6897  142.1021  159.7405 C   0  0  0  0  0  0  0  0  0  0  0  0
  152.7880  143.4153  160.2450 C   0  0  0  0  0  0  0  0  0  0  0  0
  152.3190  144.4538  159.5213 N   0  3  0  0  0  0  0  0  0  0  0  0
  151.7465  144.2979  158.3088 C   0  0  0  0  0  0  0  0  0  0  0  0
  151.6204  143.0093  157.7507 C   0  0  0  0  0  0  0  0  0  0  0  0
  152.0975  141.8864  158.4717 C   0  0  0  0  0  0  0  0  0  0  0  0
  152.0037  140.5780  157.9744 N   0  0  0  0  0  0  0  0  0  0  0  0
  152.0332  140.2953  156.5460 C   0  0  0  0  0  0  0  0  0  0  0  0
  150.6649  139.8339  156.0153 C   0  0  1  0  0  0  0  0  0  0  0  0
  149.4800  140.6427  156.5817 C   0  0  0  0  0  0  0  0  0  0  0  0
  148.2019  140.1839  155.9834 N   0  3  1  0  0  0  0  0  0  0  0  0
  147.0052  140.8943  156.5063 C   0  0  0  0  0  0  0  0  0  0  0  0
  146.8764  142.3197  155.9343 C   0  0  0  0  0  0  0  0  0  0  0  0
  146.9042  142.3051  154.3998 C   0  0  0  0  0  0  0  0  0  0  0  0
  148.1543  141.5721  153.8924 C   0  0  0  0  0  0  0  0  0  0  0  0
  148.2473  140.1532  154.4951 C   0  0  1  0  0  0  0  0  0  0  0  0
  149.4914  139.3806  154.0140 C   0  0  0  0  0  0  0  0  0  0  0  0
  150.6714  139.9230  154.5947 O   0  0  0  0  0  0  0  0  0  0  0  0
  153.2255  143.6642  161.2009 H   0  0  0  0  0  0  0  0  0  0  0  0
  151.4080  145.2023  157.8243 H   0  0  0  0  0  0  0  0  0  0  0  0
  151.1585  142.9046  156.7803 H   0  0  0  0  0  0  0  0  0  0  0  0
  151.8878  139.8082  158.6187 H   0  0  0  0  0  0  0  0  0  0  0  0
  152.3489  141.1916  156.0108 H   0  0  0  0  0  0  0  0  0  0  0  0
  152.7778  139.5231  156.3489 H   0  0  0  0  0  0  0  0  0  0  0  0
  150.5417  138.7859  156.2946 H   0  0  0  0  0  0  0  0  0  0  0  0
  149.4356  140.5248  157.6649 H   0  0  0  0  0  0  0  0  0  0  0  0
  149.6203  141.7057  156.3874 H   0  0  0  0  0  0  0  0  0  0  0  0
  146.1204  140.3159  156.2374 H   0  0  0  0  0  0  0  0  0  0  0  0
  147.0343  140.9208  157.5962 H   0  0  0  0  0  0  0  0  0  0  0  0
  145.9481  142.7738  156.2823 H   0  0  0  0  0  0  0  0  0  0  0  0
  147.6809  142.9520  156.3106 H   0  0  0  0  0  0  0  0  0  0  0  0
  146.0095  141.8086  154.0220 H   0  0  0  0  0  0  0  0  0  0  0  0
  146.8819  143.3242  154.0127 H   0  0  0  0  0  0  0  0  0  0  0  0
  148.1240  141.5117  152.8040 H   0  0  0  0  0  0  0  0  0  0  0  0
  149.0451  142.1511  154.1385 H   0  0  0  0  0  0  0  0  0  0  0  0
  147.3698  139.5982  154.1594 H   0  0  0  0  0  0  0  0  0  0  0  0
  149.4087  138.3234  154.2713 H   0  0  0  0  0  0  0  0  0  0  0  0
  149.5744  139.4302  152.9280 H   0  0  0  0  0  0  0  0  0  0  0  0
  148.1028  139.2224  156.2768 H   0  0  0  0  0  0  0  0  0  0  0  0
  152.4003  145.3948  159.9073 H   0  0  0  0  0  0  0  0  0  0  0  0
  1  2  1  0  0  0  0
  2  7  1  0  0  0  0
  2  3  2  0  0  0  0
  3  4  1  0  0  0  0
  3 20  1  0  0  0  0
  4  5  2  0  0  0  0
  4 41  1  0  0  0  0
  5  6  1  0  0  0  0
  5 21  1  0  0  0  0
  6  7  2  0  0  0  0
  6 22  1  0  0  0  0
  7  8  1  0  0  0  0
  8  9  1  0  0  0  0
  8 23  1  0  0  0  0
  9 10  1  0  0  0  0
  9 24  1  0  0  0  0
  9 25  1  0  0  0  0
 10 19  1  0  0  0  0
 10 11  1  0  0  0  0
 10 26  1  0  0  0  0
 11 12  1  0  0  0  0
 11 27  1  0  0  0  0
 11 28  1  0  0  0  0
 12 17  1  0  0  0  0
 12 13  1  0  0  0  0
 12 40  1  0  0  0  0
 13 14  1  0  0  0  0
 13 29  1  0  0  0  0
 13 30  1  0  0  0  0
 14 15  1  0  0  0  0
 14 31  1  0  0  0  0
 14 32  1  0  0  0  0
 15 16  1  0  0  0  0
 15 33  1  0  0  0  0
 15 34  1  0  0  0  0
 16 17  1  0  0  0  0
 16 35  1  0  0  0  0
 16 36  1  0  0  0  0
 17 18  1  0  0  0  0
 17 37  1  0  0  0  0
 18 19  1  0  0  0  0
 18 38  1  0  0  0  0
 18 39  1  0  0  0  0
M  CHG  1   4   1
M  CHG  1  12   1
M  END
> <s_m_source_file>
AV-unprocessed.smi

> <i_m_source_file_index>
2822

> <i_lp_mmshare_version>
43012

> <i_f3d_flags>
0

> <s_epik_input>
Q2xjMVtjSF1uW2NIXVtjSF1jMVtOSF1bQ0gyXVtDQEhdKFtDSDJdMilPW0NIMl1bQ0BASF0oTjIzKVtDSDJdW0NIMl1bQ0gyXVtDSDJdMw==

> <s_epik_cmdline>
J2VwaWtfcHl0aG9uJywgJy1waCcsICc3LjAnLCAnLXRuJywgJzgnLCAnLW1hJywgJzIwMCcsICctbWV0YWxfYmluZGluZycsICctaW1hZScsICc8aW5maWxlLm1hZT4nLCAnLW9tYWUnLCAnPG91dGZpbGUubWFlPic=

> <r_lp_tautomer_probability>
1

> <r_epik_Ionization_Penalty>
0.254999

> <r_epik_Ionization_Penalty_Charging>
0.254956

> <r_epik_Ionization_Penalty_Neutral>
4.33524e-05

> <r_epik_State_Penalty>
0.230978

> <r_epik_Charging_Adjusted_Penalty>
0.485934

> <i_epik_Tot_Q>
2

> <i_epik_Tot_abs_Q>
2

> <r_epik_Metal_State_Penalty>
3.47007

> <b_epik_Metal_Only>
0

> <s_lp_Force_Field>
OPLS_2005

> <r_lp_Energy>
41.3986

> <b_lp_Chiralities_Consistent>
1

> <s_lp_Variant>
AV-unprocessed.smi:2822-4

> <Gold.Version>
5.8.1

> <Gold.Id.Protein>
6NUR|6NUR_protein|mol2

> <Gold.PLP.Fitness>
39.8431

> <Gold.PLP.PLP>
-37.5877

> <Gold.PLP.part.hbond>
-1.0000

> <Gold.PLP.part.metal>
0.0000

> <Gold.PLP.part.buried>
-4.7182

> <Gold.PLP.part.nonpolar>
-31.9210

> <Gold.PLP.part.repulsive>
0.2592

> <Gold.PLP.ligand.clash>
0.0000

> <Gold.PLP.ligand.torsion>
0.3732

> <Gold.PLP.Chemscore.Hbond>
1.0000

> <Gold.PLP.Chemscore.CHOScore>
0.0000

> <Gold.PLP.Chemscore.Metal>
0.0000

> <Gold.Chemscore.Hbonds>
donor molecule, donor type, donor heavy atom, donor atom, acceptor molecule, acceptor atom, score
      P1  H  7989  7998       L1    19  1.00

> <Gold.PLP.Chemscore.Internal.Correction>
0.0019

> <Gold.Rescore>
     Score         DG    S(hbond)    S(metal)    S(lipo)     H(rot)  DE(clash)    DE(int)     intcor
     18.46     -18.79       0.97        0.00     112.32       1.20       0.06       0.27       ----

> <Gold.Chemscore.Fitness>
18.4618

> <Gold.Chemscore.DG>
-18.7894

> <Gold.Chemscore.ZeroCoef>
-5.4800

> <Gold.Chemscore.Hbond>
0.9672

> <Gold.Chemscore.Metal>
0.0000

> <Gold.Chemscore.Lipo>
112.3188

> <Gold.Chemscore.Internal_Hbond>
0.0000

> <Gold.Chemscore.DEClash>
0.0553

> <Gold.Chemscore.DEInternal>
0.2723

> <Gold.Chemscore.Rot>
1.1962

> <Gold.Chemscore.Internal.Correction>
   9.000000E+99

> <Gold.Chemscore.Hbonds>
donor molecule, donor type, donor heavy atom, donor atom, acceptor molecule, acceptor atom, score
      P1  H  7989  7998       L1    19  0.88

> <Gold.Chemscore.Hbond.Weighted>
-3.2304

> <Gold.Chemscore.Metal.Weighted>
-0.0000

> <Gold.Chemscore.Lipo.Weighted>
-13.1413

> <Gold.Chemscore.Internal_Hbond.Weighted>
0.0000

> <Gold.Chemscore.DEClash.Weighted>
0.0553

> <Gold.Chemscore.DEInternal.Weighted>
0.2723

> <Gold.Chemscore.Rot.Weighted>
3.0623

> <Gold.Chemscore.Internal.Correction.Weighted>
   9.000000E+99

> <Gold.Protein.RotatedTorsions>
[ 6907 6896 6895 6894 ] final   82.67 input  -60.11 | X-H torsion
[ 7974 7965 7964 7962 ] final   71.76 input  175.53 | X-H torsion
[ 8008 7997 7996 7995 ] final   50.45 input   59.86 | X-H torsion
[ 10167 10162 10161 10158 ] final -113.10 input  -65.29 | X-H torsion
[ 10718 10713 10712 10709 ] final  -14.13 input   66.30 | X-H torsion
[ 10763 10752 10751 10750 ] final -172.05 input  -60.55 | X-H torsion
[ 11005 11000 10999 10996 ] final  -47.76 input  -57.11 | X-H torsion

> <Gold.Protein.ActiveResidues>
 VAL166  LYS551  ARG553  GLY616  TRP617  ASP618  TYR619  PRO620  LYS621  CYS622 
 ASP623  PHE694  ASN695  SER759  ASP760  ASP761  ALA762  ILE779  LEU786  VAL792 
 PHE793  MET794  SER795  GLU796  ALA797  LYS798  CYS799  TRP800  GLU811  SER814 

> <Gold.Protein.RotatedAtoms>
  152.5306  134.3014  159.9079 H   0  0  0  0  0  0  0  0  0  0  0  0  # atno 6907 bound_to 6896
  151.2964  133.4135  159.2644 H   0  0  0  0  0  0  0  0  0  0  0  0  # atno 6908 bound_to 6896
  151.0156  134.9446  159.8088 H   0  0  0  0  0  0  0  0  0  0  0  0  # atno 6909 bound_to 6896
  145.7619  139.2804  143.1371 H   0  0  0  0  0  0  0  0  0  0  0  0  # atno 7974 bound_to 7965
  155.4189  140.3445  155.4269 H   0  0  0  0  0  0  0  0  0  0  0  0  # atno 8008 bound_to 7997
  156.1405  140.1540  156.8960 H   0  0  0  0  0  0  0  0  0  0  0  0  # atno 8009 bound_to 7997
  154.4967  140.0826  156.7692 H   0  0  0  0  0  0  0  0  0  0  0  0  # atno 8010 bound_to 7997
  140.1155  143.4489  152.1725 H   0  0  0  0  0  0  0  0  0  0  0  0  # atno 10167 bound_to 10162
  156.6203  130.4873  149.6167 H   0  0  0  0  0  0  0  0  0  0  0  0  # atno 10718 bound_to 10713
  154.6237  135.2878  155.0297 H   0  0  0  0  0  0  0  0  0  0  0  0  # atno 10763 bound_to 10752
  154.1482  135.6507  153.4961 H   0  0  0  0  0  0  0  0  0  0  0  0  # atno 10764 bound_to 10752
  153.0247  135.5349  154.7037 H   0  0  0  0  0  0  0  0  0  0  0  0  # atno 10765 bound_to 10752
  141.0660  133.6694  156.3343 H   0  0  0  0  0  0  0  0  0  0  0  0  # atno 11005 bound_to 11000
  146.0256  140.8307  142.9901 LP  0  0  0  0  0  0  0  0  0  0  0  0  # atno 17320 bound_to 7965
  144.6829  140.2693  143.7308 LP  0  0  0  0  0  0  0  0  0  0  0  0  # atno 17321 bound_to 7965
  139.5596  144.7397  151.4193 LP  0  0  0  0  0  0  0  0  0  0  0  0  # atno 17342 bound_to 10162
  140.6901  143.7880  150.7243 LP  0  0  0  0  0  0  0  0  0  0  0  0  # atno 17343 bound_to 10162
  156.2317  130.6798  151.1470 LP  0  0  0  0  0  0  0  0  0  0  0  0  # atno 17370 bound_to 10713
  157.7229  131.0669  150.6057 LP  0  0  0  0  0  0  0  0  0  0  0  0  # atno 17371 bound_to 10713
  140.5773  134.5781  157.5471 LP  0  0  0  0  0  0  0  0  0  0  0  0  # atno 17394 bound_to 11000
  139.9477  134.7673  156.0523 LP  0  0  0  0  0  0  0  0  0  0  0  0  # atno 17395 bound_to 11000

$$$$
