AV-unprocessed.smi:1982|AV-procd|sdf|8027|dock2
  -GOLD-   2272010223D 1   1.00000     0.00000
 Structure written by MMmdl.
 36 37  0  0  0  0  0  0  0  0  1 V2000
  153.0671  142.9823  163.1338 C   0  0  0  0  0  0  0  0  0  0  0  0
  152.5686  142.7661  161.6938 C   0  0  1  0  0  0  0  0  0  0  0  0
  151.9685  144.0783  161.1474 C   0  0  0  0  0  0  0  0  0  0  0  0
  151.4385  143.9211  159.7160 C   0  0  0  0  0  0  0  0  0  0  0  0
  152.5396  143.4093  158.7767 C   0  0  0  0  0  0  0  0  0  0  0  0
  153.1608  142.0948  159.2865 C   0  0  2  0  0  0  0  0  0  0  0  0
  152.2056  140.9936  159.1739 N   0  0  0  0  0  0  0  0  0  0  0  0
  152.4350  139.8037  158.5975 C   0  0  0  0  0  0  0  0  0  0  0  0
  153.4860  139.5139  158.0270 O   0  0  0  0  0  0  0  0  0  0  0  0
  151.3024  138.7796  158.6843 C   0  0  0  0  0  0  0  0  0  0  0  0
  151.7193  137.4950  158.1514 N   0  0  0  0  0  0  0  0  0  0  0  0
  151.3635  136.8501  157.0386 C   0  0  0  0  0  0  0  0  0  0  0  0
  152.0078  135.7001  156.9128 N   0  0  0  0  0  0  0  0  0  0  0  0
  152.8083  135.6626  158.0424 N   0  0  0  0  0  0  0  0  0  0  0  0
  152.6414  136.7247  158.7815 N   0  0  0  0  0  0  0  0  0  0  0  0
  153.6758  142.2295  160.7434 C   0  0  2  0  0  0  0  0  0  0  0  0
  154.3048  140.9092  161.2356 C   0  0  0  0  0  0  0  0  0  0  0  0
  153.9214  143.6593  163.1608 H   0  0  0  0  0  0  0  0  0  0  0  0
  153.3650  142.0455  163.6040 H   0  0  0  0  0  0  0  0  0  0  0  0
  152.2840  143.4130  163.7582 H   0  0  0  0  0  0  0  0  0  0  0  0
  151.7664  142.0278  161.7369 H   0  0  0  0  0  0  0  0  0  0  0  0
  151.1587  144.4161  161.7949 H   0  0  0  0  0  0  0  0  0  0  0  0
  152.7248  144.8645  161.1673 H   0  0  0  0  0  0  0  0  0  0  0  0
  150.5927  143.2325  159.7097 H   0  0  0  0  0  0  0  0  0  0  0  0
  151.0587  144.8770  159.3544 H   0  0  0  0  0  0  0  0  0  0  0  0
  152.1416  143.2775  157.7697 H   0  0  0  0  0  0  0  0  0  0  0  0
  153.3206  144.1663  158.6963 H   0  0  0  0  0  0  0  0  0  0  0  0
  154.0217  141.8671  158.6550 H   0  0  0  0  0  0  0  0  0  0  0  0
  151.3060  141.1358  159.6105 H   0  0  0  0  0  0  0  0  0  0  0  0
  150.9889  138.6609  159.7226 H   0  0  0  0  0  0  0  0  0  0  0  0
  150.4357  139.1272  158.1207 H   0  0  0  0  0  0  0  0  0  0  0  0
  150.6442  137.2239  156.3245 H   0  0  0  0  0  0  0  0  0  0  0  0
  154.4762  142.9709  160.7259 H   0  0  0  0  0  0  0  0  0  0  0  0
  153.5498  140.1418  161.4114 H   0  0  0  0  0  0  0  0  0  0  0  0
  154.8580  141.0492  162.1638 H   0  0  0  0  0  0  0  0  0  0  0  0
  155.0110  140.5164  160.5035 H   0  0  0  0  0  0  0  0  0  0  0  0
  1  2  1  0  0  0  0
  1 18  1  0  0  0  0
  1 19  1  0  0  0  0
  1 20  1  0  0  0  0
  2 16  1  0  0  0  0
  2  3  1  0  0  0  0
  2 21  1  0  0  0  0
  3  4  1  0  0  0  0
  3 22  1  0  0  0  0
  3 23  1  0  0  0  0
  4  5  1  0  0  0  0
  4 24  1  0  0  0  0
  4 25  1  0  0  0  0
  5  6  1  0  0  0  0
  5 26  1  0  0  0  0
  5 27  1  0  0  0  0
  6  7  1  0  0  0  0
  6 16  1  0  0  0  0
  6 28  1  0  0  0  0
  7  8  1  0  0  0  0
  7 29  1  0  0  0  0
  8  9  2  0  0  0  0
  8 10  1  0  0  0  0
 10 11  1  0  0  0  0
 10 30  1  0  0  0  0
 10 31  1  0  0  0  0
 11 15  1  0  0  0  0
 11 12  1  0  0  0  0
 12 13  2  0  0  0  0
 12 32  1  0  0  0  0
 13 14  1  0  0  0  0
 14 15  2  0  0  0  0
 16 17  1  0  0  0  0
 16 33  1  0  0  0  0
 17 34  1  0  0  0  0
 17 35  1  0  0  0  0
 17 36  1  0  0  0  0
M  END
> <s_m_source_file>
AV-unprocessed.smi

> <i_m_source_file_index>
1982

> <i_lp_mmshare_version>
43012

> <i_f3d_flags>
0

> <s_epik_input>
W0NIM11bQ0BASF0xW0NIMl1bQ0gyXVtDSDJdW0NASF0oW0NASF0xW0NIM10pW05IXUMoPU8pW0NIMl1uMltjSF1ubm4y

> <s_epik_cmdline>
J2VwaWtfcHl0aG9uJywgJy1waCcsICc3LjAnLCAnLXRuJywgJzgnLCAnLW1hJywgJzIwMCcsICctbWV0YWxfYmluZGluZycsICctaW1hZScsICc8aW5maWxlLm1hZT4nLCAnLW9tYWUnLCAnPG91dGZpbGUubWFlPic=

> <r_lp_tautomer_probability>
1

> <r_epik_Ionization_Penalty>
5.03816e-07

> <r_epik_Ionization_Penalty_Charging>
0

> <r_epik_Ionization_Penalty_Neutral>
5.03816e-07

> <r_epik_State_Penalty>
-0

> <r_epik_Charging_Adjusted_Penalty>
0

> <i_epik_Tot_Q>
0

> <i_epik_Tot_abs_Q>
0

> <r_epik_Metal_State_Penalty>
-0

> <b_epik_Metal_Only>
0

> <s_lp_Force_Field>
OPLS_2005

> <r_lp_Energy>
12.4214

> <b_lp_Chiralities_Consistent>
1

> <s_lp_Variant>
AV-unprocessed.smi:1982-8

> <Gold.Version>
5.8.1

> <Gold.Id.Protein>
6NUR|6NUR_protein|mol2

> <Gold.PLP.Fitness>
43.4552

> <Gold.PLP.PLP>
-37.9121

> <Gold.PLP.part.hbond>
-3.9907

> <Gold.PLP.part.metal>
0.0000

> <Gold.PLP.part.buried>
-4.5967

> <Gold.PLP.part.nonpolar>
-29.5426

> <Gold.PLP.part.repulsive>
0.1318

> <Gold.PLP.ligand.clash>
0.0000

> <Gold.PLP.ligand.torsion>
0.2352

> <Gold.PLP.Chemscore.Hbond>
2.0000

> <Gold.PLP.Chemscore.CHOScore>
0.0000

> <Gold.PLP.Chemscore.Metal>
0.0000

> <Gold.Chemscore.Hbonds>
donor molecule, donor type, donor heavy atom, donor atom, acceptor molecule, acceptor atom, score
      P1  H  7997  8010       L1     9  1.00
      P1  H 10752 10764       L1    13  0.68

> <Gold.PLP.Chemscore.Internal.Correction>
0.0135

> <Gold.Rescore>
     Score         DG    S(hbond)    S(metal)    S(lipo)     H(rot)  DE(clash)    DE(int)     intcor
     17.43     -17.87       1.86        0.00      94.61       1.91       0.00       0.44       ----

> <Gold.Chemscore.Fitness>
17.4265

> <Gold.Chemscore.DG>
-17.8706

> <Gold.Chemscore.ZeroCoef>
-5.4800

> <Gold.Chemscore.Hbond>
1.8562

> <Gold.Chemscore.Metal>
0.0000

> <Gold.Chemscore.Lipo>
94.6124

> <Gold.Chemscore.Internal_Hbond>
0.0000

> <Gold.Chemscore.DEClash>
0.0029

> <Gold.Chemscore.DEInternal>
0.4412

> <Gold.Chemscore.Rot>
1.9058

> <Gold.Chemscore.Internal.Correction>
   9.000000E+99

> <Gold.Chemscore.Hbonds>
donor molecule, donor type, donor heavy atom, donor atom, acceptor molecule, acceptor atom, score
      P1  H  7997  8010       L1     9  0.94
      P1  H 10752 10764       L1    13  0.37

> <Gold.Chemscore.Hbond.Weighted>
-6.1998

> <Gold.Chemscore.Metal.Weighted>
-0.0000

> <Gold.Chemscore.Lipo.Weighted>
-11.0696

> <Gold.Chemscore.Internal_Hbond.Weighted>
0.0000

> <Gold.Chemscore.DEClash.Weighted>
0.0029

> <Gold.Chemscore.DEInternal.Weighted>
0.4412

> <Gold.Chemscore.Rot.Weighted>
4.8788

> <Gold.Chemscore.Internal.Correction.Weighted>
   9.000000E+99

> <Gold.Protein.RotatedTorsions>
[ 6907 6896 6895 6894 ] final  161.62 input  -60.11 | X-H torsion
[ 7974 7965 7964 7962 ] final  -37.85 input  175.53 | X-H torsion
[ 8008 7997 7996 7995 ] final   52.38 input   59.86 | X-H torsion
[ 10167 10162 10161 10158 ] final  158.61 input  -65.29 | X-H torsion
[ 10718 10713 10712 10709 ] final    9.47 input   66.30 | X-H torsion
[ 10763 10752 10751 10750 ] final  -14.62 input  -60.55 | X-H torsion
[ 11005 11000 10999 10996 ] final   33.91 input  -57.11 | X-H torsion

> <Gold.Protein.ActiveResidues>
 VAL166  LYS551  ARG553  GLY616  TRP617  ASP618  TYR619  PRO620  LYS621  CYS622 
 ASP623  PHE694  ASN695  SER759  ASP760  ASP761  ALA762  ILE779  LEU786  VAL792 
 PHE793  MET794  SER795  GLU796  ALA797  LYS798  CYS799  TRP800  GLU811  SER814 

> <Gold.Protein.RotatedAtoms>
  151.9528  133.3671  159.4006 H   0  0  0  0  0  0  0  0  0  0  0  0  # atno 6907 bound_to 6896
  150.6977  134.4322  159.5263 H   0  0  0  0  0  0  0  0  0  0  0  0  # atno 6908 bound_to 6896
  152.1998  134.8598  160.0560 H   0  0  0  0  0  0  0  0  0  0  0  0  # atno 6909 bound_to 6896
  146.0538  140.6444  142.9029 H   0  0  0  0  0  0  0  0  0  0  0  0  # atno 7974 bound_to 7965
  155.4508  140.3458  155.4300 H   0  0  0  0  0  0  0  0  0  0  0  0  # atno 8008 bound_to 7997
  156.1221  140.1490  156.9219 H   0  0  0  0  0  0  0  0  0  0  0  0  # atno 8009 bound_to 7997
  154.4831  140.0863  156.7403 H   0  0  0  0  0  0  0  0  0  0  0  0  # atno 8010 bound_to 7997
  139.4827  144.4808  151.8446 H   0  0  0  0  0  0  0  0  0  0  0  0  # atno 10167 bound_to 10162
  156.9668  130.5954  149.5666 H   0  0  0  0  0  0  0  0  0  0  0  0  # atno 10718 bound_to 10713
  153.5310  135.7014  153.5683 H   0  0  0  0  0  0  0  0  0  0  0  0  # atno 10763 bound_to 10752
  153.3691  135.3949  155.1775 H   0  0  0  0  0  0  0  0  0  0  0  0  # atno 10764 bound_to 10752
  154.8684  135.3807  154.4807 H   0  0  0  0  0  0  0  0  0  0  0  0  # atno 10765 bound_to 10752
  140.2583  134.3222  155.7866 H   0  0  0  0  0  0  0  0  0  0  0  0  # atno 11005 bound_to 11000
  144.7137  140.4132  143.7061 LP  0  0  0  0  0  0  0  0  0  0  0  0  # atno 17320 bound_to 7965
  145.6679  139.1593  143.2771 LP  0  0  0  0  0  0  0  0  0  0  0  0  # atno 17321 bound_to 7965
  140.4284  144.2149  150.5887 LP  0  0  0  0  0  0  0  0  0  0  0  0  # atno 17342 bound_to 10162
  140.4804  143.2381  151.8963 LP  0  0  0  0  0  0  0  0  0  0  0  0  # atno 17343 bound_to 10162
  156.0299  130.5391  150.8506 LP  0  0  0  0  0  0  0  0  0  0  0  0  # atno 17370 bound_to 10713
  157.5620  131.0946  150.9545 LP  0  0  0  0  0  0  0  0  0  0  0  0  # atno 17371 bound_to 10713
  141.2193  133.7394  156.9146 LP  0  0  0  0  0  0  0  0  0  0  0  0  # atno 17394 bound_to 11000
  140.1490  134.9243  157.2567 LP  0  0  0  0  0  0  0  0  0  0  0  0  # atno 17395 bound_to 11000

$$$$
