AV-unprocessed.smi:2280|AV-procd|sdf|9191|dock7
  -GOLD-   2272012403D 1   1.00000     0.00000
 Structure written by MMmdl.
 41 42  0  0  0  0  0  0  0  0  1 V2000
  145.7089  139.0876  155.4099 C   0  0  0  0  0  0  0  0  0  0  0  0
  147.2016  139.2388  155.1765 C   0  0  0  0  0  0  0  0  0  0  0  0
  147.9972  138.1939  155.6556 N   0  0  0  0  0  0  0  0  0  0  0  0
  149.2810  138.2419  155.5097 C   0  0  0  0  0  0  0  0  0  0  0  0
  149.9117  139.3270  154.8797 N   0  0  0  0  0  0  0  0  0  0  0  0
  151.3792  139.2620  154.7857 C   0  0  0  0  0  0  0  0  0  0  0  0
  152.0665  139.7024  156.0978 C   0  0  2  0  0  0  0  0  0  0  0  0
  151.9382  138.6958  157.0815 O   0  0  0  0  0  0  0  0  0  0  0  0
  151.4798  140.9988  156.6804 C   0  0  0  0  0  0  0  0  0  0  0  0
  152.1388  141.3120  157.9010 O   0  0  0  0  0  0  0  0  0  0  0  0
  151.9149  142.5431  158.4809 C   0  0  0  0  0  0  0  0  0  0  0  0
  151.2262  143.6001  157.8326 C   0  0  0  0  0  0  0  0  0  0  0  0
  151.0330  144.8331  158.4823 C   0  0  0  0  0  0  0  0  0  0  0  0
  151.5237  145.0268  159.7849 C   0  0  0  0  0  0  0  0  0  0  0  0
  152.2088  143.9860  160.4375 C   0  0  0  0  0  0  0  0  0  0  0  0
  152.4085  142.7437  159.7938 C   0  0  0  0  0  0  0  0  0  0  0  0
  153.1508  141.6174  160.5067 C   0  0  0  0  0  0  0  0  0  0  0  0
  153.2779  141.8516  161.8133 F   0  0  0  0  0  0  0  0  0  0  0  0
  152.4879  140.4709  160.3527 F   0  0  0  0  0  0  0  0  0  0  0  0
  154.3716  141.4822  159.9880 F   0  0  0  0  0  0  0  0  0  0  0  0
  149.2093  140.3772  154.3645 C   0  0  0  0  0  0  0  0  0  0  0  0
  149.7713  141.3107  153.7879 O   0  0  0  0  0  0  0  0  0  0  0  0
  147.7499  140.3126  154.5447 C   0  0  0  0  0  0  0  0  0  0  0  0
  146.9339  141.4805  154.0042 C   0  0  0  0  0  0  0  0  0  0  0  0
  145.3320  139.9103  156.0180 H   0  0  0  0  0  0  0  0  0  0  0  0
  145.4801  138.1561  155.9289 H   0  0  0  0  0  0  0  0  0  0  0  0
  145.1728  139.0809  154.4608 H   0  0  0  0  0  0  0  0  0  0  0  0
  149.9461  137.4505  155.8597 H   0  0  0  0  0  0  0  0  0  0  0  0
  151.6643  138.2332  154.5568 H   0  0  0  0  0  0  0  0  0  0  0  0
  151.7613  139.8370  153.9392 H   0  0  0  0  0  0  0  0  0  0  0  0
  153.1325  139.8635  155.9327 H   0  0  0  0  0  0  0  0  0  0  0  0
  152.7818  138.5660  157.4878 H   0  0  0  0  0  0  0  0  0  0  0  0
  151.5671  141.8156  155.9617 H   0  0  0  0  0  0  0  0  0  0  0  0
  150.4181  140.8427  156.8788 H   0  0  0  0  0  0  0  0  0  0  0  0
  150.8354  143.4911  156.8327 H   0  0  0  0  0  0  0  0  0  0  0  0
  150.5074  145.6315  157.9793 H   0  0  0  0  0  0  0  0  0  0  0  0
  151.3752  145.9731  160.2837 H   0  0  0  0  0  0  0  0  0  0  0  0
  152.5782  144.1537  161.4382 H   0  0  0  0  0  0  0  0  0  0  0  0
  147.1075  141.5981  152.9340 H   0  0  0  0  0  0  0  0  0  0  0  0
  147.2302  142.4061  154.4990 H   0  0  0  0  0  0  0  0  0  0  0  0
  145.8618  141.3596  154.1497 H   0  0  0  0  0  0  0  0  0  0  0  0
  1  2  1  0  0  0  0
  1 25  1  0  0  0  0
  1 26  1  0  0  0  0
  1 27  1  0  0  0  0
  2 23  2  0  0  0  0
  2  3  1  0  0  0  0
  3  4  2  0  0  0  0
  4  5  1  0  0  0  0
  4 28  1  0  0  0  0
  5  6  1  0  0  0  0
  5 21  1  0  0  0  0
  6  7  1  0  0  0  0
  6 29  1  0  0  0  0
  6 30  1  0  0  0  0
  7  8  1  0  0  0  0
  7  9  1  0  0  0  0
  7 31  1  0  0  0  0
  8 32  1  0  0  0  0
  9 10  1  0  0  0  0
  9 33  1  0  0  0  0
  9 34  1  0  0  0  0
 10 11  1  0  0  0  0
 11 16  1  0  0  0  0
 11 12  2  0  0  0  0
 12 13  1  0  0  0  0
 12 35  1  0  0  0  0
 13 14  2  0  0  0  0
 13 36  1  0  0  0  0
 14 15  1  0  0  0  0
 14 37  1  0  0  0  0
 15 16  2  0  0  0  0
 15 38  1  0  0  0  0
 16 17  1  0  0  0  0
 17 18  1  0  0  0  0
 17 19  1  0  0  0  0
 17 20  1  0  0  0  0
 21 22  2  0  0  0  0
 21 23  1  0  0  0  0
 23 24  1  0  0  0  0
 24 39  1  0  0  0  0
 24 40  1  0  0  0  0
 24 41  1  0  0  0  0
M  END
> <s_m_source_file>
AV-unprocessed.smi

> <i_m_source_file_index>
2280

> <i_lp_mmshare_version>
43012

> <i_f3d_flags>
0

> <s_epik_input>
W0NIM11jMW5bY0hdbihjKD1PKWMxW0NIM10pW0NIMl1bQ0BIXShbT0hdKVtDSDJdT2MyW2NIXVtjSF1bY0hdW2NIXWMyQyhGKShGKUY=

> <s_epik_cmdline>
J2VwaWtfcHl0aG9uJywgJy1waCcsICc3LjAnLCAnLXRuJywgJzgnLCAnLW1hJywgJzIwMCcsICctbWV0YWxfYmluZGluZycsICctaW1hZScsICc8aW5maWxlLm1hZT4nLCAnLW9tYWUnLCAnPG91dGZpbGUubWFlPic=

> <r_lp_tautomer_probability>
1

> <r_epik_Ionization_Penalty>
3.7476e-05

> <r_epik_Ionization_Penalty_Charging>
8.44705e-08

> <r_epik_Ionization_Penalty_Neutral>
3.73915e-05

> <r_epik_State_Penalty>
-0

> <r_epik_Charging_Adjusted_Penalty>
8.44705e-08

> <i_epik_Tot_Q>
0

> <i_epik_Tot_abs_Q>
0

> <r_epik_Metal_State_Penalty>
-0

> <b_epik_Metal_Only>
0

> <s_lp_Force_Field>
OPLS_2005

> <r_lp_Energy>
25.7706

> <b_lp_Chiralities_Consistent>
1

> <s_lp_Variant>
AV-unprocessed.smi:2280-1

> <Gold.Version>
5.8.1

> <Gold.Id.Protein>
6NUR|6NUR_protein|mol2

> <Gold.PLP.Fitness>
48.9436

> <Gold.PLP.PLP>
-47.2928

> <Gold.PLP.part.hbond>
-2.0000

> <Gold.PLP.part.metal>
0.0000

> <Gold.PLP.part.buried>
-4.3352

> <Gold.PLP.part.nonpolar>
-42.2058

> <Gold.PLP.part.repulsive>
1.3500

> <Gold.PLP.ligand.clash>
0.0000

> <Gold.PLP.ligand.torsion>
1.0274

> <Gold.PLP.Chemscore.Hbond>
1.0635

> <Gold.PLP.Chemscore.CHOScore>
0.0000

> <Gold.PLP.Chemscore.Metal>
0.0000

> <Gold.Chemscore.Hbonds>
donor molecule, donor type, donor heavy atom, donor atom, acceptor molecule, acceptor atom, score
      P1  H  7989  7998       L1    22  0.22
      P1  H  8011  8017       L1    22  0.80

> <Gold.PLP.Chemscore.Internal.Correction>
0.5150

> <Gold.Rescore>
     Score         DG    S(hbond)    S(metal)    S(lipo)     H(rot)  DE(clash)    DE(int)     intcor
     10.16     -15.07       1.13        0.00     109.58       2.73       1.04       3.87       ----

> <Gold.Chemscore.Fitness>
10.1608

> <Gold.Chemscore.DG>
-15.0713

> <Gold.Chemscore.ZeroCoef>
-5.4800

> <Gold.Chemscore.Hbond>
1.1253

> <Gold.Chemscore.Metal>
0.0000

> <Gold.Chemscore.Lipo>
109.5847

> <Gold.Chemscore.Internal_Hbond>
0.0000

> <Gold.Chemscore.DEClash>
1.0434

> <Gold.Chemscore.DEInternal>
3.8671

> <Gold.Chemscore.Rot>
2.7300

> <Gold.Chemscore.Internal.Correction>
   9.000000E+99

> <Gold.Chemscore.Hbonds>
donor molecule, donor type, donor heavy atom, donor atom, acceptor molecule, acceptor atom, score
      P1  H  7989  7998       L1    22  0.17
      P1  H  8011  8017       L1    22  0.80

> <Gold.Chemscore.Hbond.Weighted>
-3.7586

> <Gold.Chemscore.Metal.Weighted>
-0.0000

> <Gold.Chemscore.Lipo.Weighted>
-12.8214

> <Gold.Chemscore.Internal_Hbond.Weighted>
0.0000

> <Gold.Chemscore.DEClash.Weighted>
1.0434

> <Gold.Chemscore.DEInternal.Weighted>
3.8671

> <Gold.Chemscore.Rot.Weighted>
6.9888

> <Gold.Chemscore.Internal.Correction.Weighted>
   9.000000E+99

> <Gold.Protein.RotatedTorsions>
[ 6907 6896 6895 6894 ] final    6.97 input  -60.11 | X-H torsion
[ 7974 7965 7964 7962 ] final -165.08 input  175.53 | X-H torsion
[ 8008 7997 7996 7995 ] final  -73.91 input   59.86 | X-H torsion
[ 10167 10162 10161 10158 ] final  -68.48 input  -65.29 | X-H torsion
[ 10718 10713 10712 10709 ] final  -87.44 input   66.30 | X-H torsion
[ 10763 10752 10751 10750 ] final   64.44 input  -60.55 | X-H torsion
[ 11005 11000 10999 10996 ] final -125.39 input  -57.11 | X-H torsion

> <Gold.Protein.ActiveResidues>
 VAL166  LYS551  ARG553  GLY616  TRP617  ASP618  TYR619  PRO620  LYS621  CYS622 
 ASP623  PHE694  ASN695  SER759  ASP760  ASP761  ALA762  ILE779  LEU786  VAL792 
 PHE793  MET794  SER795  GLU796  ALA797  LYS798  CYS799  TRP800  GLU811  SER814 

> <Gold.Protein.RotatedAtoms>
  151.6824  135.0959  160.0218 H   0  0  0  0  0  0  0  0  0  0  0  0  # atno 6907 bound_to 6896
  152.3828  133.6565  159.6183 H   0  0  0  0  0  0  0  0  0  0  0  0  # atno 6908 bound_to 6896
  150.7760  133.9002  159.3380 H   0  0  0  0  0  0  0  0  0  0  0  0  # atno 6909 bound_to 6896
  144.7279  140.2866  143.6227 H   0  0  0  0  0  0  0  0  0  0  0  0  # atno 7974 bound_to 7965
  154.5286  140.0771  156.8305 H   0  0  0  0  0  0  0  0  0  0  0  0  # atno 8008 bound_to 7997
  155.3422  140.3408  155.4221 H   0  0  0  0  0  0  0  0  0  0  0  0  # atno 8009 bound_to 7997
  156.1758  140.1635  156.8352 H   0  0  0  0  0  0  0  0  0  0  0  0  # atno 8010 bound_to 7997
  140.5504  143.2312  151.6922 H   0  0  0  0  0  0  0  0  0  0  0  0  # atno 10167 bound_to 10162
  155.9985  130.4800  150.4868 H   0  0  0  0  0  0  0  0  0  0  0  0  # atno 10718 bound_to 10713
  153.0056  135.5393  154.6510 H   0  0  0  0  0  0  0  0  0  0  0  0  # atno 10763 bound_to 10752
  154.5742  135.2844  155.0799 H   0  0  0  0  0  0  0  0  0  0  0  0  # atno 10764 bound_to 10752
  154.1953  135.6493  153.5124 H   0  0  0  0  0  0  0  0  0  0  0  0  # atno 10765 bound_to 10752
  140.9766  134.0732  157.3812 H   0  0  0  0  0  0  0  0  0  0  0  0  # atno 11005 bound_to 11000
  145.7897  139.1922  143.2110 LP  0  0  0  0  0  0  0  0  0  0  0  0  # atno 17320 bound_to 7965
  146.0766  140.7810  142.9662 LP  0  0  0  0  0  0  0  0  0  0  0  0  # atno 17321 bound_to 7965
  139.5025  144.3827  152.0359 LP  0  0  0  0  0  0  0  0  0  0  0  0  # atno 17342 bound_to 10162
  140.2944  144.3718  150.6079 LP  0  0  0  0  0  0  0  0  0  0  0  0  # atno 17343 bound_to 10162
  157.2867  131.0618  151.2161 LP  0  0  0  0  0  0  0  0  0  0  0  0  # atno 17370 bound_to 10713
  157.3188  130.6927  149.6257 LP  0  0  0  0  0  0  0  0  0  0  0  0  # atno 17371 bound_to 10713
  139.8933  135.0129  156.6891 LP  0  0  0  0  0  0  0  0  0  0  0  0  # atno 17394 bound_to 11000
  140.7250  133.9108  155.8172 LP  0  0  0  0  0  0  0  0  0  0  0  0  # atno 17395 bound_to 11000

$$$$
