AV-unprocessed.smi:601|AV-procd|sdf|3034|dock1
  -GOLD-   2262023553D 1   1.00000     0.00000
 Structure written by MMmdl.
 49 50  0  0  0  0  0  0  0  0  2 V2000
  149.2979  134.0679  154.5557 C   0  0  0  0  0  0  0  0  0  0  0  0
  147.8994  134.4230  155.0782 C   0  0  0  0  0  0  0  0  0  0  0  0
  147.8801  135.6425  156.0135 C   0  0  0  0  0  0  0  0  0  0  0  0
  148.4389  135.3502  157.4194 C   0  0  0  0  0  0  0  0  0  0  0  0
  149.0608  136.5378  158.0252 N   0  0  0  0  0  0  0  0  0  0  0  0
  148.6800  136.9771  159.2551 C   0  0  0  0  0  0  0  0  0  0  0  0
  149.2260  137.9409  159.7961 O   0  0  0  0  0  0  0  0  0  0  0  0
  147.5484  136.2408  160.0065 C   0  0  1  0  0  0  0  0  0  0  0  0
  147.9614  135.4772  161.2757 C   0  0  0  0  0  0  0  0  0  0  0  0
  146.7437  135.5893  162.1856 C   0  0  0  0  0  0  0  0  0  0  0  0
  145.7792  136.4938  161.4180 C   0  0  0  0  0  0  0  0  0  0  0  0
  146.6145  137.1855  160.5065 O   0  0  0  0  0  0  0  0  0  0  0  0
  150.0960  137.1507  157.2938 C   0  0  0  0  0  0  0  0  0  0  0  0
  150.0840  138.4736  156.9790 C   0  0  0  0  0  0  0  0  0  0  0  0
  149.0276  139.2881  157.3620 N   0  0  0  0  0  0  0  0  0  0  0  0
  151.1622  139.0396  156.2467 N   0  0  0  0  0  0  0  0  0  0  0  0
  151.1297  140.4866  155.9323 C   0  0  0  0  0  0  0  0  0  0  0  0
  151.2068  141.3796  157.1889 C   0  0  0  0  0  0  0  0  0  0  0  0
  152.0728  140.8085  158.3195 C   0  0  0  0  0  0  0  0  0  0  0  0
  152.2160  138.2632  155.8437 C   0  0  0  0  0  0  0  0  0  0  0  0
  153.1346  138.7751  155.2024 O   0  0  0  0  0  0  0  0  0  0  0  0
  152.2210  136.9365  156.1587 N   0  5  0  0  0  0  0  0  0  0  0  0
  151.2284  136.3265  156.8579 C   0  0  0  0  0  0  0  0  0  0  0  0
  151.2582  135.1252  157.1267 O   0  0  0  0  0  0  0  0  0  0  0  0
  149.2467  133.2404  153.8480 H   0  0  0  0  0  0  0  0  0  0  0  0
  149.9644  133.7661  155.3634 H   0  0  0  0  0  0  0  0  0  0  0  0
  149.7532  134.9155  154.0422 H   0  0  0  0  0  0  0  0  0  0  0  0
  147.2547  134.6292  154.2232 H   0  0  0  0  0  0  0  0  0  0  0  0
  147.4636  133.5608  155.5839 H   0  0  0  0  0  0  0  0  0  0  0  0
  148.4377  136.4584  155.5533 H   0  0  0  0  0  0  0  0  0  0  0  0
  146.8508  135.9916  156.1017 H   0  0  0  0  0  0  0  0  0  0  0  0
  147.6497  134.9662  158.0680 H   0  0  0  0  0  0  0  0  0  0  0  0
  149.1750  134.5479  157.3590 H   0  0  0  0  0  0  0  0  0  0  0  0
  147.0356  135.5503  159.3355 H   0  0  0  0  0  0  0  0  0  0  0  0
  148.2118  134.4393  161.0550 H   0  0  0  0  0  0  0  0  0  0  0  0
  148.8203  135.9264  161.7756 H   0  0  0  0  0  0  0  0  0  0  0  0
  146.2943  134.6190  162.3991 H   0  0  0  0  0  0  0  0  0  0  0  0
  147.0257  136.0450  163.1355 H   0  0  0  0  0  0  0  0  0  0  0  0
  145.0500  135.9027  160.8611 H   0  0  0  0  0  0  0  0  0  0  0  0
  145.2386  137.1822  162.0677 H   0  0  0  0  0  0  0  0  0  0  0  0
  148.2411  138.9269  157.8823 H   0  0  0  0  0  0  0  0  0  0  0  0
  148.9364  140.2306  157.0107 H   0  0  0  0  0  0  0  0  0  0  0  0
  151.9502  140.7351  155.2588 H   0  0  0  0  0  0  0  0  0  0  0  0
  150.2448  140.7595  155.3557 H   0  0  0  0  0  0  0  0  0  0  0  0
  151.5755  142.3704  156.9237 H   0  0  0  0  0  0  0  0  0  0  0  0
  150.1958  141.5302  157.5681 H   0  0  0  0  0  0  0  0  0  0  0  0
  152.0318  141.4497  159.1999 H   0  0  0  0  0  0  0  0  0  0  0  0
  153.1182  140.7294  158.0206 H   0  0  0  0  0  0  0  0  0  0  0  0
  151.7307  139.8161  158.6139 H   0  0  0  0  0  0  0  0  0  0  0  0
  1  2  1  0  0  0  0
  1 25  1  0  0  0  0
  1 26  1  0  0  0  0
  1 27  1  0  0  0  0
  2  3  1  0  0  0  0
  2 28  1  0  0  0  0
  2 29  1  0  0  0  0
  3  4  1  0  0  0  0
  3 30  1  0  0  0  0
  3 31  1  0  0  0  0
  4  5  1  0  0  0  0
  4 32  1  0  0  0  0
  4 33  1  0  0  0  0
  5  6  1  0  0  0  0
  5 13  1  0  0  0  0
  6  7  2  0  0  0  0
  6  8  1  0  0  0  0
  8 12  1  0  0  0  0
  8  9  1  0  0  0  0
  8 34  1  0  0  0  0
  9 10  1  0  0  0  0
  9 35  1  0  0  0  0
  9 36  1  0  0  0  0
 10 11  1  0  0  0  0
 10 37  1  0  0  0  0
 10 38  1  0  0  0  0
 11 12  1  0  0  0  0
 11 39  1  0  0  0  0
 11 40  1  0  0  0  0
 13 23  1  0  0  0  0
 13 14  2  0  0  0  0
 14 15  1  0  0  0  0
 14 16  1  0  0  0  0
 15 41  1  0  0  0  0
 15 42  1  0  0  0  0
 16 17  1  0  0  0  0
 16 20  1  0  0  0  0
 17 18  1  0  0  0  0
 17 43  1  0  0  0  0
 17 44  1  0  0  0  0
 18 19  1  0  0  0  0
 18 45  1  0  0  0  0
 18 46  1  0  0  0  0
 19 47  1  0  0  0  0
 19 48  1  0  0  0  0
 19 49  1  0  0  0  0
 20 21  2  0  0  0  0
 20 22  1  0  0  0  0
 22 23  1  0  0  0  0
 23 24  2  0  0  0  0
M  CHG  1  22  -1
M  END
> <s_m_source_file>
AV-unprocessed.smi

> <i_m_source_file_index>
601

> <i_lp_mmshare_version>
43012

> <i_f3d_flags>
0

> <s_epik_input>
TzFbQ0gyXVtDSDJdW0NIMl1bQ0BIXTFDKD1PKU4oW0NIMl1bQ0gyXVtDSDJdW0NIM10pYzJjKFtOSDJdKW4oW0NIMl1bQ0gyXVtDSDNdKWMoPU8pW25IXWMyPU8=

> <s_epik_cmdline>
J2VwaWtfcHl0aG9uJywgJy1waCcsICc3LjAnLCAnLXRuJywgJzgnLCAnLW1hJywgJzIwMCcsICctbWV0YWxfYmluZGluZycsICctaW1hZScsICc8aW5maWxlLm1hZT4nLCAnLW9tYWUnLCAnPG91dGZpbGUubWFlPic=

> <r_lp_tautomer_probability>
1

> <r_epik_Ionization_Penalty>
5.90608

> <r_epik_Ionization_Penalty_Charging>
4.55687e-07

> <r_epik_Ionization_Penalty_Neutral>
5.90608

> <r_epik_State_Penalty>
5.90604

> <r_epik_Charging_Adjusted_Penalty>
5.90604

> <i_epik_Tot_Q>
-1

> <i_epik_Tot_abs_Q>
1

> <r_epik_Metal_State_Penalty>
1.84043

> <b_epik_Metal_Only>
1

> <s_lp_Force_Field>
OPLS_2005

> <r_lp_Energy>
54.0415

> <b_lp_Chiralities_Consistent>
1

> <s_lp_Variant>
AV-unprocessed.smi:601-4

> <Gold.Version>
5.8.1

> <Gold.Id.Protein>
6NUR|6NUR_protein|mol2

> <Gold.PLP.Fitness>
40.6338

> <Gold.PLP.PLP>
-29.9779

> <Gold.PLP.part.hbond>
-6.0000

> <Gold.PLP.part.metal>
0.0000

> <Gold.PLP.part.buried>
-2.7324

> <Gold.PLP.part.nonpolar>
-21.8800

> <Gold.PLP.part.repulsive>
0.0343

> <Gold.PLP.ligand.clash>
0.0000

> <Gold.PLP.ligand.torsion>
1.6313

> <Gold.PLP.Chemscore.Hbond>
3.9205

> <Gold.PLP.Chemscore.CHOScore>
0.0000

> <Gold.PLP.Chemscore.Metal>
0.0000

> <Gold.Chemscore.Hbonds>
donor molecule, donor type, donor heavy atom, donor atom, acceptor molecule, acceptor atom, score
      P1  H  6931  6943       L1     7  0.04
      P1  H  6934  6947       L1    12  1.00
      P1  H  7997  8009       L1    21  0.91
      P1  H 10752 10763       L1    22  1.92

> <Gold.PLP.Chemscore.Internal.Correction>
2.1568

> <Gold.Rescore>
     Score         DG    S(hbond)    S(metal)    S(lipo)     H(rot)  DE(clash)    DE(int)     intcor
      9.91     -16.00       2.51        0.00      60.34       1.92       0.57       5.52       ----

> <Gold.Chemscore.Fitness>
9.9080

> <Gold.Chemscore.DG>
-16.0044

> <Gold.Chemscore.ZeroCoef>
-5.4800

> <Gold.Chemscore.Hbond>
2.5089

> <Gold.Chemscore.Metal>
0.0000

> <Gold.Chemscore.Lipo>
60.3418

> <Gold.Chemscore.Internal_Hbond>
0.0000

> <Gold.Chemscore.DEClash>
0.5715

> <Gold.Chemscore.DEInternal>
5.5249

> <Gold.Chemscore.Rot>
1.9201

> <Gold.Chemscore.Internal.Correction>
   9.000000E+99

> <Gold.Chemscore.Hbonds>
donor molecule, donor type, donor heavy atom, donor atom, acceptor molecule, acceptor atom, score
      P1  H  6931  6943       L1     7  0.07
      P1  H  6934  6947       L1    12  0.94
      P1  H  7997  8009       L1    21  0.83
      P1  H 10752 10763       L1    22  0.51

> <Gold.Chemscore.Hbond.Weighted>
-8.3798

> <Gold.Chemscore.Metal.Weighted>
-0.0000

> <Gold.Chemscore.Lipo.Weighted>
-7.0600

> <Gold.Chemscore.Internal_Hbond.Weighted>
0.0000

> <Gold.Chemscore.DEClash.Weighted>
0.5715

> <Gold.Chemscore.DEInternal.Weighted>
5.5249

> <Gold.Chemscore.Rot.Weighted>
4.9154

> <Gold.Chemscore.Internal.Correction.Weighted>
   9.000000E+99

> <Gold.Protein.RotatedTorsions>
[ 6907 6896 6895 6894 ] final   43.84 input  -60.11 | X-H torsion
[ 7974 7965 7964 7962 ] final  136.24 input  175.53 | X-H torsion
[ 8008 7997 7996 7995 ] final -128.46 input   59.86 | X-H torsion
[ 10167 10162 10161 10158 ] final  172.47 input  -65.29 | X-H torsion
[ 10718 10713 10712 10709 ] final   10.11 input   66.30 | X-H torsion
[ 10763 10752 10751 10750 ] final   92.94 input  -60.55 | X-H torsion
[ 11005 11000 10999 10996 ] final   39.21 input  -57.11 | X-H torsion

> <Gold.Protein.ActiveResidues>
 VAL166  LYS551  ARG553  GLY616  TRP617  ASP618  TYR619  PRO620  LYS621  CYS622 
 ASP623  PHE694  ASN695  SER759  ASP760  ASP761  ALA762  ILE779  LEU786  VAL792 
 PHE793  MET794  SER795  GLU796  ALA797  LYS798  CYS799  TRP800  GLU811  SER814 

> <Gold.Protein.RotatedAtoms>
  152.2252  134.8375  160.0480 H   0  0  0  0  0  0  0  0  0  0  0  0  # atno 6907 bound_to 6896
  151.9143  133.3564  159.3883 H   0  0  0  0  0  0  0  0  0  0  0  0  # atno 6908 bound_to 6896
  150.7010  134.4625  159.5431 H   0  0  0  0  0  0  0  0  0  0  0  0  # atno 6909 bound_to 6896
  144.9584  139.4738  143.5491 H   0  0  0  0  0  0  0  0  0  0  0  0  # atno 7974 bound_to 7965
  155.2630  140.0437  157.2999 H   0  0  0  0  0  0  0  0  0  0  0  0  # atno 8008 bound_to 7997
  154.5699  140.2370  155.8176 H   0  0  0  0  0  0  0  0  0  0  0  0  # atno 8009 bound_to 7997
  156.2114  140.2997  155.9749 H   0  0  0  0  0  0  0  0  0  0  0  0  # atno 8010 bound_to 7997
  139.5077  144.3370  152.0055 H   0  0  0  0  0  0  0  0  0  0  0  0  # atno 10167 bound_to 10162
  156.9761  130.5988  149.5673 H   0  0  0  0  0  0  0  0  0  0  0  0  # atno 10718 bound_to 10713
  153.2248  135.4343  155.0529 H   0  0  0  0  0  0  0  0  0  0  0  0  # atno 10763 bound_to 10752
  154.8268  135.3365  154.6874 H   0  0  0  0  0  0  0  0  0  0  0  0  # atno 10764 bound_to 10752
  153.7304  135.7011  153.5047 H   0  0  0  0  0  0  0  0  0  0  0  0  # atno 10765 bound_to 10752
  140.2050  134.3824  155.8077 H   0  0  0  0  0  0  0  0  0  0  0  0  # atno 11005 bound_to 11000
  146.3345  139.8717  142.8839 LP  0  0  0  0  0  0  0  0  0  0  0  0  # atno 17320 bound_to 7965
  145.2737  141.0117  143.3757 LP  0  0  0  0  0  0  0  0  0  0  0  0  # atno 17321 bound_to 7965
  140.2809  144.3861  150.6119 LP  0  0  0  0  0  0  0  0  0  0  0  0  # atno 17342 bound_to 10162
  140.6019  143.2167  151.7056 LP  0  0  0  0  0  0  0  0  0  0  0  0  # atno 17343 bound_to 10162
  156.0263  130.5356  150.8415 LP  0  0  0  0  0  0  0  0  0  0  0  0  # atno 17370 bound_to 10713
  157.5559  131.0945  150.9630 LP  0  0  0  0  0  0  0  0  0  0  0  0  # atno 17371 bound_to 10713
  141.2227  133.7113  156.8322 LP  0  0  0  0  0  0  0  0  0  0  0  0  # atno 17394 bound_to 11000
  140.2012  134.8895  157.3171 LP  0  0  0  0  0  0  0  0  0  0  0  0  # atno 17395 bound_to 11000

$$$$
