AV-unprocessed.smi:2340|AV-procd|sdf|9345|dock2
  -GOLD-   2272012563D 1   1.00000     0.00000
 Structure written by MMmdl.
 40 41  0  0  0  0  0  0  0  0  1 V2000
  144.3776  142.8479  157.5816 C   0  0  0  0  0  0  0  0  0  0  0  0
  144.9952  142.7734  156.2207 C   0  0  0  0  0  0  0  0  0  0  0  0
  144.7776  143.6256  155.1672 C   0  0  0  0  0  0  0  0  0  0  0  0
  145.7086  143.1755  153.7651 S   0  0  0  0  0  0  0  0  0  0  0  0
  146.3727  141.8234  154.6760 C   0  0  0  0  0  0  0  0  0  0  0  0
  147.3585  140.8551  154.1018 C   0  0  1  0  0  0  0  0  0  0  0  0
  146.8350  140.2175  152.8028 C   0  0  0  0  0  0  0  0  0  0  0  0
  148.7641  141.4833  153.9785 C   0  0  0  0  0  0  0  0  0  0  0  0
  149.2151  142.1094  155.2173 N   0  0  0  0  0  0  0  0  0  0  0  0
  150.3725  141.8411  155.8367 C   0  0  0  0  0  0  0  0  0  0  0  0
  151.1933  141.0154  155.4369 O   0  0  0  0  0  0  0  0  0  0  0  0
  150.5315  142.5896  156.9363 N   0  0  0  0  0  0  0  0  0  0  0  0
  151.7022  142.5600  157.8074 C   0  0  2  0  0  0  0  0  0  0  0  0
  151.7229  141.3175  158.6739 C   0  0  0  0  0  0  0  0  0  0  0  0
  152.5921  141.7579  159.8479 C   0  0  0  0  0  0  0  0  0  0  0  0
  152.4175  143.1667  159.9666 O   0  0  0  0  0  0  0  0  0  0  0  0
  151.6630  143.6676  158.8673 C   0  0  1  0  0  0  0  0  0  0  0  0
  152.2334  145.0136  158.4032 C   0  0  0  0  0  0  0  0  0  0  0  0
  145.9017  141.7515  155.9253 N   0  0  0  0  0  0  0  0  0  0  0  0
  143.6468  143.6547  157.6444 H   0  0  0  0  0  0  0  0  0  0  0  0
  145.1332  143.0282  158.3464 H   0  0  0  0  0  0  0  0  0  0  0  0
  143.8651  141.9193  157.8338 H   0  0  0  0  0  0  0  0  0  0  0  0
  144.1292  144.4884  155.1307 H   0  0  0  0  0  0  0  0  0  0  0  0
  147.4359  140.0445  154.8276 H   0  0  0  0  0  0  0  0  0  0  0  0
  145.8615  139.7528  152.9619 H   0  0  0  0  0  0  0  0  0  0  0  0
  147.5074  139.4424  152.4351 H   0  0  0  0  0  0  0  0  0  0  0  0
  146.7232  140.9623  152.0145 H   0  0  0  0  0  0  0  0  0  0  0  0
  149.4916  140.7176  153.7074 H   0  0  0  0  0  0  0  0  0  0  0  0
  148.7790  142.2196  153.1731 H   0  0  0  0  0  0  0  0  0  0  0  0
  148.6063  142.8046  155.6238 H   0  0  0  0  0  0  0  0  0  0  0  0
  149.7992  143.2403  157.1796 H   0  0  0  0  0  0  0  0  0  0  0  0
  152.6314  142.6090  157.2357 H   0  0  0  0  0  0  0  0  0  0  0  0
  150.7189  141.0812  159.0305 H   0  0  0  0  0  0  0  0  0  0  0  0
  152.1162  140.4407  158.1587 H   0  0  0  0  0  0  0  0  0  0  0  0
  152.3298  141.2446  160.7732 H   0  0  0  0  0  0  0  0  0  0  0  0
  153.6433  141.5582  159.6374 H   0  0  0  0  0  0  0  0  0  0  0  0
  150.6390  143.8049  159.2193 H   0  0  0  0  0  0  0  0  0  0  0  0
  151.6525  145.4234  157.5770 H   0  0  0  0  0  0  0  0  0  0  0  0
  153.2663  144.9113  158.0694 H   0  0  0  0  0  0  0  0  0  0  0  0
  152.2154  145.7425  159.2136 H   0  0  0  0  0  0  0  0  0  0  0  0
  1  2  1  0  0  0  0
  1 20  1  0  0  0  0
  1 21  1  0  0  0  0
  1 22  1  0  0  0  0
  2 19  1  0  0  0  0
  2  3  2  0  0  0  0
  3  4  1  0  0  0  0
  3 23  1  0  0  0  0
  4  5  1  0  0  0  0
  5  6  1  0  0  0  0
  5 19  2  0  0  0  0
  6  7  1  0  0  0  0
  6  8  1  0  0  0  0
  6 24  1  0  0  0  0
  7 25  1  0  0  0  0
  7 26  1  0  0  0  0
  7 27  1  0  0  0  0
  8  9  1  0  0  0  0
  8 28  1  0  0  0  0
  8 29  1  0  0  0  0
  9 10  1  0  0  0  0
  9 30  1  0  0  0  0
 10 11  2  0  0  0  0
 10 12  1  0  0  0  0
 12 13  1  0  0  0  0
 12 31  1  0  0  0  0
 13 17  1  0  0  0  0
 13 14  1  0  0  0  0
 13 32  1  0  0  0  0
 14 15  1  0  0  0  0
 14 33  1  0  0  0  0
 14 34  1  0  0  0  0
 15 16  1  0  0  0  0
 15 35  1  0  0  0  0
 15 36  1  0  0  0  0
 16 17  1  0  0  0  0
 17 18  1  0  0  0  0
 17 37  1  0  0  0  0
 18 38  1  0  0  0  0
 18 39  1  0  0  0  0
 18 40  1  0  0  0  0
M  END
> <s_m_source_file>
AV-unprocessed.smi

> <i_m_source_file_index>
2340

> <i_lp_mmshare_version>
43012

> <i_f3d_flags>
0

> <s_epik_input>
W0NIM11jMVtjSF1zYyhuMSlbQ0BIXShbQ0gzXSlbQ0gyXVtOSF1DKD1PKVtOSF1bQ0BASF0yW0NIMl1bQ0gyXU9bQ0BIXTJbQ0gzXQ==

> <s_epik_cmdline>
J2VwaWtfcHl0aG9uJywgJy1waCcsICc3LjAnLCAnLXRuJywgJzgnLCAnLW1hJywgJzIwMCcsICctbWV0YWxfYmluZGluZycsICctaW1hZScsICc8aW5maWxlLm1hZT4nLCAnLW9tYWUnLCAnPG91dGZpbGUubWFlPic=

> <r_epik_Ionization_Penalty>
0.00156622

> <r_epik_Ionization_Penalty_Charging>
0

> <r_epik_Ionization_Penalty_Neutral>
0.00156622

> <r_epik_State_Penalty>
0.00101902

> <r_epik_Charging_Adjusted_Penalty>
0.00101902

> <i_epik_Tot_Q>
0

> <i_epik_Tot_abs_Q>
0

> <r_epik_Metal_State_Penalty>
-0

> <b_epik_Metal_Only>
0

> <s_lp_Force_Field>
OPLS_2005

> <r_lp_Energy>
4.85076

> <b_lp_Chiralities_Consistent>
1

> <s_lp_Variant>
AV-unprocessed.smi:2340-2

> <Gold.Version>
5.8.1

> <Gold.Id.Protein>
6NUR|6NUR_protein|mol2

> <Gold.PLP.Fitness>
43.5905

> <Gold.PLP.PLP>
-39.1282

> <Gold.PLP.part.hbond>
-3.0000

> <Gold.PLP.part.metal>
0.0000

> <Gold.PLP.part.buried>
-4.9714

> <Gold.PLP.part.nonpolar>
-30.2076

> <Gold.PLP.part.repulsive>
0.3642

> <Gold.PLP.ligand.clash>
0.0000

> <Gold.PLP.ligand.torsion>
0.3599

> <Gold.PLP.Chemscore.Hbond>
1.6833

> <Gold.PLP.Chemscore.CHOScore>
0.0000

> <Gold.PLP.Chemscore.Metal>
0.0000

> <Gold.Chemscore.Hbonds>
donor molecule, donor type, donor heavy atom, donor atom, acceptor molecule, acceptor atom, score
      L1  H     9    30       P1  8028  0.54
      L1  H    12    31       P1  8028  0.15
      P1  H  7989  7998       L1    11  0.64

> <Gold.PLP.Chemscore.Internal.Correction>
0.1321

> <Gold.Rescore>
     Score         DG    S(hbond)    S(metal)    S(lipo)     H(rot)  DE(clash)    DE(int)     intcor
     17.64     -19.35       1.88        0.00      98.54       1.53       0.89       0.82       ----

> <Gold.Chemscore.Fitness>
17.6382

> <Gold.Chemscore.DG>
-19.3502

> <Gold.Chemscore.ZeroCoef>
-5.4800

> <Gold.Chemscore.Hbond>
1.8757

> <Gold.Chemscore.Metal>
0.0000

> <Gold.Chemscore.Lipo>
98.5360

> <Gold.Chemscore.Internal_Hbond>
0.0000

> <Gold.Chemscore.DEClash>
0.8946

> <Gold.Chemscore.DEInternal>
0.8174

> <Gold.Chemscore.Rot>
1.5325

> <Gold.Chemscore.Internal.Correction>
   9.000000E+99

> <Gold.Chemscore.Hbonds>
donor molecule, donor type, donor heavy atom, donor atom, acceptor molecule, acceptor atom, score
      L1  H     9    30       P1  8028  0.56
      L1  H    12    31       P1  8028  0.15
      P1  H  7989  7998       L1    11  0.61

> <Gold.Chemscore.Hbond.Weighted>
-6.2648

> <Gold.Chemscore.Metal.Weighted>
-0.0000

> <Gold.Chemscore.Lipo.Weighted>
-11.5287

> <Gold.Chemscore.Internal_Hbond.Weighted>
0.0000

> <Gold.Chemscore.DEClash.Weighted>
0.8946

> <Gold.Chemscore.DEInternal.Weighted>
0.8174

> <Gold.Chemscore.Rot.Weighted>
3.9233

> <Gold.Chemscore.Internal.Correction.Weighted>
   9.000000E+99

> <Gold.Protein.RotatedTorsions>
[ 6907 6896 6895 6894 ] final -156.39 input  -60.11 | X-H torsion
[ 7974 7965 7964 7962 ] final   57.34 input  175.53 | X-H torsion
[ 8008 7997 7996 7995 ] final  -92.52 input   59.86 | X-H torsion
[ 10167 10162 10161 10158 ] final -164.62 input  -65.29 | X-H torsion
[ 10718 10713 10712 10709 ] final   56.52 input   66.30 | X-H torsion
[ 10763 10752 10751 10750 ] final   -9.29 input  -60.55 | X-H torsion
[ 11005 11000 10999 10996 ] final   21.58 input  -57.11 | X-H torsion

> <Gold.Protein.ActiveResidues>
 VAL166  LYS551  ARG553  GLY616  TRP617  ASP618  TYR619  PRO620  LYS621  CYS622 
 ASP623  PHE694  ASN695  SER759  ASP760  ASP761  ALA762  ILE779  LEU786  VAL792 
 PHE793  MET794  SER795  GLU796  ALA797  LYS798  CYS799  TRP800  GLU811  SER814 

> <Gold.Protein.RotatedAtoms>
  151.2869  133.4183  159.2630 H   0  0  0  0  0  0  0  0  0  0  0  0  # atno 6907 bound_to 6896
  151.0311  134.9540  159.8122 H   0  0  0  0  0  0  0  0  0  0  0  0  # atno 6908 bound_to 6896
  152.5346  134.2830  159.9067 H   0  0  0  0  0  0  0  0  0  0  0  0  # atno 6909 bound_to 6896
  145.9301  139.3800  143.0426 H   0  0  0  0  0  0  0  0  0  0  0  0  # atno 7974 bound_to 7965
  154.7242  140.0508  157.0667 H   0  0  0  0  0  0  0  0  0  0  0  0  # atno 8008 bound_to 7997
  155.0387  140.3166  155.4713 H   0  0  0  0  0  0  0  0  0  0  0  0  # atno 8009 bound_to 7997
  156.2824  140.2137  156.5510 H   0  0  0  0  0  0  0  0  0  0  0  0  # atno 8010 bound_to 7997
  139.6238  144.0572  152.1956 H   0  0  0  0  0  0  0  0  0  0  0  0  # atno 10167 bound_to 10162
  157.5438  130.8716  149.8861 H   0  0  0  0  0  0  0  0  0  0  0  0  # atno 10718 bound_to 10713
  153.4527  135.7015  153.6099 H   0  0  0  0  0  0  0  0  0  0  0  0  # atno 10763 bound_to 10752
  153.4427  135.3776  155.2238 H   0  0  0  0  0  0  0  0  0  0  0  0  # atno 10764 bound_to 10752
  154.8728  135.3978  154.3941 H   0  0  0  0  0  0  0  0  0  0  0  0  # atno 10765 bound_to 10752
  140.3900  134.1830  155.7662 H   0  0  0  0  0  0  0  0  0  0  0  0  # atno 11005 bound_to 11000
  145.8437  140.9566  143.0786 LP  0  0  0  0  0  0  0  0  0  0  0  0  # atno 17320 bound_to 7965
  144.6764  140.0318  143.7482 LP  0  0  0  0  0  0  0  0  0  0  0  0  # atno 17321 bound_to 7965
  140.0221  144.6145  150.7558 LP  0  0  0  0  0  0  0  0  0  0  0  0  # atno 17342 bound_to 10162
  140.7398  143.2796  151.3637 LP  0  0  0  0  0  0  0  0  0  0  0  0  # atno 17343 bound_to 10162
  156.0518  130.3716  150.1182 LP  0  0  0  0  0  0  0  0  0  0  0  0  # atno 17370 bound_to 10713
  156.9360  130.9729  151.3524 LP  0  0  0  0  0  0  0  0  0  0  0  0  # atno 17371 bound_to 10713
  141.1894  133.8239  157.0958 LP  0  0  0  0  0  0  0  0  0  0  0  0  # atno 17394 bound_to 11000
  140.0414  134.9852  157.0968 LP  0  0  0  0  0  0  0  0  0  0  0  0  # atno 17395 bound_to 11000

$$$$
