AV-unprocessed.smi:2814|AV-procd|sdf|10840|dock10
  -GOLD-   2272015283D 1   1.00000     0.00000
 Structure written by MMmdl.
 38 39  0  0  0  0  0  0  0  0  2 V2000
  146.4064  143.2038  154.0441 C   0  0  0  0  0  0  0  0  0  0  0  0
  147.2568  141.9510  154.0547 C   0  0  0  0  0  0  0  0  0  0  0  0
  146.8054  140.7291  153.5108 C   0  0  0  0  0  0  0  0  0  0  0  0
  147.6544  139.5937  153.5503 C   0  0  0  0  0  0  0  0  0  0  0  0
  147.2877  138.3162  153.0475 N   0  0  0  0  0  0  0  0  0  0  0  0
  146.0868  137.7148  153.0958 C   0  0  0  0  0  0  0  0  0  0  0  0
  145.0662  138.2068  153.5769 O   0  0  0  0  0  0  0  0  0  0  0  0
  146.1318  136.4989  152.5332 N   0  0  0  0  0  0  0  0  0  0  0  0
  145.0095  135.5703  152.4124 C   0  0  0  0  0  0  0  0  0  0  0  0
  145.0525  134.7600  151.0971 C   0  0  0  0  0  0  0  0  0  0  0  0
  145.0002  135.6728  150.0147 O   0  0  0  0  0  0  0  0  0  0  0  0
  146.2666  133.8346  150.9301 C   0  0  0  0  0  0  0  0  0  0  0  0
  145.8408  132.7661  149.9153 C   0  0  0  0  0  0  0  0  0  0  0  0
  144.3048  132.7473  149.9236 C   0  0  0  0  0  0  0  0  0  0  0  0
  143.8645  133.8000  150.9495 C   0  0  0  0  0  0  0  0  0  0  0  0
  148.9212  139.7182  154.1618 C   0  0  0  0  0  0  0  0  0  0  0  0
  149.3194  140.9638  154.6873 C   0  0  0  0  0  0  0  0  0  0  0  0
  148.4851  142.0226  154.6133 N   0  3  0  0  0  0  0  0  0  0  0  0
  145.4421  143.0207  153.5690 H   0  0  0  0  0  0  0  0  0  0  0  0
  146.9099  144.0005  153.4957 H   0  0  0  0  0  0  0  0  0  0  0  0
  146.2238  143.5480  155.0625 H   0  0  0  0  0  0  0  0  0  0  0  0
  145.8145  140.6787  153.0855 H   0  0  0  0  0  0  0  0  0  0  0  0
  148.0082  137.8251  152.5386 H   0  0  0  0  0  0  0  0  0  0  0  0
  147.0159  136.1777  152.1669 H   0  0  0  0  0  0  0  0  0  0  0  0
  144.9949  134.8932  153.2682 H   0  0  0  0  0  0  0  0  0  0  0  0
  144.0819  136.1408  152.4718 H   0  0  0  0  0  0  0  0  0  0  0  0
  145.2797  135.2233  149.2318 H   0  0  0  0  0  0  0  0  0  0  0  0
  147.1707  134.3639  150.6266 H   0  0  0  0  0  0  0  0  0  0  0  0
  146.4821  133.3446  151.8804 H   0  0  0  0  0  0  0  0  0  0  0  0
  146.2010  133.0290  148.9200 H   0  0  0  0  0  0  0  0  0  0  0  0
  146.2615  131.7918  150.1659 H   0  0  0  0  0  0  0  0  0  0  0  0
  143.9281  133.0072  148.9334 H   0  0  0  0  0  0  0  0  0  0  0  0
  143.9105  131.7613  150.1721 H   0  0  0  0  0  0  0  0  0  0  0  0
  143.6766  133.3012  151.9015 H   0  0  0  0  0  0  0  0  0  0  0  0
  142.9391  134.3029  150.6645 H   0  0  0  0  0  0  0  0  0  0  0  0
  149.5882  138.8703  154.2231 H   0  0  0  0  0  0  0  0  0  0  0  0
  150.2727  141.1429  155.1627 H   0  0  0  0  0  0  0  0  0  0  0  0
  148.7932  142.9146  155.0011 H   0  0  0  0  0  0  0  0  0  0  0  0
  1  2  1  0  0  0  0
  1 19  1  0  0  0  0
  1 20  1  0  0  0  0
  1 21  1  0  0  0  0
  2 18  1  0  0  0  0
  2  3  2  0  0  0  0
  3  4  1  0  0  0  0
  3 22  1  0  0  0  0
  4  5  1  0  0  0  0
  4 16  2  0  0  0  0
  5  6  1  0  0  0  0
  5 23  1  0  0  0  0
  6  7  2  0  0  0  0
  6  8  1  0  0  0  0
  8  9  1  0  0  0  0
  8 24  1  0  0  0  0
  9 10  1  0  0  0  0
  9 25  1  0  0  0  0
  9 26  1  0  0  0  0
 10 15  1  0  0  0  0
 10 11  1  0  0  0  0
 10 12  1  0  0  0  0
 11 27  1  0  0  0  0
 12 13  1  0  0  0  0
 12 28  1  0  0  0  0
 12 29  1  0  0  0  0
 13 14  1  0  0  0  0
 13 30  1  0  0  0  0
 13 31  1  0  0  0  0
 14 15  1  0  0  0  0
 14 32  1  0  0  0  0
 14 33  1  0  0  0  0
 15 34  1  0  0  0  0
 15 35  1  0  0  0  0
 16 17  1  0  0  0  0
 16 36  1  0  0  0  0
 17 18  2  0  0  0  0
 17 37  1  0  0  0  0
 18 38  1  0  0  0  0
M  CHG  1  18   1
M  END
> <s_m_source_file>
AV-unprocessed.smi

> <i_m_source_file_index>
2814

> <i_lp_mmshare_version>
43012

> <i_f3d_flags>
0

> <s_epik_input>
W0NIM11jMVtjSF1jKFtjSF1bY0hdbjEpW05IXUMoPU8pW05IXVtDSDJdQzIoW09IXSlbQ0gyXVtDSDJdW0NIMl1bQ0gyXTI=

> <s_epik_cmdline>
J2VwaWtfcHl0aG9uJywgJy1waCcsICc3LjAnLCAnLXRuJywgJzgnLCAnLW1hJywgJzIwMCcsICctbWV0YWxfYmluZGluZycsICctaW1hZScsICc8aW5maWxlLm1hZT4nLCAnLW9tYWUnLCAnPG91dGZpbGUubWFlPic=

> <r_epik_Ionization_Penalty>
0.41638

> <r_epik_Ionization_Penalty_Charging>
0.416357

> <r_epik_Ionization_Penalty_Neutral>
2.25049e-05

> <r_epik_State_Penalty>
0.41674

> <r_epik_Charging_Adjusted_Penalty>
0.833097

> <i_epik_Tot_Q>
1

> <i_epik_Tot_abs_Q>
1

> <r_epik_Metal_State_Penalty>
0.654825

> <b_epik_Metal_Only>
0

> <s_lp_Force_Field>
OPLS_2005

> <r_lp_Energy>
34.0796

> <b_lp_Chiralities_Consistent>
1

> <s_lp_Variant>
AV-unprocessed.smi:2814-2

> <Gold.Version>
5.8.1

> <Gold.Id.Protein>
6NUR|6NUR_protein|mol2

> <Gold.PLP.Fitness>
49.8759

> <Gold.PLP.PLP>
-35.7938

> <Gold.PLP.part.hbond>
-4.1080

> <Gold.PLP.part.metal>
0.0000

> <Gold.PLP.part.buried>
-4.5246

> <Gold.PLP.part.nonpolar>
-28.0156

> <Gold.PLP.part.repulsive>
0.8086

> <Gold.PLP.ligand.clash>
0.0000

> <Gold.PLP.ligand.torsion>
0.4610

> <Gold.PLP.Chemscore.Hbond>
5.0000

> <Gold.PLP.Chemscore.CHOScore>
0.0000

> <Gold.PLP.Chemscore.Metal>
0.0000

> <Gold.Chemscore.Hbonds>
donor molecule, donor type, donor heavy atom, donor atom, acceptor molecule, acceptor atom, score
      L1  H     5    23       P1  7948  1.00
      L1  H     8    24       P1  7948  1.00
      L1  H    11    27       P1  7921  1.00
      L1  H    18    38       P1  8028  2.00

> <Gold.PLP.Chemscore.Internal.Correction>
0.0042

> <Gold.Rescore>
     Score         DG    S(hbond)    S(metal)    S(lipo)     H(rot)  DE(clash)    DE(int)     intcor
     22.44     -23.75       3.93        0.00      82.11       1.74       0.15       1.16       ----

> <Gold.Chemscore.Fitness>
22.4397

> <Gold.Chemscore.DG>
-23.7498

> <Gold.Chemscore.ZeroCoef>
-5.4800

> <Gold.Chemscore.Hbond>
3.9259

> <Gold.Chemscore.Metal>
0.0000

> <Gold.Chemscore.Lipo>
82.1095

> <Gold.Chemscore.Internal_Hbond>
0.0000

> <Gold.Chemscore.DEClash>
0.1511

> <Gold.Chemscore.DEInternal>
1.1590

> <Gold.Chemscore.Rot>
1.7382

> <Gold.Chemscore.Internal.Correction>
   9.000000E+99

> <Gold.Chemscore.Hbonds>
donor molecule, donor type, donor heavy atom, donor atom, acceptor molecule, acceptor atom, score
      L1  H     5    23       P1  7948  0.97
      L1  H     8    24       P1  7948  0.98
      L1  H    11    27       P1  7921  1.00
      L1  H    18    38       P1  8028  1.00

> <Gold.Chemscore.Hbond.Weighted>
-13.1126

> <Gold.Chemscore.Metal.Weighted>
-0.0000

> <Gold.Chemscore.Lipo.Weighted>
-9.6068

> <Gold.Chemscore.Internal_Hbond.Weighted>
0.0000

> <Gold.Chemscore.DEClash.Weighted>
0.1511

> <Gold.Chemscore.DEInternal.Weighted>
1.1590

> <Gold.Chemscore.Rot.Weighted>
4.4497

> <Gold.Chemscore.Internal.Correction.Weighted>
   9.000000E+99

> <Gold.Protein.RotatedTorsions>
[ 6907 6896 6895 6894 ] final  -25.40 input  -60.11 | X-H torsion
[ 7974 7965 7964 7962 ] final -108.29 input  175.53 | X-H torsion
[ 8008 7997 7996 7995 ] final -120.88 input   59.86 | X-H torsion
[ 10167 10162 10161 10158 ] final  -98.69 input  -65.29 | X-H torsion
[ 10718 10713 10712 10709 ] final  -16.46 input   66.30 | X-H torsion
[ 10763 10752 10751 10750 ] final   61.70 input  -60.55 | X-H torsion
[ 11005 11000 10999 10996 ] final  128.23 input  -57.11 | X-H torsion

> <Gold.Protein.ActiveResidues>
 VAL166  LYS551  ARG553  GLY616  TRP617  ASP618  TYR619  PRO620  LYS621  CYS622 
 ASP623  PHE694  ASN695  SER759  ASP760  ASP761  ALA762  ILE779  LEU786  VAL792 
 PHE793  MET794  SER795  GLU796  ALA797  LYS798  CYS799  TRP800  GLU811  SER814 

> <Gold.Protein.RotatedAtoms>
  151.1757  135.0338  159.8770 H   0  0  0  0  0  0  0  0  0  0  0  0  # atno 6907 bound_to 6896
  152.5447  134.1120  159.8373 H   0  0  0  0  0  0  0  0  0  0  0  0  # atno 6908 bound_to 6896
  151.1231  133.5043  159.2634 H   0  0  0  0  0  0  0  0  0  0  0  0  # atno 6909 bound_to 6896
  145.1947  140.9030  143.3404 H   0  0  0  0  0  0  0  0  0  0  0  0  # atno 7974 bound_to 7965
  155.1389  140.0401  157.2793 H   0  0  0  0  0  0  0  0  0  0  0  0  # atno 8008 bound_to 7997
  154.6487  140.2564  155.7212 H   0  0  0  0  0  0  0  0  0  0  0  0  # atno 8009 bound_to 7997
  156.2567  140.2840  156.0912 H   0  0  0  0  0  0  0  0  0  0  0  0  # atno 8010 bound_to 7997
  140.2703  143.3348  152.0540 H   0  0  0  0  0  0  0  0  0  0  0  0  # atno 10167 bound_to 10162
  156.5873  130.4789  149.6294 H   0  0  0  0  0  0  0  0  0  0  0  0  # atno 10718 bound_to 10713
  152.9959  135.5491  154.6076 H   0  0  0  0  0  0  0  0  0  0  0  0  # atno 10763 bound_to 10752
  154.5404  135.2819  155.1103 H   0  0  0  0  0  0  0  0  0  0  0  0  # atno 10764 bound_to 10752
  154.2383  135.6421  153.5251 H   0  0  0  0  0  0  0  0  0  0  0  0  # atno 10765 bound_to 10752
  139.9549  134.9615  156.8970 H   0  0  0  0  0  0  0  0  0  0  0  0  # atno 11005 bound_to 11000
  145.0007  139.3601  143.6169 LP  0  0  0  0  0  0  0  0  0  0  0  0  # atno 17320 bound_to 7965
  146.3429  139.9228  142.8764 LP  0  0  0  0  0  0  0  0  0  0  0  0  # atno 17321 bound_to 7965
  139.4991  144.6660  151.6354 LP  0  0  0  0  0  0  0  0  0  0  0  0  # atno 17342 bound_to 10162
  140.5895  143.9805  150.6316 LP  0  0  0  0  0  0  0  0  0  0  0  0  # atno 17343 bound_to 10162
  156.2580  130.6946  151.1705 LP  0  0  0  0  0  0  0  0  0  0  0  0  # atno 17370 bound_to 10713
  157.7312  131.0610  150.5688 LP  0  0  0  0  0  0  0  0  0  0  0  0  # atno 17371 bound_to 10713
  140.5632  134.0515  155.7405 LP  0  0  0  0  0  0  0  0  0  0  0  0  # atno 17394 bound_to 11000
  141.1219  133.9447  157.2713 LP  0  0  0  0  0  0  0  0  0  0  0  0  # atno 17395 bound_to 11000

$$$$
