AV-unprocessed.smi:2168|AV-procd|sdf|8820|dock2
  -GOLD-   2272012 13D 1   1.00000     0.00000
 Structure written by MMmdl.
 45 46  0  0  0  0  0  0  0  0  2 V2000
  146.6202  134.1398  155.5507 C   0  0  0  0  0  0  0  0  0  0  0  0
  147.4703  135.1530  154.7687 C   0  0  0  0  0  0  0  0  0  0  0  0
  148.9155  135.0148  155.0406 N   0  0  0  0  0  0  0  0  0  0  0  0
  149.5926  133.8149  154.5066 C   0  0  0  0  0  0  0  0  0  0  0  0
  148.6930  132.9689  153.5911 C   0  0  0  0  0  0  0  0  0  0  0  0
  149.8272  136.3362  155.7318 S   0  0  0  0  0  0  0  0  0  0  0  0
  149.2774  136.5215  157.0838 O   0  0  0  0  0  0  0  0  0  0  0  0
  151.2492  135.9648  155.6227 O   0  0  0  0  0  0  0  0  0  0  0  0
  149.3455  137.5183  154.7192 N   0  5  0  0  0  0  0  0  0  0  0  0
  150.2599  138.5404  154.2328 C   0  0  0  0  0  0  0  0  0  0  0  0
  150.7144  139.4552  155.3603 C   0  0  0  0  0  0  0  0  0  0  0  0
  149.8572  140.4471  155.8839 C   0  0  0  0  0  0  0  0  0  0  0  0
  150.3263  141.2803  156.9184 C   0  0  0  0  0  0  0  0  0  0  0  0
  151.6420  141.1024  157.4083 C   0  0  0  0  0  0  0  0  0  0  0  0
  152.1376  141.9321  158.4384 N   0  0  0  0  0  0  0  0  0  0  0  0
  152.5634  141.3001  159.6862 C   0  0  0  0  0  0  0  0  0  0  0  0
  153.3508  142.2981  160.5516 C   0  0  0  0  0  0  0  0  0  0  0  0
  152.5707  143.4698  160.7638 O   0  0  0  0  0  0  0  0  0  0  0  0
  152.2647  144.1302  159.5404 C   0  0  0  0  0  0  0  0  0  0  0  0
  151.4376  143.1987  158.6375 C   0  0  0  0  0  0  0  0  0  0  0  0
  152.4632  140.1495  156.9019 N   0  0  0  0  0  0  0  0  0  0  0  0
  152.0114  139.3523  155.9096 C   0  0  0  0  0  0  0  0  0  0  0  0
  145.5584  134.3243  155.3893 H   0  0  0  0  0  0  0  0  0  0  0  0
  146.8055  134.1954  156.6229 H   0  0  0  0  0  0  0  0  0  0  0  0
  146.8231  133.1185  155.2292 H   0  0  0  0  0  0  0  0  0  0  0  0
  147.2983  135.0251  153.7000 H   0  0  0  0  0  0  0  0  0  0  0  0
  147.1482  136.1684  155.0009 H   0  0  0  0  0  0  0  0  0  0  0  0
  150.4848  134.1129  153.9570 H   0  0  0  0  0  0  0  0  0  0  0  0
  149.9399  133.2085  155.3432 H   0  0  0  0  0  0  0  0  0  0  0  0
  149.2594  132.1461  153.1551 H   0  0  0  0  0  0  0  0  0  0  0  0
  148.2893  133.5597  152.7704 H   0  0  0  0  0  0  0  0  0  0  0  0
  147.8555  132.5322  154.1342 H   0  0  0  0  0  0  0  0  0  0  0  0
  151.1477  138.1017  153.7760 H   0  0  0  0  0  0  0  0  0  0  0  0
  149.8050  139.1549  153.4553 H   0  0  0  0  0  0  0  0  0  0  0  0
  148.8544  140.5885  155.5037 H   0  0  0  0  0  0  0  0  0  0  0  0
  149.6794  142.0539  157.3038 H   0  0  0  0  0  0  0  0  0  0  0  0
  151.6859  140.9456  160.2287 H   0  0  0  0  0  0  0  0  0  0  0  0
  153.1910  140.4328  159.4776 H   0  0  0  0  0  0  0  0  0  0  0  0
  153.5897  141.8506  161.5163 H   0  0  0  0  0  0  0  0  0  0  0  0
  154.2988  142.5593  160.0784 H   0  0  0  0  0  0  0  0  0  0  0  0
  151.7023  145.0381  159.7581 H   0  0  0  0  0  0  0  0  0  0  0  0
  153.1850  144.4382  159.0410 H   0  0  0  0  0  0  0  0  0  0  0  0
  151.2388  143.7071  157.6954 H   0  0  0  0  0  0  0  0  0  0  0  0
  150.4698  142.9959  159.0979 H   0  0  0  0  0  0  0  0  0  0  0  0
  152.7219  138.6185  155.5549 H   0  0  0  0  0  0  0  0  0  0  0  0
  1  2  1  0  0  0  0
  1 23  1  0  0  0  0
  1 24  1  0  0  0  0
  1 25  1  0  0  0  0
  2  3  1  0  0  0  0
  2 26  1  0  0  0  0
  2 27  1  0  0  0  0
  3  4  1  0  0  0  0
  3  6  1  0  0  0  0
  4  5  1  0  0  0  0
  4 28  1  0  0  0  0
  4 29  1  0  0  0  0
  5 30  1  0  0  0  0
  5 31  1  0  0  0  0
  5 32  1  0  0  0  0
  6  7  2  0  0  0  0
  6  8  2  0  0  0  0
  6  9  1  0  0  0  0
  9 10  1  0  0  0  0
 10 11  1  0  0  0  0
 10 33  1  0  0  0  0
 10 34  1  0  0  0  0
 11 22  1  0  0  0  0
 11 12  2  0  0  0  0
 12 13  1  0  0  0  0
 12 35  1  0  0  0  0
 13 14  2  0  0  0  0
 13 36  1  0  0  0  0
 14 15  1  0  0  0  0
 14 21  1  0  0  0  0
 15 20  1  0  0  0  0
 15 16  1  0  0  0  0
 16 17  1  0  0  0  0
 16 37  1  0  0  0  0
 16 38  1  0  0  0  0
 17 18  1  0  0  0  0
 17 39  1  0  0  0  0
 17 40  1  0  0  0  0
 18 19  1  0  0  0  0
 19 20  1  0  0  0  0
 19 41  1  0  0  0  0
 19 42  1  0  0  0  0
 20 43  1  0  0  0  0
 20 44  1  0  0  0  0
 21 22  2  0  0  0  0
 22 45  1  0  0  0  0
M  CHG  1   9  -1
M  END
> <s_m_source_file>
AV-unprocessed.smi

> <i_m_source_file_index>
2168

> <i_lp_mmshare_version>
43012

> <i_f3d_flags>
0

> <s_epik_input>
W0NIM11bQ0gyXU4oW0NIMl1bQ0gzXSlTKD1PKSg9TylbTkhdW0NIMl1jMVtjSF1bY0hdYyhuW2NIXTEpTjJbQ0gyXVtDSDJdT1tDSDJdW0NIMl0y

> <s_epik_cmdline>
J2VwaWtfcHl0aG9uJywgJy1waCcsICc3LjAnLCAnLXRuJywgJzgnLCAnLW1hJywgJzIwMCcsICctbWV0YWxfYmluZGluZycsICctaW1hZScsICc8aW5maWxlLm1hZT4nLCAnLW9tYWUnLCAnPG91dGZpbGUubWFlPic=

> <r_lp_tautomer_probability>
1

> <r_epik_Ionization_Penalty>
2.49252

> <r_epik_Ionization_Penalty_Charging>
2.41478

> <r_epik_Ionization_Penalty_Neutral>
0.0777351

> <r_epik_State_Penalty>
2.68884

> <r_epik_Charging_Adjusted_Penalty>
5.10362

> <i_epik_Tot_Q>
-1

> <i_epik_Tot_abs_Q>
1

> <r_epik_Metal_State_Penalty>
0.584574

> <b_epik_Metal_Only>
0

> <s_lp_Force_Field>
OPLS_2005

> <r_lp_Energy>
16.7

> <b_lp_Chiralities_Consistent>
1

> <s_lp_Variant>
AV-unprocessed.smi:2168-3

> <Gold.Version>
5.8.1

> <Gold.Id.Protein>
6NUR|6NUR_protein|mol2

> <Gold.PLP.Fitness>
42.9564

> <Gold.PLP.PLP>
-37.8913

> <Gold.PLP.part.hbond>
-2.0000

> <Gold.PLP.part.metal>
0.0000

> <Gold.PLP.part.buried>
-4.7440

> <Gold.PLP.part.nonpolar>
-31.7785

> <Gold.PLP.part.repulsive>
0.4443

> <Gold.PLP.ligand.clash>
0.0000

> <Gold.PLP.ligand.torsion>
2.3294

> <Gold.PLP.Chemscore.Hbond>
2.0000

> <Gold.PLP.Chemscore.CHOScore>
0.0000

> <Gold.PLP.Chemscore.Metal>
0.0000

> <Gold.Chemscore.Hbonds>
donor molecule, donor type, donor heavy atom, donor atom, acceptor molecule, acceptor atom, score
      P1  H  7997  8008       L1    21  1.00
      P1  H 10752 10764       L1     8  1.00

> <Gold.PLP.Chemscore.Internal.Correction>
3.7240

> <Gold.Rescore>
     Score         DG    S(hbond)    S(metal)    S(lipo)     H(rot)  DE(clash)    DE(int)     intcor
     15.64     -18.13       1.94        0.00      89.18       1.66       0.16       2.33       ----

> <Gold.Chemscore.Fitness>
15.6395

> <Gold.Chemscore.DG>
-18.1319

> <Gold.Chemscore.ZeroCoef>
-5.4800

> <Gold.Chemscore.Hbond>
1.9396

> <Gold.Chemscore.Metal>
0.0000

> <Gold.Chemscore.Lipo>
89.1805

> <Gold.Chemscore.Internal_Hbond>
0.0000

> <Gold.Chemscore.DEClash>
0.1644

> <Gold.Chemscore.DEInternal>
2.3280

> <Gold.Chemscore.Rot>
1.6642

> <Gold.Chemscore.Internal.Correction>
   9.000000E+99

> <Gold.Chemscore.Hbonds>
donor molecule, donor type, donor heavy atom, donor atom, acceptor molecule, acceptor atom, score
      P1  H  7997  8008       L1    21  0.25
      P1  H 10752 10764       L1     8  0.98

> <Gold.Chemscore.Hbond.Weighted>
-6.4782

> <Gold.Chemscore.Metal.Weighted>
-0.0000

> <Gold.Chemscore.Lipo.Weighted>
-10.4341

> <Gold.Chemscore.Internal_Hbond.Weighted>
0.0000

> <Gold.Chemscore.DEClash.Weighted>
0.1644

> <Gold.Chemscore.DEInternal.Weighted>
2.3280

> <Gold.Chemscore.Rot.Weighted>
4.2604

> <Gold.Chemscore.Internal.Correction.Weighted>
   9.000000E+99

> <Gold.Protein.RotatedTorsions>
[ 6907 6896 6895 6894 ] final  -18.62 input  -60.11 | X-H torsion
[ 7974 7965 7964 7962 ] final   -8.64 input  175.53 | X-H torsion
[ 8008 7997 7996 7995 ] final  -51.94 input   59.86 | X-H torsion
[ 10167 10162 10161 10158 ] final  126.22 input  -65.29 | X-H torsion
[ 10718 10713 10712 10709 ] final   84.30 input   66.30 | X-H torsion
[ 10763 10752 10751 10750 ] final  -52.98 input  -60.55 | X-H torsion
[ 11005 11000 10999 10996 ] final  157.19 input  -57.11 | X-H torsion

> <Gold.Protein.ActiveResidues>
 VAL166  LYS551  ARG553  GLY616  TRP617  ASP618  TYR619  PRO620  LYS621  CYS622 
 ASP623  PHE694  ASN695  SER759  ASP760  ASP761  ALA762  ILE779  LEU786  VAL792 
 PHE793  MET794  SER795  GLU796  ALA797  LYS798  CYS799  TRP800  GLU811  SER814 

> <Gold.Protein.RotatedAtoms>
  151.2754  135.0697  159.9149 H   0  0  0  0  0  0  0  0  0  0  0  0  # atno 6907 bound_to 6896
  152.5343  134.0087  159.7938 H   0  0  0  0  0  0  0  0  0  0  0  0  # atno 6908 bound_to 6896
  151.0332  133.5722  159.2689 H   0  0  0  0  0  0  0  0  0  0  0  0  # atno 6909 bound_to 6896
  146.2275  140.2498  142.8347 H   0  0  0  0  0  0  0  0  0  0  0  0  # atno 7974 bound_to 7965
  154.4094  140.1236  156.4910 H   0  0  0  0  0  0  0  0  0  0  0  0  # atno 8008 bound_to 7997
  155.6990  140.3495  155.4905 H   0  0  0  0  0  0  0  0  0  0  0  0  # atno 8009 bound_to 7997
  155.9402  140.1085  157.1052 H   0  0  0  0  0  0  0  0  0  0  0  0  # atno 8010 bound_to 7997
  139.5643  144.6901  151.3955 H   0  0  0  0  0  0  0  0  0  0  0  0  # atno 10167 bound_to 10162
  157.6895  131.0127  150.2652 H   0  0  0  0  0  0  0  0  0  0  0  0  # atno 10718 bound_to 10713
  154.1515  135.6489  153.4964 H   0  0  0  0  0  0  0  0  0  0  0  0  # atno 10763 bound_to 10752
  153.0136  135.5339  154.6803 H   0  0  0  0  0  0  0  0  0  0  0  0  # atno 10764 bound_to 10752
  154.6092  135.2952  155.0422 H   0  0  0  0  0  0  0  0  0  0  0  0  # atno 10765 bound_to 10752
  140.1746  134.8519  157.2731 H   0  0  0  0  0  0  0  0  0  0  0  0  # atno 11005 bound_to 11000
  144.9420  140.8089  143.5624 LP  0  0  0  0  0  0  0  0  0  0  0  0  # atno 17320 bound_to 7965
  145.2451  139.2056  143.4972 LP  0  0  0  0  0  0  0  0  0  0  0  0  # atno 17321 bound_to 7965
  140.6925  143.7827  150.7277 LP  0  0  0  0  0  0  0  0  0  0  0  0  # atno 17342 bound_to 10162
  140.1313  143.4523  152.2252 LP  0  0  0  0  0  0  0  0  0  0  0  0  # atno 17343 bound_to 10162
  156.3224  130.3788  149.7563 LP  0  0  0  0  0  0  0  0  0  0  0  0  # atno 17370 bound_to 10713
  156.5129  130.8180  151.3175 LP  0  0  0  0  0  0  0  0  0  0  0  0  # atno 17371 bound_to 10713
  140.2337  134.3878  155.7510 LP  0  0  0  0  0  0  0  0  0  0  0  0  # atno 17394 bound_to 11000
  141.2219  133.7228  156.8681 LP  0  0  0  0  0  0  0  0  0  0  0  0  # atno 17395 bound_to 11000

$$$$
