AV-unprocessed.smi:1999|AV-procd|sdf|8092|dock6
  -GOLD-   2272010313D 1   1.00000     0.00000
 Structure written by MMmdl.
 38 39  0  0  0  0  0  0  0  0  1 V2000
  143.4227  133.1847  151.3525 C   0  0  0  0  0  0  0  0  0  0  0  0
  143.5351  134.5529  151.9329 C   0  0  0  0  0  0  0  0  0  0  0  0
  142.5534  135.1236  152.6417 N   0  0  0  0  0  0  0  0  0  0  0  0
  142.8931  136.3949  153.0825 N   0  0  0  0  0  0  0  0  0  0  0  0
  144.1264  136.7460  152.6929 C   0  0  0  0  0  0  0  0  0  0  0  0
  144.7308  137.9905  153.0118 N   0  0  0  0  0  0  0  0  0  0  0  0
  145.8665  138.2145  153.6961 C   0  0  0  0  0  0  0  0  0  0  0  0
  146.5763  137.3450  154.2023 O   0  0  0  0  0  0  0  0  0  0  0  0
  146.1431  139.5253  153.7587 N   0  0  0  0  0  0  0  0  0  0  0  0
  147.3244  140.1137  154.3841 C   0  0  2  0  0  0  0  0  0  0  0  0
  147.3975  141.6152  154.0565 C   0  0  0  0  0  0  0  0  0  0  0  0
  148.5708  139.3492  153.8928 C   0  0  0  0  0  0  0  0  0  0  0  0
  149.7063  139.3232  154.8154 N   0  0  0  0  0  0  0  0  0  0  0  0
  150.8502  138.5865  154.2804 C   0  0  0  0  0  0  0  0  0  0  0  0
  152.0477  138.6017  155.2466 C   0  0  0  0  0  0  0  0  0  0  0  0
  152.4041  139.9462  155.5499 O   0  0  0  0  0  0  0  0  0  0  0  0
  151.3274  140.6820  156.1207 C   0  0  0  0  0  0  0  0  0  0  0  0
  150.1329  140.6776  155.1517 C   0  0  0  0  0  0  0  0  0  0  0  0
  144.9776  135.5415  151.7410 S   0  0  0  0  0  0  0  0  0  0  0  0
  142.3947  132.8255  151.4097 H   0  0  0  0  0  0  0  0  0  0  0  0
  144.0653  132.4951  151.9001 H   0  0  0  0  0  0  0  0  0  0  0  0
  143.7302  133.1961  150.3069 H   0  0  0  0  0  0  0  0  0  0  0  0
  144.2542  138.8060  152.6566 H   0  0  0  0  0  0  0  0  0  0  0  0
  145.4995  140.1668  153.3188 H   0  0  0  0  0  0  0  0  0  0  0  0
  147.2294  139.9924  155.4634 H   0  0  0  0  0  0  0  0  0  0  0  0
  148.2573  142.0820  154.5379 H   0  0  0  0  0  0  0  0  0  0  0  0
  146.5076  142.1406  154.4047 H   0  0  0  0  0  0  0  0  0  0  0  0
  147.4861  141.7844  152.9828 H   0  0  0  0  0  0  0  0  0  0  0  0
  148.2900  138.3242  153.6446 H   0  0  0  0  0  0  0  0  0  0  0  0
  148.8895  139.8027  152.9530 H   0  0  0  0  0  0  0  0  0  0  0  0
  150.5792  137.5496  154.0862 H   0  0  0  0  0  0  0  0  0  0  0  0
  151.1529  139.0162  153.3242 H   0  0  0  0  0  0  0  0  0  0  0  0
  151.8073  138.0660  156.1661 H   0  0  0  0  0  0  0  0  0  0  0  0
  152.9038  138.0985  154.7967 H   0  0  0  0  0  0  0  0  0  0  0  0
  151.0480  140.2469  157.0815 H   0  0  0  0  0  0  0  0  0  0  0  0
  151.6555  141.7034  156.3140 H   0  0  0  0  0  0  0  0  0  0  0  0
  150.4062  141.2160  154.2428 H   0  0  0  0  0  0  0  0  0  0  0  0
  149.3044  141.2260  155.6015 H   0  0  0  0  0  0  0  0  0  0  0  0
  1  2  1  0  0  0  0
  1 20  1  0  0  0  0
  1 21  1  0  0  0  0
  1 22  1  0  0  0  0
  2 19  1  0  0  0  0
  2  3  2  0  0  0  0
  3  4  1  0  0  0  0
  4  5  2  0  0  0  0
  5  6  1  0  0  0  0
  5 19  1  0  0  0  0
  6  7  1  0  0  0  0
  6 23  1  0  0  0  0
  7  8  2  0  0  0  0
  7  9  1  0  0  0  0
  9 10  1  0  0  0  0
  9 24  1  0  0  0  0
 10 11  1  0  0  0  0
 10 12  1  0  0  0  0
 10 25  1  0  0  0  0
 11 26  1  0  0  0  0
 11 27  1  0  0  0  0
 11 28  1  0  0  0  0
 12 13  1  0  0  0  0
 12 29  1  0  0  0  0
 12 30  1  0  0  0  0
 13 18  1  0  0  0  0
 13 14  1  0  0  0  0
 14 15  1  0  0  0  0
 14 31  1  0  0  0  0
 14 32  1  0  0  0  0
 15 16  1  0  0  0  0
 15 33  1  0  0  0  0
 15 34  1  0  0  0  0
 16 17  1  0  0  0  0
 17 18  1  0  0  0  0
 17 35  1  0  0  0  0
 17 36  1  0  0  0  0
 18 37  1  0  0  0  0
 18 38  1  0  0  0  0
M  END
> <s_m_source_file>
AV-unprocessed.smi

> <i_m_source_file_index>
1999

> <i_lp_mmshare_version>
43012

> <i_f3d_flags>
0

> <s_epik_input>
W0NIM11jMW5uYyhzMSlbTkhdQyg9TylbTkhdW0NASF0oW0NIM10pW0NIMl1OMltDSDJdW0NIMl1PW0NIMl1bQ0gyXTI=

> <s_epik_cmdline>
J2VwaWtfcHl0aG9uJywgJy1waCcsICc3LjAnLCAnLXRuJywgJzgnLCAnLW1hJywgJzIwMCcsICctbWV0YWxfYmluZGluZycsICctaW1hZScsICc8aW5maWxlLm1hZT4nLCAnLW9tYWUnLCAnPG91dGZpbGUubWFlPic=

> <r_lp_tautomer_probability>
1

> <r_epik_Ionization_Penalty>
0.221412

> <r_epik_Ionization_Penalty_Charging>
0

> <r_epik_Ionization_Penalty_Neutral>
0.221412

> <r_epik_State_Penalty>
0.209349

> <r_epik_Charging_Adjusted_Penalty>
0.209349

> <i_epik_Tot_Q>
0

> <i_epik_Tot_abs_Q>
0

> <r_epik_Metal_State_Penalty>
0.56886

> <b_epik_Metal_Only>
0

> <s_lp_Force_Field>
OPLS_2005

> <r_lp_Energy>
22.1143

> <b_lp_Chiralities_Consistent>
1

> <s_lp_Variant>
AV-unprocessed.smi:1999-1

> <Gold.Version>
5.8.1

> <Gold.Id.Protein>
6NUR|6NUR_protein|mol2

> <Gold.PLP.Fitness>
37.4708

> <Gold.PLP.PLP>
-30.2687

> <Gold.PLP.part.hbond>
-4.0000

> <Gold.PLP.part.metal>
0.0000

> <Gold.PLP.part.buried>
-2.1391

> <Gold.PLP.part.nonpolar>
-24.5171

> <Gold.PLP.part.repulsive>
0.5421

> <Gold.PLP.ligand.clash>
0.0000

> <Gold.PLP.ligand.torsion>
0.9858

> <Gold.PLP.Chemscore.Hbond>
3.0471

> <Gold.PLP.Chemscore.CHOScore>
0.0000

> <Gold.PLP.Chemscore.Metal>
0.0000

> <Gold.Chemscore.Hbonds>
donor molecule, donor type, donor heavy atom, donor atom, acceptor molecule, acceptor atom, score
      L1  H     6    23       P1 10175  1.00
      L1  H     9    24       P1 10175  0.98
      P1  H  7989  7998       L1    16  0.02
      P1  H  7997  8010       L1    16  0.96

> <Gold.PLP.Chemscore.Internal.Correction>
0.0323

> <Gold.Rescore>
     Score         DG    S(hbond)    S(metal)    S(lipo)     H(rot)  DE(clash)    DE(int)     intcor
     15.32     -18.01       2.73        0.00      63.93       1.58       0.33       2.36       ----

> <Gold.Chemscore.Fitness>
15.3250

> <Gold.Chemscore.DG>
-18.0141

> <Gold.Chemscore.ZeroCoef>
-5.4800

> <Gold.Chemscore.Hbond>
2.7269

> <Gold.Chemscore.Metal>
0.0000

> <Gold.Chemscore.Lipo>
63.9345

> <Gold.Chemscore.Internal_Hbond>
0.0000

> <Gold.Chemscore.DEClash>
0.3287

> <Gold.Chemscore.DEInternal>
2.3604

> <Gold.Chemscore.Rot>
1.5837

> <Gold.Chemscore.Internal.Correction>
   9.000000E+99

> <Gold.Chemscore.Hbonds>
donor molecule, donor type, donor heavy atom, donor atom, acceptor molecule, acceptor atom, score
      L1  H     6    23       P1 10175  1.00
      L1  H     9    24       P1 10175  0.87
      P1  H  7997  8010       L1    16  0.79

> <Gold.Chemscore.Hbond.Weighted>
-9.1080

> <Gold.Chemscore.Metal.Weighted>
-0.0000

> <Gold.Chemscore.Lipo.Weighted>
-7.4803

> <Gold.Chemscore.Internal_Hbond.Weighted>
0.0000

> <Gold.Chemscore.DEClash.Weighted>
0.3287

> <Gold.Chemscore.DEInternal.Weighted>
2.3604

> <Gold.Chemscore.Rot.Weighted>
4.0542

> <Gold.Chemscore.Internal.Correction.Weighted>
   9.000000E+99

> <Gold.Protein.RotatedTorsions>
[ 6907 6896 6895 6894 ] final  -38.42 input  -60.11 | X-H torsion
[ 7974 7965 7964 7962 ] final  -49.54 input  175.53 | X-H torsion
[ 8008 7997 7996 7995 ] final   91.83 input   59.86 | X-H torsion
[ 10167 10162 10161 10158 ] final  163.34 input  -65.29 | X-H torsion
[ 10718 10713 10712 10709 ] final -124.24 input   66.30 | X-H torsion
[ 10763 10752 10751 10750 ] final  127.91 input  -60.55 | X-H torsion
[ 11005 11000 10999 10996 ] final -146.84 input  -57.11 | X-H torsion

> <Gold.Protein.ActiveResidues>
 VAL166  LYS551  ARG553  GLY616  TRP617  ASP618  TYR619  PRO620  LYS621  CYS622 
 ASP623  PHE694  ASN695  SER759  ASP760  ASP761  ALA762  ILE779  LEU786  VAL792 
 PHE793  MET794  SER795  GLU796  ALA797  LYS798  CYS799  TRP800  GLU811  SER814 

> <Gold.Protein.RotatedAtoms>
  151.0027  134.9335  159.7962 H   0  0  0  0  0  0  0  0  0  0  0  0  # atno 6907 bound_to 6896
  152.5282  134.3133  159.9131 H   0  0  0  0  0  0  0  0  0  0  0  0  # atno 6908 bound_to 6896
  151.3138  133.4027  159.2683 H   0  0  0  0  0  0  0  0  0  0  0  0  # atno 6909 bound_to 6896
  145.9395  140.7675  142.9559 H   0  0  0  0  0  0  0  0  0  0  0  0  # atno 7974 bound_to 7965
  156.0283  140.3333  155.7112 H   0  0  0  0  0  0  0  0  0  0  0  0  # atno 8008 bound_to 7997
  155.5922  140.0647  157.2773 H   0  0  0  0  0  0  0  0  0  0  0  0  # atno 8009 bound_to 7997
  154.4343  140.1825  156.1074 H   0  0  0  0  0  0  0  0  0  0  0  0  # atno 8010 bound_to 7997
  139.4872  144.4347  151.9027 H   0  0  0  0  0  0  0  0  0  0  0  0  # atno 10167 bound_to 10162
  156.1570  130.6575  150.9996 H   0  0  0  0  0  0  0  0  0  0  0  0  # atno 10718 bound_to 10713
  153.7171  135.3259  155.3259 H   0  0  0  0  0  0  0  0  0  0  0  0  # atno 10763 bound_to 10752
  154.8367  135.4490  154.1255 H   0  0  0  0  0  0  0  0  0  0  0  0  # atno 10764 bound_to 10752
  153.2365  135.6966  153.7911 H   0  0  0  0  0  0  0  0  0  0  0  0  # atno 10765 bound_to 10752
  140.7778  134.3114  157.5055 H   0  0  0  0  0  0  0  0  0  0  0  0  # atno 11005 bound_to 11000
  144.6777  140.2257  143.7361 LP  0  0  0  0  0  0  0  0  0  0  0  0  # atno 17320 bound_to 7965
  145.8319  139.2089  143.1878 LP  0  0  0  0  0  0  0  0  0  0  0  0  # atno 17321 bound_to 7965
  140.3796  144.2752  150.5910 LP  0  0  0  0  0  0  0  0  0  0  0  0  # atno 17342 bound_to 10162
  140.5245  143.2258  151.8337 LP  0  0  0  0  0  0  0  0  0  0  0  0  # atno 17343 bound_to 10162
  157.6703  131.0863  150.7628 LP  0  0  0  0  0  0  0  0  0  0  0  0  # atno 17370 bound_to 10713
  156.7693  130.4823  149.5421 LP  0  0  0  0  0  0  0  0  0  0  0  0  # atno 17371 bound_to 10713
  139.8746  134.9300  156.3491 LP  0  0  0  0  0  0  0  0  0  0  0  0  # atno 17394 bound_to 11000
  140.9511  133.7450  156.0274 LP  0  0  0  0  0  0  0  0  0  0  0  0  # atno 17395 bound_to 11000

$$$$
