AV-unprocessed.smi:2807|AV-procd|sdf|10823|dock6
  -GOLD-   2272015263D 1   1.00000     0.00000
 Structure written by MMmdl.
 31 32  0  0  0  0  0  0  0  0  2 V2000
  148.7194  142.1371  157.9756 O   0  0  0  0  0  0  0  0  0  0  0  0
  149.2957  141.2576  157.3244 C   0  0  0  0  0  0  0  0  0  0  0  0
  148.7854  140.3444  156.4492 N   0  5  0  0  0  0  0  0  0  0  0  0
  147.7568  140.6482  155.4561 C   0  0  1  0  0  0  0  0  0  0  0  0
  146.4844  141.2030  156.1099 C   0  0  0  0  0  0  0  0  0  0  0  0
  145.7979  142.0464  155.0241 C   0  0  0  0  0  0  0  0  0  0  0  0
  146.8658  142.3342  153.9555 C   0  0  0  0  0  0  0  0  0  0  0  0
  148.1837  141.7911  154.5265 C   0  0  2  0  0  0  0  0  0  0  0  0
  149.0519  141.3493  153.5028 O   0  0  0  0  0  0  0  0  0  0  0  0
  150.8288  141.1329  157.4518 C   0  0  0  0  0  0  0  0  0  0  0  0
  151.1263  139.9300  157.9497 F   0  0  0  0  0  0  0  0  0  0  0  0
  151.3861  141.2140  156.2389 F   0  0  0  0  0  0  0  0  0  0  0  0
  151.3837  142.2003  158.3947 C   0  0  0  0  0  0  0  0  0  0  0  0
  151.2464  143.5728  158.0845 C   0  0  0  0  0  0  0  0  0  0  0  0
  151.7937  144.5239  158.9662 C   0  0  0  0  0  0  0  0  0  0  0  0
  152.4540  144.0737  160.1249 C   0  0  0  0  0  0  0  0  0  0  0  0
  152.5362  142.6856  160.3508 C   0  0  0  0  0  0  0  0  0  0  0  0
  152.0142  141.7658  159.5124 N   0  0  0  0  0  0  0  0  0  0  0  0
  147.4880  139.7819  154.8476 H   0  0  0  0  0  0  0  0  0  0  0  0
  145.8376  140.4130  156.4927 H   0  0  0  0  0  0  0  0  0  0  0  0
  146.7423  141.8494  156.9511 H   0  0  0  0  0  0  0  0  0  0  0  0
  144.9595  141.5055  154.5820 H   0  0  0  0  0  0  0  0  0  0  0  0
  145.3978  142.9686  155.4475 H   0  0  0  0  0  0  0  0  0  0  0  0
  146.5979  141.8223  153.0284 H   0  0  0  0  0  0  0  0  0  0  0  0
  146.9379  143.3976  153.7233 H   0  0  0  0  0  0  0  0  0  0  0  0
  148.6756  142.5807  155.0977 H   0  0  0  0  0  0  0  0  0  0  0  0
  148.6728  140.5778  153.1108 H   0  0  0  0  0  0  0  0  0  0  0  0
  150.7425  143.8869  157.1822 H   0  0  0  0  0  0  0  0  0  0  0  0
  151.7112  145.5797  158.7553 H   0  0  0  0  0  0  0  0  0  0  0  0
  152.8883  144.7740  160.8226 H   0  0  0  0  0  0  0  0  0  0  0  0
  153.0347  142.3037  161.2293 H   0  0  0  0  0  0  0  0  0  0  0  0
  1  2  2  0  0  0  0
  2  3  1  0  0  0  0
  2 10  1  0  0  0  0
  3  4  1  0  0  0  0
  4  8  1  0  0  0  0
  4  5  1  0  0  0  0
  4 19  1  0  0  0  0
  5  6  1  0  0  0  0
  5 20  1  0  0  0  0
  5 21  1  0  0  0  0
  6  7  1  0  0  0  0
  6 22  1  0  0  0  0
  6 23  1  0  0  0  0
  7  8  1  0  0  0  0
  7 24  1  0  0  0  0
  7 25  1  0  0  0  0
  8  9  1  0  0  0  0
  8 26  1  0  0  0  0
  9 27  1  0  0  0  0
 10 11  1  0  0  0  0
 10 12  1  0  0  0  0
 10 13  1  0  0  0  0
 13 18  1  0  0  0  0
 13 14  2  0  0  0  0
 14 15  1  0  0  0  0
 14 28  1  0  0  0  0
 15 16  2  0  0  0  0
 15 29  1  0  0  0  0
 16 17  1  0  0  0  0
 16 30  1  0  0  0  0
 17 18  2  0  0  0  0
 17 31  1  0  0  0  0
M  CHG  1   3  -1
M  END
> <s_m_source_file>
AV-unprocessed.smi

> <i_m_source_file_index>
2807

> <i_lp_mmshare_version>
43012

> <i_f3d_flags>
0

> <s_epik_input>
bjFbY0hdW2NIXVtjSF1bY0hdYzFDKEYpKEYpQyg9TylbTkhdW0NAQEhdMltDSDJdW0NIMl1bQ0gyXVtDQEhdMltPSF0=

> <s_epik_cmdline>
J2VwaWtfcHl0aG9uJywgJy1waCcsICc3LjAnLCAnLXRuJywgJzgnLCAnLW1hJywgJzIwMCcsICctbWV0YWxfYmluZGluZycsICctaW1hZScsICc8aW5maWxlLm1hZT4nLCAnLW9tYWUnLCAnPG91dGZpbGUubWFlPic=

> <r_lp_tautomer_probability>
1

> <r_epik_Ionization_Penalty>
5.72231

> <r_epik_Ionization_Penalty_Charging>
5.72231

> <r_epik_Ionization_Penalty_Neutral>
5.49816e-06

> <r_epik_State_Penalty>
5.72227

> <r_epik_Charging_Adjusted_Penalty>
11.4446

> <i_epik_Tot_Q>
-1

> <i_epik_Tot_abs_Q>
1

> <r_epik_Metal_State_Penalty>
1.70075

> <b_epik_Metal_Only>
1

> <s_lp_Force_Field>
OPLS_2005

> <r_lp_Energy>
34.2298

> <b_lp_Chiralities_Consistent>
1

> <s_lp_Variant>
AV-unprocessed.smi:2807-8

> <Gold.Version>
5.8.1

> <Gold.Id.Protein>
6NUR|6NUR_protein|mol2

> <Gold.PLP.Fitness>
40.5746

> <Gold.PLP.PLP>
-37.9178

> <Gold.PLP.part.hbond>
-2.9645

> <Gold.PLP.part.metal>
0.0000

> <Gold.PLP.part.buried>
-6.7811

> <Gold.PLP.part.nonpolar>
-28.2533

> <Gold.PLP.part.repulsive>
0.1903

> <Gold.PLP.ligand.clash>
0.0000

> <Gold.PLP.ligand.torsion>
0.3895

> <Gold.PLP.Chemscore.Hbond>
1.1321

> <Gold.PLP.Chemscore.CHOScore>
0.0000

> <Gold.PLP.Chemscore.Metal>
0.0000

> <Gold.Chemscore.Hbonds>
donor molecule, donor type, donor heavy atom, donor atom, acceptor molecule, acceptor atom, score
      L1  H     9    27       P1  7957  0.13
      P1  H  8011  8017       L1     9  0.91

> <Gold.PLP.Chemscore.Internal.Correction>
0.0396

> <Gold.Rescore>
     Score         DG    S(hbond)    S(metal)    S(lipo)     H(rot)  DE(clash)    DE(int)     intcor
     12.38     -14.26       1.16        0.00      85.71       2.00       0.09       1.79       ----

> <Gold.Chemscore.Fitness>
12.3761

> <Gold.Chemscore.DG>
-14.2620

> <Gold.Chemscore.ZeroCoef>
-5.4800

> <Gold.Chemscore.Hbond>
1.1570

> <Gold.Chemscore.Metal>
0.0000

> <Gold.Chemscore.Lipo>
85.7126

> <Gold.Chemscore.Internal_Hbond>
0.0000

> <Gold.Chemscore.DEClash>
0.0946

> <Gold.Chemscore.DEInternal>
1.7913

> <Gold.Chemscore.Rot>
1.9964

> <Gold.Chemscore.Internal.Correction>
   9.000000E+99

> <Gold.Chemscore.Hbonds>
donor molecule, donor type, donor heavy atom, donor atom, acceptor molecule, acceptor atom, score
      L1  H     9    27       P1  7957  0.14
      P1  H  8011  8017       L1     9  0.76

> <Gold.Chemscore.Hbond.Weighted>
-3.8644

> <Gold.Chemscore.Metal.Weighted>
-0.0000

> <Gold.Chemscore.Lipo.Weighted>
-10.0284

> <Gold.Chemscore.Internal_Hbond.Weighted>
0.0000

> <Gold.Chemscore.DEClash.Weighted>
0.0946

> <Gold.Chemscore.DEInternal.Weighted>
1.7913

> <Gold.Chemscore.Rot.Weighted>
5.1108

> <Gold.Chemscore.Internal.Correction.Weighted>
   9.000000E+99

> <Gold.Protein.RotatedTorsions>
[ 6907 6896 6895 6894 ] final   90.07 input  -60.11 | X-H torsion
[ 7974 7965 7964 7962 ] final   78.88 input  175.53 | X-H torsion
[ 8008 7997 7996 7995 ] final -137.39 input   59.86 | X-H torsion
[ 10167 10162 10161 10158 ] final  177.03 input  -65.29 | X-H torsion
[ 10718 10713 10712 10709 ] final -107.83 input   66.30 | X-H torsion
[ 10763 10752 10751 10750 ] final -127.47 input  -60.55 | X-H torsion
[ 11005 11000 10999 10996 ] final  102.82 input  -57.11 | X-H torsion

> <Gold.Protein.ActiveResidues>
 VAL166  LYS551  ARG553  GLY616  TRP617  ASP618  TYR619  PRO620  LYS621  CYS622 
 ASP623  PHE694  ASN695  SER759  ASP760  ASP761  ALA762  ILE779  LEU786  VAL792 
 PHE793  MET794  SER795  GLU796  ALA797  LYS798  CYS799  TRP800  GLU811  SER814 

> <Gold.Protein.RotatedAtoms>
  152.5442  134.1868  159.8657 H   0  0  0  0  0  0  0  0  0  0  0  0  # atno 6907 bound_to 6896
  151.1866  133.4685  159.2602 H   0  0  0  0  0  0  0  0  0  0  0  0  # atno 6908 bound_to 6896
  151.1125  135.0046  159.8556 H   0  0  0  0  0  0  0  0  0  0  0  0  # atno 6909 bound_to 6896
  145.6715  139.2498  143.1866 H   0  0  0  0  0  0  0  0  0  0  0  0  # atno 7974 bound_to 7965
  155.4110  140.0512  157.3031 H   0  0  0  0  0  0  0  0  0  0  0  0  # atno 8008 bound_to 7997
  154.4946  140.2133  155.9434 H   0  0  0  0  0  0  0  0  0  0  0  0  # atno 8009 bound_to 7997
  156.1388  140.3158  155.8468 H   0  0  0  0  0  0  0  0  0  0  0  0  # atno 8010 bound_to 7997
  139.5237  144.2846  152.0517 H   0  0  0  0  0  0  0  0  0  0  0  0  # atno 10167 bound_to 10162
  156.0455  130.5682  150.7876 H   0  0  0  0  0  0  0  0  0  0  0  0  # atno 10718 bound_to 10713
  154.8752  135.3961  154.3599 H   0  0  0  0  0  0  0  0  0  0  0  0  # atno 10763 bound_to 10752
  153.4373  135.7026  153.6197 H   0  0  0  0  0  0  0  0  0  0  0  0  # atno 10764 bound_to 10752
  153.4793  135.3773  155.2403 H   0  0  0  0  0  0  0  0  0  0  0  0  # atno 10765 bound_to 10752
  139.8780  134.9239  156.5115 H   0  0  0  0  0  0  0  0  0  0  0  0  # atno 11005 bound_to 11000
  146.1041  140.7508  142.9535 LP  0  0  0  0  0  0  0  0  0  0  0  0  # atno 17320 bound_to 7965
  144.7055  140.3835  143.7121 LP  0  0  0  0  0  0  0  0  0  0  0  0  # atno 17321 bound_to 7965
  140.2300  144.4379  150.6304 LP  0  0  0  0  0  0  0  0  0  0  0  0  # atno 17342 bound_to 10162
  140.6362  143.2195  151.6390 LP  0  0  0  0  0  0  0  0  0  0  0  0  # atno 17343 bound_to 10162
  157.5326  131.0937  150.9935 LP  0  0  0  0  0  0  0  0  0  0  0  0  # atno 17370 bound_to 10713
  157.0237  130.5684  149.5334 LP  0  0  0  0  0  0  0  0  0  0  0  0  # atno 17371 bound_to 10713
  140.8516  133.8127  155.9175 LP  0  0  0  0  0  0  0  0  0  0  0  0  # atno 17394 bound_to 11000
  140.9138  134.2227  157.4969 LP  0  0  0  0  0  0  0  0  0  0  0  0  # atno 17395 bound_to 11000

$$$$
