AV-unprocessed.smi:3194|AV-procd|sdf|12211|dock2
  -GOLD-   2272018 43D 1   1.00000     0.00000
 Structure written by MMmdl.
 27 27  0  0  0  0  0  0  0  0  2 V2000
  148.9709  141.0031  154.2393 C   0  0  0  0  0  0  0  0  0  0  0  0
  149.7881  139.9963  155.0624 C   0  0  1  0  0  0  0  0  0  0  0  0
  150.3061  138.8441  154.1795 C   0  0  0  0  0  0  0  0  0  0  0  0
  149.2934  138.3591  153.3197 O   0  0  0  0  0  0  0  0  0  0  0  0
  150.9190  140.7001  155.6713 N   0  5  0  0  0  0  0  0  0  0  0  0
  151.8553  140.1106  156.4705 C   0  0  0  0  0  0  0  0  0  0  0  0
  152.7808  139.3460  156.1748 O   0  0  0  0  0  0  0  0  0  0  0  0
  151.6611  140.4891  157.9540 C   0  0  0  0  0  0  0  0  0  0  0  0
  150.4148  140.1822  158.3248 F   0  0  0  0  0  0  0  0  0  0  0  0
  152.4902  139.7638  158.7117 F   0  0  0  0  0  0  0  0  0  0  0  0
  151.9008  141.9832  158.1704 C   0  0  0  0  0  0  0  0  0  0  0  0
  152.8698  142.4398  159.0938 C   0  0  0  0  0  0  0  0  0  0  0  0
  153.0605  143.8264  159.2445 C   0  0  0  0  0  0  0  0  0  0  0  0
  152.2793  144.7071  158.4730 C   0  0  0  0  0  0  0  0  0  0  0  0
  151.3394  144.1579  157.5791 C   0  0  0  0  0  0  0  0  0  0  0  0
  151.1486  142.8304  157.4265 N   0  0  0  0  0  0  0  0  0  0  0  0
  149.1141  139.5684  155.8066 H   0  0  0  0  0  0  0  0  0  0  0  0
  148.1122  140.5203  153.7723 H   0  0  0  0  0  0  0  0  0  0  0  0
  149.5707  141.4528  153.4471 H   0  0  0  0  0  0  0  0  0  0  0  0
  148.5904  141.8090  154.8680 H   0  0  0  0  0  0  0  0  0  0  0  0
  151.1355  139.1870  153.5607 H   0  0  0  0  0  0  0  0  0  0  0  0
  150.6830  138.0224  154.7901 H   0  0  0  0  0  0  0  0  0  0  0  0
  149.4265  138.7306  152.4621 H   0  0  0  0  0  0  0  0  0  0  0  0
  153.4641  141.7428  159.6658 H   0  0  0  0  0  0  0  0  0  0  0  0
  153.7952  144.2073  159.9384 H   0  0  0  0  0  0  0  0  0  0  0  0
  152.3989  145.7766  158.5617 H   0  0  0  0  0  0  0  0  0  0  0  0
  150.7230  144.8028  156.9703 H   0  0  0  0  0  0  0  0  0  0  0  0
  1  2  1  0  0  0  0
  1 18  1  0  0  0  0
  1 19  1  0  0  0  0
  1 20  1  0  0  0  0
  2 17  1  0  0  0  0
  2  3  1  0  0  0  0
  2  5  1  0  0  0  0
  3  4  1  0  0  0  0
  3 21  1  0  0  0  0
  3 22  1  0  0  0  0
  4 23  1  0  0  0  0
  5  6  1  0  0  0  0
  6  7  2  0  0  0  0
  6  8  1  0  0  0  0
  8  9  1  0  0  0  0
  8 10  1  0  0  0  0
  8 11  1  0  0  0  0
 11 16  1  0  0  0  0
 11 12  2  0  0  0  0
 12 13  1  0  0  0  0
 12 24  1  0  0  0  0
 13 14  2  0  0  0  0
 13 25  1  0  0  0  0
 14 15  1  0  0  0  0
 14 26  1  0  0  0  0
 15 16  2  0  0  0  0
 15 27  1  0  0  0  0
M  CHG  1   5  -1
M  END
> <s_m_source_file>
AV-unprocessed.smi

> <i_m_source_file_index>
3194

> <i_lp_mmshare_version>
43012

> <i_f3d_flags>
0

> <s_epik_input>
W09IXVtDSDJdW0NASF0oW0NIM10pW05IXUMoPU8pQyhGKShGKWMxW2NIXVtjSF1bY0hdW2NIXW4x

> <s_epik_cmdline>
J2VwaWtfcHl0aG9uJywgJy1waCcsICc3LjAnLCAnLXRuJywgJzgnLCAnLW1hJywgJzIwMCcsICctbWV0YWxfYmluZGluZycsICctaW1hZScsICc8aW5maWxlLm1hZT4nLCAnLW9tYWUnLCAnPG91dGZpbGUubWFlPic=

> <r_lp_tautomer_probability>
1

> <r_epik_Ionization_Penalty>
5.78943

> <r_epik_Ionization_Penalty_Charging>
5.78942

> <r_epik_Ionization_Penalty_Neutral>
4.0054e-06

> <r_epik_State_Penalty>
5.78939

> <r_epik_Charging_Adjusted_Penalty>
11.5788

> <i_epik_Tot_Q>
-1

> <i_epik_Tot_abs_Q>
1

> <r_epik_Metal_State_Penalty>
1.76064

> <b_epik_Metal_Only>
1

> <s_lp_Force_Field>
OPLS_2005

> <r_lp_Energy>
17.1269

> <b_lp_Chiralities_Consistent>
1

> <s_lp_Variant>
AV-unprocessed.smi:3194-3

> <Gold.Version>
5.8.1

> <Gold.Id.Protein>
6NUR|6NUR_protein|mol2

> <Gold.PLP.Fitness>
44.8337

> <Gold.PLP.PLP>
-38.0349

> <Gold.PLP.part.hbond>
-3.8713

> <Gold.PLP.part.metal>
0.0000

> <Gold.PLP.part.buried>
-2.8117

> <Gold.PLP.part.nonpolar>
-30.7551

> <Gold.PLP.part.repulsive>
0.1438

> <Gold.PLP.ligand.clash>
0.7343

> <Gold.PLP.ligand.torsion>
0.9297

> <Gold.PLP.Chemscore.Hbond>
2.0416

> <Gold.PLP.Chemscore.CHOScore>
1.0000

> <Gold.PLP.Chemscore.Metal>
0.0000

> <Gold.Chemscore.Hbonds>
donor molecule, donor type, donor heavy atom, donor atom, acceptor molecule, acceptor atom, score
      L1  H     4    23       P1  7957  1.00
      P1  H  7989  7998       L1     5  0.06
      P1  H  7997  8008       L1     7  1.00
      L1  C    15    27       P1  8028  1.00

> <Gold.PLP.Chemscore.Internal.Correction>
0.2678

> <Gold.Rescore>
     Score         DG    S(hbond)    S(metal)    S(lipo)     H(rot)  DE(clash)    DE(int)     intcor
     13.92     -16.10       1.95        0.00      88.10       2.43       0.01       2.18       ----

> <Gold.Chemscore.Fitness>
13.9168

> <Gold.Chemscore.DG>
-16.1012

> <Gold.Chemscore.ZeroCoef>
-5.4800

> <Gold.Chemscore.Hbond>
1.9547

> <Gold.Chemscore.Metal>
0.0000

> <Gold.Chemscore.Lipo>
88.0983

> <Gold.Chemscore.Internal_Hbond>
0.0000

> <Gold.Chemscore.DEClash>
0.0086

> <Gold.Chemscore.DEInternal>
2.1758

> <Gold.Chemscore.Rot>
2.4277

> <Gold.Chemscore.Internal.Correction>
   9.000000E+99

> <Gold.Chemscore.Hbonds>
donor molecule, donor type, donor heavy atom, donor atom, acceptor molecule, acceptor atom, score
      L1  H     4    23       P1  7957  0.74
      P1  H  7997  8008       L1     7  0.82

> <Gold.Chemscore.Hbond.Weighted>
-6.5285

> <Gold.Chemscore.Metal.Weighted>
-0.0000

> <Gold.Chemscore.Lipo.Weighted>
-10.3075

> <Gold.Chemscore.Internal_Hbond.Weighted>
0.0000

> <Gold.Chemscore.DEClash.Weighted>
0.0086

> <Gold.Chemscore.DEInternal.Weighted>
2.1758

> <Gold.Chemscore.Rot.Weighted>
6.2149

> <Gold.Chemscore.Internal.Correction.Weighted>
   9.000000E+99

> <Gold.Protein.RotatedTorsions>
[ 6907 6896 6895 6894 ] final  -62.05 input  -60.11 | X-H torsion
[ 7974 7965 7964 7962 ] final  -10.32 input  175.53 | X-H torsion
[ 8008 7997 7996 7995 ] final  -37.89 input   59.86 | X-H torsion
[ 10167 10162 10161 10158 ] final  107.05 input  -65.29 | X-H torsion
[ 10718 10713 10712 10709 ] final   88.11 input   66.30 | X-H torsion
[ 10763 10752 10751 10750 ] final   73.81 input  -60.55 | X-H torsion
[ 11005 11000 10999 10996 ] final   50.24 input  -57.11 | X-H torsion

> <Gold.Protein.ActiveResidues>
 VAL166  LYS551  ARG553  GLY616  TRP617  ASP618  TYR619  PRO620  LYS621  CYS622 
 ASP623  PHE694  ASN695  SER759  ASP760  ASP761  ALA762  ILE779  LEU786  VAL792 
 PHE793  MET794  SER795  GLU796  ALA797  LYS798  CYS799  TRP800  GLU811  SER814 

> <Gold.Protein.RotatedAtoms>
  150.7742  134.6623  159.6345 H   0  0  0  0  0  0  0  0  0  0  0  0  # atno 6907 bound_to 6896
  152.3806  134.6593  160.0153 H   0  0  0  0  0  0  0  0  0  0  0  0  # atno 6908 bound_to 6896
  151.6924  133.3274  159.3282 H   0  0  0  0  0  0  0  0  0  0  0  0  # atno 6909 bound_to 6896
  146.2224  140.2747  142.8359 H   0  0  0  0  0  0  0  0  0  0  0  0  # atno 7974 bound_to 7965
  154.4045  140.1592  156.2611 H   0  0  0  0  0  0  0  0  0  0  0  0  # atno 8008 bound_to 7997
  155.9035  140.3431  155.6022 H   0  0  0  0  0  0  0  0  0  0  0  0  # atno 8009 bound_to 7997
  155.7419  140.0793  157.2232 H   0  0  0  0  0  0  0  0  0  0  0  0  # atno 8010 bound_to 7997
  139.6958  144.7101  151.1269 H   0  0  0  0  0  0  0  0  0  0  0  0  # atno 10167 bound_to 10162
  157.6946  131.0282  150.3225 H   0  0  0  0  0  0  0  0  0  0  0  0  # atno 10718 bound_to 10713
  153.0545  135.5049  154.7948 H   0  0  0  0  0  0  0  0  0  0  0  0  # atno 10763 bound_to 10752
  154.6785  135.2964  154.9648 H   0  0  0  0  0  0  0  0  0  0  0  0  # atno 10764 bound_to 10752
  154.0443  135.6712  153.4846 H   0  0  0  0  0  0  0  0  0  0  0  0  # atno 10765 bound_to 10752
  140.1034  134.5050  155.8741 H   0  0  0  0  0  0  0  0  0  0  0  0  # atno 11005 bound_to 11000
  144.9242  140.7902  143.5729 LP  0  0  0  0  0  0  0  0  0  0  0  0  # atno 17320 bound_to 7965
  145.2686  139.1963  143.4854 LP  0  0  0  0  0  0  0  0  0  0  0  0  # atno 17321 bound_to 7965
  140.7696  143.5493  150.9222 LP  0  0  0  0  0  0  0  0  0  0  0  0  # atno 17342 bound_to 10162
  139.9173  143.6648  152.3104 LP  0  0  0  0  0  0  0  0  0  0  0  0  # atno 17343 bound_to 10162
  156.3710  130.3863  149.7175 LP  0  0  0  0  0  0  0  0  0  0  0  0  # atno 17370 bound_to 10713
  156.4589  130.7942  151.2963 LP  0  0  0  0  0  0  0  0  0  0  0  0  # atno 17371 bound_to 10713
  141.2112  133.6703  156.6564 LP  0  0  0  0  0  0  0  0  0  0  0  0  # atno 17394 bound_to 11000
  140.3188  134.8025  157.4236 LP  0  0  0  0  0  0  0  0  0  0  0  0  # atno 17395 bound_to 11000

$$$$
