AV-unprocessed.smi:3068|AV-procd|sdf|11699|dock2
  -GOLD-   2272017103D 1   1.00000     0.00000
 Structure written by MMmdl.
 40 42  0  0  0  0  0  0  0  0  2 V2000
  150.9719  136.8143  159.4243 N   0  0  0  0  0  0  0  0  0  0  0  0
  151.2388  137.0954  158.3339 C   0  0  0  0  0  0  0  0  0  0  0  0
  151.5762  137.4507  156.9614 C   0  0  0  0  0  0  0  0  0  0  0  0
  152.2462  138.6123  156.7808 N   0  0  0  0  0  0  0  0  0  0  0  0
  152.5682  138.9501  155.5140 C   0  0  0  0  0  0  0  0  0  0  0  0
  152.2231  138.1305  154.4217 C   0  0  0  0  0  0  0  0  0  0  0  0
  151.5543  136.9700  154.5920 N   0  0  0  0  0  0  0  0  0  0  0  0
  151.2254  136.6189  155.8604 C   0  0  0  0  0  0  0  0  0  0  0  0
  150.5308  135.4114  156.0517 N   0  0  0  0  0  0  0  0  0  0  0  0
  150.1849  134.5566  154.9249 C   0  0  0  0  0  0  0  0  0  0  0  0
  149.0271  133.6009  155.2748 C   0  0  1  0  0  0  0  0  0  0  0  0
  147.6384  134.2393  155.0838 C   0  0  0  0  0  0  0  0  0  0  0  0
  147.3148  134.4096  153.6475 N   0  3  2  0  0  0  0  0  0  0  0  0
  145.9943  135.0585  153.4442 C   0  0  0  0  0  0  0  0  0  0  0  0
  145.7188  135.3036  151.9523 C   0  0  0  0  0  0  0  0  0  0  0  0
  145.8148  133.9947  151.1588 C   0  0  0  0  0  0  0  0  0  0  0  0
  147.1774  133.3335  151.4036 C   0  0  0  0  0  0  0  0  0  0  0  0
  147.4394  133.1238  152.9088 C   0  0  1  0  0  0  0  0  0  0  0  0
  148.8323  132.5101  153.1466 C   0  0  0  0  0  0  0  0  0  0  0  0
  149.0867  132.3773  154.5410 O   0  0  0  0  0  0  0  0  0  0  0  0
  153.1036  139.8771  155.3718 H   0  0  0  0  0  0  0  0  0  0  0  0
  152.4846  138.4057  153.4107 H   0  0  0  0  0  0  0  0  0  0  0  0
  150.3656  135.0722  156.9891 H   0  0  0  0  0  0  0  0  0  0  0  0
  149.8876  135.1951  154.0921 H   0  0  0  0  0  0  0  0  0  0  0  0
  151.0632  134.0028  154.5931 H   0  0  0  0  0  0  0  0  0  0  0  0
  149.1264  133.3377  156.3287 H   0  0  0  0  0  0  0  0  0  0  0  0
  146.8799  133.6057  155.5460 H   0  0  0  0  0  0  0  0  0  0  0  0
  147.5957  135.2033  155.5923 H   0  0  0  0  0  0  0  0  0  0  0  0
  145.2093  134.4319  153.8714 H   0  0  0  0  0  0  0  0  0  0  0  0
  145.9680  136.0082  153.9798 H   0  0  0  0  0  0  0  0  0  0  0  0
  144.7303  135.7453  151.8235 H   0  0  0  0  0  0  0  0  0  0  0  0
  146.4355  136.0262  151.5595 H   0  0  0  0  0  0  0  0  0  0  0  0
  145.0150  133.3178  151.4622 H   0  0  0  0  0  0  0  0  0  0  0  0
  145.6747  134.1874  150.0946 H   0  0  0  0  0  0  0  0  0  0  0  0
  147.2210  132.3782  150.8795 H   0  0  0  0  0  0  0  0  0  0  0  0
  147.9637  133.9567  150.9748 H   0  0  0  0  0  0  0  0  0  0  0  0
  146.6891  132.4350  153.3018 H   0  0  0  0  0  0  0  0  0  0  0  0
  148.8843  131.5191  152.6951 H   0  0  0  0  0  0  0  0  0  0  0  0
  149.6132  133.1030  152.6699 H   0  0  0  0  0  0  0  0  0  0  0  0
  148.0090  135.0348  153.2633 H   0  0  0  0  0  0  0  0  0  0  0  0
  1  2  3  0  0  0  0
  2  3  1  0  0  0  0
  3  8  1  0  0  0  0
  3  4  2  0  0  0  0
  4  5  1  0  0  0  0
  5  6  2  0  0  0  0
  5 21  1  0  0  0  0
  6  7  1  0  0  0  0
  6 22  1  0  0  0  0
  7  8  2  0  0  0  0
  8  9  1  0  0  0  0
  9 10  1  0  0  0  0
  9 23  1  0  0  0  0
 10 11  1  0  0  0  0
 10 24  1  0  0  0  0
 10 25  1  0  0  0  0
 11 20  1  0  0  0  0
 11 12  1  0  0  0  0
 11 26  1  0  0  0  0
 12 13  1  0  0  0  0
 12 27  1  0  0  0  0
 12 28  1  0  0  0  0
 13 18  1  0  0  0  0
 13 14  1  0  0  0  0
 13 40  1  0  0  0  0
 14 15  1  0  0  0  0
 14 29  1  0  0  0  0
 14 30  1  0  0  0  0
 15 16  1  0  0  0  0
 15 31  1  0  0  0  0
 15 32  1  0  0  0  0
 16 17  1  0  0  0  0
 16 33  1  0  0  0  0
 16 34  1  0  0  0  0
 17 18  1  0  0  0  0
 17 35  1  0  0  0  0
 17 36  1  0  0  0  0
 18 19  1  0  0  0  0
 18 37  1  0  0  0  0
 19 20  1  0  0  0  0
 19 38  1  0  0  0  0
 19 39  1  0  0  0  0
M  CHG  1  13   1
M  END
> <s_m_source_file>
AV-unprocessed.smi

> <i_m_source_file_index>
3068

> <i_lp_mmshare_version>
43012

> <i_f3d_flags>
0

> <s_epik_input>
TiNDYzFuW2NIXVtjSF1uYzFbTkhdW0NIMl1bQ0BIXShbQ0gyXTIpT1tDSDJdW0NAQEhdKE4yMylbQ0gyXVtDSDJdW0NIMl1bQ0gyXTM=

> <s_epik_cmdline>
J2VwaWtfcHl0aG9uJywgJy1waCcsICc3LjAnLCAnLXRuJywgJzgnLCAnLW1hJywgJzIwMCcsICctbWV0YWxfYmluZGluZycsICctaW1hZScsICc8aW5maWxlLm1hZT4nLCAnLW9tYWUnLCAnPG91dGZpbGUubWFlPic=

> <r_epik_Ionization_Penalty>
0.0804321

> <r_epik_Ionization_Penalty_Charging>
0.0803403

> <r_epik_Ionization_Penalty_Neutral>
9.17277e-05

> <r_epik_State_Penalty>
0.0711481

> <r_epik_Charging_Adjusted_Penalty>
0.151488

> <i_epik_Tot_Q>
1

> <i_epik_Tot_abs_Q>
1

> <r_epik_Metal_State_Penalty>
0.0711481

> <b_epik_Metal_Only>
0

> <s_lp_Force_Field>
OPLS_2005

> <r_lp_Energy>
40.024

> <b_lp_Chiralities_Consistent>
1

> <s_lp_Variant>
AV-unprocessed.smi:3068-2

> <Gold.Version>
5.8.1

> <Gold.Id.Protein>
6NUR|6NUR_protein|mol2

> <Gold.PLP.Fitness>
40.1543

> <Gold.PLP.PLP>
-29.0764

> <Gold.PLP.part.hbond>
-3.0000

> <Gold.PLP.part.metal>
0.0000

> <Gold.PLP.part.buried>
-5.6137

> <Gold.PLP.part.nonpolar>
-21.8950

> <Gold.PLP.part.repulsive>
0.2971

> <Gold.PLP.ligand.clash>
0.0000

> <Gold.PLP.ligand.torsion>
0.4664

> <Gold.PLP.Chemscore.Hbond>
4.0000

> <Gold.PLP.Chemscore.CHOScore>
0.0000

> <Gold.PLP.Chemscore.Metal>
0.0000

> <Gold.Chemscore.Hbonds>
donor molecule, donor type, donor heavy atom, donor atom, acceptor molecule, acceptor atom, score
      L1  H    13    40       P1  7948  1.92
      P1  H  6896  6908       L1     1  1.00
      P1  H 10752 10765       L1     7  1.00

> <Gold.PLP.Chemscore.Internal.Correction>
0.0108

> <Gold.Rescore>
     Score         DG    S(hbond)    S(metal)    S(lipo)     H(rot)  DE(clash)    DE(int)     intcor
     15.97     -16.50       2.04        0.00      64.88       1.32       0.04       0.49       ----

> <Gold.Chemscore.Fitness>
15.9654

> <Gold.Chemscore.DG>
-16.4974

> <Gold.Chemscore.ZeroCoef>
-5.4800

> <Gold.Chemscore.Hbond>
2.0371

> <Gold.Chemscore.Metal>
0.0000

> <Gold.Chemscore.Lipo>
64.8797

> <Gold.Chemscore.Internal_Hbond>
0.0000

> <Gold.Chemscore.DEClash>
0.0435

> <Gold.Chemscore.DEInternal>
0.4885

> <Gold.Chemscore.Rot>
1.3193

> <Gold.Chemscore.Internal.Correction>
   9.000000E+99

> <Gold.Chemscore.Hbonds>
donor molecule, donor type, donor heavy atom, donor atom, acceptor molecule, acceptor atom, score
      L1  H    13    40       P1  7948  0.89
      P1  H  6896  6908       L1     1  0.93
      P1  H 10752 10765       L1     7  0.09

> <Gold.Chemscore.Hbond.Weighted>
-6.8039

> <Gold.Chemscore.Metal.Weighted>
-0.0000

> <Gold.Chemscore.Lipo.Weighted>
-7.5909

> <Gold.Chemscore.Internal_Hbond.Weighted>
0.0000

> <Gold.Chemscore.DEClash.Weighted>
0.0435

> <Gold.Chemscore.DEInternal.Weighted>
0.4885

> <Gold.Chemscore.Rot.Weighted>
3.3774

> <Gold.Chemscore.Internal.Correction.Weighted>
   9.000000E+99

> <Gold.Protein.RotatedTorsions>
[ 6907 6896 6895 6894 ] final -134.29 input  -60.11 | X-H torsion
[ 7974 7965 7964 7962 ] final  -14.86 input  175.53 | X-H torsion
[ 8008 7997 7996 7995 ] final  165.10 input   59.86 | X-H torsion
[ 10167 10162 10161 10158 ] final   99.69 input  -65.29 | X-H torsion
[ 10718 10713 10712 10709 ] final -138.52 input   66.30 | X-H torsion
[ 10763 10752 10751 10750 ] final  155.76 input  -60.55 | X-H torsion
[ 11005 11000 10999 10996 ] final  -12.91 input  -57.11 | X-H torsion

> <Gold.Protein.ActiveResidues>
 VAL166  LYS551  ARG553  GLY616  TRP617  ASP618  TYR619  PRO620  LYS621  CYS622 
 ASP623  PHE694  ASN695  SER759  ASP760  ASP761  ALA762  ILE779  LEU786  VAL792 
 PHE793  MET794  SER795  GLU796  ALA797  LYS798  CYS799  TRP800  GLU811  SER814 

> <Gold.Protein.RotatedAtoms>
  150.9840  133.6216  159.2717 H   0  0  0  0  0  0  0  0  0  0  0  0  # atno 6907 bound_to 6896
  151.3460  135.0873  159.9397 H   0  0  0  0  0  0  0  0  0  0  0  0  # atno 6908 bound_to 6896
  152.5225  133.9442  159.7695 H   0  0  0  0  0  0  0  0  0  0  0  0  # atno 6909 bound_to 6896
  146.2056  140.3409  142.8408 H   0  0  0  0  0  0  0  0  0  0  0  0  # atno 7974 bound_to 7965
  156.1827  140.1679  156.8243 H   0  0  0  0  0  0  0  0  0  0  0  0  # atno 8008 bound_to 7997
  154.5379  140.0743  156.8491 H   0  0  0  0  0  0  0  0  0  0  0  0  # atno 8009 bound_to 7997
  155.3274  140.3377  155.4242 H   0  0  0  0  0  0  0  0  0  0  0  0  # atno 8010 bound_to 7997
  139.7594  144.6959  151.0314 H   0  0  0  0  0  0  0  0  0  0  0  0  # atno 10167 bound_to 10162
  156.3003  130.7425  151.1475 H   0  0  0  0  0  0  0  0  0  0  0  0  # atno 10718 bound_to 10713
  154.1735  135.2803  155.3074 H   0  0  0  0  0  0  0  0  0  0  0  0  # atno 10763 bound_to 10752
  154.6057  135.5515  153.7424 H   0  0  0  0  0  0  0  0  0  0  0  0  # atno 10764 bound_to 10752
  153.0158  135.6403  154.1874 H   0  0  0  0  0  0  0  0  0  0  0  0  # atno 10765 bound_to 10752
  140.7706  133.8441  155.9204 H   0  0  0  0  0  0  0  0  0  0  0  0  # atno 11005 bound_to 11000
  144.8786  140.7370  143.6001 LP  0  0  0  0  0  0  0  0  0  0  0  0  # atno 17320 bound_to 7965
  145.3329  139.1754  143.4527 LP  0  0  0  0  0  0  0  0  0  0  0  0  # atno 17321 bound_to 7965
  140.7806  143.4715  151.0140 LP  0  0  0  0  0  0  0  0  0  0  0  0  # atno 17342 bound_to 10162
  139.8401  143.7575  152.3180 LP  0  0  0  0  0  0  0  0  0  0  0  0  # atno 17343 bound_to 10162
  157.7366  131.0560  150.5404 LP  0  0  0  0  0  0  0  0  0  0  0  0  # atno 17370 bound_to 10713
  156.5530  130.4236  149.6098 LP  0  0  0  0  0  0  0  0  0  0  0  0  # atno 17371 bound_to 10713
  140.9577  134.1696  157.4679 LP  0  0  0  0  0  0  0  0  0  0  0  0  # atno 17394 bound_to 11000
  139.8756  134.9933  156.5638 LP  0  0  0  0  0  0  0  0  0  0  0  0  # atno 17395 bound_to 11000

$$$$
