AV-unprocessed.smi:2178|AV-procd|sdf|8855|dock9
  -GOLD-   2272012 53D 1   1.00000     0.00000
 Structure written by MMmdl.
 47 49  0  0  0  0  0  0  0  0  2 V2000
  151.9788  140.1202  158.7169 C   0  0  0  0  0  0  0  0  0  0  0  0
  152.1612  141.5188  159.2763 C   0  0  0  0  0  0  0  0  0  0  0  0
  152.9984  141.7151  160.3937 C   0  0  0  0  0  0  0  0  0  0  0  0
  153.1694  143.0030  160.9342 C   0  0  0  0  0  0  0  0  0  0  0  0
  152.4992  144.1006  160.3632 C   0  0  0  0  0  0  0  0  0  0  0  0
  151.6593  143.9164  159.2456 C   0  0  0  0  0  0  0  0  0  0  0  0
  150.9339  145.1081  158.6481 C   0  0  0  0  0  0  0  0  0  0  0  0
  151.5003  142.6246  158.6906 C   0  0  0  0  0  0  0  0  0  0  0  0
  150.6837  142.4445  157.6047 O   0  0  0  0  0  0  0  0  0  0  0  0
  149.2983  142.4995  157.9160 C   0  0  0  0  0  0  0  0  0  0  0  0
  148.5382  141.4330  157.1128 C   0  0  1  0  0  0  0  0  0  0  0  0
  147.2346  141.2929  157.6412 O   0  0  0  0  0  0  0  0  0  0  0  0
  148.5178  141.7061  155.5949 C   0  0  0  0  0  0  0  0  0  0  0  0
  148.8913  140.5264  154.7976 N   0  0  0  0  0  0  0  0  0  0  0  0
  148.1717  139.8230  153.8759 C   0  0  0  0  0  0  0  0  0  0  0  0
  146.7738  140.0953  153.4273 C   0  0  0  0  0  0  0  0  0  0  0  0
  146.3337  139.1724  152.4561 O   0  0  0  0  0  0  0  0  0  0  0  0
  148.9721  138.8188  153.4197 N   0  3  0  0  0  0  0  0  0  0  0  0
  150.2131  138.8771  154.0545 C   0  0  0  0  0  0  0  0  0  0  0  0
  151.3427  138.0755  153.9214 C   0  0  0  0  0  0  0  0  0  0  0  0
  152.4552  138.4115  154.7204 C   0  0  0  0  0  0  0  0  0  0  0  0
  152.4182  139.5081  155.6059 C   0  0  0  0  0  0  0  0  0  0  0  0
  151.2676  140.3140  155.7317 C   0  0  0  0  0  0  0  0  0  0  0  0
  150.1700  139.9730  154.9409 C   0  0  0  0  0  0  0  0  0  0  0  0
  152.2183  139.3647  159.4660 H   0  0  0  0  0  0  0  0  0  0  0  0
  152.6336  139.9682  157.8590 H   0  0  0  0  0  0  0  0  0  0  0  0
  150.9487  139.9581  158.3983 H   0  0  0  0  0  0  0  0  0  0  0  0
  153.5111  140.8768  160.8423 H   0  0  0  0  0  0  0  0  0  0  0  0
  153.8110  143.1479  161.7909 H   0  0  0  0  0  0  0  0  0  0  0  0
  152.6313  145.0848  160.7883 H   0  0  0  0  0  0  0  0  0  0  0  0
  149.9104  144.8441  158.3804 H   0  0  0  0  0  0  0  0  0  0  0  0
  151.4470  145.4523  157.7501 H   0  0  0  0  0  0  0  0  0  0  0  0
  150.8905  145.9374  159.3548 H   0  0  0  0  0  0  0  0  0  0  0  0
  149.1622  142.3046  158.9808 H   0  0  0  0  0  0  0  0  0  0  0  0
  148.8900  143.4927  157.7237 H   0  0  0  0  0  0  0  0  0  0  0  0
  149.0334  140.4772  157.2857 H   0  0  0  0  0  0  0  0  0  0  0  0
  146.6715  141.9218  157.2165 H   0  0  0  0  0  0  0  0  0  0  0  0
  147.5421  142.0630  155.2653 H   0  0  0  0  0  0  0  0  0  0  0  0
  149.2213  142.5032  155.3536 H   0  0  0  0  0  0  0  0  0  0  0  0
  146.1032  140.0532  154.2861 H   0  0  0  0  0  0  0  0  0  0  0  0
  146.7070  141.1042  153.0205 H   0  0  0  0  0  0  0  0  0  0  0  0
  145.4866  139.4481  152.1399 H   0  0  0  0  0  0  0  0  0  0  0  0
  151.3745  137.2365  153.2418 H   0  0  0  0  0  0  0  0  0  0  0  0
  153.3550  137.8176  154.6516 H   0  0  0  0  0  0  0  0  0  0  0  0
  153.2905  139.7376  156.2005 H   0  0  0  0  0  0  0  0  0  0  0  0
  151.2548  141.1552  156.4092 H   0  0  0  0  0  0  0  0  0  0  0  0
  148.6873  138.1455  152.7199 H   0  0  0  0  0  0  0  0  0  0  0  0
  1  2  1  0  0  0  0
  1 25  1  0  0  0  0
  1 26  1  0  0  0  0
  1 27  1  0  0  0  0
  2  8  1  0  0  0  0
  2  3  2  0  0  0  0
  3  4  1  0  0  0  0
  3 28  1  0  0  0  0
  4  5  2  0  0  0  0
  4 29  1  0  0  0  0
  5  6  1  0  0  0  0
  5 30  1  0  0  0  0
  6  7  1  0  0  0  0
  6  8  2  0  0  0  0
  7 31  1  0  0  0  0
  7 32  1  0  0  0  0
  7 33  1  0  0  0  0
  8  9  1  0  0  0  0
  9 10  1  0  0  0  0
 10 11  1  0  0  0  0
 10 34  1  0  0  0  0
 10 35  1  0  0  0  0
 11 12  1  0  0  0  0
 11 13  1  0  0  0  0
 11 36  1  0  0  0  0
 12 37  1  0  0  0  0
 13 14  1  0  0  0  0
 13 38  1  0  0  0  0
 13 39  1  0  0  0  0
 14 24  1  0  0  0  0
 14 15  1  0  0  0  0
 15 16  1  0  0  0  0
 15 18  2  0  0  0  0
 16 17  1  0  0  0  0
 16 40  1  0  0  0  0
 16 41  1  0  0  0  0
 17 42  1  0  0  0  0
 18 19  1  0  0  0  0
 18 47  1  0  0  0  0
 19 24  2  0  0  0  0
 19 20  1  0  0  0  0
 20 21  2  0  0  0  0
 20 43  1  0  0  0  0
 21 22  1  0  0  0  0
 21 44  1  0  0  0  0
 22 23  2  0  0  0  0
 22 45  1  0  0  0  0
 23 24  1  0  0  0  0
 23 46  1  0  0  0  0
M  CHG  1  18   1
M  END
> <s_m_source_file>
AV-unprocessed.smi

> <i_m_source_file_index>
2178

> <i_lp_mmshare_version>
43012

> <i_f3d_flags>
0

> <s_epik_input>
W0NIM11jMVtjSF1bY0hdW2NIXWMoW0NIM10pYzFPW0NIMl1bQ0BIXShbT0hdKVtDSDJdbihjKG4yKVtDSDJdW09IXSljKGMyMylbY0hdW2NIXVtjSF1bY0hdMw==

> <s_epik_cmdline>
J2VwaWtfcHl0aG9uJywgJy1waCcsICc3LjAnLCAnLXRuJywgJzgnLCAnLW1hJywgJzIwMCcsICctbWV0YWxfYmluZGluZycsICctaW1hZScsICc8aW5maWxlLm1hZT4nLCAnLW9tYWUnLCAnPG91dGZpbGUubWFlPic=

> <r_lp_tautomer_probability>
1

> <r_epik_Ionization_Penalty>
1.43125

> <r_epik_Ionization_Penalty_Charging>
1.43039

> <r_epik_Ionization_Penalty_Neutral>
0.000858184

> <r_epik_State_Penalty>
1.51493

> <r_epik_Charging_Adjusted_Penalty>
2.94531

> <i_epik_Tot_Q>
1

> <i_epik_Tot_abs_Q>
1

> <r_epik_Metal_State_Penalty>
5.5599

> <b_epik_Metal_Only>
0

> <s_lp_Force_Field>
OPLS_2005

> <r_lp_Energy>
23.7174

> <b_lp_Chiralities_Consistent>
1

> <s_lp_Variant>
AV-unprocessed.smi:2178-4

> <Gold.Version>
5.8.1

> <Gold.Id.Protein>
6NUR|6NUR_protein|mol2

> <Gold.PLP.Fitness>
56.9540

> <Gold.PLP.PLP>
-50.8724

> <Gold.PLP.part.hbond>
-3.0000

> <Gold.PLP.part.metal>
0.0000

> <Gold.PLP.part.buried>
-4.8859

> <Gold.PLP.part.nonpolar>
-43.9648

> <Gold.PLP.part.repulsive>
0.1606

> <Gold.PLP.ligand.clash>
0.0000

> <Gold.PLP.ligand.torsion>
1.1883

> <Gold.PLP.Chemscore.Hbond>
2.7640

> <Gold.PLP.Chemscore.CHOScore>
0.0000

> <Gold.PLP.Chemscore.Metal>
0.0000

> <Gold.Chemscore.Hbonds>
donor molecule, donor type, donor heavy atom, donor atom, acceptor molecule, acceptor atom, score
      L1  H    17    42       P1 10175  0.84
      L1  H    18    47       P1  7948  1.65

> <Gold.PLP.Chemscore.Internal.Correction>
0.1662

> <Gold.Rescore>
     Score         DG    S(hbond)    S(metal)    S(lipo)     H(rot)  DE(clash)    DE(int)     intcor
     17.74     -20.10       1.75        0.00     141.68       3.05       0.12       2.25       ----

> <Gold.Chemscore.Fitness>
17.7404

> <Gold.Chemscore.DG>
-20.1020

> <Gold.Chemscore.ZeroCoef>
-5.4800

> <Gold.Chemscore.Hbond>
1.7506

> <Gold.Chemscore.Metal>
0.0000

> <Gold.Chemscore.Lipo>
141.6824

> <Gold.Chemscore.Internal_Hbond>
0.0000

> <Gold.Chemscore.DEClash>
0.1165

> <Gold.Chemscore.DEInternal>
2.2451

> <Gold.Chemscore.Rot>
3.0476

> <Gold.Chemscore.Internal.Correction>
   9.000000E+99

> <Gold.Chemscore.Hbonds>
donor molecule, donor type, donor heavy atom, donor atom, acceptor molecule, acceptor atom, score
      L1  H    17    42       P1 10175  0.77
      L1  H    18    47       P1  7948  0.77

> <Gold.Chemscore.Hbond.Weighted>
-5.8470

> <Gold.Chemscore.Metal.Weighted>
-0.0000

> <Gold.Chemscore.Lipo.Weighted>
-16.5768

> <Gold.Chemscore.Internal_Hbond.Weighted>
0.0000

> <Gold.Chemscore.DEClash.Weighted>
0.1165

> <Gold.Chemscore.DEInternal.Weighted>
2.2451

> <Gold.Chemscore.Rot.Weighted>
7.8018

> <Gold.Chemscore.Internal.Correction.Weighted>
   9.000000E+99

> <Gold.Protein.RotatedTorsions>
[ 6907 6896 6895 6894 ] final  -82.71 input  -60.11 | X-H torsion
[ 7974 7965 7964 7962 ] final  114.56 input  175.53 | X-H torsion
[ 8008 7997 7996 7995 ] final  -35.46 input   59.86 | X-H torsion
[ 10167 10162 10161 10158 ] final   14.67 input  -65.29 | X-H torsion
[ 10718 10713 10712 10709 ] final   33.00 input   66.30 | X-H torsion
[ 10763 10752 10751 10750 ] final  -46.01 input  -60.55 | X-H torsion
[ 11005 11000 10999 10996 ] final -111.33 input  -57.11 | X-H torsion

> <Gold.Protein.ActiveResidues>
 VAL166  LYS551  ARG553  GLY616  TRP617  ASP618  TYR619  PRO620  LYS621  CYS622 
 ASP623  PHE694  ASN695  SER759  ASP760  ASP761  ALA762  ILE779  LEU786  VAL792 
 PHE793  MET794  SER795  GLU796  ALA797  LYS798  CYS799  TRP800  GLU811  SER814 

> <Gold.Protein.RotatedAtoms>
  150.6894  134.3623  159.4955 H   0  0  0  0  0  0  0  0  0  0  0  0  # atno 6907 bound_to 6896
  152.1450  134.9030  160.0561 H   0  0  0  0  0  0  0  0  0  0  0  0  # atno 6908 bound_to 6896
  152.0150  133.3841  159.4272 H   0  0  0  0  0  0  0  0  0  0  0  0  # atno 6909 bound_to 6896
  145.2029  139.2943  143.4308 H   0  0  0  0  0  0  0  0  0  0  0  0  # atno 7974 bound_to 7965
  154.4095  140.1656  156.2215 H   0  0  0  0  0  0  0  0  0  0  0  0  # atno 8008 bound_to 7997
  155.9359  140.3411  155.6264 H   0  0  0  0  0  0  0  0  0  0  0  0  # atno 8009 bound_to 7997
  155.7049  140.0749  157.2386 H   0  0  0  0  0  0  0  0  0  0  0  0  # atno 8010 bound_to 7997
  140.5919  143.8777  150.6882 H   0  0  0  0  0  0  0  0  0  0  0  0  # atno 10167 bound_to 10162
  157.2923  130.7309  149.6618 H   0  0  0  0  0  0  0  0  0  0  0  0  # atno 10718 bound_to 10713
  154.0380  135.6648  153.4787 H   0  0  0  0  0  0  0  0  0  0  0  0  # atno 10763 bound_to 10752
  153.0513  135.5083  154.7869 H   0  0  0  0  0  0  0  0  0  0  0  0  # atno 10764 bound_to 10752
  154.6836  135.3049  154.9544 H   0  0  0  0  0  0  0  0  0  0  0  0  # atno 10765 bound_to 10752
  141.0741  133.9331  157.2426 H   0  0  0  0  0  0  0  0  0  0  0  0  # atno 11005 bound_to 11000
  146.3414  140.2280  142.8592 LP  0  0  0  0  0  0  0  0  0  0  0  0  # atno 17320 bound_to 7965
  144.9930  140.8564  143.5328 LP  0  0  0  0  0  0  0  0  0  0  0  0  # atno 17321 bound_to 7965
  140.2302  143.3741  152.1571 LP  0  0  0  0  0  0  0  0  0  0  0  0  # atno 17342 bound_to 10162
  139.5233  144.7070  151.5324 LP  0  0  0  0  0  0  0  0  0  0  0  0  # atno 17343 bound_to 10162
  155.9667  130.4305  150.4879 LP  0  0  0  0  0  0  0  0  0  0  0  0  # atno 17370 bound_to 10713
  157.2844  131.0613  151.2176 LP  0  0  0  0  0  0  0  0  0  0  0  0  # atno 17371 bound_to 10713
  139.9553  135.0167  156.9110 LP  0  0  0  0  0  0  0  0  0  0  0  0  # atno 17394 bound_to 11000
  140.5612  134.0533  155.7399 LP  0  0  0  0  0  0  0  0  0  0  0  0  # atno 17395 bound_to 11000

$$$$
