AV-unprocessed.smi:1741|AV-procd|sdf|7019|dock7
  -GOLD-   22720 8233D 1   1.00000     0.00000
 Structure written by MMmdl.
 38 39  0  0  0  0  0  0  0  0  1 V2000
  153.9499  142.1031  161.5769 C   0  0  0  0  0  0  0  0  0  0  0  0
  153.0178  143.2821  161.8794 C   0  0  0  0  0  0  0  0  0  0  0  0
  152.2509  143.6703  160.7120 N   0  0  0  0  0  0  0  0  0  0  0  0
  151.8276  142.8754  159.6653 C   0  0  0  0  0  0  0  0  0  0  0  0
  151.1401  143.7003  158.8270 C   0  0  0  0  0  0  0  0  0  0  0  0
  150.5223  143.2932  157.6183 N   0  0  0  0  0  0  0  0  0  0  0  0
  150.3837  142.0393  157.1587 C   0  0  0  0  0  0  0  0  0  0  0  0
  150.7511  141.0248  157.7509 O   0  0  0  0  0  0  0  0  0  0  0  0
  149.7872  142.0273  155.9582 N   0  0  0  0  0  0  0  0  0  0  0  0
  149.4963  140.8371  155.1610 C   0  0  1  0  0  0  0  0  0  0  0  0
  148.3951  141.1636  154.1407 C   0  0  0  0  0  0  0  0  0  0  0  0
  150.7857  140.3341  154.4832 C   0  0  1  0  0  0  0  0  0  0  0  0
  151.9726  140.1518  155.4331 C   0  0  0  0  0  0  0  0  0  0  0  0
  152.7950  139.1148  154.7046 C   0  0  0  0  0  0  0  0  0  0  0  0
  151.7094  138.2072  154.1365 C   0  0  0  0  0  0  0  0  0  0  0  0
  150.5800  139.0455  153.9062 O   0  0  0  0  0  0  0  0  0  0  0  0
  151.1830  144.9899  159.4286 C   0  0  0  0  0  0  0  0  0  0  0  0
  151.8567  144.9596  160.5686 N   0  0  0  0  0  0  0  0  0  0  0  0
  154.5245  141.8263  162.4609 H   0  0  0  0  0  0  0  0  0  0  0  0
  154.6564  142.3530  160.7847 H   0  0  0  0  0  0  0  0  0  0  0  0
  153.3858  141.2257  161.2589 H   0  0  0  0  0  0  0  0  0  0  0  0
  152.3286  143.0247  162.6851 H   0  0  0  0  0  0  0  0  0  0  0  0
  153.5951  144.1425  162.2193 H   0  0  0  0  0  0  0  0  0  0  0  0
  152.0456  141.8188  159.6132 H   0  0  0  0  0  0  0  0  0  0  0  0
  150.1618  144.0346  157.0358 H   0  0  0  0  0  0  0  0  0  0  0  0
  149.5191  142.9133  155.5560 H   0  0  0  0  0  0  0  0  0  0  0  0
  149.1312  140.0386  155.8096 H   0  0  0  0  0  0  0  0  0  0  0  0
  148.1387  140.2874  153.5446 H   0  0  0  0  0  0  0  0  0  0  0  0
  148.7089  141.9516  153.4554 H   0  0  0  0  0  0  0  0  0  0  0  0
  147.4844  141.4974  154.6390 H   0  0  0  0  0  0  0  0  0  0  0  0
  151.0788  141.0117  153.6793 H   0  0  0  0  0  0  0  0  0  0  0  0
  152.5185  141.0775  155.6167 H   0  0  0  0  0  0  0  0  0  0  0  0
  151.6401  139.7550  156.3938 H   0  0  0  0  0  0  0  0  0  0  0  0
  153.3573  139.5830  153.8957 H   0  0  0  0  0  0  0  0  0  0  0  0
  153.4969  138.5883  155.3517 H   0  0  0  0  0  0  0  0  0  0  0  0
  152.0253  137.7023  153.2233 H   0  0  0  0  0  0  0  0  0  0  0  0
  151.4308  137.4452  154.8654 H   0  0  0  0  0  0  0  0  0  0  0  0
  150.7613  145.9267  159.0961 H   0  0  0  0  0  0  0  0  0  0  0  0
  1  2  1  0  0  0  0
  1 19  1  0  0  0  0
  1 20  1  0  0  0  0
  1 21  1  0  0  0  0
  2  3  1  0  0  0  0
  2 22  1  0  0  0  0
  2 23  1  0  0  0  0
  3 18  1  0  0  0  0
  3  4  1  0  0  0  0
  4  5  2  0  0  0  0
  4 24  1  0  0  0  0
  5  6  1  0  0  0  0
  5 17  1  0  0  0  0
  6  7  1  0  0  0  0
  6 25  1  0  0  0  0
  7  8  2  0  0  0  0
  7  9  1  0  0  0  0
  9 10  1  0  0  0  0
  9 26  1  0  0  0  0
 10 11  1  0  0  0  0
 10 12  1  0  0  0  0
 10 27  1  0  0  0  0
 11 28  1  0  0  0  0
 11 29  1  0  0  0  0
 11 30  1  0  0  0  0
 12 16  1  0  0  0  0
 12 13  1  0  0  0  0
 12 31  1  0  0  0  0
 13 14  1  0  0  0  0
 13 32  1  0  0  0  0
 13 33  1  0  0  0  0
 14 15  1  0  0  0  0
 14 34  1  0  0  0  0
 14 35  1  0  0  0  0
 15 16  1  0  0  0  0
 15 36  1  0  0  0  0
 15 37  1  0  0  0  0
 17 18  2  0  0  0  0
 17 38  1  0  0  0  0
M  END
> <s_m_source_file>
AV-unprocessed.smi

> <i_m_source_file_index>
1741

> <i_lp_mmshare_version>
43012

> <i_f3d_flags>
0

> <s_epik_input>
W0NIM11bQ0gyXW4xW2NIXWMoW2NIXW4xKVtOSF1DKD1PKVtOSF1bQ0BIXShbQ0gzXSlbQ0BASF0yW0NIMl1bQ0gyXVtDSDJdTzI=

> <s_epik_cmdline>
J2VwaWtfcHl0aG9uJywgJy1waCcsICc3LjAnLCAnLXRuJywgJzgnLCAnLW1hJywgJzIwMCcsICctbWV0YWxfYmluZGluZycsICctaW1hZScsICc8aW5maWxlLm1hZT4nLCAnLW9tYWUnLCAnPG91dGZpbGUubWFlPic=

> <r_lp_tautomer_probability>
1

> <r_epik_Ionization_Penalty>
0.000179292

> <r_epik_Ionization_Penalty_Charging>
0

> <r_epik_Ionization_Penalty_Neutral>
0.000179292

> <r_epik_State_Penalty>
-0

> <r_epik_Charging_Adjusted_Penalty>
0

> <i_epik_Tot_Q>
0

> <i_epik_Tot_abs_Q>
0

> <r_epik_Metal_State_Penalty>
-0

> <b_epik_Metal_Only>
0

> <s_lp_Force_Field>
OPLS_2005

> <r_lp_Energy>
21.0752

> <b_lp_Chiralities_Consistent>
1

> <s_lp_Variant>
AV-unprocessed.smi:1741-4

> <Gold.Version>
5.8.1

> <Gold.Id.Protein>
6NUR|6NUR_protein|mol2

> <Gold.PLP.Fitness>
46.6643

> <Gold.PLP.PLP>
-42.5112

> <Gold.PLP.part.hbond>
-2.0000

> <Gold.PLP.part.metal>
0.0000

> <Gold.PLP.part.buried>
-3.5718

> <Gold.PLP.part.nonpolar>
-37.7880

> <Gold.PLP.part.repulsive>
0.5213

> <Gold.PLP.ligand.clash>
0.0000

> <Gold.PLP.ligand.torsion>
0.7263

> <Gold.PLP.Chemscore.Hbond>
1.8639

> <Gold.PLP.Chemscore.CHOScore>
0.0000

> <Gold.PLP.Chemscore.Metal>
0.0000

> <Gold.Chemscore.Hbonds>
donor molecule, donor type, donor heavy atom, donor atom, acceptor molecule, acceptor atom, score
      L1  H     6    25       P1  8028  1.00
      L1  H     9    26       P1  8028  1.00

> <Gold.PLP.Chemscore.Internal.Correction>
0.0140

> <Gold.Rescore>
     Score         DG    S(hbond)    S(metal)    S(lipo)     H(rot)  DE(clash)    DE(int)     intcor
     15.73     -19.37       1.88        0.00      95.32       1.38       0.38       3.26       ----

> <Gold.Chemscore.Fitness>
15.7290

> <Gold.Chemscore.DG>
-19.3712

> <Gold.Chemscore.ZeroCoef>
-5.4800

> <Gold.Chemscore.Hbond>
1.8771

> <Gold.Chemscore.Metal>
0.0000

> <Gold.Chemscore.Lipo>
95.3155

> <Gold.Chemscore.Internal_Hbond>
0.0000

> <Gold.Chemscore.DEClash>
0.3831

> <Gold.Chemscore.DEInternal>
3.2591

> <Gold.Chemscore.Rot>
1.3790

> <Gold.Chemscore.Internal.Correction>
   9.000000E+99

> <Gold.Chemscore.Hbonds>
donor molecule, donor type, donor heavy atom, donor atom, acceptor molecule, acceptor atom, score
      L1  H     6    25       P1  8028  0.89
      L1  H     9    26       P1  8028  0.97

> <Gold.Chemscore.Hbond.Weighted>
-6.2694

> <Gold.Chemscore.Metal.Weighted>
-0.0000

> <Gold.Chemscore.Lipo.Weighted>
-11.1519

> <Gold.Chemscore.Internal_Hbond.Weighted>
0.0000

> <Gold.Chemscore.DEClash.Weighted>
0.3831

> <Gold.Chemscore.DEInternal.Weighted>
3.2591

> <Gold.Chemscore.Rot.Weighted>
3.5302

> <Gold.Chemscore.Internal.Correction.Weighted>
   9.000000E+99

> <Gold.Protein.RotatedTorsions>
[ 6907 6896 6895 6894 ] final   81.24 input  -60.11 | X-H torsion
[ 7974 7965 7964 7962 ] final -116.42 input  175.53 | X-H torsion
[ 8008 7997 7996 7995 ] final  134.15 input   59.86 | X-H torsion
[ 10167 10162 10161 10158 ] final -103.48 input  -65.29 | X-H torsion
[ 10718 10713 10712 10709 ] final  -80.93 input   66.30 | X-H torsion
[ 10763 10752 10751 10750 ] final  -95.94 input  -60.55 | X-H torsion
[ 11005 11000 10999 10996 ] final  -92.55 input  -57.11 | X-H torsion

> <Gold.Protein.ActiveResidues>
 VAL166  LYS551  ARG553  GLY616  TRP617  ASP618  TYR619  PRO620  LYS621  CYS622 
 ASP623  PHE694  ASN695  SER759  ASP760  ASP761  ALA762  ILE779  LEU786  VAL792 
 PHE793  MET794  SER795  GLU796  ALA797  LYS798  CYS799  TRP800  GLU811  SER814 

> <Gold.Protein.RotatedAtoms>
  152.5262  134.3233  159.9156 H   0  0  0  0  0  0  0  0  0  0  0  0  # atno 6907 bound_to 6896
  151.3183  133.4044  159.2660 H   0  0  0  0  0  0  0  0  0  0  0  0  # atno 6908 bound_to 6896
  150.9981  134.9316  159.7995 H   0  0  0  0  0  0  0  0  0  0  0  0  # atno 6909 bound_to 6896
  145.0970  140.8527  143.3949 H   0  0  0  0  0  0  0  0  0  0  0  0  # atno 7974 bound_to 7965
  156.2997  140.2503  156.3370 H   0  0  0  0  0  0  0  0  0  0  0  0  # atno 8008 bound_to 7997
  154.9091  140.0404  157.1955 H   0  0  0  0  0  0  0  0  0  0  0  0  # atno 8009 bound_to 7997
  154.8423  140.2893  155.5655 H   0  0  0  0  0  0  0  0  0  0  0  0  # atno 8010 bound_to 7997
  140.2195  143.3686  152.0982 H   0  0  0  0  0  0  0  0  0  0  0  0  # atno 10167 bound_to 10162
  156.0060  130.4589  150.3876 H   0  0  0  0  0  0  0  0  0  0  0  0  # atno 10718 bound_to 10713
  154.7195  135.5102  153.8789 H   0  0  0  0  0  0  0  0  0  0  0  0  # atno 10763 bound_to 10752
  153.0849  135.6642  153.9977 H   0  0  0  0  0  0  0  0  0  0  0  0  # atno 10764 bound_to 10752
  153.9803  135.3029  155.3400 H   0  0  0  0  0  0  0  0  0  0  0  0  # atno 10765 bound_to 10752
  141.1519  133.7828  157.0035 H   0  0  0  0  0  0  0  0  0  0  0  0  # atno 11005 bound_to 11000
  145.1000  139.2829  143.5691 LP  0  0  0  0  0  0  0  0  0  0  0  0  # atno 17320 bound_to 7965
  146.3530  140.0564  142.8632 LP  0  0  0  0  0  0  0  0  0  0  0  0  # atno 17321 bound_to 7965
  139.5149  144.6955  151.5641 LP  0  0  0  0  0  0  0  0  0  0  0  0  # atno 17342 bound_to 10162
  140.6265  143.9158  150.6569 LP  0  0  0  0  0  0  0  0  0  0  0  0  # atno 17343 bound_to 10162
  157.1952  131.0425  151.2679 LP  0  0  0  0  0  0  0  0  0  0  0  0  # atno 17370 bound_to 10713
  157.4025  130.7341  149.6778 LP  0  0  0  0  0  0  0  0  0  0  0  0  # atno 17371 bound_to 10713
  140.0924  134.9584  157.1797 LP  0  0  0  0  0  0  0  0  0  0  0  0  # atno 17394 bound_to 11000
  140.3428  134.2685  155.7209 LP  0  0  0  0  0  0  0  0  0  0  0  0  # atno 17395 bound_to 11000

$$$$
