AV-unprocessed.smi:2727|AV-procd|sdf|10522|dock8
  -GOLD-   2272014563D 1   1.00000     0.00000
 Structure written by MMmdl.
 40 41  0  0  0  0  0  0  0  0  1 V2000
  149.8895  133.5660  155.7840 O   0  0  0  0  0  0  0  0  0  0  0  0
  149.6255  133.9712  154.6472 C   0  0  0  0  0  0  0  0  0  0  0  0
  149.6057  135.2815  154.3590 N   0  0  0  0  0  0  0  0  0  0  0  0
  149.8899  136.3578  155.3026 C   0  0  0  0  0  0  0  0  0  0  0  0
  150.6607  137.5125  154.6307 C   0  0  0  0  0  0  0  0  0  0  0  0
  150.0252  138.8958  154.8602 C   0  0  0  0  0  0  0  0  0  0  0  0
  148.8372  139.0632  154.5777 O   0  0  0  0  0  0  0  0  0  0  0  0
  150.7910  139.8981  155.3578 N   0  0  0  0  0  0  0  0  0  0  0  0
  152.1854  139.6710  155.7567 C   0  0  0  0  0  0  0  0  0  0  0  0
  152.2923  139.0763  157.1759 C   0  0  0  0  0  0  0  0  0  0  0  0
  151.2375  139.5635  158.1938 C   0  0  0  0  0  0  0  0  0  0  0  0
  150.9117  141.0692  158.1373 C   0  0  0  0  0  0  0  0  0  0  0  0
  149.8532  141.4360  157.0750 C   0  0  0  0  0  0  0  0  0  0  0  0
  150.3227  141.2670  155.6178 C   0  0  0  0  0  0  0  0  0  0  0  0
  149.3256  133.2304  153.5131 N   0  0  0  0  0  0  0  0  0  0  0  0
  148.1149  132.8030  153.3264 C   0  0  0  0  0  0  0  0  0  0  0  0
  147.6368  132.0551  152.2621 N   0  0  0  0  0  0  0  0  0  0  0  0
  146.3061  131.8188  152.4714 C   0  0  0  0  0  0  0  0  0  0  0  0
  145.9588  132.3952  153.6183 C   0  0  0  0  0  0  0  0  0  0  0  0
  147.0449  133.0071  154.1673 O   0  0  0  0  0  0  0  0  0  0  0  0
  149.3852  135.5523  153.4114 H   0  0  0  0  0  0  0  0  0  0  0  0
  148.9574  136.7156  155.7432 H   0  0  0  0  0  0  0  0  0  0  0  0
  150.4787  135.9396  156.1196 H   0  0  0  0  0  0  0  0  0  0  0  0
  151.6860  137.5292  155.0017 H   0  0  0  0  0  0  0  0  0  0  0  0
  150.7112  137.3259  153.5584 H   0  0  0  0  0  0  0  0  0  0  0  0
  152.6963  139.0247  155.0411 H   0  0  0  0  0  0  0  0  0  0  0  0
  152.7448  140.6065  155.7270 H   0  0  0  0  0  0  0  0  0  0  0  0
  152.2266  137.9896  157.1138 H   0  0  0  0  0  0  0  0  0  0  0  0
  153.2902  139.2869  157.5616 H   0  0  0  0  0  0  0  0  0  0  0  0
  150.3163  138.9924  158.0694 H   0  0  0  0  0  0  0  0  0  0  0  0
  151.5965  139.3155  159.1931 H   0  0  0  0  0  0  0  0  0  0  0  0
  150.5169  141.3648  159.1100 H   0  0  0  0  0  0  0  0  0  0  0  0
  151.8216  141.6536  157.9963 H   0  0  0  0  0  0  0  0  0  0  0  0
  148.9517  140.8473  157.2458 H   0  0  0  0  0  0  0  0  0  0  0  0
  149.5574  142.4753  157.2213 H   0  0  0  0  0  0  0  0  0  0  0  0
  151.1174  141.9843  155.4095 H   0  0  0  0  0  0  0  0  0  0  0  0
  149.5226  141.5534  154.9359 H   0  0  0  0  0  0  0  0  0  0  0  0
  148.1441  131.7156  151.4576 H   0  0  0  0  0  0  0  0  0  0  0  0
  145.7336  131.2462  151.7570 H   0  0  0  0  0  0  0  0  0  0  0  0
  145.0240  132.4564  154.1555 H   0  0  0  0  0  0  0  0  0  0  0  0
  1  2  2  0  0  0  0
  2 15  1  0  0  0  0
  2  3  1  0  0  0  0
  3  4  1  0  0  0  0
  3 21  1  0  0  0  0
  4  5  1  0  0  0  0
  4 22  1  0  0  0  0
  4 23  1  0  0  0  0
  5  6  1  0  0  0  0
  5 24  1  0  0  0  0
  5 25  1  0  0  0  0
  6  7  2  0  0  0  0
  6  8  1  0  0  0  0
  8 14  1  0  0  0  0
  8  9  1  0  0  0  0
  9 10  1  0  0  0  0
  9 26  1  0  0  0  0
  9 27  1  0  0  0  0
 10 11  1  0  0  0  0
 10 28  1  0  0  0  0
 10 29  1  0  0  0  0
 11 12  1  0  0  0  0
 11 30  1  0  0  0  0
 11 31  1  0  0  0  0
 12 13  1  0  0  0  0
 12 32  1  0  0  0  0
 12 33  1  0  0  0  0
 13 14  1  0  0  0  0
 13 34  1  0  0  0  0
 13 35  1  0  0  0  0
 14 36  1  0  0  0  0
 14 37  1  0  0  0  0
 15 16  2  0  0  0  0
 16 20  1  0  0  0  0
 16 17  1  0  0  0  0
 17 38  1  0  0  0  0
 17 18  1  0  0  0  0
 18 39  1  0  0  0  0
 18 19  2  0  0  0  0
 19 40  1  0  0  0  0
 19 20  1  0  0  0  0
M  END
> <s_m_source_file>
AV-unprocessed.smi

> <i_m_source_file_index>
2727

> <i_lp_mmshare_version>
43012

> <i_f3d_flags>
0

> <s_epik_input>
bzFbY0hdW2NIXW5jMVtOSF1DKD1PKVtOSF1bQ0gyXVtDSDJdQyg9TylOMltDSDJdW0NIMl1bQ0gyXVtDSDJdW0NIMl1bQ0gyXTI=

> <s_epik_cmdline>
J2VwaWtfcHl0aG9uJywgJy1waCcsICc3LjAnLCAnLXRuJywgJzgnLCAnLW1hJywgJzIwMCcsICctbWV0YWxfYmluZGluZycsICctaW1hZScsICc8aW5maWxlLm1hZT4nLCAnLW9tYWUnLCAnPG91dGZpbGUubWFlPic=

> <r_lp_tautomer_probability>
0.107061

> <r_epik_Ionization_Penalty>
0.376272

> <r_epik_Ionization_Penalty_Charging>
0.375918

> <r_epik_Ionization_Penalty_Neutral>
0.000353756

> <r_epik_State_Penalty>
2.48665

> <r_epik_Charging_Adjusted_Penalty>
2.86256

> <i_epik_Tot_Q>
0

> <i_epik_Tot_abs_Q>
0

> <r_epik_Metal_State_Penalty>
4.1171

> <b_epik_Metal_Only>
0

> <s_lp_Force_Field>
OPLS_2005

> <r_lp_Energy>
48.3689

> <b_lp_Chiralities_Consistent>
1

> <s_lp_Variant>
AV-unprocessed.smi:2727-2

> <Gold.Version>
5.8.1

> <Gold.Id.Protein>
6NUR|6NUR_protein|mol2

> <Gold.PLP.Fitness>
37.8276

> <Gold.PLP.PLP>
-31.4146

> <Gold.PLP.part.hbond>
-2.0923

> <Gold.PLP.part.metal>
0.0000

> <Gold.PLP.part.buried>
-4.1019

> <Gold.PLP.part.nonpolar>
-25.7208

> <Gold.PLP.part.repulsive>
0.4339

> <Gold.PLP.ligand.clash>
0.0000

> <Gold.PLP.ligand.torsion>
1.3027

> <Gold.PLP.Chemscore.Hbond>
2.0000

> <Gold.PLP.Chemscore.CHOScore>
1.0000

> <Gold.PLP.Chemscore.Metal>
0.0000

> <Gold.Chemscore.Hbonds>
donor molecule, donor type, donor heavy atom, donor atom, acceptor molecule, acceptor atom, score
      L1  H     3    21       P1  7948  0.95
      L1  H    17    38       P1 10747  1.00
      L1  C    19    40       P1 10957  1.00

> <Gold.PLP.Chemscore.Internal.Correction>
0.0186

> <Gold.Rescore>
     Score         DG    S(hbond)    S(metal)    S(lipo)     H(rot)  DE(clash)    DE(int)     intcor
     12.04     -13.32       1.78        0.00      53.52       1.70       0.06       1.22       ----

> <Gold.Chemscore.Fitness>
12.0441

> <Gold.Chemscore.DG>
-13.3248

> <Gold.Chemscore.ZeroCoef>
-5.4800

> <Gold.Chemscore.Hbond>
1.7789

> <Gold.Chemscore.Metal>
0.0000

> <Gold.Chemscore.Lipo>
53.5173

> <Gold.Chemscore.Internal_Hbond>
0.0000

> <Gold.Chemscore.DEClash>
0.0568

> <Gold.Chemscore.DEInternal>
1.2239

> <Gold.Chemscore.Rot>
1.7025

> <Gold.Chemscore.Internal.Correction>
   9.000000E+99

> <Gold.Chemscore.Hbonds>
donor molecule, donor type, donor heavy atom, donor atom, acceptor molecule, acceptor atom, score
      L1  H     3    21       P1  7948  0.22
      L1  H    17    38       P1 10747  1.00

> <Gold.Chemscore.Hbond.Weighted>
-5.9416

> <Gold.Chemscore.Metal.Weighted>
-0.0000

> <Gold.Chemscore.Lipo.Weighted>
-6.2615

> <Gold.Chemscore.Internal_Hbond.Weighted>
0.0000

> <Gold.Chemscore.DEClash.Weighted>
0.0568

> <Gold.Chemscore.DEInternal.Weighted>
1.2239

> <Gold.Chemscore.Rot.Weighted>
4.3584

> <Gold.Chemscore.Internal.Correction.Weighted>
   9.000000E+99

> <Gold.Protein.RotatedTorsions>
[ 6907 6896 6895 6894 ] final -106.58 input  -60.11 | X-H torsion
[ 7974 7965 7964 7962 ] final  127.45 input  175.53 | X-H torsion
[ 8008 7997 7996 7995 ] final  -78.89 input   59.86 | X-H torsion
[ 10167 10162 10161 10158 ] final    8.52 input  -65.29 | X-H torsion
[ 10718 10713 10712 10709 ] final   84.26 input   66.30 | X-H torsion
[ 10763 10752 10751 10750 ] final   11.44 input  -60.55 | X-H torsion
[ 11005 11000 10999 10996 ] final -129.31 input  -57.11 | X-H torsion

> <Gold.Protein.ActiveResidues>
 VAL166  LYS551  ARG553  GLY616  TRP617  ASP618  TYR619  PRO620  LYS621  CYS622 
 ASP623  PHE694  ASN695  SER759  ASP760  ASP761  ALA762  ILE779  LEU786  VAL792 
 PHE793  MET794  SER795  GLU796  ALA797  LYS798  CYS799  TRP800  GLU811  SER814 

> <Gold.Protein.RotatedAtoms>
  150.7397  133.9955  159.3620 H   0  0  0  0  0  0  0  0  0  0  0  0  # atno 6907 bound_to 6896
  151.7905  135.0735  160.0396 H   0  0  0  0  0  0  0  0  0  0  0  0  # atno 6908 bound_to 6896
  152.3211  133.5818  159.5781 H   0  0  0  0  0  0  0  0  0  0  0  0  # atno 6909 bound_to 6896
  145.0505  139.3887  143.5056 H   0  0  0  0  0  0  0  0  0  0  0  0  # atno 7974 bound_to 7965
  154.5733  140.0687  156.8996 H   0  0  0  0  0  0  0  0  0  0  0  0  # atno 8008 bound_to 7997
  155.2595  140.3357  155.4256 H   0  0  0  0  0  0  0  0  0  0  0  0  # atno 8009 bound_to 7997
  156.2134  140.1768  156.7628 H   0  0  0  0  0  0  0  0  0  0  0  0  # atno 8010 bound_to 7997
  140.6309  143.7995  150.7295 H   0  0  0  0  0  0  0  0  0  0  0  0  # atno 10167 bound_to 10162
  157.6895  131.0126  150.2646 H   0  0  0  0  0  0  0  0  0  0  0  0  # atno 10718 bound_to 10713
  153.1926  135.6844  153.8333 H   0  0  0  0  0  0  0  0  0  0  0  0  # atno 10763 bound_to 10752
  153.7627  135.3207  155.3341 H   0  0  0  0  0  0  0  0  0  0  0  0  # atno 10764 bound_to 10752
  154.8126  135.4707  154.0655 H   0  0  0  0  0  0  0  0  0  0  0  0  # atno 10765 bound_to 10752
  140.9442  134.1152  157.4122 H   0  0  0  0  0  0  0  0  0  0  0  0  # atno 11005 bound_to 11000
  146.3517  140.0152  142.8663 LP  0  0  0  0  0  0  0  0  0  0  0  0  # atno 17320 bound_to 7965
  145.1533  140.9635  143.4420 LP  0  0  0  0  0  0  0  0  0  0  0  0  # atno 17321 bound_to 7965
  140.1606  143.4279  152.2069 LP  0  0  0  0  0  0  0  0  0  0  0  0  # atno 17342 bound_to 10162
  139.5524  144.7347  151.4396 LP  0  0  0  0  0  0  0  0  0  0  0  0  # atno 17343 bound_to 10162
  156.3219  130.3787  149.7567 LP  0  0  0  0  0  0  0  0  0  0  0  0  # atno 17370 bound_to 10713
  156.5134  130.8182  151.3177 LP  0  0  0  0  0  0  0  0  0  0  0  0  # atno 17371 bound_to 10713
  139.8829  135.0046  156.6260 LP  0  0  0  0  0  0  0  0  0  0  0  0  # atno 17394 bound_to 11000
  140.7692  133.8753  155.8478 LP  0  0  0  0  0  0  0  0  0  0  0  0  # atno 17395 bound_to 11000

$$$$
