AV-unprocessed.smi:1605|AV-procd|sdf|6457|dock6
  -GOLD-   22720 7113D 1   1.00000     0.00000
 Structure written by MMmdl.
 52 54  0  0  0  0  0  0  0  0  3 V2000
  145.8573  133.2612  156.2350 C   0  0  0  0  0  0  0  0  0  0  0  0
  147.1574  133.2044  155.6684 O   0  0  0  0  0  0  0  0  0  0  0  0
  147.2359  133.6714  154.3263 C   0  0  2  0  0  0  0  0  0  0  0  0
  148.6720  133.4443  153.8300 C   0  0  0  0  0  0  0  0  0  0  0  0
  149.6777  134.3474  154.5661 C   0  0  0  0  0  0  0  0  0  0  0  0
  149.3058  135.7806  154.4462 N   0  3  2  0  0  0  0  0  0  0  0  0
  150.3298  136.6806  155.0373 C   0  0  0  0  0  0  0  0  0  0  0  0
  149.8942  138.1594  155.0271 C   0  0  2  0  0  0  0  0  0  0  0  0
  149.2982  138.4448  153.7766 O   0  0  0  0  0  0  0  0  0  0  0  0
  151.0865  139.1084  155.2581 C   0  0  0  0  0  0  0  0  0  0  0  0
  150.6730  140.4392  155.7285 N   0  0  0  0  0  0  0  0  0  0  0  0
  149.8531  141.3508  155.1375 C   0  0  0  0  0  0  0  0  0  0  0  0
  149.7767  142.4313  155.9625 N   0  3  0  0  0  0  0  0  0  0  0  0
  150.5563  142.2066  157.0990 C   0  0  0  0  0  0  0  0  0  0  0  0
  150.7945  143.0058  158.2108 C   0  0  0  0  0  0  0  0  0  0  0  0
  151.6454  142.4833  159.2105 C   0  0  0  0  0  0  0  0  0  0  0  0
  151.9276  143.3320  160.4388 C   0  0  0  0  0  0  0  0  0  0  0  0
  152.2255  141.1955  159.0751 C   0  0  0  0  0  0  0  0  0  0  0  0
  153.1330  140.6402  160.1597 C   0  0  0  0  0  0  0  0  0  0  0  0
  151.9745  140.4000  157.9342 C   0  0  0  0  0  0  0  0  0  0  0  0
  151.1326  140.9288  156.9580 C   0  0  0  0  0  0  0  0  0  0  0  0
  147.9335  136.0344  154.9610 C   0  0  0  0  0  0  0  0  0  0  0  0
  146.8948  135.1704  154.2259 C   0  0  0  0  0  0  0  0  0  0  0  0
  145.8846  132.8485  157.2434 H   0  0  0  0  0  0  0  0  0  0  0  0
  145.1471  132.6718  155.6541 H   0  0  0  0  0  0  0  0  0  0  0  0
  145.4885  134.2838  156.3070 H   0  0  0  0  0  0  0  0  0  0  0  0
  146.5582  133.0912  153.6978 H   0  0  0  0  0  0  0  0  0  0  0  0
  148.9489  132.3971  153.9553 H   0  0  0  0  0  0  0  0  0  0  0  0
  148.7218  133.6474  152.7594 H   0  0  0  0  0  0  0  0  0  0  0  0
  149.7345  134.0720  155.6204 H   0  0  0  0  0  0  0  0  0  0  0  0
  150.6707  134.1885  154.1438 H   0  0  0  0  0  0  0  0  0  0  0  0
  150.5523  136.3516  156.0537 H   0  0  0  0  0  0  0  0  0  0  0  0
  151.2655  136.5947  154.4819 H   0  0  0  0  0  0  0  0  0  0  0  0
  149.1536  138.3443  155.8048 H   0  0  0  0  0  0  0  0  0  0  0  0
  149.3307  137.6648  153.2432 H   0  0  0  0  0  0  0  0  0  0  0  0
  151.7467  138.6928  156.0205 H   0  0  0  0  0  0  0  0  0  0  0  0
  151.6925  139.2134  154.3579 H   0  0  0  0  0  0  0  0  0  0  0  0
  149.3527  141.2386  154.1864 H   0  0  0  0  0  0  0  0  0  0  0  0
  150.3483  143.9849  158.3080 H   0  0  0  0  0  0  0  0  0  0  0  0
  151.5618  142.8368  161.3384 H   0  0  0  0  0  0  0  0  0  0  0  0
  151.4406  144.3051  160.3719 H   0  0  0  0  0  0  0  0  0  0  0  0
  152.9983  143.5043  160.5495 H   0  0  0  0  0  0  0  0  0  0  0  0
  153.4755  139.6338  159.9173 H   0  0  0  0  0  0  0  0  0  0  0  0
  152.6049  140.5901  161.1123 H   0  0  0  0  0  0  0  0  0  0  0  0
  154.0137  141.2708  160.2834 H   0  0  0  0  0  0  0  0  0  0  0  0
  152.4230  139.4229  157.8325 H   0  0  0  0  0  0  0  0  0  0  0  0
  147.9007  135.8279  156.0320 H   0  0  0  0  0  0  0  0  0  0  0  0
  147.6694  137.0839  154.8367 H   0  0  0  0  0  0  0  0  0  0  0  0
  146.8675  135.4621  153.1752 H   0  0  0  0  0  0  0  0  0  0  0  0
  145.8974  135.3718  154.6151 H   0  0  0  0  0  0  0  0  0  0  0  0
  149.2938  135.9832  153.4563 H   0  0  0  0  0  0  0  0  0  0  0  0
  149.2298  143.2595  155.7634 H   0  0  0  0  0  0  0  0  0  0  0  0
  1  2  1  0  0  0  0
  1 24  1  0  0  0  0
  1 25  1  0  0  0  0
  1 26  1  0  0  0  0
  2  3  1  0  0  0  0
  3 23  1  0  0  0  0
  3  4  1  0  0  0  0
  3 27  1  0  0  0  0
  4  5  1  0  0  0  0
  4 28  1  0  0  0  0
  4 29  1  0  0  0  0
  5  6  1  0  0  0  0
  5 30  1  0  0  0  0
  5 31  1  0  0  0  0
  6  7  1  0  0  0  0
  6 22  1  0  0  0  0
  6 51  1  0  0  0  0
  7  8  1  0  0  0  0
  7 32  1  0  0  0  0
  7 33  1  0  0  0  0
  8  9  1  0  0  0  0
  8 10  1  0  0  0  0
  8 34  1  0  0  0  0
  9 35  1  0  0  0  0
 10 11  1  0  0  0  0
 10 36  1  0  0  0  0
 10 37  1  0  0  0  0
 11 21  1  0  0  0  0
 11 12  1  0  0  0  0
 12 13  2  0  0  0  0
 12 38  1  0  0  0  0
 13 14  1  0  0  0  0
 13 52  1  0  0  0  0
 14 21  2  0  0  0  0
 14 15  1  0  0  0  0
 15 16  2  0  0  0  0
 15 39  1  0  0  0  0
 16 17  1  0  0  0  0
 16 18  1  0  0  0  0
 17 40  1  0  0  0  0
 17 41  1  0  0  0  0
 17 42  1  0  0  0  0
 18 19  1  0  0  0  0
 18 20  2  0  0  0  0
 19 43  1  0  0  0  0
 19 44  1  0  0  0  0
 19 45  1  0  0  0  0
 20 21  1  0  0  0  0
 20 46  1  0  0  0  0
 22 23  1  0  0  0  0
 22 47  1  0  0  0  0
 22 48  1  0  0  0  0
 23 49  1  0  0  0  0
 23 50  1  0  0  0  0
M  CHG  1   6   1
M  CHG  1  13   1
M  END
> <s_m_source_file>
AV-unprocessed.smi

> <i_m_source_file_index>
1605

> <i_lp_mmshare_version>
43012

> <i_f3d_flags>
0

> <s_epik_input>
W0NIM11PW0NIXTFbQ0gyXVtDSDJdTihbQ0gyXVtDSDJdMSlbQ0gyXVtDQEhdKFtPSF0pW0NIMl1uKFtjSF1uMiljKGMyMylbY0hdYyhbQ0gzXSljKFtjSF0zKVtDSDNd

> <s_epik_cmdline>
J2VwaWtfcHl0aG9uJywgJy1waCcsICc3LjAnLCAnLXRuJywgJzgnLCAnLW1hJywgJzIwMCcsICctbWV0YWxfYmluZGluZycsICctaW1hZScsICc8aW5maWxlLm1hZT4nLCAnLW9tYWUnLCAnPG91dGZpbGUubWFlPic=

> <r_epik_Ionization_Penalty>
1.19848

> <r_epik_Ionization_Penalty_Charging>
1.19848

> <r_epik_Ionization_Penalty_Neutral>
1.67134e-06

> <r_epik_State_Penalty>
1.2782

> <r_epik_Charging_Adjusted_Penalty>
2.47668

> <i_epik_Tot_Q>
2

> <i_epik_Tot_abs_Q>
2

> <r_epik_Metal_State_Penalty>
5.29544

> <b_epik_Metal_Only>
0

> <s_lp_Force_Field>
OPLS_2005

> <r_lp_Energy>
31.9375

> <b_lp_Chiralities_Consistent>
1

> <s_lp_Variant>
AV-unprocessed.smi:1605-7

> <Gold.Version>
5.8.1

> <Gold.Id.Protein>
6NUR|6NUR_protein|mol2

> <Gold.PLP.Fitness>
55.9477

> <Gold.PLP.PLP>
-41.6401

> <Gold.PLP.part.hbond>
-3.7783

> <Gold.PLP.part.metal>
0.0000

> <Gold.PLP.part.buried>
-3.1665

> <Gold.PLP.part.nonpolar>
-34.4002

> <Gold.PLP.part.repulsive>
0.1678

> <Gold.PLP.ligand.clash>
0.0000

> <Gold.PLP.ligand.torsion>
0.3861

> <Gold.PLP.Chemscore.Hbond>
5.0000

> <Gold.PLP.Chemscore.CHOScore>
0.0000

> <Gold.PLP.Chemscore.Metal>
0.0000

> <Gold.Chemscore.Hbonds>
donor molecule, donor type, donor heavy atom, donor atom, acceptor molecule, acceptor atom, score
      L1  H     6    51       P1  7948  2.00
      L1  H     9    35       P1  7948  1.00
      L1  H    13    52       P1  8028  1.85

> <Gold.PLP.Chemscore.Internal.Correction>
0.0797

> <Gold.Rescore>
     Score         DG    S(hbond)    S(metal)    S(lipo)     H(rot)  DE(clash)    DE(int)     intcor
     21.06     -21.32       2.95        0.00     101.25       2.28       0.00       0.26       ----

> <Gold.Chemscore.Fitness>
21.0588

> <Gold.Chemscore.DG>
-21.3242

> <Gold.Chemscore.ZeroCoef>
-5.4800

> <Gold.Chemscore.Hbond>
2.9476

> <Gold.Chemscore.Metal>
0.0000

> <Gold.Chemscore.Lipo>
101.2474

> <Gold.Chemscore.Internal_Hbond>
0.0000

> <Gold.Chemscore.DEClash>
0.0021

> <Gold.Chemscore.DEInternal>
0.2633

> <Gold.Chemscore.Rot>
2.2839

> <Gold.Chemscore.Internal.Correction>
   9.000000E+99

> <Gold.Chemscore.Hbonds>
donor molecule, donor type, donor heavy atom, donor atom, acceptor molecule, acceptor atom, score
      L1  H     6    51       P1  7948  0.69
      L1  H     9    35       P1  7948  0.94
      L1  H    13    52       P1  8028  0.88

> <Gold.Chemscore.Hbond.Weighted>
-9.8451

> <Gold.Chemscore.Metal.Weighted>
-0.0000

> <Gold.Chemscore.Lipo.Weighted>
-11.8459

> <Gold.Chemscore.Internal_Hbond.Weighted>
0.0000

> <Gold.Chemscore.DEClash.Weighted>
0.0021

> <Gold.Chemscore.DEInternal.Weighted>
0.2633

> <Gold.Chemscore.Rot.Weighted>
5.8469

> <Gold.Chemscore.Internal.Correction.Weighted>
   9.000000E+99

> <Gold.Protein.RotatedTorsions>
[ 6907 6896 6895 6894 ] final  -94.08 input  -60.11 | X-H torsion
[ 7974 7965 7964 7962 ] final  121.63 input  175.53 | X-H torsion
[ 8008 7997 7996 7995 ] final   91.25 input   59.86 | X-H torsion
[ 10167 10162 10161 10158 ] final  -84.94 input  -65.29 | X-H torsion
[ 10718 10713 10712 10709 ] final -137.62 input   66.30 | X-H torsion
[ 10763 10752 10751 10750 ] final  127.88 input  -60.55 | X-H torsion
[ 11005 11000 10999 10996 ] final -176.61 input  -57.11 | X-H torsion

> <Gold.Protein.ActiveResidues>
 VAL166  LYS551  ARG553  GLY616  TRP617  ASP618  TYR619  PRO620  LYS621  CYS622 
 ASP623  PHE694  ASN695  SER759  ASP760  ASP761  ALA762  ILE779  LEU786  VAL792 
 PHE793  MET794  SER795  GLU796  ALA797  LYS798  CYS799  TRP800  GLU811  SER814 

> <Gold.Protein.RotatedAtoms>
  150.6935  134.1867  159.4269 H   0  0  0  0  0  0  0  0  0  0  0  0  # atno 6907 bound_to 6896
  151.9840  135.0011  160.0568 H   0  0  0  0  0  0  0  0  0  0  0  0  # atno 6908 bound_to 6896
  152.1729  133.4620  159.4955 H   0  0  0  0  0  0  0  0  0  0  0  0  # atno 6909 bound_to 6896
  145.1171  139.3414  143.4733 H   0  0  0  0  0  0  0  0  0  0  0  0  # atno 7974 bound_to 7965
  156.0215  140.3340  155.7044 H   0  0  0  0  0  0  0  0  0  0  0  0  # atno 8008 bound_to 7997
  155.6015  140.0656  157.2749 H   0  0  0  0  0  0  0  0  0  0  0  0  # atno 8009 bound_to 7997
  154.4318  140.1809  156.1166 H   0  0  0  0  0  0  0  0  0  0  0  0  # atno 8010 bound_to 7997
  140.4084  143.2633  151.9050 H   0  0  0  0  0  0  0  0  0  0  0  0  # atno 10167 bound_to 10162
  156.2901  130.7370  151.1393 H   0  0  0  0  0  0  0  0  0  0  0  0  # atno 10718 bound_to 10713
  153.7165  135.3260  155.3257 H   0  0  0  0  0  0  0  0  0  0  0  0  # atno 10763 bound_to 10752
  154.8369  135.4489  154.1261 H   0  0  0  0  0  0  0  0  0  0  0  0  # atno 10764 bound_to 10752
  153.2369  135.6966  153.7906 H   0  0  0  0  0  0  0  0  0  0  0  0  # atno 10765 bound_to 10752
  140.4502  134.6350  157.4798 H   0  0  0  0  0  0  0  0  0  0  0  0  # atno 11005 bound_to 11000
  146.3523  140.1114  142.8604 LP  0  0  0  0  0  0  0  0  0  0  0  0  # atno 17320 bound_to 7965
  145.0782  140.9203  143.4841 LP  0  0  0  0  0  0  0  0  0  0  0  0  # atno 17321 bound_to 7965
  139.4783  144.5562  151.8310 LP  0  0  0  0  0  0  0  0  0  0  0  0  # atno 17342 bound_to 10162
  140.4664  144.1649  150.5912 LP  0  0  0  0  0  0  0  0  0  0  0  0  # atno 17343 bound_to 10162
  157.7340  131.0586  150.5548 LP  0  0  0  0  0  0  0  0  0  0  0  0  # atno 17370 bound_to 10713
  156.5663  130.4268  149.6039 LP  0  0  0  0  0  0  0  0  0  0  0  0  # atno 17371 bound_to 10713
  140.0012  134.6834  155.9528 LP  0  0  0  0  0  0  0  0  0  0  0  0  # atno 17394 bound_to 11000
  141.1667  133.6537  156.4506 LP  0  0  0  0  0  0  0  0  0  0  0  0  # atno 17395 bound_to 11000

$$$$
