AV-unprocessed.smi:3290|AV-procd|sdf|12617|dock5
  -GOLD-   2272018553D 1   1.00000     0.00000
 Structure written by MMmdl.
 43 44  0  0  0  0  0  0  0  0  2 V2000
  152.9262  142.3847  159.2528 C   0  0  0  0  0  0  0  0  0  0  0  0
  152.3859  143.5472  158.3951 C   0  0  2  0  0  0  0  0  0  0  0  0
  152.3108  144.8616  159.2009 C   0  0  0  0  0  0  0  0  0  0  0  0
  151.1621  144.8563  160.2237 C   0  0  0  0  0  0  0  0  0  0  0  0
  149.8173  144.5513  159.5480 C   0  0  0  0  0  0  0  0  0  0  0  0
  149.8731  143.2397  158.7488 C   0  0  0  0  0  0  0  0  0  0  0  0
  151.0219  143.2548  157.7141 C   0  0  2  0  0  0  0  0  0  0  0  0
  151.0504  141.9782  156.8498 C   0  0  0  0  0  0  0  0  0  0  0  0
  150.1827  142.1080  155.6628 N   0  3  0  0  0  0  0  0  0  0  0  0
  148.9873  141.2413  155.6907 C   0  0  0  0  0  0  0  0  0  0  0  0
  148.9960  140.2302  154.5300 C   0  0  1  0  0  0  0  0  0  0  0  0
  149.2080  140.9397  153.3274 O   0  0  0  0  0  0  0  0  0  0  0  0
  150.0298  139.1326  154.7359 C   0  0  0  0  0  0  0  0  0  0  0  0
  149.6490  137.7741  154.7810 C   0  0  0  0  0  0  0  0  0  0  0  0
  150.6508  136.7988  154.9569 C   0  0  0  0  0  0  0  0  0  0  0  0
  151.9614  137.0977  155.0820 N   0  0  0  0  0  0  0  0  0  0  0  0
  152.3201  138.3984  155.0389 C   0  0  0  0  0  0  0  0  0  0  0  0
  151.3981  139.4502  154.8667 C   0  0  0  0  0  0  0  0  0  0  0  0
  152.2370  142.1040  160.0485 H   0  0  0  0  0  0  0  0  0  0  0  0
  153.8723  142.6558  159.7221 H   0  0  0  0  0  0  0  0  0  0  0  0
  153.1157  141.4965  158.6505 H   0  0  0  0  0  0  0  0  0  0  0  0
  153.1188  143.7064  157.6029 H   0  0  0  0  0  0  0  0  0  0  0  0
  153.2585  145.0510  159.7067 H   0  0  0  0  0  0  0  0  0  0  0  0
  152.1675  145.6956  158.5127 H   0  0  0  0  0  0  0  0  0  0  0  0
  151.3585  144.1182  161.0017 H   0  0  0  0  0  0  0  0  0  0  0  0
  151.1115  145.8224  160.7270 H   0  0  0  0  0  0  0  0  0  0  0  0
  149.0281  144.4966  160.2986 H   0  0  0  0  0  0  0  0  0  0  0  0
  149.5510  145.3725  158.8814 H   0  0  0  0  0  0  0  0  0  0  0  0
  149.9900  142.3980  159.4318 H   0  0  0  0  0  0  0  0  0  0  0  0
  148.9153  143.0914  158.2495 H   0  0  0  0  0  0  0  0  0  0  0  0
  150.8331  144.0898  157.0368 H   0  0  0  0  0  0  0  0  0  0  0  0
  152.0689  141.7802  156.5124 H   0  0  0  0  0  0  0  0  0  0  0  0
  150.7302  141.1139  157.4329 H   0  0  0  0  0  0  0  0  0  0  0  0
  149.8757  143.0684  155.6006 H   0  0  0  0  0  0  0  0  0  0  0  0
  148.9615  140.7161  156.6466 H   0  0  0  0  0  0  0  0  0  0  0  0
  148.0902  141.8607  155.6425 H   0  0  0  0  0  0  0  0  0  0  0  0
  148.0090  139.7718  154.4522 H   0  0  0  0  0  0  0  0  0  0  0  0
  149.2776  140.3173  152.6192 H   0  0  0  0  0  0  0  0  0  0  0  0
  148.6140  137.4811  154.6824 H   0  0  0  0  0  0  0  0  0  0  0  0
  150.3923  135.7509  154.9946 H   0  0  0  0  0  0  0  0  0  0  0  0
  153.3747  138.6077  155.1412 H   0  0  0  0  0  0  0  0  0  0  0  0
  151.7397  140.4746  154.8368 H   0  0  0  0  0  0  0  0  0  0  0  0
  150.7236  141.8878  154.8386 H   0  0  0  0  0  0  0  0  0  0  0  0
  1  2  1  0  0  0  0
  1 19  1  0  0  0  0
  1 20  1  0  0  0  0
  1 21  1  0  0  0  0
  2  7  1  0  0  0  0
  2  3  1  0  0  0  0
  2 22  1  0  0  0  0
  3  4  1  0  0  0  0
  3 23  1  0  0  0  0
  3 24  1  0  0  0  0
  4  5  1  0  0  0  0
  4 25  1  0  0  0  0
  4 26  1  0  0  0  0
  5  6  1  0  0  0  0
  5 27  1  0  0  0  0
  5 28  1  0  0  0  0
  6  7  1  0  0  0  0
  6 29  1  0  0  0  0
  6 30  1  0  0  0  0
  7  8  1  0  0  0  0
  7 31  1  0  0  0  0
  8  9  1  0  0  0  0
  8 32  1  0  0  0  0
  8 33  1  0  0  0  0
  9 10  1  0  0  0  0
  9 34  1  0  0  0  0
  9 43  1  0  0  0  0
 10 11  1  0  0  0  0
 10 35  1  0  0  0  0
 10 36  1  0  0  0  0
 11 12  1  0  0  0  0
 11 13  1  0  0  0  0
 11 37  1  0  0  0  0
 12 38  1  0  0  0  0
 13 18  1  0  0  0  0
 13 14  2  0  0  0  0
 14 15  1  0  0  0  0
 14 39  1  0  0  0  0
 15 16  2  0  0  0  0
 15 40  1  0  0  0  0
 16 17  1  0  0  0  0
 17 18  2  0  0  0  0
 17 41  1  0  0  0  0
 18 42  1  0  0  0  0
M  CHG  1   9   1
M  END
> <s_m_source_file>
AV-unprocessed.smi

> <i_m_source_file_index>
3290

> <i_lp_mmshare_version>
43012

> <i_f3d_flags>
0

> <s_epik_input>
W0NIM11bQ0BASF0xW0NIMl1bQ0gyXVtDSDJdW0NIMl1bQ0BIXTFbQ0gyXVtOSF1bQ0gyXVtDQEhdKFtPSF0pYzJbY0hdW2NIXW5bY0hdW2NIXTI=

> <s_epik_cmdline>
J2VwaWtfcHl0aG9uJywgJy1waCcsICc3LjAnLCAnLXRuJywgJzgnLCAnLW1hJywgJzIwMCcsICctbWV0YWxfYmluZGluZycsICctaW1hZScsICc8aW5maWxlLm1hZT4nLCAnLW9tYWUnLCAnPG91dGZpbGUubWFlPic=

> <r_lp_tautomer_probability>
1

> <r_epik_Ionization_Penalty>
0.00420552

> <r_epik_Ionization_Penalty_Charging>
0.00207255

> <r_epik_Ionization_Penalty_Neutral>
0.00213297

> <r_epik_State_Penalty>
-0

> <r_epik_Charging_Adjusted_Penalty>
0.00207255

> <i_epik_Tot_Q>
1

> <i_epik_Tot_abs_Q>
1

> <r_epik_Metal_State_Penalty>
-0

> <b_epik_Metal_Only>
0

> <s_lp_Force_Field>
OPLS_2005

> <r_lp_Energy>
19.3175

> <b_lp_Chiralities_Consistent>
1

> <s_lp_Variant>
AV-unprocessed.smi:3290-7

> <Gold.Version>
5.8.1

> <Gold.Id.Protein>
6NUR|6NUR_protein|mol2

> <Gold.PLP.Fitness>
55.3486

> <Gold.PLP.PLP>
-43.8335

> <Gold.PLP.part.hbond>
-4.4484

> <Gold.PLP.part.metal>
0.0000

> <Gold.PLP.part.buried>
-4.1877

> <Gold.PLP.part.nonpolar>
-37.0380

> <Gold.PLP.part.repulsive>
0.2568

> <Gold.PLP.ligand.clash>
0.0000

> <Gold.PLP.ligand.torsion>
1.1831

> <Gold.PLP.Chemscore.Hbond>
4.6087

> <Gold.PLP.Chemscore.CHOScore>
0.0000

> <Gold.PLP.Chemscore.Metal>
0.0000

> <Gold.Chemscore.Hbonds>
donor molecule, donor type, donor heavy atom, donor atom, acceptor molecule, acceptor atom, score
      L1  H     9    34       P1  8028  2.00
      L1  H    12    38       P1  7957  0.94
      P1  H  7989  7998       L1    12  0.01
      P1  H  8011  8017       L1    12  0.75
      P1  H 10752 10764       L1    16  0.96

> <Gold.PLP.Chemscore.Internal.Correction>
0.0552

> <Gold.Rescore>
     Score         DG    S(hbond)    S(metal)    S(lipo)     H(rot)  DE(clash)    DE(int)     intcor
     23.06     -24.43       2.91        0.00     123.67       2.05       0.12       1.26       ----

> <Gold.Chemscore.Fitness>
23.0599

> <Gold.Chemscore.DG>
-24.4349

> <Gold.Chemscore.ZeroCoef>
-5.4800

> <Gold.Chemscore.Hbond>
2.9141

> <Gold.Chemscore.Metal>
0.0000

> <Gold.Chemscore.Lipo>
123.6708

> <Gold.Chemscore.Internal_Hbond>
0.0000

> <Gold.Chemscore.DEClash>
0.1157

> <Gold.Chemscore.DEInternal>
1.2593

> <Gold.Chemscore.Rot>
2.0498

> <Gold.Chemscore.Internal.Correction>
   9.000000E+99

> <Gold.Chemscore.Hbonds>
donor molecule, donor type, donor heavy atom, donor atom, acceptor molecule, acceptor atom, score
      L1  H     9    34       P1  8028  1.00
      L1  H    12    38       P1  7957  0.84
      P1  H  8011  8017       L1    12  0.09
      P1  H 10752 10764       L1    16  0.65

> <Gold.Chemscore.Hbond.Weighted>
-9.7329

> <Gold.Chemscore.Metal.Weighted>
-0.0000

> <Gold.Chemscore.Lipo.Weighted>
-14.4695

> <Gold.Chemscore.Internal_Hbond.Weighted>
0.0000

> <Gold.Chemscore.DEClash.Weighted>
0.1157

> <Gold.Chemscore.DEInternal.Weighted>
1.2593

> <Gold.Chemscore.Rot.Weighted>
5.2475

> <Gold.Chemscore.Internal.Correction.Weighted>
   9.000000E+99

> <Gold.Protein.RotatedTorsions>
[ 6907 6896 6895 6894 ] final   53.24 input  -60.11 | X-H torsion
[ 7974 7965 7964 7962 ] final   23.35 input  175.53 | X-H torsion
[ 8008 7997 7996 7995 ] final   54.83 input   59.86 | X-H torsion
[ 10167 10162 10161 10158 ] final -176.46 input  -65.29 | X-H torsion
[ 10718 10713 10712 10709 ] final -170.52 input   66.30 | X-H torsion
[ 10763 10752 10751 10750 ] final  -59.15 input  -60.55 | X-H torsion
[ 11005 11000 10999 10996 ] final  -25.45 input  -57.11 | X-H torsion

> <Gold.Protein.ActiveResidues>
 VAL166  LYS551  ARG553  GLY616  TRP617  ASP618  TYR619  PRO620  LYS621  CYS622 
 ASP623  PHE694  ASN695  SER759  ASP760  ASP761  ALA762  ILE779  LEU786  VAL792 
 PHE793  MET794  SER795  GLU796  ALA797  LYS798  CYS799  TRP800  GLU811  SER814 

> <Gold.Protein.RotatedAtoms>
  152.3317  134.7251  160.0287 H   0  0  0  0  0  0  0  0  0  0  0  0  # atno 6907 bound_to 6896
  151.7666  133.3332  159.3440 H   0  0  0  0  0  0  0  0  0  0  0  0  # atno 6908 bound_to 6896
  150.7427  134.5989  159.6071 H   0  0  0  0  0  0  0  0  0  0  0  0  # atno 6909 bound_to 6896
  146.1988  139.7757  142.8777 H   0  0  0  0  0  0  0  0  0  0  0  0  # atno 7974 bound_to 7965
  155.4911  140.3471  155.4355 H   0  0  0  0  0  0  0  0  0  0  0  0  # atno 8008 bound_to 7997
  156.0976  140.1427  156.9538 H   0  0  0  0  0  0  0  0  0  0  0  0  # atno 8009 bound_to 7997
  154.4673  140.0913  156.7032 H   0  0  0  0  0  0  0  0  0  0  0  0  # atno 8010 bound_to 7997
  139.5529  144.2064  152.1108 H   0  0  0  0  0  0  0  0  0  0  0  0  # atno 10167 bound_to 10162
  156.7274  130.9293  151.3102 H   0  0  0  0  0  0  0  0  0  0  0  0  # atno 10718 bound_to 10713
  154.2492  135.6329  153.5234 H   0  0  0  0  0  0  0  0  0  0  0  0  # atno 10763 bound_to 10752
  152.9915  135.5560  154.5827 H   0  0  0  0  0  0  0  0  0  0  0  0  # atno 10764 bound_to 10752
  154.5350  135.2891  155.1121 H   0  0  0  0  0  0  0  0  0  0  0  0  # atno 10765 bound_to 10752
  140.8938  133.7570  156.0455 H   0  0  0  0  0  0  0  0  0  0  0  0  # atno 11005 bound_to 11000
  145.3553  141.0315  143.3315 LP  0  0  0  0  0  0  0  0  0  0  0  0  # atno 17320 bound_to 7965
  144.8638  139.5137  143.6799 LP  0  0  0  0  0  0  0  0  0  0  0  0  # atno 17321 bound_to 7965
  140.1562  144.5068  150.6658 LP  0  0  0  0  0  0  0  0  0  0  0  0  # atno 17342 bound_to 10162
  140.6795  143.2320  151.5420 LP  0  0  0  0  0  0  0  0  0  0  0  0  # atno 17343 bound_to 10162
  157.6873  130.9198  150.0420 LP  0  0  0  0  0  0  0  0  0  0  0  0  # atno 17370 bound_to 10713
  156.1552  130.3643  149.9379 LP  0  0  0  0  0  0  0  0  0  0  0  0  # atno 17371 bound_to 10713
  140.8314  134.3174  157.5347 LP  0  0  0  0  0  0  0  0  0  0  0  0  # atno 17394 bound_to 11000
  139.8733  134.9365  156.3662 LP  0  0  0  0  0  0  0  0  0  0  0  0  # atno 17395 bound_to 11000

$$$$
