AV-unprocessed.smi:1783|AV-procd|sdf|7194|dock9
  -GOLD-   22720 8433D 1   1.00000     0.00000
 Structure written by MMmdl.
 29 30  0  0  0  0  0  0  0  0  2 V2000
  149.9327  141.7960  156.0395 O   0  0  0  0  0  0  0  0  0  0  0  0
  150.5766  140.7492  156.1129 C   0  0  0  0  0  0  0  0  0  0  0  0
  151.5429  140.4892  157.0153 N   0  0  0  0  0  0  0  0  0  0  0  0
  152.0268  141.2826  158.0703 C   0  0  0  0  0  0  0  0  0  0  0  0
  151.5470  142.5123  158.4067 C   0  0  0  0  0  0  0  0  0  0  0  0
  152.0858  143.2825  159.5207 C   0  0  0  0  0  0  0  0  0  0  0  0
  151.5241  144.6200  159.9694 C   0  0  0  0  0  0  0  0  0  0  0  0
  152.0396  144.9890  161.1422 F   0  0  0  0  0  0  0  0  0  0  0  0
  151.8189  145.5596  159.0722 F   0  0  0  0  0  0  0  0  0  0  0  0
  150.1980  144.5644  160.0922 F   0  0  0  0  0  0  0  0  0  0  0  0
  153.0911  142.6083  160.1865 C   0  0  0  0  0  0  0  0  0  0  0  0
  153.6283  141.3988  159.9155 N   0  5  0  0  0  0  0  0  0  0  0  0
  153.1225  140.6909  158.8664 C   0  0  0  0  0  0  0  0  0  0  0  0
  153.5582  139.5773  158.5715 O   0  0  0  0  0  0  0  0  0  0  0  0
  150.2965  139.6214  155.1128 C   0  0  2  0  0  0  0  0  0  0  0  0
  149.9199  138.2798  155.7700 C   0  0  0  0  0  0  0  0  0  0  0  0
  151.1022  137.3810  155.4627 C   0  0  0  0  0  0  0  0  0  0  0  0
  151.6186  137.9750  154.1603 C   0  0  0  0  0  0  0  0  0  0  0  0
  151.4932  139.3707  154.3781 O   0  0  0  0  0  0  0  0  0  0  0  0
  152.0201  139.6053  156.9120 H   0  0  0  0  0  0  0  0  0  0  0  0
  150.7319  142.9586  157.8622 H   0  0  0  0  0  0  0  0  0  0  0  0
  153.5268  143.1158  161.0735 H   0  0  0  0  0  0  0  0  0  0  0  0
  149.5106  139.9184  154.4158 H   0  0  0  0  0  0  0  0  0  0  0  0
  149.7259  138.3457  156.8417 H   0  0  0  0  0  0  0  0  0  0  0  0
  149.0180  137.8836  155.3016 H   0  0  0  0  0  0  0  0  0  0  0  0
  151.8591  137.4778  156.2422 H   0  0  0  0  0  0  0  0  0  0  0  0
  150.8304  136.3289  155.3755 H   0  0  0  0  0  0  0  0  0  0  0  0
  152.6491  137.6921  153.9450 H   0  0  0  0  0  0  0  0  0  0  0  0
  150.9921  137.6772  153.3181 H   0  0  0  0  0  0  0  0  0  0  0  0
  1  2  2  0  0  0  0
  2  3  1  0  0  0  0
  2 15  1  0  0  0  0
  3  4  1  0  0  0  0
  3 20  1  0  0  0  0
  4 13  1  0  0  0  0
  4  5  2  0  0  0  0
  5  6  1  0  0  0  0
  5 21  1  0  0  0  0
  6  7  1  0  0  0  0
  6 11  2  0  0  0  0
  7  8  1  0  0  0  0
  7  9  1  0  0  0  0
  7 10  1  0  0  0  0
 11 12  1  0  0  0  0
 11 22  1  0  0  0  0
 12 13  1  0  0  0  0
 13 14  2  0  0  0  0
 15 19  1  0  0  0  0
 15 16  1  0  0  0  0
 15 23  1  0  0  0  0
 16 17  1  0  0  0  0
 16 24  1  0  0  0  0
 16 25  1  0  0  0  0
 17 18  1  0  0  0  0
 17 26  1  0  0  0  0
 17 27  1  0  0  0  0
 18 19  1  0  0  0  0
 18 28  1  0  0  0  0
 18 29  1  0  0  0  0
M  CHG  1  12  -1
M  END
> <s_m_source_file>
AV-unprocessed.smi

> <i_m_source_file_index>
1783

> <i_lp_mmshare_version>
43012

> <i_f3d_flags>
0

> <s_epik_input>
TzFbQ0gyXVtDSDJdW0NIMl1bQ0BIXTFDKD1PKVtOSF1jMltjSF1jKEMoRikoRilGKVtjSF1bbkhdYzI9Tw==

> <s_epik_cmdline>
J2VwaWtfcHl0aG9uJywgJy1waCcsICc3LjAnLCAnLXRuJywgJzgnLCAnLW1hJywgJzIwMCcsICctbWV0YWxfYmluZGluZycsICctaW1hZScsICc8aW5maWxlLm1hZT4nLCAnLW9tYWUnLCAnPG91dGZpbGUubWFlPic=

> <r_epik_Ionization_Penalty>
2.55264

> <r_epik_Ionization_Penalty_Charging>
0.0580859

> <r_epik_Ionization_Penalty_Neutral>
2.49455

> <r_epik_State_Penalty>
2.65913

> <r_epik_Charging_Adjusted_Penalty>
2.71721

> <i_epik_Tot_Q>
-1

> <i_epik_Tot_abs_Q>
1

> <r_epik_Metal_State_Penalty>
0.516671

> <b_epik_Metal_Only>
0

> <s_lp_Force_Field>
OPLS_2005

> <r_lp_Energy>
34.3394

> <b_lp_Chiralities_Consistent>
1

> <s_lp_Variant>
AV-unprocessed.smi:1783-3

> <Gold.Version>
5.8.1

> <Gold.Id.Protein>
6NUR|6NUR_protein|mol2

> <Gold.PLP.Fitness>
42.1360

> <Gold.PLP.PLP>
-36.5771

> <Gold.PLP.part.hbond>
-2.0000

> <Gold.PLP.part.metal>
0.0000

> <Gold.PLP.part.buried>
-3.4063

> <Gold.PLP.part.nonpolar>
-31.0227

> <Gold.PLP.part.repulsive>
0.3734

> <Gold.PLP.ligand.clash>
0.0000

> <Gold.PLP.ligand.torsion>
0.2486

> <Gold.PLP.Chemscore.Hbond>
2.0000

> <Gold.PLP.Chemscore.CHOScore>
0.0000

> <Gold.PLP.Chemscore.Metal>
0.0000

> <Gold.Chemscore.Hbonds>
donor molecule, donor type, donor heavy atom, donor atom, acceptor molecule, acceptor atom, score
      P1  H  7989  7998       L1    19  1.00
      P1  H  7997  8010       L1    14  1.00

> <Gold.PLP.Chemscore.Internal.Correction>
0.0560

> <Gold.Rescore>
     Score         DG    S(hbond)    S(metal)    S(lipo)     H(rot)  DE(clash)    DE(int)     intcor
     14.89     -16.78       1.62        0.00      72.23       1.00       0.38       1.51       ----

> <Gold.Chemscore.Fitness>
14.8911

> <Gold.Chemscore.DG>
-16.7829

> <Gold.Chemscore.ZeroCoef>
-5.4800

> <Gold.Chemscore.Hbond>
1.6202

> <Gold.Chemscore.Metal>
0.0000

> <Gold.Chemscore.Lipo>
72.2347

> <Gold.Chemscore.Internal_Hbond>
0.0000

> <Gold.Chemscore.DEClash>
0.3822

> <Gold.Chemscore.DEInternal>
1.5096

> <Gold.Chemscore.Rot>
1.0000

> <Gold.Chemscore.Internal.Correction>
   9.000000E+99

> <Gold.Chemscore.Hbonds>
donor molecule, donor type, donor heavy atom, donor atom, acceptor molecule, acceptor atom, score
      P1  H  7989  7998       L1    19  0.30
      P1  H  7997  8010       L1    14  0.30

> <Gold.Chemscore.Hbond.Weighted>
-5.4114

> <Gold.Chemscore.Metal.Weighted>
-0.0000

> <Gold.Chemscore.Lipo.Weighted>
-8.4515

> <Gold.Chemscore.Internal_Hbond.Weighted>
0.0000

> <Gold.Chemscore.DEClash.Weighted>
0.3822

> <Gold.Chemscore.DEInternal.Weighted>
1.5096

> <Gold.Chemscore.Rot.Weighted>
2.5600

> <Gold.Chemscore.Internal.Correction.Weighted>
   9.000000E+99

> <Gold.Protein.RotatedTorsions>
[ 6907 6896 6895 6894 ] final -135.01 input  -60.11 | X-H torsion
[ 7974 7965 7964 7962 ] final -143.41 input  175.53 | X-H torsion
[ 8008 7997 7996 7995 ] final   16.34 input   59.86 | X-H torsion
[ 10167 10162 10161 10158 ] final -137.49 input  -65.29 | X-H torsion
[ 10718 10713 10712 10709 ] final  -69.32 input   66.30 | X-H torsion
[ 10763 10752 10751 10750 ] final  167.12 input  -60.55 | X-H torsion
[ 11005 11000 10999 10996 ] final -122.62 input  -57.11 | X-H torsion

> <Gold.Protein.ActiveResidues>
 VAL166  LYS551  ARG553  GLY616  TRP617  ASP618  TYR619  PRO620  LYS621  CYS622 
 ASP623  PHE694  ASN695  SER759  ASP760  ASP761  ALA762  ILE779  LEU786  VAL792 
 PHE793  MET794  SER795  GLU796  ALA797  LYS798  CYS799  TRP800  GLU811  SER814 

> <Gold.Protein.RotatedAtoms>
  150.9927  133.6133  159.2705 H   0  0  0  0  0  0  0  0  0  0  0  0  # atno 6907 bound_to 6896
  151.3348  135.0849  159.9360 H   0  0  0  0  0  0  0  0  0  0  0  0  # atno 6908 bound_to 6896
  152.5251  133.9550  159.7744 H   0  0  0  0  0  0  0  0  0  0  0  0  # atno 6909 bound_to 6896
  144.8372  140.5838  143.5476 H   0  0  0  0  0  0  0  0  0  0  0  0  # atno 7974 bound_to 7965
  154.8756  140.2965  155.5455 H   0  0  0  0  0  0  0  0  0  0  0  0  # atno 8008 bound_to 7997
  156.3022  140.2452  156.3684 H   0  0  0  0  0  0  0  0  0  0  0  0  # atno 8009 bound_to 7997
  154.8771  140.0399  157.1749 H   0  0  0  0  0  0  0  0  0  0  0  0  # atno 8010 bound_to 7997
  139.8573  143.7122  152.2653 H   0  0  0  0  0  0  0  0  0  0  0  0  # atno 10167 bound_to 10162
  156.0461  130.4310  150.2130 H   0  0  0  0  0  0  0  0  0  0  0  0  # atno 10718 bound_to 10713
  154.3491  135.2753  155.2382 H   0  0  0  0  0  0  0  0  0  0  0  0  # atno 10763 bound_to 10752
  154.4619  135.5905  153.6265 H   0  0  0  0  0  0  0  0  0  0  0  0  # atno 10764 bound_to 10752
  152.9851  135.6067  154.3700 H   0  0  0  0  0  0  0  0  0  0  0  0  # atno 10765 bound_to 10752
  140.9981  134.0442  157.3571 H   0  0  0  0  0  0  0  0  0  0  0  0  # atno 11005 bound_to 11000
  145.4770  139.1498  143.3782 LP  0  0  0  0  0  0  0  0  0  0  0  0  # atno 17320 bound_to 7965
  146.2669  140.4905  142.8830 LP  0  0  0  0  0  0  0  0  0  0  0  0  # atno 17321 bound_to 7965
  139.7408  144.7560  151.0656 LP  0  0  0  0  0  0  0  0  0  0  0  0  # atno 17342 bound_to 10162
  140.7780  143.4975  150.9814 LP  0  0  0  0  0  0  0  0  0  0  0  0  # atno 17343 bound_to 10162
  157.0219  130.9982  151.3337 LP  0  0  0  0  0  0  0  0  0  0  0  0  # atno 17370 bound_to 10713
  157.5338  130.8075  149.7948 LP  0  0  0  0  0  0  0  0  0  0  0  0  # atno 17371 bound_to 10713
  139.9025  135.0169  156.7335 LP  0  0  0  0  0  0  0  0  0  0  0  0  # atno 17394 bound_to 11000
  140.6933  133.9371  155.7979 LP  0  0  0  0  0  0  0  0  0  0  0  0  # atno 17395 bound_to 11000

$$$$
