AV-unprocessed.smi:1679|AV-procd|sdf|6729|dock10
  -GOLD-   22720 7473D 1   1.00000     0.00000
 Structure written by MMmdl.
 45 46  0  0  0  0  0  0  0  0  1 V2000
  151.2198  144.0204  157.8001 C   0  0  0  0  0  0  0  0  0  0  0  0
  151.1775  143.5509  159.2636 C   0  0  2  0  0  0  0  0  0  0  0  0
  151.6017  144.6909  160.2114 C   0  0  0  0  0  0  0  0  0  0  0  0
  151.5779  144.2490  161.6821 C   0  0  0  0  0  0  0  0  0  0  0  0
  152.4623  143.0139  161.8993 C   0  0  0  0  0  0  0  0  0  0  0  0
  152.0400  141.8659  160.9708 C   0  0  0  0  0  0  0  0  0  0  0  0
  152.0534  142.2972  159.4884 C   0  0  1  0  0  0  0  0  0  0  0  0
  151.5240  141.2441  158.6928 O   0  0  0  0  0  0  0  0  0  0  0  0
  152.0743  139.9646  158.9709 C   0  0  0  0  0  0  0  0  0  0  0  0
  151.5791  138.9716  157.9145 C   0  0  0  0  0  0  0  0  0  0  0  0
  150.1885  138.6160  158.1607 N   0  0  0  0  0  0  0  0  0  0  0  0
  149.7867  137.4914  158.7686 C   0  0  0  0  0  0  0  0  0  0  0  0
  150.5700  136.6364  159.1848 O   0  0  0  0  0  0  0  0  0  0  0  0
  148.2676  137.3124  158.9069 C   0  0  0  0  0  0  0  0  0  0  0  0
  147.8809  136.0133  159.4765 N   0  0  0  0  0  0  0  0  0  0  0  0
  147.9870  134.8585  158.7143 C   0  0  0  0  0  0  0  0  0  0  0  0
  147.6572  133.6284  159.1741 C   0  0  0  0  0  0  0  0  0  0  0  0
  147.1608  133.4573  160.5352 C   0  0  0  0  0  0  0  0  0  0  0  0
  146.8347  132.3861  161.0418 O   0  0  0  0  0  0  0  0  0  0  0  0
  147.0719  134.6415  161.2718 N   0  0  0  0  0  0  0  0  0  0  0  0
  147.4117  135.9123  160.8045 C   0  0  0  0  0  0  0  0  0  0  0  0
  147.2994  136.8919  161.5405 O   0  0  0  0  0  0  0  0  0  0  0  0
  146.7363  134.5721  162.2216 H   0  0  0  0  0  0  0  0  0  0  0  0
  152.2341  144.2809  157.4962 H   0  0  0  0  0  0  0  0  0  0  0  0
  150.5927  144.8998  157.6522 H   0  0  0  0  0  0  0  0  0  0  0  0
  150.8587  143.2458  157.1232 H   0  0  0  0  0  0  0  0  0  0  0  0
  150.1445  143.2892  159.4979 H   0  0  0  0  0  0  0  0  0  0  0  0
  152.6050  145.0324  159.9525 H   0  0  0  0  0  0  0  0  0  0  0  0
  150.9418  145.5491  160.0801 H   0  0  0  0  0  0  0  0  0  0  0  0
  151.9147  145.0653  162.3218 H   0  0  0  0  0  0  0  0  0  0  0  0
  150.5532  144.0235  161.9807 H   0  0  0  0  0  0  0  0  0  0  0  0
  153.5059  143.2716  161.7140 H   0  0  0  0  0  0  0  0  0  0  0  0
  152.4023  142.6923  162.9393 H   0  0  0  0  0  0  0  0  0  0  0  0
  152.7020  141.0149  161.1293 H   0  0  0  0  0  0  0  0  0  0  0  0
  151.0385  141.5305  161.2439 H   0  0  0  0  0  0  0  0  0  0  0  0
  153.0752  142.5291  159.1811 H   0  0  0  0  0  0  0  0  0  0  0  0
  153.1629  140.0245  158.9375 H   0  0  0  0  0  0  0  0  0  0  0  0
  151.7974  139.6192  159.9673 H   0  0  0  0  0  0  0  0  0  0  0  0
  151.6827  139.3994  156.9162 H   0  0  0  0  0  0  0  0  0  0  0  0
  152.1903  138.0682  157.9447 H   0  0  0  0  0  0  0  0  0  0  0  0
  149.4852  139.2641  157.8371 H   0  0  0  0  0  0  0  0  0  0  0  0
  147.8622  138.1283  159.5088 H   0  0  0  0  0  0  0  0  0  0  0  0
  147.8186  137.4350  157.9200 H   0  0  0  0  0  0  0  0  0  0  0  0
  148.3542  134.9373  157.7009 H   0  0  0  0  0  0  0  0  0  0  0  0
  147.7619  132.7666  158.5312 H   0  0  0  0  0  0  0  0  0  0  0  0
  1  2  1  0  0  0  0
  1 24  1  0  0  0  0
  1 25  1  0  0  0  0
  1 26  1  0  0  0  0
  2  7  1  0  0  0  0
  2  3  1  0  0  0  0
  2 27  1  0  0  0  0
  3  4  1  0  0  0  0
  3 28  1  0  0  0  0
  3 29  1  0  0  0  0
  4  5  1  0  0  0  0
  4 30  1  0  0  0  0
  4 31  1  0  0  0  0
  5  6  1  0  0  0  0
  5 32  1  0  0  0  0
  5 33  1  0  0  0  0
  6  7  1  0  0  0  0
  6 34  1  0  0  0  0
  6 35  1  0  0  0  0
  7  8  1  0  0  0  0
  7 36  1  0  0  0  0
  8  9  1  0  0  0  0
  9 10  1  0  0  0  0
  9 37  1  0  0  0  0
  9 38  1  0  0  0  0
 10 11  1  0  0  0  0
 10 39  1  0  0  0  0
 10 40  1  0  0  0  0
 11 12  1  0  0  0  0
 11 41  1  0  0  0  0
 12 13  2  0  0  0  0
 12 14  1  0  0  0  0
 14 15  1  0  0  0  0
 14 42  1  0  0  0  0
 14 43  1  0  0  0  0
 15 21  1  0  0  0  0
 15 16  1  0  0  0  0
 16 17  2  0  0  0  0
 16 44  1  0  0  0  0
 17 18  1  0  0  0  0
 17 45  1  0  0  0  0
 18 19  2  0  0  0  0
 18 20  1  0  0  0  0
 20 23  1  0  0  0  0
 20 21  1  0  0  0  0
 21 22  2  0  0  0  0
M  END
> <s_m_source_file>
AV-unprocessed.smi

> <i_m_source_file_index>
1679

> <i_lp_mmshare_version>
43012

> <i_f3d_flags>
0

> <s_epik_input>
W0NIM11bQ0BASF0xW0NIMl1bQ0gyXVtDSDJdW0NIMl1bQ0BIXTFPW0NIMl1bQ0gyXVtOSF1DKD1PKVtDSDJdbjJbY0hdW2NIXWMoPU8pW25IXWMyPU8=

> <s_epik_cmdline>
J2VwaWtfcHl0aG9uJywgJy1waCcsICc3LjAnLCAnLXRuJywgJzgnLCAnLW1hJywgJzIwMCcsICctbWV0YWxfYmluZGluZycsICctaW1hZScsICc8aW5maWxlLm1hZT4nLCAnLW9tYWUnLCAnPG91dGZpbGUubWFlPic=

> <r_lp_tautomer_probability>
0.999537

> <r_epik_Ionization_Penalty>
0.0033132

> <r_epik_Ionization_Penalty_Charging>
0.00331317

> <r_epik_Ionization_Penalty_Neutral>
2.78599e-08

> <r_epik_State_Penalty>
0.002342

> <r_epik_Charging_Adjusted_Penalty>
0.00565517

> <i_epik_Tot_Q>
0

> <i_epik_Tot_abs_Q>
0

> <r_epik_Metal_State_Penalty>
0.365595

> <b_epik_Metal_Only>
0

> <s_lp_Force_Field>
OPLS_2005

> <r_lp_Energy>
12.8009

> <b_lp_Chiralities_Consistent>
1

> <s_lp_Variant>
AV-unprocessed.smi:1679-1

> <Gold.Version>
5.8.1

> <Gold.Id.Protein>
6NUR|6NUR_protein|mol2

> <Gold.PLP.Fitness>
50.0538

> <Gold.PLP.PLP>
-42.7232

> <Gold.PLP.part.hbond>
-3.0000

> <Gold.PLP.part.metal>
0.0000

> <Gold.PLP.part.buried>
-5.2080

> <Gold.PLP.part.nonpolar>
-35.7179

> <Gold.PLP.part.repulsive>
0.1597

> <Gold.PLP.ligand.clash>
0.0000

> <Gold.PLP.ligand.torsion>
0.4611

> <Gold.PLP.Chemscore.Hbond>
2.7280

> <Gold.PLP.Chemscore.CHOScore>
0.0000

> <Gold.PLP.Chemscore.Metal>
0.0000

> <Gold.Chemscore.Hbonds>
donor molecule, donor type, donor heavy atom, donor atom, acceptor molecule, acceptor atom, score
      P1  H  6896  6909       L1    13  1.00
      P1  H  6931  6943       L1    22  0.50
      P1  H  6934  6947       L1    22  0.51

> <Gold.PLP.Chemscore.Internal.Correction>
0.0688

> <Gold.Rescore>
     Score         DG    S(hbond)    S(metal)    S(lipo)     H(rot)  DE(clash)    DE(int)     intcor
     19.14     -19.63       2.72        0.00      98.38       2.52       0.02       0.47       ----

> <Gold.Chemscore.Fitness>
19.1388

> <Gold.Chemscore.DG>
-19.6311

> <Gold.Chemscore.ZeroCoef>
-5.4800

> <Gold.Chemscore.Hbond>
2.7210

> <Gold.Chemscore.Metal>
0.0000

> <Gold.Chemscore.Lipo>
98.3761

> <Gold.Chemscore.Internal_Hbond>
0.0000

> <Gold.Chemscore.DEClash>
0.0234

> <Gold.Chemscore.DEInternal>
0.4688

> <Gold.Chemscore.Rot>
2.5185

> <Gold.Chemscore.Internal.Correction>
   9.000000E+99

> <Gold.Chemscore.Hbonds>
donor molecule, donor type, donor heavy atom, donor atom, acceptor molecule, acceptor atom, score
      P1  H  6896  6909       L1    13  1.00
      P1  H  6931  6943       L1    22  0.47
      P1  H  6934  6947       L1    22  0.50

> <Gold.Chemscore.Hbond.Weighted>
-9.0883

> <Gold.Chemscore.Metal.Weighted>
-0.0000

> <Gold.Chemscore.Lipo.Weighted>
-11.5100

> <Gold.Chemscore.Internal_Hbond.Weighted>
0.0000

> <Gold.Chemscore.DEClash.Weighted>
0.0234

> <Gold.Chemscore.DEInternal.Weighted>
0.4688

> <Gold.Chemscore.Rot.Weighted>
6.4472

> <Gold.Chemscore.Internal.Correction.Weighted>
   9.000000E+99

> <Gold.Protein.RotatedTorsions>
[ 6907 6896 6895 6894 ] final   84.66 input  -60.11 | X-H torsion
[ 7974 7965 7964 7962 ] final  -61.82 input  175.53 | X-H torsion
[ 8008 7997 7996 7995 ] final   65.88 input   59.86 | X-H torsion
[ 10167 10162 10161 10158 ] final  -23.54 input  -65.29 | X-H torsion
[ 10718 10713 10712 10709 ] final  -90.22 input   66.30 | X-H torsion
[ 10763 10752 10751 10750 ] final  127.83 input  -60.55 | X-H torsion
[ 11005 11000 10999 10996 ] final   26.79 input  -57.11 | X-H torsion

> <Gold.Protein.ActiveResidues>
 VAL166  LYS551  ARG553  GLY616  TRP617  ASP618  TYR619  PRO620  LYS621  CYS622 
 ASP623  PHE694  ASN695  SER759  ASP760  ASP761  ALA762  ILE779  LEU786  VAL792 
 PHE793  MET794  SER795  GLU796  ALA797  LYS798  CYS799  TRP800  GLU811  SER814 

> <Gold.Protein.RotatedAtoms>
  152.5357  134.2706  159.8969 H   0  0  0  0  0  0  0  0  0  0  0  0  # atno 6907 bound_to 6896
  151.2663  133.4270  159.2626 H   0  0  0  0  0  0  0  0  0  0  0  0  # atno 6908 bound_to 6896
  151.0407  134.9620  159.8217 H   0  0  0  0  0  0  0  0  0  0  0  0  # atno 6909 bound_to 6896
  145.7988  140.8667  143.0242 H   0  0  0  0  0  0  0  0  0  0  0  0  # atno 7974 bound_to 7965
  155.6686  140.3497  155.4810 H   0  0  0  0  0  0  0  0  0  0  0  0  # atno 8008 bound_to 7997
  155.9707  140.1155  157.0837 H   0  0  0  0  0  0  0  0  0  0  0  0  # atno 8009 bound_to 7997
  154.4166  140.1157  156.5289 H   0  0  0  0  0  0  0  0  0  0  0  0  # atno 8010 bound_to 7997
  140.7288  143.4434  151.0623 H   0  0  0  0  0  0  0  0  0  0  0  0  # atno 10167 bound_to 10162
  155.9987  130.4901  150.5290 H   0  0  0  0  0  0  0  0  0  0  0  0  # atno 10718 bound_to 10713
  153.7158  135.3261  155.3256 H   0  0  0  0  0  0  0  0  0  0  0  0  # atno 10763 bound_to 10752
  154.8371  135.4487  154.1268 H   0  0  0  0  0  0  0  0  0  0  0  0  # atno 10764 bound_to 10752
  153.2374  135.6967  153.7901 H   0  0  0  0  0  0  0  0  0  0  0  0  # atno 10765 bound_to 10752
  140.3333  134.2414  155.7699 H   0  0  0  0  0  0  0  0  0  0  0  0  # atno 11005 bound_to 11000
  144.6771  140.0229  143.7483 LP  0  0  0  0  0  0  0  0  0  0  0  0  # atno 17320 bound_to 7965
  145.9900  139.3007  143.0990 LP  0  0  0  0  0  0  0  0  0  0  0  0  # atno 17321 bound_to 7965
  139.8103  143.7960  152.3170 LP  0  0  0  0  0  0  0  0  0  0  0  0  # atno 17342 bound_to 10162
  139.8007  144.7375  150.9829 LP  0  0  0  0  0  0  0  0  0  0  0  0  # atno 17343 bound_to 10162
  157.3241  131.0687  151.1909 LP  0  0  0  0  0  0  0  0  0  0  0  0  # atno 17370 bound_to 10713
  157.2812  130.6751  149.6067 LP  0  0  0  0  0  0  0  0  0  0  0  0  # atno 17371 bound_to 10713
  141.2058  133.7851  157.0214 LP  0  0  0  0  0  0  0  0  0  0  0  0  # atno 17394 bound_to 11000
  140.0843  134.9630  157.1674 LP  0  0  0  0  0  0  0  0  0  0  0  0  # atno 17395 bound_to 11000

$$$$
