AV-unprocessed.smi:2311|AV-procd|sdf|9261|dock8
  -GOLD-   2272012483D 1   1.00000     0.00000
 Structure written by MMmdl.
 40 41  0  0  0  0  0  0  0  0  1 V2000
  151.9445  144.1976  158.1090 C   0  0  0  0  0  0  0  0  0  0  0  0
  152.2887  143.7211  159.5044 C   0  0  0  0  0  0  0  0  0  0  0  0
  152.1273  144.5666  160.6196 C   0  0  0  0  0  0  0  0  0  0  0  0
  152.4683  144.0632  161.8878 C   0  0  0  0  0  0  0  0  0  0  0  0
  152.9538  142.7451  161.9878 C   0  0  0  0  0  0  0  0  0  0  0  0
  153.0866  141.9623  160.8187 C   0  0  0  0  0  0  0  0  0  0  0  0
  153.5846  140.6485  161.0267 N   0  0  0  0  0  0  0  0  0  0  0  0
  153.9409  139.7383  160.1027 C   0  0  0  0  0  0  0  0  0  0  0  0
  153.8901  139.9027  158.8833 O   0  0  0  0  0  0  0  0  0  0  0  0
  154.3703  138.6054  160.6779 N   0  0  0  0  0  0  0  0  0  0  0  0
  154.8331  137.4208  159.9600 C   0  0  2  0  0  0  0  0  0  0  0  0
  153.8500  137.0795  158.8341 C   0  0  0  0  0  0  0  0  0  0  0  0
  154.2540  135.7703  158.1428 C   0  0  0  0  0  0  0  0  0  0  0  0
  154.3422  134.7106  159.0935 O   0  0  0  0  0  0  0  0  0  0  0  0
  155.2726  134.8972  160.1656 C   0  0  0  0  0  0  0  0  0  0  0  0
  155.0490  133.7017  161.1063 C   0  0  0  0  0  0  0  0  0  0  0  0
  156.7256  134.8575  159.6449 C   0  0  0  0  0  0  0  0  0  0  0  0
  154.9492  136.2150  160.9105 C   0  0  0  0  0  0  0  0  0  0  0  0
  152.7544  142.4571  159.6001 N   0  0  0  0  0  0  0  0  0  0  0  0
  151.4381  145.1628  158.1347 H   0  0  0  0  0  0  0  0  0  0  0  0
  151.2874  143.4830  157.6125 H   0  0  0  0  0  0  0  0  0  0  0  0
  152.8509  144.3031  157.5123 H   0  0  0  0  0  0  0  0  0  0  0  0
  151.7537  145.5742  160.5094 H   0  0  0  0  0  0  0  0  0  0  0  0
  152.3600  144.6771  162.7698 H   0  0  0  0  0  0  0  0  0  0  0  0
  153.2205  142.3437  162.9548 H   0  0  0  0  0  0  0  0  0  0  0  0
  153.6833  140.3704  161.9916 H   0  0  0  0  0  0  0  0  0  0  0  0
  154.3792  138.5572  161.6861 H   0  0  0  0  0  0  0  0  0  0  0  0
  155.8067  137.6347  159.5162 H   0  0  0  0  0  0  0  0  0  0  0  0
  152.8421  136.9743  159.2388 H   0  0  0  0  0  0  0  0  0  0  0  0
  153.8116  137.8896  158.1049 H   0  0  0  0  0  0  0  0  0  0  0  0
  153.5050  135.5012  157.3979 H   0  0  0  0  0  0  0  0  0  0  0  0
  155.1931  135.8874  157.6024 H   0  0  0  0  0  0  0  0  0  0  0  0
  155.7029  133.7545  161.9776 H   0  0  0  0  0  0  0  0  0  0  0  0
  155.2484  132.7572  160.5991 H   0  0  0  0  0  0  0  0  0  0  0  0
  154.0203  133.6675  161.4668 H   0  0  0  0  0  0  0  0  0  0  0  0
  157.4362  134.8970  160.4712 H   0  0  0  0  0  0  0  0  0  0  0  0
  156.9611  135.6912  158.9850 H   0  0  0  0  0  0  0  0  0  0  0  0
  156.9177  133.9382  159.0910 H   0  0  0  0  0  0  0  0  0  0  0  0
  155.7028  136.4052  161.6761 H   0  0  0  0  0  0  0  0  0  0  0  0
  154.0024  136.1008  161.4411 H   0  0  0  0  0  0  0  0  0  0  0  0
  1  2  1  0  0  0  0
  1 20  1  0  0  0  0
  1 21  1  0  0  0  0
  1 22  1  0  0  0  0
  2 19  1  0  0  0  0
  2  3  2  0  0  0  0
  3  4  1  0  0  0  0
  3 23  1  0  0  0  0
  4  5  2  0  0  0  0
  4 24  1  0  0  0  0
  5  6  1  0  0  0  0
  5 25  1  0  0  0  0
  6  7  1  0  0  0  0
  6 19  2  0  0  0  0
  7  8  1  0  0  0  0
  7 26  1  0  0  0  0
  8  9  2  0  0  0  0
  8 10  1  0  0  0  0
 10 11  1  0  0  0  0
 10 27  1  0  0  0  0
 11 18  1  0  0  0  0
 11 12  1  0  0  0  0
 11 28  1  0  0  0  0
 12 13  1  0  0  0  0
 12 29  1  0  0  0  0
 12 30  1  0  0  0  0
 13 14  1  0  0  0  0
 13 31  1  0  0  0  0
 13 32  1  0  0  0  0
 14 15  1  0  0  0  0
 15 16  1  0  0  0  0
 15 17  1  0  0  0  0
 15 18  1  0  0  0  0
 16 33  1  0  0  0  0
 16 34  1  0  0  0  0
 16 35  1  0  0  0  0
 17 36  1  0  0  0  0
 17 37  1  0  0  0  0
 17 38  1  0  0  0  0
 18 39  1  0  0  0  0
 18 40  1  0  0  0  0
M  END
> <s_m_source_file>
AV-unprocessed.smi

> <i_m_source_file_index>
2311

> <i_lp_mmshare_version>
43012

> <i_f3d_flags>
0

> <s_epik_input>
W0NIM11jMVtjSF1bY0hdW2NIXWMobjEpW05IXUMoPU8pW05IXVtDQEBIXShbQ0gyXTIpW0NIMl1bQ0gyXU9DMihbQ0gzXSlbQ0gzXQ==

> <s_epik_cmdline>
J2VwaWtfcHl0aG9uJywgJy1waCcsICc3LjAnLCAnLXRuJywgJzgnLCAnLW1hJywgJzIwMCcsICctbWV0YWxfYmluZGluZycsICctaW1hZScsICc8aW5maWxlLm1hZT4nLCAnLW9tYWUnLCAnPG91dGZpbGUubWFlPic=

> <r_lp_tautomer_probability>
1

> <r_epik_Ionization_Penalty>
8.54628e-05

> <r_epik_Ionization_Penalty_Charging>
0

> <r_epik_Ionization_Penalty_Neutral>
8.54628e-05

> <r_epik_State_Penalty>
-0

> <r_epik_Charging_Adjusted_Penalty>
0

> <i_epik_Tot_Q>
0

> <i_epik_Tot_abs_Q>
0

> <r_epik_Metal_State_Penalty>
-0

> <b_epik_Metal_Only>
0

> <s_lp_Force_Field>
OPLS_2005

> <r_lp_Energy>
12.4956

> <b_lp_Chiralities_Consistent>
1

> <s_lp_Variant>
AV-unprocessed.smi:2311-1

> <Gold.Version>
5.8.1

> <Gold.Id.Protein>
6NUR|6NUR_protein|mol2

> <Gold.PLP.Fitness>
40.8554

> <Gold.PLP.PLP>
-35.1754

> <Gold.PLP.part.hbond>
-2.0000

> <Gold.PLP.part.metal>
0.0000

> <Gold.PLP.part.buried>
-5.3579

> <Gold.PLP.part.nonpolar>
-26.2932

> <Gold.PLP.part.repulsive>
0.0645

> <Gold.PLP.ligand.clash>
0.0000

> <Gold.PLP.ligand.torsion>
0.1601

> <Gold.PLP.Chemscore.Hbond>
2.0000

> <Gold.PLP.Chemscore.CHOScore>
0.0000

> <Gold.PLP.Chemscore.Metal>
0.0000

> <Gold.Chemscore.Hbonds>
donor molecule, donor type, donor heavy atom, donor atom, acceptor molecule, acceptor atom, score
      P1  H  6896  6909       L1    14  1.00
      P1  H  7997  8008       L1     9  1.00

> <Gold.PLP.Chemscore.Internal.Correction>
0.0002

> <Gold.Rescore>
     Score         DG    S(hbond)    S(metal)    S(lipo)     H(rot)  DE(clash)    DE(int)     intcor
     15.76     -18.58       1.68        0.00      85.78       1.00       0.00       2.82       ----

> <Gold.Chemscore.Fitness>
15.7622

> <Gold.Chemscore.DG>
-18.5798

> <Gold.Chemscore.ZeroCoef>
-5.4800

> <Gold.Chemscore.Hbond>
1.6838

> <Gold.Chemscore.Metal>
0.0000

> <Gold.Chemscore.Lipo>
85.7775

> <Gold.Chemscore.Internal_Hbond>
0.0000

> <Gold.Chemscore.DEClash>
0.0019

> <Gold.Chemscore.DEInternal>
2.8158

> <Gold.Chemscore.Rot>
1.0000

> <Gold.Chemscore.Internal.Correction>
   9.000000E+99

> <Gold.Chemscore.Hbonds>
donor molecule, donor type, donor heavy atom, donor atom, acceptor molecule, acceptor atom, score
      P1  H  6896  6909       L1    14  0.46
      P1  H  7997  8008       L1     9  0.98

> <Gold.Chemscore.Hbond.Weighted>
-5.6239

> <Gold.Chemscore.Metal.Weighted>
-0.0000

> <Gold.Chemscore.Lipo.Weighted>
-10.0360

> <Gold.Chemscore.Internal_Hbond.Weighted>
0.0000

> <Gold.Chemscore.DEClash.Weighted>
0.0019

> <Gold.Chemscore.DEInternal.Weighted>
2.8158

> <Gold.Chemscore.Rot.Weighted>
2.5600

> <Gold.Chemscore.Internal.Correction.Weighted>
   9.000000E+99

> <Gold.Protein.RotatedTorsions>
[ 6907 6896 6895 6894 ] final -159.15 input  -60.11 | X-H torsion
[ 7974 7965 7964 7962 ] final  -37.05 input  175.53 | X-H torsion
[ 8008 7997 7996 7995 ] final -107.90 input   59.86 | X-H torsion
[ 10167 10162 10161 10158 ] final   29.37 input  -65.29 | X-H torsion
[ 10718 10713 10712 10709 ] final   32.62 input   66.30 | X-H torsion
[ 10763 10752 10751 10750 ] final -123.21 input  -60.55 | X-H torsion
[ 11005 11000 10999 10996 ] final  138.48 input  -57.11 | X-H torsion

> <Gold.Protein.ActiveResidues>
 VAL166  LYS551  ARG553  GLY616  TRP617  ASP618  TYR619  PRO620  LYS621  CYS622 
 ASP623  PHE694  ASN695  SER759  ASP760  ASP761  ALA762  ILE779  LEU786  VAL792 
 PHE793  MET794  SER795  GLU796  ALA797  LYS798  CYS799  TRP800  GLU811  SER814 

> <Gold.Protein.RotatedAtoms>
  151.3291  133.4008  159.2660 H   0  0  0  0  0  0  0  0  0  0  0  0  # atno 6907 bound_to 6896
  150.9970  134.9292  159.7943 H   0  0  0  0  0  0  0  0  0  0  0  0  # atno 6908 bound_to 6896
  152.5264  134.3256  159.9216 H   0  0  0  0  0  0  0  0  0  0  0  0  # atno 6909 bound_to 6896
  146.0609  140.6350  142.8997 H   0  0  0  0  0  0  0  0  0  0  0  0  # atno 7974 bound_to 7965
  154.9363  140.0404  157.2074 H   0  0  0  0  0  0  0  0  0  0  0  0  # atno 8008 bound_to 7997
  154.8112  140.2868  155.5830 H   0  0  0  0  0  0  0  0  0  0  0  0  # atno 8009 bound_to 7997
  156.2971  140.2536  156.3001 H   0  0  0  0  0  0  0  0  0  0  0  0  # atno 8010 bound_to 7997
  140.4772  144.0672  150.6254 H   0  0  0  0  0  0  0  0  0  0  0  0  # atno 10167 bound_to 10162
  157.2875  130.7286  149.6592 H   0  0  0  0  0  0  0  0  0  0  0  0  # atno 10718 bound_to 10713
  154.8703  135.4106  154.2906 H   0  0  0  0  0  0  0  0  0  0  0  0  # atno 10763 bound_to 10752
  153.3782  135.7010  153.6591 H   0  0  0  0  0  0  0  0  0  0  0  0  # atno 10764 bound_to 10752
  153.5424  135.3645  155.2696 H   0  0  0  0  0  0  0  0  0  0  0  0  # atno 10765 bound_to 10752
  140.0187  134.9407  157.0429 H   0  0  0  0  0  0  0  0  0  0  0  0  # atno 11005 bound_to 11000
  144.7174  140.4257  143.7034 LP  0  0  0  0  0  0  0  0  0  0  0  0  # atno 17320 bound_to 7965
  145.6562  139.1573  143.2834 LP  0  0  0  0  0  0  0  0  0  0  0  0  # atno 17321 bound_to 7965
  140.3903  143.2756  152.0067 LP  0  0  0  0  0  0  0  0  0  0  0  0  # atno 17342 bound_to 10162
  139.4827  144.6082  151.7482 LP  0  0  0  0  0  0  0  0  0  0  0  0  # atno 17343 bound_to 10162
  155.9666  130.4319  150.4939 LP  0  0  0  0  0  0  0  0  0  0  0  0  # atno 17370 bound_to 10713
  157.2895  131.0623  151.2143 LP  0  0  0  0  0  0  0  0  0  0  0  0  # atno 17371 bound_to 10713
  140.4426  134.1665  155.7175 LP  0  0  0  0  0  0  0  0  0  0  0  0  # atno 17394 bound_to 11000
  141.1759  133.8514  157.1421 LP  0  0  0  0  0  0  0  0  0  0  0  0  # atno 17395 bound_to 11000

$$$$
