AV-unprocessed.smi:1920|AV-procd|sdf|7779|dock1
  -GOLD-   22720 9523D 1   1.00000     0.00000
 Structure written by MMmdl.
 37 38  0  0  0  0  0  0  0  0  2 V2000
  150.4894  138.4265  154.9427 C   0  0  0  0  0  0  0  0  0  0  0  0
  149.6851  139.5944  155.5437 C   0  0  2  0  0  0  0  0  0  0  0  0
  149.5733  140.8036  154.5946 C   0  0  0  0  0  0  0  0  0  0  0  0
  148.1870  141.2231  154.3654 N   0  0  0  0  0  0  0  0  0  0  0  0
  147.5126  142.2331  155.0022 C   0  0  0  0  0  0  0  0  0  0  0  0
  146.2525  142.2626  154.4626 C   0  0  0  0  0  0  0  0  0  0  0  0
  146.2122  141.2726  153.5175 N   0  3  0  0  0  0  0  0  0  0  0  0
  147.3904  140.6434  153.4577 C   0  0  0  0  0  0  0  0  0  0  0  0
  150.2869  140.0294  156.8008 N   0  0  0  0  0  0  0  0  0  0  0  0
  151.6002  140.2093  157.0126 C   0  0  0  0  0  0  0  0  0  0  0  0
  152.4567  140.0209  156.1489 O   0  0  0  0  0  0  0  0  0  0  0  0
  152.0088  140.6717  158.4154 C   0  0  0  0  0  0  0  0  0  0  0  0
  151.4574  142.0643  158.7919 C   0  0  1  0  0  0  0  0  0  0  0  0
  152.3067  142.8007  159.8002 C   0  0  0  0  0  0  0  0  0  0  0  0
  152.6596  144.0155  159.3861 C   0  0  0  0  0  0  0  0  0  0  0  0
  152.1220  144.3370  158.0194 C   0  0  0  0  0  0  0  0  0  0  0  0
  151.3988  143.0409  157.5892 C   0  0  0  0  0  0  0  0  0  0  0  0
  150.0165  138.0378  154.0407 H   0  0  0  0  0  0  0  0  0  0  0  0
  150.5668  137.5961  155.6455 H   0  0  0  0  0  0  0  0  0  0  0  0
  151.5023  138.7354  154.6823 H   0  0  0  0  0  0  0  0  0  0  0  0
  148.6732  139.2406  155.7497 H   0  0  0  0  0  0  0  0  0  0  0  0
  150.1076  141.6611  155.0059 H   0  0  0  0  0  0  0  0  0  0  0  0
  150.0299  140.5796  153.6289 H   0  0  0  0  0  0  0  0  0  0  0  0
  147.9675  142.8384  155.7730 H   0  0  0  0  0  0  0  0  0  0  0  0
  145.4047  142.8979  154.6745 H   0  0  0  0  0  0  0  0  0  0  0  0
  147.6451  139.8255  152.8072 H   0  0  0  0  0  0  0  0  0  0  0  0
  149.6579  140.2090  157.5702 H   0  0  0  0  0  0  0  0  0  0  0  0
  151.6831  139.9356  159.1525 H   0  0  0  0  0  0  0  0  0  0  0  0
  153.0984  140.6872  158.4584 H   0  0  0  0  0  0  0  0  0  0  0  0
  150.4587  141.9619  159.2194 H   0  0  0  0  0  0  0  0  0  0  0  0
  152.5714  142.3729  160.7562 H   0  0  0  0  0  0  0  0  0  0  0  0
  153.2542  144.7181  159.9510 H   0  0  0  0  0  0  0  0  0  0  0  0
  151.4361  145.1827  158.0778 H   0  0  0  0  0  0  0  0  0  0  0  0
  152.9347  144.5927  157.3389 H   0  0  0  0  0  0  0  0  0  0  0  0
  151.8950  142.6167  156.7153 H   0  0  0  0  0  0  0  0  0  0  0  0
  150.3672  143.2441  157.2995 H   0  0  0  0  0  0  0  0  0  0  0  0
  145.4081  141.0477  152.9448 H   0  0  0  0  0  0  0  0  0  0  0  0
  1  2  1  0  0  0  0
  1 18  1  0  0  0  0
  1 19  1  0  0  0  0
  1 20  1  0  0  0  0
  2  3  1  0  0  0  0
  2  9  1  0  0  0  0
  2 21  1  0  0  0  0
  3  4  1  0  0  0  0
  3 22  1  0  0  0  0
  3 23  1  0  0  0  0
  4  8  1  0  0  0  0
  4  5  1  0  0  0  0
  5  6  2  0  0  0  0
  5 24  1  0  0  0  0
  6  7  1  0  0  0  0
  6 25  1  0  0  0  0
  7  8  2  0  0  0  0
  7 37  1  0  0  0  0
  8 26  1  0  0  0  0
  9 10  1  0  0  0  0
  9 27  1  0  0  0  0
 10 11  2  0  0  0  0
 10 12  1  0  0  0  0
 12 13  1  0  0  0  0
 12 28  1  0  0  0  0
 12 29  1  0  0  0  0
 13 17  1  0  0  0  0
 13 14  1  0  0  0  0
 13 30  1  0  0  0  0
 14 15  2  0  0  0  0
 14 31  1  0  0  0  0
 15 16  1  0  0  0  0
 15 32  1  0  0  0  0
 16 17  1  0  0  0  0
 16 33  1  0  0  0  0
 16 34  1  0  0  0  0
 17 35  1  0  0  0  0
 17 36  1  0  0  0  0
M  CHG  1   7   1
M  END
> <s_m_source_file>
AV-unprocessed.smi

> <i_m_source_file_index>
1920

> <i_lp_mmshare_version>
43012

> <i_f3d_flags>
0

> <s_epik_input>
W2NIXTFuW2NIXVtjSF1uMVtDSDJdW0NAQEhdKFtDSDNdKVtOSF1DKD1PKVtDSDJdW0NAQEhdMltDSF09W0NIXVtDSDJdW0NIMl0y

> <s_epik_cmdline>
J2VwaWtfcHl0aG9uJywgJy1waCcsICc3LjAnLCAnLXRuJywgJzgnLCAnLW1hJywgJzIwMCcsICctbWV0YWxfYmluZGluZycsICctaW1hZScsICc8aW5maWxlLm1hZT4nLCAnLW9tYWUnLCAnPG91dGZpbGUubWFlPic=

> <r_lp_tautomer_probability>
1

> <r_epik_Ionization_Penalty>
0.24816

> <r_epik_Ionization_Penalty_Charging>
0

> <r_epik_Ionization_Penalty_Neutral>
0.24816

> <r_epik_State_Penalty>
0.2394

> <r_epik_Charging_Adjusted_Penalty>
0.2394

> <i_epik_Tot_Q>
1

> <i_epik_Tot_abs_Q>
1

> <r_epik_Metal_State_Penalty>
0.531457

> <b_epik_Metal_Only>
0

> <s_lp_Force_Field>
OPLS_2005

> <r_lp_Energy>
20.8449

> <b_lp_Chiralities_Consistent>
1

> <s_lp_Variant>
AV-unprocessed.smi:1920-3

> <Gold.Version>
5.8.1

> <Gold.Id.Protein>
6NUR|6NUR_protein|mol2

> <Gold.PLP.Fitness>
49.3988

> <Gold.PLP.PLP>
-37.9792

> <Gold.PLP.part.hbond>
-2.0000

> <Gold.PLP.part.metal>
0.0000

> <Gold.PLP.part.buried>
0.9380

> <Gold.PLP.part.nonpolar>
-37.0769

> <Gold.PLP.part.repulsive>
0.0466

> <Gold.PLP.ligand.clash>
0.0000

> <Gold.PLP.ligand.torsion>
1.5992

> <Gold.PLP.Chemscore.Hbond>
3.0000

> <Gold.PLP.Chemscore.CHOScore>
1.8468

> <Gold.PLP.Chemscore.Metal>
0.0000

> <Gold.Chemscore.Hbonds>
donor molecule, donor type, donor heavy atom, donor atom, acceptor molecule, acceptor atom, score
      L1  H     7    37       P1 10175  1.90
      P1  H  7997  8009       L1    11  1.00
      L1  C     5    24       P1  8028  1.00
      L1  C     8    26       P1  7957  0.76

> <Gold.PLP.Chemscore.Internal.Correction>
0.0775

> <Gold.Rescore>
     Score         DG    S(hbond)    S(metal)    S(lipo)     H(rot)  DE(clash)    DE(int)     intcor
     14.43     -17.92       1.95        0.00      94.64       2.01       0.74       2.75       ----

> <Gold.Chemscore.Fitness>
14.4348

> <Gold.Chemscore.DG>
-17.9179

> <Gold.Chemscore.ZeroCoef>
-5.4800

> <Gold.Chemscore.Hbond>
1.9515

> <Gold.Chemscore.Metal>
0.0000

> <Gold.Chemscore.Lipo>
94.6430

> <Gold.Chemscore.Internal_Hbond>
0.0000

> <Gold.Chemscore.DEClash>
0.7371

> <Gold.Chemscore.DEInternal>
2.7461

> <Gold.Chemscore.Rot>
2.0130

> <Gold.Chemscore.Internal.Correction>
   9.000000E+99

> <Gold.Chemscore.Hbonds>
donor molecule, donor type, donor heavy atom, donor atom, acceptor molecule, acceptor atom, score
      L1  H     7    37       P1 10175  0.21
      P1  H  7997  8009       L1    11  0.99

> <Gold.Chemscore.Hbond.Weighted>
-6.5180

> <Gold.Chemscore.Metal.Weighted>
-0.0000

> <Gold.Chemscore.Lipo.Weighted>
-11.0732

> <Gold.Chemscore.Internal_Hbond.Weighted>
0.0000

> <Gold.Chemscore.DEClash.Weighted>
0.7371

> <Gold.Chemscore.DEInternal.Weighted>
2.7461

> <Gold.Chemscore.Rot.Weighted>
5.1533

> <Gold.Chemscore.Internal.Correction.Weighted>
   9.000000E+99

> <Gold.Protein.RotatedTorsions>
[ 6907 6896 6895 6894 ] final   25.83 input  -60.11 | X-H torsion
[ 7974 7965 7964 7962 ] final  116.45 input  175.53 | X-H torsion
[ 8008 7997 7996 7995 ] final -154.32 input   59.86 | X-H torsion
[ 10167 10162 10161 10158 ] final  138.44 input  -65.29 | X-H torsion
[ 10718 10713 10712 10709 ] final   29.51 input   66.30 | X-H torsion
[ 10763 10752 10751 10750 ] final  -85.39 input  -60.55 | X-H torsion
[ 11005 11000 10999 10996 ] final   53.96 input  -57.11 | X-H torsion

> <Gold.Protein.ActiveResidues>
 VAL166  LYS551  ARG553  GLY616  TRP617  ASP618  TYR619  PRO620  LYS621  CYS622 
 ASP623  PHE694  ASN695  SER759  ASP760  ASP761  ALA762  ILE779  LEU786  VAL792 
 PHE793  MET794  SER795  GLU796  ALA797  LYS798  CYS799  TRP800  GLU811  SER814 

> <Gold.Protein.RotatedAtoms>
  151.9784  135.0041  160.0555 H   0  0  0  0  0  0  0  0  0  0  0  0  # atno 6907 bound_to 6896
  152.1719  133.4644  159.4922 H   0  0  0  0  0  0  0  0  0  0  0  0  # atno 6908 bound_to 6896
  150.6903  134.1860  159.4310 H   0  0  0  0  0  0  0  0  0  0  0  0  # atno 6909 bound_to 6896
  145.1795  139.3058  143.4425 H   0  0  0  0  0  0  0  0  0  0  0  0  # atno 7974 bound_to 7965
  155.6845  140.0748  157.2472 H   0  0  0  0  0  0  0  0  0  0  0  0  # atno 8008 bound_to 7997
  154.4099  140.1676  156.2071 H   0  0  0  0  0  0  0  0  0  0  0  0  # atno 8009 bound_to 7997
  155.9506  140.3377  155.6407 H   0  0  0  0  0  0  0  0  0  0  0  0  # atno 8010 bound_to 7997
  139.5110  144.6353  151.5713 H   0  0  0  0  0  0  0  0  0  0  0  0  # atno 10167 bound_to 10162
  157.2475  130.7099  149.6388 H   0  0  0  0  0  0  0  0  0  0  0  0  # atno 10718 bound_to 10713
  154.6106  135.5486  153.7469 H   0  0  0  0  0  0  0  0  0  0  0  0  # atno 10763 bound_to 10752
  153.0193  135.6388  154.1584 H   0  0  0  0  0  0  0  0  0  0  0  0  # atno 10764 bound_to 10752
  154.1522  135.2902  155.3112 H   0  0  0  0  0  0  0  0  0  0  0  0  # atno 10765 bound_to 10752
  140.0725  134.5450  155.9031 H   0  0  0  0  0  0  0  0  0  0  0  0  # atno 11005 bound_to 11000
  146.3455  140.1969  142.8589 LP  0  0  0  0  0  0  0  0  0  0  0  0  # atno 17320 bound_to 7965
  145.0151  140.8747  143.5200 LP  0  0  0  0  0  0  0  0  0  0  0  0  # atno 17321 bound_to 7965
  140.6100  143.9454  150.6446 LP  0  0  0  0  0  0  0  0  0  0  0  0  # atno 17342 bound_to 10162
  140.2694  143.3467  152.1252 LP  0  0  0  0  0  0  0  0  0  0  0  0  # atno 17343 bound_to 10162
  155.9667  130.4438  150.5437 LP  0  0  0  0  0  0  0  0  0  0  0  0  # atno 17370 bound_to 10713
  157.3314  131.0700  151.1858 LP  0  0  0  0  0  0  0  0  0  0  0  0  # atno 17371 bound_to 10713
  141.2017  133.6620  156.5966 LP  0  0  0  0  0  0  0  0  0  0  0  0  # atno 17394 bound_to 11000
  140.3606  134.7691  157.4531 LP  0  0  0  0  0  0  0  0  0  0  0  0  # atno 17395 bound_to 11000

$$$$
