AV-unprocessed.smi:702|AV-procd|sdf|3424|dock3
  -GOLD-   22720 0403D 1   1.00000     0.00000
 Structure written by MMmdl.
 50 52  0  0  0  0  0  0  0  0  4 V2000
  152.6847  138.5176  154.5069 C   0  0  0  0  0  0  0  0  0  0  0  0
  151.2039  138.9064  154.3276 C   0  0  2  0  0  0  0  0  0  0  0  0
  150.9780  140.1994  154.9908 N   0  5  0  0  0  0  0  0  0  0  0  0
  151.5587  140.5979  156.1543 C   0  0  0  0  0  0  0  0  0  0  0  0
  152.4239  140.0032  156.8066 O   0  0  0  0  0  0  0  0  0  0  0  0
  151.1030  141.7953  156.5631 N   0  0  0  0  0  0  0  0  0  0  0  0
  151.4515  142.5314  157.7270 C   0  0  0  0  0  0  0  0  0  0  0  0
  150.8730  143.8085  157.8961 C   0  0  0  0  0  0  0  0  0  0  0  0
  151.1788  144.5620  159.0474 C   0  0  0  0  0  0  0  0  0  0  0  0
  152.0088  144.0533  159.9835 N   0  3  0  0  0  0  0  0  0  0  0  0
  152.5700  142.8298  159.8746 C   0  0  0  0  0  0  0  0  0  0  0  0
  152.3015  142.0304  158.7452 C   0  0  0  0  0  0  0  0  0  0  0  0
  150.1960  137.7945  154.8611 C   0  0  0  0  0  0  0  0  0  0  0  0
  148.8298  137.9269  154.1873 N   0  3  0  0  0  0  0  0  0  0  0  0
  147.7254  137.0961  154.7583 C   0  0  0  0  0  0  0  0  0  0  0  0
  146.5219  137.0717  153.8039 C   0  0  0  0  0  0  0  0  0  0  0  0
  146.0419  138.3951  153.6204 O   0  0  0  0  0  0  0  0  0  0  0  0
  147.0316  139.2365  153.0478 C   0  0  0  0  0  0  0  0  0  0  0  0
  148.2648  139.3029  153.9659 C   0  0  0  0  0  0  0  0  0  0  0  0
  150.7978  136.3601  154.5989 C   0  0  0  0  0  0  0  0  0  0  0  0
  150.8071  135.5906  155.9283 C   0  0  0  0  0  0  0  0  0  0  0  0
  149.9450  136.3844  156.9029 C   0  0  0  0  0  0  0  0  0  0  0  0
  150.0259  137.8345  156.4180 C   0  0  0  0  0  0  0  0  0  0  0  0
  152.9204  137.5868  153.9917 H   0  0  0  0  0  0  0  0  0  0  0  0
  152.9494  138.3910  155.5569 H   0  0  0  0  0  0  0  0  0  0  0  0
  153.3418  139.2839  154.0941 H   0  0  0  0  0  0  0  0  0  0  0  0
  151.0319  139.0060  153.2567 H   0  0  0  0  0  0  0  0  0  0  0  0
  150.4818  142.2632  155.9191 H   0  0  0  0  0  0  0  0  0  0  0  0
  150.2075  144.2126  157.1470 H   0  0  0  0  0  0  0  0  0  0  0  0
  150.7861  145.5482  159.2469 H   0  0  0  0  0  0  0  0  0  0  0  0
  153.2075  142.5255  160.6917 H   0  0  0  0  0  0  0  0  0  0  0  0
  152.7395  141.0457  158.6819 H   0  0  0  0  0  0  0  0  0  0  0  0
  148.0085  136.0666  154.9589 H   0  0  0  0  0  0  0  0  0  0  0  0
  147.4037  137.5188  155.7102 H   0  0  0  0  0  0  0  0  0  0  0  0
  146.7895  136.6250  152.8450 H   0  0  0  0  0  0  0  0  0  0  0  0
  145.7201  136.4660  154.2266 H   0  0  0  0  0  0  0  0  0  0  0  0
  147.3059  138.8729  152.0561 H   0  0  0  0  0  0  0  0  0  0  0  0
  146.6090  140.2326  152.9149 H   0  0  0  0  0  0  0  0  0  0  0  0
  147.9859  139.7572  154.9167 H   0  0  0  0  0  0  0  0  0  0  0  0
  148.9558  139.9931  153.4875 H   0  0  0  0  0  0  0  0  0  0  0  0
  150.2590  135.8158  153.8254 H   0  0  0  0  0  0  0  0  0  0  0  0
  151.8234  136.3353  154.2224 H   0  0  0  0  0  0  0  0  0  0  0  0
  150.4592  134.5637  155.8148 H   0  0  0  0  0  0  0  0  0  0  0  0
  151.8285  135.5468  156.3090 H   0  0  0  0  0  0  0  0  0  0  0  0
  148.9200  136.0197  156.8746 H   0  0  0  0  0  0  0  0  0  0  0  0
  150.2884  136.2772  157.9322 H   0  0  0  0  0  0  0  0  0  0  0  0
  150.8795  138.2783  156.9346 H   0  0  0  0  0  0  0  0  0  0  0  0
  149.1638  138.4107  156.7509 H   0  0  0  0  0  0  0  0  0  0  0  0
  148.9883  137.5574  153.2611 H   0  0  0  0  0  0  0  0  0  0  0  0
  152.2160  144.6143  160.8100 H   0  0  0  0  0  0  0  0  0  0  0  0
  1  2  1  0  0  0  0
  1 24  1  0  0  0  0
  1 25  1  0  0  0  0
  1 26  1  0  0  0  0
  2  3  1  0  0  0  0
  2 13  1  0  0  0  0
  2 27  1  0  0  0  0
  3  4  1  0  0  0  0
  4  5  2  0  0  0  0
  4  6  1  0  0  0  0
  6  7  1  0  0  0  0
  6 28  1  0  0  0  0
  7 12  1  0  0  0  0
  7  8  2  0  0  0  0
  8  9  1  0  0  0  0
  8 29  1  0  0  0  0
  9 10  2  0  0  0  0
  9 30  1  0  0  0  0
 10 11  1  0  0  0  0
 10 50  1  0  0  0  0
 11 12  2  0  0  0  0
 11 31  1  0  0  0  0
 12 32  1  0  0  0  0
 13 23  1  0  0  0  0
 13 14  1  0  0  0  0
 13 20  1  0  0  0  0
 14 19  1  0  0  0  0
 14 15  1  0  0  0  0
 14 49  1  0  0  0  0
 15 16  1  0  0  0  0
 15 33  1  0  0  0  0
 15 34  1  0  0  0  0
 16 17  1  0  0  0  0
 16 35  1  0  0  0  0
 16 36  1  0  0  0  0
 17 18  1  0  0  0  0
 18 19  1  0  0  0  0
 18 37  1  0  0  0  0
 18 38  1  0  0  0  0
 19 39  1  0  0  0  0
 19 40  1  0  0  0  0
 20 21  1  0  0  0  0
 20 41  1  0  0  0  0
 20 42  1  0  0  0  0
 21 22  1  0  0  0  0
 21 43  1  0  0  0  0
 21 44  1  0  0  0  0
 22 23  1  0  0  0  0
 22 45  1  0  0  0  0
 22 46  1  0  0  0  0
 23 47  1  0  0  0  0
 23 48  1  0  0  0  0
M  CHG  1   3  -1
M  CHG  1  10   1
M  CHG  1  14   1
M  END
> <s_m_source_file>
AV-unprocessed.smi

> <i_m_source_file_index>
702

> <i_lp_mmshare_version>
43012

> <i_f3d_flags>
0

> <s_epik_input>
W0NIMl0xW0NIMl1PW0NIMl1bQ0gyXU4xQzIoW0NIMl1bQ0gyXVtDSDJdW0NIMl0yKVtDQEhdKFtDSDNdKVtOSF1DKD1PKVtOSF1jM1tjSF1bY0hdbltjSF1bY0hdMw==

> <s_epik_cmdline>
J2VwaWtfcHl0aG9uJywgJy1waCcsICc3LjAnLCAnLXRuJywgJzgnLCAnLW1hJywgJzIwMCcsICctbWV0YWxfYmluZGluZycsICctaW1hZScsICc8aW5maWxlLm1hZT4nLCAnLW9tYWUnLCAnPG91dGZpbGUubWFlPic=

> <r_epik_Ionization_Penalty>
8.33674

> <r_epik_Ionization_Penalty_Charging>
8.33674

> <r_epik_Ionization_Penalty_Neutral>
3.60854e-06

> <r_epik_State_Penalty>
8.24268

> <r_epik_Charging_Adjusted_Penalty>
16.5794

> <i_epik_Tot_Q>
1

> <i_epik_Tot_abs_Q>
3

> <r_epik_Metal_State_Penalty>
4.24853

> <b_epik_Metal_Only>
1

> <s_lp_Force_Field>
OPLS_2005

> <r_lp_Energy>
64.6776

> <b_lp_Chiralities_Consistent>
1

> <s_lp_Variant>
AV-unprocessed.smi:702-9

> <Gold.Version>
5.8.1

> <Gold.Id.Protein>
6NUR|6NUR_protein|mol2

> <Gold.PLP.Fitness>
45.1364

> <Gold.PLP.PLP>
-37.0820

> <Gold.PLP.part.hbond>
-3.0000

> <Gold.PLP.part.metal>
0.0000

> <Gold.PLP.part.buried>
-3.4857

> <Gold.PLP.part.nonpolar>
-29.7154

> <Gold.PLP.part.repulsive>
0.3794

> <Gold.PLP.ligand.clash>
0.0000

> <Gold.PLP.ligand.torsion>
1.3833

> <Gold.PLP.Chemscore.Hbond>
3.5000

> <Gold.PLP.Chemscore.CHOScore>
0.0000

> <Gold.PLP.Chemscore.Metal>
0.0000

> <Gold.Chemscore.Hbonds>
donor molecule, donor type, donor heavy atom, donor atom, acceptor molecule, acceptor atom, score
      L1  H    14    49       P1  7948  2.00
      P1  H  7989  7998       L1     3  0.20
      P1  H  7997  8009       L1     5  1.00

> <Gold.PLP.Chemscore.Internal.Correction>
0.3209

> <Gold.Rescore>
     Score         DG    S(hbond)    S(metal)    S(lipo)     H(rot)  DE(clash)    DE(int)     intcor
     16.23     -20.53       1.99        0.00     103.63       1.45       0.01       4.29       ----

> <Gold.Chemscore.Fitness>
16.2300

> <Gold.Chemscore.DG>
-20.5350

> <Gold.Chemscore.ZeroCoef>
-5.4800

> <Gold.Chemscore.Hbond>
1.9888

> <Gold.Chemscore.Metal>
0.0000

> <Gold.Chemscore.Lipo>
103.6347

> <Gold.Chemscore.Internal_Hbond>
0.0000

> <Gold.Chemscore.DEClash>
0.0133

> <Gold.Chemscore.DEInternal>
4.2917

> <Gold.Chemscore.Rot>
1.4504

> <Gold.Chemscore.Internal.Correction>
   9.000000E+99

> <Gold.Chemscore.Hbonds>
donor molecule, donor type, donor heavy atom, donor atom, acceptor molecule, acceptor atom, score
      L1  H    14    49       P1  7948  0.99
      P1  H  7997  8009       L1     5  0.98

> <Gold.Chemscore.Hbond.Weighted>
-6.6426

> <Gold.Chemscore.Metal.Weighted>
-0.0000

> <Gold.Chemscore.Lipo.Weighted>
-12.1253

> <Gold.Chemscore.Internal_Hbond.Weighted>
0.0000

> <Gold.Chemscore.DEClash.Weighted>
0.0133

> <Gold.Chemscore.DEInternal.Weighted>
4.2917

> <Gold.Chemscore.Rot.Weighted>
3.7129

> <Gold.Chemscore.Internal.Correction.Weighted>
   9.000000E+99

> <Gold.Protein.RotatedTorsions>
[ 6907 6896 6895 6894 ] final   26.14 input  -60.11 | X-H torsion
[ 7974 7965 7964 7962 ] final  -48.89 input  175.53 | X-H torsion
[ 8008 7997 7996 7995 ] final -175.18 input   59.86 | X-H torsion
[ 10167 10162 10161 10158 ] final -120.36 input  -65.29 | X-H torsion
[ 10718 10713 10712 10709 ] final -148.38 input   66.30 | X-H torsion
[ 10763 10752 10751 10750 ] final    9.65 input  -60.55 | X-H torsion
[ 11005 11000 10999 10996 ] final  137.31 input  -57.11 | X-H torsion

> <Gold.Protein.ActiveResidues>
 VAL166  LYS551  ARG553  GLY616  TRP617  ASP618  TYR619  PRO620  LYS621  CYS622 
 ASP623  PHE694  ASN695  SER759  ASP760  ASP761  ALA762  ILE779  LEU786  VAL792 
 PHE793  MET794  SER795  GLU796  ALA797  LYS798  CYS799  TRP800  GLU811  SER814 

> <Gold.Protein.RotatedAtoms>
  151.9831  135.0018  160.0558 H   0  0  0  0  0  0  0  0  0  0  0  0  # atno 6907 bound_to 6896
  152.1678  133.4619  159.4902 H   0  0  0  0  0  0  0  0  0  0  0  0  # atno 6908 bound_to 6896
  150.6897  134.1909  159.4327 H   0  0  0  0  0  0  0  0  0  0  0  0  # atno 6909 bound_to 6896
  145.9464  140.7614  142.9526 H   0  0  0  0  0  0  0  0  0  0  0  0  # atno 7974 bound_to 7965
  155.9794  140.1178  157.0740 H   0  0  0  0  0  0  0  0  0  0  0  0  # atno 8008 bound_to 7997
  154.4178  140.1147  156.5482 H   0  0  0  0  0  0  0  0  0  0  0  0  # atno 8009 bound_to 7997
  155.6491  140.3473  155.4744 H   0  0  0  0  0  0  0  0  0  0  0  0  # atno 8010 bound_to 7997
  140.0367  143.5194  152.2150 H   0  0  0  0  0  0  0  0  0  0  0  0  # atno 10167 bound_to 10162
  156.4196  130.8022  151.2244 H   0  0  0  0  0  0  0  0  0  0  0  0  # atno 10718 bound_to 10713
  153.2117  135.6870  153.8106 H   0  0  0  0  0  0  0  0  0  0  0  0  # atno 10763 bound_to 10752
  153.7336  135.3249  155.3292 H   0  0  0  0  0  0  0  0  0  0  0  0  # atno 10764 bound_to 10752
  154.8225  135.4641  154.0927 H   0  0  0  0  0  0  0  0  0  0  0  0  # atno 10765 bound_to 10752
  140.0106  134.9441  157.0268 H   0  0  0  0  0  0  0  0  0  0  0  0  # atno 11005 bound_to 11000
  144.6788  140.2363  143.7349 LP  0  0  0  0  0  0  0  0  0  0  0  0  # atno 17320 bound_to 7965
  145.8231  139.2052  143.1926 LP  0  0  0  0  0  0  0  0  0  0  0  0  # atno 17321 bound_to 7965
  139.6040  144.7591  151.3104 LP  0  0  0  0  0  0  0  0  0  0  0  0  # atno 17342 bound_to 10162
  140.7278  143.6952  150.7889 LP  0  0  0  0  0  0  0  0  0  0  0  0  # atno 17343 bound_to 10162
  157.7508  131.0232  150.3825 LP  0  0  0  0  0  0  0  0  0  0  0  0  # atno 17370 bound_to 10713
  156.4140  130.3939  149.6871 LP  0  0  0  0  0  0  0  0  0  0  0  0  # atno 17371 bound_to 10713
  140.4562  134.1531  155.7186 LP  0  0  0  0  0  0  0  0  0  0  0  0  # atno 17394 bound_to 11000
  141.1708  133.8613  157.1577 LP  0  0  0  0  0  0  0  0  0  0  0  0  # atno 17395 bound_to 11000

$$$$
