AV-unprocessed.smi:1228|AV-procd|sdf|5149|dock6
  -GOLD-   22720 4223D 1   1.00000     0.00000
 Structure written by MMmdl.
 43 45  0  0  0  0  0  0  0  0  1 V2000
  148.1576  129.3456  154.9505 C   0  0  0  0  0  0  0  0  0  0  0  0
  148.1431  130.7713  154.4838 C   0  0  0  0  0  0  0  0  0  0  0  0
  148.9736  131.8454  154.9177 C   0  0  0  0  0  0  0  0  0  0  0  0
  148.5257  132.8959  154.1640 C   0  0  0  0  0  0  0  0  0  0  0  0
  148.9570  134.1853  154.1517 N   0  0  0  0  0  0  0  0  0  0  0  0
  149.6835  134.8378  155.0759 C   0  0  0  0  0  0  0  0  0  0  0  0
  150.0943  134.3571  156.1324 O   0  0  0  0  0  0  0  0  0  0  0  0
  149.9122  136.1054  154.7034 N   0  0  0  0  0  0  0  0  0  0  0  0
  150.6694  137.0863  155.4753 C   0  0  0  0  0  0  0  0  0  0  0  0
  149.8592  137.5762  156.6887 C   0  0  0  0  0  0  0  0  0  0  0  0
  150.5861  138.7226  157.4134 C   0  0  0  0  0  0  0  0  0  0  0  0
  150.8251  139.8341  156.4921 N   0  0  0  0  0  0  0  0  0  0  0  0
  151.4730  140.9140  157.2185 C   0  0  0  0  0  0  0  0  0  0  0  0
  150.5974  141.8133  158.0607 C   0  0  0  0  0  0  0  0  0  0  0  0
  151.1874  142.3293  156.7705 C   0  0  0  0  0  0  0  0  0  0  0  0
  151.7046  139.3995  155.4068 C   0  0  0  0  0  0  0  0  0  0  0  0
  151.0246  138.2888  154.5869 C   0  0  0  0  0  0  0  0  0  0  0  0
  147.5045  132.4566  153.3511 N   0  0  0  0  0  0  0  0  0  0  0  0
  146.7193  133.1921  152.3789 C   0  0  0  0  0  0  0  0  0  0  0  0
  147.2718  131.1414  153.5519 N   0  0  0  0  0  0  0  0  0  0  0  0
  148.9420  129.1810  155.6895 H   0  0  0  0  0  0  0  0  0  0  0  0
  148.3362  128.6618  154.1204 H   0  0  0  0  0  0  0  0  0  0  0  0
  147.2072  129.0731  155.4097 H   0  0  0  0  0  0  0  0  0  0  0  0
  149.7597  131.8254  155.6574 H   0  0  0  0  0  0  0  0  0  0  0  0
  148.6921  134.7188  153.3369 H   0  0  0  0  0  0  0  0  0  0  0  0
  149.5359  136.4172  153.8200 H   0  0  0  0  0  0  0  0  0  0  0  0
  151.5990  136.6330  155.8257 H   0  0  0  0  0  0  0  0  0  0  0  0
  148.8742  137.9184  156.3676 H   0  0  0  0  0  0  0  0  0  0  0  0
  149.6891  136.7541  157.3848 H   0  0  0  0  0  0  0  0  0  0  0  0
  149.9756  139.0672  158.2490 H   0  0  0  0  0  0  0  0  0  0  0  0
  151.5304  138.3690  157.8308 H   0  0  0  0  0  0  0  0  0  0  0  0
  152.4753  140.7465  157.6098 H   0  0  0  0  0  0  0  0  0  0  0  0
  149.5275  141.6138  158.0779 H   0  0  0  0  0  0  0  0  0  0  0  0
  151.0158  142.1900  158.9918 H   0  0  0  0  0  0  0  0  0  0  0  0
  151.9987  143.0509  156.8419 H   0  0  0  0  0  0  0  0  0  0  0  0
  150.5090  142.4725  155.9314 H   0  0  0  0  0  0  0  0  0  0  0  0
  151.9268  140.2465  154.7566 H   0  0  0  0  0  0  0  0  0  0  0  0
  152.6555  139.0465  155.8090 H   0  0  0  0  0  0  0  0  0  0  0  0
  151.6830  137.9734  153.7768 H   0  0  0  0  0  0  0  0  0  0  0  0
  150.1238  138.6872  154.1171 H   0  0  0  0  0  0  0  0  0  0  0  0
  146.3029  134.0864  152.8437 H   0  0  0  0  0  0  0  0  0  0  0  0
  145.9005  132.5775  152.0025 H   0  0  0  0  0  0  0  0  0  0  0  0
  147.3550  133.4864  151.5436 H   0  0  0  0  0  0  0  0  0  0  0  0
  1  2  1  0  0  0  0
  1 21  1  0  0  0  0
  1 22  1  0  0  0  0
  1 23  1  0  0  0  0
  2 20  2  0  0  0  0
  2  3  1  0  0  0  0
  3  4  2  0  0  0  0
  3 24  1  0  0  0  0
  4  5  1  0  0  0  0
  4 18  1  0  0  0  0
  5  6  1  0  0  0  0
  5 25  1  0  0  0  0
  6  7  2  0  0  0  0
  6  8  1  0  0  0  0
  8  9  1  0  0  0  0
  8 26  1  0  0  0  0
  9 17  1  0  0  0  0
  9 10  1  0  0  0  0
  9 27  1  0  0  0  0
 10 11  1  0  0  0  0
 10 28  1  0  0  0  0
 10 29  1  0  0  0  0
 11 12  1  0  0  0  0
 11 30  1  0  0  0  0
 11 31  1  0  0  0  0
 12 13  1  0  0  0  0
 12 16  1  0  0  0  0
 13 15  1  0  0  0  0
 13 14  1  0  0  0  0
 13 32  1  0  0  0  0
 14 15  1  0  0  0  0
 14 33  1  0  0  0  0
 14 34  1  0  0  0  0
 15 35  1  0  0  0  0
 15 36  1  0  0  0  0
 16 17  1  0  0  0  0
 16 37  1  0  0  0  0
 16 38  1  0  0  0  0
 17 39  1  0  0  0  0
 17 40  1  0  0  0  0
 18 19  1  0  0  0  0
 18 20  1  0  0  0  0
 19 41  1  0  0  0  0
 19 42  1  0  0  0  0
 19 43  1  0  0  0  0
M  END
> <s_m_source_file>
AV-unprocessed.smi

> <i_m_source_file_index>
1228

> <i_lp_mmshare_version>
43012

> <i_f3d_flags>
0

> <s_epik_input>
W0NIM11jMVtjSF1jKG4objEpW0NIM10pW05IXUMoPU8pW05IXVtDSF0yW0NIMl1bQ0gyXU4oW0NIMl1bQ0gyXTIpW0NIXTNbQ0gyXVtDSDJdMw==

> <s_epik_cmdline>
J2VwaWtfcHl0aG9uJywgJy1waCcsICc3LjAnLCAnLXRuJywgJzgnLCAnLW1hJywgJzIwMCcsICctbWV0YWxfYmluZGluZycsICctaW1hZScsICc8aW5maWxlLm1hZT4nLCAnLW9tYWUnLCAnPG91dGZpbGUubWFlPic=

> <r_lp_tautomer_probability>
1

> <r_epik_Ionization_Penalty>
1.01084

> <r_epik_Ionization_Penalty_Charging>
0

> <r_epik_Ionization_Penalty_Neutral>
1.01084

> <r_epik_State_Penalty>
1.06014

> <r_epik_Charging_Adjusted_Penalty>
1.06014

> <i_epik_Tot_Q>
0

> <i_epik_Tot_abs_Q>
0

> <r_epik_Metal_State_Penalty>
1.06013

> <b_epik_Metal_Only>
0

> <s_lp_Force_Field>
OPLS_2005

> <r_lp_Energy>
22.8061

> <b_lp_Chiralities_Consistent>
1

> <s_lp_Variant>
AV-unprocessed.smi:1228-3

> <Gold.Version>
5.8.1

> <Gold.Id.Protein>
6NUR|6NUR_protein|mol2

> <Gold.PLP.Fitness>
39.2569

> <Gold.PLP.PLP>
-34.1206

> <Gold.PLP.part.hbond>
-2.5370

> <Gold.PLP.part.metal>
0.0000

> <Gold.PLP.part.buried>
-3.7266

> <Gold.PLP.part.nonpolar>
-28.5097

> <Gold.PLP.part.repulsive>
0.3191

> <Gold.PLP.ligand.clash>
0.0000

> <Gold.PLP.ligand.torsion>
0.8298

> <Gold.PLP.Chemscore.Hbond>
1.8760

> <Gold.PLP.Chemscore.CHOScore>
0.0000

> <Gold.PLP.Chemscore.Metal>
0.0000

> <Gold.Chemscore.Hbonds>
donor molecule, donor type, donor heavy atom, donor atom, acceptor molecule, acceptor atom, score
      L1  H     5    25       P1  7948  0.84
      L1  H     8    26       P1  7948  1.00

> <Gold.PLP.Chemscore.Internal.Correction>
1.1678

> <Gold.Rescore>
     Score         DG    S(hbond)    S(metal)    S(lipo)     H(rot)  DE(clash)    DE(int)     intcor
     13.38     -14.36       1.36        0.00      63.12       1.19       0.01       0.97       ----

> <Gold.Chemscore.Fitness>
13.3791

> <Gold.Chemscore.DG>
-14.3609

> <Gold.Chemscore.ZeroCoef>
-5.4800

> <Gold.Chemscore.Hbond>
1.3637

> <Gold.Chemscore.Metal>
0.0000

> <Gold.Chemscore.Lipo>
63.1193

> <Gold.Chemscore.Internal_Hbond>
0.0000

> <Gold.Chemscore.DEClash>
0.0126

> <Gold.Chemscore.DEInternal>
0.9692

> <Gold.Chemscore.Rot>
1.1948

> <Gold.Chemscore.Internal.Correction>
   9.000000E+99

> <Gold.Chemscore.Hbonds>
donor molecule, donor type, donor heavy atom, donor atom, acceptor molecule, acceptor atom, score
      L1  H     5    25       P1  7948  0.32
      L1  H     8    26       P1  7948  0.65

> <Gold.Chemscore.Hbond.Weighted>
-4.5547

> <Gold.Chemscore.Metal.Weighted>
-0.0000

> <Gold.Chemscore.Lipo.Weighted>
-7.3850

> <Gold.Chemscore.Internal_Hbond.Weighted>
0.0000

> <Gold.Chemscore.DEClash.Weighted>
0.0126

> <Gold.Chemscore.DEInternal.Weighted>
0.9692

> <Gold.Chemscore.Rot.Weighted>
3.0587

> <Gold.Chemscore.Internal.Correction.Weighted>
   9.000000E+99

> <Gold.Protein.RotatedTorsions>
[ 6907 6896 6895 6894 ] final  -79.01 input  -60.11 | X-H torsion
[ 7974 7965 7964 7962 ] final  -43.55 input  175.53 | X-H torsion
[ 8008 7997 7996 7995 ] final -146.32 input   59.86 | X-H torsion
[ 10167 10162 10161 10158 ] final -130.09 input  -65.29 | X-H torsion
[ 10718 10713 10712 10709 ] final -116.82 input   66.30 | X-H torsion
[ 10763 10752 10751 10750 ] final -114.29 input  -60.55 | X-H torsion
[ 11005 11000 10999 10996 ] final  -71.54 input  -57.11 | X-H torsion

> <Gold.Protein.ActiveResidues>
 VAL166  LYS551  ARG553  GLY616  TRP617  ASP618  TYR619  PRO620  LYS621  CYS622 
 ASP623  PHE694  ASN695  SER759  ASP760  ASP761  ALA762  ILE779  LEU786  VAL792 
 PHE793  MET794  SER795  GLU796  ALA797  LYS798  CYS799  TRP800  GLU811  SER814 

> <Gold.Protein.RotatedAtoms>
  150.6959  134.4185  159.5193 H   0  0  0  0  0  0  0  0  0  0  0  0  # atno 6907 bound_to 6896
  152.1932  134.8651  160.0524 H   0  0  0  0  0  0  0  0  0  0  0  0  # atno 6908 bound_to 6896
  151.9598  133.3657  159.4068 H   0  0  0  0  0  0  0  0  0  0  0  0  # atno 6909 bound_to 6896
  146.0008  140.7076  142.9271 H   0  0  0  0  0  0  0  0  0  0  0  0  # atno 7974 bound_to 7965
  155.5574  140.0622  157.2836 H   0  0  0  0  0  0  0  0  0  0  0  0  # atno 8008 bound_to 7997
  154.4401  140.1891  156.0793 H   0  0  0  0  0  0  0  0  0  0  0  0  # atno 8009 bound_to 7997
  156.0472  140.3288  155.7313 H   0  0  0  0  0  0  0  0  0  0  0  0  # atno 8010 bound_to 7997
  139.9330  143.6251  152.2524 H   0  0  0  0  0  0  0  0  0  0  0  0  # atno 10167 bound_to 10162
  156.0990  130.6156  150.9084 H   0  0  0  0  0  0  0  0  0  0  0  0  # atno 10718 bound_to 10713
  154.8433  135.4423  154.1482 H   0  0  0  0  0  0  0  0  0  0  0  0  # atno 10763 bound_to 10752
  153.2649  135.6939  153.7546 H   0  0  0  0  0  0  0  0  0  0  0  0  # atno 10764 bound_to 10752
  153.6808  135.3403  155.3153 H   0  0  0  0  0  0  0  0  0  0  0  0  # atno 10765 bound_to 10752
  141.1594  133.6820  156.6922 H   0  0  0  0  0  0  0  0  0  0  0  0  # atno 11005 bound_to 11000
  144.6919  140.3230  143.7229 LP  0  0  0  0  0  0  0  0  0  0  0  0  # atno 17320 bound_to 7965
  145.7490  139.1788  143.2332 LP  0  0  0  0  0  0  0  0  0  0  0  0  # atno 17321 bound_to 7965
  139.6767  144.7658  151.1683 LP  0  0  0  0  0  0  0  0  0  0  0  0  # atno 17342 bound_to 10162
  140.7632  143.5785  150.8920 LP  0  0  0  0  0  0  0  0  0  0  0  0  # atno 17343 bound_to 10162
  157.6157  131.0933  150.8715 LP  0  0  0  0  0  0  0  0  0  0  0  0  # atno 17370 bound_to 10713
  156.8847  130.5192  149.5289 LP  0  0  0  0  0  0  0  0  0  0  0  0  # atno 17371 bound_to 10713
  140.3022  134.8154  157.4107 LP  0  0  0  0  0  0  0  0  0  0  0  0  # atno 17394 bound_to 11000
  140.1252  134.5167  155.8151 LP  0  0  0  0  0  0  0  0  0  0  0  0  # atno 17395 bound_to 11000

$$$$
