AV-unprocessed.smi:2090|AV-procd|sdf|8536|dock3
  -GOLD-   2272011253D 1   1.00000     0.00000
 Structure written by MMmdl.
 41 42  0  0  0  0  0  0  0  0  3 V2000
  152.0828  144.7164  160.4039 C   0  0  0  0  0  0  0  0  0  0  0  0
  151.6550  143.8564  159.2644 C   0  0  0  0  0  0  0  0  0  0  0  0
  150.6286  143.9460  158.3669 C   0  0  0  0  0  0  0  0  0  0  0  0
  150.8100  142.7943  157.5554 C   0  0  0  0  0  0  0  0  0  0  0  0
  149.9263  142.5218  156.4775 N   0  0  0  0  0  0  0  0  0  0  0  0
  150.0519  141.6110  155.4951 C   0  0  0  0  0  0  0  0  0  0  0  0
  151.0415  140.8699  155.4526 O   0  0  0  0  0  0  0  0  0  0  0  0
  149.0037  141.6410  154.6258 N   0  5  0  0  0  0  0  0  0  0  0  0
  148.3784  140.4588  154.0348 C   0  0  0  0  0  0  0  0  0  0  0  0
  147.0812  140.8529  153.2995 C   0  0  0  0  0  0  0  0  0  0  0  0
  146.3501  139.6619  152.7923 N   0  3  2  0  0  0  0  0  0  0  0  0
  146.2087  138.5784  153.8047 C   0  0  0  0  0  0  0  0  0  0  0  0
  145.3192  137.4403  153.2782 C   0  0  0  0  0  0  0  0  0  0  0  0
  145.8671  136.8701  151.9592 C   0  0  1  0  0  0  0  0  0  0  0  0
  144.9739  135.7496  151.4087 C   0  0  0  0  0  0  0  0  0  0  0  0
  146.0373  138.0138  150.9455 C   0  0  0  0  0  0  0  0  0  0  0  0
  146.9107  139.1432  151.5176 C   0  0  0  0  0  0  0  0  0  0  0  0
  151.8535  142.0671  157.9266 N   0  0  0  0  0  0  0  0  0  0  0  0
  152.3995  142.7433  159.0238 O   0  0  0  0  0  0  0  0  0  0  0  0
  151.7257  145.7382  160.2747 H   0  0  0  0  0  0  0  0  0  0  0  0
  153.1698  144.7466  160.4818 H   0  0  0  0  0  0  0  0  0  0  0  0
  151.6857  144.3349  161.3447 H   0  0  0  0  0  0  0  0  0  0  0  0
  149.8711  144.7129  158.3018 H   0  0  0  0  0  0  0  0  0  0  0  0
  149.0919  143.0887  156.4443 H   0  0  0  0  0  0  0  0  0  0  0  0
  149.0456  139.9466  153.3404 H   0  0  0  0  0  0  0  0  0  0  0  0
  148.1358  139.7199  154.7986 H   0  0  0  0  0  0  0  0  0  0  0  0
  146.4531  141.4057  153.9998 H   0  0  0  0  0  0  0  0  0  0  0  0
  147.2852  141.5400  152.4764 H   0  0  0  0  0  0  0  0  0  0  0  0
  147.1952  138.1918  154.0658 H   0  0  0  0  0  0  0  0  0  0  0  0
  145.7750  138.9755  154.7232 H   0  0  0  0  0  0  0  0  0  0  0  0
  145.2532  136.6510  154.0277 H   0  0  0  0  0  0  0  0  0  0  0  0
  144.3039  137.8113  153.1301 H   0  0  0  0  0  0  0  0  0  0  0  0
  146.8512  136.4422  152.1564 H   0  0  0  0  0  0  0  0  0  0  0  0
  143.9674  136.1112  151.1954 H   0  0  0  0  0  0  0  0  0  0  0  0
  144.8884  134.9301  152.1228 H   0  0  0  0  0  0  0  0  0  0  0  0
  145.3834  135.3396  150.4850 H   0  0  0  0  0  0  0  0  0  0  0  0
  146.4850  137.6352  150.0258 H   0  0  0  0  0  0  0  0  0  0  0  0
  145.0601  138.4142  150.6714 H   0  0  0  0  0  0  0  0  0  0  0  0
  146.9699  139.9506  150.7864 H   0  0  0  0  0  0  0  0  0  0  0  0
  147.9292  138.7883  151.6839 H   0  0  0  0  0  0  0  0  0  0  0  0
  145.4184  139.9863  152.5759 H   0  0  0  0  0  0  0  0  0  0  0  0
  1  2  1  0  0  0  0
  1 20  1  0  0  0  0
  1 21  1  0  0  0  0
  1 22  1  0  0  0  0
  2 19  1  0  0  0  0
  2  3  2  0  0  0  0
  3  4  1  0  0  0  0
  3 23  1  0  0  0  0
  4  5  1  0  0  0  0
  4 18  2  0  0  0  0
  5  6  1  0  0  0  0
  5 24  1  0  0  0  0
  6  7  2  0  0  0  0
  6  8  1  0  0  0  0
  8  9  1  0  0  0  0
  9 10  1  0  0  0  0
  9 25  1  0  0  0  0
  9 26  1  0  0  0  0
 10 11  1  0  0  0  0
 10 27  1  0  0  0  0
 10 28  1  0  0  0  0
 11 17  1  0  0  0  0
 11 12  1  0  0  0  0
 11 41  1  0  0  0  0
 12 13  1  0  0  0  0
 12 29  1  0  0  0  0
 12 30  1  0  0  0  0
 13 14  1  0  0  0  0
 13 31  1  0  0  0  0
 13 32  1  0  0  0  0
 14 15  1  0  0  0  0
 14 16  1  0  0  0  0
 14 33  1  0  0  0  0
 15 34  1  0  0  0  0
 15 35  1  0  0  0  0
 15 36  1  0  0  0  0
 16 17  1  0  0  0  0
 16 37  1  0  0  0  0
 16 38  1  0  0  0  0
 17 39  1  0  0  0  0
 17 40  1  0  0  0  0
 18 19  1  0  0  0  0
M  CHG  1   8  -1
M  CHG  1  11   1
M  END
> <s_m_source_file>
AV-unprocessed.smi

> <i_m_source_file_index>
2090

> <i_lp_mmshare_version>
43012

> <i_f3d_flags>
0

> <s_epik_input>
W0NIM11jMVtjSF1jKG5vMSlbTkhdQyg9TylbTkhdW0NIMl1bQ0gyXU4yW0NIMl1bQ0gyXVtDSF0oW0NIM10pW0NIMl1bQ0gyXTI=

> <s_epik_cmdline>
J2VwaWtfcHl0aG9uJywgJy1waCcsICc3LjAnLCAnLXRuJywgJzgnLCAnLW1hJywgJzIwMCcsICctbWV0YWxfYmluZGluZycsICctaW1hZScsICc8aW5maWxlLm1hZT4nLCAnLW9tYWUnLCAnPG91dGZpbGUubWFlPic=

> <r_epik_Ionization_Penalty>
6.7721

> <r_epik_Ionization_Penalty_Charging>
6.7721

> <r_epik_Ionization_Penalty_Neutral>
5.78572e-06

> <r_epik_State_Penalty>
6.79704

> <r_epik_Charging_Adjusted_Penalty>
13.5691

> <i_epik_Tot_Q>
0

> <i_epik_Tot_abs_Q>
2

> <r_epik_Metal_State_Penalty>
2.73105

> <b_epik_Metal_Only>
1

> <s_lp_Force_Field>
OPLS_2005

> <r_lp_Energy>
11.0836

> <b_lp_Chiralities_Consistent>
1

> <s_lp_Variant>
AV-unprocessed.smi:2090-5

> <Gold.Version>
5.8.1

> <Gold.Id.Protein>
6NUR|6NUR_protein|mol2

> <Gold.PLP.Fitness>
43.4205

> <Gold.PLP.PLP>
-34.3369

> <Gold.PLP.part.hbond>
-3.2608

> <Gold.PLP.part.metal>
0.0000

> <Gold.PLP.part.buried>
1.4580

> <Gold.PLP.part.nonpolar>
-33.2065

> <Gold.PLP.part.repulsive>
0.2905

> <Gold.PLP.ligand.clash>
0.0000

> <Gold.PLP.ligand.torsion>
0.5226

> <Gold.PLP.Chemscore.Hbond>
3.3610

> <Gold.PLP.Chemscore.CHOScore>
0.0000

> <Gold.PLP.Chemscore.Metal>
0.0000

> <Gold.Chemscore.Hbonds>
donor molecule, donor type, donor heavy atom, donor atom, acceptor molecule, acceptor atom, score
      L1  H     5    24       P1  8028  0.56
      L1  H    11    41       P1 10175  2.00
      P1  H  7989  7998       L1     7  0.75

> <Gold.PLP.Chemscore.Internal.Correction>
0.0459

> <Gold.Rescore>
     Score         DG    S(hbond)    S(metal)    S(lipo)     H(rot)  DE(clash)    DE(int)     intcor
     14.37     -18.41       2.00        0.00      87.14       1.54       2.11       1.92       ----

> <Gold.Chemscore.Fitness>
14.3748

> <Gold.Chemscore.DG>
-18.4114

> <Gold.Chemscore.ZeroCoef>
-5.4800

> <Gold.Chemscore.Hbond>
2.0002

> <Gold.Chemscore.Metal>
0.0000

> <Gold.Chemscore.Lipo>
87.1403

> <Gold.Chemscore.Internal_Hbond>
0.0000

> <Gold.Chemscore.DEClash>
2.1127

> <Gold.Chemscore.DEInternal>
1.9239

> <Gold.Chemscore.Rot>
1.5409

> <Gold.Chemscore.Internal.Correction>
   9.000000E+99

> <Gold.Chemscore.Hbonds>
donor molecule, donor type, donor heavy atom, donor atom, acceptor molecule, acceptor atom, score
      L1  H     5    24       P1  8028  0.56
      L1  H    11    41       P1 10175  0.97
      P1  H  7989  7998       L1     7  0.35

> <Gold.Chemscore.Hbond.Weighted>
-6.6806

> <Gold.Chemscore.Metal.Weighted>
-0.0000

> <Gold.Chemscore.Lipo.Weighted>
-10.1954

> <Gold.Chemscore.Internal_Hbond.Weighted>
0.0000

> <Gold.Chemscore.DEClash.Weighted>
2.1127

> <Gold.Chemscore.DEInternal.Weighted>
1.9239

> <Gold.Chemscore.Rot.Weighted>
3.9446

> <Gold.Chemscore.Internal.Correction.Weighted>
   9.000000E+99

> <Gold.Protein.RotatedTorsions>
[ 6907 6896 6895 6894 ] final   26.05 input  -60.11 | X-H torsion
[ 7974 7965 7964 7962 ] final   73.00 input  175.53 | X-H torsion
[ 8008 7997 7996 7995 ] final   70.44 input   59.86 | X-H torsion
[ 10167 10162 10161 10158 ] final -110.32 input  -65.29 | X-H torsion
[ 10718 10713 10712 10709 ] final   90.64 input   66.30 | X-H torsion
[ 10763 10752 10751 10750 ] final  114.53 input  -60.55 | X-H torsion
[ 11005 11000 10999 10996 ] final  179.55 input  -57.11 | X-H torsion

> <Gold.Protein.ActiveResidues>
 VAL166  LYS551  ARG553  GLY616  TRP617  ASP618  TYR619  PRO620  LYS621  CYS622 
 ASP623  PHE694  ASN695  SER759  ASP760  ASP761  ALA762  ILE779  LEU786  VAL792 
 PHE793  MET794  SER795  GLU796  ALA797  LYS798  CYS799  TRP800  GLU811  SER814 

> <Gold.Protein.RotatedAtoms>
  151.9816  135.0025  160.0557 H   0  0  0  0  0  0  0  0  0  0  0  0  # atno 6907 bound_to 6896
  152.1691  133.4627  159.4908 H   0  0  0  0  0  0  0  0  0  0  0  0  # atno 6908 bound_to 6896
  150.6899  134.1893  159.4322 H   0  0  0  0  0  0  0  0  0  0  0  0  # atno 6909 bound_to 6896
  145.7463  139.2741  143.1457 H   0  0  0  0  0  0  0  0  0  0  0  0  # atno 7974 bound_to 7965
  155.7388  140.3490  155.5094 H   0  0  0  0  0  0  0  0  0  0  0  0  # atno 8008 bound_to 7997
  155.9113  140.1051  157.1298 H   0  0  0  0  0  0  0  0  0  0  0  0  # atno 8009 bound_to 7997
  154.4056  140.1267  156.4548 H   0  0  0  0  0  0  0  0  0  0  0  0  # atno 8010 bound_to 7997
  140.1457  143.4241  152.1530 H   0  0  0  0  0  0  0  0  0  0  0  0  # atno 10167 bound_to 10162
  157.6959  131.0378  150.3608 H   0  0  0  0  0  0  0  0  0  0  0  0  # atno 10718 bound_to 10713
  153.5086  135.3622  155.2575 H   0  0  0  0  0  0  0  0  0  0  0  0  # atno 10763 bound_to 10752
  154.8743  135.4017  154.3395 H   0  0  0  0  0  0  0  0  0  0  0  0  # atno 10764 bound_to 10752
  153.4044  135.7076  153.6470 H   0  0  0  0  0  0  0  0  0  0  0  0  # atno 10765 bound_to 10752
  140.4074  134.6723  157.4595 H   0  0  0  0  0  0  0  0  0  0  0  0  # atno 11005 bound_to 11000
  146.0400  140.8175  142.9833 LP  0  0  0  0  0  0  0  0  0  0  0  0  # atno 17320 bound_to 7965
  144.6859  140.2895  143.7280 LP  0  0  0  0  0  0  0  0  0  0  0  0  # atno 17321 bound_to 7965
  139.5450  144.7290  151.4612 LP  0  0  0  0  0  0  0  0  0  0  0  0  # atno 17342 bound_to 10162
  140.6733  143.8246  150.7026 LP  0  0  0  0  0  0  0  0  0  0  0  0  # atno 17343 bound_to 10162
  156.4044  130.3922  149.6936 LP  0  0  0  0  0  0  0  0  0  0  0  0  # atno 17370 bound_to 10713
  156.4242  130.7783  151.2802 LP  0  0  0  0  0  0  0  0  0  0  0  0  # atno 17371 bound_to 10713
  140.0292  134.6431  155.9130 LP  0  0  0  0  0  0  0  0  0  0  0  0  # atno 17394 bound_to 11000
  141.1834  133.6551  156.5115 LP  0  0  0  0  0  0  0  0  0  0  0  0  # atno 17395 bound_to 11000

$$$$
