AV-unprocessed.smi:3307|AV-procd|sdf|12706|dock2
  -GOLD-   2272019 43D 1   1.00000     0.00000
 Structure written by MMmdl.
 31 32  0  0  0  0  0  0  0  0  2 V2000
  154.2124  140.5108  161.2989 C   0  0  0  0  0  0  0  0  0  0  0  0
  153.4915  141.7231  160.7876 C   0  0  0  0  0  0  0  0  0  0  0  0
  153.0828  142.8774  161.5115 C   0  0  0  0  0  0  0  0  0  0  0  0
  152.4745  143.6659  160.5758 C   0  0  0  0  0  0  0  0  0  0  0  0
  151.8409  145.0104  160.7210 C   0  0  0  0  0  0  0  0  0  0  0  0
  152.5323  142.9805  159.3747 N   0  0  0  0  0  0  0  0  0  0  0  0
  152.0431  143.3740  158.0618 C   0  0  0  0  0  0  0  0  0  0  0  0
  150.9020  142.4687  157.5608 C   0  0  2  0  0  0  0  0  0  0  0  0
  151.2678  140.9839  157.5147 C   0  0  0  0  0  0  0  0  0  0  0  0
  150.2779  140.4248  156.4994 C   0  0  0  0  0  0  0  0  0  0  0  0
  150.1433  141.5546  155.4755 C   0  0  0  0  0  0  0  0  0  0  0  0
  150.4746  142.8057  156.1871 N   0  3  0  0  0  0  0  0  0  0  0  0
  153.1627  141.7936  159.5085 N   0  0  0  0  0  0  0  0  0  0  0  0
  154.4239  140.5981  162.3648 H   0  0  0  0  0  0  0  0  0  0  0  0
  155.1629  140.3721  160.7831 H   0  0  0  0  0  0  0  0  0  0  0  0
  153.6175  139.6091  161.1519 H   0  0  0  0  0  0  0  0  0  0  0  0
  153.2182  143.0951  162.5607 H   0  0  0  0  0  0  0  0  0  0  0  0
  151.8585  145.3383  161.7607 H   0  0  0  0  0  0  0  0  0  0  0  0
  150.8010  144.9890  160.3952 H   0  0  0  0  0  0  0  0  0  0  0  0
  152.3706  145.7552  160.1269 H   0  0  0  0  0  0  0  0  0  0  0  0
  151.7161  144.4135  158.0928 H   0  0  0  0  0  0  0  0  0  0  0  0
  152.8812  143.3361  157.3647 H   0  0  0  0  0  0  0  0  0  0  0  0
  150.0283  142.5802  158.2051 H   0  0  0  0  0  0  0  0  0  0  0  0
  152.2865  140.8516  157.1474 H   0  0  0  0  0  0  0  0  0  0  0  0
  151.1948  140.4995  158.4891 H   0  0  0  0  0  0  0  0  0  0  0  0
  150.6090  139.4859  156.0545 H   0  0  0  0  0  0  0  0  0  0  0  0
  149.3162  140.2465  156.9831 H   0  0  0  0  0  0  0  0  0  0  0  0
  150.8598  141.4204  154.6646 H   0  0  0  0  0  0  0  0  0  0  0  0
  149.1448  141.5980  155.0398 H   0  0  0  0  0  0  0  0  0  0  0  0
  149.6764  143.4238  156.2194 H   0  0  0  0  0  0  0  0  0  0  0  0
  151.2347  143.2606  155.7019 H   0  0  0  0  0  0  0  0  0  0  0  0
  1  2  1  0  0  0  0
  1 14  1  0  0  0  0
  1 15  1  0  0  0  0
  1 16  1  0  0  0  0
  2 13  2  0  0  0  0
  2  3  1  0  0  0  0
  3  4  2  0  0  0  0
  3 17  1  0  0  0  0
  4  5  1  0  0  0  0
  4  6  1  0  0  0  0
  5 18  1  0  0  0  0
  5 19  1  0  0  0  0
  5 20  1  0  0  0  0
  6  7  1  0  0  0  0
  6 13  1  0  0  0  0
  7  8  1  0  0  0  0
  7 21  1  0  0  0  0
  7 22  1  0  0  0  0
  8 12  1  0  0  0  0
  8  9  1  0  0  0  0
  8 23  1  0  0  0  0
  9 10  1  0  0  0  0
  9 24  1  0  0  0  0
  9 25  1  0  0  0  0
 10 11  1  0  0  0  0
 10 26  1  0  0  0  0
 10 27  1  0  0  0  0
 11 12  1  0  0  0  0
 11 28  1  0  0  0  0
 11 29  1  0  0  0  0
 12 30  1  0  0  0  0
 12 31  1  0  0  0  0
M  CHG  1  12   1
M  END
> <s_m_source_file>
AV-unprocessed.smi

> <i_m_source_file_index>
3307

> <i_lp_mmshare_version>
43012

> <i_f3d_flags>
0

> <s_epik_input>
W0NIM11jMVtjSF1jKFtDSDNdKW4objEpW0NIMl1bQ0BASF0yW0NIMl1bQ0gyXVtDSDJdW05IXTI=

> <s_epik_cmdline>
J2VwaWtfcHl0aG9uJywgJy1waCcsICc3LjAnLCAnLXRuJywgJzgnLCAnLW1hJywgJzIwMCcsICctbWV0YWxfYmluZGluZycsICctaW1hZScsICc8aW5maWxlLm1hZT4nLCAnLW9tYWUnLCAnPG91dGZpbGUubWFlPic=

> <r_lp_tautomer_probability>
1

> <r_epik_Ionization_Penalty>
0.000974324

> <r_epik_Ionization_Penalty_Charging>
0.000863359

> <r_epik_Ionization_Penalty_Neutral>
0.000110964

> <r_epik_State_Penalty>
-0

> <r_epik_Charging_Adjusted_Penalty>
0.000863359

> <i_epik_Tot_Q>
1

> <i_epik_Tot_abs_Q>
1

> <r_epik_Metal_State_Penalty>
-0

> <b_epik_Metal_Only>
0

> <s_lp_Force_Field>
OPLS_2005

> <r_lp_Energy>
23.4337

> <b_lp_Chiralities_Consistent>
1

> <s_lp_Variant>
AV-unprocessed.smi:3307-1

> <Gold.Version>
5.8.1

> <Gold.Id.Protein>
6NUR|6NUR_protein|mol2

> <Gold.PLP.Fitness>
39.9028

> <Gold.PLP.PLP>
-33.9869

> <Gold.PLP.part.hbond>
-1.0000

> <Gold.PLP.part.metal>
0.0000

> <Gold.PLP.part.buried>
-4.2622

> <Gold.PLP.part.nonpolar>
-27.9634

> <Gold.PLP.part.repulsive>
0.1175

> <Gold.PLP.ligand.clash>
0.0000

> <Gold.PLP.ligand.torsion>
0.0425

> <Gold.PLP.Chemscore.Hbond>
2.0000

> <Gold.PLP.Chemscore.CHOScore>
0.0000

> <Gold.PLP.Chemscore.Metal>
0.0000

> <Gold.Chemscore.Hbonds>
donor molecule, donor type, donor heavy atom, donor atom, acceptor molecule, acceptor atom, score
      L1  H    12    30       P1  8028  1.98

> <Gold.PLP.Chemscore.Internal.Correction>
0.0010

> <Gold.Rescore>
     Score         DG    S(hbond)    S(metal)    S(lipo)     H(rot)  DE(clash)    DE(int)     intcor
     15.15     -16.56       0.94        0.00      93.23       1.16       0.08       1.34       ----

> <Gold.Chemscore.Fitness>
15.1468

> <Gold.Chemscore.DG>
-16.5628

> <Gold.Chemscore.ZeroCoef>
-5.4800

> <Gold.Chemscore.Hbond>
0.9438

> <Gold.Chemscore.Metal>
0.0000

> <Gold.Chemscore.Lipo>
93.2255

> <Gold.Chemscore.Internal_Hbond>
0.0000

> <Gold.Chemscore.DEClash>
0.0779

> <Gold.Chemscore.DEInternal>
1.3381

> <Gold.Chemscore.Rot>
1.1628

> <Gold.Chemscore.Internal.Correction>
   9.000000E+99

> <Gold.Chemscore.Hbonds>
donor molecule, donor type, donor heavy atom, donor atom, acceptor molecule, acceptor atom, score
      L1  H    12    30       P1  8028  0.94

> <Gold.Chemscore.Hbond.Weighted>
-3.1522

> <Gold.Chemscore.Metal.Weighted>
-0.0000

> <Gold.Chemscore.Lipo.Weighted>
-10.9074

> <Gold.Chemscore.Internal_Hbond.Weighted>
0.0000

> <Gold.Chemscore.DEClash.Weighted>
0.0779

> <Gold.Chemscore.DEInternal.Weighted>
1.3381

> <Gold.Chemscore.Rot.Weighted>
2.9768

> <Gold.Chemscore.Internal.Correction.Weighted>
   9.000000E+99

> <Gold.Protein.RotatedTorsions>
[ 6907 6896 6895 6894 ] final  176.39 input  -60.11 | X-H torsion
[ 7974 7965 7964 7962 ] final -105.68 input  175.53 | X-H torsion
[ 8008 7997 7996 7995 ] final  144.75 input   59.86 | X-H torsion
[ 10167 10162 10161 10158 ] final  -31.50 input  -65.29 | X-H torsion
[ 10718 10713 10712 10709 ] final   40.29 input   66.30 | X-H torsion
[ 10763 10752 10751 10750 ] final    1.93 input  -60.55 | X-H torsion
[ 11005 11000 10999 10996 ] final   89.35 input  -57.11 | X-H torsion

> <Gold.Protein.ActiveResidues>
 VAL166  LYS551  ARG553  GLY616  TRP617  ASP618  TYR619  PRO620  LYS621  CYS622 
 ASP623  PHE694  ASN695  SER759  ASP760  ASP761  ALA762  ILE779  LEU786  VAL792 
 PHE793  MET794  SER795  GLU796  ALA797  LYS798  CYS799  TRP800  GLU811  SER814 

> <Gold.Protein.RotatedAtoms>
  151.7210  133.3314  159.3314 H   0  0  0  0  0  0  0  0  0  0  0  0  # atno 6907 bound_to 6896
  150.7653  134.6448  159.6266 H   0  0  0  0  0  0  0  0  0  0  0  0  # atno 6908 bound_to 6896
  152.3652  134.6817  160.0246 H   0  0  0  0  0  0  0  0  0  0  0  0  # atno 6909 bound_to 6896
  145.2274  140.9158  143.3224 H   0  0  0  0  0  0  0  0  0  0  0  0  # atno 7974 bound_to 7965
  156.2900  140.2227  156.5104 H   0  0  0  0  0  0  0  0  0  0  0  0  # atno 8008 bound_to 7997
  154.7614  140.0473  157.0998 H   0  0  0  0  0  0  0  0  0  0  0  0  # atno 8009 bound_to 7997
  154.9987  140.3099  155.4879 H   0  0  0  0  0  0  0  0  0  0  0  0  # atno 8010 bound_to 7997
  140.7235  143.3766  151.1678 H   0  0  0  0  0  0  0  0  0  0  0  0  # atno 10167 bound_to 10162
  157.3804  130.7750  149.7188 H   0  0  0  0  0  0  0  0  0  0  0  0  # atno 10718 bound_to 10713
  153.3019  135.6956  153.7195 H   0  0  0  0  0  0  0  0  0  0  0  0  # atno 10763 bound_to 10752
  153.6106  135.3445  155.2978 H   0  0  0  0  0  0  0  0  0  0  0  0  # atno 10764 bound_to 10752
  154.8553  135.4362  154.2132 H   0  0  0  0  0  0  0  0  0  0  0  0  # atno 10765 bound_to 10752
  139.8877  134.8546  156.3130 H   0  0  0  0  0  0  0  0  0  0  0  0  # atno 11005 bound_to 11000
  144.9708  139.3882  143.6310 LP  0  0  0  0  0  0  0  0  0  0  0  0  # atno 17320 bound_to 7965
  146.3361  139.8805  142.8825 LP  0  0  0  0  0  0  0  0  0  0  0  0  # atno 17321 bound_to 7965
  139.7347  143.9017  152.3031 LP  0  0  0  0  0  0  0  0  0  0  0  0  # atno 17342 bound_to 10162
  139.8818  144.7013  150.8869 LP  0  0  0  0  0  0  0  0  0  0  0  0  # atno 17343 bound_to 10162
  155.9774  130.4063  150.3711 LP  0  0  0  0  0  0  0  0  0  0  0  0  # atno 17370 bound_to 10713
  157.1815  131.0393  151.2746 LP  0  0  0  0  0  0  0  0  0  0  0  0  # atno 17371 bound_to 10713
  140.9837  133.7251  156.0710 LP  0  0  0  0  0  0  0  0  0  0  0  0  # atno 17394 bound_to 11000
  140.7716  134.3827  157.5506 LP  0  0  0  0  0  0  0  0  0  0  0  0  # atno 17395 bound_to 11000

$$$$
