AV-unprocessed.smi:1701|AV-procd|sdf|6838|dock1
  -GOLD-   22720 8 13D 1   1.00000     0.00000
 Structure written by MMmdl.
 54 56  0  0  0  0  0  0  0  0  4 V2000
  143.6870  132.6700  149.6000 C   0  0  0  0  0  0  0  0  0  0  0  0
  145.1349  132.3157  149.9734 C   0  0  0  0  0  0  0  0  0  0  0  0
  145.4194  132.4684  151.4003 N   0  0  0  0  0  0  0  0  0  0  0  0
  145.6787  131.2767  152.2118 C   0  0  0  0  0  0  0  0  0  0  0  0
  145.5112  129.9651  151.4310 C   0  0  0  0  0  0  0  0  0  0  0  0
  145.6307  133.7569  151.9498 C   0  0  0  0  0  0  0  0  0  0  0  0
  145.2807  134.9591  151.2843 C   0  0  0  0  0  0  0  0  0  0  0  0
  145.5241  136.2033  151.9009 C   0  0  0  0  0  0  0  0  0  0  0  0
  146.1029  136.2484  153.1849 C   0  0  0  0  0  0  0  0  0  0  0  0
  146.3489  137.5240  153.7605 N   0  0  0  0  0  0  0  0  0  0  0  0
  146.5626  138.7137  153.1461 C   0  0  0  0  0  0  0  0  0  0  0  0
  146.6125  138.7513  151.9183 O   0  0  0  0  0  0  0  0  0  0  0  0
  146.7479  139.8420  153.8951 N   0  5  0  0  0  0  0  0  0  0  0  0
  147.1569  141.1907  153.4664 C   0  0  1  0  0  0  0  0  0  0  0  0
  146.0777  142.2104  153.8507 C   0  0  0  0  0  0  0  0  0  0  0  0
  146.3852  142.6134  155.3061 C   0  0  0  0  0  0  0  0  0  0  0  0
  147.7865  142.2090  155.5901 N   0  3  1  0  0  0  0  0  0  0  0  0
  147.8914  141.2857  156.7572 C   0  0  0  0  0  0  0  0  0  0  0  0
  149.2941  140.6841  156.9017 C   0  0  0  0  0  0  0  0  0  0  0  0
  149.6593  139.9043  155.6371 C   0  0  0  0  0  0  0  0  0  0  0  0
  149.6394  140.8483  154.4277 C   0  0  0  0  0  0  0  0  0  0  0  0
  148.3467  141.7032  154.3051 C   0  0  1  0  0  0  0  0  0  0  0  0
  146.4495  135.0261  153.8049 C   0  0  0  0  0  0  0  0  0  0  0  0
  146.2000  133.8571  153.1766 N   0  3  0  0  0  0  0  0  0  0  0  0
  143.5215  132.5239  148.5326 H   0  0  0  0  0  0  0  0  0  0  0  0
  143.4562  133.7104  149.8237 H   0  0  0  0  0  0  0  0  0  0  0  0
  142.9672  132.0474  150.1311 H   0  0  0  0  0  0  0  0  0  0  0  0
  145.3769  131.3037  149.6498 H   0  0  0  0  0  0  0  0  0  0  0  0
  145.8093  132.9623  149.4115 H   0  0  0  0  0  0  0  0  0  0  0  0
  146.6760  131.3281  152.6494 H   0  0  0  0  0  0  0  0  0  0  0  0
  144.9948  131.2737  153.0610 H   0  0  0  0  0  0  0  0  0  0  0  0
  145.7639  129.1114  152.0600 H   0  0  0  0  0  0  0  0  0  0  0  0
  146.1606  129.9328  150.5558 H   0  0  0  0  0  0  0  0  0  0  0  0
  144.4851  129.8261  151.0942 H   0  0  0  0  0  0  0  0  0  0  0  0
  144.8296  134.9557  150.3042 H   0  0  0  0  0  0  0  0  0  0  0  0
  145.2600  137.1175  151.3895 H   0  0  0  0  0  0  0  0  0  0  0  0
  146.4240  137.5385  154.7669 H   0  0  0  0  0  0  0  0  0  0  0  0
  147.3850  141.2422  152.4008 H   0  0  0  0  0  0  0  0  0  0  0  0
  146.1740  143.0878  153.2096 H   0  0  0  0  0  0  0  0  0  0  0  0
  145.0610  141.8349  153.7242 H   0  0  0  0  0  0  0  0  0  0  0  0
  146.2714  143.6890  155.4455 H   0  0  0  0  0  0  0  0  0  0  0  0
  145.6846  142.1297  155.9898 H   0  0  0  0  0  0  0  0  0  0  0  0
  147.6246  141.8316  157.6626 H   0  0  0  0  0  0  0  0  0  0  0  0
  147.1681  140.4743  156.6597 H   0  0  0  0  0  0  0  0  0  0  0  0
  150.0257  141.4721  157.0850 H   0  0  0  0  0  0  0  0  0  0  0  0
  149.3248  140.0209  157.7667 H   0  0  0  0  0  0  0  0  0  0  0  0
  150.6472  139.4561  155.7437 H   0  0  0  0  0  0  0  0  0  0  0  0
  148.9602  139.0803  155.4896 H   0  0  0  0  0  0  0  0  0  0  0  0
  150.4816  141.5326  154.5398 H   0  0  0  0  0  0  0  0  0  0  0  0
  149.8445  140.2933  153.5103 H   0  0  0  0  0  0  0  0  0  0  0  0
  148.6668  142.6078  153.7841 H   0  0  0  0  0  0  0  0  0  0  0  0
  146.9266  134.9333  154.7692 H   0  0  0  0  0  0  0  0  0  0  0  0
  148.3140  143.0353  155.8307 H   0  0  0  0  0  0  0  0  0  0  0  0
  146.4614  132.9956  153.6559 H   0  0  0  0  0  0  0  0  0  0  0  0
  1  2  1  0  0  0  0
  1 25  1  0  0  0  0
  1 26  1  0  0  0  0
  1 27  1  0  0  0  0
  2  3  1  0  0  0  0
  2 28  1  0  0  0  0
  2 29  1  0  0  0  0
  3  4  1  0  0  0  0
  3  6  1  0  0  0  0
  4  5  1  0  0  0  0
  4 30  1  0  0  0  0
  4 31  1  0  0  0  0
  5 32  1  0  0  0  0
  5 33  1  0  0  0  0
  5 34  1  0  0  0  0
  6 24  1  0  0  0  0
  6  7  2  0  0  0  0
  7  8  1  0  0  0  0
  7 35  1  0  0  0  0
  8  9  2  0  0  0  0
  8 36  1  0  0  0  0
  9 10  1  0  0  0  0
  9 23  1  0  0  0  0
 10 11  1  0  0  0  0
 10 37  1  0  0  0  0
 11 12  2  0  0  0  0
 11 13  1  0  0  0  0
 13 14  1  0  0  0  0
 14 22  1  0  0  0  0
 14 15  1  0  0  0  0
 14 38  1  0  0  0  0
 15 16  1  0  0  0  0
 15 39  1  0  0  0  0
 15 40  1  0  0  0  0
 16 17  1  0  0  0  0
 16 41  1  0  0  0  0
 16 42  1  0  0  0  0
 17 22  1  0  0  0  0
 17 18  1  0  0  0  0
 17 53  1  0  0  0  0
 18 19  1  0  0  0  0
 18 43  1  0  0  0  0
 18 44  1  0  0  0  0
 19 20  1  0  0  0  0
 19 45  1  0  0  0  0
 19 46  1  0  0  0  0
 20 21  1  0  0  0  0
 20 47  1  0  0  0  0
 20 48  1  0  0  0  0
 21 22  1  0  0  0  0
 21 49  1  0  0  0  0
 21 50  1  0  0  0  0
 22 51  1  0  0  0  0
 23 24  2  0  0  0  0
 23 52  1  0  0  0  0
 24 54  1  0  0  0  0
M  CHG  1  13  -1
M  CHG  1  17   1
M  CHG  1  24   1
M  END
> <s_m_source_file>
AV-unprocessed.smi

> <i_m_source_file_index>
1701

> <i_lp_mmshare_version>
43012

> <i_f3d_flags>
0

> <s_epik_input>
W0NIM11bQ0gyXU4oW0NIMl1bQ0gzXSljMVtjSF1bY0hdYyhbY0hdbjEpW05IXUMoPU8pW05IXVtDQEhdKFtDSDJdW0NIMl0yKVtDQEBIXShOMjMpW0NIMl1bQ0gyXVtDSDJdW0NIMl0z

> <s_epik_cmdline>
J2VwaWtfcHl0aG9uJywgJy1waCcsICc3LjAnLCAnLXRuJywgJzgnLCAnLW1hJywgJzIwMCcsICctbWV0YWxfYmluZGluZycsICctaW1hZScsICc8aW5maWxlLm1hZT4nLCAnLW9tYWUnLCAnPG91dGZpbGUubWFlPic=

> <r_lp_tautomer_probability>
0.999994

> <r_epik_Ionization_Penalty>
7.37095

> <r_epik_Ionization_Penalty_Charging>
7.37095

> <r_epik_Ionization_Penalty_Neutral>
3.78969e-06

> <r_epik_State_Penalty>
6.83842

> <r_epik_Charging_Adjusted_Penalty>
14.2094

> <i_epik_Tot_Q>
1

> <i_epik_Tot_abs_Q>
3

> <r_epik_Metal_State_Penalty>
2.78552

> <b_epik_Metal_Only>
1

> <s_lp_Force_Field>
OPLS_2005

> <r_lp_Energy>
56.1591

> <b_lp_Chiralities_Consistent>
1

> <s_lp_Variant>
AV-unprocessed.smi:1701-18

> <Gold.Version>
5.8.1

> <Gold.Id.Protein>
6NUR|6NUR_protein|mol2

> <Gold.PLP.Fitness>
45.8495

> <Gold.PLP.PLP>
-40.5418

> <Gold.PLP.part.hbond>
-1.0000

> <Gold.PLP.part.metal>
0.0000

> <Gold.PLP.part.buried>
-5.4934

> <Gold.PLP.part.nonpolar>
-34.9628

> <Gold.PLP.part.repulsive>
0.5574

> <Gold.PLP.ligand.clash>
0.0000

> <Gold.PLP.ligand.torsion>
0.4380

> <Gold.PLP.Chemscore.Hbond>
2.0000

> <Gold.PLP.Chemscore.CHOScore>
0.0000

> <Gold.PLP.Chemscore.Metal>
0.0000

> <Gold.Chemscore.Hbonds>
donor molecule, donor type, donor heavy atom, donor atom, acceptor molecule, acceptor atom, score
      L1  H    17    53       P1  8028  2.00

> <Gold.PLP.Chemscore.Internal.Correction>
0.1837

> <Gold.Rescore>
     Score         DG    S(hbond)    S(metal)    S(lipo)     H(rot)  DE(clash)    DE(int)     intcor
     14.00     -16.16       0.91        0.00      93.31       1.28       0.32       1.84       ----

> <Gold.Chemscore.Fitness>
14.0022

> <Gold.Chemscore.DG>
-16.1595

> <Gold.Chemscore.ZeroCoef>
-5.4800

> <Gold.Chemscore.Hbond>
0.9129

> <Gold.Chemscore.Metal>
0.0000

> <Gold.Chemscore.Lipo>
93.3079

> <Gold.Chemscore.Internal_Hbond>
0.0000

> <Gold.Chemscore.DEClash>
0.3155

> <Gold.Chemscore.DEInternal>
1.8417

> <Gold.Chemscore.Rot>
1.2838

> <Gold.Chemscore.Internal.Correction>
   9.000000E+99

> <Gold.Chemscore.Hbonds>
donor molecule, donor type, donor heavy atom, donor atom, acceptor molecule, acceptor atom, score
      L1  H    17    53       P1  8028  0.91

> <Gold.Chemscore.Hbond.Weighted>
-3.0490

> <Gold.Chemscore.Metal.Weighted>
-0.0000

> <Gold.Chemscore.Lipo.Weighted>
-10.9170

> <Gold.Chemscore.Internal_Hbond.Weighted>
0.0000

> <Gold.Chemscore.DEClash.Weighted>
0.3155

> <Gold.Chemscore.DEInternal.Weighted>
1.8417

> <Gold.Chemscore.Rot.Weighted>
3.2865

> <Gold.Chemscore.Internal.Correction.Weighted>
   9.000000E+99

> <Gold.Protein.RotatedTorsions>
[ 6907 6896 6895 6894 ] final  175.50 input  -60.11 | X-H torsion
[ 7974 7965 7964 7962 ] final   46.03 input  175.53 | X-H torsion
[ 8008 7997 7996 7995 ] final   77.95 input   59.86 | X-H torsion
[ 10167 10162 10161 10158 ] final  -58.82 input  -65.29 | X-H torsion
[ 10718 10713 10712 10709 ] final  -87.60 input   66.30 | X-H torsion
[ 10763 10752 10751 10750 ] final -126.50 input  -60.55 | X-H torsion
[ 11005 11000 10999 10996 ] final  -73.68 input  -57.11 | X-H torsion

> <Gold.Protein.ActiveResidues>
 VAL166  LYS551  ARG553  GLY616  TRP617  ASP618  TYR619  PRO620  LYS621  CYS622 
 ASP623  PHE694  ASN695  SER759  ASP760  ASP761  ALA762  ILE779  LEU786  VAL792 
 PHE793  MET794  SER795  GLU796  ALA797  LYS798  CYS799  TRP800  GLU811  SER814 

> <Gold.Protein.RotatedAtoms>
  151.7353  133.3319  159.3350 H   0  0  0  0  0  0  0  0  0  0  0  0  # atno 6907 bound_to 6896
  150.7596  134.6327  159.6204 H   0  0  0  0  0  0  0  0  0  0  0  0  # atno 6908 bound_to 6896
  152.3566  134.6934  160.0272 H   0  0  0  0  0  0  0  0  0  0  0  0  # atno 6909 bound_to 6896
  146.0426  139.4900  142.9768 H   0  0  0  0  0  0  0  0  0  0  0  0  # atno 7974 bound_to 7965
  155.8488  140.3459  155.5680 H   0  0  0  0  0  0  0  0  0  0  0  0  # atno 8008 bound_to 7997
  155.8060  140.0892  157.1950 H   0  0  0  0  0  0  0  0  0  0  0  0  # atno 8009 bound_to 7997
  154.4007  140.1456  156.3318 H   0  0  0  0  0  0  0  0  0  0  0  0  # atno 8010 bound_to 7997
  140.6174  143.2407  151.5565 H   0  0  0  0  0  0  0  0  0  0  0  0  # atno 10167 bound_to 10162
  155.9985  130.4806  150.4892 H   0  0  0  0  0  0  0  0  0  0  0  0  # atno 10718 bound_to 10713
  154.8746  135.3993  154.3441 H   0  0  0  0  0  0  0  0  0  0  0  0  # atno 10763 bound_to 10752
  153.4236  135.7023  153.6283 H   0  0  0  0  0  0  0  0  0  0  0  0  # atno 10764 bound_to 10752
  153.4935  135.3743  155.2474 H   0  0  0  0  0  0  0  0  0  0  0  0  # atno 10765 bound_to 10752
  141.1626  133.6886  156.7249 H   0  0  0  0  0  0  0  0  0  0  0  0  # atno 11005 bound_to 11000
  145.6858  141.0178  143.1582 LP  0  0  0  0  0  0  0  0  0  0  0  0  # atno 17320 bound_to 7965
  144.7082  139.8475  143.7423 LP  0  0  0  0  0  0  0  0  0  0  0  0  # atno 17321 bound_to 7965
  139.5410  144.2649  152.1349 LP  0  0  0  0  0  0  0  0  0  0  0  0  # atno 17342 bound_to 10162
  140.1861  144.4797  150.6503 LP  0  0  0  0  0  0  0  0  0  0  0  0  # atno 17343 bound_to 10162
  157.2889  131.0622  151.2147 LP  0  0  0  0  0  0  0  0  0  0  0  0  # atno 17370 bound_to 10713
  157.3167  130.6917  149.6246 LP  0  0  0  0  0  0  0  0  0  0  0  0  # atno 17371 bound_to 10713
  140.2788  134.8333  157.3914 LP  0  0  0  0  0  0  0  0  0  0  0  0  # atno 17394 bound_to 11000
  140.1452  134.4920  155.8001 LP  0  0  0  0  0  0  0  0  0  0  0  0  # atno 17395 bound_to 11000

$$$$
