AV-unprocessed.smi:1540|AV-procd|sdf|6199|dock4
  -GOLD-   22720 6363D 1   1.00000     0.00000
 Structure written by MMmdl.
 33 33  0  0  0  0  0  0  0  0  1 V2000
  153.5865  142.9017  163.4221 C   0  0  0  0  0  0  0  0  0  0  0  0
  152.7299  142.6730  162.4154 C   0  0  0  0  0  0  0  0  0  0  0  0
  152.7240  143.4299  161.1058 C   0  0  0  0  0  0  0  0  0  0  0  0
  152.7149  142.5204  160.0119 O   0  0  0  0  0  0  0  0  0  0  0  0
  151.8265  142.8489  158.9462 C   0  0  1  0  0  0  0  0  0  0  0  0
  152.4904  143.9559  158.1135 C   0  0  0  0  0  0  0  0  0  0  0  0
  151.5268  141.6052  158.0927 C   0  0  0  0  0  0  0  0  0  0  0  0
  151.9286  140.5029  158.4650 O   0  0  0  0  0  0  0  0  0  0  0  0
  150.7928  141.8296  156.9849 N   0  0  0  0  0  0  0  0  0  0  0  0
  150.3539  140.9229  156.0059 C   0  0  0  0  0  0  0  0  0  0  0  0
  149.1148  140.9202  155.4483 C   0  0  0  0  0  0  0  0  0  0  0  0
  148.7211  139.9414  154.4483 C   0  0  0  0  0  0  0  0  0  0  0  0
  147.3596  139.9978  153.7728 C   0  0  0  0  0  0  0  0  0  0  0  0
  147.2180  139.0129  152.8846 F   0  0  0  0  0  0  0  0  0  0  0  0
  146.3966  139.8756  154.6851 F   0  0  0  0  0  0  0  0  0  0  0  0
  147.1872  141.1590  153.1412 F   0  0  0  0  0  0  0  0  0  0  0  0
  149.6527  139.0369  154.0946 C   0  0  0  0  0  0  0  0  0  0  0  0
  150.9211  139.0192  154.6792 N   0  0  0  0  0  0  0  0  0  0  0  0
  151.3389  139.9012  155.6147 C   0  0  0  0  0  0  0  0  0  0  0  0
  152.4746  139.8201  156.0817 O   0  0  0  0  0  0  0  0  0  0  0  0
  151.5579  138.2979  154.3727 H   0  0  0  0  0  0  0  0  0  0  0  0
  154.3462  143.6665  163.3507 H   0  0  0  0  0  0  0  0  0  0  0  0
  153.5377  142.3248  164.3339 H   0  0  0  0  0  0  0  0  0  0  0  0
  151.9828  141.9003  162.5228 H   0  0  0  0  0  0  0  0  0  0  0  0
  151.8577  144.0922  161.0739 H   0  0  0  0  0  0  0  0  0  0  0  0
  153.6177  144.0542  161.0674 H   0  0  0  0  0  0  0  0  0  0  0  0
  150.8978  143.2467  159.3601 H   0  0  0  0  0  0  0  0  0  0  0  0
  151.8714  144.2363  157.2604 H   0  0  0  0  0  0  0  0  0  0  0  0
  153.4644  143.6441  157.7343 H   0  0  0  0  0  0  0  0  0  0  0  0
  152.6446  144.8513  158.7158 H   0  0  0  0  0  0  0  0  0  0  0  0
  150.4709  142.7775  156.8511 H   0  0  0  0  0  0  0  0  0  0  0  0
  148.3686  141.6369  155.7494 H   0  0  0  0  0  0  0  0  0  0  0  0
  149.5053  138.2723  153.3460 H   0  0  0  0  0  0  0  0  0  0  0  0
  1  2  2  0  0  0  0
  1 22  1  0  0  0  0
  1 23  1  0  0  0  0
  2  3  1  0  0  0  0
  2 24  1  0  0  0  0
  3  4  1  0  0  0  0
  3 25  1  0  0  0  0
  3 26  1  0  0  0  0
  4  5  1  0  0  0  0
  5  6  1  0  0  0  0
  5  7  1  0  0  0  0
  5 27  1  0  0  0  0
  6 28  1  0  0  0  0
  6 29  1  0  0  0  0
  6 30  1  0  0  0  0
  7  8  2  0  0  0  0
  7  9  1  0  0  0  0
  9 10  1  0  0  0  0
  9 31  1  0  0  0  0
 10 19  1  0  0  0  0
 10 11  2  0  0  0  0
 11 12  1  0  0  0  0
 11 32  1  0  0  0  0
 12 13  1  0  0  0  0
 12 17  2  0  0  0  0
 13 14  1  0  0  0  0
 13 15  1  0  0  0  0
 13 16  1  0  0  0  0
 17 18  1  0  0  0  0
 17 33  1  0  0  0  0
 18 21  1  0  0  0  0
 18 19  1  0  0  0  0
 19 20  2  0  0  0  0
M  END
> <s_m_source_file>
AV-unprocessed.smi

> <i_m_source_file_index>
1540

> <i_lp_mmshare_version>
43012

> <i_f3d_flags>
0

> <s_epik_input>
W0NIMl09W0NIXVtDSDJdT1tDQEhdKFtDSDNdKUMoPU8pW05IXWMxW2NIXWMoQyhGKShGKUYpW2NIXVtuSF1jMT1P

> <s_epik_cmdline>
J2VwaWtfcHl0aG9uJywgJy1waCcsICc3LjAnLCAnLXRuJywgJzgnLCAnLW1hJywgJzIwMCcsICctbWV0YWxfYmluZGluZycsICctaW1hZScsICc8aW5maWxlLm1hZT4nLCAnLW9tYWUnLCAnPG91dGZpbGUubWFlPic=

> <r_lp_tautomer_probability>
0.999

> <r_epik_Ionization_Penalty>
0.0086731

> <r_epik_Ionization_Penalty_Charging>
0.00867296

> <r_epik_Ionization_Penalty_Neutral>
1.3954e-07

> <r_epik_State_Penalty>
0.00654787

> <r_epik_Charging_Adjusted_Penalty>
0.0152208

> <i_epik_Tot_Q>
0

> <i_epik_Tot_abs_Q>
0

> <r_epik_Metal_State_Penalty>
0.320056

> <b_epik_Metal_Only>
0

> <s_lp_Force_Field>
OPLS_2005

> <r_lp_Energy>
18.3286

> <b_lp_Chiralities_Consistent>
1

> <s_lp_Variant>
AV-unprocessed.smi:1540-2

> <Gold.Version>
5.8.1

> <Gold.Id.Protein>
6NUR|6NUR_protein|mol2

> <Gold.PLP.Fitness>
45.2957

> <Gold.PLP.PLP>
-41.8565

> <Gold.PLP.part.hbond>
-1.0000

> <Gold.PLP.part.metal>
0.0000

> <Gold.PLP.part.buried>
-4.6953

> <Gold.PLP.part.nonpolar>
-34.3704

> <Gold.PLP.part.repulsive>
0.1494

> <Gold.PLP.ligand.clash>
1.1253

> <Gold.PLP.ligand.torsion>
0.9537

> <Gold.PLP.Chemscore.Hbond>
1.0000

> <Gold.PLP.Chemscore.CHOScore>
1.0864

> <Gold.PLP.Chemscore.Metal>
0.0000

> <Gold.Chemscore.Hbonds>
donor molecule, donor type, donor heavy atom, donor atom, acceptor molecule, acceptor atom, score
      P1  H  7997  8009       L1    20  1.00
      L1  C    17    33       P1  7948  0.96
      L1  C    17    33       P1  7957  0.11

> <Gold.PLP.Chemscore.Internal.Correction>
0.2128

> <Gold.Rescore>
     Score         DG    S(hbond)    S(metal)    S(lipo)     H(rot)  DE(clash)    DE(int)     intcor
     10.14     -15.19       1.00        0.00      94.03       1.81       0.07       4.98       ----

> <Gold.Chemscore.Fitness>
10.1405

> <Gold.Chemscore.DG>
-15.1906

> <Gold.Chemscore.ZeroCoef>
-5.4800

> <Gold.Chemscore.Hbond>
0.9997

> <Gold.Chemscore.Metal>
0.0000

> <Gold.Chemscore.Lipo>
94.0279

> <Gold.Chemscore.Internal_Hbond>
0.0000

> <Gold.Chemscore.DEClash>
0.0734

> <Gold.Chemscore.DEInternal>
4.9766

> <Gold.Chemscore.Rot>
1.8084

> <Gold.Chemscore.Internal.Correction>
   9.000000E+99

> <Gold.Chemscore.Hbonds>
donor molecule, donor type, donor heavy atom, donor atom, acceptor molecule, acceptor atom, score
      P1  H  7997  8009       L1    20  1.00

> <Gold.Chemscore.Hbond.Weighted>
-3.3389

> <Gold.Chemscore.Metal.Weighted>
-0.0000

> <Gold.Chemscore.Lipo.Weighted>
-11.0013

> <Gold.Chemscore.Internal_Hbond.Weighted>
0.0000

> <Gold.Chemscore.DEClash.Weighted>
0.0734

> <Gold.Chemscore.DEInternal.Weighted>
4.9766

> <Gold.Chemscore.Rot.Weighted>
4.6296

> <Gold.Chemscore.Internal.Correction.Weighted>
   9.000000E+99

> <Gold.Protein.RotatedTorsions>
[ 6907 6896 6895 6894 ] final  160.00 input  -60.11 | X-H torsion
[ 7974 7965 7964 7962 ] final   15.35 input  175.53 | X-H torsion
[ 8008 7997 7996 7995 ] final -155.60 input   59.86 | X-H torsion
[ 10167 10162 10161 10158 ] final -107.00 input  -65.29 | X-H torsion
[ 10718 10713 10712 10709 ] final -173.12 input   66.30 | X-H torsion
[ 10763 10752 10751 10750 ] final  -91.76 input  -60.55 | X-H torsion
[ 11005 11000 10999 10996 ] final   14.41 input  -57.11 | X-H torsion

> <Gold.Protein.ActiveResidues>
 VAL166  LYS551  ARG553  GLY616  TRP617  ASP618  TYR619  PRO620  LYS621  CYS622 
 ASP623  PHE694  ASN695  SER759  ASP760  ASP761  ALA762  ILE779  LEU786  VAL792 
 PHE793  MET794  SER795  GLU796  ALA797  LYS798  CYS799  TRP800  GLU811  SER814 

> <Gold.Protein.RotatedAtoms>
  151.9773  133.3745  159.4093 H   0  0  0  0  0  0  0  0  0  0  0  0  # atno 6907 bound_to 6896
  150.6940  134.4077  159.5157 H   0  0  0  0  0  0  0  0  0  0  0  0  # atno 6908 bound_to 6896
  152.1790  134.8770  160.0579 H   0  0  0  0  0  0  0  0  0  0  0  0  # atno 6909 bound_to 6896
  146.2280  139.8907  142.8555 H   0  0  0  0  0  0  0  0  0  0  0  0  # atno 7974 bound_to 7965
  155.7043  140.0770  157.2397 H   0  0  0  0  0  0  0  0  0  0  0  0  # atno 8008 bound_to 7997
  154.4068  140.1641  156.2279 H   0  0  0  0  0  0  0  0  0  0  0  0  # atno 8009 bound_to 7997
  155.9340  140.3389  155.6275 H   0  0  0  0  0  0  0  0  0  0  0  0  # atno 8010 bound_to 7997
  140.1817  143.3961  152.1276 H   0  0  0  0  0  0  0  0  0  0  0  0  # atno 10167 bound_to 10162
  156.7656  130.9429  151.3119 H   0  0  0  0  0  0  0  0  0  0  0  0  # atno 10718 bound_to 10713
  154.6793  135.5256  153.8241 H   0  0  0  0  0  0  0  0  0  0  0  0  # atno 10763 bound_to 10752
  153.0553  135.6548  154.0601 H   0  0  0  0  0  0  0  0  0  0  0  0  # atno 10764 bound_to 10752
  154.0491  135.2971  155.3323 H   0  0  0  0  0  0  0  0  0  0  0  0  # atno 10765 bound_to 10752
  140.4699  134.1042  155.7731 H   0  0  0  0  0  0  0  0  0  0  0  0  # atno 11005 bound_to 11000
  145.2421  141.0013  143.3930 LP  0  0  0  0  0  0  0  0  0  0  0  0  # atno 17320 bound_to 7965
  144.9443  139.4153  143.6433 LP  0  0  0  0  0  0  0  0  0  0  0  0  # atno 17321 bound_to 7965
  139.5293  144.7140  151.5113 LP  0  0  0  0  0  0  0  0  0  0  0  0  # atno 17342 bound_to 10162
  140.6515  143.8687  150.6790 LP  0  0  0  0  0  0  0  0  0  0  0  0  # atno 17343 bound_to 10162
  157.6715  130.9055  150.0050 LP  0  0  0  0  0  0  0  0  0  0  0  0  # atno 17370 bound_to 10713
  156.1311  130.3643  149.9730 LP  0  0  0  0  0  0  0  0  0  0  0  0  # atno 17371 bound_to 10713
  141.1582  133.8843  157.1920 LP  0  0  0  0  0  0  0  0  0  0  0  0  # atno 17394 bound_to 11000
  139.9892  135.0071  156.9935 LP  0  0  0  0  0  0  0  0  0  0  0  0  # atno 17395 bound_to 11000

$$$$
