AV-unprocessed.smi:2080|AV-procd|sdf|8487|dock3
  -GOLD-   2272011193D 1   1.00000     0.00000
 Structure written by MMmdl.
 50 52  0  0  0  0  0  0  0  0  1 V2000
  146.7290  139.6211  154.0418 O   0  0  0  0  0  0  0  0  0  0  0  0
  147.4911  138.8651  153.4393 C   0  0  0  0  0  0  0  0  0  0  0  0
  147.0868  138.0185  152.4816 N   0  0  0  0  0  0  0  0  0  0  0  0
  145.7111  137.8789  152.0177 C   0  0  0  0  0  0  0  0  0  0  0  0
  144.9445  136.8220  152.8332 C   0  0  0  0  0  0  0  0  0  0  0  0
  144.9503  135.4505  152.1787 C   0  0  0  0  0  0  0  0  0  0  0  0
  144.1952  135.1763  151.0970 C   0  0  0  0  0  0  0  0  0  0  0  0
  144.1220  133.8141  150.4304 C   0  0  0  0  0  0  0  0  0  0  0  0
  144.6945  132.6977  151.3195 C   0  0  0  0  0  0  0  0  0  0  0  0
  146.0101  133.1337  151.9755 C   0  0  0  0  0  0  0  0  0  0  0  0
  145.8176  134.3882  152.8462 C   0  0  0  0  0  0  0  0  0  0  0  0
  148.8132  138.7596  153.6571 N   0  0  0  0  0  0  0  0  0  0  0  0
  149.6204  139.5011  154.5616 C   0  0  0  0  0  0  0  0  0  0  0  0
  150.9180  139.1160  154.9704 C   0  0  0  0  0  0  0  0  0  0  0  0
  151.6121  139.9250  155.8900 C   0  0  0  0  0  0  0  0  0  0  0  0
  150.9938  141.0959  156.3882 C   0  0  0  0  0  0  0  0  0  0  0  0
  151.6738  141.9207  157.3107 N   0  0  0  0  0  0  0  0  0  0  0  0
  152.0081  141.3003  158.5902 C   0  0  0  0  0  0  0  0  0  0  0  0
  153.0030  142.1788  159.3687 C   0  0  0  0  0  0  0  0  0  0  0  0
  152.4775  143.4941  159.5113 O   0  0  0  0  0  0  0  0  0  0  0  0
  152.2667  144.1193  158.2499 C   0  0  0  0  0  0  0  0  0  0  0  0
  151.2418  143.3114  157.4362 C   0  0  0  0  0  0  0  0  0  0  0  0
  149.7465  141.4578  155.9991 N   0  0  0  0  0  0  0  0  0  0  0  0
  149.0837  140.6780  155.1197 C   0  0  0  0  0  0  0  0  0  0  0  0
  147.7782  137.4287  152.0415 H   0  0  0  0  0  0  0  0  0  0  0  0
  145.2216  138.8482  152.1160 H   0  0  0  0  0  0  0  0  0  0  0  0
  145.7078  137.6370  150.9542 H   0  0  0  0  0  0  0  0  0  0  0  0
  145.3675  136.7277  153.8341 H   0  0  0  0  0  0  0  0  0  0  0  0
  143.9132  137.1509  152.9679 H   0  0  0  0  0  0  0  0  0  0  0  0
  143.5970  135.9556  150.6477 H   0  0  0  0  0  0  0  0  0  0  0  0
  143.0848  133.5917  150.1792 H   0  0  0  0  0  0  0  0  0  0  0  0
  144.6721  133.8681  149.4907 H   0  0  0  0  0  0  0  0  0  0  0  0
  143.9732  132.4453  152.0981 H   0  0  0  0  0  0  0  0  0  0  0  0
  144.8440  131.7920  150.7311 H   0  0  0  0  0  0  0  0  0  0  0  0
  146.4209  132.3229  152.5776 H   0  0  0  0  0  0  0  0  0  0  0  0
  146.7452  133.3418  151.1969 H   0  0  0  0  0  0  0  0  0  0  0  0
  146.7944  134.8003  153.0975 H   0  0  0  0  0  0  0  0  0  0  0  0
  145.3430  134.1152  153.7891 H   0  0  0  0  0  0  0  0  0  0  0  0
  149.2909  138.0292  153.1495 H   0  0  0  0  0  0  0  0  0  0  0  0
  151.3901  138.2156  154.6098 H   0  0  0  0  0  0  0  0  0  0  0  0
  152.6097  139.6436  156.1920 H   0  0  0  0  0  0  0  0  0  0  0  0
  151.0923  141.1728  159.1686 H   0  0  0  0  0  0  0  0  0  0  0  0
  152.4394  140.3091  158.4589 H   0  0  0  0  0  0  0  0  0  0  0  0
  153.1783  141.7589  160.3593 H   0  0  0  0  0  0  0  0  0  0  0  0
  153.9692  142.2141  158.8628 H   0  0  0  0  0  0  0  0  0  0  0  0
  151.9010  145.1332  158.4121 H   0  0  0  0  0  0  0  0  0  0  0  0
  153.2116  144.2040  157.7108 H   0  0  0  0  0  0  0  0  0  0  0  0
  151.1286  143.7628  156.4497 H   0  0  0  0  0  0  0  0  0  0  0  0
  150.2672  143.3441  157.9250 H   0  0  0  0  0  0  0  0  0  0  0  0
  148.0918  141.0102  154.8499 H   0  0  0  0  0  0  0  0  0  0  0  0
  1  2  2  0  0  0  0
  2  3  1  0  0  0  0
  2 12  1  0  0  0  0
  3  4  1  0  0  0  0
  3 25  1  0  0  0  0
  4  5  1  0  0  0  0
  4 26  1  0  0  0  0
  4 27  1  0  0  0  0
  5  6  1  0  0  0  0
  5 28  1  0  0  0  0
  5 29  1  0  0  0  0
  6 11  1  0  0  0  0
  6  7  2  0  0  0  0
  7  8  1  0  0  0  0
  7 30  1  0  0  0  0
  8  9  1  0  0  0  0
  8 31  1  0  0  0  0
  8 32  1  0  0  0  0
  9 10  1  0  0  0  0
  9 33  1  0  0  0  0
  9 34  1  0  0  0  0
 10 11  1  0  0  0  0
 10 35  1  0  0  0  0
 10 36  1  0  0  0  0
 11 37  1  0  0  0  0
 11 38  1  0  0  0  0
 12 13  1  0  0  0  0
 12 39  1  0  0  0  0
 13 24  1  0  0  0  0
 13 14  2  0  0  0  0
 14 15  1  0  0  0  0
 14 40  1  0  0  0  0
 15 16  2  0  0  0  0
 15 41  1  0  0  0  0
 16 17  1  0  0  0  0
 16 23  1  0  0  0  0
 17 22  1  0  0  0  0
 17 18  1  0  0  0  0
 18 19  1  0  0  0  0
 18 42  1  0  0  0  0
 18 43  1  0  0  0  0
 19 20  1  0  0  0  0
 19 44  1  0  0  0  0
 19 45  1  0  0  0  0
 20 21  1  0  0  0  0
 21 22  1  0  0  0  0
 21 46  1  0  0  0  0
 21 47  1  0  0  0  0
 22 48  1  0  0  0  0
 22 49  1  0  0  0  0
 23 24  2  0  0  0  0
 24 50  1  0  0  0  0
M  END
> <s_m_source_file>
AV-unprocessed.smi

> <i_m_source_file_index>
2080

> <i_lp_mmshare_version>
43012

> <i_f3d_flags>
0

> <s_epik_input>
W0NIMl0xW0NIMl1bQ0gyXVtDSDJdW0NIXT1DMVtDSDJdW0NIMl1bTkhdQyg9TylbTkhdYzJbY0hdW2NIXWMobltjSF0yKU4zW0NIMl1bQ0gyXU9bQ0gyXVtDSDJdMw==

> <s_epik_cmdline>
J2VwaWtfcHl0aG9uJywgJy1waCcsICc3LjAnLCAnLXRuJywgJzgnLCAnLW1hJywgJzIwMCcsICctbWV0YWxfYmluZGluZycsICctaW1hZScsICc8aW5maWxlLm1hZT4nLCAnLW9tYWUnLCAnPG91dGZpbGUubWFlPic=

> <r_lp_tautomer_probability>
1

> <r_epik_Ionization_Penalty>
0.00210516

> <r_epik_Ionization_Penalty_Charging>
0

> <r_epik_Ionization_Penalty_Neutral>
0.00210516

> <r_epik_State_Penalty>
0.00141447

> <r_epik_Charging_Adjusted_Penalty>
0.00141447

> <i_epik_Tot_Q>
0

> <i_epik_Tot_abs_Q>
0

> <r_epik_Metal_State_Penalty>
-0

> <b_epik_Metal_Only>
0

> <s_lp_Force_Field>
OPLS_2005

> <r_lp_Energy>
24.2654

> <b_lp_Chiralities_Consistent>
1

> <s_lp_Variant>
AV-unprocessed.smi:2080-1

> <Gold.Version>
5.8.1

> <Gold.Id.Protein>
6NUR|6NUR_protein|mol2

> <Gold.PLP.Fitness>
50.3065

> <Gold.PLP.PLP>
-47.1251

> <Gold.PLP.part.hbond>
-3.5115

> <Gold.PLP.part.metal>
0.0000

> <Gold.PLP.part.buried>
0.7971

> <Gold.PLP.part.nonpolar>
-45.7225

> <Gold.PLP.part.repulsive>
0.4613

> <Gold.PLP.ligand.clash>
0.0000

> <Gold.PLP.ligand.torsion>
0.9418

> <Gold.PLP.Chemscore.Hbond>
1.5616

> <Gold.PLP.Chemscore.CHOScore>
0.0000

> <Gold.PLP.Chemscore.Metal>
0.0000

> <Gold.Chemscore.Hbonds>
donor molecule, donor type, donor heavy atom, donor atom, acceptor molecule, acceptor atom, score
      L1  H     3    25       P1  7948  1.00
      L1  H    12    39       P1  7948  0.50

> <Gold.PLP.Chemscore.Internal.Correction>
0.3801

> <Gold.Rescore>
     Score         DG    S(hbond)    S(metal)    S(lipo)     H(rot)  DE(clash)    DE(int)     intcor
     17.12     -20.53       1.87        0.00     108.00       1.49       1.46       1.95       ----

> <Gold.Chemscore.Fitness>
17.1245

> <Gold.Chemscore.DG>
-20.5316

> <Gold.Chemscore.ZeroCoef>
-5.4800

> <Gold.Chemscore.Hbond>
1.8657

> <Gold.Chemscore.Metal>
0.0000

> <Gold.Chemscore.Lipo>
107.9993

> <Gold.Chemscore.Internal_Hbond>
0.0000

> <Gold.Chemscore.DEClash>
1.4557

> <Gold.Chemscore.DEInternal>
1.9514

> <Gold.Chemscore.Rot>
1.4905

> <Gold.Chemscore.Internal.Correction>
   9.000000E+99

> <Gold.Chemscore.Hbonds>
donor molecule, donor type, donor heavy atom, donor atom, acceptor molecule, acceptor atom, score
      L1  H     3    25       P1  7948  1.00
      L1  H    12    39       P1  7948  0.48

> <Gold.Chemscore.Hbond.Weighted>
-6.2315

> <Gold.Chemscore.Metal.Weighted>
-0.0000

> <Gold.Chemscore.Lipo.Weighted>
-12.6359

> <Gold.Chemscore.Internal_Hbond.Weighted>
0.0000

> <Gold.Chemscore.DEClash.Weighted>
1.4557

> <Gold.Chemscore.DEInternal.Weighted>
1.9514

> <Gold.Chemscore.Rot.Weighted>
3.8158

> <Gold.Chemscore.Internal.Correction.Weighted>
   9.000000E+99

> <Gold.Protein.RotatedTorsions>
[ 6907 6896 6895 6894 ] final  -72.96 input  -60.11 | X-H torsion
[ 7974 7965 7964 7962 ] final  129.84 input  175.53 | X-H torsion
[ 8008 7997 7996 7995 ] final   13.58 input   59.86 | X-H torsion
[ 10167 10162 10161 10158 ] final  132.73 input  -65.29 | X-H torsion
[ 10718 10713 10712 10709 ] final -113.93 input   66.30 | X-H torsion
[ 10763 10752 10751 10750 ] final   64.57 input  -60.55 | X-H torsion
[ 11005 11000 10999 10996 ] final    7.78 input  -57.11 | X-H torsion

> <Gold.Protein.ActiveResidues>
 VAL166  LYS551  ARG553  GLY616  TRP617  ASP618  TYR619  PRO620  LYS621  CYS622 
 ASP623  PHE694  ASN695  SER759  ASP760  ASP761  ALA762  ILE779  LEU786  VAL792 
 PHE793  MET794  SER795  GLU796  ALA797  LYS798  CYS799  TRP800  GLU811  SER814 

> <Gold.Protein.RotatedAtoms>
  150.7149  134.5086  159.5595 H   0  0  0  0  0  0  0  0  0  0  0  0  # atno 6907 bound_to 6896
  152.2668  134.7973  160.0430 H   0  0  0  0  0  0  0  0  0  0  0  0  # atno 6908 bound_to 6896
  151.8667  133.3432  159.3758 H   0  0  0  0  0  0  0  0  0  0  0  0  # atno 6909 bound_to 6896
  145.0243  139.4103  143.5181 H   0  0  0  0  0  0  0  0  0  0  0  0  # atno 7974 bound_to 7965
  154.8365  140.2908  155.5688 H   0  0  0  0  0  0  0  0  0  0  0  0  # atno 8008 bound_to 7997
  156.3009  140.2522  156.3231 H   0  0  0  0  0  0  0  0  0  0  0  0  # atno 8009 bound_to 7997
  154.9173  140.0387  157.1968 H   0  0  0  0  0  0  0  0  0  0  0  0  # atno 8010 bound_to 7997
  139.5327  144.6648  151.4894 H   0  0  0  0  0  0  0  0  0  0  0  0  # atno 10167 bound_to 10162
  156.0797  130.5999  150.8707 H   0  0  0  0  0  0  0  0  0  0  0  0  # atno 10718 bound_to 10713
  153.0061  135.5388  154.6531 H   0  0  0  0  0  0  0  0  0  0  0  0  # atno 10763 bound_to 10752
  154.5759  135.2845  155.0784 H   0  0  0  0  0  0  0  0  0  0  0  0  # atno 10764 bound_to 10752
  154.1932  135.6496  153.5118 H   0  0  0  0  0  0  0  0  0  0  0  0  # atno 10765 bound_to 10752
  140.5444  134.0343  155.7915 H   0  0  0  0  0  0  0  0  0  0  0  0  # atno 11005 bound_to 11000
  146.3490  139.9758  142.8701 LP  0  0  0  0  0  0  0  0  0  0  0  0  # atno 17320 bound_to 7965
  145.1854  140.9787  143.4242 LP  0  0  0  0  0  0  0  0  0  0  0  0  # atno 17321 bound_to 7965
  140.6515  143.8687  150.6790 LP  0  0  0  0  0  0  0  0  0  0  0  0  # atno 17342 bound_to 10162
  140.2053  143.3927  152.1760 LP  0  0  0  0  0  0  0  0  0  0  0  0  # atno 17343 bound_to 10162
  157.5909  131.0944  150.9120 LP  0  0  0  0  0  0  0  0  0  0  0  0  # atno 17370 bound_to 10713
  156.9296  130.5345  149.5279 LP  0  0  0  0  0  0  0  0  0  0  0  0  # atno 17371 bound_to 10713
  141.1208  133.9464  157.2732 LP  0  0  0  0  0  0  0  0  0  0  0  0  # atno 17394 bound_to 11000
  139.9487  135.0179  156.8930 LP  0  0  0  0  0  0  0  0  0  0  0  0  # atno 17395 bound_to 11000

$$$$
