AV-unprocessed.smi:2911|AV-procd|sdf|11178|dock6
  -GOLD-   2272016 73D 1   1.00000     0.00000
 Structure written by MMmdl.
 41 42  0  0  0  0  0  0  0  0  1 V2000
  154.0837  138.7990  154.1798 C   0  0  0  0  0  0  0  0  0  0  0  0
  152.8545  138.8343  155.0219 C   0  0  0  0  0  0  0  0  0  0  0  0
  152.7045  138.0180  156.0579 N   0  0  0  0  0  0  0  0  0  0  0  0
  151.4402  138.3605  156.5587 O   0  0  0  0  0  0  0  0  0  0  0  0
  150.9869  139.3605  155.7652 C   0  0  0  0  0  0  0  0  0  0  0  0
  149.6258  139.9179  156.0154 C   0  0  0  0  0  0  0  0  0  0  0  0
  149.6296  141.4518  156.1138 C   0  0  0  0  0  0  0  0  0  0  0  0
  150.5940  141.9249  157.1006 N   0  0  0  0  0  0  0  0  0  0  0  0
  150.3156  142.7386  158.1337 C   0  0  0  0  0  0  0  0  0  0  0  0
  149.1725  143.1462  158.3465 O   0  0  0  0  0  0  0  0  0  0  0  0
  151.3713  143.0174  158.9443 N   0  0  0  0  0  0  0  0  0  0  0  0
  152.6585  142.2879  158.9402 C   0  0  0  0  0  0  0  0  0  0  0  0
  153.0260  141.8203  160.3556 C   0  0  0  0  0  0  0  0  0  0  0  0
  153.0990  143.0114  161.3229 C   0  0  2  0  0  0  0  0  0  0  0  0
  153.4386  142.5612  162.7504 C   0  0  0  0  0  0  0  0  0  0  0  0
  151.7806  143.8022  161.2757 C   0  0  0  0  0  0  0  0  0  0  0  0
  151.3522  144.1920  159.8435 C   0  0  1  0  0  0  0  0  0  0  0  0
  152.1385  145.3761  159.2520 C   0  0  0  0  0  0  0  0  0  0  0  0
  151.8191  139.6839  154.7784 N   0  0  0  0  0  0  0  0  0  0  0  0
  154.9314  138.4152  154.7487 H   0  0  0  0  0  0  0  0  0  0  0  0
  154.3329  139.8002  153.8277 H   0  0  0  0  0  0  0  0  0  0  0  0
  153.9268  138.1557  153.3139 H   0  0  0  0  0  0  0  0  0  0  0  0
  148.9654  139.5942  155.2102 H   0  0  0  0  0  0  0  0  0  0  0  0
  149.2369  139.4786  156.9349 H   0  0  0  0  0  0  0  0  0  0  0  0
  149.8384  141.8979  155.1399 H   0  0  0  0  0  0  0  0  0  0  0  0
  148.6426  141.8063  156.4121 H   0  0  0  0  0  0  0  0  0  0  0  0
  151.5462  141.6057  156.9964 H   0  0  0  0  0  0  0  0  0  0  0  0
  152.6796  141.4235  158.2772 H   0  0  0  0  0  0  0  0  0  0  0  0
  153.4364  142.9486  158.5576 H   0  0  0  0  0  0  0  0  0  0  0  0
  152.2874  141.0972  160.7049 H   0  0  0  0  0  0  0  0  0  0  0  0
  153.9839  141.3000  160.3334 H   0  0  0  0  0  0  0  0  0  0  0  0
  153.9017  143.6694  160.9878 H   0  0  0  0  0  0  0  0  0  0  0  0
  152.6731  141.8949  163.1492 H   0  0  0  0  0  0  0  0  0  0  0  0
  153.5194  143.4159  163.4226 H   0  0  0  0  0  0  0  0  0  0  0  0
  154.3899  142.0293  162.7778 H   0  0  0  0  0  0  0  0  0  0  0  0
  150.9910  143.1928  161.7182 H   0  0  0  0  0  0  0  0  0  0  0  0
  151.8544  144.6948  161.8981 H   0  0  0  0  0  0  0  0  0  0  0  0
  150.3283  144.5517  159.9562 H   0  0  0  0  0  0  0  0  0  0  0  0
  152.0351  146.2617  159.8793 H   0  0  0  0  0  0  0  0  0  0  0  0
  151.7689  145.6345  158.2592 H   0  0  0  0  0  0  0  0  0  0  0  0
  153.2033  145.1619  159.1657 H   0  0  0  0  0  0  0  0  0  0  0  0
  1  2  1  0  0  0  0
  1 20  1  0  0  0  0
  1 21  1  0  0  0  0
  1 22  1  0  0  0  0
  2 19  1  0  0  0  0
  2  3  2  0  0  0  0
  3  4  1  0  0  0  0
  4  5  1  0  0  0  0
  5  6  1  0  0  0  0
  5 19  2  0  0  0  0
  6  7  1  0  0  0  0
  6 23  1  0  0  0  0
  6 24  1  0  0  0  0
  7  8  1  0  0  0  0
  7 25  1  0  0  0  0
  7 26  1  0  0  0  0
  8  9  1  0  0  0  0
  8 27  1  0  0  0  0
  9 10  2  0  0  0  0
  9 11  1  0  0  0  0
 11 17  1  0  0  0  0
 11 12  1  0  0  0  0
 12 13  1  0  0  0  0
 12 28  1  0  0  0  0
 12 29  1  0  0  0  0
 13 14  1  0  0  0  0
 13 30  1  0  0  0  0
 13 31  1  0  0  0  0
 14 15  1  0  0  0  0
 14 16  1  0  0  0  0
 14 32  1  0  0  0  0
 15 33  1  0  0  0  0
 15 34  1  0  0  0  0
 15 35  1  0  0  0  0
 16 17  1  0  0  0  0
 16 36  1  0  0  0  0
 16 37  1  0  0  0  0
 17 18  1  0  0  0  0
 17 38  1  0  0  0  0
 18 39  1  0  0  0  0
 18 40  1  0  0  0  0
 18 41  1  0  0  0  0
M  END
> <s_m_source_file>
AV-unprocessed.smi

> <i_m_source_file_index>
2911

> <i_lp_mmshare_version>
43012

> <i_f3d_flags>
0

> <s_epik_input>
W0NIM11jMW5vYyhuMSlbQ0gyXVtDSDJdW05IXUMoPU8pTjJbQ0gyXVtDSDJdW0NAQEhdKFtDSDNdKVtDSDJdW0NASF0yW0NIM10=

> <s_epik_cmdline>
J2VwaWtfcHl0aG9uJywgJy1waCcsICc3LjAnLCAnLXRuJywgJzgnLCAnLW1hJywgJzIwMCcsICctbWV0YWxfYmluZGluZycsICctaW1hZScsICc8aW5maWxlLm1hZT4nLCAnLW9tYWUnLCAnPG91dGZpbGUubWFlPic=

> <r_lp_tautomer_probability>
1

> <r_epik_Ionization_Penalty>
6.61671e-05

> <r_epik_Ionization_Penalty_Charging>
0

> <r_epik_Ionization_Penalty_Neutral>
6.61671e-05

> <r_epik_State_Penalty>
-0

> <r_epik_Charging_Adjusted_Penalty>
0

> <i_epik_Tot_Q>
0

> <i_epik_Tot_abs_Q>
0

> <r_epik_Metal_State_Penalty>
-0

> <b_epik_Metal_Only>
0

> <s_lp_Force_Field>
OPLS_2005

> <r_lp_Energy>
30.9139

> <b_lp_Chiralities_Consistent>
1

> <s_lp_Variant>
AV-unprocessed.smi:2911-2

> <Gold.Version>
5.8.1

> <Gold.Id.Protein>
6NUR|6NUR_protein|mol2

> <Gold.PLP.Fitness>
42.0892

> <Gold.PLP.PLP>
-39.5249

> <Gold.PLP.part.hbond>
-1.0000

> <Gold.PLP.part.metal>
0.0000

> <Gold.PLP.part.buried>
-5.1076

> <Gold.PLP.part.nonpolar>
-33.6118

> <Gold.PLP.part.repulsive>
0.7545

> <Gold.PLP.ligand.clash>
0.0000

> <Gold.PLP.ligand.torsion>
0.2298

> <Gold.PLP.Chemscore.Hbond>
1.0000

> <Gold.PLP.Chemscore.CHOScore>
0.0000

> <Gold.PLP.Chemscore.Metal>
0.0000

> <Gold.Chemscore.Hbonds>
donor molecule, donor type, donor heavy atom, donor atom, acceptor molecule, acceptor atom, score
      P1  H  7989  7998       L1    19  1.00

> <Gold.PLP.Chemscore.Internal.Correction>
0.0239

> <Gold.Rescore>
     Score         DG    S(hbond)    S(metal)    S(lipo)     H(rot)  DE(clash)    DE(int)     intcor
     16.22     -16.46       0.98        0.00     100.96       1.61       0.13       0.12       ----

> <Gold.Chemscore.Fitness>
16.2151

> <Gold.Chemscore.DG>
-16.4591

> <Gold.Chemscore.ZeroCoef>
-5.4800

> <Gold.Chemscore.Hbond>
0.9838

> <Gold.Chemscore.Metal>
0.0000

> <Gold.Chemscore.Lipo>
100.9557

> <Gold.Chemscore.Internal_Hbond>
0.0000

> <Gold.Chemscore.DEClash>
0.1268

> <Gold.Chemscore.DEInternal>
0.1171

> <Gold.Chemscore.Rot>
1.6088

> <Gold.Chemscore.Internal.Correction>
   9.000000E+99

> <Gold.Chemscore.Hbonds>
donor molecule, donor type, donor heavy atom, donor atom, acceptor molecule, acceptor atom, score
      P1  H  7989  7998       L1    19  0.95

> <Gold.Chemscore.Hbond.Weighted>
-3.2859

> <Gold.Chemscore.Metal.Weighted>
-0.0000

> <Gold.Chemscore.Lipo.Weighted>
-11.8118

> <Gold.Chemscore.Internal_Hbond.Weighted>
0.0000

> <Gold.Chemscore.DEClash.Weighted>
0.1268

> <Gold.Chemscore.DEInternal.Weighted>
0.1171

> <Gold.Chemscore.Rot.Weighted>
4.1186

> <Gold.Chemscore.Internal.Correction.Weighted>
   9.000000E+99

> <Gold.Protein.RotatedTorsions>
[ 6907 6896 6895 6894 ] final  -74.17 input  -60.11 | X-H torsion
[ 7974 7965 7964 7962 ] final -106.50 input  175.53 | X-H torsion
[ 8008 7997 7996 7995 ] final  -61.10 input   59.86 | X-H torsion
[ 10167 10162 10161 10158 ] final  -67.16 input  -65.29 | X-H torsion
[ 10718 10713 10712 10709 ] final   85.50 input   66.30 | X-H torsion
[ 10763 10752 10751 10750 ] final  -38.12 input  -60.55 | X-H torsion
[ 11005 11000 10999 10996 ] final   98.18 input  -57.11 | X-H torsion

> <Gold.Protein.ActiveResidues>
 VAL166  LYS551  ARG553  GLY616  TRP617  ASP618  TYR619  PRO620  LYS621  CYS622 
 ASP623  PHE694  ASN695  SER759  ASP760  ASP761  ALA762  ILE779  LEU786  VAL792 
 PHE793  MET794  SER795  GLU796  ALA797  LYS798  CYS799  TRP800  GLU811  SER814 

> <Gold.Protein.RotatedAtoms>
  150.7103  134.4908  159.5514 H   0  0  0  0  0  0  0  0  0  0  0  0  # atno 6907 bound_to 6896
  152.2526  134.8114  160.0452 H   0  0  0  0  0  0  0  0  0  0  0  0  # atno 6908 bound_to 6896
  151.8856  133.3469  159.3818 H   0  0  0  0  0  0  0  0  0  0  0  0  # atno 6909 bound_to 6896
  145.2171  140.9119  143.3281 H   0  0  0  0  0  0  0  0  0  0  0  0  # atno 7974 bound_to 7965
  154.4431  140.1025  156.6377 H   0  0  0  0  0  0  0  0  0  0  0  0  # atno 8008 bound_to 7997
  155.5536  140.3486  155.4455 H   0  0  0  0  0  0  0  0  0  0  0  0  # atno 8009 bound_to 7997
  156.0511  140.1304  157.0038 H   0  0  0  0  0  0  0  0  0  0  0  0  # atno 8010 bound_to 7997
  140.5603  143.2312  151.6741 H   0  0  0  0  0  0  0  0  0  0  0  0  # atno 10167 bound_to 10162
  157.6915  131.0177  150.2831 H   0  0  0  0  0  0  0  0  0  0  0  0  # atno 10718 bound_to 10713
  153.9076  135.6796  153.4752 H   0  0  0  0  0  0  0  0  0  0  0  0  # atno 10763 bound_to 10752
  153.1095  135.4789  154.9008 H   0  0  0  0  0  0  0  0  0  0  0  0  # atno 10764 bound_to 10752
  154.7543  135.3193  154.8454 H   0  0  0  0  0  0  0  0  0  0  0  0  # atno 10765 bound_to 10752
  139.8773  134.9037  156.4418 H   0  0  0  0  0  0  0  0  0  0  0  0  # atno 11005 bound_to 11000
  144.9801  139.3792  143.6266 LP  0  0  0  0  0  0  0  0  0  0  0  0  # atno 17320 bound_to 7965
  146.3384  139.8937  142.8805 LP  0  0  0  0  0  0  0  0  0  0  0  0  # atno 17321 bound_to 7965
  139.5067  144.3672  152.0505 LP  0  0  0  0  0  0  0  0  0  0  0  0  # atno 17342 bound_to 10162
  140.2798  144.3872  150.6123 LP  0  0  0  0  0  0  0  0  0  0  0  0  # atno 17343 bound_to 10162
  156.3374  130.3810  149.7438 LP  0  0  0  0  0  0  0  0  0  0  0  0  # atno 17370 bound_to 10713
  156.4958  130.8106  151.3113 LP  0  0  0  0  0  0  0  0  0  0  0  0  # atno 17371 bound_to 10713
  140.8994  133.7790  155.9662 LP  0  0  0  0  0  0  0  0  0  0  0  0  # atno 17394 bound_to 11000
  140.8668  134.2775  157.5209 LP  0  0  0  0  0  0  0  0  0  0  0  0  # atno 17395 bound_to 11000

$$$$
