AV-unprocessed.smi:527|AV-procd|sdf|2819|dock3
  -GOLD-   2262023303D 1   1.00000     0.00000
 Structure written by MMmdl.
 42 43  0  0  0  0  0  0  0  0  1 V2000
  149.1591  140.7187  156.3044 C   0  0  0  0  0  0  0  0  0  0  0  0
  149.4142  140.6540  154.7843 C   0  0  2  0  0  0  0  0  0  0  0  0
  148.5717  141.6973  154.0229 C   0  0  0  0  0  0  0  0  0  0  0  0
  147.0848  141.3137  153.9673 C   0  0  0  0  0  0  0  0  0  0  0  0
  146.8941  139.9180  153.3578 C   0  0  0  0  0  0  0  0  0  0  0  0
  147.7197  138.8465  154.1008 C   0  0  1  0  0  0  0  0  0  0  0  0
  147.5646  137.5548  153.4338 N   0  0  0  0  0  0  0  0  0  0  0  0
  146.5956  136.6615  153.6834 C   0  0  0  0  0  0  0  0  0  0  0  0
  145.6757  136.8645  154.4789 O   0  0  0  0  0  0  0  0  0  0  0  0
  146.7745  135.5413  152.9570 N   0  0  0  0  0  0  0  0  0  0  0  0
  146.0030  134.4350  152.9467 C   0  0  0  0  0  0  0  0  0  0  0  0
  144.9796  134.2834  153.6189 O   0  0  0  0  0  0  0  0  0  0  0  0
  146.4919  133.3216  152.0105 C   0  0  0  0  0  0  0  0  0  0  0  0
  145.4502  132.8167  151.1320 N   0  0  0  0  0  0  0  0  0  0  0  0
  144.0975  133.1326  151.1654 C   0  0  0  0  0  0  0  0  0  0  0  0
  143.5023  132.4207  150.1486 C   0  0  0  0  0  0  0  0  0  0  0  0
  144.4630  131.6653  149.4802 N   0  0  0  0  0  0  0  0  0  0  0  0
  145.5912  131.9529  150.1167 C   0  0  0  0  0  0  0  0  0  0  0  0
  149.2174  139.2439  154.1658 C   0  0  2  0  0  0  0  0  0  0  0  0
  150.0950  138.1762  154.8488 C   0  0  0  0  0  0  0  0  0  0  0  0
  148.1489  140.4063  156.5667 H   0  0  0  0  0  0  0  0  0  0  0  0
  149.2937  141.7341  156.6777 H   0  0  0  0  0  0  0  0  0  0  0  0
  149.8542  140.0850  156.8545 H   0  0  0  0  0  0  0  0  0  0  0  0
  150.4597  140.9298  154.6397 H   0  0  0  0  0  0  0  0  0  0  0  0
  148.6864  142.6817  154.4779 H   0  0  0  0  0  0  0  0  0  0  0  0
  148.9517  141.7914  153.0048 H   0  0  0  0  0  0  0  0  0  0  0  0
  146.6536  141.3401  154.9682 H   0  0  0  0  0  0  0  0  0  0  0  0
  146.5352  142.0500  153.3803 H   0  0  0  0  0  0  0  0  0  0  0  0
  145.8349  139.6578  153.3748 H   0  0  0  0  0  0  0  0  0  0  0  0
  147.1864  139.9440  152.3070 H   0  0  0  0  0  0  0  0  0  0  0  0
  147.3430  138.7571  155.1213 H   0  0  0  0  0  0  0  0  0  0  0  0
  148.2579  137.3211  152.7385 H   0  0  0  0  0  0  0  0  0  0  0  0
  147.5816  135.5261  152.3513 H   0  0  0  0  0  0  0  0  0  0  0  0
  147.3148  133.6938  151.3986 H   0  0  0  0  0  0  0  0  0  0  0  0
  146.8799  132.4927  152.6039 H   0  0  0  0  0  0  0  0  0  0  0  0
  143.6828  133.8198  151.8881 H   0  0  0  0  0  0  0  0  0  0  0  0
  142.4649  132.3942  149.8490 H   0  0  0  0  0  0  0  0  0  0  0  0
  146.5428  131.5249  149.8380 H   0  0  0  0  0  0  0  0  0  0  0  0
  149.5721  139.3110  153.1357 H   0  0  0  0  0  0  0  0  0  0  0  0
  149.7382  137.9450  155.8527 H   0  0  0  0  0  0  0  0  0  0  0  0
  151.1293  138.5115  154.9294 H   0  0  0  0  0  0  0  0  0  0  0  0
  150.1035  137.2442  154.2835 H   0  0  0  0  0  0  0  0  0  0  0  0
  1  2  1  0  0  0  0
  1 21  1  0  0  0  0
  1 22  1  0  0  0  0
  1 23  1  0  0  0  0
  2 19  1  0  0  0  0
  2  3  1  0  0  0  0
  2 24  1  0  0  0  0
  3  4  1  0  0  0  0
  3 25  1  0  0  0  0
  3 26  1  0  0  0  0
  4  5  1  0  0  0  0
  4 27  1  0  0  0  0
  4 28  1  0  0  0  0
  5  6  1  0  0  0  0
  5 29  1  0  0  0  0
  5 30  1  0  0  0  0
  6  7  1  0  0  0  0
  6 19  1  0  0  0  0
  6 31  1  0  0  0  0
  7  8  1  0  0  0  0
  7 32  1  0  0  0  0
  8  9  2  0  0  0  0
  8 10  1  0  0  0  0
 10 11  1  0  0  0  0
 10 33  1  0  0  0  0
 11 12  2  0  0  0  0
 11 13  1  0  0  0  0
 13 14  1  0  0  0  0
 13 34  1  0  0  0  0
 13 35  1  0  0  0  0
 14 18  1  0  0  0  0
 14 15  1  0  0  0  0
 15 16  2  0  0  0  0
 15 36  1  0  0  0  0
 16 17  1  0  0  0  0
 16 37  1  0  0  0  0
 17 18  2  0  0  0  0
 18 38  1  0  0  0  0
 19 20  1  0  0  0  0
 19 39  1  0  0  0  0
 20 40  1  0  0  0  0
 20 41  1  0  0  0  0
 20 42  1  0  0  0  0
M  END
> <s_m_source_file>
AV-unprocessed.smi

> <i_m_source_file_index>
527

> <i_lp_mmshare_version>
43012

> <i_f3d_flags>
0

> <s_epik_input>
W0NIM11bQ0BASF0xW0NIMl1bQ0gyXVtDSDJdW0NASF0oW0NASF0xW0NIM10pW05IXUMoPU8pW05IXUMoPU8pW0NIMl1uMltjSF1bY0hdbltjSF0y

> <s_epik_cmdline>
J2VwaWtfcHl0aG9uJywgJy1waCcsICc3LjAnLCAnLXRuJywgJzgnLCAnLW1hJywgJzIwMCcsICctbWV0YWxfYmluZGluZycsICctaW1hZScsICc8aW5maWxlLm1hZT4nLCAnLW9tYWUnLCAnPG91dGZpbGUubWFlPic=

> <r_lp_tautomer_probability>
1

> <r_epik_Ionization_Penalty>
0.172132

> <r_epik_Ionization_Penalty_Charging>
0.172105

> <r_epik_Ionization_Penalty_Neutral>
2.71747e-05

> <r_epik_State_Penalty>
0.161503

> <r_epik_Charging_Adjusted_Penalty>
0.333607

> <i_epik_Tot_Q>
0

> <i_epik_Tot_abs_Q>
0

> <r_epik_Metal_State_Penalty>
0.124763

> <b_epik_Metal_Only>
0

> <s_lp_Force_Field>
OPLS_2005

> <r_lp_Energy>
17.7357

> <b_lp_Chiralities_Consistent>
1

> <s_lp_Variant>
AV-unprocessed.smi:527-5

> <Gold.Version>
5.8.1

> <Gold.Id.Protein>
6NUR|6NUR_protein|mol2

> <Gold.PLP.Fitness>
45.4861

> <Gold.PLP.PLP>
-31.3184

> <Gold.PLP.part.hbond>
-2.7945

> <Gold.PLP.part.metal>
0.0000

> <Gold.PLP.part.buried>
-0.5279

> <Gold.PLP.part.nonpolar>
-29.3591

> <Gold.PLP.part.repulsive>
0.3180

> <Gold.PLP.ligand.clash>
0.0000

> <Gold.PLP.ligand.torsion>
0.5216

> <Gold.PLP.Chemscore.Hbond>
2.3976

> <Gold.PLP.Chemscore.CHOScore>
2.6671

> <Gold.PLP.Chemscore.Metal>
0.0000

> <Gold.Chemscore.Hbonds>
donor molecule, donor type, donor heavy atom, donor atom, acceptor molecule, acceptor atom, score
      L1  H     7    32       P1  7948  0.99
      L1  H    10    33       P1  7948  1.00
      P1  H 10785 10796       L1    17  0.38
      L1  C    16    37       P1 10186  0.91
      L1  C    16    37       P1 10952  0.75
      L1  C    18    38       P1 10747  0.96

> <Gold.PLP.Chemscore.Internal.Correction>
0.0166

> <Gold.Rescore>
     Score         DG    S(hbond)    S(metal)    S(lipo)     H(rot)  DE(clash)    DE(int)     intcor
     13.79     -17.19       2.47        0.00      65.79       1.66       0.47       2.92       ----

> <Gold.Chemscore.Fitness>
13.7932

> <Gold.Chemscore.DG>
-17.1855

> <Gold.Chemscore.ZeroCoef>
-5.4800

> <Gold.Chemscore.Hbond>
2.4744

> <Gold.Chemscore.Metal>
0.0000

> <Gold.Chemscore.Lipo>
65.7945

> <Gold.Chemscore.Internal_Hbond>
0.0000

> <Gold.Chemscore.DEClash>
0.4730

> <Gold.Chemscore.DEInternal>
2.9193

> <Gold.Chemscore.Rot>
1.6629

> <Gold.Chemscore.Internal.Correction>
   9.000000E+99

> <Gold.Chemscore.Hbonds>
donor molecule, donor type, donor heavy atom, donor atom, acceptor molecule, acceptor atom, score
      L1  H     7    32       P1  7948  0.90
      L1  H    10    33       P1  7948  0.93
      P1  H 10785 10796       L1    17  0.08

> <Gold.Chemscore.Hbond.Weighted>
-8.2644

> <Gold.Chemscore.Metal.Weighted>
-0.0000

> <Gold.Chemscore.Lipo.Weighted>
-7.6980

> <Gold.Chemscore.Internal_Hbond.Weighted>
0.0000

> <Gold.Chemscore.DEClash.Weighted>
0.4730

> <Gold.Chemscore.DEInternal.Weighted>
2.9193

> <Gold.Chemscore.Rot.Weighted>
4.2569

> <Gold.Chemscore.Internal.Correction.Weighted>
   9.000000E+99

> <Gold.Protein.RotatedTorsions>
[ 6907 6896 6895 6894 ] final  -38.83 input  -60.11 | X-H torsion
[ 7974 7965 7964 7962 ] final  -28.61 input  175.53 | X-H torsion
[ 8008 7997 7996 7995 ] final  -54.26 input   59.86 | X-H torsion
[ 10167 10162 10161 10158 ] final  -63.75 input  -65.29 | X-H torsion
[ 10718 10713 10712 10709 ] final  -66.06 input   66.30 | X-H torsion
[ 10763 10752 10751 10750 ] final   78.47 input  -60.55 | X-H torsion
[ 11005 11000 10999 10996 ] final   25.45 input  -57.11 | X-H torsion

> <Gold.Protein.ActiveResidues>
 VAL166  LYS551  ARG553  GLY616  TRP617  ASP618  TYR619  PRO620  LYS621  CYS622 
 ASP623  PHE694  ASN695  SER759  ASP760  ASP761  ALA762  ILE779  LEU786  VAL792 
 PHE793  MET794  SER795  GLU796  ALA797  LYS798  CYS799  TRP800  GLU811  SER814 

> <Gold.Protein.RotatedAtoms>
  150.9977  134.9296  159.7935 H   0  0  0  0  0  0  0  0  0  0  0  0  # atno 6907 bound_to 6896
  152.5269  134.3197  159.9153 H   0  0  0  0  0  0  0  0  0  0  0  0  # atno 6908 bound_to 6896
  151.3202  133.4002  159.2688 H   0  0  0  0  0  0  0  0  0  0  0  0  # atno 6909 bound_to 6896
  146.1276  140.5305  142.8708 H   0  0  0  0  0  0  0  0  0  0  0  0  # atno 7974 bound_to 7965
  154.4157  140.1180  156.5287 H   0  0  0  0  0  0  0  0  0  0  0  0  # atno 8008 bound_to 7997
  155.6628  140.3496  155.4769 H   0  0  0  0  0  0  0  0  0  0  0  0  # atno 8009 bound_to 7997
  155.9699  140.1139  157.0811 H   0  0  0  0  0  0  0  0  0  0  0  0  # atno 8010 bound_to 7997
  140.5849  143.2332  151.6264 H   0  0  0  0  0  0  0  0  0  0  0  0  # atno 10167 bound_to 10162
  156.0634  130.4256  150.1654 H   0  0  0  0  0  0  0  0  0  0  0  0  # atno 10718 bound_to 10713
  153.0877  135.4875  154.8629 H   0  0  0  0  0  0  0  0  0  0  0  0  # atno 10763 bound_to 10752
  154.7231  135.3043  154.9017 H   0  0  0  0  0  0  0  0  0  0  0  0  # atno 10764 bound_to 10752
  153.9676  135.6805  153.4799 H   0  0  0  0  0  0  0  0  0  0  0  0  # atno 10765 bound_to 10752
  140.3477  134.2263  155.7683 H   0  0  0  0  0  0  0  0  0  0  0  0  # atno 11005 bound_to 11000
  144.7658  140.5526  143.6704 LP  0  0  0  0  0  0  0  0  0  0  0  0  # atno 17320 bound_to 7965
  145.5332  139.1475  143.3488 LP  0  0  0  0  0  0  0  0  0  0  0  0  # atno 17321 bound_to 7965
  139.5192  144.3262  152.0867 LP  0  0  0  0  0  0  0  0  0  0  0  0  # atno 17342 bound_to 10162
  140.2417  144.4262  150.6257 LP  0  0  0  0  0  0  0  0  0  0  0  0  # atno 17343 bound_to 10162
  156.9718  130.9837  151.3457 LP  0  0  0  0  0  0  0  0  0  0  0  0  # atno 17370 bound_to 10713
  157.5658  130.8277  149.8326 LP  0  0  0  0  0  0  0  0  0  0  0  0  # atno 17371 bound_to 10713
  141.2021  133.7946  157.0408 LP  0  0  0  0  0  0  0  0  0  0  0  0  # atno 17394 bound_to 11000
  140.0729  134.9692  157.1497 LP  0  0  0  0  0  0  0  0  0  0  0  0  # atno 17395 bound_to 11000

$$$$
