AV-unprocessed.smi:755|AV-procd|sdf|3611|dock5
  -GOLD-   22720 1 03D 1   1.00000     0.00000
 Structure written by MMmdl.
 33 34  0  0  0  0  0  0  0  0  1 V2000
  150.4424  140.2201  154.8327 O   0  0  0  0  0  0  0  0  0  0  0  0
  149.7877  141.2445  155.0235 C   0  0  0  0  0  0  0  0  0  0  0  0
  148.5672  141.5448  154.1509 C   0  0  0  0  0  0  0  0  0  0  0  0
  147.3730  141.7440  154.9538 N   0  0  0  0  0  0  0  0  0  0  0  0
  146.0537  141.7145  154.5429 C   0  0  0  0  0  0  0  0  0  0  0  0
  145.3195  141.9597  155.6628 C   0  0  0  0  0  0  0  0  0  0  0  0
  143.6006  142.0474  155.7719 Cl  0  0  0  0  0  0  0  0  0  0  0  0
  146.2473  142.1290  156.7216 C   0  0  0  0  0  0  0  0  0  0  0  0
  147.4909  141.9972  156.2833 N   0  0  0  0  0  0  0  0  0  0  0  0
  150.0765  142.1388  155.9826 N   0  0  0  0  0  0  0  0  0  0  0  0
  151.1761  142.0281  156.9385 C   0  0  0  0  0  0  0  0  0  0  0  0
  151.3898  143.3083  157.7663 C   0  0  0  0  0  0  0  0  0  0  0  0
  151.2412  144.4130  157.2404 O   0  0  0  0  0  0  0  0  0  0  0  0
  151.7536  143.1759  159.0587 N   0  0  0  0  0  0  0  0  0  0  0  0
  151.9644  141.9110  159.7622 C   0  0  0  0  0  0  0  0  0  0  0  0
  152.5887  142.2843  161.1072 C   0  0  0  0  0  0  0  0  0  0  0  0
  152.1207  143.7121  161.3527 C   0  0  0  0  0  0  0  0  0  0  0  0
  151.9936  144.3085  159.9508 C   0  0  0  0  0  0  0  0  0  0  0  0
  148.7427  142.4446  153.5596 H   0  0  0  0  0  0  0  0  0  0  0  0
  148.4058  140.7254  153.4487 H   0  0  0  0  0  0  0  0  0  0  0  0
  145.7639  141.5283  153.5192 H   0  0  0  0  0  0  0  0  0  0  0  0
  146.0664  142.3378  157.7657 H   0  0  0  0  0  0  0  0  0  0  0  0
  149.4788  142.9483  156.0680 H   0  0  0  0  0  0  0  0  0  0  0  0
  151.0096  141.1762  157.5999 H   0  0  0  0  0  0  0  0  0  0  0  0
  152.0870  141.8183  156.3778 H   0  0  0  0  0  0  0  0  0  0  0  0
  151.0007  141.4228  159.9139 H   0  0  0  0  0  0  0  0  0  0  0  0
  152.6098  141.2287  159.2070 H   0  0  0  0  0  0  0  0  0  0  0  0
  152.3053  141.6019  161.9090 H   0  0  0  0  0  0  0  0  0  0  0  0
  153.6762  142.2677  161.0231 H   0  0  0  0  0  0  0  0  0  0  0  0
  151.1417  143.6966  161.8338 H   0  0  0  0  0  0  0  0  0  0  0  0
  152.7991  144.2765  161.9932 H   0  0  0  0  0  0  0  0  0  0  0  0
  152.9234  144.7983  159.6576 H   0  0  0  0  0  0  0  0  0  0  0  0
  151.1919  145.0474  159.9049 H   0  0  0  0  0  0  0  0  0  0  0  0
  1  2  2  0  0  0  0
  2  3  1  0  0  0  0
  2 10  1  0  0  0  0
  3  4  1  0  0  0  0
  3 19  1  0  0  0  0
  3 20  1  0  0  0  0
  4  9  1  0  0  0  0
  4  5  1  0  0  0  0
  5  6  2  0  0  0  0
  5 21  1  0  0  0  0
  6  7  1  0  0  0  0
  6  8  1  0  0  0  0
  8  9  2  0  0  0  0
  8 22  1  0  0  0  0
 10 11  1  0  0  0  0
 10 23  1  0  0  0  0
 11 12  1  0  0  0  0
 11 24  1  0  0  0  0
 11 25  1  0  0  0  0
 12 13  2  0  0  0  0
 12 14  1  0  0  0  0
 14 18  1  0  0  0  0
 14 15  1  0  0  0  0
 15 16  1  0  0  0  0
 15 26  1  0  0  0  0
 15 27  1  0  0  0  0
 16 17  1  0  0  0  0
 16 28  1  0  0  0  0
 16 29  1  0  0  0  0
 17 18  1  0  0  0  0
 17 30  1  0  0  0  0
 17 31  1  0  0  0  0
 18 32  1  0  0  0  0
 18 33  1  0  0  0  0
M  END
> <s_m_source_file>
AV-unprocessed.smi

> <i_m_source_file_index>
755

> <i_lp_mmshare_version>
43012

> <i_f3d_flags>
0

> <s_epik_input>
bjFbY0hdYyhDbClbY0hdbjFbQ0gyXUMoPU8pW05IXVtDSDJdQyg9TylOMltDSDJdW0NIMl1bQ0gyXVtDSDJdMg==

> <s_epik_cmdline>
J2VwaWtfcHl0aG9uJywgJy1waCcsICc3LjAnLCAnLXRuJywgJzgnLCAnLW1hJywgJzIwMCcsICctbWV0YWxfYmluZGluZycsICctaW1hZScsICc8aW5maWxlLm1hZT4nLCAnLW9tYWUnLCAnPG91dGZpbGUubWFlPic=

> <r_lp_tautomer_probability>
1

> <r_epik_Ionization_Penalty>
4.35059e-07

> <r_epik_Ionization_Penalty_Charging>
0

> <r_epik_Ionization_Penalty_Neutral>
4.35059e-07

> <r_epik_State_Penalty>
-0

> <r_epik_Charging_Adjusted_Penalty>
0

> <i_epik_Tot_Q>
0

> <i_epik_Tot_abs_Q>
0

> <r_epik_Metal_State_Penalty>
-0

> <b_epik_Metal_Only>
0

> <s_lp_Force_Field>
OPLS_2005

> <r_lp_Energy>
27.1331

> <b_lp_Chiralities_Consistent>
1

> <s_lp_Variant>
AV-unprocessed.smi:755-1

> <Gold.Version>
5.8.1

> <Gold.Id.Protein>
6NUR|6NUR_protein|mol2

> <Gold.PLP.Fitness>
43.7061

> <Gold.PLP.PLP>
-36.1714

> <Gold.PLP.part.hbond>
-2.0000

> <Gold.PLP.part.metal>
0.0000

> <Gold.PLP.part.buried>
-4.5314

> <Gold.PLP.part.nonpolar>
-31.0540

> <Gold.PLP.part.repulsive>
2.2498

> <Gold.PLP.ligand.clash>
0.0000

> <Gold.PLP.ligand.torsion>
0.6118

> <Gold.PLP.Chemscore.Hbond>
2.0000

> <Gold.PLP.Chemscore.CHOScore>
0.9185

> <Gold.PLP.Chemscore.Metal>
0.0000

> <Gold.Chemscore.Hbonds>
donor molecule, donor type, donor heavy atom, donor atom, acceptor molecule, acceptor atom, score
      L1  H    10    23       P1  8028  1.00
      P1  H  7989  7998       L1     1  0.95
      L1  C     5    21       P1 10175  0.86

> <Gold.PLP.Chemscore.Internal.Correction>
0.0027

> <Gold.Rescore>
     Score         DG    S(hbond)    S(metal)    S(lipo)     H(rot)  DE(clash)    DE(int)     intcor
     12.72     -14.28       1.63        0.00      67.91       1.80       1.04       0.52       ----

> <Gold.Chemscore.Fitness>
12.7237

> <Gold.Chemscore.DG>
-14.2808

> <Gold.Chemscore.ZeroCoef>
-5.4800

> <Gold.Chemscore.Hbond>
1.6348

> <Gold.Chemscore.Metal>
0.0000

> <Gold.Chemscore.Lipo>
67.9085

> <Gold.Chemscore.Internal_Hbond>
0.0000

> <Gold.Chemscore.DEClash>
1.0362

> <Gold.Chemscore.DEInternal>
0.5209

> <Gold.Chemscore.Rot>
1.7988

> <Gold.Chemscore.Internal.Correction>
   9.000000E+99

> <Gold.Chemscore.Hbonds>
donor molecule, donor type, donor heavy atom, donor atom, acceptor molecule, acceptor atom, score
      L1  H    10    23       P1  8028  0.98
      P1  H  7989  7998       L1     1  0.21

> <Gold.Chemscore.Hbond.Weighted>
-5.4603

> <Gold.Chemscore.Metal.Weighted>
-0.0000

> <Gold.Chemscore.Lipo.Weighted>
-7.9453

> <Gold.Chemscore.Internal_Hbond.Weighted>
0.0000

> <Gold.Chemscore.DEClash.Weighted>
1.0362

> <Gold.Chemscore.DEInternal.Weighted>
0.5209

> <Gold.Chemscore.Rot.Weighted>
4.6048

> <Gold.Chemscore.Internal.Correction.Weighted>
   9.000000E+99

> <Gold.Protein.RotatedTorsions>
[ 6907 6896 6895 6894 ] final   38.44 input  -60.11 | X-H torsion
[ 7974 7965 7964 7962 ] final  132.98 input  175.53 | X-H torsion
[ 8008 7997 7996 7995 ] final   63.94 input   59.86 | X-H torsion
[ 10167 10162 10161 10158 ] final  156.35 input  -65.29 | X-H torsion
[ 10718 10713 10712 10709 ] final  -88.30 input   66.30 | X-H torsion
[ 10763 10752 10751 10750 ] final   40.02 input  -60.55 | X-H torsion
[ 11005 11000 10999 10996 ] final -123.07 input  -57.11 | X-H torsion

> <Gold.Protein.ActiveResidues>
 VAL166  LYS551  ARG553  GLY616  TRP617  ASP618  TYR619  PRO620  LYS621  CYS622 
 ASP623  PHE694  ASN695  SER759  ASP760  ASP761  ALA762  ILE779  LEU786  VAL792 
 PHE793  MET794  SER795  GLU796  ALA797  LYS798  CYS799  TRP800  GLU811  SER814 

> <Gold.Protein.RotatedAtoms>
  152.1564  134.8947  160.0544 H   0  0  0  0  0  0  0  0  0  0  0  0  # atno 6907 bound_to 6896
  151.9959  133.3803  159.4171 H   0  0  0  0  0  0  0  0  0  0  0  0  # atno 6908 bound_to 6896
  150.6882  134.3809  159.5077 H   0  0  0  0  0  0  0  0  0  0  0  0  # atno 6909 bound_to 6896
  144.9912  139.4404  143.5338 H   0  0  0  0  0  0  0  0  0  0  0  0  # atno 7974 bound_to 7965
  155.6382  140.3496  155.4706 H   0  0  0  0  0  0  0  0  0  0  0  0  # atno 8008 bound_to 7997
  155.9948  140.1201  157.0628 H   0  0  0  0  0  0  0  0  0  0  0  0  # atno 8009 bound_to 7997
  154.4230  140.1112  156.5601 H   0  0  0  0  0  0  0  0  0  0  0  0  # atno 8010 bound_to 7997
  139.4821  144.5016  151.8159 H   0  0  0  0  0  0  0  0  0  0  0  0  # atno 10167 bound_to 10162
  155.9984  130.4831  150.4998 H   0  0  0  0  0  0  0  0  0  0  0  0  # atno 10718 bound_to 10713
  152.9949  135.6203  154.2559 H   0  0  0  0  0  0  0  0  0  0  0  0  # atno 10763 bound_to 10752
  154.2296  135.2792  155.2896 H   0  0  0  0  0  0  0  0  0  0  0  0  # atno 10764 bound_to 10752
  154.5460  135.5747  153.6939 H   0  0  0  0  0  0  0  0  0  0  0  0  # atno 10765 bound_to 10752
  140.9947  134.0489  157.3612 H   0  0  0  0  0  0  0  0  0  0  0  0  # atno 11005 bound_to 11000
  146.3432  139.9245  142.8762 LP  0  0  0  0  0  0  0  0  0  0  0  0  # atno 17320 bound_to 7965
  145.2283  140.9963  143.4005 LP  0  0  0  0  0  0  0  0  0  0  0  0  # atno 17321 bound_to 7965
  140.4510  144.1855  150.5897 LP  0  0  0  0  0  0  0  0  0  0  0  0  # atno 17342 bound_to 10162
  140.4585  143.2458  151.9253 LP  0  0  0  0  0  0  0  0  0  0  0  0  # atno 17343 bound_to 10162
  157.2984  131.0640  151.2086 LP  0  0  0  0  0  0  0  0  0  0  0  0  # atno 17370 bound_to 10713
  157.3074  130.6872  149.6197 LP  0  0  0  0  0  0  0  0  0  0  0  0  # atno 17371 bound_to 10713
  139.9009  135.0164  156.7262 LP  0  0  0  0  0  0  0  0  0  0  0  0  # atno 17394 bound_to 11000
  140.6985  133.9327  155.8009 LP  0  0  0  0  0  0  0  0  0  0  0  0  # atno 17395 bound_to 11000

$$$$
