AV-unprocessed.smi:1291|AV-procd|sdf|5393|dock5
  -GOLD-   22720 4543D 1   1.00000     0.00000
 Structure written by MMmdl.
 44 46  0  0  0  0  0  0  0  0  2 V2000
  145.5104  138.2948  151.7387 O   0  0  0  0  0  0  0  0  0  0  0  0
  145.0852  137.3465  152.6949 C   0  0  0  0  0  0  0  0  0  0  0  0
  145.0178  135.9523  152.1566 C   0  0  0  0  0  0  0  0  0  0  0  0
  146.0546  135.2324  151.6396 N   0  3  0  0  0  0  0  0  0  0  0  0
  145.6075  133.9702  151.2486 C   0  0  0  0  0  0  0  0  0  0  0  0
  146.2888  132.8985  150.6793 C   0  0  0  0  0  0  0  0  0  0  0  0
  145.5323  131.7396  150.4085 C   0  0  0  0  0  0  0  0  0  0  0  0
  144.1544  131.6778  150.7008 C   0  0  0  0  0  0  0  0  0  0  0  0
  143.4738  132.7727  151.2728 C   0  0  0  0  0  0  0  0  0  0  0  0
  144.2287  133.9155  151.5386 C   0  0  0  0  0  0  0  0  0  0  0  0
  143.9081  135.1617  152.0921 N   0  0  0  0  0  0  0  0  0  0  0  0
  142.5234  135.4427  152.5057 C   0  0  0  0  0  0  0  0  0  0  0  0
  142.2762  135.1764  154.0042 C   0  0  2  0  0  0  0  0  0  0  0  0
  141.4765  134.0195  154.1495 O   0  0  0  0  0  0  0  0  0  0  0  0
  141.5516  136.3505  154.6795 C   0  0  0  0  0  0  0  0  0  0  0  0
  140.2452  136.4567  154.1389 O   0  0  0  0  0  0  0  0  0  0  0  0
  139.2858  136.8720  155.0964 C   0  0  0  0  0  0  0  0  0  0  0  0
  138.5224  138.0920  154.6194 C   0  0  0  0  0  0  0  0  0  0  0  0
  139.2150  139.1990  154.0847 C   0  0  0  0  0  0  0  0  0  0  0  0
  138.5047  140.3319  153.6418 C   0  0  0  0  0  0  0  0  0  0  0  0
  137.0995  140.3618  153.7304 C   0  0  0  0  0  0  0  0  0  0  0  0
  136.4047  139.2579  154.2611 C   0  0  0  0  0  0  0  0  0  0  0  0
  137.1136  138.1243  154.7051 C   0  0  0  0  0  0  0  0  0  0  0  0
  136.4364  137.0676  155.2156 F   0  0  0  0  0  0  0  0  0  0  0  0
  145.0220  139.0936  151.8694 H   0  0  0  0  0  0  0  0  0  0  0  0
  145.7709  137.3701  153.5421 H   0  0  0  0  0  0  0  0  0  0  0  0
  144.1016  137.6354  153.0654 H   0  0  0  0  0  0  0  0  0  0  0  0
  147.3447  132.9433  150.4566 H   0  0  0  0  0  0  0  0  0  0  0  0
  146.0189  130.8803  149.9702 H   0  0  0  0  0  0  0  0  0  0  0  0
  143.6074  130.7715  150.4843 H   0  0  0  0  0  0  0  0  0  0  0  0
  142.4196  132.7105  151.4988 H   0  0  0  0  0  0  0  0  0  0  0  0
  142.3284  136.4916  152.2793 H   0  0  0  0  0  0  0  0  0  0  0  0
  141.8362  134.8698  151.8828 H   0  0  0  0  0  0  0  0  0  0  0  0
  143.2341  135.0062  154.4973 H   0  0  0  0  0  0  0  0  0  0  0  0
  142.0464  133.2655  154.1728 H   0  0  0  0  0  0  0  0  0  0  0  0
  141.4640  136.1621  155.7509 H   0  0  0  0  0  0  0  0  0  0  0  0
  142.1111  137.2800  154.5588 H   0  0  0  0  0  0  0  0  0  0  0  0
  138.5903  136.0569  155.3019 H   0  0  0  0  0  0  0  0  0  0  0  0
  139.7790  137.1174  156.0383 H   0  0  0  0  0  0  0  0  0  0  0  0
  140.2927  139.1849  154.0147 H   0  0  0  0  0  0  0  0  0  0  0  0
  139.0384  141.1781  153.2344 H   0  0  0  0  0  0  0  0  0  0  0  0
  136.5548  141.2309  153.3918 H   0  0  0  0  0  0  0  0  0  0  0  0
  135.3270  139.2808  154.3283 H   0  0  0  0  0  0  0  0  0  0  0  0
  147.0000  135.5858  151.5664 H   0  0  0  0  0  0  0  0  0  0  0  0
  1  2  1  0  0  0  0
  1 25  1  0  0  0  0
  2  3  1  0  0  0  0
  2 26  1  0  0  0  0
  2 27  1  0  0  0  0
  3 11  1  0  0  0  0
  3  4  2  0  0  0  0
  4  5  1  0  0  0  0
  4 44  1  0  0  0  0
  5 10  2  0  0  0  0
  5  6  1  0  0  0  0
  6  7  2  0  0  0  0
  6 28  1  0  0  0  0
  7  8  1  0  0  0  0
  7 29  1  0  0  0  0
  8  9  2  0  0  0  0
  8 30  1  0  0  0  0
  9 10  1  0  0  0  0
  9 31  1  0  0  0  0
 10 11  1  0  0  0  0
 11 12  1  0  0  0  0
 12 13  1  0  0  0  0
 12 32  1  0  0  0  0
 12 33  1  0  0  0  0
 13 14  1  0  0  0  0
 13 15  1  0  0  0  0
 13 34  1  0  0  0  0
 14 35  1  0  0  0  0
 15 16  1  0  0  0  0
 15 36  1  0  0  0  0
 15 37  1  0  0  0  0
 16 17  1  0  0  0  0
 17 18  1  0  0  0  0
 17 38  1  0  0  0  0
 17 39  1  0  0  0  0
 18 23  1  0  0  0  0
 18 19  2  0  0  0  0
 19 20  1  0  0  0  0
 19 40  1  0  0  0  0
 20 21  2  0  0  0  0
 20 41  1  0  0  0  0
 21 22  1  0  0  0  0
 21 42  1  0  0  0  0
 22 23  2  0  0  0  0
 22 43  1  0  0  0  0
 23 24  1  0  0  0  0
M  CHG  1   4   1
M  END
> <s_m_source_file>
AV-unprocessed.smi

> <i_m_source_file_index>
1291

> <i_lp_mmshare_version>
43012

> <i_f3d_flags>
0

> <s_epik_input>
W2NIXTFbY0hdW2NIXVtjSF1jKGMxMiluKGMobjIpW0NIMl1bT0hdKVtDSDJdW0NASF0oW09IXSlbQ0gyXU9bQ0gyXWMzW2NIXVtjSF1bY0hdW2NIXWMzRg==

> <s_epik_cmdline>
J2VwaWtfcHl0aG9uJywgJy1waCcsICc3LjAnLCAnLXRuJywgJzgnLCAnLW1hJywgJzIwMCcsICctbWV0YWxfYmluZGluZycsICctaW1hZScsICc8aW5maWxlLm1hZT4nLCAnLW9tYWUnLCAnPG91dGZpbGUubWFlPic=

> <r_epik_Ionization_Penalty>
1.34314

> <r_epik_Ionization_Penalty_Charging>
1.34228

> <r_epik_Ionization_Penalty_Neutral>
0.000856861

> <r_epik_State_Penalty>
1.41963

> <r_epik_Charging_Adjusted_Penalty>
2.76191

> <i_epik_Tot_Q>
1

> <i_epik_Tot_abs_Q>
1

> <r_epik_Metal_State_Penalty>
5.45585

> <b_epik_Metal_Only>
0

> <s_lp_Force_Field>
OPLS_2005

> <r_lp_Energy>
17.9638

> <b_lp_Chiralities_Consistent>
1

> <s_lp_Variant>
AV-unprocessed.smi:1291-3

> <Gold.Version>
5.8.1

> <Gold.Id.Protein>
6NUR|6NUR_protein|mol2

> <Gold.PLP.Fitness>
59.0841

> <Gold.PLP.PLP>
-47.5239

> <Gold.PLP.part.hbond>
-5.2601

> <Gold.PLP.part.metal>
0.0000

> <Gold.PLP.part.buried>
-9.1311

> <Gold.PLP.part.nonpolar>
-34.8993

> <Gold.PLP.part.repulsive>
0.1338

> <Gold.PLP.ligand.clash>
0.0000

> <Gold.PLP.ligand.torsion>
1.7801

> <Gold.PLP.Chemscore.Hbond>
4.9913

> <Gold.PLP.Chemscore.CHOScore>
0.0000

> <Gold.PLP.Chemscore.Metal>
0.0000

> <Gold.Chemscore.Hbonds>
donor molecule, donor type, donor heavy atom, donor atom, acceptor molecule, acceptor atom, score
      L1  H     1    25       P1 10175  1.00
      L1  H     4    44       P1  7948  1.95
      L1  H    14    35       P1 10957  1.00
      P1  H 11000 11005       L1    14  1.00

> <Gold.PLP.Chemscore.Internal.Correction>
0.1465

> <Gold.Rescore>
     Score         DG    S(hbond)    S(metal)    S(lipo)     H(rot)  DE(clash)    DE(int)     intcor
     18.67     -20.61       3.33        0.00     109.38       3.44       0.00       1.94       ----

> <Gold.Chemscore.Fitness>
18.6668

> <Gold.Chemscore.DG>
-20.6078

> <Gold.Chemscore.ZeroCoef>
-5.4800

> <Gold.Chemscore.Hbond>
3.3308

> <Gold.Chemscore.Metal>
0.0000

> <Gold.Chemscore.Lipo>
109.3783

> <Gold.Chemscore.Internal_Hbond>
0.0000

> <Gold.Chemscore.DEClash>
0.0000

> <Gold.Chemscore.DEInternal>
1.9410

> <Gold.Chemscore.Rot>
3.4353

> <Gold.Chemscore.Internal.Correction>
   9.000000E+99

> <Gold.Chemscore.Hbonds>
donor molecule, donor type, donor heavy atom, donor atom, acceptor molecule, acceptor atom, score
      L1  H     1    25       P1 10175  0.96
      L1  H     4    44       P1  7948  0.92
      L1  H    14    35       P1 10957  0.98
      P1  H 11000 11005       L1    14  0.43

> <Gold.Chemscore.Hbond.Weighted>
-11.1250

> <Gold.Chemscore.Metal.Weighted>
-0.0000

> <Gold.Chemscore.Lipo.Weighted>
-12.7973

> <Gold.Chemscore.Internal_Hbond.Weighted>
0.0000

> <Gold.Chemscore.DEClash.Weighted>
0.0000

> <Gold.Chemscore.DEInternal.Weighted>
1.9410

> <Gold.Chemscore.Rot.Weighted>
8.7944

> <Gold.Chemscore.Internal.Correction.Weighted>
   9.000000E+99

> <Gold.Protein.RotatedTorsions>
[ 6907 6896 6895 6894 ] final  151.58 input  -60.11 | X-H torsion
[ 7974 7965 7964 7962 ] final  -34.75 input  175.53 | X-H torsion
[ 8008 7997 7996 7995 ] final  -74.08 input   59.86 | X-H torsion
[ 10167 10162 10161 10158 ] final  129.00 input  -65.29 | X-H torsion
[ 10718 10713 10712 10709 ] final  145.79 input   66.30 | X-H torsion
[ 10763 10752 10751 10750 ] final  -19.70 input  -60.55 | X-H torsion
[ 11005 11000 10999 10996 ] final    5.93 input  -57.11 | X-H torsion

> <Gold.Protein.ActiveResidues>
 VAL166  LYS551  ARG553  GLY616  TRP617  ASP618  TYR619  PRO620  LYS621  CYS622 
 ASP623  PHE694  ASN695  SER759  ASP760  ASP761  ALA762  ILE779  LEU786  VAL792 
 PHE793  MET794  SER795  GLU796  ALA797  LYS798  CYS799  TRP800  GLU811  SER814 

> <Gold.Protein.RotatedAtoms>
  152.0987  133.4238  159.4576 H   0  0  0  0  0  0  0  0  0  0  0  0  # atno 6907 bound_to 6896
  150.6863  134.2786  159.4627 H   0  0  0  0  0  0  0  0  0  0  0  0  # atno 6908 bound_to 6896
  152.0644  134.9573  160.0625 H   0  0  0  0  0  0  0  0  0  0  0  0  # atno 6909 bound_to 6896
  146.0803  140.6076  142.8911 H   0  0  0  0  0  0  0  0  0  0  0  0  # atno 7974 bound_to 7965
  154.5300  140.0768  156.8328 H   0  0  0  0  0  0  0  0  0  0  0  0  # atno 8008 bound_to 7997
  155.3394  140.3406  155.4221 H   0  0  0  0  0  0  0  0  0  0  0  0  # atno 8009 bound_to 7997
  156.1771  140.1639  156.8328 H   0  0  0  0  0  0  0  0  0  0  0  0  # atno 8010 bound_to 7997
  139.5499  144.6805  151.4356 H   0  0  0  0  0  0  0  0  0  0  0  0  # atno 10167 bound_to 10162
  157.3410  131.0936  151.1082 H   0  0  0  0  0  0  0  0  0  0  0  0  # atno 10718 bound_to 10713
  153.6089  135.6997  153.5354 H   0  0  0  0  0  0  0  0  0  0  0  0  # atno 10763 bound_to 10752
  153.3033  135.4122  155.1272 H   0  0  0  0  0  0  0  0  0  0  0  0  # atno 10764 bound_to 10752
  154.8567  135.3654  154.5627 H   0  0  0  0  0  0  0  0  0  0  0  0  # atno 10765 bound_to 10752
  140.5651  134.0155  155.7987 H   0  0  0  0  0  0  0  0  0  0  0  0  # atno 11005 bound_to 11000
  144.7289  140.4611  143.6952 LP  0  0  0  0  0  0  0  0  0  0  0  0  # atno 17320 bound_to 7965
  145.6229  139.1526  143.3012 LP  0  0  0  0  0  0  0  0  0  0  0  0  # atno 17321 bound_to 7965
  140.6759  143.8191  150.7057 LP  0  0  0  0  0  0  0  0  0  0  0  0  # atno 17342 bound_to 10162
  140.1630  143.4259  152.2054 LP  0  0  0  0  0  0  0  0  0  0  0  0  # atno 17343 bound_to 10162
  157.2294  130.6518  149.5843 LP  0  0  0  0  0  0  0  0  0  0  0  0  # atno 17370 bound_to 10713
  155.9708  130.4603  150.6070 LP  0  0  0  0  0  0  0  0  0  0  0  0  # atno 17371 bound_to 10713
  141.1090  133.9646  157.2944 LP  0  0  0  0  0  0  0  0  0  0  0  0  # atno 17394 bound_to 11000
  139.9389  135.0193  156.8644 LP  0  0  0  0  0  0  0  0  0  0  0  0  # atno 17395 bound_to 11000

$$$$
