AV-unprocessed.smi:968|AV-procd|sdf|4289|dock4
  -GOLD-   22720 2193D 1   1.00000     0.00000
 Structure written by MMmdl.
 20 20  0  0  0  0  0  0  0  0  1 V2000
  149.1327  133.4704  154.4688 C   0  0  0  0  0  0  0  0  0  0  0  0
  148.4282  133.8142  153.2431 N   0  0  0  0  0  0  0  0  0  0  0  0
  147.5734  132.9989  152.6094 C   0  0  0  0  0  0  0  0  0  0  0  0
  147.3053  131.8652  153.0110 O   0  0  0  0  0  0  0  0  0  0  0  0
  146.9391  133.5631  151.3315 C   0  0  0  0  0  0  0  0  0  0  0  0
  145.7885  132.7970  150.8815 N   0  0  0  0  0  0  0  0  0  0  0  0
  145.6841  131.5147  150.5239 C   0  0  0  0  0  0  0  0  0  0  0  0
  144.4590  131.1567  150.1634 N   0  0  0  0  0  0  0  0  0  0  0  0
  143.8167  132.3494  150.3354 C   0  0  0  0  0  0  0  0  0  0  0  0
  142.4436  132.4791  150.0691 N   0  0  0  0  0  0  0  0  0  0  0  0
  144.5650  133.3659  150.7622 N   0  0  0  0  0  0  0  0  0  0  0  0
  149.8018  134.2825  154.7528 H   0  0  0  0  0  0  0  0  0  0  0  0
  149.7305  132.5676  154.3361 H   0  0  0  0  0  0  0  0  0  0  0  0
  148.4299  133.3059  155.2864 H   0  0  0  0  0  0  0  0  0  0  0  0
  148.5983  134.7303  152.8538 H   0  0  0  0  0  0  0  0  0  0  0  0
  146.6358  134.5977  151.5004 H   0  0  0  0  0  0  0  0  0  0  0  0
  147.6817  133.5708  150.5329 H   0  0  0  0  0  0  0  0  0  0  0  0
  146.5198  130.8305  150.5298 H   0  0  0  0  0  0  0  0  0  0  0  0
  141.9099  131.6859  149.7447 H   0  0  0  0  0  0  0  0  0  0  0  0
  141.9871  133.3740  150.1701 H   0  0  0  0  0  0  0  0  0  0  0  0
  1  2  1  0  0  0  0
  1 12  1  0  0  0  0
  1 13  1  0  0  0  0
  1 14  1  0  0  0  0
  2  3  1  0  0  0  0
  2 15  1  0  0  0  0
  3  4  2  0  0  0  0
  3  5  1  0  0  0  0
  5  6  1  0  0  0  0
  5 16  1  0  0  0  0
  5 17  1  0  0  0  0
  6 11  1  0  0  0  0
  6  7  1  0  0  0  0
  7  8  2  0  0  0  0
  7 18  1  0  0  0  0
  8  9  1  0  0  0  0
  9 10  1  0  0  0  0
  9 11  2  0  0  0  0
 10 19  1  0  0  0  0
 10 20  1  0  0  0  0
M  END
> <s_m_source_file>
AV-unprocessed.smi

> <i_m_source_file_index>
968

> <i_lp_mmshare_version>
43012

> <i_f3d_flags>
0

> <s_epik_input>
W0NIM11bTkhdQyg9TylbQ0gyXW4xW2NIXW5jKG4xKVtOSDJd

> <s_epik_cmdline>
J2VwaWtfcHl0aG9uJywgJy1waCcsICc3LjAnLCAnLXRuJywgJzgnLCAnLW1hJywgJzIwMCcsICctbWV0YWxfYmluZGluZycsICctaW1hZScsICc8aW5maWxlLm1hZT4nLCAnLW9tYWUnLCAnPG91dGZpbGUubWFlPic=

> <r_lp_tautomer_probability>
1

> <r_epik_Ionization_Penalty>
0.000377128

> <r_epik_Ionization_Penalty_Charging>
0

> <r_epik_Ionization_Penalty_Neutral>
0.000377128

> <r_epik_State_Penalty>
-0

> <r_epik_Charging_Adjusted_Penalty>
0

> <i_epik_Tot_Q>
0

> <i_epik_Tot_abs_Q>
0

> <r_epik_Metal_State_Penalty>
-0

> <b_epik_Metal_Only>
0

> <s_lp_Force_Field>
OPLS_2005

> <r_lp_Energy>
2.7463

> <b_lp_Chiralities_Consistent>
1

> <s_lp_Variant>
AV-unprocessed.smi:968-1

> <Gold.Version>
5.8.1

> <Gold.Id.Protein>
6NUR|6NUR_protein|mol2

> <Gold.PLP.Fitness>
31.9190

> <Gold.PLP.PLP>
-19.4362

> <Gold.PLP.part.hbond>
-3.7391

> <Gold.PLP.part.metal>
0.0000

> <Gold.PLP.part.buried>
-2.4726

> <Gold.PLP.part.nonpolar>
-14.0124

> <Gold.PLP.part.repulsive>
0.4536

> <Gold.PLP.ligand.clash>
0.0000

> <Gold.PLP.ligand.torsion>
0.1854

> <Gold.PLP.Chemscore.Hbond>
3.2845

> <Gold.PLP.Chemscore.CHOScore>
1.0000

> <Gold.PLP.Chemscore.Metal>
0.0000

> <Gold.Chemscore.Hbonds>
donor molecule, donor type, donor heavy atom, donor atom, acceptor molecule, acceptor atom, score
      L1  H     2    15       P1  7948  1.00
      L1  H    10    19       P1 10952  1.00
      L1  H    10    20       P1 10186  0.94
      P1  H 10785 10796       L1     8  0.30
      L1  C     7    18       P1 10747  1.00

> <Gold.PLP.Chemscore.Internal.Correction>
0.0000

> <Gold.Rescore>
     Score         DG    S(hbond)    S(metal)    S(lipo)     H(rot)  DE(clash)    DE(int)     intcor
     11.02     -12.13       2.92        0.00       9.61       1.65       0.03       1.08       ----

> <Gold.Chemscore.Fitness>
11.0198

> <Gold.Chemscore.DG>
-12.1290

> <Gold.Chemscore.ZeroCoef>
-5.4800

> <Gold.Chemscore.Hbond>
2.9214

> <Gold.Chemscore.Metal>
0.0000

> <Gold.Chemscore.Lipo>
9.6100

> <Gold.Chemscore.Internal_Hbond>
0.0000

> <Gold.Chemscore.DEClash>
0.0318

> <Gold.Chemscore.DEInternal>
1.0773

> <Gold.Chemscore.Rot>
1.6534

> <Gold.Chemscore.Internal.Correction>
   9.000000E+99

> <Gold.Chemscore.Hbonds>
donor molecule, donor type, donor heavy atom, donor atom, acceptor molecule, acceptor atom, score
      L1  H     2    15       P1  7948  0.26
      L1  H    10    19       P1 10952  0.99
      L1  H    10    20       P1 10186  0.87
      P1  H 10785 10796       L1     8  0.13

> <Gold.Chemscore.Hbond.Weighted>
-9.7573

> <Gold.Chemscore.Metal.Weighted>
-0.0000

> <Gold.Chemscore.Lipo.Weighted>
-1.1244

> <Gold.Chemscore.Internal_Hbond.Weighted>
0.0000

> <Gold.Chemscore.DEClash.Weighted>
0.0318

> <Gold.Chemscore.DEInternal.Weighted>
1.0773

> <Gold.Chemscore.Rot.Weighted>
4.2327

> <Gold.Chemscore.Internal.Correction.Weighted>
   9.000000E+99

> <Gold.Protein.RotatedTorsions>
[ 6907 6896 6895 6894 ] final   58.32 input  -60.11 | X-H torsion
[ 7974 7965 7964 7962 ] final  122.48 input  175.53 | X-H torsion
[ 8008 7997 7996 7995 ] final  168.76 input   59.86 | X-H torsion
[ 10167 10162 10161 10158 ] final   92.40 input  -65.29 | X-H torsion
[ 10718 10713 10712 10709 ] final   53.88 input   66.30 | X-H torsion
[ 10763 10752 10751 10750 ] final  -30.42 input  -60.55 | X-H torsion
[ 11005 11000 10999 10996 ] final   72.18 input  -57.11 | X-H torsion

> <Gold.Protein.ActiveResidues>
 VAL166  LYS551  ARG553  GLY616  TRP617  ASP618  TYR619  PRO620  LYS621  CYS622 
 ASP623  PHE694  ASN695  SER759  ASP760  ASP761  ALA762  ILE779  LEU786  VAL792 
 PHE793  MET794  SER795  GLU796  ALA797  LYS798  CYS799  TRP800  GLU811  SER814 

> <Gold.Protein.RotatedAtoms>
  152.3813  134.6586  160.0141 H   0  0  0  0  0  0  0  0  0  0  0  0  # atno 6907 bound_to 6896
  151.6848  133.3306  159.3236 H   0  0  0  0  0  0  0  0  0  0  0  0  # atno 6908 bound_to 6896
  150.7750  134.6685  159.6423 H   0  0  0  0  0  0  0  0  0  0  0  0  # atno 6909 bound_to 6896
  145.1070  139.3479  143.4782 H   0  0  0  0  0  0  0  0  0  0  0  0  # atno 7974 bound_to 7965
  156.1518  140.1582  156.8758 H   0  0  0  0  0  0  0  0  0  0  0  0  # atno 8008 bound_to 7997
  154.5078  140.0808  156.7966 H   0  0  0  0  0  0  0  0  0  0  0  0  # atno 8009 bound_to 7997
  155.3881  140.3408  155.4252 H   0  0  0  0  0  0  0  0  0  0  0  0  # atno 8010 bound_to 7997
  139.8280  144.6700  150.9435 H   0  0  0  0  0  0  0  0  0  0  0  0  # atno 10167 bound_to 10162
  157.5207  130.8563  149.8555 H   0  0  0  0  0  0  0  0  0  0  0  0  # atno 10718 bound_to 10713
  153.7806  135.6905  153.4889 H   0  0  0  0  0  0  0  0  0  0  0  0  # atno 10763 bound_to 10752
  153.1814  135.4505  155.0031 H   0  0  0  0  0  0  0  0  0  0  0  0  # atno 10764 bound_to 10752
  154.8083  135.3366  154.7310 H   0  0  0  0  0  0  0  0  0  0  0  0  # atno 10765 bound_to 10752
  139.9504  134.7237  156.0876 H   0  0  0  0  0  0  0  0  0  0  0  0  # atno 11005 bound_to 11000
  146.3528  140.0973  142.8609 LP  0  0  0  0  0  0  0  0  0  0  0  0  # atno 17320 bound_to 7965
  145.0890  140.9272  143.4780 LP  0  0  0  0  0  0  0  0  0  0  0  0  # atno 17321 bound_to 7965
  140.7809  143.4028  151.1121 LP  0  0  0  0  0  0  0  0  0  0  0  0  # atno 17342 bound_to 10162
  139.7683  143.8532  152.3115 LP  0  0  0  0  0  0  0  0  0  0  0  0  # atno 17343 bound_to 10162
  156.0351  130.3753  150.1581 LP  0  0  0  0  0  0  0  0  0  0  0  0  # atno 17370 bound_to 10713
  156.9769  130.9852  151.3446 LP  0  0  0  0  0  0  0  0  0  0  0  0  # atno 17371 bound_to 10713
  141.1165  133.6626  156.3108 LP  0  0  0  0  0  0  0  0  0  0  0  0  # atno 17394 bound_to 11000
  140.5733  134.5819  157.5462 LP  0  0  0  0  0  0  0  0  0  0  0  0  # atno 17395 bound_to 11000

$$$$
