AV-unprocessed.smi:2074|AV-procd|sdf|8454|dock7
  -GOLD-   2272011153D 1   1.00000     0.00000
 Structure written by MMmdl.
 44 45  0  0  0  0  0  0  0  0  2 V2000
  143.0925  134.0076  152.4623 C   0  0  0  0  0  0  0  0  0  0  0  0
  142.0559  134.8725  153.1207 C   0  0  0  0  0  0  0  0  0  0  0  0
  140.9863  134.3053  153.6522 N   0  0  0  0  0  0  0  0  0  0  0  0
  140.2200  135.3492  154.1790 O   0  0  0  0  0  0  0  0  0  0  0  0
  140.8666  136.5185  153.9421 C   0  0  0  0  0  0  0  0  0  0  0  0
  140.2016  137.7587  154.4356 C   0  0  0  0  0  0  0  0  0  0  0  0
  142.0386  136.2894  153.2742 C   0  0  0  0  0  0  0  0  0  0  0  0
  143.0665  137.2915  152.8133 C   0  0  0  0  0  0  0  0  0  0  0  0
  144.3494  137.1233  153.6275 C   0  0  0  0  0  0  0  0  0  0  0  0
  144.5950  136.0516  154.1802 O   0  0  0  0  0  0  0  0  0  0  0  0
  145.1633  138.1871  153.6867 N   0  0  0  0  0  0  0  0  0  0  0  0
  146.4492  138.2103  154.3732 C   0  0  0  0  0  0  0  0  0  0  0  0
  147.1234  139.6067  154.3068 C   0  0  2  0  0  0  0  0  0  0  0  0
  147.2283  140.0797  152.8368 C   0  0  0  0  0  0  0  0  0  0  0  0
  148.4699  139.6490  154.9692 N   0  3  0  0  0  0  0  0  0  0  0  0
  149.4420  138.6989  154.3603 C   0  0  0  0  0  0  0  0  0  0  0  0
  150.7863  138.7196  155.1059 C   0  0  0  0  0  0  0  0  0  0  0  0
  151.3137  140.0368  155.0931 O   0  0  0  0  0  0  0  0  0  0  0  0
  150.4563  140.9431  155.7695 C   0  0  0  0  0  0  0  0  0  0  0  0
  149.0899  141.0006  155.0637 C   0  0  0  0  0  0  0  0  0  0  0  0
  144.0465  134.5264  152.3721 H   0  0  0  0  0  0  0  0  0  0  0  0
  142.7779  133.7169  151.4599 H   0  0  0  0  0  0  0  0  0  0  0  0
  143.2691  133.0963  153.0346 H   0  0  0  0  0  0  0  0  0  0  0  0
  140.9082  138.5871  154.4893 H   0  0  0  0  0  0  0  0  0  0  0  0
  139.7868  137.6065  155.4322 H   0  0  0  0  0  0  0  0  0  0  0  0
  139.3889  138.0505  153.7705 H   0  0  0  0  0  0  0  0  0  0  0  0
  143.2972  137.1743  151.7540 H   0  0  0  0  0  0  0  0  0  0  0  0
  142.7017  138.3129  152.9290 H   0  0  0  0  0  0  0  0  0  0  0  0
  144.8823  139.0283  153.2040 H   0  0  0  0  0  0  0  0  0  0  0  0
  146.2456  137.9189  155.4038 H   0  0  0  0  0  0  0  0  0  0  0  0
  147.1108  137.4564  153.9421 H   0  0  0  0  0  0  0  0  0  0  0  0
  146.4718  140.2992  154.8427 H   0  0  0  0  0  0  0  0  0  0  0  0
  146.2662  140.0514  152.3262 H   0  0  0  0  0  0  0  0  0  0  0  0
  147.9157  139.4503  152.2708 H   0  0  0  0  0  0  0  0  0  0  0  0
  147.5714  141.1089  152.7497 H   0  0  0  0  0  0  0  0  0  0  0  0
  149.0636  137.6791  154.3797 H   0  0  0  0  0  0  0  0  0  0  0  0
  149.5986  138.9594  153.3122 H   0  0  0  0  0  0  0  0  0  0  0  0
  150.6713  138.3658  156.1320 H   0  0  0  0  0  0  0  0  0  0  0  0
  151.4964  138.0522  154.6173 H   0  0  0  0  0  0  0  0  0  0  0  0
  150.3431  140.6458  156.8134 H   0  0  0  0  0  0  0  0  0  0  0  0
  150.9192  141.9301  155.7705 H   0  0  0  0  0  0  0  0  0  0  0  0
  149.2015  141.4235  154.0641 H   0  0  0  0  0  0  0  0  0  0  0  0
  148.4608  141.6785  155.6394 H   0  0  0  0  0  0  0  0  0  0  0  0
  148.3247  139.3474  155.9222 H   0  0  0  0  0  0  0  0  0  0  0  0
  1  2  1  0  0  0  0
  1 21  1  0  0  0  0
  1 22  1  0  0  0  0
  1 23  1  0  0  0  0
  2  7  1  0  0  0  0
  2  3  2  0  0  0  0
  3  4  1  0  0  0  0
  4  5  1  0  0  0  0
  5  6  1  0  0  0  0
  5  7  2  0  0  0  0
  6 24  1  0  0  0  0
  6 25  1  0  0  0  0
  6 26  1  0  0  0  0
  7  8  1  0  0  0  0
  8  9  1  0  0  0  0
  8 27  1  0  0  0  0
  8 28  1  0  0  0  0
  9 10  2  0  0  0  0
  9 11  1  0  0  0  0
 11 12  1  0  0  0  0
 11 29  1  0  0  0  0
 12 13  1  0  0  0  0
 12 30  1  0  0  0  0
 12 31  1  0  0  0  0
 13 14  1  0  0  0  0
 13 15  1  0  0  0  0
 13 32  1  0  0  0  0
 14 33  1  0  0  0  0
 14 34  1  0  0  0  0
 14 35  1  0  0  0  0
 15 20  1  0  0  0  0
 15 16  1  0  0  0  0
 15 44  1  0  0  0  0
 16 17  1  0  0  0  0
 16 36  1  0  0  0  0
 16 37  1  0  0  0  0
 17 18  1  0  0  0  0
 17 38  1  0  0  0  0
 17 39  1  0  0  0  0
 18 19  1  0  0  0  0
 19 20  1  0  0  0  0
 19 40  1  0  0  0  0
 19 41  1  0  0  0  0
 20 42  1  0  0  0  0
 20 43  1  0  0  0  0
M  CHG  1  15   1
M  END
> <s_m_source_file>
AV-unprocessed.smi

> <i_m_source_file_index>
2074

> <i_lp_mmshare_version>
43012

> <i_f3d_flags>
0

> <s_epik_input>
W0NIM11jMW5vYyhbQ0gzXSljMVtDSDJdQyg9TylbTkhdW0NIMl1bQ0BIXShbQ0gzXSlOMltDSDJdW0NIMl1PW0NIMl1bQ0gyXTI=

> <s_epik_cmdline>
J2VwaWtfcHl0aG9uJywgJy1waCcsICc3LjAnLCAnLXRuJywgJzgnLCAnLW1hJywgJzIwMCcsICctbWV0YWxfYmluZGluZycsICctaW1hZScsICc8aW5maWxlLm1hZT4nLCAnLW9tYWUnLCAnPG91dGZpbGUubWFlPic=

> <r_epik_Ionization_Penalty>
0.663207

> <r_epik_Ionization_Penalty_Charging>
0.663207

> <r_epik_Ionization_Penalty_Neutral>
1.0751e-07

> <r_epik_State_Penalty>
0.682743

> <r_epik_Charging_Adjusted_Penalty>
1.34595

> <i_epik_Tot_Q>
1

> <i_epik_Tot_abs_Q>
1

> <r_epik_Metal_State_Penalty>
0.682743

> <b_epik_Metal_Only>
0

> <s_lp_Force_Field>
OPLS_2005

> <r_lp_Energy>
15.5823

> <b_lp_Chiralities_Consistent>
1

> <s_lp_Variant>
AV-unprocessed.smi:2074-3

> <Gold.Version>
5.8.1

> <Gold.Id.Protein>
6NUR|6NUR_protein|mol2

> <Gold.PLP.Fitness>
41.5457

> <Gold.PLP.PLP>
-33.3519

> <Gold.PLP.part.hbond>
-5.0851

> <Gold.PLP.part.metal>
0.0000

> <Gold.PLP.part.buried>
-3.5855

> <Gold.PLP.part.nonpolar>
-25.0490

> <Gold.PLP.part.repulsive>
0.5354

> <Gold.PLP.ligand.clash>
0.0000

> <Gold.PLP.ligand.torsion>
0.4257

> <Gold.PLP.Chemscore.Hbond>
3.0011

> <Gold.PLP.Chemscore.CHOScore>
0.0000

> <Gold.PLP.Chemscore.Metal>
0.0000

> <Gold.Chemscore.Hbonds>
donor molecule, donor type, donor heavy atom, donor atom, acceptor molecule, acceptor atom, score
      L1  H    11    29       P1 10175  1.00
      P1  H  7989  7998       L1    18  1.00
      P1  H 10995 11001       L1     3  0.02
      P1  H 11000 11005       L1     4  0.45

> <Gold.PLP.Chemscore.Internal.Correction>
0.0421

> <Gold.Rescore>
     Score         DG    S(hbond)    S(metal)    S(lipo)     H(rot)  DE(clash)    DE(int)     intcor
     15.63     -17.68       2.46        0.00      73.46       1.80       1.46       0.58       ----

> <Gold.Chemscore.Fitness>
15.6346

> <Gold.Chemscore.DG>
-17.6801

> <Gold.Chemscore.ZeroCoef>
-5.4800

> <Gold.Chemscore.Hbond>
2.4561

> <Gold.Chemscore.Metal>
0.0000

> <Gold.Chemscore.Lipo>
73.4580

> <Gold.Chemscore.Internal_Hbond>
0.0000

> <Gold.Chemscore.DEClash>
1.4618

> <Gold.Chemscore.DEInternal>
0.5836

> <Gold.Chemscore.Rot>
1.7961

> <Gold.Chemscore.Internal.Correction>
   9.000000E+99

> <Gold.Chemscore.Hbonds>
donor molecule, donor type, donor heavy atom, donor atom, acceptor molecule, acceptor atom, score
      L1  H    11    29       P1 10175  0.95
      P1  H  7989  7998       L1    18  0.43
      P1  H 11000 11005       L1     4  0.02

> <Gold.Chemscore.Hbond.Weighted>
-8.2035

> <Gold.Chemscore.Metal.Weighted>
-0.0000

> <Gold.Chemscore.Lipo.Weighted>
-8.5946

> <Gold.Chemscore.Internal_Hbond.Weighted>
0.0000

> <Gold.Chemscore.DEClash.Weighted>
1.4618

> <Gold.Chemscore.DEInternal.Weighted>
0.5836

> <Gold.Chemscore.Rot.Weighted>
4.5980

> <Gold.Chemscore.Internal.Correction.Weighted>
   9.000000E+99

> <Gold.Protein.RotatedTorsions>
[ 6907 6896 6895 6894 ] final  -44.02 input  -60.11 | X-H torsion
[ 7974 7965 7964 7962 ] final   99.52 input  175.53 | X-H torsion
[ 8008 7997 7996 7995 ] final  -69.04 input   59.86 | X-H torsion
[ 10167 10162 10161 10158 ] final  174.90 input  -65.29 | X-H torsion
[ 10718 10713 10712 10709 ] final -173.87 input   66.30 | X-H torsion
[ 10763 10752 10751 10750 ] final -120.60 input  -60.55 | X-H torsion
[ 11005 11000 10999 10996 ] final   44.23 input  -57.11 | X-H torsion

> <Gold.Protein.ActiveResidues>
 VAL166  LYS551  ARG553  GLY616  TRP617  ASP618  TYR619  PRO620  LYS621  CYS622 
 ASP623  PHE694  ASN695  SER759  ASP760  ASP761  ALA762  ILE779  LEU786  VAL792 
 PHE793  MET794  SER795  GLU796  ALA797  LYS798  CYS799  TRP800  GLU811  SER814 

> <Gold.Protein.RotatedAtoms>
  150.9374  134.8785  159.7590 H   0  0  0  0  0  0  0  0  0  0  0  0  # atno 6907 bound_to 6896
  152.5065  134.3991  159.9420 H   0  0  0  0  0  0  0  0  0  0  0  0  # atno 6908 bound_to 6896
  151.4014  133.3716  159.2767 H   0  0  0  0  0  0  0  0  0  0  0  0  # atno 6909 bound_to 6896
  145.3977  139.2352  143.3317 H   0  0  0  0  0  0  0  0  0  0  0  0  # atno 7974 bound_to 7965
  154.4910  140.0861  156.7595 H   0  0  0  0  0  0  0  0  0  0  0  0  # atno 8008 bound_to 7997
  155.4230  140.3446  155.4255 H   0  0  0  0  0  0  0  0  0  0  0  0  # atno 8009 bound_to 7997
  156.1330  140.1507  156.9025 H   0  0  0  0  0  0  0  0  0  0  0  0  # atno 8010 bound_to 7997
  139.5158  144.3094  152.0306 H   0  0  0  0  0  0  0  0  0  0  0  0  # atno 10167 bound_to 10162
  156.7766  130.9468  151.3120 H   0  0  0  0  0  0  0  0  0  0  0  0  # atno 10718 bound_to 10713
  154.8648  135.4197  154.2485 H   0  0  0  0  0  0  0  0  0  0  0  0  # atno 10763 bound_to 10752
  153.3436  135.6995  153.6852 H   0  0  0  0  0  0  0  0  0  0  0  0  # atno 10764 bound_to 10752
  153.5821  135.3571  155.2851 H   0  0  0  0  0  0  0  0  0  0  0  0  # atno 10765 bound_to 10752
  140.1571  134.4388  155.8342 H   0  0  0  0  0  0  0  0  0  0  0  0  # atno 11005 bound_to 11000
  146.2767  140.4670  142.8792 LP  0  0  0  0  0  0  0  0  0  0  0  0  # atno 17320 bound_to 7965
  144.8396  140.6836  143.6238 LP  0  0  0  0  0  0  0  0  0  0  0  0  # atno 17321 bound_to 7965
  140.2539  144.4140  150.6211 LP  0  0  0  0  0  0  0  0  0  0  0  0  # atno 17342 bound_to 10162
  140.6205  143.2176  151.6703 LP  0  0  0  0  0  0  0  0  0  0  0  0  # atno 17343 bound_to 10162
  157.6666  130.9013  149.9945 LP  0  0  0  0  0  0  0  0  0  0  0  0  # atno 17370 bound_to 10713
  156.1244  130.3645  149.9834 LP  0  0  0  0  0  0  0  0  0  0  0  0  # atno 17371 bound_to 10713
  141.2205  133.6897  156.7526 LP  0  0  0  0  0  0  0  0  0  0  0  0  # atno 17394 bound_to 11000
  140.2535  134.8522  157.3690 LP  0  0  0  0  0  0  0  0  0  0  0  0  # atno 17395 bound_to 11000

$$$$
