AV-unprocessed.smi:2674|AV-procd|sdf|10359|dock1
  -GOLD-   2272014383D 1   1.00000     0.00000
 Structure written by MMmdl.
 45 46  0  0  0  0  0  0  0  0  2 V2000
  143.6443  136.2796  152.6839 C   0  0  0  0  0  0  0  0  0  0  0  0
  144.8076  136.5367  151.7936 N   0  3  1  0  0  0  0  0  0  0  0  0
  145.8665  137.3395  152.4739 C   0  0  0  0  0  0  0  0  0  0  0  0
  146.4251  138.5003  151.6222 C   0  0  0  0  0  0  0  0  0  0  0  0
  147.6334  139.0632  152.2156 N   0  0  0  0  0  0  0  0  0  0  0  0
  147.7068  139.5953  153.4447 C   0  0  0  0  0  0  0  0  0  0  0  0
  146.7418  139.6693  154.2061 O   0  0  0  0  0  0  0  0  0  0  0  0
  148.9516  140.0231  153.7201 N   0  0  0  0  0  0  0  0  0  0  0  0
  149.4355  140.5911  154.9289 C   0  0  0  0  0  0  0  0  0  0  0  0
  148.4491  141.1832  155.7496 C   0  0  0  0  0  0  0  0  0  0  0  0
  148.8283  141.7811  156.9671 C   0  0  0  0  0  0  0  0  0  0  0  0
  150.1862  141.7718  157.3324 C   0  0  0  0  0  0  0  0  0  0  0  0
  151.1040  141.1609  156.4584 C   0  0  0  0  0  0  0  0  0  0  0  0
  150.7428  140.5874  155.2911 N   0  0  0  0  0  0  0  0  0  0  0  0
  145.2801  135.2747  151.1323 C   0  0  0  0  0  0  0  0  0  0  0  0
  144.1483  134.3441  150.6169 C   0  0  0  0  0  0  0  0  0  0  0  0
  144.6983  133.0602  149.9742 C   0  0  0  0  0  0  0  0  0  0  0  0
  145.6036  132.2917  150.9445 C   0  0  0  0  0  0  0  0  0  0  0  0
  146.7361  133.1901  151.4568 C   0  0  0  0  0  0  0  0  0  0  0  0
  146.1836  134.4713  152.1014 C   0  0  0  0  0  0  0  0  0  0  0  0
  143.9671  135.8251  153.6215 H   0  0  0  0  0  0  0  0  0  0  0  0
  142.9134  135.6124  152.2309 H   0  0  0  0  0  0  0  0  0  0  0  0
  143.1090  137.2001  152.9138 H   0  0  0  0  0  0  0  0  0  0  0  0
  145.4724  137.7166  153.4189 H   0  0  0  0  0  0  0  0  0  0  0  0
  146.7159  136.7001  152.7116 H   0  0  0  0  0  0  0  0  0  0  0  0
  146.6703  138.1466  150.6204 H   0  0  0  0  0  0  0  0  0  0  0  0
  145.6967  139.3034  151.5059 H   0  0  0  0  0  0  0  0  0  0  0  0
  148.4713  139.0451  151.6523 H   0  0  0  0  0  0  0  0  0  0  0  0
  149.6378  139.9151  152.9879 H   0  0  0  0  0  0  0  0  0  0  0  0
  147.4100  141.1825  155.4532 H   0  0  0  0  0  0  0  0  0  0  0  0
  148.0898  142.2394  157.6082 H   0  0  0  0  0  0  0  0  0  0  0  0
  150.5161  142.2209  158.2576 H   0  0  0  0  0  0  0  0  0  0  0  0
  152.1560  141.1325  156.7013 H   0  0  0  0  0  0  0  0  0  0  0  0
  145.8704  135.5625  150.2602 H   0  0  0  0  0  0  0  0  0  0  0  0
  143.4830  134.0740  151.4385 H   0  0  0  0  0  0  0  0  0  0  0  0
  143.5401  134.8501  149.8666 H   0  0  0  0  0  0  0  0  0  0  0  0
  143.8733  132.4224  149.6548 H   0  0  0  0  0  0  0  0  0  0  0  0
  145.2587  133.3128  149.0731 H   0  0  0  0  0  0  0  0  0  0  0  0
  145.0142  131.9258  151.7862 H   0  0  0  0  0  0  0  0  0  0  0  0
  146.0188  131.4122  150.4511 H   0  0  0  0  0  0  0  0  0  0  0  0
  147.3431  132.6435  152.1794 H   0  0  0  0  0  0  0  0  0  0  0  0
  147.3995  133.4518  150.6313 H   0  0  0  0  0  0  0  0  0  0  0  0
  147.0265  135.0678  152.4469 H   0  0  0  0  0  0  0  0  0  0  0  0
  145.6152  134.2082  152.9947 H   0  0  0  0  0  0  0  0  0  0  0  0
  144.4700  137.1216  151.0426 H   0  0  0  0  0  0  0  0  0  0  0  0
  1  2  1  0  0  0  0
  1 21  1  0  0  0  0
  1 22  1  0  0  0  0
  1 23  1  0  0  0  0
  2  3  1  0  0  0  0
  2 15  1  0  0  0  0
  2 45  1  0  0  0  0
  3  4  1  0  0  0  0
  3 24  1  0  0  0  0
  3 25  1  0  0  0  0
  4  5  1  0  0  0  0
  4 26  1  0  0  0  0
  4 27  1  0  0  0  0
  5  6  1  0  0  0  0
  5 28  1  0  0  0  0
  6  7  2  0  0  0  0
  6  8  1  0  0  0  0
  8  9  1  0  0  0  0
  8 29  1  0  0  0  0
  9 14  1  0  0  0  0
  9 10  2  0  0  0  0
 10 11  1  0  0  0  0
 10 30  1  0  0  0  0
 11 12  2  0  0  0  0
 11 31  1  0  0  0  0
 12 13  1  0  0  0  0
 12 32  1  0  0  0  0
 13 14  2  0  0  0  0
 13 33  1  0  0  0  0
 15 20  1  0  0  0  0
 15 16  1  0  0  0  0
 15 34  1  0  0  0  0
 16 17  1  0  0  0  0
 16 35  1  0  0  0  0
 16 36  1  0  0  0  0
 17 18  1  0  0  0  0
 17 37  1  0  0  0  0
 17 38  1  0  0  0  0
 18 19  1  0  0  0  0
 18 39  1  0  0  0  0
 18 40  1  0  0  0  0
 19 20  1  0  0  0  0
 19 41  1  0  0  0  0
 19 42  1  0  0  0  0
 20 43  1  0  0  0  0
 20 44  1  0  0  0  0
M  CHG  1   2   1
M  END
> <s_m_source_file>
AV-unprocessed.smi

> <i_m_source_file_index>
2674

> <i_lp_mmshare_version>
43012

> <i_f3d_flags>
0

> <s_epik_input>
W0NIMl0xW0NIMl1bQ0gyXVtDSDJdW0NIMl1bQ0hdMU4oW0NIM10pW0NIMl1bQ0gyXVtOSF1DKD1PKVtOSF1jMltjSF1bY0hdW2NIXVtjSF1uMg==

> <s_epik_cmdline>
J2VwaWtfcHl0aG9uJywgJy1waCcsICc3LjAnLCAnLXRuJywgJzgnLCAnLW1hJywgJzIwMCcsICctbWV0YWxfYmluZGluZycsICctaW1hZScsICc8aW5maWxlLm1hZT4nLCAnLW9tYWUnLCAnPG91dGZpbGUubWFlPic=

> <r_epik_Ionization_Penalty>
0.00206741

> <r_epik_Ionization_Penalty_Charging>
0.00203269

> <r_epik_Ionization_Penalty_Neutral>
3.47205e-05

> <r_epik_State_Penalty>
0.00139005

> <r_epik_Charging_Adjusted_Penalty>
0.00342273

> <i_epik_Tot_Q>
1

> <i_epik_Tot_abs_Q>
1

> <r_epik_Metal_State_Penalty>
-0

> <b_epik_Metal_Only>
0

> <s_lp_Force_Field>
OPLS_2005

> <r_lp_Energy>
21.1862

> <b_lp_Chiralities_Consistent>
1

> <s_lp_Variant>
AV-unprocessed.smi:2674-2

> <Gold.Version>
5.8.1

> <Gold.Id.Protein>
6NUR|6NUR_protein|mol2

> <Gold.PLP.Fitness>
46.7969

> <Gold.PLP.PLP>
-37.8944

> <Gold.PLP.part.hbond>
-4.2943

> <Gold.PLP.part.metal>
0.0000

> <Gold.PLP.part.buried>
-3.0817

> <Gold.PLP.part.nonpolar>
-31.5377

> <Gold.PLP.part.repulsive>
0.4173

> <Gold.PLP.ligand.clash>
0.0000

> <Gold.PLP.ligand.torsion>
0.9695

> <Gold.PLP.Chemscore.Hbond>
3.5449

> <Gold.PLP.Chemscore.CHOScore>
0.0000

> <Gold.PLP.Chemscore.Metal>
0.0000

> <Gold.Chemscore.Hbonds>
donor molecule, donor type, donor heavy atom, donor atom, acceptor molecule, acceptor atom, score
      L1  H     2    45       P1 10171  1.00
      L1  H     5    28       P1  7957  0.82
      L1  H     8    29       P1  7957  0.70
      P1  H  7989  7998       L1    14  0.94

> <Gold.PLP.Chemscore.Internal.Correction>
0.2069

> <Gold.Rescore>
     Score         DG    S(hbond)    S(metal)    S(lipo)     H(rot)  DE(clash)    DE(int)     intcor
     17.59     -20.96       3.12        0.00      80.55       1.70       0.24       3.13       ----

> <Gold.Chemscore.Fitness>
17.5941

> <Gold.Chemscore.DG>
-20.9622

> <Gold.Chemscore.ZeroCoef>
-5.4800

> <Gold.Chemscore.Hbond>
3.1191

> <Gold.Chemscore.Metal>
0.0000

> <Gold.Chemscore.Lipo>
80.5466

> <Gold.Chemscore.Internal_Hbond>
0.0000

> <Gold.Chemscore.DEClash>
0.2380

> <Gold.Chemscore.DEInternal>
3.1301

> <Gold.Chemscore.Rot>
1.7030

> <Gold.Chemscore.Internal.Correction>
   9.000000E+99

> <Gold.Chemscore.Hbonds>
donor molecule, donor type, donor heavy atom, donor atom, acceptor molecule, acceptor atom, score
      L1  H     2    45       P1 10171  0.96
      L1  H     5    28       P1  7957  0.62
      L1  H     8    29       P1  7957  0.70
      P1  H  7989  7998       L1    14  0.26

> <Gold.Chemscore.Hbond.Weighted>
-10.4179

> <Gold.Chemscore.Metal.Weighted>
-0.0000

> <Gold.Chemscore.Lipo.Weighted>
-9.4240

> <Gold.Chemscore.Internal_Hbond.Weighted>
0.0000

> <Gold.Chemscore.DEClash.Weighted>
0.2380

> <Gold.Chemscore.DEInternal.Weighted>
3.1301

> <Gold.Chemscore.Rot.Weighted>
4.3597

> <Gold.Chemscore.Internal.Correction.Weighted>
   9.000000E+99

> <Gold.Protein.RotatedTorsions>
[ 6907 6896 6895 6894 ] final  106.20 input  -60.11 | X-H torsion
[ 7974 7965 7964 7962 ] final -109.82 input  175.53 | X-H torsion
[ 8008 7997 7996 7995 ] final  -30.59 input   59.86 | X-H torsion
[ 10167 10162 10161 10158 ] final   -3.53 input  -65.29 | X-H torsion
[ 10718 10713 10712 10709 ] final  139.53 input   66.30 | X-H torsion
[ 10763 10752 10751 10750 ] final  148.78 input  -60.55 | X-H torsion
[ 11005 11000 10999 10996 ] final -172.90 input  -57.11 | X-H torsion

> <Gold.Protein.ActiveResidues>
 VAL166  LYS551  ARG553  GLY616  TRP617  ASP618  TYR619  PRO620  LYS621  CYS622 
 ASP623  PHE694  ASN695  SER759  ASP760  ASP761  ALA762  ILE779  LEU786  VAL792 
 PHE793  MET794  SER795  GLU796  ALA797  LYS798  CYS799  TRP800  GLU811  SER814 

> <Gold.Protein.RotatedAtoms>
  152.5202  133.9416  159.7628 H   0  0  0  0  0  0  0  0  0  0  0  0  # atno 6907 bound_to 6896
  150.9745  133.6301  159.2739 H   0  0  0  0  0  0  0  0  0  0  0  0  # atno 6908 bound_to 6896
  151.3501  135.0888  159.9453 H   0  0  0  0  0  0  0  0  0  0  0  0  # atno 6909 bound_to 6896
  145.1758  140.8947  143.3509 H   0  0  0  0  0  0  0  0  0  0  0  0  # atno 7974 bound_to 7965
  154.4245  140.1787  156.1431 H   0  0  0  0  0  0  0  0  0  0  0  0  # atno 8008 bound_to 7997
  155.9976  140.3363  155.6789 H   0  0  0  0  0  0  0  0  0  0  0  0  # atno 8009 bound_to 7997
  155.6287  140.0667  157.2646 H   0  0  0  0  0  0  0  0  0  0  0  0  # atno 8010 bound_to 7997
  140.6893  143.6529  150.8334 H   0  0  0  0  0  0  0  0  0  0  0  0  # atno 10167 bound_to 10162
  157.4133  131.1030  151.0431 H   0  0  0  0  0  0  0  0  0  0  0  0  # atno 10718 bound_to 10713
  154.0604  135.2874  155.3326 H   0  0  0  0  0  0  0  0  0  0  0  0  # atno 10763 bound_to 10752
  154.6812  135.5263  153.8268 H   0  0  0  0  0  0  0  0  0  0  0  0  # atno 10764 bound_to 10752
  153.0525  135.6582  154.0793 H   0  0  0  0  0  0  0  0  0  0  0  0  # atno 10765 bound_to 10752
  140.4918  134.5977  157.4957 H   0  0  0  0  0  0  0  0  0  0  0  0  # atno 11005 bound_to 11000
  145.0186  139.3444  143.6083 LP  0  0  0  0  0  0  0  0  0  0  0  0  # atno 17320 bound_to 7965
  146.3461  139.9478  142.8733 LP  0  0  0  0  0  0  0  0  0  0  0  0  # atno 17321 bound_to 7965
  140.0240  143.5513  152.2788 LP  0  0  0  0  0  0  0  0  0  0  0  0  # atno 17342 bound_to 10162
  139.6281  144.7640  151.2594 LP  0  0  0  0  0  0  0  0  0  0  0  0  # atno 17343 bound_to 10162
  157.1388  130.6134  149.5549 LP  0  0  0  0  0  0  0  0  0  0  0  0  # atno 17370 bound_to 10713
  155.9857  130.4888  150.7045 LP  0  0  0  0  0  0  0  0  0  0  0  0  # atno 17371 bound_to 10713
  139.9765  134.7207  155.9941 LP  0  0  0  0  0  0  0  0  0  0  0  0  # atno 17394 bound_to 11000
  141.1480  133.6553  156.3926 LP  0  0  0  0  0  0  0  0  0  0  0  0  # atno 17395 bound_to 11000

$$$$
