AV-unprocessed.smi:1012|AV-procd|sdf|4424|dock9
  -GOLD-   22720 2373D 1   1.00000     0.00000
 Structure written by MMmdl.
 44 46  0  0  0  0  0  0  0  0  2 V2000
  153.7648  140.7806  161.2485 C   0  0  0  0  0  0  0  0  0  0  0  0
  152.9707  140.7301  160.0721 O   0  0  0  0  0  0  0  0  0  0  0  0
  152.6006  141.9183  159.4746 C   0  0  0  0  0  0  0  0  0  0  0  0
  152.9707  143.1909  159.9822 C   0  0  0  0  0  0  0  0  0  0  0  0
  152.5651  144.3709  159.3308 C   0  0  0  0  0  0  0  0  0  0  0  0
  151.7854  144.2999  158.1639 C   0  0  0  0  0  0  0  0  0  0  0  0
  151.4117  143.0456  157.6501 C   0  0  0  0  0  0  0  0  0  0  0  0
  151.8112  141.8577  158.2983 C   0  0  0  0  0  0  0  0  0  0  0  0
  151.3879  140.5295  157.6921 C   0  0  0  0  0  0  0  0  0  0  0  0
  150.8276  140.7061  156.4014 O   0  0  0  0  0  0  0  0  0  0  0  0
  149.4224  140.5175  156.3820 C   0  0  0  0  0  0  0  0  0  0  0  0
  148.8270  141.3230  155.2189 C   0  0  2  0  0  0  0  0  0  0  0  0
  148.8626  142.6965  155.5520 O   0  0  0  0  0  0  0  0  0  0  0  0
  147.3791  140.9061  154.8926 C   0  0  0  0  0  0  0  0  0  0  0  0
  146.3855  141.6512  155.6764 N   0  0  0  0  0  0  0  0  0  0  0  0
  145.8505  141.3822  156.8982 C   0  0  0  0  0  0  0  0  0  0  0  0
  144.9768  142.3846  157.1934 N   0  3  0  0  0  0  0  0  0  0  0  0
  144.9531  143.3066  156.1442 C   0  0  0  0  0  0  0  0  0  0  0  0
  144.2312  144.4842  155.9797 C   0  0  0  0  0  0  0  0  0  0  0  0
  144.4436  145.1976  154.7813 C   0  0  0  0  0  0  0  0  0  0  0  0
  143.7666  146.3512  154.5708 F   0  0  0  0  0  0  0  0  0  0  0  0
  145.3459  144.7332  153.8004 C   0  0  0  0  0  0  0  0  0  0  0  0
  145.5201  145.4491  152.6643 F   0  0  0  0  0  0  0  0  0  0  0  0
  146.0720  143.5371  153.9783 C   0  0  0  0  0  0  0  0  0  0  0  0
  145.8554  142.8401  155.1658 C   0  0  0  0  0  0  0  0  0  0  0  0
  153.9628  139.7650  161.5908 H   0  0  0  0  0  0  0  0  0  0  0  0
  153.2511  141.3050  162.0553 H   0  0  0  0  0  0  0  0  0  0  0  0
  154.7274  141.2579  161.0601 H   0  0  0  0  0  0  0  0  0  0  0  0
  153.5695  143.2917  160.8745 H   0  0  0  0  0  0  0  0  0  0  0  0
  152.8547  145.3326  159.7279 H   0  0  0  0  0  0  0  0  0  0  0  0
  151.4758  145.2051  157.6626 H   0  0  0  0  0  0  0  0  0  0  0  0
  150.8141  142.9954  156.7516 H   0  0  0  0  0  0  0  0  0  0  0  0
  152.2717  139.8931  157.6240 H   0  0  0  0  0  0  0  0  0  0  0  0
  150.6744  140.0086  158.3307 H   0  0  0  0  0  0  0  0  0  0  0  0
  149.1785  139.4587  156.2800 H   0  0  0  0  0  0  0  0  0  0  0  0
  149.0011  140.8623  157.3280 H   0  0  0  0  0  0  0  0  0  0  0  0
  149.4572  141.1862  154.3394 H   0  0  0  0  0  0  0  0  0  0  0  0
  149.4431  143.1360  154.9497 H   0  0  0  0  0  0  0  0  0  0  0  0
  147.1575  141.0489  153.8341 H   0  0  0  0  0  0  0  0  0  0  0  0
  147.2326  139.8448  155.0982 H   0  0  0  0  0  0  0  0  0  0  0  0
  146.0813  140.5310  157.5227 H   0  0  0  0  0  0  0  0  0  0  0  0
  143.5406  144.8438  156.7282 H   0  0  0  0  0  0  0  0  0  0  0  0
  146.7624  143.1905  153.2233 H   0  0  0  0  0  0  0  0  0  0  0  0
  144.4406  142.4343  158.0504 H   0  0  0  0  0  0  0  0  0  0  0  0
  1  2  1  0  0  0  0
  1 26  1  0  0  0  0
  1 27  1  0  0  0  0
  1 28  1  0  0  0  0
  2  3  1  0  0  0  0
  3  8  1  0  0  0  0
  3  4  2  0  0  0  0
  4  5  1  0  0  0  0
  4 29  1  0  0  0  0
  5  6  2  0  0  0  0
  5 30  1  0  0  0  0
  6  7  1  0  0  0  0
  6 31  1  0  0  0  0
  7  8  2  0  0  0  0
  7 32  1  0  0  0  0
  8  9  1  0  0  0  0
  9 10  1  0  0  0  0
  9 33  1  0  0  0  0
  9 34  1  0  0  0  0
 10 11  1  0  0  0  0
 11 12  1  0  0  0  0
 11 35  1  0  0  0  0
 11 36  1  0  0  0  0
 12 13  1  0  0  0  0
 12 14  1  0  0  0  0
 12 37  1  0  0  0  0
 13 38  1  0  0  0  0
 14 15  1  0  0  0  0
 14 39  1  0  0  0  0
 14 40  1  0  0  0  0
 15 25  1  0  0  0  0
 15 16  1  0  0  0  0
 16 17  2  0  0  0  0
 16 41  1  0  0  0  0
 17 18  1  0  0  0  0
 17 44  1  0  0  0  0
 18 25  2  0  0  0  0
 18 19  1  0  0  0  0
 19 20  2  0  0  0  0
 19 42  1  0  0  0  0
 20 21  1  0  0  0  0
 20 22  1  0  0  0  0
 22 23  1  0  0  0  0
 22 24  2  0  0  0  0
 24 25  1  0  0  0  0
 24 43  1  0  0  0  0
M  CHG  1  17   1
M  END
> <s_m_source_file>
AV-unprocessed.smi

> <i_m_source_file_index>
1012

> <i_lp_mmshare_version>
43012

> <i_f3d_flags>
0

> <s_epik_input>
W0NIM11PYzFbY0hdW2NIXVtjSF1bY0hdYzFbQ0gyXU9bQ0gyXVtDQEhdKFtPSF0pW0NIMl1uKFtjSF1uMiljKGMyMylbY0hdYyhGKWMoRilbY0hdMw==

> <s_epik_cmdline>
J2VwaWtfcHl0aG9uJywgJy1waCcsICc3LjAnLCAnLXRuJywgJzgnLCAnLW1hJywgJzIwMCcsICctbWV0YWxfYmluZGluZycsICctaW1hZScsICc8aW5maWxlLm1hZT4nLCAnLW9tYWUnLCAnPG91dGZpbGUubWFlPic=

> <r_lp_tautomer_probability>
1

> <r_epik_Ionization_Penalty>
2.14697

> <r_epik_Ionization_Penalty_Charging>
2.14697

> <r_epik_Ionization_Penalty_Neutral>
1.07667e-06

> <r_epik_State_Penalty>
2.28651

> <r_epik_Charging_Adjusted_Penalty>
4.43348

> <i_epik_Tot_Q>
1

> <i_epik_Tot_abs_Q>
1

> <r_epik_Metal_State_Penalty>
6.36664

> <b_epik_Metal_Only>
0

> <s_lp_Force_Field>
OPLS_2005

> <r_lp_Energy>
22.239

> <b_lp_Chiralities_Consistent>
1

> <s_lp_Variant>
AV-unprocessed.smi:1012-3

> <Gold.Version>
5.8.1

> <Gold.Id.Protein>
6NUR|6NUR_protein|mol2

> <Gold.PLP.Fitness>
51.1120

> <Gold.PLP.PLP>
-53.8527

> <Gold.PLP.part.hbond>
0.3710

> <Gold.PLP.part.metal>
0.0000

> <Gold.PLP.part.buried>
-8.4161

> <Gold.PLP.part.nonpolar>
-46.1584

> <Gold.PLP.part.repulsive>
0.0236

> <Gold.PLP.ligand.clash>
0.0000

> <Gold.PLP.ligand.torsion>
1.3907

> <Gold.PLP.Chemscore.Hbond>
0.0000

> <Gold.PLP.Chemscore.CHOScore>
0.0000

> <Gold.PLP.Chemscore.Metal>
0.0000

> <Gold.PLP.Chemscore.Internal.Correction>
0.0408

> <Gold.Rescore>
     Score         DG    S(hbond)    S(metal)    S(lipo)     H(rot)  DE(clash)    DE(int)     intcor
     12.42     -13.69       0.00        0.00     136.44       3.03       0.08       1.20       ----

> <Gold.Chemscore.Fitness>
12.4175

> <Gold.Chemscore.DG>
-13.6925

> <Gold.Chemscore.ZeroCoef>
-5.4800

> <Gold.Chemscore.Hbond>
0.0000

> <Gold.Chemscore.Metal>
0.0000

> <Gold.Chemscore.Lipo>
136.4415

> <Gold.Chemscore.Internal_Hbond>
0.0000

> <Gold.Chemscore.DEClash>
0.0766

> <Gold.Chemscore.DEInternal>
1.1984

> <Gold.Chemscore.Rot>
3.0278

> <Gold.Chemscore.Internal.Correction>
   9.000000E+99

> <Gold.Chemscore.Hbond.Weighted>
-0.0000

> <Gold.Chemscore.Metal.Weighted>
-0.0000

> <Gold.Chemscore.Lipo.Weighted>
-15.9637

> <Gold.Chemscore.Internal_Hbond.Weighted>
0.0000

> <Gold.Chemscore.DEClash.Weighted>
0.0766

> <Gold.Chemscore.DEInternal.Weighted>
1.1984

> <Gold.Chemscore.Rot.Weighted>
7.7512

> <Gold.Chemscore.Internal.Correction.Weighted>
   9.000000E+99

> <Gold.Protein.RotatedTorsions>
[ 6907 6896 6895 6894 ] final  148.72 input  -60.11 | X-H torsion
[ 7974 7965 7964 7962 ] final -148.46 input  175.53 | X-H torsion
[ 8008 7997 7996 7995 ] final  -78.41 input   59.86 | X-H torsion
[ 10167 10162 10161 10158 ] final -120.20 input  -65.29 | X-H torsion
[ 10718 10713 10712 10709 ] final  -57.84 input   66.30 | X-H torsion
[ 10763 10752 10751 10750 ] final   39.81 input  -60.55 | X-H torsion
[ 11005 11000 10999 10996 ] final  104.92 input  -57.11 | X-H torsion

> <Gold.Protein.ActiveResidues>
 VAL166  LYS551  ARG553  GLY616  TRP617  ASP618  TYR619  PRO620  LYS621  CYS622 
 ASP623  PHE694  ASN695  SER759  ASP760  ASP761  ALA762  ILE779  LEU786  VAL792 
 PHE793  MET794  SER795  GLU796  ALA797  LYS798  CYS799  TRP800  GLU811  SER814 

> <Gold.Protein.RotatedAtoms>
  152.1377  133.4445  159.4751 H   0  0  0  0  0  0  0  0  0  0  0  0  # atno 6907 bound_to 6896
  150.6883  134.2343  159.4456 H   0  0  0  0  0  0  0  0  0  0  0  0  # atno 6908 bound_to 6896
  152.0232  134.9810  160.0621 H   0  0  0  0  0  0  0  0  0  0  0  0  # atno 6909 bound_to 6896
  144.8028  140.5194  143.5695 H   0  0  0  0  0  0  0  0  0  0  0  0  # atno 7974 bound_to 7965
  154.5686  140.0695  156.8930 H   0  0  0  0  0  0  0  0  0  0  0  0  # atno 8008 bound_to 7997
  155.2676  140.3363  155.4249 H   0  0  0  0  0  0  0  0  0  0  0  0  # atno 8009 bound_to 7997
  156.2101  140.1755  156.7700 H   0  0  0  0  0  0  0  0  0  0  0  0  # atno 8010 bound_to 7997
  140.0384  143.5178  152.2142 H   0  0  0  0  0  0  0  0  0  0  0  0  # atno 10167 bound_to 10162
  156.1180  130.4168  150.0496 H   0  0  0  0  0  0  0  0  0  0  0  0  # atno 10718 bound_to 10713
  152.9955  135.6209  154.2525 H   0  0  0  0  0  0  0  0  0  0  0  0  # atno 10763 bound_to 10752
  154.2264  135.2794  155.2908 H   0  0  0  0  0  0  0  0  0  0  0  0  # atno 10764 bound_to 10752
  154.5486  135.5740  153.6960 H   0  0  0  0  0  0  0  0  0  0  0  0  # atno 10765 bound_to 10752
  139.8796  134.9318  156.5436 H   0  0  0  0  0  0  0  0  0  0  0  0  # atno 11005 bound_to 11000
  145.5511  139.1477  143.3394 LP  0  0  0  0  0  0  0  0  0  0  0  0  # atno 17320 bound_to 7965
  146.2313  140.5649  142.8974 LP  0  0  0  0  0  0  0  0  0  0  0  0  # atno 17321 bound_to 7965
  139.6030  144.7588  151.3128 LP  0  0  0  0  0  0  0  0  0  0  0  0  # atno 17342 bound_to 10162
  140.7271  143.6972  150.7874 LP  0  0  0  0  0  0  0  0  0  0  0  0  # atno 17343 bound_to 10162
  156.8442  130.9436  151.3630 LP  0  0  0  0  0  0  0  0  0  0  0  0  # atno 17370 bound_to 10713
  157.6363  130.8769  149.9365 LP  0  0  0  0  0  0  0  0  0  0  0  0  # atno 17371 bound_to 10713
  140.8292  133.8292  155.8968 LP  0  0  0  0  0  0  0  0  0  0  0  0  # atno 17394 bound_to 11000
  140.9344  134.1980  157.4841 LP  0  0  0  0  0  0  0  0  0  0  0  0  # atno 17395 bound_to 11000

$$$$
