AV-unprocessed.smi:1410|AV-procd|sdf|5737|dock1
  -GOLD-   22720 5373D 1   1.00000     0.00000
 Structure written by MMmdl.
 40 41  0  0  0  0  0  0  0  0  4 V2000
  154.1431  134.1845  159.2561 N   0  5  0  0  0  0  0  0  0  0  0  0
  155.0363  134.1065  160.2610 C   0  0  0  0  0  0  0  0  0  0  0  0
  154.9939  133.3846  161.2550 O   0  0  0  0  0  0  0  0  0  0  0  0
  156.2041  135.0829  160.0837 C   0  0  0  0  0  0  0  0  0  0  0  0
  155.7102  136.4824  160.1081 N   0  3  2  0  0  0  0  0  0  0  0  0
  156.6991  137.4610  159.5807 C   0  0  0  0  0  0  0  0  0  0  0  0
  156.0928  138.8713  159.4988 C   0  0  0  0  0  0  0  0  0  0  0  0
  155.5657  139.3280  160.8681 C   0  0  1  0  0  0  0  0  0  0  0  0
  154.9282  140.6356  160.7419 N   0  0  0  0  0  0  0  0  0  0  0  0
  154.0453  140.9754  159.7918 C   0  0  0  0  0  0  0  0  0  0  0  0
  153.6901  140.2144  158.8920 O   0  0  0  0  0  0  0  0  0  0  0  0
  153.6275  142.2440  159.9452 N   0  0  0  0  0  0  0  0  0  0  0  0
  152.6719  142.9594  159.1729 C   0  0  0  0  0  0  0  0  0  0  0  0
  151.9390  142.2370  158.2052 C   0  0  0  0  0  0  0  0  0  0  0  0
  150.9932  142.9094  157.4044 C   0  0  0  0  0  0  0  0  0  0  0  0
  150.8025  144.2369  157.5603 N   0  3  0  0  0  0  0  0  0  0  0  0
  151.4894  144.9723  158.4605 C   0  0  0  0  0  0  0  0  0  0  0  0
  152.4483  144.3551  159.2896 C   0  0  0  0  0  0  0  0  0  0  0  0
  154.5759  138.2825  161.4131 C   0  0  0  0  0  0  0  0  0  0  0  0
  155.2102  136.8815  161.4483 C   0  0  0  0  0  0  0  0  0  0  0  0
  154.3388  133.6811  158.3823 H   0  0  0  0  0  0  0  0  0  0  0  0
  156.8857  134.9133  160.9183 H   0  0  0  0  0  0  0  0  0  0  0  0
  156.7779  134.8965  159.1730 H   0  0  0  0  0  0  0  0  0  0  0  0
  157.5823  137.4683  160.2214 H   0  0  0  0  0  0  0  0  0  0  0  0
  157.0348  137.1628  158.5874 H   0  0  0  0  0  0  0  0  0  0  0  0
  156.8435  139.5728  159.1329 H   0  0  0  0  0  0  0  0  0  0  0  0
  155.2834  138.8741  158.7668 H   0  0  0  0  0  0  0  0  0  0  0  0
  156.4138  139.4060  161.5513 H   0  0  0  0  0  0  0  0  0  0  0  0
  155.1685  141.3261  161.4382 H   0  0  0  0  0  0  0  0  0  0  0  0
  154.0800  142.7755  160.6746 H   0  0  0  0  0  0  0  0  0  0  0  0
  152.0926  141.1750  158.0778 H   0  0  0  0  0  0  0  0  0  0  0  0
  150.3897  142.4287  156.6484 H   0  0  0  0  0  0  0  0  0  0  0  0
  151.2584  146.0272  158.4864 H   0  0  0  0  0  0  0  0  0  0  0  0
  153.0010  144.9658  159.9871 H   0  0  0  0  0  0  0  0  0  0  0  0
  154.2473  138.5595  162.4155 H   0  0  0  0  0  0  0  0  0  0  0  0
  153.6803  138.2578  160.7900 H   0  0  0  0  0  0  0  0  0  0  0  0
  154.4668  136.1620  161.7939 H   0  0  0  0  0  0  0  0  0  0  0  0
  156.0324  136.8579  162.1653 H   0  0  0  0  0  0  0  0  0  0  0  0
  154.9138  136.5024  159.4868 H   0  0  0  0  0  0  0  0  0  0  0  0
  150.1144  144.7051  156.9698 H   0  0  0  0  0  0  0  0  0  0  0  0
  1  2  1  0  0  0  0
  1 21  1  0  0  0  0
  2  3  2  0  0  0  0
  2  4  1  0  0  0  0
  4  5  1  0  0  0  0
  4 22  1  0  0  0  0
  4 23  1  0  0  0  0
  5 20  1  0  0  0  0
  5  6  1  0  0  0  0
  5 39  1  0  0  0  0
  6  7  1  0  0  0  0
  6 24  1  0  0  0  0
  6 25  1  0  0  0  0
  7  8  1  0  0  0  0
  7 26  1  0  0  0  0
  7 27  1  0  0  0  0
  8  9  1  0  0  0  0
  8 19  1  0  0  0  0
  8 28  1  0  0  0  0
  9 10  1  0  0  0  0
  9 29  1  0  0  0  0
 10 11  2  0  0  0  0
 10 12  1  0  0  0  0
 12 13  1  0  0  0  0
 12 30  1  0  0  0  0
 13 18  1  0  0  0  0
 13 14  2  0  0  0  0
 14 15  1  0  0  0  0
 14 31  1  0  0  0  0
 15 16  2  0  0  0  0
 15 32  1  0  0  0  0
 16 17  1  0  0  0  0
 16 40  1  0  0  0  0
 17 18  2  0  0  0  0
 17 33  1  0  0  0  0
 18 34  1  0  0  0  0
 19 20  1  0  0  0  0
 19 35  1  0  0  0  0
 19 36  1  0  0  0  0
 20 37  1  0  0  0  0
 20 38  1  0  0  0  0
M  CHG  1   1  -1
M  CHG  1   5   1
M  CHG  1  16   1
M  END
> <s_m_source_file>
AV-unprocessed.smi

> <i_m_source_file_index>
1410

> <i_lp_mmshare_version>
43012

> <i_f3d_flags>
0

> <s_epik_input>
W05IMl1DKD1PKVtDSDJdTjFbQ0gyXVtDSDJdW0NIXShbQ0gyXVtDSDJdMSlbTkhdQyg9TylbTkhdYzJbY0hdW2NIXW5bY0hdW2NIXTI=

> <s_epik_cmdline>
J2VwaWtfcHl0aG9uJywgJy1waCcsICc3LjAnLCAnLXRuJywgJzgnLCAnLW1hJywgJzIwMCcsICctbWV0YWxfYmluZGluZycsICctaW1hZScsICc8aW5maWxlLm1hZT4nLCAnLW9tYWUnLCAnPG91dGZpbGUubWFlPic=

> <r_epik_Ionization_Penalty>
6.84067

> <r_epik_Ionization_Penalty_Charging>
6.84065

> <r_epik_Ionization_Penalty_Neutral>
1.84563e-05

> <r_epik_State_Penalty>
7.68217

> <r_epik_Charging_Adjusted_Penalty>
14.5228

> <i_epik_Tot_Q>
1

> <i_epik_Tot_abs_Q>
3

> <r_epik_Metal_State_Penalty>
3.74331

> <b_epik_Metal_Only>
1

> <s_lp_Force_Field>
OPLS_2005

> <r_lp_Energy>
19.1226

> <b_lp_Chiralities_Consistent>
1

> <s_lp_Variant>
AV-unprocessed.smi:1410-9

> <Gold.Version>
5.8.1

> <Gold.Id.Protein>
6NUR|6NUR_protein|mol2

> <Gold.PLP.Fitness>
44.4817

> <Gold.PLP.PLP>
-30.2489

> <Gold.PLP.part.hbond>
-3.2565

> <Gold.PLP.part.metal>
0.0000

> <Gold.PLP.part.buried>
-4.6310

> <Gold.PLP.part.nonpolar>
-21.3532

> <Gold.PLP.part.repulsive>
0.1103

> <Gold.PLP.ligand.clash>
0.0000

> <Gold.PLP.ligand.torsion>
0.2697

> <Gold.PLP.Chemscore.Hbond>
4.9120

> <Gold.PLP.Chemscore.CHOScore>
0.0000

> <Gold.PLP.Chemscore.Metal>
0.0000

> <Gold.Chemscore.Hbonds>
donor molecule, donor type, donor heavy atom, donor atom, acceptor molecule, acceptor atom, score
      L1  H    16    40       P1  8028  2.00
      P1  H  6896  6908       L1     1  2.00
      P1  H  7997  8008       L1    11  0.91

> <Gold.PLP.Chemscore.Internal.Correction>
0.0364

> <Gold.Rescore>
     Score         DG    S(hbond)    S(metal)    S(lipo)     H(rot)  DE(clash)    DE(int)     intcor
     16.04     -19.09       2.76        0.00      80.53       1.96       0.00       3.05       ----

> <Gold.Chemscore.Fitness>
16.0392

> <Gold.Chemscore.DG>
-19.0889

> <Gold.Chemscore.ZeroCoef>
-5.4800

> <Gold.Chemscore.Hbond>
2.7569

> <Gold.Chemscore.Metal>
0.0000

> <Gold.Chemscore.Lipo>
80.5263

> <Gold.Chemscore.Internal_Hbond>
0.0000

> <Gold.Chemscore.DEClash>
0.0038

> <Gold.Chemscore.DEInternal>
3.0459

> <Gold.Chemscore.Rot>
1.9612

> <Gold.Chemscore.Internal.Correction>
   9.000000E+99

> <Gold.Chemscore.Hbonds>
donor molecule, donor type, donor heavy atom, donor atom, acceptor molecule, acceptor atom, score
      L1  H    16    40       P1  8028  0.44
      P1  H  6896  6908       L1     1  0.72
      P1  H  7997  8008       L1    11  0.80

> <Gold.Chemscore.Hbond.Weighted>
-9.2081

> <Gold.Chemscore.Metal.Weighted>
-0.0000

> <Gold.Chemscore.Lipo.Weighted>
-9.4216

> <Gold.Chemscore.Internal_Hbond.Weighted>
0.0000

> <Gold.Chemscore.DEClash.Weighted>
0.0038

> <Gold.Chemscore.DEInternal.Weighted>
3.0459

> <Gold.Chemscore.Rot.Weighted>
5.0208

> <Gold.Chemscore.Internal.Correction.Weighted>
   9.000000E+99

> <Gold.Protein.RotatedTorsions>
[ 6907 6896 6895 6894 ] final  -39.25 input  -60.11 | X-H torsion
[ 7974 7965 7964 7962 ] final  -28.48 input  175.53 | X-H torsion
[ 8008 7997 7996 7995 ] final -106.42 input   59.86 | X-H torsion
[ 10167 10162 10161 10158 ] final  -14.25 input  -65.29 | X-H torsion
[ 10718 10713 10712 10709 ] final  122.80 input   66.30 | X-H torsion
[ 10763 10752 10751 10750 ] final   71.98 input  -60.55 | X-H torsion
[ 11005 11000 10999 10996 ] final -145.56 input  -57.11 | X-H torsion

> <Gold.Protein.ActiveResidues>
 VAL166  LYS551  ARG553  GLY616  TRP617  ASP618  TYR619  PRO620  LYS621  CYS622 
 ASP623  PHE694  ASN695  SER759  ASP760  ASP761  ALA762  ILE779  LEU786  VAL792 
 PHE793  MET794  SER795  GLU796  ALA797  LYS798  CYS799  TRP800  GLU811  SER814 

> <Gold.Protein.RotatedAtoms>
  150.9926  134.9257  159.7908 H   0  0  0  0  0  0  0  0  0  0  0  0  # atno 6907 bound_to 6896
  152.5255  134.3261  159.9176 H   0  0  0  0  0  0  0  0  0  0  0  0  # atno 6908 bound_to 6896
  151.3267  133.3976  159.2693 H   0  0  0  0  0  0  0  0  0  0  0  0  # atno 6909 bound_to 6896
  146.1285  140.5287  142.8704 H   0  0  0  0  0  0  0  0  0  0  0  0  # atno 7974 bound_to 7965
  154.9143  140.0409  157.1963 H   0  0  0  0  0  0  0  0  0  0  0  0  # atno 8008 bound_to 7997
  154.8317  140.2900  155.5696 H   0  0  0  0  0  0  0  0  0  0  0  0  # atno 8009 bound_to 7997
  156.2987  140.2499  156.3243 H   0  0  0  0  0  0  0  0  0  0  0  0  # atno 8010 bound_to 7997
  140.7198  143.5341  150.9486 H   0  0  0  0  0  0  0  0  0  0  0  0  # atno 10167 bound_to 10162
  157.5714  131.1083  150.8359 H   0  0  0  0  0  0  0  0  0  0  0  0  # atno 10718 bound_to 10713
  153.0431  135.5117  154.7674 H   0  0  0  0  0  0  0  0  0  0  0  0  # atno 10763 bound_to 10752
  154.6596  135.2936  154.9886 H   0  0  0  0  0  0  0  0  0  0  0  0  # atno 10764 bound_to 10752
  154.0741  135.6673  153.4881 H   0  0  0  0  0  0  0  0  0  0  0  0  # atno 10765 bound_to 10752
  140.7910  134.2969  157.5013 H   0  0  0  0  0  0  0  0  0  0  0  0  # atno 11005 bound_to 11000
  144.7667  140.5545  143.6698 LP  0  0  0  0  0  0  0  0  0  0  0  0  # atno 17320 bound_to 7965
  145.5312  139.1475  143.3498 LP  0  0  0  0  0  0  0  0  0  0  0  0  # atno 17321 bound_to 7965
  139.9062  143.6776  152.3123 LP  0  0  0  0  0  0  0  0  0  0  0  0  # atno 17342 bound_to 10162
  139.7143  144.7614  151.1060 LP  0  0  0  0  0  0  0  0  0  0  0  0  # atno 17343 bound_to 10162
  156.8829  130.5186  149.5290 LP  0  0  0  0  0  0  0  0  0  0  0  0  # atno 17370 bound_to 10713
  156.0760  130.5782  150.9474 LP  0  0  0  0  0  0  0  0  0  0  0  0  # atno 17371 bound_to 10713
  139.8731  134.9374  156.3687 LP  0  0  0  0  0  0  0  0  0  0  0  0  # atno 17394 bound_to 11000
  140.9390  133.7527  156.0121 LP  0  0  0  0  0  0  0  0  0  0  0  0  # atno 17395 bound_to 11000

$$$$
