AV-unprocessed.smi:2114|AV-procd|sdf|8619|dock3
  -GOLD-   2272011363D 1   1.00000     0.00000
 Structure written by MMmdl.
 47 48  0  0  0  0  0  0  0  0  1 V2000
  148.1468  133.1995  153.1123 C   0  0  0  0  0  0  0  0  0  0  0  0
  148.7028  133.1607  154.4144 O   0  0  0  0  0  0  0  0  0  0  0  0
  149.0322  134.4499  154.9061 C   0  0  0  0  0  0  0  0  0  0  0  0
  150.3663  134.3906  155.6702 C   0  0  2  0  0  0  0  0  0  0  0  0
  150.3292  133.3361  156.7849 C   0  0  0  0  0  0  0  0  0  0  0  0
  150.6731  135.6920  156.2590 N   0  0  0  0  0  0  0  0  0  0  0  0
  151.7228  135.9667  157.0514 C   0  0  0  0  0  0  0  0  0  0  0  0
  152.5489  135.1265  157.4072 O   0  0  0  0  0  0  0  0  0  0  0  0
  151.8039  137.3814  157.5473 C   0  0  0  0  0  0  0  0  0  0  0  0
  151.5942  138.4827  156.6891 C   0  0  0  0  0  0  0  0  0  0  0  0
  151.7057  139.7869  157.2076 C   0  0  0  0  0  0  0  0  0  0  0  0
  152.0320  139.9620  158.5728 C   0  0  0  0  0  0  0  0  0  0  0  0
  152.1449  141.2611  159.1119 N   0  0  0  0  0  0  0  0  0  0  0  0
  153.3600  141.5204  159.8788 C   0  0  0  0  0  0  0  0  0  0  0  0
  153.2342  142.8254  160.6893 C   0  0  2  0  0  0  0  0  0  0  0  0
  152.3394  142.6882  161.9342 C   0  0  0  0  0  0  0  0  0  0  0  0
  152.8185  143.8973  159.8397 O   0  0  0  0  0  0  0  0  0  0  0  0
  151.6015  143.6625  159.1323 C   0  0  1  0  0  0  0  0  0  0  0  0
  151.3057  144.8967  158.2738 C   0  0  0  0  0  0  0  0  0  0  0  0
  151.7386  142.3894  158.2789 C   0  0  0  0  0  0  0  0  0  0  0  0
  152.2509  138.9037  159.3909 N   0  0  0  0  0  0  0  0  0  0  0  0
  152.1427  137.6549  158.8895 C   0  0  0  0  0  0  0  0  0  0  0  0
  147.9138  132.1867  152.7840 H   0  0  0  0  0  0  0  0  0  0  0  0
  148.8478  133.6321  152.3972 H   0  0  0  0  0  0  0  0  0  0  0  0
  147.2240  133.7806  153.0944 H   0  0  0  0  0  0  0  0  0  0  0  0
  149.0955  135.1665  154.0852 H   0  0  0  0  0  0  0  0  0  0  0  0
  148.2388  134.7901  155.5735 H   0  0  0  0  0  0  0  0  0  0  0  0
  151.1558  134.1015  154.9740 H   0  0  0  0  0  0  0  0  0  0  0  0
  150.1282  132.3440  156.3797 H   0  0  0  0  0  0  0  0  0  0  0  0
  149.5535  133.5588  157.5185 H   0  0  0  0  0  0  0  0  0  0  0  0
  151.2828  133.2878  157.3117 H   0  0  0  0  0  0  0  0  0  0  0  0
  150.0376  136.4460  156.0435 H   0  0  0  0  0  0  0  0  0  0  0  0
  151.3569  138.3425  155.6445 H   0  0  0  0  0  0  0  0  0  0  0  0
  151.5577  140.6331  156.5535 H   0  0  0  0  0  0  0  0  0  0  0  0
  153.6038  140.6988  160.5511 H   0  0  0  0  0  0  0  0  0  0  0  0
  154.1915  141.6052  159.1779 H   0  0  0  0  0  0  0  0  0  0  0  0
  154.2300  143.0903  161.0457 H   0  0  0  0  0  0  0  0  0  0  0  0
  152.7542  141.9566  162.6278 H   0  0  0  0  0  0  0  0  0  0  0  0
  151.3306  142.3597  161.6851 H   0  0  0  0  0  0  0  0  0  0  0  0
  152.2619  143.6377  162.4641 H   0  0  0  0  0  0  0  0  0  0  0  0
  150.7820  143.5413  159.8410 H   0  0  0  0  0  0  0  0  0  0  0  0
  150.3757  144.7750  157.7180 H   0  0  0  0  0  0  0  0  0  0  0  0
  152.1048  145.0773  157.5543 H   0  0  0  0  0  0  0  0  0  0  0  0
  151.2078  145.7882  158.8939 H   0  0  0  0  0  0  0  0  0  0  0  0
  152.4794  142.5392  157.4921 H   0  0  0  0  0  0  0  0  0  0  0  0
  150.7851  142.1763  157.7937 H   0  0  0  0  0  0  0  0  0  0  0  0
  152.3289  136.8534  159.5894 H   0  0  0  0  0  0  0  0  0  0  0  0
  1  2  1  0  0  0  0
  1 23  1  0  0  0  0
  1 24  1  0  0  0  0
  1 25  1  0  0  0  0
  2  3  1  0  0  0  0
  3  4  1  0  0  0  0
  3 26  1  0  0  0  0
  3 27  1  0  0  0  0
  4  5  1  0  0  0  0
  4  6  1  0  0  0  0
  4 28  1  0  0  0  0
  5 29  1  0  0  0  0
  5 30  1  0  0  0  0
  5 31  1  0  0  0  0
  6  7  1  0  0  0  0
  6 32  1  0  0  0  0
  7  8  2  0  0  0  0
  7  9  1  0  0  0  0
  9 22  1  0  0  0  0
  9 10  2  0  0  0  0
 10 11  1  0  0  0  0
 10 33  1  0  0  0  0
 11 12  2  0  0  0  0
 11 34  1  0  0  0  0
 12 13  1  0  0  0  0
 12 21  1  0  0  0  0
 13 20  1  0  0  0  0
 13 14  1  0  0  0  0
 14 15  1  0  0  0  0
 14 35  1  0  0  0  0
 14 36  1  0  0  0  0
 15 16  1  0  0  0  0
 15 17  1  0  0  0  0
 15 37  1  0  0  0  0
 16 38  1  0  0  0  0
 16 39  1  0  0  0  0
 16 40  1  0  0  0  0
 17 18  1  0  0  0  0
 18 19  1  0  0  0  0
 18 20  1  0  0  0  0
 18 41  1  0  0  0  0
 19 42  1  0  0  0  0
 19 43  1  0  0  0  0
 19 44  1  0  0  0  0
 20 45  1  0  0  0  0
 20 46  1  0  0  0  0
 21 22  2  0  0  0  0
 22 47  1  0  0  0  0
M  END
> <s_m_source_file>
AV-unprocessed.smi

> <i_m_source_file_index>
2114

> <i_lp_mmshare_version>
43012

> <i_f3d_flags>
0

> <s_epik_input>
W0NIM11PW0NIMl1bQ0BIXShbQ0gzXSlbTkhdQyg9TyljMVtjSF1bY0hdYyhuW2NIXTEpTjJbQ0gyXVtDQEBIXShbQ0gzXSlPW0NAQEhdKFtDSDNdKVtDSDJdMg==

> <s_epik_cmdline>
J2VwaWtfcHl0aG9uJywgJy1waCcsICc3LjAnLCAnLXRuJywgJzgnLCAnLW1hJywgJzIwMCcsICctbWV0YWxfYmluZGluZycsICctaW1hZScsICc8aW5maWxlLm1hZT4nLCAnLW9tYWUnLCAnPG91dGZpbGUubWFlPic=

> <r_lp_tautomer_probability>
1

> <r_epik_Ionization_Penalty>
1.92915e-05

> <r_epik_Ionization_Penalty_Charging>
0

> <r_epik_Ionization_Penalty_Neutral>
1.92915e-05

> <r_epik_State_Penalty>
-0

> <r_epik_Charging_Adjusted_Penalty>
0

> <i_epik_Tot_Q>
0

> <i_epik_Tot_abs_Q>
0

> <r_epik_Metal_State_Penalty>
-0

> <b_epik_Metal_Only>
0

> <s_lp_Force_Field>
OPLS_2005

> <r_lp_Energy>
21.9464

> <b_lp_Chiralities_Consistent>
1

> <s_lp_Variant>
AV-unprocessed.smi:2114-3

> <Gold.Version>
5.8.1

> <Gold.Id.Protein>
6NUR|6NUR_protein|mol2

> <Gold.PLP.Fitness>
38.4601

> <Gold.PLP.PLP>
-38.0381

> <Gold.PLP.part.hbond>
-1.2495

> <Gold.PLP.part.metal>
0.0000

> <Gold.PLP.part.buried>
-6.2844

> <Gold.PLP.part.nonpolar>
-30.3451

> <Gold.PLP.part.repulsive>
0.2150

> <Gold.PLP.ligand.clash>
0.0000

> <Gold.PLP.ligand.torsion>
1.1737

> <Gold.PLP.Chemscore.Hbond>
0.8000

> <Gold.PLP.Chemscore.CHOScore>
0.0000

> <Gold.PLP.Chemscore.Metal>
0.0000

> <Gold.Chemscore.Hbonds>
donor molecule, donor type, donor heavy atom, donor atom, acceptor molecule, acceptor atom, score
      P1  H 10752 10765       L1     8  0.14

> <Gold.PLP.Chemscore.Internal.Correction>
0.3694

> <Gold.Rescore>
     Score         DG    S(hbond)    S(metal)    S(lipo)     H(rot)  DE(clash)    DE(int)     intcor
     13.98     -16.58       0.88        0.00     102.97       1.52       0.01       2.60       ----

> <Gold.Chemscore.Fitness>
13.9780

> <Gold.Chemscore.DG>
-16.5816

> <Gold.Chemscore.ZeroCoef>
-5.4800

> <Gold.Chemscore.Hbond>
0.8840

> <Gold.Chemscore.Metal>
0.0000

> <Gold.Chemscore.Lipo>
102.9663

> <Gold.Chemscore.Internal_Hbond>
0.0000

> <Gold.Chemscore.DEClash>
0.0075

> <Gold.Chemscore.DEInternal>
2.5961

> <Gold.Chemscore.Rot>
1.5226

> <Gold.Chemscore.Internal.Correction>
   9.000000E+99

> <Gold.Chemscore.Hbond.Weighted>
-2.9525

> <Gold.Chemscore.Metal.Weighted>
-0.0000

> <Gold.Chemscore.Lipo.Weighted>
-12.0471

> <Gold.Chemscore.Internal_Hbond.Weighted>
0.0000

> <Gold.Chemscore.DEClash.Weighted>
0.0075

> <Gold.Chemscore.DEInternal.Weighted>
2.5961

> <Gold.Chemscore.Rot.Weighted>
3.8980

> <Gold.Chemscore.Internal.Correction.Weighted>
   9.000000E+99

> <Gold.Protein.RotatedTorsions>
[ 6907 6896 6895 6894 ] final   25.43 input  -60.11 | X-H torsion
[ 7974 7965 7964 7962 ] final  107.29 input  175.53 | X-H torsion
[ 8008 7997 7996 7995 ] final   19.84 input   59.86 | X-H torsion
[ 10167 10162 10161 10158 ] final   32.56 input  -65.29 | X-H torsion
[ 10718 10713 10712 10709 ] final  172.01 input   66.30 | X-H torsion
[ 10763 10752 10751 10750 ] final -119.32 input  -60.55 | X-H torsion
[ 11005 11000 10999 10996 ] final  -40.90 input  -57.11 | X-H torsion

> <Gold.Protein.ActiveResidues>
 VAL166  LYS551  ARG553  GLY616  TRP617  ASP618  TYR619  PRO620  LYS621  CYS622 
 ASP623  PHE694  ASN695  SER759  ASP760  ASP761  ALA762  ILE779  LEU786  VAL792 
 PHE793  MET794  SER795  GLU796  ALA797  LYS798  CYS799  TRP800  GLU811  SER814 

> <Gold.Protein.RotatedAtoms>
  151.9724  135.0070  160.0553 H   0  0  0  0  0  0  0  0  0  0  0  0  # atno 6907 bound_to 6896
  152.1771  133.4677  159.4947 H   0  0  0  0  0  0  0  0  0  0  0  0  # atno 6908 bound_to 6896
  150.6911  134.1798  159.4287 H   0  0  0  0  0  0  0  0  0  0  0  0  # atno 6909 bound_to 6896
  145.2955  139.2586  143.3842 H   0  0  0  0  0  0  0  0  0  0  0  0  # atno 7974 bound_to 7965
  154.9267  140.3035  155.5188 H   0  0  0  0  0  0  0  0  0  0  0  0  # atno 8008 bound_to 7997
  156.3006  140.2361  156.4259 H   0  0  0  0  0  0  0  0  0  0  0  0  # atno 8009 bound_to 7997
  154.8277  140.0420  157.1444 H   0  0  0  0  0  0  0  0  0  0  0  0  # atno 8010 bound_to 7997
  140.4488  144.1079  150.6187 H   0  0  0  0  0  0  0  0  0  0  0  0  # atno 10167 bound_to 10162
  156.9853  131.0131  151.2871 H   0  0  0  0  0  0  0  0  0  0  0  0  # atno 10718 bound_to 10713
  154.8614  135.4242  154.2280 H   0  0  0  0  0  0  0  0  0  0  0  0  # atno 10763 bound_to 10752
  153.3271  135.6986  153.6986 H   0  0  0  0  0  0  0  0  0  0  0  0  # atno 10764 bound_to 10752
  153.6017  135.3535  155.2921 H   0  0  0  0  0  0  0  0  0  0  0  0  # atno 10765 bound_to 10752
  141.0207  133.6864  156.2384 H   0  0  0  0  0  0  0  0  0  0  0  0  # atno 11005 bound_to 11000
  146.3170  140.3456  142.8651 LP  0  0  0  0  0  0  0  0  0  0  0  0  # atno 17320 bound_to 7965
  144.9137  140.7787  143.5791 LP  0  0  0  0  0  0  0  0  0  0  0  0  # atno 17321 bound_to 7965
  140.4232  143.2602  151.9689 LP  0  0  0  0  0  0  0  0  0  0  0  0  # atno 17342 bound_to 10162
  139.4795  144.5812  151.7930 LP  0  0  0  0  0  0  0  0  0  0  0  0  # atno 17343 bound_to 10162
  157.5497  130.8174  149.8130 LP  0  0  0  0  0  0  0  0  0  0  0  0  # atno 17370 bound_to 10713
  156.0228  130.3789  150.1910 LP  0  0  0  0  0  0  0  0  0  0  0  0  # atno 17371 bound_to 10713
  140.6577  134.5001  157.5581 LP  0  0  0  0  0  0  0  0  0  0  0  0  # atno 17394 bound_to 11000
  139.9144  134.8276  156.1415 LP  0  0  0  0  0  0  0  0  0  0  0  0  # atno 17395 bound_to 11000

$$$$
