AV-unprocessed.smi:400|AV-procd|sdf|2492|dock7
  -GOLD-   2262022433D 1   1.00000     0.00000
 Structure written by MMmdl.
 40 41  0  0  0  0  0  0  0  0  1 V2000
  146.7830  143.4660  153.1869 C   0  0  0  0  0  0  0  0  0  0  0  0
  147.5739  142.7517  154.2941 C   0  0  0  0  0  0  0  0  0  0  0  0
  148.6776  141.8032  153.7751 C   0  0  2  0  0  0  0  0  0  0  0  0
  148.0644  140.5580  153.1114 C   0  0  0  0  0  0  0  0  0  0  0  0
  149.6460  141.3834  154.8923 C   0  0  0  0  0  0  0  0  0  0  0  0
  150.1262  140.2493  154.8869 O   0  0  0  0  0  0  0  0  0  0  0  0
  149.9039  142.3175  155.8275 N   0  0  0  0  0  0  0  0  0  0  0  0
  150.7440  142.2139  156.9677 C   0  0  0  0  0  0  0  0  0  0  0  0
  151.4300  143.3964  157.3162 C   0  0  0  0  0  0  0  0  0  0  0  0
  152.2864  143.3990  158.4337 C   0  0  0  0  0  0  0  0  0  0  0  0
  152.4448  142.2160  159.1944 C   0  0  0  0  0  0  0  0  0  0  0  0
  153.2854  142.1417  160.3265 N   0  0  0  0  0  0  0  0  0  0  0  0
  152.9998  143.0165  161.4601 C   0  0  0  0  0  0  0  0  0  0  0  0
  154.1809  143.0192  162.4460 C   0  0  0  0  0  0  0  0  0  0  0  0
  154.4789  141.6844  162.8413 O   0  0  0  0  0  0  0  0  0  0  0  0
  154.8656  140.8789  161.7327 C   0  0  0  0  0  0  0  0  0  0  0  0
  153.7123  140.8001  160.7171 C   0  0  0  0  0  0  0  0  0  0  0  0
  151.7185  141.0830  158.7603 C   0  0  0  0  0  0  0  0  0  0  0  0
  150.8983  141.0784  157.6891 N   0  0  0  0  0  0  0  0  0  0  0  0
  145.9829  144.0706  153.6143 H   0  0  0  0  0  0  0  0  0  0  0  0
  146.3271  142.7488  152.5041 H   0  0  0  0  0  0  0  0  0  0  0  0
  147.4178  144.1315  152.6015 H   0  0  0  0  0  0  0  0  0  0  0  0
  148.0041  143.4953  154.9667 H   0  0  0  0  0  0  0  0  0  0  0  0
  146.8709  142.1776  154.8988 H   0  0  0  0  0  0  0  0  0  0  0  0
  149.2446  142.3345  153.0084 H   0  0  0  0  0  0  0  0  0  0  0  0
  148.8371  139.8741  152.7578 H   0  0  0  0  0  0  0  0  0  0  0  0
  147.4569  140.8352  152.2495 H   0  0  0  0  0  0  0  0  0  0  0  0
  147.4240  140.0087  153.8028 H   0  0  0  0  0  0  0  0  0  0  0  0
  149.4401  143.2060  155.7086 H   0  0  0  0  0  0  0  0  0  0  0  0
  151.3031  144.2990  156.7362 H   0  0  0  0  0  0  0  0  0  0  0  0
  152.7981  144.3140  158.6908 H   0  0  0  0  0  0  0  0  0  0  0  0
  152.8183  144.0351  161.1149 H   0  0  0  0  0  0  0  0  0  0  0  0
  152.0959  142.6726  161.9646 H   0  0  0  0  0  0  0  0  0  0  0  0
  155.0612  143.4823  161.9972 H   0  0  0  0  0  0  0  0  0  0  0  0
  153.9300  143.6044  163.3307 H   0  0  0  0  0  0  0  0  0  0  0  0
  155.7647  141.2875  161.2684 H   0  0  0  0  0  0  0  0  0  0  0  0
  155.1188  139.8810  162.0906 H   0  0  0  0  0  0  0  0  0  0  0  0
  152.8636  140.2761  161.1584 H   0  0  0  0  0  0  0  0  0  0  0  0
  154.0360  140.2117  159.8597 H   0  0  0  0  0  0  0  0  0  0  0  0
  151.8044  140.1361  159.2719 H   0  0  0  0  0  0  0  0  0  0  0  0
  1  2  1  0  0  0  0
  1 20  1  0  0  0  0
  1 21  1  0  0  0  0
  1 22  1  0  0  0  0
  2  3  1  0  0  0  0
  2 23  1  0  0  0  0
  2 24  1  0  0  0  0
  3  4  1  0  0  0  0
  3  5  1  0  0  0  0
  3 25  1  0  0  0  0
  4 26  1  0  0  0  0
  4 27  1  0  0  0  0
  4 28  1  0  0  0  0
  5  6  2  0  0  0  0
  5  7  1  0  0  0  0
  7  8  1  0  0  0  0
  7 29  1  0  0  0  0
  8 19  1  0  0  0  0
  8  9  2  0  0  0  0
  9 10  1  0  0  0  0
  9 30  1  0  0  0  0
 10 11  2  0  0  0  0
 10 31  1  0  0  0  0
 11 12  1  0  0  0  0
 11 18  1  0  0  0  0
 12 17  1  0  0  0  0
 12 13  1  0  0  0  0
 13 14  1  0  0  0  0
 13 32  1  0  0  0  0
 13 33  1  0  0  0  0
 14 15  1  0  0  0  0
 14 34  1  0  0  0  0
 14 35  1  0  0  0  0
 15 16  1  0  0  0  0
 16 17  1  0  0  0  0
 16 36  1  0  0  0  0
 16 37  1  0  0  0  0
 17 38  1  0  0  0  0
 17 39  1  0  0  0  0
 18 19  2  0  0  0  0
 18 40  1  0  0  0  0
M  END
> <s_m_source_file>
AV-unprocessed.smi

> <i_m_source_file_index>
400

> <i_lp_mmshare_version>
43012

> <i_f3d_flags>
0

> <s_epik_input>
W0NIM11bQ0gyXVtDQEhdKFtDSDNdKUMoPU8pW05IXWMxW2NIXVtjSF1jKFtjSF1uMSlOMltDSDJdW0NIMl1PW0NIMl1bQ0gyXTI=

> <s_epik_cmdline>
J2VwaWtfcHl0aG9uJywgJy1waCcsICc3LjAnLCAnLXRuJywgJzgnLCAnLW1hJywgJzIwMCcsICctbWV0YWxfYmluZGluZycsICctaW1hZScsICc8aW5maWxlLm1hZT4nLCAnLW9tYWUnLCAnPG91dGZpbGUubWFlPic=

> <r_lp_tautomer_probability>
1

> <r_epik_Ionization_Penalty>
0.00393323

> <r_epik_Ionization_Penalty_Charging>
0

> <r_epik_Ionization_Penalty_Neutral>
0.00393323

> <r_epik_State_Penalty>
0.00357844

> <r_epik_Charging_Adjusted_Penalty>
0.00357844

> <i_epik_Tot_Q>
0

> <i_epik_Tot_abs_Q>
0

> <r_epik_Metal_State_Penalty>
-0

> <b_epik_Metal_Only>
0

> <s_lp_Force_Field>
OPLS_2005

> <r_lp_Energy>
25.3319

> <b_lp_Chiralities_Consistent>
1

> <s_lp_Variant>
AV-unprocessed.smi:400-1

> <Gold.Version>
5.8.1

> <Gold.Id.Protein>
6NUR|6NUR_protein|mol2

> <Gold.PLP.Fitness>
40.3965

> <Gold.PLP.PLP>
-37.5925

> <Gold.PLP.part.hbond>
-2.8545

> <Gold.PLP.part.metal>
0.0000

> <Gold.PLP.part.buried>
3.2491

> <Gold.PLP.part.nonpolar>
-37.6063

> <Gold.PLP.part.repulsive>
0.1724

> <Gold.PLP.ligand.clash>
0.0000

> <Gold.PLP.ligand.torsion>
1.2594

> <Gold.PLP.Chemscore.Hbond>
1.6400

> <Gold.PLP.Chemscore.CHOScore>
0.0000

> <Gold.PLP.Chemscore.Metal>
0.0000

> <Gold.Chemscore.Hbonds>
donor molecule, donor type, donor heavy atom, donor atom, acceptor molecule, acceptor atom, score
      L1  H     7    29       P1  8028  1.00
      P1  H  7989  7998       L1     6  0.37

> <Gold.PLP.Chemscore.Internal.Correction>
0.4029

> <Gold.Rescore>
     Score         DG    S(hbond)    S(metal)    S(lipo)     H(rot)  DE(clash)    DE(int)     intcor
     13.77     -17.57       0.94        0.00     105.05       1.30       2.03       1.77       ----

> <Gold.Chemscore.Fitness>
13.7672

> <Gold.Chemscore.DG>
-17.5680

> <Gold.Chemscore.ZeroCoef>
-5.4800

> <Gold.Chemscore.Hbond>
0.9388

> <Gold.Chemscore.Metal>
0.0000

> <Gold.Chemscore.Lipo>
105.0523

> <Gold.Chemscore.Internal_Hbond>
0.0000

> <Gold.Chemscore.DEClash>
2.0309

> <Gold.Chemscore.DEInternal>
1.7699

> <Gold.Chemscore.Rot>
1.3041

> <Gold.Chemscore.Internal.Correction>
   9.000000E+99

> <Gold.Chemscore.Hbonds>
donor molecule, donor type, donor heavy atom, donor atom, acceptor molecule, acceptor atom, score
      L1  H     7    29       P1  8028  0.99
      P1  H  7989  7998       L1     6  0.02

> <Gold.Chemscore.Hbond.Weighted>
-3.1354

> <Gold.Chemscore.Metal.Weighted>
-0.0000

> <Gold.Chemscore.Lipo.Weighted>
-12.2911

> <Gold.Chemscore.Internal_Hbond.Weighted>
0.0000

> <Gold.Chemscore.DEClash.Weighted>
2.0309

> <Gold.Chemscore.DEInternal.Weighted>
1.7699

> <Gold.Chemscore.Rot.Weighted>
3.3385

> <Gold.Chemscore.Internal.Correction.Weighted>
   9.000000E+99

> <Gold.Protein.RotatedTorsions>
[ 6907 6896 6895 6894 ] final -144.53 input  -60.11 | X-H torsion
[ 7974 7965 7964 7962 ] final  -24.28 input  175.53 | X-H torsion
[ 8008 7997 7996 7995 ] final  -22.35 input   59.86 | X-H torsion
[ 10167 10162 10161 10158 ] final -126.63 input  -65.29 | X-H torsion
[ 10718 10713 10712 10709 ] final  142.60 input   66.30 | X-H torsion
[ 10763 10752 10751 10750 ] final    3.56 input  -60.55 | X-H torsion
[ 11005 11000 10999 10996 ] final   83.54 input  -57.11 | X-H torsion

> <Gold.Protein.ActiveResidues>
 VAL166  LYS551  ARG553  GLY616  TRP617  ASP618  TYR619  PRO620  LYS621  CYS622 
 ASP623  PHE694  ASN695  SER759  ASP760  ASP761  ALA762  ILE779  LEU786  VAL792 
 PHE793  MET794  SER795  GLU796  ALA797  LYS798  CYS799  TRP800  GLU811  SER814 

> <Gold.Protein.RotatedAtoms>
  151.1153  133.5143  159.2603 H   0  0  0  0  0  0  0  0  0  0  0  0  # atno 6907 bound_to 6896
  151.1921  135.0406  159.8847 H   0  0  0  0  0  0  0  0  0  0  0  0  # atno 6908 bound_to 6896
  152.5452  134.0992  159.8364 H   0  0  0  0  0  0  0  0  0  0  0  0  # atno 6909 bound_to 6896
  146.1564  140.4730  142.8589 H   0  0  0  0  0  0  0  0  0  0  0  0  # atno 7974 bound_to 7965
  154.4649  140.2010  156.0144 H   0  0  0  0  0  0  0  0  0  0  0  0  # atno 8008 bound_to 7997
  156.0909  140.3258  155.7786 H   0  0  0  0  0  0  0  0  0  0  0  0  # atno 8009 bound_to 7997
  155.4958  140.0550  157.2937 H   0  0  0  0  0  0  0  0  0  0  0  0  # atno 8010 bound_to 7997
  139.9694  143.5862  152.2418 H   0  0  0  0  0  0  0  0  0  0  0  0  # atno 10167 bound_to 10162
  157.3787  131.0989  151.0759 H   0  0  0  0  0  0  0  0  0  0  0  0  # atno 10718 bound_to 10713
  153.2819  135.6941  153.7377 H   0  0  0  0  0  0  0  0  0  0  0  0  # atno 10763 bound_to 10752
  153.6361  135.3401  155.3058 H   0  0  0  0  0  0  0  0  0  0  0  0  # atno 10764 bound_to 10752
  154.8498  135.4420  154.1875 H   0  0  0  0  0  0  0  0  0  0  0  0  # atno 10765 bound_to 10752
  139.9028  134.8152  156.2323 H   0  0  0  0  0  0  0  0  0  0  0  0  # atno 11005 bound_to 11000
  144.7969  140.6140  143.6504 LP  0  0  0  0  0  0  0  0  0  0  0  0  # atno 17320 bound_to 7965
  145.4697  139.1504  143.3821 LP  0  0  0  0  0  0  0  0  0  0  0  0  # atno 17321 bound_to 7965
  139.6493  144.7660  151.2181 LP  0  0  0  0  0  0  0  0  0  0  0  0  # atno 17342 bound_to 10162
  140.7527  143.6187  150.8534 LP  0  0  0  0  0  0  0  0  0  0  0  0  # atno 17343 bound_to 10162
  157.1836  130.6320  149.5680 LP  0  0  0  0  0  0  0  0  0  0  0  0  # atno 17370 bound_to 10713
  155.9771  130.4745  150.6571 LP  0  0  0  0  0  0  0  0  0  0  0  0  # atno 17371 bound_to 10713
  141.0337  133.6974  156.1475 LP  0  0  0  0  0  0  0  0  0  0  0  0  # atno 17394 bound_to 11000
  140.7058  134.4515  157.5584 LP  0  0  0  0  0  0  0  0  0  0  0  0  # atno 17395 bound_to 11000

$$$$
