AV-unprocessed.smi:1766|AV-procd|sdf|7135|dock5
  -GOLD-   22720 8373D 1   1.00000     0.00000
 Structure written by MMmdl.
 39 41  0  0  0  0  0  0  0  0  1 V2000
  149.5384  139.7994  154.0123 N   0  0  0  0  0  0  0  0  0  0  0  0
  150.5235  139.8905  154.9103 C   0  0  0  0  0  0  0  0  0  0  0  0
  151.6952  140.0655  154.5828 O   0  0  0  0  0  0  0  0  0  0  0  0
  150.1379  139.7829  156.3889 C   0  0  0  0  0  0  0  0  0  0  0  0
  150.7384  140.9442  157.1315 C   0  0  0  0  0  0  0  0  0  0  0  0
  150.5686  142.2020  156.7176 N   0  0  0  0  0  0  0  0  0  0  0  0
  151.2734  142.9311  157.6547 C   0  0  0  0  0  0  0  0  0  0  0  0
  151.4754  144.3251  157.7720 C   0  0  0  0  0  0  0  0  0  0  0  0
  152.2472  144.8477  158.8305 C   0  0  0  0  0  0  0  0  0  0  0  0
  152.8264  143.9862  159.7847 C   0  0  0  0  0  0  0  0  0  0  0  0
  152.6370  142.5943  159.6861 C   0  0  0  0  0  0  0  0  0  0  0  0
  151.8657  142.0780  158.6277 C   0  0  0  0  0  0  0  0  0  0  0  0
  151.4966  140.7914  158.2490 N   0  0  0  0  0  0  0  0  0  0  0  0
  151.8703  139.5636  158.9394 C   0  0  0  0  0  0  0  0  0  0  0  0
  153.3947  139.4278  159.1247 C   0  0  2  0  0  0  0  0  0  0  0  0
  153.9790  138.8767  157.9602 O   0  0  0  0  0  0  0  0  0  0  0  0
  153.7298  138.6204  160.3689 C   0  0  0  0  0  0  0  0  0  0  0  0
  153.2822  137.2871  160.4883 C   0  0  0  0  0  0  0  0  0  0  0  0
  153.5942  136.5335  161.6368 C   0  0  0  0  0  0  0  0  0  0  0  0
  154.3580  137.1076  162.6710 C   0  0  0  0  0  0  0  0  0  0  0  0
  154.6571  136.3828  163.7749 F   0  0  0  0  0  0  0  0  0  0  0  0
  154.8116  138.4356  162.5553 C   0  0  0  0  0  0  0  0  0  0  0  0
  154.4995  139.1898  161.4074 C   0  0  0  0  0  0  0  0  0  0  0  0
  149.7510  139.8553  153.0268 H   0  0  0  0  0  0  0  0  0  0  0  0
  148.5863  139.6652  154.3211 H   0  0  0  0  0  0  0  0  0  0  0  0
  149.0544  139.7644  156.5057 H   0  0  0  0  0  0  0  0  0  0  0  0
  150.5151  138.8478  156.8054 H   0  0  0  0  0  0  0  0  0  0  0  0
  151.0364  144.9931  157.0460 H   0  0  0  0  0  0  0  0  0  0  0  0
  152.3956  145.9146  158.9102 H   0  0  0  0  0  0  0  0  0  0  0  0
  153.4163  144.3946  160.5922 H   0  0  0  0  0  0  0  0  0  0  0  0
  153.0798  141.9311  160.4144 H   0  0  0  0  0  0  0  0  0  0  0  0
  151.3793  139.5652  159.9132 H   0  0  0  0  0  0  0  0  0  0  0  0
  151.4688  138.7029  158.4065 H   0  0  0  0  0  0  0  0  0  0  0  0
  153.8213  140.4250  159.2407 H   0  0  0  0  0  0  0  0  0  0  0  0
  154.6286  138.2423  158.2224 H   0  0  0  0  0  0  0  0  0  0  0  0
  152.6983  136.8358  159.6994 H   0  0  0  0  0  0  0  0  0  0  0  0
  153.2482  135.5141  161.7240 H   0  0  0  0  0  0  0  0  0  0  0  0
  155.4004  138.8758  163.3464 H   0  0  0  0  0  0  0  0  0  0  0  0
  154.8545  140.2069  161.3252 H   0  0  0  0  0  0  0  0  0  0  0  0
  1  2  1  0  0  0  0
  1 24  1  0  0  0  0
  1 25  1  0  0  0  0
  2  3  2  0  0  0  0
  2  4  1  0  0  0  0
  4  5  1  0  0  0  0
  4 26  1  0  0  0  0
  4 27  1  0  0  0  0
  5 13  1  0  0  0  0
  5  6  2  0  0  0  0
  6  7  1  0  0  0  0
  7 12  2  0  0  0  0
  7  8  1  0  0  0  0
  8  9  2  0  0  0  0
  8 28  1  0  0  0  0
  9 10  1  0  0  0  0
  9 29  1  0  0  0  0
 10 11  2  0  0  0  0
 10 30  1  0  0  0  0
 11 12  1  0  0  0  0
 11 31  1  0  0  0  0
 12 13  1  0  0  0  0
 13 14  1  0  0  0  0
 14 15  1  0  0  0  0
 14 32  1  0  0  0  0
 14 33  1  0  0  0  0
 15 16  1  0  0  0  0
 15 17  1  0  0  0  0
 15 34  1  0  0  0  0
 16 35  1  0  0  0  0
 17 23  1  0  0  0  0
 17 18  2  0  0  0  0
 18 19  1  0  0  0  0
 18 36  1  0  0  0  0
 19 20  2  0  0  0  0
 19 37  1  0  0  0  0
 20 21  1  0  0  0  0
 20 22  1  0  0  0  0
 22 23  2  0  0  0  0
 22 38  1  0  0  0  0
 23 39  1  0  0  0  0
M  END
> <s_m_source_file>
AV-unprocessed.smi

> <i_m_source_file_index>
1766

> <i_lp_mmshare_version>
43012

> <i_f3d_flags>
0

> <s_epik_input>
W2NIXTFbY0hdW2NIXVtjSF1jKGMxMiluKGMobjIpW0NIMl1DKD1PKVtOSDJdKVtDSDJdW0NASF0oW09IXSljM1tjSF1bY0hdYyhGKVtjSF1bY0hdMw==

> <s_epik_cmdline>
J2VwaWtfcHl0aG9uJywgJy1waCcsICc3LjAnLCAnLXRuJywgJzgnLCAnLW1hJywgJzIwMCcsICctbWV0YWxfYmluZGluZycsICctaW1hZScsICc8aW5maWxlLm1hZT4nLCAnLW9tYWUnLCAnPG91dGZpbGUubWFlPic=

> <r_epik_Ionization_Penalty>
0.0366901

> <r_epik_Ionization_Penalty_Charging>
0

> <r_epik_Ionization_Penalty_Neutral>
0.0366901

> <r_epik_State_Penalty>
0.0306642

> <r_epik_Charging_Adjusted_Penalty>
0.0306642

> <i_epik_Tot_Q>
0

> <i_epik_Tot_abs_Q>
0

> <r_epik_Metal_State_Penalty>
0.028853

> <b_epik_Metal_Only>
0

> <s_lp_Force_Field>
OPLS_2005

> <r_lp_Energy>
12.4574

> <b_lp_Chiralities_Consistent>
1

> <s_lp_Variant>
AV-unprocessed.smi:1766-1

> <Gold.Version>
5.8.1

> <Gold.Id.Protein>
6NUR|6NUR_protein|mol2

> <Gold.PLP.Fitness>
57.1221

> <Gold.PLP.PLP>
-49.2974

> <Gold.PLP.part.hbond>
-2.8895

> <Gold.PLP.part.metal>
0.0000

> <Gold.PLP.part.buried>
-5.4405

> <Gold.PLP.part.nonpolar>
-41.6103

> <Gold.PLP.part.repulsive>
0.2825

> <Gold.PLP.ligand.clash>
0.0000

> <Gold.PLP.ligand.torsion>
0.5062

> <Gold.PLP.Chemscore.Hbond>
2.9188

> <Gold.PLP.Chemscore.CHOScore>
0.0000

> <Gold.PLP.Chemscore.Metal>
0.0000

> <Gold.Chemscore.Hbonds>
donor molecule, donor type, donor heavy atom, donor atom, acceptor molecule, acceptor atom, score
      L1  H     1    24       P1  7957  1.00
      P1  H  7989  7998       L1     3  0.54
      P1  H  7997  8010       L1    16  1.00

> <Gold.PLP.Chemscore.Internal.Correction>
0.0810

> <Gold.Rescore>
     Score         DG    S(hbond)    S(metal)    S(lipo)     H(rot)  DE(clash)    DE(int)     intcor
     18.40     -20.54       2.54        0.00     121.62       2.99       0.20       1.95       ----

> <Gold.Chemscore.Fitness>
18.3963

> <Gold.Chemscore.DG>
-20.5417

> <Gold.Chemscore.ZeroCoef>
-5.4800

> <Gold.Chemscore.Hbond>
2.5382

> <Gold.Chemscore.Metal>
0.0000

> <Gold.Chemscore.Lipo>
121.6162

> <Gold.Chemscore.Internal_Hbond>
0.0000

> <Gold.Chemscore.DEClash>
0.2000

> <Gold.Chemscore.DEInternal>
1.9454

> <Gold.Chemscore.Rot>
2.9864

> <Gold.Chemscore.Internal.Correction>
   9.000000E+99

> <Gold.Chemscore.Hbonds>
donor molecule, donor type, donor heavy atom, donor atom, acceptor molecule, acceptor atom, score
      L1  H     1    24       P1  7957  1.00
      P1  H  7989  7998       L1     3  0.28
      P1  H  7997  8010       L1    16  0.46

> <Gold.Chemscore.Hbond.Weighted>
-8.4777

> <Gold.Chemscore.Metal.Weighted>
-0.0000

> <Gold.Chemscore.Lipo.Weighted>
-14.2291

> <Gold.Chemscore.Internal_Hbond.Weighted>
0.0000

> <Gold.Chemscore.DEClash.Weighted>
0.2000

> <Gold.Chemscore.DEInternal.Weighted>
1.9454

> <Gold.Chemscore.Rot.Weighted>
7.6451

> <Gold.Chemscore.Internal.Correction.Weighted>
   9.000000E+99

> <Gold.Protein.RotatedTorsions>
[ 6907 6896 6895 6894 ] final  126.74 input  -60.11 | X-H torsion
[ 7974 7965 7964 7962 ] final -120.11 input  175.53 | X-H torsion
[ 8008 7997 7996 7995 ] final   25.06 input   59.86 | X-H torsion
[ 10167 10162 10161 10158 ] final -167.37 input  -65.29 | X-H torsion
[ 10718 10713 10712 10709 ] final  -72.27 input   66.30 | X-H torsion
[ 10763 10752 10751 10750 ] final  -17.40 input  -60.55 | X-H torsion
[ 11005 11000 10999 10996 ] final   27.99 input  -57.11 | X-H torsion

> <Gold.Protein.ActiveResidues>
 VAL166  LYS551  ARG553  GLY616  TRP617  ASP618  TYR619  PRO620  LYS621  CYS622 
 ASP623  PHE694  ASN695  SER759  ASP760  ASP761  ALA762  ILE779  LEU786  VAL792 
 PHE793  MET794  SER795  GLU796  ALA797  LYS798  CYS799  TRP800  GLU811  SER814 

> <Gold.Protein.RotatedAtoms>
  152.3876  133.6633  159.6210 H   0  0  0  0  0  0  0  0  0  0  0  0  # atno 6907 bound_to 6896
  150.7791  133.9009  159.3350 H   0  0  0  0  0  0  0  0  0  0  0  0  # atno 6908 bound_to 6896
  151.6802  135.0964  160.0266 H   0  0  0  0  0  0  0  0  0  0  0  0  # atno 6909 bound_to 6896
  145.0550  140.8247  143.4186 H   0  0  0  0  0  0  0  0  0  0  0  0  # atno 7974 bound_to 7965
  155.0060  140.3131  155.4848 H   0  0  0  0  0  0  0  0  0  0  0  0  # atno 8008 bound_to 7997
  156.2917  140.2223  156.5113 H   0  0  0  0  0  0  0  0  0  0  0  0  # atno 8009 bound_to 7997
  154.7577  140.0461  157.0935 H   0  0  0  0  0  0  0  0  0  0  0  0  # atno 8010 bound_to 7997
  139.6053  144.0925  152.1787 H   0  0  0  0  0  0  0  0  0  0  0  0  # atno 10167 bound_to 10162
  156.0327  130.4369  150.2568 H   0  0  0  0  0  0  0  0  0  0  0  0  # atno 10718 bound_to 10713
  153.5733  135.7007  153.5495 H   0  0  0  0  0  0  0  0  0  0  0  0  # atno 10763 bound_to 10752
  153.3325  135.4043  155.1507 H   0  0  0  0  0  0  0  0  0  0  0  0  # atno 10764 bound_to 10752
  154.8629  135.3722  154.5257 H   0  0  0  0  0  0  0  0  0  0  0  0  # atno 10765 bound_to 10752
  140.3204  134.2550  155.7718 H   0  0  0  0  0  0  0  0  0  0  0  0  # atno 11005 bound_to 11000
  145.1480  139.2532  143.5456 LP  0  0  0  0  0  0  0  0  0  0  0  0  # atno 17320 bound_to 7965
  146.3520  140.1175  142.8601 LP  0  0  0  0  0  0  0  0  0  0  0  0  # atno 17321 bound_to 7965
  140.0531  144.5917  150.7321 LP  0  0  0  0  0  0  0  0  0  0  0  0  # atno 17342 bound_to 10162
  140.7280  143.2658  151.4051 LP  0  0  0  0  0  0  0  0  0  0  0  0  # atno 17343 bound_to 10162
  157.0669  131.0106  151.3203 LP  0  0  0  0  0  0  0  0  0  0  0  0  # atno 17370 bound_to 10713
  157.5028  130.7891  149.7623 LP  0  0  0  0  0  0  0  0  0  0  0  0  # atno 17371 bound_to 10713
  141.2088  133.7768  157.0038 LP  0  0  0  0  0  0  0  0  0  0  0  0  # atno 17394 bound_to 11000
  140.0947  134.9571  157.1830 LP  0  0  0  0  0  0  0  0  0  0  0  0  # atno 17395 bound_to 11000

$$$$
