AV-unprocessed.smi:3117|AV-procd|sdf|11879|dock6
  -GOLD-   2272017263D 1   1.00000     0.00000
 Structure written by MMmdl.
 37 37  0  0  0  0  0  0  0  0  2 V2000
  150.8875  140.7567  157.8914 C   0  0  0  0  0  0  0  0  0  0  0  0
  150.8490  142.2261  157.4337 C   0  0  1  0  0  0  0  0  0  0  0  0
  149.6335  142.4383  156.6161 N   0  3  0  0  0  0  0  0  0  0  0  0
  149.5084  141.5462  155.4425 C   0  0  0  0  0  0  0  0  0  0  0  0
  148.1136  141.6309  154.7873 C   0  0  0  0  0  0  0  0  0  0  0  0
  147.9670  140.5475  153.7057 C   0  0  0  0  0  0  0  0  0  0  0  0
  146.9731  141.5157  155.8154 C   0  0  0  0  0  0  0  0  0  0  0  0
  148.0064  142.8804  154.1327 O   0  0  0  0  0  0  0  0  0  0  0  0
  150.8933  143.2305  158.6172 C   0  0  2  0  0  0  0  0  0  0  0  0
  151.1141  144.6867  158.1636 C   0  0  0  0  0  0  0  0  0  0  0  0
  151.8973  142.8607  159.6075 N   0  0  0  0  0  0  0  0  0  0  0  0
  153.2350  142.5861  159.4089 C   0  0  0  0  0  0  0  0  0  0  0  0
  153.7768  142.2896  160.6269 C   0  0  0  0  0  0  0  0  0  0  0  0
  152.6783  142.4062  161.5233 C   0  0  0  0  0  0  0  0  0  0  0  0
  151.5561  142.7480  160.9113 N   0  0  0  0  0  0  0  0  0  0  0  0
  151.8141  140.5177  158.4135 H   0  0  0  0  0  0  0  0  0  0  0  0
  150.8202  140.0803  157.0386 H   0  0  0  0  0  0  0  0  0  0  0  0
  150.0588  140.5283  158.5625 H   0  0  0  0  0  0  0  0  0  0  0  0
  151.7289  142.3872  156.8079 H   0  0  0  0  0  0  0  0  0  0  0  0
  148.8248  142.2949  157.2035 H   0  0  0  0  0  0  0  0  0  0  0  0
  150.2773  141.8059  154.7134 H   0  0  0  0  0  0  0  0  0  0  0  0
  149.7089  140.5215  155.7591 H   0  0  0  0  0  0  0  0  0  0  0  0
  148.0376  139.5481  154.1368 H   0  0  0  0  0  0  0  0  0  0  0  0
  148.7453  140.6328  152.9462 H   0  0  0  0  0  0  0  0  0  0  0  0
  147.0041  140.6174  153.1980 H   0  0  0  0  0  0  0  0  0  0  0  0
  147.0244  140.5690  156.3543 H   0  0  0  0  0  0  0  0  0  0  0  0
  145.9970  141.5633  155.3308 H   0  0  0  0  0  0  0  0  0  0  0  0
  147.0071  142.3174  156.5536 H   0  0  0  0  0  0  0  0  0  0  0  0
  148.5600  143.5036  154.5790 H   0  0  0  0  0  0  0  0  0  0  0  0
  149.9280  143.1907  159.1249 H   0  0  0  0  0  0  0  0  0  0  0  0
  150.2943  145.0413  157.5385 H   0  0  0  0  0  0  0  0  0  0  0  0
  152.0370  144.7930  157.5928 H   0  0  0  0  0  0  0  0  0  0  0  0
  151.1763  145.3573  159.0212 H   0  0  0  0  0  0  0  0  0  0  0  0
  153.6870  142.6251  158.4288 H   0  0  0  0  0  0  0  0  0  0  0  0
  154.8016  142.0277  160.8448 H   0  0  0  0  0  0  0  0  0  0  0  0
  152.6624  142.2544  162.5925 H   0  0  0  0  0  0  0  0  0  0  0  0
  149.6269  143.3952  156.2922 H   0  0  0  0  0  0  0  0  0  0  0  0
  1  2  1  0  0  0  0
  1 16  1  0  0  0  0
  1 17  1  0  0  0  0
  1 18  1  0  0  0  0
  2  3  1  0  0  0  0
  2  9  1  0  0  0  0
  2 19  1  0  0  0  0
  3  4  1  0  0  0  0
  3 20  1  0  0  0  0
  3 37  1  0  0  0  0
  4  5  1  0  0  0  0
  4 21  1  0  0  0  0
  4 22  1  0  0  0  0
  5  6  1  0  0  0  0
  5  7  1  0  0  0  0
  5  8  1  0  0  0  0
  6 23  1  0  0  0  0
  6 24  1  0  0  0  0
  6 25  1  0  0  0  0
  7 26  1  0  0  0  0
  7 27  1  0  0  0  0
  7 28  1  0  0  0  0
  8 29  1  0  0  0  0
  9 10  1  0  0  0  0
  9 11  1  0  0  0  0
  9 30  1  0  0  0  0
 10 31  1  0  0  0  0
 10 32  1  0  0  0  0
 10 33  1  0  0  0  0
 11 15  1  0  0  0  0
 11 12  1  0  0  0  0
 12 13  2  0  0  0  0
 12 34  1  0  0  0  0
 13 14  1  0  0  0  0
 13 35  1  0  0  0  0
 14 15  2  0  0  0  0
 14 36  1  0  0  0  0
M  CHG  1   3   1
M  END
> <s_m_source_file>
AV-unprocessed.smi

> <i_m_source_file_index>
3117

> <i_lp_mmshare_version>
43012

> <i_f3d_flags>
0

> <s_epik_input>
W0NIM11DKFtDSDNdKShbT0hdKVtDSDJdW05IXVtDQEBIXShbQ0gzXSlbQ0BIXShbQ0gzXSluMVtjSF1bY0hdW2NIXW4x

> <s_epik_cmdline>
J2VwaWtfcHl0aG9uJywgJy1waCcsICc3LjAnLCAnLXRuJywgJzgnLCAnLW1hJywgJzIwMCcsICctbWV0YWxfYmluZGluZycsICctaW1hZScsICc8aW5maWxlLm1hZT4nLCAnLW9tYWUnLCAnPG91dGZpbGUubWFlPic=

> <r_lp_tautomer_probability>
1

> <r_epik_Ionization_Penalty>
0.0164263

> <r_epik_Ionization_Penalty_Charging>
0.0164138

> <r_epik_Ionization_Penalty_Neutral>
1.24697e-05

> <r_epik_State_Penalty>
0.0129543

> <r_epik_Charging_Adjusted_Penalty>
0.0293681

> <i_epik_Tot_Q>
1

> <i_epik_Tot_abs_Q>
1

> <r_epik_Metal_State_Penalty>
0.0129806

> <b_epik_Metal_Only>
0

> <s_lp_Force_Field>
OPLS_2005

> <r_lp_Energy>
13.915

> <b_lp_Chiralities_Consistent>
1

> <s_lp_Variant>
AV-unprocessed.smi:3117-2

> <Gold.Version>
5.8.1

> <Gold.Id.Protein>
6NUR|6NUR_protein|mol2

> <Gold.PLP.Fitness>
45.0832

> <Gold.PLP.PLP>
-36.4113

> <Gold.PLP.part.hbond>
-4.8822

> <Gold.PLP.part.metal>
0.0000

> <Gold.PLP.part.buried>
-2.0623

> <Gold.PLP.part.nonpolar>
-29.6182

> <Gold.PLP.part.repulsive>
0.1287

> <Gold.PLP.ligand.clash>
0.0000

> <Gold.PLP.ligand.torsion>
0.4803

> <Gold.PLP.Chemscore.Hbond>
3.1778

> <Gold.PLP.Chemscore.CHOScore>
0.0000

> <Gold.PLP.Chemscore.Metal>
0.0000

> <Gold.Chemscore.Hbonds>
donor molecule, donor type, donor heavy atom, donor atom, acceptor molecule, acceptor atom, score
      L1  H     3    37       P1  8028  2.00
      L1  H     8    29       P1  8028  1.00
      P1  H  6933  6945       L1    15  0.15

> <Gold.PLP.Chemscore.Internal.Correction>
0.0989

> <Gold.Rescore>
     Score         DG    S(hbond)    S(metal)    S(lipo)     H(rot)  DE(clash)    DE(int)     intcor
     16.73     -17.15       2.03        0.00      91.59       2.27       0.21       0.21       ----

> <Gold.Chemscore.Fitness>
16.7307

> <Gold.Chemscore.DG>
-17.1525

> <Gold.Chemscore.ZeroCoef>
-5.4800

> <Gold.Chemscore.Hbond>
2.0283

> <Gold.Chemscore.Metal>
0.0000

> <Gold.Chemscore.Lipo>
91.5868

> <Gold.Chemscore.Internal_Hbond>
0.0000

> <Gold.Chemscore.DEClash>
0.2079

> <Gold.Chemscore.DEInternal>
0.2140

> <Gold.Chemscore.Rot>
2.2725

> <Gold.Chemscore.Internal.Correction>
   9.000000E+99

> <Gold.Chemscore.Hbonds>
donor molecule, donor type, donor heavy atom, donor atom, acceptor molecule, acceptor atom, score
      L1  H     3    37       P1  8028  0.97
      L1  H     8    29       P1  8028  0.97
      P1  H  6933  6945       L1    15  0.04

> <Gold.Chemscore.Hbond.Weighted>
-6.7745

> <Gold.Chemscore.Metal.Weighted>
-0.0000

> <Gold.Chemscore.Lipo.Weighted>
-10.7157

> <Gold.Chemscore.Internal_Hbond.Weighted>
0.0000

> <Gold.Chemscore.DEClash.Weighted>
0.2079

> <Gold.Chemscore.DEInternal.Weighted>
0.2140

> <Gold.Chemscore.Rot.Weighted>
5.8176

> <Gold.Chemscore.Internal.Correction.Weighted>
   9.000000E+99

> <Gold.Protein.RotatedTorsions>
[ 6907 6896 6895 6894 ] final   29.07 input  -60.11 | X-H torsion
[ 7974 7965 7964 7962 ] final  165.73 input  175.53 | X-H torsion
[ 8008 7997 7996 7995 ] final  -90.50 input   59.86 | X-H torsion
[ 10167 10162 10161 10158 ] final -149.40 input  -65.29 | X-H torsion
[ 10718 10713 10712 10709 ] final  -88.26 input   66.30 | X-H torsion
[ 10763 10752 10751 10750 ] final  122.57 input  -60.55 | X-H torsion
[ 11005 11000 10999 10996 ] final  123.17 input  -57.11 | X-H torsion

> <Gold.Protein.ActiveResidues>
 VAL166  LYS551  ARG553  GLY616  TRP617  ASP618  TYR619  PRO620  LYS621  CYS622 
 ASP623  PHE694  ASN695  SER759  ASP760  ASP761  ALA762  ILE779  LEU786  VAL792 
 PHE793  MET794  SER795  GLU796  ALA797  LYS798  CYS799  TRP800  GLU811  SER814 

> <Gold.Protein.RotatedAtoms>
  152.0261  134.9795  160.0571 H   0  0  0  0  0  0  0  0  0  0  0  0  # atno 6907 bound_to 6896
  152.1290  133.4392  159.4720 H   0  0  0  0  0  0  0  0  0  0  0  0  # atno 6908 bound_to 6896
  150.6854  134.2362  159.4497 H   0  0  0  0  0  0  0  0  0  0  0  0  # atno 6909 bound_to 6896
  144.7491  139.8512  143.6372 H   0  0  0  0  0  0  0  0  0  0  0  0  # atno 7974 bound_to 7965
  154.6994  140.0529  157.0442 H   0  0  0  0  0  0  0  0  0  0  0  0  # atno 8008 bound_to 7997
  155.0706  140.3199  155.4613 H   0  0  0  0  0  0  0  0  0  0  0  0  # atno 8009 bound_to 7997
  156.2755  140.2082  156.5834 H   0  0  0  0  0  0  0  0  0  0  0  0  # atno 8010 bound_to 7997
  139.7446  143.8611  152.2571 H   0  0  0  0  0  0  0  0  0  0  0  0  # atno 10167 bound_to 10162
  155.9984  130.4829  150.4993 H   0  0  0  0  0  0  0  0  0  0  0  0  # atno 10718 bound_to 10713
  153.6319  135.3394  155.3044 H   0  0  0  0  0  0  0  0  0  0  0  0  # atno 10763 bound_to 10752
  154.8578  135.4297  154.2097 H   0  0  0  0  0  0  0  0  0  0  0  0  # atno 10764 bound_to 10752
  153.2994  135.7023  153.7290 H   0  0  0  0  0  0  0  0  0  0  0  0  # atno 10765 bound_to 10752
  139.9301  134.9641  156.8219 H   0  0  0  0  0  0  0  0  0  0  0  0  # atno 11005 bound_to 11000
  146.1414  139.4472  143.0106 LP  0  0  0  0  0  0  0  0  0  0  0  0  # atno 17320 bound_to 7965
  145.7012  141.0135  143.1503 LP  0  0  0  0  0  0  0  0  0  0  0  0  # atno 17321 bound_to 7965
  139.8571  144.7136  150.9144 LP  0  0  0  0  0  0  0  0  0  0  0  0  # atno 17342 bound_to 10162
  140.7790  143.3849  151.1411 LP  0  0  0  0  0  0  0  0  0  0  0  0  # atno 17343 bound_to 10162
  157.2979  131.0639  151.2089 LP  0  0  0  0  0  0  0  0  0  0  0  0  # atno 17370 bound_to 10713
  157.3078  130.6875  149.6199 LP  0  0  0  0  0  0  0  0  0  0  0  0  # atno 17371 bound_to 10713
  140.6227  133.9979  155.7625 LP  0  0  0  0  0  0  0  0  0  0  0  0  # atno 17394 bound_to 11000
  141.0884  133.9955  157.3277 LP  0  0  0  0  0  0  0  0  0  0  0  0  # atno 17395 bound_to 11000

$$$$
