AV-unprocessed.smi:613|AV-procd|sdf|3067|dock7
  -GOLD-   2262023593D 1   1.00000     0.00000
 Structure written by MMmdl.
 39 40  0  0  0  0  0  0  0  0  2 V2000
  150.7228  139.9826  157.5325 C   0  0  0  0  0  0  0  0  0  0  0  0
  151.0146  141.3132  157.0132 N   0  0  0  0  0  0  0  0  0  0  0  0
  150.6102  141.6359  155.6427 C   0  0  0  0  0  0  0  0  0  0  0  0
  149.1397  141.2828  155.3424 C   0  0  1  0  0  0  0  0  0  0  0  0
  148.1385  141.9422  156.3155 C   0  0  0  0  0  0  0  0  0  0  0  0
  146.7449  141.6882  155.9418 N   0  0  0  0  0  0  0  0  0  0  0  0
  145.7657  142.3079  156.8456 C   0  0  0  0  0  0  0  0  0  0  0  0
  146.2042  142.3607  158.3139 C   0  0  0  0  0  0  0  0  0  0  0  0
  146.7748  143.4916  158.7353 N   0  0  0  0  0  0  0  0  0  0  0  0
  146.0220  141.3976  159.0559 O   0  0  0  0  0  0  0  0  0  0  0  0
  146.5275  142.0975  154.5576 C   0  0  0  0  0  0  0  0  0  0  0  0
  147.5297  141.4336  153.5995 C   0  0  0  0  0  0  0  0  0  0  0  0
  148.8569  141.7311  154.0200 O   0  0  0  0  0  0  0  0  0  0  0  0
  151.3801  142.3360  157.9207 C   0  0  0  0  0  0  0  0  0  0  0  0
  152.1801  142.0995  159.0657 C   0  0  0  0  0  0  0  0  0  0  0  0
  152.4774  143.1750  159.9197 C   0  0  0  0  0  0  0  0  0  0  0  0
  151.9601  144.4364  159.5822 C   0  0  0  0  0  0  0  0  0  0  0  0
  151.2054  144.6541  158.4840 N   0  0  0  0  0  0  0  0  0  0  0  0
  150.9414  143.6038  157.6883 N   0  3  0  0  0  0  0  0  0  0  0  0
  151.6024  139.5562  158.0155 H   0  0  0  0  0  0  0  0  0  0  0  0
  150.4259  139.3069  156.7298 H   0  0  0  0  0  0  0  0  0  0  0  0
  149.9072  140.0200  158.2552 H   0  0  0  0  0  0  0  0  0  0  0  0
  150.8098  142.6782  155.3944 H   0  0  0  0  0  0  0  0  0  0  0  0
  151.2500  141.0594  154.9736 H   0  0  0  0  0  0  0  0  0  0  0  0
  149.0163  140.1986  155.3692 H   0  0  0  0  0  0  0  0  0  0  0  0
  148.3349  141.5575  157.3152 H   0  0  0  0  0  0  0  0  0  0  0  0
  148.3188  143.0181  156.3521 H   0  0  0  0  0  0  0  0  0  0  0  0
  145.5430  143.3237  156.5140 H   0  0  0  0  0  0  0  0  0  0  0  0
  144.8220  141.7618  156.7972 H   0  0  0  0  0  0  0  0  0  0  0  0
  147.0740  143.5770  159.6960 H   0  0  0  0  0  0  0  0  0  0  0  0
  146.8989  144.2609  158.0933 H   0  0  0  0  0  0  0  0  0  0  0  0
  145.5135  141.8408  154.2480 H   0  0  0  0  0  0  0  0  0  0  0  0
  146.6132  143.1821  154.4710 H   0  0  0  0  0  0  0  0  0  0  0  0
  147.3818  140.3530  153.5712 H   0  0  0  0  0  0  0  0  0  0  0  0
  147.3862  141.8038  152.5841 H   0  0  0  0  0  0  0  0  0  0  0  0
  152.5636  141.1192  159.3054 H   0  0  0  0  0  0  0  0  0  0  0  0
  153.0794  143.0378  160.8058 H   0  0  0  0  0  0  0  0  0  0  0  0
  152.1578  145.2952  160.2066 H   0  0  0  0  0  0  0  0  0  0  0  0
  150.3689  143.7641  156.8595 H   0  0  0  0  0  0  0  0  0  0  0  0
  1  2  1  0  0  0  0
  1 20  1  0  0  0  0
  1 21  1  0  0  0  0
  1 22  1  0  0  0  0
  2  3  1  0  0  0  0
  2 14  1  0  0  0  0
  3  4  1  0  0  0  0
  3 23  1  0  0  0  0
  3 24  1  0  0  0  0
  4 13  1  0  0  0  0
  4  5  1  0  0  0  0
  4 25  1  0  0  0  0
  5  6  1  0  0  0  0
  5 26  1  0  0  0  0
  5 27  1  0  0  0  0
  6  7  1  0  0  0  0
  6 11  1  0  0  0  0
  7  8  1  0  0  0  0
  7 28  1  0  0  0  0
  7 29  1  0  0  0  0
  8  9  1  0  0  0  0
  8 10  2  0  0  0  0
  9 30  1  0  0  0  0
  9 31  1  0  0  0  0
 11 12  1  0  0  0  0
 11 32  1  0  0  0  0
 11 33  1  0  0  0  0
 12 13  1  0  0  0  0
 12 34  1  0  0  0  0
 12 35  1  0  0  0  0
 14 19  1  0  0  0  0
 14 15  2  0  0  0  0
 15 16  1  0  0  0  0
 15 36  1  0  0  0  0
 16 17  2  0  0  0  0
 16 37  1  0  0  0  0
 17 18  1  0  0  0  0
 17 38  1  0  0  0  0
 18 19  2  0  0  0  0
 19 39  1  0  0  0  0
M  CHG  1  19   1
M  END
> <s_m_source_file>
AV-unprocessed.smi

> <i_m_source_file_index>
613

> <i_lp_mmshare_version>
43012

> <i_f3d_flags>
0

> <s_epik_input>
bjFuW2NIXVtjSF1bY0hdYzFOKFtDSDNdKVtDSDJdW0NAQEhdMltDSDJdTihbQ0gyXVtDSDJdTzIpW0NIMl1DKD1PKVtOSDJd

> <s_epik_cmdline>
J2VwaWtfcHl0aG9uJywgJy1waCcsICc3LjAnLCAnLXRuJywgJzgnLCAnLW1hJywgJzIwMCcsICctbWV0YWxfYmluZGluZycsICctaW1hZScsICc8aW5maWxlLm1hZT4nLCAnLW9tYWUnLCAnPG91dGZpbGUubWFlPic=

> <r_lp_tautomer_probability>
0.966961

> <r_epik_Ionization_Penalty>
1.86301

> <r_epik_Ionization_Penalty_Charging>
1.86058

> <r_epik_Ionization_Penalty_Neutral>
0.00243207

> <r_epik_State_Penalty>
1.48112

> <r_epik_Charging_Adjusted_Penalty>
3.3417

> <i_epik_Tot_Q>
1

> <i_epik_Tot_abs_Q>
1

> <r_epik_Metal_State_Penalty>
1.50193

> <b_epik_Metal_Only>
0

> <s_lp_Force_Field>
OPLS_2005

> <r_lp_Energy>
27.4635

> <b_lp_Chiralities_Consistent>
1

> <s_lp_Variant>
AV-unprocessed.smi:613-4

> <Gold.Version>
5.8.1

> <Gold.Id.Protein>
6NUR|6NUR_protein|mol2

> <Gold.PLP.Fitness>
45.4326

> <Gold.PLP.PLP>
-33.9185

> <Gold.PLP.part.hbond>
-4.0000

> <Gold.PLP.part.metal>
0.0000

> <Gold.PLP.part.buried>
-3.1824

> <Gold.PLP.part.nonpolar>
-26.3684

> <Gold.PLP.part.repulsive>
0.5047

> <Gold.PLP.ligand.clash>
0.0000

> <Gold.PLP.ligand.torsion>
1.0368

> <Gold.PLP.Chemscore.Hbond>
4.4615

> <Gold.PLP.Chemscore.CHOScore>
0.0000

> <Gold.PLP.Chemscore.Metal>
0.0000

> <Gold.Chemscore.Hbonds>
donor molecule, donor type, donor heavy atom, donor atom, acceptor molecule, acceptor atom, score
      L1  H     9    31       P1  8029  0.84
      L1  H    19    39       P1  8028  1.56
      P1  H  6934  6946       L1    10  0.78
      P1  H  8011  8017       L1    13  0.55

> <Gold.PLP.Chemscore.Internal.Correction>
0.2031

> <Gold.Rescore>
     Score         DG    S(hbond)    S(metal)    S(lipo)     H(rot)  DE(clash)    DE(int)     intcor
     15.89     -17.47       2.89        0.00      69.01       2.23       0.73       0.85       ----

> <Gold.Chemscore.Fitness>
15.8939

> <Gold.Chemscore.DG>
-17.4699

> <Gold.Chemscore.ZeroCoef>
-5.4800

> <Gold.Chemscore.Hbond>
2.8852

> <Gold.Chemscore.Metal>
0.0000

> <Gold.Chemscore.Lipo>
69.0128

> <Gold.Chemscore.Internal_Hbond>
0.0000

> <Gold.Chemscore.DEClash>
0.7290

> <Gold.Chemscore.DEInternal>
0.8470

> <Gold.Chemscore.Rot>
2.2348

> <Gold.Chemscore.Internal.Correction>
   9.000000E+99

> <Gold.Chemscore.Hbonds>
donor molecule, donor type, donor heavy atom, donor atom, acceptor molecule, acceptor atom, score
      L1  H     9    31       P1  8029  0.36
      L1  H    19    39       P1  8028  0.76
      P1  H  6934  6946       L1    10  0.77
      P1  H  8011  8017       L1    13  0.26

> <Gold.Chemscore.Hbond.Weighted>
-9.6365

> <Gold.Chemscore.Metal.Weighted>
-0.0000

> <Gold.Chemscore.Lipo.Weighted>
-8.0745

> <Gold.Chemscore.Internal_Hbond.Weighted>
0.0000

> <Gold.Chemscore.DEClash.Weighted>
0.7290

> <Gold.Chemscore.DEInternal.Weighted>
0.8470

> <Gold.Chemscore.Rot.Weighted>
5.7211

> <Gold.Chemscore.Internal.Correction.Weighted>
   9.000000E+99

> <Gold.Protein.RotatedTorsions>
[ 6907 6896 6895 6894 ] final  102.67 input  -60.11 | X-H torsion
[ 7974 7965 7964 7962 ] final  -11.25 input  175.53 | X-H torsion
[ 8008 7997 7996 7995 ] final  -66.68 input   59.86 | X-H torsion
[ 10167 10162 10161 10158 ] final   42.28 input  -65.29 | X-H torsion
[ 10718 10713 10712 10709 ] final -116.40 input   66.30 | X-H torsion
[ 10763 10752 10751 10750 ] final  -36.97 input  -60.55 | X-H torsion
[ 11005 11000 10999 10996 ] final  170.67 input  -57.11 | X-H torsion

> <Gold.Protein.ActiveResidues>
 VAL166  LYS551  ARG553  GLY616  TRP617  ASP618  TYR619  PRO620  LYS621  CYS622 
 ASP623  PHE694  ASN695  SER759  ASP760  ASP761  ALA762  ILE779  LEU786  VAL792 
 PHE793  MET794  SER795  GLU796  ALA797  LYS798  CYS799  TRP800  GLU811  SER814 

> <Gold.Protein.RotatedAtoms>
  152.5317  133.9940  159.7863 H   0  0  0  0  0  0  0  0  0  0  0  0  # atno 6907 bound_to 6896
  151.0171  133.5903  159.2683 H   0  0  0  0  0  0  0  0  0  0  0  0  # atno 6908 bound_to 6896
  151.2956  135.0761  159.9273 H   0  0  0  0  0  0  0  0  0  0  0  0  # atno 6909 bound_to 6896
  146.2193  140.2884  142.8367 H   0  0  0  0  0  0  0  0  0  0  0  0  # atno 7974 bound_to 7965
  154.4750  140.0908  156.7239 H   0  0  0  0  0  0  0  0  0  0  0  0  # atno 8008 bound_to 7997
  155.4621  140.3461  155.4296 H   0  0  0  0  0  0  0  0  0  0  0  0  # atno 8009 bound_to 7997
  156.1102  140.1445  156.9338 H   0  0  0  0  0  0  0  0  0  0  0  0  # atno 8010 bound_to 7997
  140.3560  144.2289  150.6141 H   0  0  0  0  0  0  0  0  0  0  0  0  # atno 10167 bound_to 10162
  156.0961  130.6133  150.9031 H   0  0  0  0  0  0  0  0  0  0  0  0  # atno 10718 bound_to 10713
  153.8886  135.6814  153.4762 H   0  0  0  0  0  0  0  0  0  0  0  0  # atno 10763 bound_to 10752
  153.1193  135.4747  154.9167 H   0  0  0  0  0  0  0  0  0  0  0  0  # atno 10764 bound_to 10752
  154.7633  135.3217  154.8288 H   0  0  0  0  0  0  0  0  0  0  0  0  # atno 10765 bound_to 10752
  140.3108  134.7518  157.3990 H   0  0  0  0  0  0  0  0  0  0  0  0  # atno 11005 bound_to 11000
  144.9145  140.7796  143.5787 LP  0  0  0  0  0  0  0  0  0  0  0  0  # atno 17320 bound_to 7965
  145.2817  139.1916  143.4787 LP  0  0  0  0  0  0  0  0  0  0  0  0  # atno 17321 bound_to 7965
  140.5173  143.2275  151.8443 LP  0  0  0  0  0  0  0  0  0  0  0  0  # atno 17342 bound_to 10162
  139.4820  144.4879  151.9223 LP  0  0  0  0  0  0  0  0  0  0  0  0  # atno 17343 bound_to 10162
  157.6122  131.0935  150.8774 LP  0  0  0  0  0  0  0  0  0  0  0  0  # atno 17370 bound_to 10713
  156.8912  130.5213  149.5286 LP  0  0  0  0  0  0  0  0  0  0  0  0  # atno 17371 bound_to 10713
  140.1026  134.5452  155.8339 LP  0  0  0  0  0  0  0  0  0  0  0  0  # atno 17394 bound_to 11000
  141.2108  133.6699  156.6538 LP  0  0  0  0  0  0  0  0  0  0  0  0  # atno 17395 bound_to 11000

$$$$
