AV-unprocessed.smi:3140|AV-procd|sdf|11958|dock6
  -GOLD-   2272017353D 1   1.00000     0.00000
 Structure written by MMmdl.
 38 39  0  0  0  0  0  0  0  0  2 V2000
  150.4488  140.3686  157.1574 C   0  0  0  0  0  0  0  0  0  0  0  0
  149.6195  141.5052  156.5364 C   0  0  2  0  0  0  0  0  0  0  0  0
  149.7963  141.5363  155.0053 C   0  0  0  0  0  0  0  0  0  0  0  0
  148.8721  140.6476  154.3226 N   0  0  0  0  0  0  0  0  0  0  0  0
  148.9095  139.2715  154.2410 C   0  0  0  0  0  0  0  0  0  0  0  0
  147.8296  138.8790  153.5031 C   0  0  0  0  0  0  0  0  0  0  0  0
  147.1834  140.1024  153.1712 C   0  0  0  0  0  0  0  0  0  0  0  0
  147.8084  141.1592  153.6653 N   0  0  0  0  0  0  0  0  0  0  0  0
  149.9911  142.8147  157.1205 N   0  3  0  0  0  0  0  0  0  0  0  0
  151.4257  143.1582  157.0518 C   0  0  0  0  0  0  0  0  0  0  0  0
  151.7133  144.4489  157.8335 C   0  0  0  0  0  0  0  0  0  0  0  0
  151.9586  144.1768  159.2470 N   0  0  0  0  0  0  0  0  0  0  0  0
  152.5222  142.9077  159.6760 C   0  0  0  0  0  0  0  0  0  0  0  0
  152.8086  143.0875  161.1740 C   0  0  0  0  0  0  0  0  0  0  0  0
  152.0433  144.3465  161.5961 C   0  0  0  0  0  0  0  0  0  0  0  0
  151.6668  144.9872  160.2710 C   0  0  0  0  0  0  0  0  0  0  0  0
  151.1613  146.1055  160.1874 O   0  0  0  0  0  0  0  0  0  0  0  0
  150.1973  139.4095  156.7038 H   0  0  0  0  0  0  0  0  0  0  0  0
  150.2667  140.2717  158.2276 H   0  0  0  0  0  0  0  0  0  0  0  0
  151.5172  140.5323  157.0131 H   0  0  0  0  0  0  0  0  0  0  0  0
  148.5652  141.3191  156.7475 H   0  0  0  0  0  0  0  0  0  0  0  0
  149.6673  142.5492  154.6195 H   0  0  0  0  0  0  0  0  0  0  0  0
  150.8092  141.2310  154.7387 H   0  0  0  0  0  0  0  0  0  0  0  0
  149.6915  138.6921  154.7098 H   0  0  0  0  0  0  0  0  0  0  0  0
  147.5454  137.8712  153.2384 H   0  0  0  0  0  0  0  0  0  0  0  0
  146.2845  140.2532  152.5916 H   0  0  0  0  0  0  0  0  0  0  0  0
  149.4510  143.5407  156.6716 H   0  0  0  0  0  0  0  0  0  0  0  0
  152.0150  142.3392  157.4664 H   0  0  0  0  0  0  0  0  0  0  0  0
  151.7224  143.2760  156.0096 H   0  0  0  0  0  0  0  0  0  0  0  0
  152.5789  144.9620  157.4109 H   0  0  0  0  0  0  0  0  0  0  0  0
  150.8721  145.1373  157.7397 H   0  0  0  0  0  0  0  0  0  0  0  0
  151.7923  142.1143  159.5100 H   0  0  0  0  0  0  0  0  0  0  0  0
  153.4268  142.6633  159.1178 H   0  0  0  0  0  0  0  0  0  0  0  0
  152.5074  142.2125  161.7513 H   0  0  0  0  0  0  0  0  0  0  0  0
  153.8774  143.2345  161.3355 H   0  0  0  0  0  0  0  0  0  0  0  0
  151.1366  144.0957  162.1477 H   0  0  0  0  0  0  0  0  0  0  0  0
  152.6519  145.0148  162.2059 H   0  0  0  0  0  0  0  0  0  0  0  0
  149.7349  142.7883  158.0977 H   0  0  0  0  0  0  0  0  0  0  0  0
  1  2  1  0  0  0  0
  1 18  1  0  0  0  0
  1 19  1  0  0  0  0
  1 20  1  0  0  0  0
  2  3  1  0  0  0  0
  2  9  1  0  0  0  0
  2 21  1  0  0  0  0
  3  4  1  0  0  0  0
  3 22  1  0  0  0  0
  3 23  1  0  0  0  0
  4  8  1  0  0  0  0
  4  5  1  0  0  0  0
  5  6  2  0  0  0  0
  5 24  1  0  0  0  0
  6  7  1  0  0  0  0
  6 25  1  0  0  0  0
  7  8  2  0  0  0  0
  7 26  1  0  0  0  0
  9 10  1  0  0  0  0
  9 27  1  0  0  0  0
  9 38  1  0  0  0  0
 10 11  1  0  0  0  0
 10 28  1  0  0  0  0
 10 29  1  0  0  0  0
 11 12  1  0  0  0  0
 11 30  1  0  0  0  0
 11 31  1  0  0  0  0
 12 16  1  0  0  0  0
 12 13  1  0  0  0  0
 13 14  1  0  0  0  0
 13 32  1  0  0  0  0
 13 33  1  0  0  0  0
 14 15  1  0  0  0  0
 14 34  1  0  0  0  0
 14 35  1  0  0  0  0
 15 16  1  0  0  0  0
 15 36  1  0  0  0  0
 15 37  1  0  0  0  0
 16 17  2  0  0  0  0
M  CHG  1   9   1
M  END
> <s_m_source_file>
AV-unprocessed.smi

> <i_m_source_file_index>
3140

> <i_lp_mmshare_version>
43012

> <i_f3d_flags>
0

> <s_epik_input>
bjFbY0hdW2NIXVtjSF1uMVtDSDJdW0NAQEhdKFtDSDNdKVtOSF1bQ0gyXVtDSDJdTjJbQ0gyXVtDSDJdW0NIMl1DMj1P

> <s_epik_cmdline>
J2VwaWtfcHl0aG9uJywgJy1waCcsICc3LjAnLCAnLXRuJywgJzgnLCAnLW1hJywgJzIwMCcsICctbWV0YWxfYmluZGluZycsICctaW1hZScsICc8aW5maWxlLm1hZT4nLCAnLW9tYWUnLCAnPG91dGZpbGUubWFlPic=

> <r_lp_tautomer_probability>
1

> <r_epik_Ionization_Penalty>
0.00826299

> <r_epik_Ionization_Penalty_Charging>
0.00825899

> <r_epik_Ionization_Penalty_Neutral>
3.99893e-06

> <r_epik_State_Penalty>
0.00621436

> <r_epik_Charging_Adjusted_Penalty>
0.0144734

> <i_epik_Tot_Q>
1

> <i_epik_Tot_abs_Q>
1

> <r_epik_Metal_State_Penalty>
0.00621472

> <b_epik_Metal_Only>
0

> <s_lp_Force_Field>
OPLS_2005

> <r_lp_Energy>
18.6849

> <b_lp_Chiralities_Consistent>
1

> <s_lp_Variant>
AV-unprocessed.smi:3140-1

> <Gold.Version>
5.8.1

> <Gold.Id.Protein>
6NUR|6NUR_protein|mol2

> <Gold.PLP.Fitness>
50.4167

> <Gold.PLP.PLP>
-43.4935

> <Gold.PLP.part.hbond>
-2.8721

> <Gold.PLP.part.metal>
0.0000

> <Gold.PLP.part.buried>
-3.4299

> <Gold.PLP.part.nonpolar>
-37.0995

> <Gold.PLP.part.repulsive>
0.4195

> <Gold.PLP.ligand.clash>
0.0000

> <Gold.PLP.ligand.torsion>
1.0770

> <Gold.PLP.Chemscore.Hbond>
2.0000

> <Gold.PLP.Chemscore.CHOScore>
1.0000

> <Gold.PLP.Chemscore.Metal>
0.0000

> <Gold.Chemscore.Hbonds>
donor molecule, donor type, donor heavy atom, donor atom, acceptor molecule, acceptor atom, score
      L1  H     9    27       P1  8028  2.00
      L1  C     7    26       P1 10175  0.81

> <Gold.PLP.Chemscore.Internal.Correction>
0.0773

> <Gold.Rescore>
     Score         DG    S(hbond)    S(metal)    S(lipo)     H(rot)  DE(clash)    DE(int)     intcor
     13.44     -14.76       0.97        0.00      96.54       2.06       0.40       0.92       ----

> <Gold.Chemscore.Fitness>
13.4355

> <Gold.Chemscore.DG>
-14.7576

> <Gold.Chemscore.ZeroCoef>
-5.4800

> <Gold.Chemscore.Hbond>
0.9716

> <Gold.Chemscore.Metal>
0.0000

> <Gold.Chemscore.Lipo>
96.5396

> <Gold.Chemscore.Internal_Hbond>
0.0000

> <Gold.Chemscore.DEClash>
0.4045

> <Gold.Chemscore.DEInternal>
0.9176

> <Gold.Chemscore.Rot>
2.0557

> <Gold.Chemscore.Internal.Correction>
   9.000000E+99

> <Gold.Chemscore.Hbonds>
donor molecule, donor type, donor heavy atom, donor atom, acceptor molecule, acceptor atom, score
      L1  H     9    27       P1  8028  0.99

> <Gold.Chemscore.Hbond.Weighted>
-3.2451

> <Gold.Chemscore.Metal.Weighted>
-0.0000

> <Gold.Chemscore.Lipo.Weighted>
-11.2951

> <Gold.Chemscore.Internal_Hbond.Weighted>
0.0000

> <Gold.Chemscore.DEClash.Weighted>
0.4045

> <Gold.Chemscore.DEInternal.Weighted>
0.9176

> <Gold.Chemscore.Rot.Weighted>
5.2627

> <Gold.Chemscore.Internal.Correction.Weighted>
   9.000000E+99

> <Gold.Protein.RotatedTorsions>
[ 6907 6896 6895 6894 ] final   27.48 input  -60.11 | X-H torsion
[ 7974 7965 7964 7962 ] final   99.52 input  175.53 | X-H torsion
[ 8008 7997 7996 7995 ] final   10.04 input   59.86 | X-H torsion
[ 10167 10162 10161 10158 ] final  -82.38 input  -65.29 | X-H torsion
[ 10718 10713 10712 10709 ] final -165.54 input   66.30 | X-H torsion
[ 10763 10752 10751 10750 ] final  -51.12 input  -60.55 | X-H torsion
[ 11005 11000 10999 10996 ] final   12.30 input  -57.11 | X-H torsion

> <Gold.Protein.ActiveResidues>
 VAL166  LYS551  ARG553  GLY616  TRP617  ASP618  TYR619  PRO620  LYS621  CYS622 
 ASP623  PHE694  ASN695  SER759  ASP760  ASP761  ALA762  ILE779  LEU786  VAL792 
 PHE793  MET794  SER795  GLU796  ALA797  LYS798  CYS799  TRP800  GLU811  SER814 

> <Gold.Protein.RotatedAtoms>
  152.0028  134.9919  160.0565 H   0  0  0  0  0  0  0  0  0  0  0  0  # atno 6907 bound_to 6896
  152.1502  133.4513  159.4818 H   0  0  0  0  0  0  0  0  0  0  0  0  # atno 6908 bound_to 6896
  150.6875  134.2116  159.4404 H   0  0  0  0  0  0  0  0  0  0  0  0  # atno 6909 bound_to 6896
  145.3978  139.2352  143.3317 H   0  0  0  0  0  0  0  0  0  0  0  0  # atno 7974 bound_to 7965
  154.7880  140.2830  155.6013 H   0  0  0  0  0  0  0  0  0  0  0  0  # atno 8008 bound_to 7997
  156.2960  140.2610  156.2650 H   0  0  0  0  0  0  0  0  0  0  0  0  # atno 8009 bound_to 7997
  154.9704  140.0376  157.2221 H   0  0  0  0  0  0  0  0  0  0  0  0  # atno 8010 bound_to 7997
  140.4325  143.2543  151.8740 H   0  0  0  0  0  0  0  0  0  0  0  0  # atno 10167 bound_to 10162
  156.6548  130.9022  151.3019 H   0  0  0  0  0  0  0  0  0  0  0  0  # atno 10718 bound_to 10713
  154.1215  135.6534  153.4904 H   0  0  0  0  0  0  0  0  0  0  0  0  # atno 10763 bound_to 10752
  153.0224  135.5271  154.7092 H   0  0  0  0  0  0  0  0  0  0  0  0  # atno 10764 bound_to 10752
  154.6301  135.2975  155.0197 H   0  0  0  0  0  0  0  0  0  0  0  0  # atno 10765 bound_to 10752
  140.4936  134.0816  155.7777 H   0  0  0  0  0  0  0  0  0  0  0  0  # atno 11005 bound_to 11000
  146.2767  140.4670  142.8793 LP  0  0  0  0  0  0  0  0  0  0  0  0  # atno 17320 bound_to 7965
  144.8395  140.6835  143.6238 LP  0  0  0  0  0  0  0  0  0  0  0  0  # atno 17321 bound_to 7965
  139.4785  144.5319  151.8654 LP  0  0  0  0  0  0  0  0  0  0  0  0  # atno 17342 bound_to 10162
  140.4411  144.1985  150.5891 LP  0  0  0  0  0  0  0  0  0  0  0  0  # atno 17343 bound_to 10162
  157.7129  130.9462  150.1151 LP  0  0  0  0  0  0  0  0  0  0  0  0  # atno 17370 bound_to 10713
  156.2056  130.3663  149.8734 LP  0  0  0  0  0  0  0  0  0  0  0  0  # atno 17371 bound_to 10713
  141.1472  133.9034  157.2188 LP  0  0  0  0  0  0  0  0  0  0  0  0  # atno 17394 bound_to 11000
  139.9755  135.0115  156.9619 LP  0  0  0  0  0  0  0  0  0  0  0  0  # atno 17395 bound_to 11000

$$$$
