AV-unprocessed.smi:1257|AV-procd|sdf|5285|dock7
  -GOLD-   22720 4403D 1   1.00000     0.00000
 Structure written by MMmdl.
 47 48  0  0  0  0  0  0  0  0  1 V2000
  152.2204  131.6945  156.4931 C   0  0  0  0  0  0  0  0  0  0  0  0
  150.9182  131.4057  155.7344 C   0  0  0  0  0  0  0  0  0  0  0  0
  150.2662  132.6349  155.2981 N   0  0  0  0  0  0  0  0  0  0  0  0
  149.9948  133.6853  156.0871 C   0  0  0  0  0  0  0  0  0  0  0  0
  150.2623  133.7127  157.2895 O   0  0  0  0  0  0  0  0  0  0  0  0
  149.2938  134.8704  155.4117 C   0  0  0  0  0  0  0  0  0  0  0  0
  149.7148  136.1598  155.9535 N   0  0  0  0  0  0  0  0  0  0  0  0
  150.8032  136.8445  155.5639 C   0  0  0  0  0  0  0  0  0  0  0  0
  151.5729  136.4539  154.6856 O   0  0  0  0  0  0  0  0  0  0  0  0
  151.0817  138.1089  156.3242 C   0  0  0  0  0  0  0  0  0  0  0  0
  150.2352  138.5139  157.3788 C   0  0  0  0  0  0  0  0  0  0  0  0
  150.5353  139.6956  158.0833 C   0  0  0  0  0  0  0  0  0  0  0  0
  151.6773  140.4348  157.7132 C   0  0  0  0  0  0  0  0  0  0  0  0
  151.9778  141.6141  158.4086 N   0  0  0  0  0  0  0  0  0  0  0  0
  150.9820  142.6611  158.2215 C   0  0  0  0  0  0  0  0  0  0  0  0
  151.4361  143.9735  158.8913 C   0  0  2  0  0  0  0  0  0  0  0  0
  152.5466  144.7063  158.1176 C   0  0  0  0  0  0  0  0  0  0  0  0
  151.7990  143.7313  160.2538 O   0  0  0  0  0  0  0  0  0  0  0  0
  152.7910  142.7210  160.4413 C   0  0  1  0  0  0  0  0  0  0  0  0
  153.0462  142.5761  161.9450 C   0  0  0  0  0  0  0  0  0  0  0  0
  152.3029  141.4038  159.8124 C   0  0  0  0  0  0  0  0  0  0  0  0
  152.5036  140.0477  156.7126 N   0  0  0  0  0  0  0  0  0  0  0  0
  152.2114  138.9120  156.0436 C   0  0  0  0  0  0  0  0  0  0  0  0
  152.6777  130.7685  156.8417 H   0  0  0  0  0  0  0  0  0  0  0  0
  152.0379  132.3235  157.3648 H   0  0  0  0  0  0  0  0  0  0  0  0
  152.9466  132.2027  155.8579 H   0  0  0  0  0  0  0  0  0  0  0  0
  151.1128  130.7563  154.8792 H   0  0  0  0  0  0  0  0  0  0  0  0
  150.2277  130.8659  156.3826 H   0  0  0  0  0  0  0  0  0  0  0  0
  150.0076  132.6933  154.3236 H   0  0  0  0  0  0  0  0  0  0  0  0
  149.4613  134.8419  154.3333 H   0  0  0  0  0  0  0  0  0  0  0  0
  148.2193  134.7692  155.5647 H   0  0  0  0  0  0  0  0  0  0  0  0
  149.1575  136.5406  156.7043 H   0  0  0  0  0  0  0  0  0  0  0  0
  149.3630  137.9353  157.6471 H   0  0  0  0  0  0  0  0  0  0  0  0
  149.8983  140.0271  158.8904 H   0  0  0  0  0  0  0  0  0  0  0  0
  150.7986  142.8201  157.1581 H   0  0  0  0  0  0  0  0  0  0  0  0
  150.0373  142.3378  158.6619 H   0  0  0  0  0  0  0  0  0  0  0  0
  150.5777  144.6449  158.9193 H   0  0  0  0  0  0  0  0  0  0  0  0
  152.2010  144.9901  157.1232 H   0  0  0  0  0  0  0  0  0  0  0  0
  153.4361  144.0907  157.9865 H   0  0  0  0  0  0  0  0  0  0  0  0
  152.8432  145.6186  158.6359 H   0  0  0  0  0  0  0  0  0  0  0  0
  153.7237  143.0298  159.9684 H   0  0  0  0  0  0  0  0  0  0  0  0
  153.8078  141.8213  162.1429 H   0  0  0  0  0  0  0  0  0  0  0  0
  152.1385  142.2827  162.4730 H   0  0  0  0  0  0  0  0  0  0  0  0
  153.3922  143.5170  162.3736 H   0  0  0  0  0  0  0  0  0  0  0  0
  151.4218  141.0414  160.3440 H   0  0  0  0  0  0  0  0  0  0  0  0
  153.0730  140.6363  159.9010 H   0  0  0  0  0  0  0  0  0  0  0  0
  152.9082  138.6435  155.2630 H   0  0  0  0  0  0  0  0  0  0  0  0
  1  2  1  0  0  0  0
  1 24  1  0  0  0  0
  1 25  1  0  0  0  0
  1 26  1  0  0  0  0
  2  3  1  0  0  0  0
  2 27  1  0  0  0  0
  2 28  1  0  0  0  0
  3  4  1  0  0  0  0
  3 29  1  0  0  0  0
  4  5  2  0  0  0  0
  4  6  1  0  0  0  0
  6  7  1  0  0  0  0
  6 30  1  0  0  0  0
  6 31  1  0  0  0  0
  7  8  1  0  0  0  0
  7 32  1  0  0  0  0
  8  9  2  0  0  0  0
  8 10  1  0  0  0  0
 10 23  1  0  0  0  0
 10 11  2  0  0  0  0
 11 12  1  0  0  0  0
 11 33  1  0  0  0  0
 12 13  2  0  0  0  0
 12 34  1  0  0  0  0
 13 14  1  0  0  0  0
 13 22  1  0  0  0  0
 14 21  1  0  0  0  0
 14 15  1  0  0  0  0
 15 16  1  0  0  0  0
 15 35  1  0  0  0  0
 15 36  1  0  0  0  0
 16 17  1  0  0  0  0
 16 18  1  0  0  0  0
 16 37  1  0  0  0  0
 17 38  1  0  0  0  0
 17 39  1  0  0  0  0
 17 40  1  0  0  0  0
 18 19  1  0  0  0  0
 19 20  1  0  0  0  0
 19 21  1  0  0  0  0
 19 41  1  0  0  0  0
 20 42  1  0  0  0  0
 20 43  1  0  0  0  0
 20 44  1  0  0  0  0
 21 45  1  0  0  0  0
 21 46  1  0  0  0  0
 22 23  2  0  0  0  0
 23 47  1  0  0  0  0
M  END
> <s_m_source_file>
AV-unprocessed.smi

> <i_m_source_file_index>
1257

> <i_lp_mmshare_version>
43012

> <i_f3d_flags>
0

> <s_epik_input>
W0NIM11bQ0gyXVtOSF1DKD1PKVtDSDJdW05IXUMoPU8pYzFbY0hdW2NIXWMobltjSF0xKU4yW0NIMl1bQ0BASF0oW0NIM10pT1tDQEBIXShbQ0gzXSlbQ0gyXTI=

> <s_epik_cmdline>
J2VwaWtfcHl0aG9uJywgJy1waCcsICc3LjAnLCAnLXRuJywgJzgnLCAnLW1hJywgJzIwMCcsICctbWV0YWxfYmluZGluZycsICctaW1hZScsICc8aW5maWxlLm1hZT4nLCAnLW9tYWUnLCAnPG91dGZpbGUubWFlPic=

> <r_lp_tautomer_probability>
1

> <r_epik_Ionization_Penalty>
1.15681e-05

> <r_epik_Ionization_Penalty_Charging>
0

> <r_epik_Ionization_Penalty_Neutral>
1.15681e-05

> <r_epik_State_Penalty>
-0

> <r_epik_Charging_Adjusted_Penalty>
0

> <i_epik_Tot_Q>
0

> <i_epik_Tot_abs_Q>
0

> <r_epik_Metal_State_Penalty>
-0

> <b_epik_Metal_Only>
0

> <s_lp_Force_Field>
OPLS_2005

> <r_lp_Energy>
18.6065

> <b_lp_Chiralities_Consistent>
1

> <s_lp_Variant>
AV-unprocessed.smi:1257-2

> <Gold.Version>
5.8.1

> <Gold.Id.Protein>
6NUR|6NUR_protein|mol2

> <Gold.PLP.Fitness>
47.9706

> <Gold.PLP.PLP>
-40.2841

> <Gold.PLP.part.hbond>
-3.0000

> <Gold.PLP.part.metal>
0.0000

> <Gold.PLP.part.buried>
-6.4890

> <Gold.PLP.part.nonpolar>
-31.5416

> <Gold.PLP.part.repulsive>
0.2734

> <Gold.PLP.ligand.clash>
0.0000

> <Gold.PLP.ligand.torsion>
0.6102

> <Gold.PLP.Chemscore.Hbond>
2.9280

> <Gold.PLP.Chemscore.CHOScore>
0.0000

> <Gold.PLP.Chemscore.Metal>
0.0000

> <Gold.Chemscore.Hbonds>
donor molecule, donor type, donor heavy atom, donor atom, acceptor molecule, acceptor atom, score
      P1  H  6896  6909       L1     5  0.93
      P1  H  7997  8009       L1    22  1.00
      P1  H 10752 10764       L1     9  1.00

> <Gold.PLP.Chemscore.Internal.Correction>
0.1229

> <Gold.Rescore>
     Score         DG    S(hbond)    S(metal)    S(lipo)     H(rot)  DE(clash)    DE(int)     intcor
     20.07     -22.13       2.87        0.00      97.62       1.71       0.21       1.85       ----

> <Gold.Chemscore.Fitness>
20.0702

> <Gold.Chemscore.DG>
-22.1333

> <Gold.Chemscore.ZeroCoef>
-5.4800

> <Gold.Chemscore.Hbond>
2.8743

> <Gold.Chemscore.Metal>
0.0000

> <Gold.Chemscore.Lipo>
97.6243

> <Gold.Chemscore.Internal_Hbond>
0.0000

> <Gold.Chemscore.DEClash>
0.2124

> <Gold.Chemscore.DEInternal>
1.8507

> <Gold.Chemscore.Rot>
1.7066

> <Gold.Chemscore.Internal.Correction>
   9.000000E+99

> <Gold.Chemscore.Hbonds>
donor molecule, donor type, donor heavy atom, donor atom, acceptor molecule, acceptor atom, score
      P1  H  6896  6909       L1     5  0.84
      P1  H  7997  8009       L1    22  0.30
      P1  H 10752 10764       L1     9  0.99

> <Gold.Chemscore.Hbond.Weighted>
-9.6002

> <Gold.Chemscore.Metal.Weighted>
-0.0000

> <Gold.Chemscore.Lipo.Weighted>
-11.4220

> <Gold.Chemscore.Internal_Hbond.Weighted>
0.0000

> <Gold.Chemscore.DEClash.Weighted>
0.2124

> <Gold.Chemscore.DEInternal.Weighted>
1.8507

> <Gold.Chemscore.Rot.Weighted>
4.3690

> <Gold.Chemscore.Internal.Correction.Weighted>
   9.000000E+99

> <Gold.Protein.RotatedTorsions>
[ 6907 6896 6895 6894 ] final   -3.08 input  -60.11 | X-H torsion
[ 7974 7965 7964 7962 ] final  175.85 input  175.53 | X-H torsion
[ 8008 7997 7996 7995 ] final -173.45 input   59.86 | X-H torsion
[ 10167 10162 10161 10158 ] final -146.69 input  -65.29 | X-H torsion
[ 10718 10713 10712 10709 ] final  -19.95 input   66.30 | X-H torsion
[ 10763 10752 10751 10750 ] final  -69.06 input  -60.55 | X-H torsion
[ 11005 11000 10999 10996 ] final  -32.58 input  -57.11 | X-H torsion

> <Gold.Protein.ActiveResidues>
 VAL166  LYS551  ARG553  GLY616  TRP617  ASP618  TYR619  PRO620  LYS621  CYS622 
 ASP623  PHE694  ASN695  SER759  ASP760  ASP761  ALA762  ILE779  LEU786  VAL792 
 PHE793  MET794  SER795  GLU796  ALA797  LYS798  CYS799  TRP800  GLU811  SER814 

> <Gold.Protein.RotatedAtoms>
  151.5195  135.1067  159.9874 H   0  0  0  0  0  0  0  0  0  0  0  0  # atno 6907 bound_to 6896
  152.4626  133.7851  159.6882 H   0  0  0  0  0  0  0  0  0  0  0  0  # atno 6908 bound_to 6896
  150.8596  133.7600  159.3022 H   0  0  0  0  0  0  0  0  0  0  0  0  # atno 6909 bound_to 6896
  144.7194  140.0008  143.6440 H   0  0  0  0  0  0  0  0  0  0  0  0  # atno 7974 bound_to 7965
  155.9576  140.1138  157.0923 H   0  0  0  0  0  0  0  0  0  0  0  0  # atno 8008 bound_to 7997
  154.4124  140.1188  156.5202 H   0  0  0  0  0  0  0  0  0  0  0  0  # atno 8009 bound_to 7997
  155.6762  140.3473  155.4839 H   0  0  0  0  0  0  0  0  0  0  0  0  # atno 8010 bound_to 7997
  139.7690  143.8266  152.2621 H   0  0  0  0  0  0  0  0  0  0  0  0  # atno 10167 bound_to 10162
  156.5386  130.4672  149.6510 H   0  0  0  0  0  0  0  0  0  0  0  0  # atno 10718 bound_to 10713
  154.3981  135.6037  153.5881 H   0  0  0  0  0  0  0  0  0  0  0  0  # atno 10763 bound_to 10752
  152.9788  135.5900  154.4218 H   0  0  0  0  0  0  0  0  0  0  0  0  # atno 10764 bound_to 10752
  154.4012  135.2843  155.2073 H   0  0  0  0  0  0  0  0  0  0  0  0  # atno 10765 bound_to 10752
  140.9564  133.7190  156.1300 H   0  0  0  0  0  0  0  0  0  0  0  0  # atno 11005 bound_to 11000
  146.0337  139.3358  143.0740 LP  0  0  0  0  0  0  0  0  0  0  0  0  # atno 17320 bound_to 7965
  145.8421  140.9575  143.0794 LP  0  0  0  0  0  0  0  0  0  0  0  0  # atno 17321 bound_to 7965
  139.8294  144.7260  150.9470 LP  0  0  0  0  0  0  0  0  0  0  0  0  # atno 17342 bound_to 10162
  140.7813  143.4084  151.1033 LP  0  0  0  0  0  0  0  0  0  0  0  0  # atno 17343 bound_to 10162
  156.2992  130.7167  151.2035 LP  0  0  0  0  0  0  0  0  0  0  0  0  # atno 17370 bound_to 10713
  157.7409  131.0510  150.5132 LP  0  0  0  0  0  0  0  0  0  0  0  0  # atno 17371 bound_to 10713
  140.7530  134.4024  157.5538 LP  0  0  0  0  0  0  0  0  0  0  0  0  # atno 17394 bound_to 11000
  139.8863  134.8912  156.2590 LP  0  0  0  0  0  0  0  0  0  0  0  0  # atno 17395 bound_to 11000

$$$$
