AV-unprocessed.smi:1292|AV-procd|sdf|5395|dock10
  -GOLD-   22720 4553D 1   1.00000     0.00000
 Structure written by MMmdl.
 40 41  0  0  0  0  0  0  0  0  1 V2000
  146.9119  138.5920  152.4595 C   0  0  0  0  0  0  0  0  0  0  0  0
  147.3780  139.6031  153.5161 C   0  0  2  0  0  0  0  0  0  0  0  0
  147.2333  141.0471  153.0145 C   0  0  0  0  0  0  0  0  0  0  0  0
  147.7034  142.0203  154.0996 C   0  0  0  0  0  0  0  0  0  0  0  0
  149.1452  141.7155  154.5363 C   0  0  0  0  0  0  0  0  0  0  0  0
  149.2880  140.3097  154.9598 N   0  0  0  0  0  0  0  0  0  0  0  0
  150.6820  139.9000  155.9068 S   0  0  0  0  0  0  0  0  0  0  0  0
  150.2371  139.0986  157.0569 O   0  0  0  0  0  0  0  0  0  0  0  0
  151.7432  139.4230  155.0064 O   0  0  0  0  0  0  0  0  0  0  0  0
  151.1200  141.4720  156.4686 N   0  0  0  0  0  0  0  0  0  0  0  0
  151.1099  141.7537  157.9043 C   0  0  0  0  0  0  0  0  0  0  0  0
  152.4670  141.4038  158.5279 C   0  0  0  0  0  0  0  0  0  0  0  0
  152.6047  141.9502  159.9365 C   0  0  0  0  0  0  0  0  0  0  0  0
  151.9936  143.1702  160.2975 C   0  0  0  0  0  0  0  0  0  0  0  0
  152.1635  143.6419  161.6136 C   0  0  0  0  0  0  0  0  0  0  0  0
  152.9350  142.8808  162.5128 C   0  0  0  0  0  0  0  0  0  0  0  0
  153.5054  141.6768  162.0536 C   0  0  0  0  0  0  0  0  0  0  0  0
  153.3491  141.2157  160.7937 N   0  0  0  0  0  0  0  0  0  0  0  0
  148.8306  139.3302  153.9522 C   0  0  0  0  0  0  0  0  0  0  0  0
  147.5144  138.6594  151.5532 H   0  0  0  0  0  0  0  0  0  0  0  0
  145.8719  138.7656  152.1820 H   0  0  0  0  0  0  0  0  0  0  0  0
  146.9866  137.5706  152.8335 H   0  0  0  0  0  0  0  0  0  0  0  0
  146.7370  139.4818  154.3908 H   0  0  0  0  0  0  0  0  0  0  0  0
  147.8221  141.1912  152.1073 H   0  0  0  0  0  0  0  0  0  0  0  0
  146.1955  141.2562  152.7529 H   0  0  0  0  0  0  0  0  0  0  0  0
  147.6353  143.0453  153.7347 H   0  0  0  0  0  0  0  0  0  0  0  0
  147.0394  141.9554  154.9628 H   0  0  0  0  0  0  0  0  0  0  0  0
  149.8423  141.9134  153.7212 H   0  0  0  0  0  0  0  0  0  0  0  0
  149.4204  142.3784  155.3565 H   0  0  0  0  0  0  0  0  0  0  0  0
  151.9226  141.8598  155.9738 H   0  0  0  0  0  0  0  0  0  0  0  0
  150.8740  142.8070  158.0594 H   0  0  0  0  0  0  0  0  0  0  0  0
  150.3217  141.1708  158.3816 H   0  0  0  0  0  0  0  0  0  0  0  0
  152.5993  140.3211  158.5510 H   0  0  0  0  0  0  0  0  0  0  0  0
  153.2765  141.7992  157.9122 H   0  0  0  0  0  0  0  0  0  0  0  0
  151.4117  143.7339  159.5833 H   0  0  0  0  0  0  0  0  0  0  0  0
  151.7117  144.5715  161.9268 H   0  0  0  0  0  0  0  0  0  0  0  0
  153.0870  143.2120  163.5294 H   0  0  0  0  0  0  0  0  0  0  0  0
  154.1033  141.0683  162.7157 H   0  0  0  0  0  0  0  0  0  0  0  0
  148.9032  138.3216  154.3581 H   0  0  0  0  0  0  0  0  0  0  0  0
  149.5024  139.3696  153.0934 H   0  0  0  0  0  0  0  0  0  0  0  0
  1  2  1  0  0  0  0
  1 20  1  0  0  0  0
  1 21  1  0  0  0  0
  1 22  1  0  0  0  0
  2 19  1  0  0  0  0
  2  3  1  0  0  0  0
  2 23  1  0  0  0  0
  3  4  1  0  0  0  0
  3 24  1  0  0  0  0
  3 25  1  0  0  0  0
  4  5  1  0  0  0  0
  4 26  1  0  0  0  0
  4 27  1  0  0  0  0
  5  6  1  0  0  0  0
  5 28  1  0  0  0  0
  5 29  1  0  0  0  0
  6  7  1  0  0  0  0
  6 19  1  0  0  0  0
  7  8  2  0  0  0  0
  7  9  2  0  0  0  0
  7 10  1  0  0  0  0
 10 11  1  0  0  0  0
 10 30  1  0  0  0  0
 11 12  1  0  0  0  0
 11 31  1  0  0  0  0
 11 32  1  0  0  0  0
 12 13  1  0  0  0  0
 12 33  1  0  0  0  0
 12 34  1  0  0  0  0
 13 18  1  0  0  0  0
 13 14  2  0  0  0  0
 14 15  1  0  0  0  0
 14 35  1  0  0  0  0
 15 16  2  0  0  0  0
 15 36  1  0  0  0  0
 16 17  1  0  0  0  0
 16 37  1  0  0  0  0
 17 18  2  0  0  0  0
 17 38  1  0  0  0  0
 19 39  1  0  0  0  0
 19 40  1  0  0  0  0
M  END
> <s_m_source_file>
AV-unprocessed.smi

> <i_m_source_file_index>
1292

> <i_lp_mmshare_version>
43012

> <i_f3d_flags>
0

> <s_epik_input>
W0NIM11bQ0BASF0xW0NIMl1bQ0gyXVtDSDJdTihbQ0gyXTEpUyg9TykoPU8pW05IXVtDSDJdW0NIMl1jMltjSF1bY0hdW2NIXVtjSF1uMg==

> <s_epik_cmdline>
J2VwaWtfcHl0aG9uJywgJy1waCcsICc3LjAnLCAnLXRuJywgJzgnLCAnLW1hJywgJzIwMCcsICctbWV0YWxfYmluZGluZycsICctaW1hZScsICc8aW5maWxlLm1hZT4nLCAnLW9tYWUnLCAnPG91dGZpbGUubWFlPic=

> <r_epik_Ionization_Penalty>
0.0252758

> <r_epik_Ionization_Penalty_Charging>
0

> <r_epik_Ionization_Penalty_Neutral>
0.0252758

> <r_epik_State_Penalty>
0.0138562

> <r_epik_Charging_Adjusted_Penalty>
0.0138562

> <i_epik_Tot_Q>
0

> <i_epik_Tot_abs_Q>
0

> <r_epik_Metal_State_Penalty>
0.204365

> <b_epik_Metal_Only>
0

> <s_lp_Force_Field>
OPLS_2005

> <r_lp_Energy>
7.0541

> <b_lp_Chiralities_Consistent>
1

> <s_lp_Variant>
AV-unprocessed.smi:1292-1

> <Gold.Version>
5.8.1

> <Gold.Id.Protein>
6NUR|6NUR_protein|mol2

> <Gold.PLP.Fitness>
43.4432

> <Gold.PLP.PLP>
-42.3612

> <Gold.PLP.part.hbond>
-1.0000

> <Gold.PLP.part.metal>
0.0000

> <Gold.PLP.part.buried>
-3.5845

> <Gold.PLP.part.nonpolar>
-36.6263

> <Gold.PLP.part.repulsive>
0.1215

> <Gold.PLP.ligand.clash>
0.0000

> <Gold.PLP.ligand.torsion>
1.3799

> <Gold.PLP.Chemscore.Hbond>
1.0000

> <Gold.PLP.Chemscore.CHOScore>
0.0000

> <Gold.PLP.Chemscore.Metal>
0.0000

> <Gold.Chemscore.Hbonds>
donor molecule, donor type, donor heavy atom, donor atom, acceptor molecule, acceptor atom, score
      P1  H  7989  7998       L1     9  0.88

> <Gold.PLP.Chemscore.Internal.Correction>
0.8418

> <Gold.Rescore>
     Score         DG    S(hbond)    S(metal)    S(lipo)     H(rot)  DE(clash)    DE(int)     intcor
     15.57     -17.70       0.90        0.00     114.52       1.64       0.82       1.30       ----

> <Gold.Chemscore.Fitness>
15.5747

> <Gold.Chemscore.DG>
-17.6951

> <Gold.Chemscore.ZeroCoef>
-5.4800

> <Gold.Chemscore.Hbond>
0.9021

> <Gold.Chemscore.Metal>
0.0000

> <Gold.Chemscore.Lipo>
114.5208

> <Gold.Chemscore.Internal_Hbond>
0.0000

> <Gold.Chemscore.DEClash>
0.8232

> <Gold.Chemscore.DEInternal>
1.2973

> <Gold.Chemscore.Rot>
1.6394

> <Gold.Chemscore.Internal.Correction>
   9.000000E+99

> <Gold.Chemscore.Hbonds>
donor molecule, donor type, donor heavy atom, donor atom, acceptor molecule, acceptor atom, score
      P1  H  7989  7998       L1     9  0.25

> <Gold.Chemscore.Hbond.Weighted>
-3.0131

> <Gold.Chemscore.Metal.Weighted>
-0.0000

> <Gold.Chemscore.Lipo.Weighted>
-13.3989

> <Gold.Chemscore.Internal_Hbond.Weighted>
0.0000

> <Gold.Chemscore.DEClash.Weighted>
0.8232

> <Gold.Chemscore.DEInternal.Weighted>
1.2973

> <Gold.Chemscore.Rot.Weighted>
4.1968

> <Gold.Chemscore.Internal.Correction.Weighted>
   9.000000E+99

> <Gold.Protein.RotatedTorsions>
[ 6907 6896 6895 6894 ] final  172.46 input  -60.11 | X-H torsion
[ 7974 7965 7964 7962 ] final   82.52 input  175.53 | X-H torsion
[ 8008 7997 7996 7995 ] final  174.56 input   59.86 | X-H torsion
[ 10167 10162 10161 10158 ] final  104.42 input  -65.29 | X-H torsion
[ 10718 10713 10712 10709 ] final   85.89 input   66.30 | X-H torsion
[ 10763 10752 10751 10750 ] final  178.22 input  -60.55 | X-H torsion
[ 11005 11000 10999 10996 ] final -130.54 input  -57.11 | X-H torsion

> <Gold.Protein.ActiveResidues>
 VAL166  LYS551  ARG553  GLY616  TRP617  ASP618  TYR619  PRO620  LYS621  CYS622 
 ASP623  PHE694  ASN695  SER759  ASP760  ASP761  ALA762  ILE779  LEU786  VAL792 
 PHE793  MET794  SER795  GLU796  ALA797  LYS798  CYS799  TRP800  GLU811  SER814 

> <Gold.Protein.RotatedAtoms>
  151.7839  133.3352  159.3479 H   0  0  0  0  0  0  0  0  0  0  0  0  # atno 6907 bound_to 6896
  150.7416  134.5905  159.5994 H   0  0  0  0  0  0  0  0  0  0  0  0  # atno 6908 bound_to 6896
  152.3257  134.7325  160.0354 H   0  0  0  0  0  0  0  0  0  0  0  0  # atno 6909 bound_to 6896
  145.6239  139.2391  143.2122 H   0  0  0  0  0  0  0  0  0  0  0  0  # atno 7974 bound_to 7965
  156.0961  140.1431  156.9529 H   0  0  0  0  0  0  0  0  0  0  0  0  # atno 8008 bound_to 7997
  154.4672  140.0922  156.7098 H   0  0  0  0  0  0  0  0  0  0  0  0  # atno 8009 bound_to 7997
  155.4838  140.3446  155.4346 H   0  0  0  0  0  0  0  0  0  0  0  0  # atno 8010 bound_to 7997
  139.7178  144.7064  151.0921 H   0  0  0  0  0  0  0  0  0  0  0  0  # atno 10167 bound_to 10162
  157.6921  131.0193  150.2890 H   0  0  0  0  0  0  0  0  0  0  0  0  # atno 10718 bound_to 10713
  154.5048  135.2785  155.1391 H   0  0  0  0  0  0  0  0  0  0  0  0  # atno 10763 bound_to 10752
  154.3010  135.6248  153.5428 H   0  0  0  0  0  0  0  0  0  0  0  0  # atno 10764 bound_to 10752
  152.9908  135.5697  154.5500 H   0  0  0  0  0  0  0  0  0  0  0  0  # atno 10765 bound_to 10752
  140.9337  134.1285  157.4212 H   0  0  0  0  0  0  0  0  0  0  0  0  # atno 11005 bound_to 11000
  146.1409  140.7059  142.9367 LP  0  0  0  0  0  0  0  0  0  0  0  0  # atno 17320 bound_to 7965
  144.7220  140.4403  143.7001 LP  0  0  0  0  0  0  0  0  0  0  0  0  # atno 17321 bound_to 7965
  140.7747  143.5206  150.9541 LP  0  0  0  0  0  0  0  0  0  0  0  0  # atno 17342 bound_to 10162
  139.8892  143.6974  152.3147 LP  0  0  0  0  0  0  0  0  0  0  0  0  # atno 17343 bound_to 10162
  156.3424  130.3817  149.7397 LP  0  0  0  0  0  0  0  0  0  0  0  0  # atno 17370 bound_to 10713
  156.4902  130.8081  151.3091 LP  0  0  0  0  0  0  0  0  0  0  0  0  # atno 17371 bound_to 10713
  139.8802  135.0014  156.6063 LP  0  0  0  0  0  0  0  0  0  0  0  0  # atno 17394 bound_to 11000
  140.7828  133.8646  155.8581 LP  0  0  0  0  0  0  0  0  0  0  0  0  # atno 17395 bound_to 11000

$$$$
