AV-unprocessed.smi:1716|AV-procd|sdf|6916|dock2
  -GOLD-   22720 8123D 1   1.00000     0.00000
 Structure written by MMmdl.
 40 41  0  0  0  0  0  0  0  0  1 V2000
  150.9415  140.6107  158.8985 C   0  0  0  0  0  0  0  0  0  0  0  0
  152.0360  140.2663  157.8857 C   0  0  0  0  0  0  0  0  0  0  0  0
  153.1694  140.0450  158.3124 O   0  0  0  0  0  0  0  0  0  0  0  0
  151.7264  140.2135  156.5676 N   0  0  0  0  0  0  0  0  0  0  0  0
  152.6980  139.8242  155.5387 C   0  0  0  0  0  0  0  0  0  0  0  0
  152.3073  138.4449  154.9779 C   0  0  0  0  0  0  0  0  0  0  0  0
  150.8580  138.4466  154.4397 C   0  0  0  0  0  0  0  0  0  0  0  0
  150.4359  137.0937  154.0888 N   0  0  0  0  0  0  0  0  0  0  0  0
  150.7256  135.9868  154.7888 C   0  0  0  0  0  0  0  0  0  0  0  0
  151.3900  135.9946  155.8257 O   0  0  0  0  0  0  0  0  0  0  0  0
  150.1972  134.8941  154.2095 N   0  0  0  0  0  0  0  0  0  0  0  0
  150.2799  133.5375  154.6338 C   0  0  0  0  0  0  0  0  0  0  0  0
  150.9829  133.1544  155.7295 N   0  0  0  0  0  0  0  0  0  0  0  0
  151.0196  131.8514  156.0748 C   0  0  0  0  0  0  0  0  0  0  0  0
  150.3574  130.8463  155.3495 C   0  0  0  0  0  0  0  0  0  0  0  0
  149.6243  131.2253  154.2120 C   0  0  0  0  0  0  0  0  0  0  0  0
  149.5802  132.5866  153.8429 C   0  0  0  0  0  0  0  0  0  0  0  0
  148.7872  132.9982  152.6130 C   0  0  0  0  0  0  0  0  0  0  0  0
  149.8776  139.0457  155.4707 C   0  0  0  0  0  0  0  0  0  0  0  0
  150.3844  140.3988  156.0012 C   0  0  0  0  0  0  0  0  0  0  0  0
  150.1217  139.8938  158.8420 H   0  0  0  0  0  0  0  0  0  0  0  0
  150.5510  141.6129  158.7196 H   0  0  0  0  0  0  0  0  0  0  0  0
  151.3365  140.5839  159.9145 H   0  0  0  0  0  0  0  0  0  0  0  0
  152.6964  140.5675  154.7402 H   0  0  0  0  0  0  0  0  0  0  0  0
  153.7220  139.7944  155.9131 H   0  0  0  0  0  0  0  0  0  0  0  0
  153.0025  138.1571  154.1884 H   0  0  0  0  0  0  0  0  0  0  0  0
  152.4089  137.6977  155.7664 H   0  0  0  0  0  0  0  0  0  0  0  0
  150.8225  139.0752  153.5478 H   0  0  0  0  0  0  0  0  0  0  0  0
  149.8824  136.9949  153.2504 H   0  0  0  0  0  0  0  0  0  0  0  0
  149.6728  135.0484  153.3614 H   0  0  0  0  0  0  0  0  0  0  0  0
  151.5944  131.6037  156.9549 H   0  0  0  0  0  0  0  0  0  0  0  0
  150.4110  129.8127  155.6579 H   0  0  0  0  0  0  0  0  0  0  0  0
  149.1035  130.4773  153.6323 H   0  0  0  0  0  0  0  0  0  0  0  0
  148.3216  132.1364  152.1338 H   0  0  0  0  0  0  0  0  0  0  0  0
  149.4382  133.4769  151.8812 H   0  0  0  0  0  0  0  0  0  0  0  0
  147.9967  133.6982  152.8846 H   0  0  0  0  0  0  0  0  0  0  0  0
  148.8914  139.1684  155.0214 H   0  0  0  0  0  0  0  0  0  0  0  0
  149.7527  138.3581  156.3089 H   0  0  0  0  0  0  0  0  0  0  0  0
  149.6651  140.8123  156.7062 H   0  0  0  0  0  0  0  0  0  0  0  0
  150.4379  141.1210  155.1854 H   0  0  0  0  0  0  0  0  0  0  0  0
  1  2  1  0  0  0  0
  1 21  1  0  0  0  0
  1 22  1  0  0  0  0
  1 23  1  0  0  0  0
  2  3  2  0  0  0  0
  2  4  1  0  0  0  0
  4 20  1  0  0  0  0
  4  5  1  0  0  0  0
  5  6  1  0  0  0  0
  5 24  1  0  0  0  0
  5 25  1  0  0  0  0
  6  7  1  0  0  0  0
  6 26  1  0  0  0  0
  6 27  1  0  0  0  0
  7  8  1  0  0  0  0
  7 19  1  0  0  0  0
  7 28  1  0  0  0  0
  8  9  1  0  0  0  0
  8 29  1  0  0  0  0
  9 10  2  0  0  0  0
  9 11  1  0  0  0  0
 11 12  1  0  0  0  0
 11 30  1  0  0  0  0
 12 17  1  0  0  0  0
 12 13  2  0  0  0  0
 13 14  1  0  0  0  0
 14 15  2  0  0  0  0
 14 31  1  0  0  0  0
 15 16  1  0  0  0  0
 15 32  1  0  0  0  0
 16 17  2  0  0  0  0
 16 33  1  0  0  0  0
 17 18  1  0  0  0  0
 18 34  1  0  0  0  0
 18 35  1  0  0  0  0
 18 36  1  0  0  0  0
 19 20  1  0  0  0  0
 19 37  1  0  0  0  0
 19 38  1  0  0  0  0
 20 39  1  0  0  0  0
 20 40  1  0  0  0  0
M  END
> <s_m_source_file>
AV-unprocessed.smi

> <i_m_source_file_index>
1716

> <i_lp_mmshare_version>
43012

> <i_f3d_flags>
0

> <s_epik_input>
W0NIM11DKD1PKU4xW0NIMl1bQ0gyXVtDSF0oW0NIMl1bQ0gyXTEpW05IXUMoPU8pW05IXWMybltjSF1bY0hdW2NIXWMyW0NIM10=

> <s_epik_cmdline>
J2VwaWtfcHl0aG9uJywgJy1waCcsICc3LjAnLCAnLXRuJywgJzgnLCAnLW1hJywgJzIwMCcsICctbWV0YWxfYmluZGluZycsICctaW1hZScsICc8aW5maWxlLm1hZT4nLCAnLW9tYWUnLCAnPG91dGZpbGUubWFlPic=

> <r_lp_tautomer_probability>
1

> <r_epik_Ionization_Penalty>
5.94044e-05

> <r_epik_Ionization_Penalty_Charging>
0

> <r_epik_Ionization_Penalty_Neutral>
5.94044e-05

> <r_epik_State_Penalty>
-0

> <r_epik_Charging_Adjusted_Penalty>
0

> <i_epik_Tot_Q>
0

> <i_epik_Tot_abs_Q>
0

> <r_epik_Metal_State_Penalty>
-0

> <b_epik_Metal_Only>
0

> <s_lp_Force_Field>
OPLS_2005

> <r_lp_Energy>
26.4914

> <b_lp_Chiralities_Consistent>
1

> <s_lp_Variant>
AV-unprocessed.smi:1716-1

> <Gold.Version>
5.8.1

> <Gold.Id.Protein>
6NUR|6NUR_protein|mol2

> <Gold.PLP.Fitness>
41.4003

> <Gold.PLP.PLP>
-33.4931

> <Gold.PLP.part.hbond>
-4.4128

> <Gold.PLP.part.metal>
0.0000

> <Gold.PLP.part.buried>
1.5581

> <Gold.PLP.part.nonpolar>
-30.4616

> <Gold.PLP.part.repulsive>
0.1470

> <Gold.PLP.ligand.clash>
0.0000

> <Gold.PLP.ligand.torsion>
0.3185

> <Gold.PLP.Chemscore.Hbond>
2.8432

> <Gold.PLP.Chemscore.CHOScore>
0.0000

> <Gold.PLP.Chemscore.Metal>
0.0000

> <Gold.Chemscore.Hbonds>
donor molecule, donor type, donor heavy atom, donor atom, acceptor molecule, acceptor atom, score
      L1  H     8    29       P1  7948  1.00
      L1  H    11    30       P1  7948  0.30
      P1  H  7997  8008       L1     3  1.00

> <Gold.PLP.Chemscore.Internal.Correction>
0.0146

> <Gold.Rescore>
     Score         DG    S(hbond)    S(metal)    S(lipo)     H(rot)  DE(clash)    DE(int)     intcor
     15.44     -18.21       2.50        0.00      59.24       1.00       0.12       2.65       ----

> <Gold.Chemscore.Fitness>
15.4434

> <Gold.Chemscore.DG>
-18.2089

> <Gold.Chemscore.ZeroCoef>
-5.4800

> <Gold.Chemscore.Hbond>
2.5025

> <Gold.Chemscore.Metal>
0.0000

> <Gold.Chemscore.Lipo>
59.2361

> <Gold.Chemscore.Internal_Hbond>
0.0000

> <Gold.Chemscore.DEClash>
0.1200

> <Gold.Chemscore.DEInternal>
2.6455

> <Gold.Chemscore.Rot>
1.0000

> <Gold.Chemscore.Internal.Correction>
   9.000000E+99

> <Gold.Chemscore.Hbonds>
donor molecule, donor type, donor heavy atom, donor atom, acceptor molecule, acceptor atom, score
      L1  H     8    29       P1  7948  0.30
      P1  H  7997  8008       L1     3  0.81

> <Gold.Chemscore.Hbond.Weighted>
-8.3583

> <Gold.Chemscore.Metal.Weighted>
-0.0000

> <Gold.Chemscore.Lipo.Weighted>
-6.9306

> <Gold.Chemscore.Internal_Hbond.Weighted>
0.0000

> <Gold.Chemscore.DEClash.Weighted>
0.1200

> <Gold.Chemscore.DEInternal.Weighted>
2.6455

> <Gold.Chemscore.Rot.Weighted>
2.5600

> <Gold.Chemscore.Internal.Correction.Weighted>
   9.000000E+99

> <Gold.Protein.RotatedTorsions>
[ 6907 6896 6895 6894 ] final  -68.99 input  -60.11 | X-H torsion
[ 7974 7965 7964 7962 ] final  -92.31 input  175.53 | X-H torsion
[ 8008 7997 7996 7995 ] final  -78.36 input   59.86 | X-H torsion
[ 10167 10162 10161 10158 ] final  -84.52 input  -65.29 | X-H torsion
[ 10718 10713 10712 10709 ] final -140.56 input   66.30 | X-H torsion
[ 10763 10752 10751 10750 ] final  154.19 input  -60.55 | X-H torsion
[ 11005 11000 10999 10996 ] final  -71.69 input  -57.11 | X-H torsion

> <Gold.Protein.ActiveResidues>
 VAL166  LYS551  ARG553  GLY616  TRP617  ASP618  TYR619  PRO620  LYS621  CYS622 
 ASP623  PHE694  ASN695  SER759  ASP760  ASP761  ALA762  ILE779  LEU786  VAL792 
 PHE793  MET794  SER795  GLU796  ALA797  LYS798  CYS799  TRP800  GLU811  SER814 

> <Gold.Protein.RotatedAtoms>
  150.7328  134.5660  159.5865 H   0  0  0  0  0  0  0  0  0  0  0  0  # atno 6907 bound_to 6896
  152.3111  134.7493  160.0345 H   0  0  0  0  0  0  0  0  0  0  0  0  # atno 6908 bound_to 6896
  151.8041  133.3338  159.3572 H   0  0  0  0  0  0  0  0  0  0  0  0  # atno 6909 bound_to 6896
  145.4015  140.9538  143.2284 H   0  0  0  0  0  0  0  0  0  0  0  0  # atno 7974 bound_to 7965
  154.5682  140.0695  156.8924 H   0  0  0  0  0  0  0  0  0  0  0  0  # atno 8008 bound_to 7997
  155.2684  140.3363  155.4249 H   0  0  0  0  0  0  0  0  0  0  0  0  # atno 8009 bound_to 7997
  156.2097  140.1754  156.7707 H   0  0  0  0  0  0  0  0  0  0  0  0  # atno 8010 bound_to 7997
  140.4125  143.2617  151.8999 H   0  0  0  0  0  0  0  0  0  0  0  0  # atno 10167 bound_to 10162
  156.3238  130.7548  151.1652 H   0  0  0  0  0  0  0  0  0  0  0  0  # atno 10718 bound_to 10713
  154.1484  135.2816  155.3142 H   0  0  0  0  0  0  0  0  0  0  0  0  # atno 10763 bound_to 10752
  154.6236  135.5459  153.7605 H   0  0  0  0  0  0  0  0  0  0  0  0  # atno 10764 bound_to 10752
  153.0229  135.6445  154.1629 H   0  0  0  0  0  0  0  0  0  0  0  0  # atno 10765 bound_to 10752
  141.1596  133.6825  156.6944 H   0  0  0  0  0  0  0  0  0  0  0  0  # atno 11005 bound_to 11000
  144.8370  139.5533  143.6917 LP  0  0  0  0  0  0  0  0  0  0  0  0  # atno 17320 bound_to 7965
  146.2749  139.6728  142.9270 LP  0  0  0  0  0  0  0  0  0  0  0  0  # atno 17321 bound_to 7965
  139.4782  144.5522  151.8368 LP  0  0  0  0  0  0  0  0  0  0  0  0  # atno 17342 bound_to 10162
  140.4623  144.1705  150.5907 LP  0  0  0  0  0  0  0  0  0  0  0  0  # atno 17343 bound_to 10162
  157.7417  131.0500  150.5077 LP  0  0  0  0  0  0  0  0  0  0  0  0  # atno 17370 bound_to 10713
  156.5234  130.4167  149.6239 LP  0  0  0  0  0  0  0  0  0  0  0  0  # atno 17371 bound_to 10713
  140.3006  134.8167  157.4094 LP  0  0  0  0  0  0  0  0  0  0  0  0  # atno 17394 bound_to 11000
  140.1265  134.5151  155.8140 LP  0  0  0  0  0  0  0  0  0  0  0  0  # atno 17395 bound_to 11000

$$$$
