AV-unprocessed.smi:101|AV-procd|sdf|916|dock3
  -GOLD-   2262017413D 1   1.00000     0.00000
 Structure written by MMmdl.
 44 46  0  0  0  0  0  0  0  0  1 V2000
  144.6851  142.1539  158.0919 C   0  0  0  0  0  0  0  0  0  0  0  0
  145.0049  142.6208  156.6814 C   0  0  0  0  0  0  0  0  0  0  0  0
  146.0255  142.0963  155.9556 C   0  0  0  0  0  0  0  0  0  0  0  0
  146.3415  142.5033  154.6654 N   0  0  0  0  0  0  0  0  0  0  0  0
  147.4868  141.8928  153.8806 C   0  0  1  0  0  0  0  0  0  0  0  0
  148.6062  141.7665  154.7107 O   0  0  0  0  0  0  0  0  0  0  0  0
  148.8937  140.3897  154.9284 C   0  0  2  0  0  0  0  0  0  0  0  0
  150.3744  140.2016  155.2869 C   0  0  0  0  0  0  0  0  0  0  0  0
  150.8173  141.2676  156.1121 O   0  0  0  0  0  0  0  0  0  0  0  0
  151.7847  141.0606  157.0249 C   0  0  0  0  0  0  0  0  0  0  0  0
  152.4681  140.0360  157.0756 O   0  0  0  0  0  0  0  0  0  0  0  0
  151.9414  142.2035  157.9701 C   0  0  0  0  0  0  0  0  0  0  0  0
  151.3658  143.4545  157.6468 C   0  0  0  0  0  0  0  0  0  0  0  0
  151.4995  144.5523  158.5190 C   0  0  0  0  0  0  0  0  0  0  0  0
  152.2106  144.4128  159.7250 C   0  0  0  0  0  0  0  0  0  0  0  0
  152.7879  143.1737  160.0583 C   0  0  0  0  0  0  0  0  0  0  0  0
  152.6550  142.0743  159.1877 C   0  0  0  0  0  0  0  0  0  0  0  0
  148.4331  139.7177  153.6360 C   0  0  1  0  0  0  0  0  0  0  0  0
  148.2378  138.3228  153.7759 O   0  0  0  0  0  0  0  0  0  0  0  0
  147.1556  140.4878  153.3175 C   0  0  1  0  0  0  0  0  0  0  0  0
  146.0108  139.8943  153.9134 O   0  0  0  0  0  0  0  0  0  0  0  0
  145.5641  143.5041  154.0479 C   0  0  0  0  0  0  0  0  0  0  0  0
  145.7718  143.8943  152.8996 O   0  0  0  0  0  0  0  0  0  0  0  0
  144.5188  144.0453  154.7933 N   0  0  0  0  0  0  0  0  0  0  0  0
  144.1723  143.6747  156.0949 C   0  0  0  0  0  0  0  0  0  0  0  0
  143.2256  144.2276  156.6522 O   0  0  0  0  0  0  0  0  0  0  0  0
  143.9614  144.7638  154.3548 H   0  0  0  0  0  0  0  0  0  0  0  0
  145.3559  141.3583  158.4167 H   0  0  0  0  0  0  0  0  0  0  0  0
  143.6648  141.7728  158.1465 H   0  0  0  0  0  0  0  0  0  0  0  0
  144.7810  142.9803  158.7972 H   0  0  0  0  0  0  0  0  0  0  0  0
  146.6136  141.3180  156.4171 H   0  0  0  0  0  0  0  0  0  0  0  0
  147.7464  142.6174  153.1064 H   0  0  0  0  0  0  0  0  0  0  0  0
  148.2760  140.0415  155.7578 H   0  0  0  0  0  0  0  0  0  0  0  0
  150.5137  139.2523  155.8055 H   0  0  0  0  0  0  0  0  0  0  0  0
  150.9749  140.1685  154.3766 H   0  0  0  0  0  0  0  0  0  0  0  0
  150.8154  143.5862  156.7263 H   0  0  0  0  0  0  0  0  0  0  0  0
  151.0557  145.5025  158.2613 H   0  0  0  0  0  0  0  0  0  0  0  0
  152.3127  145.2551  160.3934 H   0  0  0  0  0  0  0  0  0  0  0  0
  153.3345  143.0655  160.9836 H   0  0  0  0  0  0  0  0  0  0  0  0
  153.1106  141.1377  159.4739 H   0  0  0  0  0  0  0  0  0  0  0  0
  149.1573  139.8950  152.8400 H   0  0  0  0  0  0  0  0  0  0  0  0
  148.4876  137.9022  152.9672 H   0  0  0  0  0  0  0  0  0  0  0  0
  146.9850  140.5563  152.2425 H   0  0  0  0  0  0  0  0  0  0  0  0
  145.2566  140.1055  153.3845 H   0  0  0  0  0  0  0  0  0  0  0  0
  1  2  1  0  0  0  0
  1 28  1  0  0  0  0
  1 29  1  0  0  0  0
  1 30  1  0  0  0  0
  2 25  1  0  0  0  0
  2  3  2  0  0  0  0
  3  4  1  0  0  0  0
  3 31  1  0  0  0  0
  4  5  1  0  0  0  0
  4 22  1  0  0  0  0
  5 20  1  0  0  0  0
  5  6  1  0  0  0  0
  5 32  1  0  0  0  0
  6  7  1  0  0  0  0
  7  8  1  0  0  0  0
  7 18  1  0  0  0  0
  7 33  1  0  0  0  0
  8  9  1  0  0  0  0
  8 34  1  0  0  0  0
  8 35  1  0  0  0  0
  9 10  1  0  0  0  0
 10 11  2  0  0  0  0
 10 12  1  0  0  0  0
 12 17  1  0  0  0  0
 12 13  2  0  0  0  0
 13 14  1  0  0  0  0
 13 36  1  0  0  0  0
 14 15  2  0  0  0  0
 14 37  1  0  0  0  0
 15 16  1  0  0  0  0
 15 38  1  0  0  0  0
 16 17  2  0  0  0  0
 16 39  1  0  0  0  0
 17 40  1  0  0  0  0
 18 19  1  0  0  0  0
 18 20  1  0  0  0  0
 18 41  1  0  0  0  0
 19 42  1  0  0  0  0
 20 21  1  0  0  0  0
 20 43  1  0  0  0  0
 21 44  1  0  0  0  0
 22 23  2  0  0  0  0
 22 24  1  0  0  0  0
 24 27  1  0  0  0  0
 24 25  1  0  0  0  0
 25 26  2  0  0  0  0
M  END
> <s_m_source_file>
AV-unprocessed.smi

> <i_m_source_file_index>
101

> <i_lp_mmshare_version>
43012

> <i_f3d_flags>
0

> <s_epik_input>
Tz1jMVtuSF1jKD1PKW4oW2NIXWMxW0NIM10pW0NAQEhdMk9bQ0BIXShbQ0BASF0oW09IXSlbQ0BIXTJbT0hdKVtDSDJdT0MoPU8pYzNbY0hdW2NIXVtjSF1bY0hdW2NIXTM=

> <s_epik_cmdline>
J2VwaWtfcHl0aG9uJywgJy1waCcsICc3LjAnLCAnLXRuJywgJzgnLCAnLW1hJywgJzIwMCcsICctbWV0YWxfYmluZGluZycsICctaW1hZScsICc8aW5maWxlLm1hZT4nLCAnLW9tYWUnLCAnPG91dGZpbGUubWFlPic=

> <r_lp_tautomer_probability>
0.999537

> <r_epik_Ionization_Penalty>
0.00263537

> <r_epik_Ionization_Penalty_Charging>
0.00263428

> <r_epik_Ionization_Penalty_Neutral>
1.09111e-06

> <r_epik_State_Penalty>
0.00183335

> <r_epik_Charging_Adjusted_Penalty>
0.00446763

> <i_epik_Tot_Q>
0

> <i_epik_Tot_abs_Q>
0

> <r_epik_Metal_State_Penalty>
1.00528

> <b_epik_Metal_Only>
0

> <s_epik_Chemistry_Notes>
This compound has an ester and may undergo hydrolysis at high or low pH. This compound contains an acetal/aminal-like group ( X-CH(R)-Y where X, Y are N, S, or O) that may be acid/base labile, releasing an aldehyde.

> <s_lp_Force_Field>
OPLS_2005

> <r_lp_Energy>
40.9392

> <b_lp_Chiralities_Consistent>
1

> <s_lp_Variant>
AV-unprocessed.smi:101-4

> <Gold.Version>
5.8.1

> <Gold.Id.Protein>
6NUR|6NUR_protein|mol2

> <Gold.PLP.Fitness>
52.5479

> <Gold.PLP.PLP>
-45.6351

> <Gold.PLP.part.hbond>
-3.8627

> <Gold.PLP.part.metal>
0.0000

> <Gold.PLP.part.buried>
-4.0223

> <Gold.PLP.part.nonpolar>
-38.4897

> <Gold.PLP.part.repulsive>
0.6077

> <Gold.PLP.ligand.clash>
0.0000

> <Gold.PLP.ligand.torsion>
1.1068

> <Gold.PLP.Chemscore.Hbond>
3.0000

> <Gold.PLP.Chemscore.CHOScore>
0.0000

> <Gold.PLP.Chemscore.Metal>
0.0000

> <Gold.Chemscore.Hbonds>
donor molecule, donor type, donor heavy atom, donor atom, acceptor molecule, acceptor atom, score
      L1  H    19    42       P1  7948  0.98
      L1  H    21    44       P1 10175  1.00
      P1  H  7997  8008       L1    11  1.00

> <Gold.PLP.Chemscore.Internal.Correction>
0.1264

> <Gold.Rescore>
     Score         DG    S(hbond)    S(metal)    S(lipo)     H(rot)  DE(clash)    DE(int)     intcor
     14.48     -18.02       2.92        0.00      96.36       3.32       1.48       2.07       ----

> <Gold.Chemscore.Fitness>
14.4765

> <Gold.Chemscore.DG>
-18.0211

> <Gold.Chemscore.ZeroCoef>
-5.4800

> <Gold.Chemscore.Hbond>
2.9219

> <Gold.Chemscore.Metal>
0.0000

> <Gold.Chemscore.Lipo>
96.3581

> <Gold.Chemscore.Internal_Hbond>
0.0000

> <Gold.Chemscore.DEClash>
1.4794

> <Gold.Chemscore.DEInternal>
2.0652

> <Gold.Chemscore.Rot>
3.3172

> <Gold.Chemscore.Internal.Correction>
   9.000000E+99

> <Gold.Chemscore.Hbonds>
donor molecule, donor type, donor heavy atom, donor atom, acceptor molecule, acceptor atom, score
      L1  H    19    42       P1  7948  0.90
      L1  H    21    44       P1 10175  1.00
      P1  H  7997  8008       L1    11  0.93

> <Gold.Chemscore.Hbond.Weighted>
-9.7593

> <Gold.Chemscore.Metal.Weighted>
-0.0000

> <Gold.Chemscore.Lipo.Weighted>
-11.2739

> <Gold.Chemscore.Internal_Hbond.Weighted>
0.0000

> <Gold.Chemscore.DEClash.Weighted>
1.4794

> <Gold.Chemscore.DEInternal.Weighted>
2.0652

> <Gold.Chemscore.Rot.Weighted>
8.4920

> <Gold.Chemscore.Internal.Correction.Weighted>
   9.000000E+99

> <Gold.Protein.RotatedTorsions>
[ 6907 6896 6895 6894 ] final  122.10 input  -60.11 | X-H torsion
[ 7974 7965 7964 7962 ] final  106.15 input  175.53 | X-H torsion
[ 8008 7997 7996 7995 ] final  -50.62 input   59.86 | X-H torsion
[ 10167 10162 10161 10158 ] final  112.27 input  -65.29 | X-H torsion
[ 10718 10713 10712 10709 ] final -114.54 input   66.30 | X-H torsion
[ 10763 10752 10751 10750 ] final   15.10 input  -60.55 | X-H torsion
[ 11005 11000 10999 10996 ] final -133.23 input  -57.11 | X-H torsion

> <Gold.Protein.ActiveResidues>
 VAL166  LYS551  ARG553  GLY616  TRP617  ASP618  TYR619  PRO620  LYS621  CYS622 
 ASP623  PHE694  ASN695  SER759  ASP760  ASP761  ALA762  ILE779  LEU786  VAL792 
 PHE793  MET794  SER795  GLU796  ALA797  LYS798  CYS799  TRP800  GLU811  SER814 

> <Gold.Protein.RotatedAtoms>
  152.4269  133.7211  159.6533 H   0  0  0  0  0  0  0  0  0  0  0  0  # atno 6907 bound_to 6896
  150.8146  133.8349  159.3172 H   0  0  0  0  0  0  0  0  0  0  0  0  # atno 6908 bound_to 6896
  151.6049  135.1047  160.0120 H   0  0  0  0  0  0  0  0  0  0  0  0  # atno 6909 bound_to 6896
  145.3104  139.2542  143.3766 H   0  0  0  0  0  0  0  0  0  0  0  0  # atno 7974 bound_to 7965
  154.4065  140.1268  156.4695 H   0  0  0  0  0  0  0  0  0  0  0  0  # atno 8008 bound_to 7997
  155.7193  140.3493  155.4989 H   0  0  0  0  0  0  0  0  0  0  0  0  # atno 8009 bound_to 7997
  155.9229  140.1056  157.1183 H   0  0  0  0  0  0  0  0  0  0  0  0  # atno 8010 bound_to 7997
  139.6548  144.7129  151.1978 H   0  0  0  0  0  0  0  0  0  0  0  0  # atno 10167 bound_to 10162
  156.0836  130.6032  150.8788 H   0  0  0  0  0  0  0  0  0  0  0  0  # atno 10718 bound_to 10713
  153.1558  135.6787  153.8814 H   0  0  0  0  0  0  0  0  0  0  0  0  # atno 10763 bound_to 10752
  153.8226  135.3128  155.3413 H   0  0  0  0  0  0  0  0  0  0  0  0  # atno 10764 bound_to 10752
  154.7896  135.4842  154.0111 H   0  0  0  0  0  0  0  0  0  0  0  0  # atno 10765 bound_to 10752
  140.9099  134.1581  157.4397 H   0  0  0  0  0  0  0  0  0  0  0  0  # atno 11005 bound_to 11000
  146.3120  140.3639  142.8667 LP  0  0  0  0  0  0  0  0  0  0  0  0  # atno 17320 bound_to 7965
  144.9020  140.7654  143.5861 LP  0  0  0  0  0  0  0  0  0  0  0  0  # atno 17321 bound_to 7965
  140.7554  143.6090  150.8624 LP  0  0  0  0  0  0  0  0  0  0  0  0  # atno 17342 bound_to 10162
  139.9742  143.6023  152.2964 LP  0  0  0  0  0  0  0  0  0  0  0  0  # atno 17343 bound_to 10162
  157.5963  131.0943  150.9036 LP  0  0  0  0  0  0  0  0  0  0  0  0  # atno 17370 bound_to 10713
  156.9202  130.5312  149.5279 LP  0  0  0  0  0  0  0  0  0  0  0  0  # atno 17371 bound_to 10713
  139.8756  134.9931  156.5631 LP  0  0  0  0  0  0  0  0  0  0  0  0  # atno 17394 bound_to 11000
  140.8123  133.8419  155.8821 LP  0  0  0  0  0  0  0  0  0  0  0  0  # atno 17395 bound_to 11000

$$$$
