AV-unprocessed.smi:1951|AV-procd|sdf|7881|dock9
  -GOLD-   2272010 33D 1   1.00000     0.00000
 Structure written by MMmdl.
 46 47  0  0  0  0  0  0  0  0  2 V2000
  140.2366  141.8676  154.2710 C   0  0  0  0  0  0  0  0  0  0  0  0
  140.7998  140.6219  153.8741 O   0  0  0  0  0  0  0  0  0  0  0  0
  139.9966  139.4977  153.8964 C   0  0  0  0  0  0  0  0  0  0  0  0
  138.7018  139.6365  154.2775 N   0  0  0  0  0  0  0  0  0  0  0  0
  137.9180  138.5391  154.3020 C   0  0  0  0  0  0  0  0  0  0  0  0
  138.3790  137.2549  153.9586 C   0  0  0  0  0  0  0  0  0  0  0  0
  139.7209  137.1084  153.5617 C   0  0  0  0  0  0  0  0  0  0  0  0
  140.5521  138.2539  153.5157 C   0  0  0  0  0  0  0  0  0  0  0  0
  141.9248  138.2127  153.1482 N   0  0  0  0  0  0  0  0  0  0  0  0
  142.7024  137.1344  152.9551 C   0  0  0  0  0  0  0  0  0  0  0  0
  142.3404  135.9638  153.0726 O   0  0  0  0  0  0  0  0  0  0  0  0
  143.9408  137.4889  152.5840 N   0  0  0  0  0  0  0  0  0  0  0  0
  145.0132  136.5543  152.2635 C   0  0  0  0  0  0  0  0  0  0  0  0
  144.6252  135.6377  151.0873 C   0  0  0  0  0  0  0  0  0  0  0  0
  144.7920  134.1985  151.4107 N   0  3  2  0  0  0  0  0  0  0  0  0
  146.2110  133.8448  151.6736 C   0  0  0  0  0  0  0  0  0  0  0  0
  146.3463  132.3835  152.1329 C   0  0  0  0  0  0  0  0  0  0  0  0
  145.7402  131.4168  151.1024 C   0  0  1  0  0  0  0  0  0  0  0  0
  145.8457  129.9562  151.5631 C   0  0  0  0  0  0  0  0  0  0  0  0
  144.2838  131.8242  150.8249 C   0  0  0  0  0  0  0  0  0  0  0  0
  144.1872  133.2975  150.3932 C   0  0  0  0  0  0  0  0  0  0  0  0
  140.9947  142.6466  154.1935 H   0  0  0  0  0  0  0  0  0  0  0  0
  139.8962  141.8399  155.3071 H   0  0  0  0  0  0  0  0  0  0  0  0
  139.4032  142.1524  153.6273 H   0  0  0  0  0  0  0  0  0  0  0  0
  136.8940  138.6880  154.6112 H   0  0  0  0  0  0  0  0  0  0  0  0
  137.7192  136.4012  154.0034 H   0  0  0  0  0  0  0  0  0  0  0  0
  140.0896  136.1244  153.3161 H   0  0  0  0  0  0  0  0  0  0  0  0
  142.3370  139.1067  152.9240 H   0  0  0  0  0  0  0  0  0  0  0  0
  144.1534  138.4735  152.5124 H   0  0  0  0  0  0  0  0  0  0  0  0
  145.9010  137.1325  152.0063 H   0  0  0  0  0  0  0  0  0  0  0  0
  145.2654  135.9804  153.1556 H   0  0  0  0  0  0  0  0  0  0  0  0
  143.5992  135.8217  150.7641 H   0  0  0  0  0  0  0  0  0  0  0  0
  145.2631  135.8935  150.2398 H   0  0  0  0  0  0  0  0  0  0  0  0
  146.8025  134.0134  150.7720 H   0  0  0  0  0  0  0  0  0  0  0  0
  146.6173  134.4981  152.4465 H   0  0  0  0  0  0  0  0  0  0  0  0
  147.3986  132.1463  152.2936 H   0  0  0  0  0  0  0  0  0  0  0  0
  145.8505  132.2573  153.0964 H   0  0  0  0  0  0  0  0  0  0  0  0
  146.3033  131.5124  150.1727 H   0  0  0  0  0  0  0  0  0  0  0  0
  145.2974  129.7913  152.4910 H   0  0  0  0  0  0  0  0  0  0  0  0
  146.8847  129.6740  151.7360 H   0  0  0  0  0  0  0  0  0  0  0  0
  145.4413  129.2773  150.8118 H   0  0  0  0  0  0  0  0  0  0  0  0
  143.8600  131.1868  150.0479 H   0  0  0  0  0  0  0  0  0  0  0  0
  143.6772  131.6663  151.7181 H   0  0  0  0  0  0  0  0  0  0  0  0
  143.1388  133.5492  150.2382 H   0  0  0  0  0  0  0  0  0  0  0  0
  144.6892  133.4398  149.4346 H   0  0  0  0  0  0  0  0  0  0  0  0
  144.2984  134.0404  152.2776 H   0  0  0  0  0  0  0  0  0  0  0  0
  1  2  1  0  0  0  0
  1 22  1  0  0  0  0
  1 23  1  0  0  0  0
  1 24  1  0  0  0  0
  2  3  1  0  0  0  0
  3  8  1  0  0  0  0
  3  4  2  0  0  0  0
  4  5  1  0  0  0  0
  5  6  2  0  0  0  0
  5 25  1  0  0  0  0
  6  7  1  0  0  0  0
  6 26  1  0  0  0  0
  7  8  2  0  0  0  0
  7 27  1  0  0  0  0
  8  9  1  0  0  0  0
  9 10  1  0  0  0  0
  9 28  1  0  0  0  0
 10 11  2  0  0  0  0
 10 12  1  0  0  0  0
 12 13  1  0  0  0  0
 12 29  1  0  0  0  0
 13 14  1  0  0  0  0
 13 30  1  0  0  0  0
 13 31  1  0  0  0  0
 14 15  1  0  0  0  0
 14 32  1  0  0  0  0
 14 33  1  0  0  0  0
 15 21  1  0  0  0  0
 15 16  1  0  0  0  0
 15 46  1  0  0  0  0
 16 17  1  0  0  0  0
 16 34  1  0  0  0  0
 16 35  1  0  0  0  0
 17 18  1  0  0  0  0
 17 36  1  0  0  0  0
 17 37  1  0  0  0  0
 18 19  1  0  0  0  0
 18 20  1  0  0  0  0
 18 38  1  0  0  0  0
 19 39  1  0  0  0  0
 19 40  1  0  0  0  0
 19 41  1  0  0  0  0
 20 21  1  0  0  0  0
 20 42  1  0  0  0  0
 20 43  1  0  0  0  0
 21 44  1  0  0  0  0
 21 45  1  0  0  0  0
M  CHG  1  15   1
M  END
> <s_m_source_file>
AV-unprocessed.smi

> <i_m_source_file_index>
1951

> <i_lp_mmshare_version>
43012

> <i_f3d_flags>
0

> <s_epik_input>
W0NIM11PYzFuW2NIXVtjSF1bY0hdYzFbTkhdQyg9TylbTkhdW0NIMl1bQ0gyXU4yW0NIMl1bQ0gyXVtDSF0oW0NIM10pW0NIMl1bQ0gyXTI=

> <s_epik_cmdline>
J2VwaWtfcHl0aG9uJywgJy1waCcsICc3LjAnLCAnLXRuJywgJzgnLCAnLW1hJywgJzIwMCcsICctbWV0YWxfYmluZGluZycsICctaW1hZScsICc8aW5maWxlLm1hZT4nLCAnLW9tYWUnLCAnPG91dGZpbGUubWFlPic=

> <r_lp_tautomer_probability>
1

> <r_epik_Ionization_Penalty>
0.00147101

> <r_epik_Ionization_Penalty_Charging>
0.00139388

> <r_epik_Ionization_Penalty_Neutral>
7.71355e-05

> <r_epik_State_Penalty>
0.000929204

> <r_epik_Charging_Adjusted_Penalty>
0.00232308

> <i_epik_Tot_Q>
1

> <i_epik_Tot_abs_Q>
1

> <r_epik_Metal_State_Penalty>
-0

> <b_epik_Metal_Only>
0

> <s_lp_Force_Field>
OPLS_2005

> <r_lp_Energy>
18.8997

> <b_lp_Chiralities_Consistent>
1

> <s_lp_Variant>
AV-unprocessed.smi:1951-1

> <Gold.Version>
5.8.1

> <Gold.Id.Protein>
6NUR|6NUR_protein|mol2

> <Gold.PLP.Fitness>
44.8565

> <Gold.PLP.PLP>
-39.6778

> <Gold.PLP.part.hbond>
-3.0000

> <Gold.PLP.part.metal>
0.0000

> <Gold.PLP.part.buried>
-7.3111

> <Gold.PLP.part.nonpolar>
-31.3570

> <Gold.PLP.part.repulsive>
1.8401

> <Gold.PLP.ligand.clash>
0.0000

> <Gold.PLP.ligand.torsion>
0.4199

> <Gold.PLP.Chemscore.Hbond>
2.0000

> <Gold.PLP.Chemscore.CHOScore>
0.0000

> <Gold.PLP.Chemscore.Metal>
0.0000

> <Gold.Chemscore.Hbonds>
donor molecule, donor type, donor heavy atom, donor atom, acceptor molecule, acceptor atom, score
      L1  H     9    28       P1 10175  1.00
      L1  H    12    29       P1 10175  1.00

> <Gold.PLP.Chemscore.Internal.Correction>
0.0186

> <Gold.Rescore>
     Score         DG    S(hbond)    S(metal)    S(lipo)     H(rot)  DE(clash)    DE(int)     intcor
     16.54     -18.32       1.92        0.00      92.25       1.71       0.09       1.69       ----

> <Gold.Chemscore.Fitness>
16.5380

> <Gold.Chemscore.DG>
-18.3200

> <Gold.Chemscore.ZeroCoef>
-5.4800

> <Gold.Chemscore.Hbond>
1.9239

> <Gold.Chemscore.Metal>
0.0000

> <Gold.Chemscore.Lipo>
92.2538

> <Gold.Chemscore.Internal_Hbond>
0.0000

> <Gold.Chemscore.DEClash>
0.0872

> <Gold.Chemscore.DEInternal>
1.6948

> <Gold.Chemscore.Rot>
1.7107

> <Gold.Chemscore.Internal.Correction>
   9.000000E+99

> <Gold.Chemscore.Hbonds>
donor molecule, donor type, donor heavy atom, donor atom, acceptor molecule, acceptor atom, score
      L1  H     9    28       P1 10175  0.99
      L1  H    12    29       P1 10175  0.91

> <Gold.Chemscore.Hbond.Weighted>
-6.4257

> <Gold.Chemscore.Metal.Weighted>
-0.0000

> <Gold.Chemscore.Lipo.Weighted>
-10.7937

> <Gold.Chemscore.Internal_Hbond.Weighted>
0.0000

> <Gold.Chemscore.DEClash.Weighted>
0.0872

> <Gold.Chemscore.DEInternal.Weighted>
1.6948

> <Gold.Chemscore.Rot.Weighted>
4.3794

> <Gold.Chemscore.Internal.Correction.Weighted>
   9.000000E+99

> <Gold.Protein.RotatedTorsions>
[ 6907 6896 6895 6894 ] final -109.38 input  -60.11 | X-H torsion
[ 7974 7965 7964 7962 ] final  114.71 input  175.53 | X-H torsion
[ 8008 7997 7996 7995 ] final  150.69 input   59.86 | X-H torsion
[ 10167 10162 10161 10158 ] final  -83.13 input  -65.29 | X-H torsion
[ 10718 10713 10712 10709 ] final   69.53 input   66.30 | X-H torsion
[ 10763 10752 10751 10750 ] final -165.65 input  -60.55 | X-H torsion
[ 11005 11000 10999 10996 ] final  -70.71 input  -57.11 | X-H torsion

> <Gold.Protein.ActiveResidues>
 VAL166  LYS551  ARG553  GLY616  TRP617  ASP618  TYR619  PRO620  LYS621  CYS622 
 ASP623  PHE694  ASN695  SER759  ASP760  ASP761  ALA762  ILE779  LEU786  VAL792 
 PHE793  MET794  SER795  GLU796  ALA797  LYS798  CYS799  TRP800  GLU811  SER814 

> <Gold.Protein.RotatedAtoms>
  150.7558  133.9538  159.3493 H   0  0  0  0  0  0  0  0  0  0  0  0  # atno 6907 bound_to 6896
  151.7457  135.0842  160.0332 H   0  0  0  0  0  0  0  0  0  0  0  0  # atno 6908 bound_to 6896
  152.3499  133.6130  159.5973 H   0  0  0  0  0  0  0  0  0  0  0  0  # atno 6909 bound_to 6896
  145.2010  139.2952  143.4318 H   0  0  0  0  0  0  0  0  0  0  0  0  # atno 7974 bound_to 7965
  156.2705  140.2068  156.6057 H   0  0  0  0  0  0  0  0  0  0  0  0  # atno 8008 bound_to 7997
  154.6871  140.0534  157.0349 H   0  0  0  0  0  0  0  0  0  0  0  0  # atno 8009 bound_to 7997
  155.0918  140.3197  155.4574 H   0  0  0  0  0  0  0  0  0  0  0  0  # atno 8010 bound_to 7997
  140.4255  143.2568  151.8831 H   0  0  0  0  0  0  0  0  0  0  0  0  # atno 10167 bound_to 10162
  157.6351  130.9430  150.0526 H   0  0  0  0  0  0  0  0  0  0  0  0  # atno 10718 bound_to 10713
  154.6911  135.2971  154.9478 H   0  0  0  0  0  0  0  0  0  0  0  0  # atno 10763 bound_to 10752
  154.0441  135.6653  153.4797 H   0  0  0  0  0  0  0  0  0  0  0  0  # atno 10764 bound_to 10752
  153.0613  135.5114  154.8004 H   0  0  0  0  0  0  0  0  0  0  0  0  # atno 10765 bound_to 10752
  141.1579  133.6797  156.6794 H   0  0  0  0  0  0  0  0  0  0  0  0  # atno 11005 bound_to 11000
  146.3417  140.2254  142.8592 LP  0  0  0  0  0  0  0  0  0  0  0  0  # atno 17320 bound_to 7965
  144.9948  140.8579  143.5317 LP  0  0  0  0  0  0  0  0  0  0  0  0  # atno 17321 bound_to 7965
  139.4783  144.5391  151.8555 LP  0  0  0  0  0  0  0  0  0  0  0  0  # atno 17342 bound_to 10162
  140.4486  144.1887  150.5896 LP  0  0  0  0  0  0  0  0  0  0  0  0  # atno 17343 bound_to 10162
  156.1583  130.3643  149.9336 LP  0  0  0  0  0  0  0  0  0  0  0  0  # atno 17370 bound_to 10713
  156.7340  130.9054  151.3628 LP  0  0  0  0  0  0  0  0  0  0  0  0  # atno 17371 bound_to 10713
  140.3114  134.8083  157.4179 LP  0  0  0  0  0  0  0  0  0  0  0  0  # atno 17394 bound_to 11000
  140.1175  134.5263  155.8212 LP  0  0  0  0  0  0  0  0  0  0  0  0  # atno 17395 bound_to 11000

$$$$
