AV-unprocessed.smi:2782|AV-procd|sdf|10722|dock8
  -GOLD-   2272015163D 1   1.00000     0.00000
 Structure written by MMmdl.
 38 39  0  0  0  0  0  0  0  0  1 V2000
  151.0883  145.2947  159.1087 C   0  0  0  0  0  0  0  0  0  0  0  0
  151.8232  144.0967  159.6739 C   0  0  0  0  0  0  0  0  0  0  0  0
  152.2333  144.0976  161.0210 C   0  0  0  0  0  0  0  0  0  0  0  0
  152.9094  142.9835  161.5499 C   0  0  0  0  0  0  0  0  0  0  0  0
  153.1806  141.8677  160.7349 C   0  0  0  0  0  0  0  0  0  0  0  0
  154.0051  140.5104  161.4139 Cl  0  0  0  0  0  0  0  0  0  0  0  0
  152.7839  141.8544  159.3792 C   0  0  0  0  0  0  0  0  0  0  0  0
  153.0977  140.7338  158.6393 O   0  0  0  0  0  0  0  0  0  0  0  0
  152.2639  140.3845  157.5416 C   0  0  0  0  0  0  0  0  0  0  0  0
  152.7882  139.0849  156.9036 C   0  0  1  0  0  0  0  0  0  0  0  0
  152.0598  137.9995  157.4400 O   0  0  0  0  0  0  0  0  0  0  0  0
  152.6506  139.0406  155.3640 C   0  0  0  0  0  0  0  0  0  0  0  0
  151.2536  139.0155  154.9137 N   0  0  0  0  0  0  0  0  0  0  0  0
  150.6554  140.2635  154.8499 N   0  0  0  0  0  0  0  0  0  0  0  0
  149.4364  140.3985  154.4425 C   0  0  0  0  0  0  0  0  0  0  0  0
  148.8808  141.7891  154.3669 C   0  0  0  0  0  0  0  0  0  0  0  0
  148.6719  139.2220  154.0758 C   0  0  0  0  0  0  0  0  0  0  0  0
  149.2567  138.0066  154.1410 C   0  0  0  0  0  0  0  0  0  0  0  0
  150.6426  137.8429  154.5743 C   0  0  0  0  0  0  0  0  0  0  0  0
  151.2093  136.7517  154.6266 O   0  0  0  0  0  0  0  0  0  0  0  0
  152.0938  142.9785  158.8581 C   0  0  0  0  0  0  0  0  0  0  0  0
  151.5299  146.2224  159.4738 H   0  0  0  0  0  0  0  0  0  0  0  0
  150.0411  145.2700  159.4104 H   0  0  0  0  0  0  0  0  0  0  0  0
  151.1315  145.3068  158.0192 H   0  0  0  0  0  0  0  0  0  0  0  0
  152.0279  144.9498  161.6523 H   0  0  0  0  0  0  0  0  0  0  0  0
  153.2196  142.9850  162.5847 H   0  0  0  0  0  0  0  0  0  0  0  0
  151.2494  140.2396  157.9172 H   0  0  0  0  0  0  0  0  0  0  0  0
  152.2348  141.1721  156.7869 H   0  0  0  0  0  0  0  0  0  0  0  0
  153.8297  138.9368  157.1912 H   0  0  0  0  0  0  0  0  0  0  0  0
  152.6243  137.5174  158.0245 H   0  0  0  0  0  0  0  0  0  0  0  0
  153.1613  139.8979  154.9213 H   0  0  0  0  0  0  0  0  0  0  0  0
  153.1764  138.1659  154.9757 H   0  0  0  0  0  0  0  0  0  0  0  0
  148.8312  142.2419  155.3575 H   0  0  0  0  0  0  0  0  0  0  0  0
  147.8748  141.7893  153.9466 H   0  0  0  0  0  0  0  0  0  0  0  0
  149.5054  142.4215  153.7348 H   0  0  0  0  0  0  0  0  0  0  0  0
  147.6474  139.3262  153.7503 H   0  0  0  0  0  0  0  0  0  0  0  0
  148.6877  137.1315  153.8636 H   0  0  0  0  0  0  0  0  0  0  0  0
  151.7593  143.0034  157.8323 H   0  0  0  0  0  0  0  0  0  0  0  0
  1  2  1  0  0  0  0
  1 22  1  0  0  0  0
  1 23  1  0  0  0  0
  1 24  1  0  0  0  0
  2 21  1  0  0  0  0
  2  3  2  0  0  0  0
  3  4  1  0  0  0  0
  3 25  1  0  0  0  0
  4  5  2  0  0  0  0
  4 26  1  0  0  0  0
  5  6  1  0  0  0  0
  5  7  1  0  0  0  0
  7  8  1  0  0  0  0
  7 21  2  0  0  0  0
  8  9  1  0  0  0  0
  9 10  1  0  0  0  0
  9 27  1  0  0  0  0
  9 28  1  0  0  0  0
 10 11  1  0  0  0  0
 10 12  1  0  0  0  0
 10 29  1  0  0  0  0
 11 30  1  0  0  0  0
 12 13  1  0  0  0  0
 12 31  1  0  0  0  0
 12 32  1  0  0  0  0
 13 19  1  0  0  0  0
 13 14  1  0  0  0  0
 14 15  2  0  0  0  0
 15 16  1  0  0  0  0
 15 17  1  0  0  0  0
 16 33  1  0  0  0  0
 16 34  1  0  0  0  0
 16 35  1  0  0  0  0
 17 18  2  0  0  0  0
 17 36  1  0  0  0  0
 18 19  1  0  0  0  0
 18 37  1  0  0  0  0
 19 20  2  0  0  0  0
 21 38  1  0  0  0  0
M  END
> <s_m_source_file>
AV-unprocessed.smi

> <i_m_source_file_index>
2782

> <i_lp_mmshare_version>
43012

> <i_f3d_flags>
0

> <s_epik_input>
W0NIM11jMVtjSF1bY0hdYyhDbCljKFtjSF0xKU9bQ0gyXVtDQEhdKFtPSF0pW0NIMl1uMm5jKFtDSDNdKVtjSF1bY0hdYzI9Tw==

> <s_epik_cmdline>
J2VwaWtfcHl0aG9uJywgJy1waCcsICc3LjAnLCAnLXRuJywgJzgnLCAnLW1hJywgJzIwMCcsICctbWV0YWxfYmluZGluZycsICctaW1hZScsICc8aW5maWxlLm1hZT4nLCAnLW9tYWUnLCAnPG91dGZpbGUubWFlPic=

> <r_lp_tautomer_probability>
1

> <r_epik_Ionization_Penalty>
2.96353e-07

> <r_epik_Ionization_Penalty_Charging>
1.79179e-07

> <r_epik_Ionization_Penalty_Neutral>
1.17174e-07

> <r_epik_State_Penalty>
-0

> <r_epik_Charging_Adjusted_Penalty>
1.79179e-07

> <i_epik_Tot_Q>
0

> <i_epik_Tot_abs_Q>
0

> <r_epik_Metal_State_Penalty>
-0

> <b_epik_Metal_Only>
0

> <s_lp_Force_Field>
OPLS_2005

> <r_lp_Energy>
25.2407

> <b_lp_Chiralities_Consistent>
1

> <s_lp_Variant>
AV-unprocessed.smi:2782-2

> <Gold.Version>
5.8.1

> <Gold.Id.Protein>
6NUR|6NUR_protein|mol2

> <Gold.PLP.Fitness>
49.6855

> <Gold.PLP.PLP>
-46.0464

> <Gold.PLP.part.hbond>
-2.6662

> <Gold.PLP.part.metal>
0.0000

> <Gold.PLP.part.buried>
2.7975

> <Gold.PLP.part.nonpolar>
-45.0080

> <Gold.PLP.part.repulsive>
0.2181

> <Gold.PLP.ligand.clash>
0.0000

> <Gold.PLP.ligand.torsion>
1.2043

> <Gold.PLP.Chemscore.Hbond>
2.0000

> <Gold.PLP.Chemscore.CHOScore>
0.0000

> <Gold.PLP.Chemscore.Metal>
0.0000

> <Gold.Chemscore.Hbonds>
donor molecule, donor type, donor heavy atom, donor atom, acceptor molecule, acceptor atom, score
      P1  H  7989  7998       L1    14  0.80
      P1  H 10752 10764       L1    20  0.88

> <Gold.PLP.Chemscore.Internal.Correction>
0.0477

> <Gold.Rescore>
     Score         DG    S(hbond)    S(metal)    S(lipo)     H(rot)  DE(clash)    DE(int)     intcor
     17.24     -20.02       1.38        0.00     133.47       2.22       1.69       1.09       ----

> <Gold.Chemscore.Fitness>
17.2428

> <Gold.Chemscore.DG>
-20.0184

> <Gold.Chemscore.ZeroCoef>
-5.4800

> <Gold.Chemscore.Hbond>
1.3788

> <Gold.Chemscore.Metal>
0.0000

> <Gold.Chemscore.Lipo>
133.4708

> <Gold.Chemscore.Internal_Hbond>
0.0000

> <Gold.Chemscore.DEClash>
1.6884

> <Gold.Chemscore.DEInternal>
1.0872

> <Gold.Chemscore.Rot>
2.2199

> <Gold.Chemscore.Internal.Correction>
   9.000000E+99

> <Gold.Chemscore.Hbonds>
donor molecule, donor type, donor heavy atom, donor atom, acceptor molecule, acceptor atom, score
      P1  H  7989  7998       L1    14  0.05
      P1  H 10752 10764       L1    20  0.85

> <Gold.Chemscore.Hbond.Weighted>
-4.6052

> <Gold.Chemscore.Metal.Weighted>
-0.0000

> <Gold.Chemscore.Lipo.Weighted>
-15.6161

> <Gold.Chemscore.Internal_Hbond.Weighted>
0.0000

> <Gold.Chemscore.DEClash.Weighted>
1.6884

> <Gold.Chemscore.DEInternal.Weighted>
1.0872

> <Gold.Chemscore.Rot.Weighted>
5.6829

> <Gold.Chemscore.Internal.Correction.Weighted>
   9.000000E+99

> <Gold.Protein.RotatedTorsions>
[ 6907 6896 6895 6894 ] final  -40.79 input  -60.11 | X-H torsion
[ 7974 7965 7964 7962 ] final  159.98 input  175.53 | X-H torsion
[ 8008 7997 7996 7995 ] final   47.74 input   59.86 | X-H torsion
[ 10167 10162 10161 10158 ] final  174.84 input  -65.29 | X-H torsion
[ 10718 10713 10712 10709 ] final  179.35 input   66.30 | X-H torsion
[ 10763 10752 10751 10750 ] final  -58.87 input  -60.55 | X-H torsion
[ 11005 11000 10999 10996 ] final    8.55 input  -57.11 | X-H torsion

> <Gold.Protein.ActiveResidues>
 VAL166  LYS551  ARG553  GLY616  TRP617  ASP618  TYR619  PRO620  LYS621  CYS622 
 ASP623  PHE694  ASN695  SER759  ASP760  ASP761  ALA762  ILE779  LEU786  VAL792 
 PHE793  MET794  SER795  GLU796  ALA797  LYS798  CYS799  TRP800  GLU811  SER814 

> <Gold.Protein.RotatedAtoms>
  150.9743  134.9111  159.7806 H   0  0  0  0  0  0  0  0  0  0  0  0  # atno 6907 bound_to 6896
  152.5201  134.3497  159.9256 H   0  0  0  0  0  0  0  0  0  0  0  0  # atno 6908 bound_to 6896
  151.3506  133.3886  159.2714 H   0  0  0  0  0  0  0  0  0  0  0  0  # atno 6909 bound_to 6896
  144.7761  139.7693  143.6278 H   0  0  0  0  0  0  0  0  0  0  0  0  # atno 7974 bound_to 7965
  155.3740  140.3425  155.4244 H   0  0  0  0  0  0  0  0  0  0  0  0  # atno 8008 bound_to 7997
  156.1647  140.1612  156.8586 H   0  0  0  0  0  0  0  0  0  0  0  0  # atno 8009 bound_to 7997
  154.5173  140.0775  156.8087 H   0  0  0  0  0  0  0  0  0  0  0  0  # atno 8010 bound_to 7997
  139.5156  144.3101  152.0300 H   0  0  0  0  0  0  0  0  0  0  0  0  # atno 10167 bound_to 10162
  156.8771  130.9803  151.3066 H   0  0  0  0  0  0  0  0  0  0  0  0  # atno 10718 bound_to 10713
  154.2449  135.6336  153.5220 H   0  0  0  0  0  0  0  0  0  0  0  0  # atno 10763 bound_to 10752
  152.9923  135.5551  154.5870 H   0  0  0  0  0  0  0  0  0  0  0  0  # atno 10764 bound_to 10752
  154.5384  135.2893  155.1092 H   0  0  0  0  0  0  0  0  0  0  0  0  # atno 10765 bound_to 10752
  140.5357  134.0423  155.7887 H   0  0  0  0  0  0  0  0  0  0  0  0  # atno 11005 bound_to 11000
  146.1941  139.5198  142.9786 LP  0  0  0  0  0  0  0  0  0  0  0  0  # atno 17320 bound_to 7965
  145.6182  141.0327  143.1929 LP  0  0  0  0  0  0  0  0  0  0  0  0  # atno 17321 bound_to 7965
  140.2546  144.4133  150.6209 LP  0  0  0  0  0  0  0  0  0  0  0  0  # atno 17342 bound_to 10162
  140.6201  143.2175  151.6712 LP  0  0  0  0  0  0  0  0  0  0  0  0  # atno 17343 bound_to 10162
  157.6162  130.8620  149.9032 LP  0  0  0  0  0  0  0  0  0  0  0  0  # atno 17370 bound_to 10713
  156.0696  130.3687  150.0804 LP  0  0  0  0  0  0  0  0  0  0  0  0  # atno 17371 bound_to 10713
  141.1256  133.9388  157.2642 LP  0  0  0  0  0  0  0  0  0  0  0  0  # atno 17394 bound_to 11000
  139.9531  135.0171  156.9050 LP  0  0  0  0  0  0  0  0  0  0  0  0  # atno 17395 bound_to 11000

$$$$
