AV-unprocessed.smi:2846|AV-procd|sdf|10952|dock4
  -GOLD-   2272015403D 1   1.00000     0.00000
 Structure written by MMmdl.
 49 51  0  0  0  0  0  0  0  0  2 V2000
  150.5308  140.6250  157.6585 O   0  0  0  0  0  0  0  0  0  0  0  0
  150.2808  141.7286  157.1732 C   0  0  0  0  0  0  0  0  0  0  0  0
  151.3096  142.8604  157.2313 C   0  0  0  0  0  0  0  0  0  0  0  0
  151.7126  143.3332  158.6187 C   0  0  0  0  0  0  0  0  0  0  0  0
  151.5815  144.6176  159.0042 C   0  0  0  0  0  0  0  0  0  0  0  0
  151.9576  145.1362  160.3807 C   0  0  0  0  0  0  0  0  0  0  0  0
  152.1672  143.9998  161.3957 C   0  0  0  0  0  0  0  0  0  0  0  0
  152.9807  142.8526  160.7833 C   0  0  0  0  0  0  0  0  0  0  0  0
  152.2821  142.2646  159.5438 C   0  0  0  0  0  0  0  0  0  0  0  0
  149.1212  142.0198  156.5646 N   0  0  0  0  0  0  0  0  0  0  0  0
  147.9981  141.0995  156.3929 C   0  0  0  0  0  0  0  0  0  0  0  0
  146.9031  141.6324  155.4257 C   0  0  0  0  0  0  0  0  0  0  0  0
  146.0830  142.7321  156.1190 C   0  0  0  0  0  0  0  0  0  0  0  0
  145.0576  143.4093  155.4148 C   0  0  0  0  0  0  0  0  0  0  0  0
  144.3000  144.4034  156.0663 C   0  0  0  0  0  0  0  0  0  0  0  0
  144.5491  144.6990  157.3595 N   0  3  0  0  0  0  0  0  0  0  0  0
  145.5054  144.0745  158.0785 C   0  0  0  0  0  0  0  0  0  0  0  0
  146.2945  143.0723  157.4787 C   0  0  0  0  0  0  0  0  0  0  0  0
  147.5007  142.0868  154.0742 C   0  0  0  0  0  0  0  0  0  0  0  0
  147.7539  140.8122  153.2648 C   0  0  0  0  0  0  0  0  0  0  0  0
  146.7555  139.7792  153.7973 C   0  0  0  0  0  0  0  0  0  0  0  0
  146.0133  140.4627  154.9532 C   0  0  0  0  0  0  0  0  0  0  0  0
  152.2045  142.5103  156.7149 H   0  0  0  0  0  0  0  0  0  0  0  0
  150.9460  143.7142  156.6579 H   0  0  0  0  0  0  0  0  0  0  0  0
  151.1974  145.3495  158.3088 H   0  0  0  0  0  0  0  0  0  0  0  0
  152.8694  145.7259  160.2807 H   0  0  0  0  0  0  0  0  0  0  0  0
  151.1796  145.8122  160.7362 H   0  0  0  0  0  0  0  0  0  0  0  0
  152.6622  144.3833  162.2883 H   0  0  0  0  0  0  0  0  0  0  0  0
  151.1984  143.6174  161.7197 H   0  0  0  0  0  0  0  0  0  0  0  0
  153.9665  143.2252  160.5014 H   0  0  0  0  0  0  0  0  0  0  0  0
  153.1476  142.0687  161.5226 H   0  0  0  0  0  0  0  0  0  0  0  0
  151.4631  141.6134  159.8504 H   0  0  0  0  0  0  0  0  0  0  0  0
  152.9886  141.6440  158.9913 H   0  0  0  0  0  0  0  0  0  0  0  0
  149.0031  142.9541  156.2000 H   0  0  0  0  0  0  0  0  0  0  0  0
  148.3519  140.1140  156.0869 H   0  0  0  0  0  0  0  0  0  0  0  0
  147.5634  140.9548  157.3826 H   0  0  0  0  0  0  0  0  0  0  0  0
  144.8444  143.1717  154.3832 H   0  0  0  0  0  0  0  0  0  0  0  0
  143.5053  144.9640  155.5960 H   0  0  0  0  0  0  0  0  0  0  0  0
  145.6075  144.3900  159.1066 H   0  0  0  0  0  0  0  0  0  0  0  0
  147.0472  142.5734  158.0708 H   0  0  0  0  0  0  0  0  0  0  0  0
  146.7610  142.6763  153.5297 H   0  0  0  0  0  0  0  0  0  0  0  0
  148.3909  142.7082  154.1667 H   0  0  0  0  0  0  0  0  0  0  0  0
  147.6372  140.9847  152.1945 H   0  0  0  0  0  0  0  0  0  0  0  0
  148.7734  140.4609  153.4291 H   0  0  0  0  0  0  0  0  0  0  0  0
  146.0616  139.4492  153.0234 H   0  0  0  0  0  0  0  0  0  0  0  0
  147.2886  138.8972  154.1543 H   0  0  0  0  0  0  0  0  0  0  0  0
  145.7542  139.7650  155.7503 H   0  0  0  0  0  0  0  0  0  0  0  0
  145.0752  140.8575  154.5591 H   0  0  0  0  0  0  0  0  0  0  0  0
  143.9884  145.4208  157.8133 H   0  0  0  0  0  0  0  0  0  0  0  0
  1  2  2  0  0  0  0
  2  3  1  0  0  0  0
  2 10  1  0  0  0  0
  3  4  1  0  0  0  0
  3 23  1  0  0  0  0
  3 24  1  0  0  0  0
  4  9  1  0  0  0  0
  4  5  2  0  0  0  0
  5  6  1  0  0  0  0
  5 25  1  0  0  0  0
  6  7  1  0  0  0  0
  6 26  1  0  0  0  0
  6 27  1  0  0  0  0
  7  8  1  0  0  0  0
  7 28  1  0  0  0  0
  7 29  1  0  0  0  0
  8  9  1  0  0  0  0
  8 30  1  0  0  0  0
  8 31  1  0  0  0  0
  9 32  1  0  0  0  0
  9 33  1  0  0  0  0
 10 11  1  0  0  0  0
 10 34  1  0  0  0  0
 11 12  1  0  0  0  0
 11 35  1  0  0  0  0
 11 36  1  0  0  0  0
 12 22  1  0  0  0  0
 12 13  1  0  0  0  0
 12 19  1  0  0  0  0
 13 18  1  0  0  0  0
 13 14  2  0  0  0  0
 14 15  1  0  0  0  0
 14 37  1  0  0  0  0
 15 16  2  0  0  0  0
 15 38  1  0  0  0  0
 16 17  1  0  0  0  0
 16 49  1  0  0  0  0
 17 18  2  0  0  0  0
 17 39  1  0  0  0  0
 18 40  1  0  0  0  0
 19 20  1  0  0  0  0
 19 41  1  0  0  0  0
 19 42  1  0  0  0  0
 20 21  1  0  0  0  0
 20 43  1  0  0  0  0
 20 44  1  0  0  0  0
 21 22  1  0  0  0  0
 21 45  1  0  0  0  0
 21 46  1  0  0  0  0
 22 47  1  0  0  0  0
 22 48  1  0  0  0  0
M  CHG  1  16   1
M  END
> <s_m_source_file>
AV-unprocessed.smi

> <i_m_source_file_index>
2846

> <i_lp_mmshare_version>
43012

> <i_f3d_flags>
0

> <s_epik_input>
W0NIMl0xW0NIMl1bQ0gyXVtDSDJdW0NIXT1DMVtDSDJdQyg9TylbTkhdW0NIMl1DMihbQ0gyXVtDSDJdW0NIMl1bQ0gyXTIpYzNbY0hdW2NIXW5bY0hdW2NIXTM=

> <s_epik_cmdline>
J2VwaWtfcHl0aG9uJywgJy1waCcsICc3LjAnLCAnLXRuJywgJzgnLCAnLW1hJywgJzIwMCcsICctbWV0YWxfYmluZGluZycsICctaW1hZScsICc8aW5maWxlLm1hZT4nLCAnLW9tYWUnLCAnPG91dGZpbGUubWFlPic=

> <r_epik_Ionization_Penalty>
1.37043

> <r_epik_Ionization_Penalty_Charging>
1.37043

> <r_epik_Ionization_Penalty_Neutral>
1.66368e-08

> <r_epik_State_Penalty>
1.45009

> <r_epik_Charging_Adjusted_Penalty>
2.82052

> <i_epik_Tot_Q>
1

> <i_epik_Tot_abs_Q>
1

> <r_epik_Metal_State_Penalty>
1.50668

> <b_epik_Metal_Only>
0

> <s_lp_Force_Field>
OPLS_2005

> <r_lp_Energy>
37.4584

> <b_lp_Chiralities_Consistent>
1

> <s_lp_Variant>
AV-unprocessed.smi:2846-2

> <Gold.Version>
5.8.1

> <Gold.Id.Protein>
6NUR|6NUR_protein|mol2

> <Gold.PLP.Fitness>
46.5503

> <Gold.PLP.PLP>
-44.0619

> <Gold.PLP.part.hbond>
-1.0000

> <Gold.PLP.part.metal>
0.0000

> <Gold.PLP.part.buried>
-5.0822

> <Gold.PLP.part.nonpolar>
-37.9430

> <Gold.PLP.part.repulsive>
0.0281

> <Gold.PLP.ligand.clash>
0.0000

> <Gold.PLP.ligand.torsion>
0.3126

> <Gold.PLP.Chemscore.Hbond>
1.0000

> <Gold.PLP.Chemscore.CHOScore>
0.0000

> <Gold.PLP.Chemscore.Metal>
0.0000

> <Gold.Chemscore.Hbonds>
donor molecule, donor type, donor heavy atom, donor atom, acceptor molecule, acceptor atom, score
      L1  H    10    34       P1  8028  1.00

> <Gold.PLP.Chemscore.Internal.Correction>
0.1136

> <Gold.Rescore>
     Score         DG    S(hbond)    S(metal)    S(lipo)     H(rot)  DE(clash)    DE(int)     intcor
     18.99     -19.35       1.00        0.00     122.01       1.46       0.10       0.25       ----

> <Gold.Chemscore.Fitness>
18.9902

> <Gold.Chemscore.DG>
-19.3482

> <Gold.Chemscore.ZeroCoef>
-5.4800

> <Gold.Chemscore.Hbond>
0.9992

> <Gold.Chemscore.Metal>
0.0000

> <Gold.Chemscore.Lipo>
122.0075

> <Gold.Chemscore.Internal_Hbond>
0.0000

> <Gold.Chemscore.DEClash>
0.1036

> <Gold.Chemscore.DEInternal>
0.2544

> <Gold.Chemscore.Rot>
1.4625

> <Gold.Chemscore.Internal.Correction>
   9.000000E+99

> <Gold.Chemscore.Hbonds>
donor molecule, donor type, donor heavy atom, donor atom, acceptor molecule, acceptor atom, score
      L1  H    10    34       P1  8028  1.00

> <Gold.Chemscore.Hbond.Weighted>
-3.3374

> <Gold.Chemscore.Metal.Weighted>
-0.0000

> <Gold.Chemscore.Lipo.Weighted>
-14.2749

> <Gold.Chemscore.Internal_Hbond.Weighted>
0.0000

> <Gold.Chemscore.DEClash.Weighted>
0.1036

> <Gold.Chemscore.DEInternal.Weighted>
0.2544

> <Gold.Chemscore.Rot.Weighted>
3.7441

> <Gold.Chemscore.Internal.Correction.Weighted>
   9.000000E+99

> <Gold.Protein.RotatedTorsions>
[ 6907 6896 6895 6894 ] final   82.52 input  -60.11 | X-H torsion
[ 7974 7965 7964 7962 ] final -176.43 input  175.53 | X-H torsion
[ 8008 7997 7996 7995 ] final  106.53 input   59.86 | X-H torsion
[ 10167 10162 10161 10158 ] final   45.52 input  -65.29 | X-H torsion
[ 10718 10713 10712 10709 ] final  -93.43 input   66.30 | X-H torsion
[ 10763 10752 10751 10750 ] final  117.65 input  -60.55 | X-H torsion
[ 11005 11000 10999 10996 ] final   86.92 input  -57.11 | X-H torsion

> <Gold.Protein.ActiveResidues>
 VAL166  LYS551  ARG553  GLY616  TRP617  ASP618  TYR619  PRO620  LYS621  CYS622 
 ASP623  PHE694  ASN695  SER759  ASP760  ASP761  ALA762  ILE779  LEU786  VAL792 
 PHE793  MET794  SER795  GLU796  ALA797  LYS798  CYS799  TRP800  GLU811  SER814 

> <Gold.Protein.RotatedAtoms>
  152.5301  134.3037  159.9087 H   0  0  0  0  0  0  0  0  0  0  0  0  # atno 6907 bound_to 6896
  151.2988  133.4125  159.2646 H   0  0  0  0  0  0  0  0  0  0  0  0  # atno 6908 bound_to 6896
  151.0137  134.9432  159.8078 H   0  0  0  0  0  0  0  0  0  0  0  0  # atno 6909 bound_to 6896
  144.7127  140.1172  143.6407 H   0  0  0  0  0  0  0  0  0  0  0  0  # atno 7974 bound_to 7965
  156.1751  140.3111  155.9044 H   0  0  0  0  0  0  0  0  0  0  0  0  # atno 8008 bound_to 7997
  155.3505  140.0471  157.3063 H   0  0  0  0  0  0  0  0  0  0  0  0  # atno 8009 bound_to 7997
  154.5281  140.2221  155.8863 H   0  0  0  0  0  0  0  0  0  0  0  0  # atno 8010 bound_to 7997
  140.3233  144.2679  150.6179 H   0  0  0  0  0  0  0  0  0  0  0  0  # atno 10167 bound_to 10162
  156.0013  130.5026  150.5775 H   0  0  0  0  0  0  0  0  0  0  0  0  # atno 10718 bound_to 10713
  153.5556  135.3531  155.2778 H   0  0  0  0  0  0  0  0  0  0  0  0  # atno 10763 bound_to 10752
  154.8701  135.4124  154.2887 H   0  0  0  0  0  0  0  0  0  0  0  0  # atno 10764 bound_to 10752
  153.3623  135.7060  153.6771 H   0  0  0  0  0  0  0  0  0  0  0  0  # atno 10765 bound_to 10752
  139.8932  134.8388  156.2788 H   0  0  0  0  0  0  0  0  0  0  0  0  # atno 11005 bound_to 11000
  145.9403  139.2664  143.1273 LP  0  0  0  0  0  0  0  0  0  0  0  0  # atno 17320 bound_to 7965
  145.9431  140.8965  143.0297 LP  0  0  0  0  0  0  0  0  0  0  0  0  # atno 17321 bound_to 7965
  140.5464  143.2214  151.8000 LP  0  0  0  0  0  0  0  0  0  0  0  0  # atno 17342 bound_to 10162
  139.4870  144.4534  151.9627 LP  0  0  0  0  0  0  0  0  0  0  0  0  # atno 17343 bound_to 10162
  157.3660  131.0758  151.1597 LP  0  0  0  0  0  0  0  0  0  0  0  0  # atno 17370 bound_to 10713
  157.2366  130.6550  149.5872 LP  0  0  0  0  0  0  0  0  0  0  0  0  # atno 17371 bound_to 10713
  141.0052  133.7128  156.1023 LP  0  0  0  0  0  0  0  0  0  0  0  0  # atno 17394 bound_to 11000
  140.7443  134.4115  157.5550 LP  0  0  0  0  0  0  0  0  0  0  0  0  # atno 17395 bound_to 11000

$$$$
