AV-unprocessed.smi:1147|AV-procd|sdf|4888|dock1
  -GOLD-   22720 3463D 1   1.00000     0.00000
 Structure written by MMmdl.
 41 42  0  0  0  0  0  0  0  0  1 V2000
  155.8537  135.6378  165.0355 C   0  0  0  0  0  0  0  0  0  0  0  0
  155.8652  135.3557  163.5315 C   0  0  0  0  0  0  0  0  0  0  0  0
  156.3810  134.3065  163.1461 O   0  0  0  0  0  0  0  0  0  0  0  0
  155.3157  136.2573  162.6823 N   0  0  0  0  0  0  0  0  0  0  0  0
  154.7188  137.5448  163.0737 C   0  0  0  0  0  0  0  0  0  0  0  0
  155.5237  138.6908  162.4284 C   0  0  0  0  0  0  0  0  0  0  0  0
  155.5119  138.5151  160.9637 N   0  0  0  0  0  0  0  0  0  0  0  0
  154.8599  139.2953  160.0649 C   0  0  0  0  0  0  0  0  0  0  0  0
  154.8634  139.0752  158.8528 O   0  0  0  0  0  0  0  0  0  0  0  0
  154.2330  140.3596  160.5954 N   0  0  0  0  0  0  0  0  0  0  0  0
  153.4734  141.3619  159.8530 C   0  0  1  0  0  0  0  0  0  0  0  0
  152.1247  140.7732  159.3993 C   0  0  0  0  0  0  0  0  0  0  0  0
  153.3242  142.6255  160.7237 C   0  0  0  0  0  0  0  0  0  0  0  0
  152.4695  143.6296  160.1155 N   0  0  0  0  0  0  0  0  0  0  0  0
  151.5650  144.4683  160.7320 C   0  0  0  0  0  0  0  0  0  0  0  0
  150.9973  145.2397  159.7590 C   0  0  0  0  0  0  0  0  0  0  0  0
  151.6256  144.7917  158.5634 C   0  0  0  0  0  0  0  0  0  0  0  0
  152.5039  143.8260  158.7795 N   0  0  0  0  0  0  0  0  0  0  0  0
  156.1291  137.2358  160.5836 C   0  0  0  0  0  0  0  0  0  0  0  0
  155.3276  136.0835  161.2213 C   0  0  0  0  0  0  0  0  0  0  0  0
  156.3986  136.5549  165.2614 H   0  0  0  0  0  0  0  0  0  0  0  0
  156.3319  134.8245  165.5825 H   0  0  0  0  0  0  0  0  0  0  0  0
  154.8319  135.7301  165.4045 H   0  0  0  0  0  0  0  0  0  0  0  0
  153.6833  137.5745  162.7310 H   0  0  0  0  0  0  0  0  0  0  0  0
  154.6763  137.6989  164.1505 H   0  0  0  0  0  0  0  0  0  0  0  0
  155.1212  139.6461  162.7645 H   0  0  0  0  0  0  0  0  0  0  0  0
  156.5558  138.6689  162.7821 H   0  0  0  0  0  0  0  0  0  0  0  0
  154.2860  140.4824  161.5961 H   0  0  0  0  0  0  0  0  0  0  0  0
  154.0392  141.6403  158.9619 H   0  0  0  0  0  0  0  0  0  0  0  0
  151.5702  141.4772  158.7786 H   0  0  0  0  0  0  0  0  0  0  0  0
  151.4978  140.5172  160.2540 H   0  0  0  0  0  0  0  0  0  0  0  0
  152.2666  139.8680  158.8082 H   0  0  0  0  0  0  0  0  0  0  0  0
  152.9220  142.3656  161.7047 H   0  0  0  0  0  0  0  0  0  0  0  0
  154.3011  143.0783  160.8990 H   0  0  0  0  0  0  0  0  0  0  0  0
  151.4048  144.4476  161.8001 H   0  0  0  0  0  0  0  0  0  0  0  0
  150.2474  146.0070  159.8823 H   0  0  0  0  0  0  0  0  0  0  0  0
  151.4697  145.1365  157.5518 H   0  0  0  0  0  0  0  0  0  0  0  0
  156.1800  137.0955  159.5030 H   0  0  0  0  0  0  0  0  0  0  0  0
  157.1623  137.2161  160.9337 H   0  0  0  0  0  0  0  0  0  0  0  0
  155.7570  135.1301  160.9116 H   0  0  0  0  0  0  0  0  0  0  0  0
  154.3015  136.0850  160.8504 H   0  0  0  0  0  0  0  0  0  0  0  0
  1  2  1  0  0  0  0
  1 21  1  0  0  0  0
  1 22  1  0  0  0  0
  1 23  1  0  0  0  0
  2  3  2  0  0  0  0
  2  4  1  0  0  0  0
  4 20  1  0  0  0  0
  4  5  1  0  0  0  0
  5  6  1  0  0  0  0
  5 24  1  0  0  0  0
  5 25  1  0  0  0  0
  6  7  1  0  0  0  0
  6 26  1  0  0  0  0
  6 27  1  0  0  0  0
  7  8  1  0  0  0  0
  7 19  1  0  0  0  0
  8  9  2  0  0  0  0
  8 10  1  0  0  0  0
 10 11  1  0  0  0  0
 10 28  1  0  0  0  0
 11 12  1  0  0  0  0
 11 13  1  0  0  0  0
 11 29  1  0  0  0  0
 12 30  1  0  0  0  0
 12 31  1  0  0  0  0
 12 32  1  0  0  0  0
 13 14  1  0  0  0  0
 13 33  1  0  0  0  0
 13 34  1  0  0  0  0
 14 18  1  0  0  0  0
 14 15  1  0  0  0  0
 15 16  2  0  0  0  0
 15 35  1  0  0  0  0
 16 17  1  0  0  0  0
 16 36  1  0  0  0  0
 17 18  2  0  0  0  0
 17 37  1  0  0  0  0
 19 20  1  0  0  0  0
 19 38  1  0  0  0  0
 19 39  1  0  0  0  0
 20 40  1  0  0  0  0
 20 41  1  0  0  0  0
M  END
> <s_m_source_file>
AV-unprocessed.smi

> <i_m_source_file_index>
1147

> <i_lp_mmshare_version>
43012

> <i_f3d_flags>
0

> <s_epik_input>
W0NIM11DKD1PKU4xW0NIMl1bQ0gyXU4oW0NIMl1bQ0gyXTEpQyg9TylbTkhdW0NASF0oW0NIM10pW0NIMl1uMltjSF1bY0hdW2NIXW4y

> <s_epik_cmdline>
J2VwaWtfcHl0aG9uJywgJy1waCcsICc3LjAnLCAnLXRuJywgJzgnLCAnLW1hJywgJzIwMCcsICctbWV0YWxfYmluZGluZycsICctaW1hZScsICc8aW5maWxlLm1hZT4nLCAnLW9tYWUnLCAnPG91dGZpbGUubWFlPic=

> <r_lp_tautomer_probability>
1

> <r_epik_Ionization_Penalty>
5.58143e-05

> <r_epik_Ionization_Penalty_Charging>
0

> <r_epik_Ionization_Penalty_Neutral>
5.58143e-05

> <r_epik_State_Penalty>
-0

> <r_epik_Charging_Adjusted_Penalty>
0

> <i_epik_Tot_Q>
0

> <i_epik_Tot_abs_Q>
0

> <r_epik_Metal_State_Penalty>
-0

> <b_epik_Metal_Only>
0

> <s_lp_Force_Field>
OPLS_2005

> <r_lp_Energy>
47.733

> <b_lp_Chiralities_Consistent>
1

> <s_lp_Variant>
AV-unprocessed.smi:1147-2

> <Gold.Version>
5.8.1

> <Gold.Id.Protein>
6NUR|6NUR_protein|mol2

> <Gold.PLP.Fitness>
43.9297

> <Gold.PLP.PLP>
-42.0097

> <Gold.PLP.part.hbond>
-1.0000

> <Gold.PLP.part.metal>
0.0000

> <Gold.PLP.part.buried>
-5.5368

> <Gold.PLP.part.nonpolar>
-36.5932

> <Gold.PLP.part.repulsive>
0.0416

> <Gold.PLP.ligand.clash>
0.0000

> <Gold.PLP.ligand.torsion>
0.5740

> <Gold.PLP.Chemscore.Hbond>
1.0000

> <Gold.PLP.Chemscore.CHOScore>
0.0000

> <Gold.PLP.Chemscore.Metal>
0.0000

> <Gold.Chemscore.Hbonds>
donor molecule, donor type, donor heavy atom, donor atom, acceptor molecule, acceptor atom, score
      P1  H  7997  8010       L1     9  1.00

> <Gold.PLP.Chemscore.Internal.Correction>
0.0680

> <Gold.Rescore>
     Score         DG    S(hbond)    S(metal)    S(lipo)     H(rot)  DE(clash)    DE(int)     intcor
     16.29     -16.81       1.00        0.00     100.30       1.46       0.07       0.44       ----

> <Gold.Chemscore.Fitness>
16.2919

> <Gold.Chemscore.DG>
-16.8069

> <Gold.Chemscore.ZeroCoef>
-5.4800

> <Gold.Chemscore.Hbond>
0.9999

> <Gold.Chemscore.Metal>
0.0000

> <Gold.Chemscore.Lipo>
100.2999

> <Gold.Chemscore.Internal_Hbond>
0.0000

> <Gold.Chemscore.DEClash>
0.0748

> <Gold.Chemscore.DEInternal>
0.4402

> <Gold.Chemscore.Rot>
1.4640

> <Gold.Chemscore.Internal.Correction>
   9.000000E+99

> <Gold.Chemscore.Hbonds>
donor molecule, donor type, donor heavy atom, donor atom, acceptor molecule, acceptor atom, score
      P1  H  7997  8010       L1     9  1.00

> <Gold.Chemscore.Hbond.Weighted>
-3.3395

> <Gold.Chemscore.Metal.Weighted>
-0.0000

> <Gold.Chemscore.Lipo.Weighted>
-11.7351

> <Gold.Chemscore.Internal_Hbond.Weighted>
0.0000

> <Gold.Chemscore.DEClash.Weighted>
0.0748

> <Gold.Chemscore.DEInternal.Weighted>
0.4402

> <Gold.Chemscore.Rot.Weighted>
3.7477

> <Gold.Chemscore.Internal.Correction.Weighted>
   9.000000E+99

> <Gold.Protein.RotatedTorsions>
[ 6907 6896 6895 6894 ] final  -47.26 input  -60.11 | X-H torsion
[ 7974 7965 7964 7962 ] final -104.98 input  175.53 | X-H torsion
[ 8008 7997 7996 7995 ] final   -0.74 input   59.86 | X-H torsion
[ 10167 10162 10161 10158 ] final -145.92 input  -65.29 | X-H torsion
[ 10718 10713 10712 10709 ] final  -60.85 input   66.30 | X-H torsion
[ 10763 10752 10751 10750 ] final -119.37 input  -60.55 | X-H torsion
[ 11005 11000 10999 10996 ] final  -77.69 input  -57.11 | X-H torsion

> <Gold.Protein.ActiveResidues>
 VAL166  LYS551  ARG553  GLY616  TRP617  ASP618  TYR619  PRO620  LYS621  CYS622 
 ASP623  PHE694  ASN695  SER759  ASP760  ASP761  ALA762  ILE779  LEU786  VAL792 
 PHE793  MET794  SER795  GLU796  ALA797  LYS798  CYS799  TRP800  GLU811  SER814 

> <Gold.Protein.RotatedAtoms>
  150.9026  134.8439  159.7370 H   0  0  0  0  0  0  0  0  0  0  0  0  # atno 6907 bound_to 6896
  152.4901  134.4479  159.9575 H   0  0  0  0  0  0  0  0  0  0  0  0  # atno 6908 bound_to 6896
  151.4530  133.3573  159.2833 H   0  0  0  0  0  0  0  0  0  0  0  0  # atno 6909 bound_to 6896
  145.2362  140.9189  143.3176 H   0  0  0  0  0  0  0  0  0  0  0  0  # atno 7974 bound_to 7965
  154.6546  140.2576  155.7175 H   0  0  0  0  0  0  0  0  0  0  0  0  # atno 8008 bound_to 7997
  156.2591  140.2861  156.0915 H   0  0  0  0  0  0  0  0  0  0  0  0  # atno 8009 bound_to 7997
  155.1399  140.0380  157.2786 H   0  0  0  0  0  0  0  0  0  0  0  0  # atno 8010 bound_to 7997
  139.7761  143.8167  152.2632 H   0  0  0  0  0  0  0  0  0  0  0  0  # atno 10167 bound_to 10162
  156.0962  130.4192  150.0912 H   0  0  0  0  0  0  0  0  0  0  0  0  # atno 10718 bound_to 10713
  154.8615  135.4240  154.2288 H   0  0  0  0  0  0  0  0  0  0  0  0  # atno 10763 bound_to 10752
  153.3278  135.6986  153.6980 H   0  0  0  0  0  0  0  0  0  0  0  0  # atno 10764 bound_to 10752
  153.6009  135.3537  155.2918 H   0  0  0  0  0  0  0  0  0  0  0  0  # atno 10765 bound_to 10752
  141.1661  133.7033  156.7859 H   0  0  0  0  0  0  0  0  0  0  0  0  # atno 11005 bound_to 11000
  144.9631  139.3959  143.6346 LP  0  0  0  0  0  0  0  0  0  0  0  0  # atno 17320 bound_to 7965
  146.3340  139.8693  142.8843 LP  0  0  0  0  0  0  0  0  0  0  0  0  # atno 17321 bound_to 7965
  139.8216  144.7293  150.9565 LP  0  0  0  0  0  0  0  0  0  0  0  0  # atno 17342 bound_to 10162
  140.7816  143.4154  151.0926 LP  0  0  0  0  0  0  0  0  0  0  0  0  # atno 17343 bound_to 10162
  156.8910  130.9588  151.3588 LP  0  0  0  0  0  0  0  0  0  0  0  0  # atno 17370 bound_to 10713
  157.6123  130.8592  149.8971 LP  0  0  0  0  0  0  0  0  0  0  0  0  # atno 17371 bound_to 10713
  140.2361  134.8649  157.3526 LP  0  0  0  0  0  0  0  0  0  0  0  0  # atno 17394 bound_to 11000
  140.1843  134.4451  155.7753 LP  0  0  0  0  0  0  0  0  0  0  0  0  # atno 17395 bound_to 11000

$$$$
