AV-unprocessed.smi:1570|AV-procd|sdf|6317|dock5
  -GOLD-   22720 6523D 1   1.00000     0.00000
 Structure written by MMmdl.
 51 53  0  0  0  0  0  0  0  0  1 V2000
  153.8017  141.8537  162.1895 C   0  0  0  0  0  0  0  0  0  0  0  0
  154.2075  141.2792  160.8266 C   0  0  0  0  0  0  0  0  0  0  0  0
  153.1068  141.3615  159.8699 N   0  0  0  0  0  0  0  0  0  0  0  0
  152.6642  140.3700  159.0613 C   0  0  0  0  0  0  0  0  0  0  0  0
  153.1102  139.2238  159.0106 O   0  0  0  0  0  0  0  0  0  0  0  0
  151.6481  140.8600  158.3129 N   0  0  0  0  0  0  0  0  0  0  0  0
  150.8840  140.1327  157.3015 C   0  0  0  0  0  0  0  0  0  0  0  0
  151.0243  140.7721  155.9033 C   0  0  1  0  0  0  0  0  0  0  0  0
  151.0698  139.7725  154.9051 O   0  0  0  0  0  0  0  0  0  0  0  0
  149.8992  141.7773  155.5658 C   0  0  0  0  0  0  0  0  0  0  0  0
  148.5621  141.2174  155.3483 N   0  0  0  0  0  0  0  0  0  0  0  0
  147.9122  141.7382  154.1475 C   0  0  0  0  0  0  0  0  0  0  0  0
  146.4998  141.1572  153.9357 C   0  0  1  0  0  0  0  0  0  0  0  0
  146.5120  139.6979  153.4496 C   0  0  0  0  0  0  0  0  0  0  0  0
  145.7138  141.3164  155.1179 O   0  0  0  0  0  0  0  0  0  0  0  0
  146.3107  140.8220  156.3154 C   0  0  2  0  0  0  0  0  0  0  0  0
  145.3723  141.1398  157.4841 C   0  0  0  0  0  0  0  0  0  0  0  0
  147.6980  141.4631  156.4953 C   0  0  0  0  0  0  0  0  0  0  0  0
  151.4367  142.2049  158.6488 C   0  0  0  0  0  0  0  0  0  0  0  0
  150.5120  143.1466  158.1642 C   0  0  0  0  0  0  0  0  0  0  0  0
  150.5628  144.4470  158.7181 C   0  0  0  0  0  0  0  0  0  0  0  0
  151.5126  144.7737  159.7207 C   0  0  0  0  0  0  0  0  0  0  0  0
  152.4303  143.8060  160.1924 C   0  0  0  0  0  0  0  0  0  0  0  0
  152.3567  142.5210  159.6266 C   0  0  0  0  0  0  0  0  0  0  0  0
  154.6259  141.7865  162.8996 H   0  0  0  0  0  0  0  0  0  0  0  0
  152.9554  141.3101  162.6103 H   0  0  0  0  0  0  0  0  0  0  0  0
  153.5189  142.9036  162.1070 H   0  0  0  0  0  0  0  0  0  0  0  0
  155.0754  141.8167  160.4420 H   0  0  0  0  0  0  0  0  0  0  0  0
  154.5203  140.2408  160.9367 H   0  0  0  0  0  0  0  0  0  0  0  0
  151.1681  139.0802  157.2864 H   0  0  0  0  0  0  0  0  0  0  0  0
  149.8350  140.1481  157.6025 H   0  0  0  0  0  0  0  0  0  0  0  0
  151.9692  141.3137  155.8435 H   0  0  0  0  0  0  0  0  0  0  0  0
  150.3467  139.1802  155.0430 H   0  0  0  0  0  0  0  0  0  0  0  0
  149.8383  142.4570  156.4170 H   0  0  0  0  0  0  0  0  0  0  0  0
  150.1911  142.4025  154.7203 H   0  0  0  0  0  0  0  0  0  0  0  0
  147.8415  142.8248  154.2176 H   0  0  0  0  0  0  0  0  0  0  0  0
  148.5111  141.5250  153.2635 H   0  0  0  0  0  0  0  0  0  0  0  0
  146.0088  141.7456  153.1601 H   0  0  0  0  0  0  0  0  0  0  0  0
  147.0222  139.6141  152.4898 H   0  0  0  0  0  0  0  0  0  0  0  0
  145.4964  139.3240  153.3178 H   0  0  0  0  0  0  0  0  0  0  0  0
  147.0244  139.0366  154.1479 H   0  0  0  0  0  0  0  0  0  0  0  0
  146.4166  139.7387  156.2466 H   0  0  0  0  0  0  0  0  0  0  0  0
  145.7823  140.7745  158.4260 H   0  0  0  0  0  0  0  0  0  0  0  0
  144.3994  140.6692  157.3414 H   0  0  0  0  0  0  0  0  0  0  0  0
  145.2121  142.2138  157.5822 H   0  0  0  0  0  0  0  0  0  0  0  0
  148.1610  141.0620  157.3980 H   0  0  0  0  0  0  0  0  0  0  0  0
  147.5892  142.5376  156.6524 H   0  0  0  0  0  0  0  0  0  0  0  0
  149.7902  142.8933  157.4020 H   0  0  0  0  0  0  0  0  0  0  0  0
  149.8704  145.2006  158.3732 H   0  0  0  0  0  0  0  0  0  0  0  0
  151.5352  145.7733  160.1294 H   0  0  0  0  0  0  0  0  0  0  0  0
  153.1556  144.0490  160.9547 H   0  0  0  0  0  0  0  0  0  0  0  0
  1  2  1  0  0  0  0
  1 25  1  0  0  0  0
  1 26  1  0  0  0  0
  1 27  1  0  0  0  0
  2  3  1  0  0  0  0
  2 28  1  0  0  0  0
  2 29  1  0  0  0  0
  3 24  1  0  0  0  0
  3  4  1  0  0  0  0
  4  5  2  0  0  0  0
  4  6  1  0  0  0  0
  6  7  1  0  0  0  0
  6 19  1  0  0  0  0
  7  8  1  0  0  0  0
  7 30  1  0  0  0  0
  7 31  1  0  0  0  0
  8  9  1  0  0  0  0
  8 10  1  0  0  0  0
  8 32  1  0  0  0  0
  9 33  1  0  0  0  0
 10 11  1  0  0  0  0
 10 34  1  0  0  0  0
 10 35  1  0  0  0  0
 11 18  1  0  0  0  0
 11 12  1  0  0  0  0
 12 13  1  0  0  0  0
 12 36  1  0  0  0  0
 12 37  1  0  0  0  0
 13 14  1  0  0  0  0
 13 15  1  0  0  0  0
 13 38  1  0  0  0  0
 14 39  1  0  0  0  0
 14 40  1  0  0  0  0
 14 41  1  0  0  0  0
 15 16  1  0  0  0  0
 16 17  1  0  0  0  0
 16 18  1  0  0  0  0
 16 42  1  0  0  0  0
 17 43  1  0  0  0  0
 17 44  1  0  0  0  0
 17 45  1  0  0  0  0
 18 46  1  0  0  0  0
 18 47  1  0  0  0  0
 19 24  2  0  0  0  0
 19 20  1  0  0  0  0
 20 21  2  0  0  0  0
 20 48  1  0  0  0  0
 21 22  1  0  0  0  0
 21 49  1  0  0  0  0
 22 23  2  0  0  0  0
 22 50  1  0  0  0  0
 23 24  1  0  0  0  0
 23 51  1  0  0  0  0
M  END
> <s_m_source_file>
AV-unprocessed.smi

> <i_m_source_file_index>
1570

> <i_lp_mmshare_version>
43012

> <i_f3d_flags>
0

> <s_epik_input>
W2NIXTFbY0hdW2NIXVtjSF1jKGMxMiluKFtDSDJdW0NIM10pYyg9TyluMltDSDJdW0NASF0oW09IXSlbQ0gyXU4zW0NIMl1bQ0BASF0oW0NIM10pT1tDQEBIXShbQ0gzXSlbQ0gyXTM=

> <s_epik_cmdline>
J2VwaWtfcHl0aG9uJywgJy1waCcsICc3LjAnLCAnLXRuJywgJzgnLCAnLW1hJywgJzIwMCcsICctbWV0YWxfYmluZGluZycsICctaW1hZScsICc8aW5maWxlLm1hZT4nLCAnLW9tYWUnLCAnPG91dGZpbGUubWFlPic=

> <r_epik_Ionization_Penalty>
0.214359

> <r_epik_Ionization_Penalty_Charging>
2.30976e-09

> <r_epik_Ionization_Penalty_Neutral>
0.214359

> <r_epik_State_Penalty>
0.204533

> <r_epik_Charging_Adjusted_Penalty>
0.204533

> <i_epik_Tot_Q>
0

> <i_epik_Tot_abs_Q>
0

> <r_epik_Metal_State_Penalty>
0.204533

> <b_epik_Metal_Only>
0

> <s_lp_Force_Field>
OPLS_2005

> <r_lp_Energy>
65.1855

> <b_lp_Chiralities_Consistent>
1

> <s_lp_Variant>
AV-unprocessed.smi:1570-6

> <Gold.Version>
5.8.1

> <Gold.Id.Protein>
6NUR|6NUR_protein|mol2

> <Gold.PLP.Fitness>
49.1000

> <Gold.PLP.PLP>
-49.2198

> <Gold.PLP.part.hbond>
-1.0000

> <Gold.PLP.part.metal>
0.0000

> <Gold.PLP.part.buried>
-5.6398

> <Gold.PLP.part.nonpolar>
-43.1322

> <Gold.PLP.part.repulsive>
0.2372

> <Gold.PLP.ligand.clash>
0.0000

> <Gold.PLP.ligand.torsion>
1.2798

> <Gold.PLP.Chemscore.Hbond>
0.8000

> <Gold.PLP.Chemscore.CHOScore>
0.0000

> <Gold.PLP.Chemscore.Metal>
0.0000

> <Gold.Chemscore.Hbonds>
donor molecule, donor type, donor heavy atom, donor atom, acceptor molecule, acceptor atom, score
      P1  H  7989  7998       L1     9  0.85

> <Gold.PLP.Chemscore.Internal.Correction>
0.0399

> <Gold.Rescore>
     Score         DG    S(hbond)    S(metal)    S(lipo)     H(rot)  DE(clash)    DE(int)     intcor
     15.64     -17.46       0.74        0.00     126.31       2.06       0.55       1.26       ----

> <Gold.Chemscore.Fitness>
15.6411

> <Gold.Chemscore.DG>
-17.4576

> <Gold.Chemscore.ZeroCoef>
-5.4800

> <Gold.Chemscore.Hbond>
0.7383

> <Gold.Chemscore.Metal>
0.0000

> <Gold.Chemscore.Lipo>
126.3123

> <Gold.Chemscore.Internal_Hbond>
0.0000

> <Gold.Chemscore.DEClash>
0.5539

> <Gold.Chemscore.DEInternal>
1.2625

> <Gold.Chemscore.Rot>
2.0574

> <Gold.Chemscore.Internal.Correction>
   9.000000E+99

> <Gold.Chemscore.Hbonds>
donor molecule, donor type, donor heavy atom, donor atom, acceptor molecule, acceptor atom, score
      P1  H  7989  7998       L1     9  0.15

> <Gold.Chemscore.Hbond.Weighted>
-2.4659

> <Gold.Chemscore.Metal.Weighted>
-0.0000

> <Gold.Chemscore.Lipo.Weighted>
-14.7785

> <Gold.Chemscore.Internal_Hbond.Weighted>
0.0000

> <Gold.Chemscore.DEClash.Weighted>
0.5539

> <Gold.Chemscore.DEInternal.Weighted>
1.2625

> <Gold.Chemscore.Rot.Weighted>
5.2669

> <Gold.Chemscore.Internal.Correction.Weighted>
   9.000000E+99

> <Gold.Protein.RotatedTorsions>
[ 6907 6896 6895 6894 ] final   15.66 input  -60.11 | X-H torsion
[ 7974 7965 7964 7962 ] final   67.58 input  175.53 | X-H torsion
[ 8008 7997 7996 7995 ] final   23.94 input   59.86 | X-H torsion
[ 10167 10162 10161 10158 ] final  154.20 input  -65.29 | X-H torsion
[ 10718 10713 10712 10709 ] final  -11.79 input   66.30 | X-H torsion
[ 10763 10752 10751 10750 ] final  -83.48 input  -60.55 | X-H torsion
[ 11005 11000 10999 10996 ] final  -77.84 input  -57.11 | X-H torsion

> <Gold.Protein.ActiveResidues>
 VAL166  LYS551  ARG553  GLY616  TRP617  ASP618  TYR619  PRO620  LYS621  CYS622 
 ASP623  PHE694  ASN695  SER759  ASP760  ASP761  ALA762  ILE779  LEU786  VAL792 
 PHE793  MET794  SER795  GLU796  ALA797  LYS798  CYS799  TRP800  GLU811  SER814 

> <Gold.Protein.RotatedAtoms>
  151.8215  135.0650  160.0425 H   0  0  0  0  0  0  0  0  0  0  0  0  # atno 6907 bound_to 6896
  152.2947  133.5591  159.5588 H   0  0  0  0  0  0  0  0  0  0  0  0  # atno 6908 bound_to 6896
  150.7246  134.0294  159.3770 H   0  0  0  0  0  0  0  0  0  0  0  0  # atno 6909 bound_to 6896
  145.8129  139.3042  143.1088 H   0  0  0  0  0  0  0  0  0  0  0  0  # atno 7974 bound_to 7965
  154.9886  140.3111  155.4916 H   0  0  0  0  0  0  0  0  0  0  0  0  # atno 8008 bound_to 7997
  156.2943  140.2253  156.4929 H   0  0  0  0  0  0  0  0  0  0  0  0  # atno 8009 bound_to 7997
  154.7724  140.0451  157.1050 H   0  0  0  0  0  0  0  0  0  0  0  0  # atno 8010 bound_to 7997
  139.4824  144.5207  151.7881 H   0  0  0  0  0  0  0  0  0  0  0  0  # atno 10167 bound_to 10162
  156.6539  130.4962  149.6053 H   0  0  0  0  0  0  0  0  0  0  0  0  # atno 10718 bound_to 10713
  154.5882  135.5554  153.7252 H   0  0  0  0  0  0  0  0  0  0  0  0  # atno 10763 bound_to 10752
  153.0107  135.6337  154.1886 H   0  0  0  0  0  0  0  0  0  0  0  0  # atno 10764 bound_to 10752
  154.1827  135.2886  155.3027 H   0  0  0  0  0  0  0  0  0  0  0  0  # atno 10765 bound_to 10752
  141.1662  133.7038  156.7881 H   0  0  0  0  0  0  0  0  0  0  0  0  # atno 11005 bound_to 11000
  145.9757  140.8723  143.0139 LP  0  0  0  0  0  0  0  0  0  0  0  0  # atno 17320 bound_to 7965
  144.6755  140.2009  143.7387 LP  0  0  0  0  0  0  0  0  0  0  0  0  # atno 17321 bound_to 7965
  140.4721  144.1572  150.5919 LP  0  0  0  0  0  0  0  0  0  0  0  0  # atno 17342 bound_to 10162
  140.4371  143.2542  151.9521 LP  0  0  0  0  0  0  0  0  0  0  0  0  # atno 17343 bound_to 10162
  156.2063  130.6651  151.1221 LP  0  0  0  0  0  0  0  0  0  0  0  0  # atno 17370 bound_to 10713
  157.7132  131.0723  150.6425 LP  0  0  0  0  0  0  0  0  0  0  0  0  # atno 17371 bound_to 10713
  140.2345  134.8660  157.3511 LP  0  0  0  0  0  0  0  0  0  0  0  0  # atno 17394 bound_to 11000
  140.1857  134.4434  155.7745 LP  0  0  0  0  0  0  0  0  0  0  0  0  # atno 17395 bound_to 11000

$$$$
