AV-unprocessed.smi:2961|AV-procd|sdf|11313|dock8
  -GOLD-   2272016213D 1   1.00000     0.00000
 Structure written by MMmdl.
 48 50  0  0  0  0  0  0  0  0  1 V2000
  150.0731  139.7313  154.9047 C   0  0  0  0  0  0  0  0  0  0  0  0
  151.4643  139.5576  155.5043 C   0  0  0  0  0  0  0  0  0  0  0  0
  152.4595  139.8996  154.8659 O   0  0  0  0  0  0  0  0  0  0  0  0
  151.5188  139.0256  156.7347 N   0  0  0  0  0  0  0  0  0  0  0  0
  152.7460  138.7873  157.4855 C   0  0  0  0  0  0  0  0  0  0  0  0
  152.6101  139.2289  158.9520 C   0  0  0  0  0  0  0  0  0  0  0  0
  152.3193  140.6927  159.0837 C   0  0  0  0  0  0  0  0  0  0  0  0
  151.5176  141.3319  158.2313 N   0  0  0  0  0  0  0  0  0  0  0  0
  151.5487  142.6304  158.7015 C   0  0  0  0  0  0  0  0  0  0  0  0
  150.8985  143.7934  158.2303 C   0  0  0  0  0  0  0  0  0  0  0  0
  151.0856  145.0297  158.8827 C   0  0  0  0  0  0  0  0  0  0  0  0
  151.9230  145.1206  160.0135 C   0  0  0  0  0  0  0  0  0  0  0  0
  152.5809  143.9741  160.4992 C   0  0  0  0  0  0  0  0  0  0  0  0
  152.3919  142.7429  159.8435 C   0  0  0  0  0  0  0  0  0  0  0  0
  152.8816  141.4578  160.0528 N   0  0  0  0  0  0  0  0  0  0  0  0
  153.8041  141.0499  161.1012 C   0  0  0  0  0  0  0  0  0  0  0  0
  154.9825  140.2443  160.5416 C   0  0  0  0  0  0  0  0  0  0  0  0
  154.7083  138.8635  160.7308 O   0  0  0  0  0  0  0  0  0  0  0  0
  154.6844  138.3718  162.0183 C   0  0  0  0  0  0  0  0  0  0  0  0
  154.0402  137.1334  162.2164 C   0  0  0  0  0  0  0  0  0  0  0  0
  153.9656  136.5568  163.4983 C   0  0  0  0  0  0  0  0  0  0  0  0
  154.5386  137.2162  164.6009 C   0  0  0  0  0  0  0  0  0  0  0  0
  155.1863  138.4547  164.4212 C   0  0  0  0  0  0  0  0  0  0  0  0
  155.8073  139.1673  165.6052 C   0  0  0  0  0  0  0  0  0  0  0  0
  155.2609  139.0290  163.1350 C   0  0  0  0  0  0  0  0  0  0  0  0
  149.5042  138.8038  154.9780 H   0  0  0  0  0  0  0  0  0  0  0  0
  150.1370  140.0092  153.8521 H   0  0  0  0  0  0  0  0  0  0  0  0
  149.5284  140.5145  155.4326 H   0  0  0  0  0  0  0  0  0  0  0  0
  150.6505  138.7730  157.1842 H   0  0  0  0  0  0  0  0  0  0  0  0
  153.0150  137.7317  157.4244 H   0  0  0  0  0  0  0  0  0  0  0  0
  153.5540  139.3395  157.0050 H   0  0  0  0  0  0  0  0  0  0  0  0
  151.8020  138.6717  159.4276 H   0  0  0  0  0  0  0  0  0  0  0  0
  153.5096  138.9850  159.5166 H   0  0  0  0  0  0  0  0  0  0  0  0
  150.2548  143.7341  157.3649 H   0  0  0  0  0  0  0  0  0  0  0  0
  150.5840  145.9122  158.5134 H   0  0  0  0  0  0  0  0  0  0  0  0
  152.0609  146.0710  160.5078 H   0  0  0  0  0  0  0  0  0  0  0  0
  153.2228  144.0411  161.3649 H   0  0  0  0  0  0  0  0  0  0  0  0
  154.1618  141.9321  161.6321 H   0  0  0  0  0  0  0  0  0  0  0  0
  153.2582  140.4543  161.8336 H   0  0  0  0  0  0  0  0  0  0  0  0
  155.1109  140.4625  159.4800 H   0  0  0  0  0  0  0  0  0  0  0  0
  155.9013  140.5207  161.0607 H   0  0  0  0  0  0  0  0  0  0  0  0
  153.5966  136.6204  161.3756 H   0  0  0  0  0  0  0  0  0  0  0  0
  153.4681  135.6081  163.6356 H   0  0  0  0  0  0  0  0  0  0  0  0
  154.4787  136.7686  165.5823 H   0  0  0  0  0  0  0  0  0  0  0  0
  155.6606  140.2450  165.5262 H   0  0  0  0  0  0  0  0  0  0  0  0
  156.8783  138.9676  165.6450 H   0  0  0  0  0  0  0  0  0  0  0  0
  155.3604  138.8347  166.5426 H   0  0  0  0  0  0  0  0  0  0  0  0
  155.7680  139.9761  163.0276 H   0  0  0  0  0  0  0  0  0  0  0  0
  1  2  1  0  0  0  0
  1 26  1  0  0  0  0
  1 27  1  0  0  0  0
  1 28  1  0  0  0  0
  2  3  2  0  0  0  0
  2  4  1  0  0  0  0
  4  5  1  0  0  0  0
  4 29  1  0  0  0  0
  5  6  1  0  0  0  0
  5 30  1  0  0  0  0
  5 31  1  0  0  0  0
  6  7  1  0  0  0  0
  6 32  1  0  0  0  0
  6 33  1  0  0  0  0
  7 15  1  0  0  0  0
  7  8  2  0  0  0  0
  8  9  1  0  0  0  0
  9 14  2  0  0  0  0
  9 10  1  0  0  0  0
 10 11  2  0  0  0  0
 10 34  1  0  0  0  0
 11 12  1  0  0  0  0
 11 35  1  0  0  0  0
 12 13  2  0  0  0  0
 12 36  1  0  0  0  0
 13 14  1  0  0  0  0
 13 37  1  0  0  0  0
 14 15  1  0  0  0  0
 15 16  1  0  0  0  0
 16 17  1  0  0  0  0
 16 38  1  0  0  0  0
 16 39  1  0  0  0  0
 17 18  1  0  0  0  0
 17 40  1  0  0  0  0
 17 41  1  0  0  0  0
 18 19  1  0  0  0  0
 19 25  1  0  0  0  0
 19 20  2  0  0  0  0
 20 21  1  0  0  0  0
 20 42  1  0  0  0  0
 21 22  2  0  0  0  0
 21 43  1  0  0  0  0
 22 23  1  0  0  0  0
 22 44  1  0  0  0  0
 23 24  1  0  0  0  0
 23 25  2  0  0  0  0
 24 45  1  0  0  0  0
 24 46  1  0  0  0  0
 24 47  1  0  0  0  0
 25 48  1  0  0  0  0
M  END
> <s_m_source_file>
AV-unprocessed.smi

> <i_m_source_file_index>
2961

> <i_lp_mmshare_version>
43012

> <i_f3d_flags>
0

> <s_epik_input>
W0NIM11DKD1PKVtOSF1bQ0gyXVtDSDJdYyhuMSluKGMoYzEyKVtjSF1bY0hdW2NIXVtjSF0yKVtDSDJdW0NIMl1PYzNbY0hdW2NIXVtjSF1jKFtDSDNdKVtjSF0z

> <s_epik_cmdline>
J2VwaWtfcHl0aG9uJywgJy1waCcsICc3LjAnLCAnLXRuJywgJzgnLCAnLW1hJywgJzIwMCcsICctbWV0YWxfYmluZGluZycsICctaW1hZScsICc8aW5maWxlLm1hZT4nLCAnLW9tYWUnLCAnPG91dGZpbGUubWFlPic=

> <r_lp_tautomer_probability>
1

> <r_epik_Ionization_Penalty>
0.0984942

> <r_epik_Ionization_Penalty_Charging>
0

> <r_epik_Ionization_Penalty_Neutral>
0.0984942

> <r_epik_State_Penalty>
0.0885769

> <r_epik_Charging_Adjusted_Penalty>
0.0885769

> <i_epik_Tot_Q>
0

> <i_epik_Tot_abs_Q>
0

> <r_epik_Metal_State_Penalty>
0.0758518

> <b_epik_Metal_Only>
0

> <s_lp_Force_Field>
OPLS_2005

> <r_lp_Energy>
13.474

> <b_lp_Chiralities_Consistent>
1

> <s_lp_Variant>
AV-unprocessed.smi:2961-1

> <Gold.Version>
5.8.1

> <Gold.Id.Protein>
6NUR|6NUR_protein|mol2

> <Gold.PLP.Fitness>
57.1351

> <Gold.PLP.PLP>
-57.1762

> <Gold.PLP.part.hbond>
-1.2547

> <Gold.PLP.part.metal>
0.0000

> <Gold.PLP.part.buried>
-7.0283

> <Gold.PLP.part.nonpolar>
-49.2283

> <Gold.PLP.part.repulsive>
0.1051

> <Gold.PLP.ligand.clash>
0.0000

> <Gold.PLP.ligand.torsion>
1.0330

> <Gold.PLP.Chemscore.Hbond>
0.6080

> <Gold.PLP.Chemscore.CHOScore>
0.0000

> <Gold.PLP.Chemscore.Metal>
0.0000

> <Gold.Chemscore.Hbonds>
donor molecule, donor type, donor heavy atom, donor atom, acceptor molecule, acceptor atom, score
      P1  H  7989  7998       L1     3  0.61

> <Gold.PLP.Chemscore.Internal.Correction>
0.2010

> <Gold.Rescore>
     Score         DG    S(hbond)    S(metal)    S(lipo)     H(rot)  DE(clash)    DE(int)     intcor
     17.15     -20.73       0.98        0.00     148.47       2.11       0.07       3.52       ----

> <Gold.Chemscore.Fitness>
17.1465

> <Gold.Chemscore.DG>
-20.7280

> <Gold.Chemscore.ZeroCoef>
-5.4800

> <Gold.Chemscore.Hbond>
0.9799

> <Gold.Chemscore.Metal>
0.0000

> <Gold.Chemscore.Lipo>
148.4710

> <Gold.Chemscore.Internal_Hbond>
0.0000

> <Gold.Chemscore.DEClash>
0.0659

> <Gold.Chemscore.DEInternal>
3.5156

> <Gold.Chemscore.Rot>
2.1078

> <Gold.Chemscore.Internal.Correction>
   9.000000E+99

> <Gold.Chemscore.Hbonds>
donor molecule, donor type, donor heavy atom, donor atom, acceptor molecule, acceptor atom, score
      P1  H  7989  7998       L1     3  0.18

> <Gold.Chemscore.Hbond.Weighted>
-3.2730

> <Gold.Chemscore.Metal.Weighted>
-0.0000

> <Gold.Chemscore.Lipo.Weighted>
-17.3711

> <Gold.Chemscore.Internal_Hbond.Weighted>
0.0000

> <Gold.Chemscore.DEClash.Weighted>
0.0659

> <Gold.Chemscore.DEInternal.Weighted>
3.5156

> <Gold.Chemscore.Rot.Weighted>
5.3961

> <Gold.Chemscore.Internal.Correction.Weighted>
   9.000000E+99

> <Gold.Protein.RotatedTorsions>
[ 6907 6896 6895 6894 ] final    2.31 input  -60.11 | X-H torsion
[ 7974 7965 7964 7962 ] final  -78.72 input  175.53 | X-H torsion
[ 8008 7997 7996 7995 ] final   65.61 input   59.86 | X-H torsion
[ 10167 10162 10161 10158 ] final  -55.99 input  -65.29 | X-H torsion
[ 10718 10713 10712 10709 ] final   39.97 input   66.30 | X-H torsion
[ 10763 10752 10751 10750 ] final   84.48 input  -60.55 | X-H torsion
[ 11005 11000 10999 10996 ] final -100.79 input  -57.11 | X-H torsion

> <Gold.Protein.ActiveResidues>
 VAL166  LYS551  ARG553  GLY616  TRP617  ASP618  TYR619  PRO620  LYS621  CYS622 
 ASP623  PHE694  ASN695  SER759  ASP760  ASP761  ALA762  ILE779  LEU786  VAL792 
 PHE793  MET794  SER795  GLU796  ALA797  LYS798  CYS799  TRP800  GLU811  SER814 

> <Gold.Protein.RotatedAtoms>
  151.6067  135.1043  160.0071 H   0  0  0  0  0  0  0  0  0  0  0  0  # atno 6907 bound_to 6896
  152.4229  133.7143  159.6507 H   0  0  0  0  0  0  0  0  0  0  0  0  # atno 6908 bound_to 6896
  150.8117  133.8336  159.3201 H   0  0  0  0  0  0  0  0  0  0  0  0  # atno 6909 bound_to 6896
  145.5827  140.9445  143.1335 H   0  0  0  0  0  0  0  0  0  0  0  0  # atno 7974 bound_to 7965
  155.6645  140.3497  155.4795 H   0  0  0  0  0  0  0  0  0  0  0  0  # atno 8008 bound_to 7997
  155.9741  140.1161  157.0809 H   0  0  0  0  0  0  0  0  0  0  0  0  # atno 8009 bound_to 7997
  154.4174  140.1151  156.5332 H   0  0  0  0  0  0  0  0  0  0  0  0  # atno 8010 bound_to 7997
  140.6343  143.2474  151.5159 H   0  0  0  0  0  0  0  0  0  0  0  0  # atno 10167 bound_to 10162
  157.3768  130.7731  149.7161 H   0  0  0  0  0  0  0  0  0  0  0  0  # atno 10718 bound_to 10713
  153.1386  135.4652  154.9461 H   0  0  0  0  0  0  0  0  0  0  0  0  # atno 10763 bound_to 10752
  154.7727  135.3164  154.8158 H   0  0  0  0  0  0  0  0  0  0  0  0  # atno 10764 bound_to 10752
  153.8685  135.6906  153.4830 H   0  0  0  0  0  0  0  0  0  0  0  0  # atno 10765 bound_to 10752
  141.1257  133.8427  157.1148 H   0  0  0  0  0  0  0  0  0  0  0  0  # atno 11005 bound_to 11000
  144.7386  139.7512  143.7319 LP  0  0  0  0  0  0  0  0  0  0  0  0  # atno 17320 bound_to 7965
  146.1704  139.4853  142.9931 LP  0  0  0  0  0  0  0  0  0  0  0  0  # atno 17321 bound_to 7965
  139.5555  144.2288  152.1604 LP  0  0  0  0  0  0  0  0  0  0  0  0  # atno 17342 bound_to 10162
  140.1540  144.5088  150.6671 LP  0  0  0  0  0  0  0  0  0  0  0  0  # atno 17343 bound_to 10162
  155.9767  130.4072  150.3762 LP  0  0  0  0  0  0  0  0  0  0  0  0  # atno 17370 bound_to 10713
  157.1860  131.0404  151.2724 LP  0  0  0  0  0  0  0  0  0  0  0  0  # atno 17371 bound_to 10713
  140.0253  134.9927  157.0673 LP  0  0  0  0  0  0  0  0  0  0  0  0  # atno 17394 bound_to 11000
  140.4373  134.1718  155.7171 LP  0  0  0  0  0  0  0  0  0  0  0  0  # atno 17395 bound_to 11000

$$$$
