AV-unprocessed.smi:2718|AV-procd|sdf|10488|dock4
  -GOLD-   2272014533D 1   1.00000     0.00000
 Structure written by MMmdl.
 47 48  0  0  0  0  0  0  0  0  1 V2000
  146.3201  132.1531  150.1262 C   0  0  0  0  0  0  0  0  0  0  0  0
  145.0652  132.9653  150.3785 C   0  0  0  0  0  0  0  0  0  0  0  0
  143.7980  132.3763  149.7826 C   0  0  0  0  0  0  0  0  0  0  0  0
  145.0955  134.1110  151.0859 C   0  0  0  0  0  0  0  0  0  0  0  0
  143.9266  134.9767  151.4174 C   0  0  2  0  0  0  0  0  0  0  0  0
  144.0432  136.3373  152.0908 C   0  0  2  0  0  0  0  0  0  0  0  0
  145.3794  136.8767  152.5202 C   0  0  0  0  0  0  0  0  0  0  0  0
  146.2032  136.2504  153.1868 O   0  0  0  0  0  0  0  0  0  0  0  0
  145.5990  138.1319  152.1004 N   0  0  0  0  0  0  0  0  0  0  0  0
  146.7762  138.9448  152.3983 C   0  0  0  0  0  0  0  0  0  0  0  0
  147.3181  138.7677  153.8360 C   0  0  2  0  0  0  0  0  0  0  0  0
  146.1895  138.8050  154.8761 C   0  0  0  0  0  0  0  0  0  0  0  0
  148.4168  139.7379  154.1785 C   0  0  0  0  0  0  0  0  0  0  0  0
  149.6788  139.3693  154.4366 N   0  0  0  0  0  0  0  0  0  0  0  0
  150.3653  140.5391  154.6918 N   0  0  0  0  0  0  0  0  0  0  0  0
  149.4543  141.5000  154.5469 C   0  0  0  0  0  0  0  0  0  0  0  0
  148.2254  141.0733  154.2212 N   0  0  0  0  0  0  0  0  0  0  0  0
  147.0325  141.8597  153.9800 C   0  0  0  0  0  0  0  0  0  0  0  0
  143.3929  135.1692  152.8296 C   0  0  0  0  0  0  0  0  0  0  0  0
  141.8896  135.2288  153.0425 C   0  0  0  0  0  0  0  0  0  0  0  0
  144.0288  134.4750  154.0333 C   0  0  0  0  0  0  0  0  0  0  0  0
  146.2184  131.1580  150.5597 H   0  0  0  0  0  0  0  0  0  0  0  0
  147.1998  132.6254  150.5649 H   0  0  0  0  0  0  0  0  0  0  0  0
  146.4937  132.0438  149.0559 H   0  0  0  0  0  0  0  0  0  0  0  0
  143.9376  132.1814  148.7198 H   0  0  0  0  0  0  0  0  0  0  0  0
  142.9385  133.0380  149.8848 H   0  0  0  0  0  0  0  0  0  0  0  0
  143.5589  131.4310  150.2700 H   0  0  0  0  0  0  0  0  0  0  0  0
  146.0502  134.4425  151.4646 H   0  0  0  0  0  0  0  0  0  0  0  0
  143.1751  134.9113  150.6326 H   0  0  0  0  0  0  0  0  0  0  0  0
  143.3573  137.0952  151.7140 H   0  0  0  0  0  0  0  0  0  0  0  0
  144.8789  138.5717  151.5456 H   0  0  0  0  0  0  0  0  0  0  0  0
  147.5457  138.6498  151.6846 H   0  0  0  0  0  0  0  0  0  0  0  0
  146.5602  139.9954  152.1980 H   0  0  0  0  0  0  0  0  0  0  0  0
  147.7345  137.7624  153.8831 H   0  0  0  0  0  0  0  0  0  0  0  0
  146.5710  138.5889  155.8746 H   0  0  0  0  0  0  0  0  0  0  0  0
  145.4214  138.0654  154.6487 H   0  0  0  0  0  0  0  0  0  0  0  0
  145.7103  139.7839  154.9075 H   0  0  0  0  0  0  0  0  0  0  0  0
  149.6926  142.5454  154.6779 H   0  0  0  0  0  0  0  0  0  0  0  0
  147.2590  142.9226  154.0663 H   0  0  0  0  0  0  0  0  0  0  0  0
  146.2666  141.5996  154.7107 H   0  0  0  0  0  0  0  0  0  0  0  0
  146.6558  141.6595  152.9768 H   0  0  0  0  0  0  0  0  0  0  0  0
  141.6560  135.7888  153.9485 H   0  0  0  0  0  0  0  0  0  0  0  0
  141.4772  134.2238  153.1368 H   0  0  0  0  0  0  0  0  0  0  0  0
  141.3973  135.7192  152.2020 H   0  0  0  0  0  0  0  0  0  0  0  0
  143.9106  135.0904  154.9257 H   0  0  0  0  0  0  0  0  0  0  0  0
  145.0897  134.2786  153.8979 H   0  0  0  0  0  0  0  0  0  0  0  0
  143.5444  133.5149  154.2134 H   0  0  0  0  0  0  0  0  0  0  0  0
  1  2  1  0  0  0  0
  1 22  1  0  0  0  0
  1 23  1  0  0  0  0
  1 24  1  0  0  0  0
  2  3  1  0  0  0  0
  2  4  2  0  0  0  0
  3 25  1  0  0  0  0
  3 26  1  0  0  0  0
  3 27  1  0  0  0  0
  4  5  1  0  0  0  0
  4 28  1  0  0  0  0
  5 19  1  0  0  0  0
  5  6  1  0  0  0  0
  5 29  1  0  0  0  0
  6  7  1  0  0  0  0
  6 19  1  0  0  0  0
  6 30  1  0  0  0  0
  7  8  2  0  0  0  0
  7  9  1  0  0  0  0
  9 10  1  0  0  0  0
  9 31  1  0  0  0  0
 10 11  1  0  0  0  0
 10 32  1  0  0  0  0
 10 33  1  0  0  0  0
 11 12  1  0  0  0  0
 11 13  1  0  0  0  0
 11 34  1  0  0  0  0
 12 35  1  0  0  0  0
 12 36  1  0  0  0  0
 12 37  1  0  0  0  0
 13 17  1  0  0  0  0
 13 14  2  0  0  0  0
 14 15  1  0  0  0  0
 15 16  2  0  0  0  0
 16 17  1  0  0  0  0
 16 38  1  0  0  0  0
 17 18  1  0  0  0  0
 18 39  1  0  0  0  0
 18 40  1  0  0  0  0
 18 41  1  0  0  0  0
 19 20  1  0  0  0  0
 19 21  1  0  0  0  0
 20 42  1  0  0  0  0
 20 43  1  0  0  0  0
 20 44  1  0  0  0  0
 21 45  1  0  0  0  0
 21 46  1  0  0  0  0
 21 47  1  0  0  0  0
M  END
> <s_m_source_file>
AV-unprocessed.smi

> <i_m_source_file_index>
2718

> <i_lp_mmshare_version>
43012

> <i_f3d_flags>
0

> <s_epik_input>
W0NIM11DKFtDSDNdKT1bQ0hdW0NAQEhdKEMxKFtDSDNdKVtDSDNdKVtDQEhdMUMoPU8pW05IXVtDSDJdW0NASF0oW0NIM10pYzJubltjSF1uMltDSDNd

> <s_epik_cmdline>
J2VwaWtfcHl0aG9uJywgJy1waCcsICc3LjAnLCAnLXRuJywgJzgnLCAnLW1hJywgJzIwMCcsICctbWV0YWxfYmluZGluZycsICctaW1hZScsICc8aW5maWxlLm1hZT4nLCAnLW9tYWUnLCAnPG91dGZpbGUubWFlPic=

> <r_lp_tautomer_probability>
1

> <r_epik_Ionization_Penalty>
0.000449586

> <r_epik_Ionization_Penalty_Charging>
0

> <r_epik_Ionization_Penalty_Neutral>
0.000449586

> <r_epik_State_Penalty>
0.000243372

> <r_epik_Charging_Adjusted_Penalty>
0.000243372

> <i_epik_Tot_Q>
0

> <i_epik_Tot_abs_Q>
0

> <r_epik_Metal_State_Penalty>
-0

> <b_epik_Metal_Only>
0

> <s_lp_Force_Field>
OPLS_2005

> <r_lp_Energy>
15.3261

> <b_lp_Chiralities_Consistent>
1

> <s_lp_Variant>
AV-unprocessed.smi:2718-3

> <Gold.Version>
5.8.1

> <Gold.Id.Protein>
6NUR|6NUR_protein|mol2

> <Gold.PLP.Fitness>
45.5652

> <Gold.PLP.PLP>
-38.0126

> <Gold.PLP.part.hbond>
-3.0000

> <Gold.PLP.part.metal>
0.0000

> <Gold.PLP.part.buried>
-1.6848

> <Gold.PLP.part.nonpolar>
-33.5438

> <Gold.PLP.part.repulsive>
1.3999

> <Gold.PLP.ligand.clash>
0.0000

> <Gold.PLP.ligand.torsion>
0.6941

> <Gold.PLP.Chemscore.Hbond>
1.8720

> <Gold.PLP.Chemscore.CHOScore>
1.0000

> <Gold.PLP.Chemscore.Metal>
0.0000

> <Gold.Chemscore.Hbonds>
donor molecule, donor type, donor heavy atom, donor atom, acceptor molecule, acceptor atom, score
      L1  H     9    31       P1 10171  0.96
      P1  H  7989  7998       L1    15  0.96
      L1  C    16    38       P1  8028  1.00

> <Gold.PLP.Chemscore.Internal.Correction>
0.3249

> <Gold.Rescore>
     Score         DG    S(hbond)    S(metal)    S(lipo)     H(rot)  DE(clash)    DE(int)     intcor
     11.02     -14.29       1.35        0.00      79.46       1.95       0.07       3.21       ----

> <Gold.Chemscore.Fitness>
11.0166

> <Gold.Chemscore.DG>
-14.2927

> <Gold.Chemscore.ZeroCoef>
-5.4800

> <Gold.Chemscore.Hbond>
1.3522

> <Gold.Chemscore.Metal>
0.0000

> <Gold.Chemscore.Lipo>
79.4620

> <Gold.Chemscore.Internal_Hbond>
0.0000

> <Gold.Chemscore.DEClash>
0.0658

> <Gold.Chemscore.DEInternal>
3.2103

> <Gold.Chemscore.Rot>
1.9533

> <Gold.Chemscore.Internal.Correction>
   9.000000E+99

> <Gold.Chemscore.Hbonds>
donor molecule, donor type, donor heavy atom, donor atom, acceptor molecule, acceptor atom, score
      L1  H     9    31       P1 10171  0.89
      P1  H  7989  7998       L1    15  0.39

> <Gold.Chemscore.Hbond.Weighted>
-4.5162

> <Gold.Chemscore.Metal.Weighted>
-0.0000

> <Gold.Chemscore.Lipo.Weighted>
-9.2971

> <Gold.Chemscore.Internal_Hbond.Weighted>
0.0000

> <Gold.Chemscore.DEClash.Weighted>
0.0658

> <Gold.Chemscore.DEInternal.Weighted>
3.2103

> <Gold.Chemscore.Rot.Weighted>
5.0005

> <Gold.Chemscore.Internal.Correction.Weighted>
   9.000000E+99

> <Gold.Protein.RotatedTorsions>
[ 6907 6896 6895 6894 ] final -103.34 input  -60.11 | X-H torsion
[ 7974 7965 7964 7962 ] final  -79.03 input  175.53 | X-H torsion
[ 8008 7997 7996 7995 ] final  -45.35 input   59.86 | X-H torsion
[ 10167 10162 10161 10158 ] final   43.72 input  -65.29 | X-H torsion
[ 10718 10713 10712 10709 ] final  -75.78 input   66.30 | X-H torsion
[ 10763 10752 10751 10750 ] final  -55.11 input  -60.55 | X-H torsion
[ 11005 11000 10999 10996 ] final   17.52 input  -57.11 | X-H torsion

> <Gold.Protein.ActiveResidues>
 VAL166  LYS551  ARG553  GLY616  TRP617  ASP618  TYR619  PRO620  LYS621  CYS622 
 ASP623  PHE694  ASN695  SER759  ASP760  ASP761  ALA762  ILE779  LEU786  VAL792 
 PHE793  MET794  SER795  GLU796  ALA797  LYS798  CYS799  TRP800  GLU811  SER814 

> <Gold.Protein.RotatedAtoms>
  150.7236  134.0444  159.3776 H   0  0  0  0  0  0  0  0  0  0  0  0  # atno 6907 bound_to 6896
  151.8419  135.0585  160.0458 H   0  0  0  0  0  0  0  0  0  0  0  0  # atno 6908 bound_to 6896
  152.2856  133.5476  159.5561 H   0  0  0  0  0  0  0  0  0  0  0  0  # atno 6909 bound_to 6896
  145.5786  140.9453  143.1356 H   0  0  0  0  0  0  0  0  0  0  0  0  # atno 7974 bound_to 7965
  154.4000  140.1399  156.3832 H   0  0  0  0  0  0  0  0  0  0  0  0  # atno 8008 bound_to 7997
  155.7984  140.3476  155.5368 H   0  0  0  0  0  0  0  0  0  0  0  0  # atno 8009 bound_to 7997
  155.8509  140.0941  157.1666 H   0  0  0  0  0  0  0  0  0  0  0  0  # atno 8010 bound_to 7997
  140.3415  144.2464  150.6155 H   0  0  0  0  0  0  0  0  0  0  0  0  # atno 10167 bound_to 10162
  156.0196  130.4449  150.3094 H   0  0  0  0  0  0  0  0  0  0  0  0  # atno 10718 bound_to 10713
  154.1856  135.6436  153.5046 H   0  0  0  0  0  0  0  0  0  0  0  0  # atno 10763 bound_to 10752
  153.0048  135.5416  154.6469 H   0  0  0  0  0  0  0  0  0  0  0  0  # atno 10764 bound_to 10752
  154.5844  135.2928  155.0672 H   0  0  0  0  0  0  0  0  0  0  0  0  # atno 10765 bound_to 10752
  140.4350  134.1381  155.7684 H   0  0  0  0  0  0  0  0  0  0  0  0  # atno 11005 bound_to 11000
  144.7404  139.7464  143.7313 LP  0  0  0  0  0  0  0  0  0  0  0  0  # atno 17320 bound_to 7965
  146.1733  139.4892  142.9913 LP  0  0  0  0  0  0  0  0  0  0  0  0  # atno 17321 bound_to 7965
  140.5304  143.2244  151.8248 LP  0  0  0  0  0  0  0  0  0  0  0  0  # atno 17342 bound_to 10162
  139.4840  144.4727  151.9405 LP  0  0  0  0  0  0  0  0  0  0  0  0  # atno 17343 bound_to 10162
  157.1196  131.0243  151.3015 LP  0  0  0  0  0  0  0  0  0  0  0  0  # atno 17370 bound_to 10713
  157.4639  130.7669  149.7261 LP  0  0  0  0  0  0  0  0  0  0  0  0  # atno 17371 bound_to 10713
  141.1730  133.8571  157.1512 LP  0  0  0  0  0  0  0  0  0  0  0  0  # atno 17394 bound_to 11000
  140.0108  134.9989  157.0391 LP  0  0  0  0  0  0  0  0  0  0  0  0  # atno 17395 bound_to 11000

$$$$
