AV-unprocessed.smi:514|AV-procd|sdf|2778|dock10
  -GOLD-   2262023253D 1   1.00000     0.00000
 Structure written by MMmdl.
 45 47  0  0  0  0  0  0  0  0  3 V2000
  151.2582  142.4755  158.5808 C   0  0  0  0  0  0  0  0  0  0  0  0
  149.9881  142.2986  157.7458 C   0  0  0  0  0  0  0  0  0  0  0  0
  150.2995  141.5370  156.5915 O   0  0  0  0  0  0  0  0  0  0  0  0
  149.2000  141.4129  155.7057 C   0  0  0  0  0  0  0  0  0  0  0  0
  149.6264  140.5405  154.5138 C   0  0  0  0  0  0  0  0  0  0  0  0
  149.6073  139.1151  154.8319 N   0  0  0  0  0  0  0  0  0  0  0  0
  148.6319  138.1916  154.5868 C   0  0  0  0  0  0  0  0  0  0  0  0
  147.4280  138.4834  153.9283 N   0  0  0  0  0  0  0  0  0  0  0  0
  147.3168  139.5151  152.8956 C   0  0  0  0  0  0  0  0  0  0  0  0
  146.6168  138.9834  151.6320 C   0  0  0  0  0  0  0  0  0  0  0  0
  145.2833  138.4432  151.9640 N   0  3  0  0  0  0  0  0  0  0  0  0
  145.3321  137.4544  153.0593 C   0  0  0  0  0  0  0  0  0  0  0  0
  146.0773  138.0350  154.2758 C   0  0  0  0  0  0  0  0  0  0  0  0
  148.9011  136.9745  155.0657 N   0  0  0  0  0  0  0  0  0  0  0  0
  150.1503  137.1239  155.6438 C   0  0  0  0  0  0  0  0  0  0  0  0
  150.5941  138.4026  155.5242 C   0  0  0  0  0  0  0  0  0  0  0  0
  151.8849  138.8767  156.0742 C   0  0  0  0  0  0  0  0  0  0  0  0
  152.2298  140.0513  155.9637 O   0  0  0  0  0  0  0  0  0  0  0  0
  152.5873  137.8721  156.6874 N   0  5  0  0  0  0  0  0  0  0  0  0
  152.1774  136.5633  156.8236 C   0  0  0  0  0  0  0  0  0  0  0  0
  152.8729  135.7196  157.3909 O   0  0  0  0  0  0  0  0  0  0  0  0
  150.9646  136.1744  156.3190 N   0  0  0  0  0  0  0  0  0  0  0  0
  150.4972  134.7922  156.4582 C   0  0  0  0  0  0  0  0  0  0  0  0
  151.0551  143.0589  159.4789 H   0  0  0  0  0  0  0  0  0  0  0  0
  152.0305  142.9940  158.0124 H   0  0  0  0  0  0  0  0  0  0  0  0
  151.6603  141.5107  158.8912 H   0  0  0  0  0  0  0  0  0  0  0  0
  149.2227  141.7928  158.3361 H   0  0  0  0  0  0  0  0  0  0  0  0
  149.5938  143.2742  157.4580 H   0  0  0  0  0  0  0  0  0  0  0  0
  148.3517  140.9715  156.2291 H   0  0  0  0  0  0  0  0  0  0  0  0
  148.8810  142.3981  155.3654 H   0  0  0  0  0  0  0  0  0  0  0  0
  148.9731  140.7220  153.6608 H   0  0  0  0  0  0  0  0  0  0  0  0
  150.6164  140.8218  154.1641 H   0  0  0  0  0  0  0  0  0  0  0  0
  146.7731  140.3696  153.3005 H   0  0  0  0  0  0  0  0  0  0  0  0
  148.3070  139.8821  152.6238 H   0  0  0  0  0  0  0  0  0  0  0  0
  146.5095  139.7764  150.8917 H   0  0  0  0  0  0  0  0  0  0  0  0
  147.2166  138.1957  151.1739 H   0  0  0  0  0  0  0  0  0  0  0  0
  144.6971  139.2110  152.2583 H   0  0  0  0  0  0  0  0  0  0  0  0
  144.3159  137.1714  153.3332 H   0  0  0  0  0  0  0  0  0  0  0  0
  145.8290  136.5528  152.6998 H   0  0  0  0  0  0  0  0  0  0  0  0
  146.0971  137.3106  155.0838 H   0  0  0  0  0  0  0  0  0  0  0  0
  145.5227  138.8881  154.6696 H   0  0  0  0  0  0  0  0  0  0  0  0
  151.1639  134.1098  155.9295 H   0  0  0  0  0  0  0  0  0  0  0  0
  149.4940  134.6450  156.0595 H   0  0  0  0  0  0  0  0  0  0  0  0
  150.4724  134.4997  157.5089 H   0  0  0  0  0  0  0  0  0  0  0  0
  144.8784  138.0172  151.1427 H   0  0  0  0  0  0  0  0  0  0  0  0
  1  2  1  0  0  0  0
  1 24  1  0  0  0  0
  1 25  1  0  0  0  0
  1 26  1  0  0  0  0
  2  3  1  0  0  0  0
  2 27  1  0  0  0  0
  2 28  1  0  0  0  0
  3  4  1  0  0  0  0
  4  5  1  0  0  0  0
  4 29  1  0  0  0  0
  4 30  1  0  0  0  0
  5  6  1  0  0  0  0
  5 31  1  0  0  0  0
  5 32  1  0  0  0  0
  6 16  1  0  0  0  0
  6  7  1  0  0  0  0
  7  8  1  0  0  0  0
  7 14  2  0  0  0  0
  8 13  1  0  0  0  0
  8  9  1  0  0  0  0
  9 10  1  0  0  0  0
  9 33  1  0  0  0  0
  9 34  1  0  0  0  0
 10 11  1  0  0  0  0
 10 35  1  0  0  0  0
 10 36  1  0  0  0  0
 11 12  1  0  0  0  0
 11 37  1  0  0  0  0
 11 45  1  0  0  0  0
 12 13  1  0  0  0  0
 12 38  1  0  0  0  0
 12 39  1  0  0  0  0
 13 40  1  0  0  0  0
 13 41  1  0  0  0  0
 14 15  1  0  0  0  0
 15 22  1  0  0  0  0
 15 16  2  0  0  0  0
 16 17  1  0  0  0  0
 17 18  2  0  0  0  0
 17 19  1  0  0  0  0
 19 20  1  0  0  0  0
 20 21  2  0  0  0  0
 20 22  1  0  0  0  0
 22 23  1  0  0  0  0
 23 42  1  0  0  0  0
 23 43  1  0  0  0  0
 23 44  1  0  0  0  0
M  CHG  1  11   1
M  CHG  1  19  -1
M  END
> <s_m_source_file>
AV-unprocessed.smi

> <i_m_source_file_index>
514

> <i_lp_mmshare_version>
43012

> <i_f3d_flags>
0

> <s_epik_input>
W0NIM11uMWMoPU8pW25IXWMoPU8pYyhjMTIpbihbQ0gyXVtDSDJdT1tDSDJdW0NIM10pYyhuMilOM1tDSDJdW0NIMl1bTkhdW0NIMl1bQ0gyXTM=

> <s_epik_cmdline>
J2VwaWtfcHl0aG9uJywgJy1waCcsICc3LjAnLCAnLXRuJywgJzgnLCAnLW1hJywgJzIwMCcsICctbWV0YWxfYmluZGluZycsICctaW1hZScsICc8aW5maWxlLm1hZT4nLCAnLW9tYWUnLCAnPG91dGZpbGUubWFlPic=

> <r_epik_Ionization_Penalty>
5.92505

> <r_epik_Ionization_Penalty_Charging>
0.0655308

> <r_epik_Ionization_Penalty_Neutral>
5.85952

> <r_epik_State_Penalty>
5.86593

> <r_epik_Charging_Adjusted_Penalty>
5.93146

> <i_epik_Tot_Q>
0

> <i_epik_Tot_abs_Q>
2

> <r_epik_Metal_State_Penalty>
1.83024

> <b_epik_Metal_Only>
1

> <s_lp_Force_Field>
OPLS_2005

> <r_lp_Energy>
48.6867

> <b_lp_Chiralities_Consistent>
1

> <s_lp_Variant>
AV-unprocessed.smi:514-3

> <Gold.Version>
5.8.1

> <Gold.Id.Protein>
6NUR|6NUR_protein|mol2

> <Gold.PLP.Fitness>
38.8305

> <Gold.PLP.PLP>
-29.4173

> <Gold.PLP.part.hbond>
-4.0519

> <Gold.PLP.part.metal>
0.0000

> <Gold.PLP.part.buried>
0.1964

> <Gold.PLP.part.nonpolar>
-26.6903

> <Gold.PLP.part.repulsive>
0.2082

> <Gold.PLP.ligand.clash>
0.0000

> <Gold.PLP.ligand.torsion>
0.9204

> <Gold.PLP.Chemscore.Hbond>
3.7200

> <Gold.PLP.Chemscore.CHOScore>
0.0000

> <Gold.PLP.Chemscore.Metal>
0.0000

> <Gold.Chemscore.Hbonds>
donor molecule, donor type, donor heavy atom, donor atom, acceptor molecule, acceptor atom, score
      L1  H    11    37       P1 10175  2.00
      L1  H    11    45       P1 10171  0.69
      P1  H  7997  8008       L1    18  0.73

> <Gold.PLP.Chemscore.Internal.Correction>
0.0940

> <Gold.Rescore>
     Score         DG    S(hbond)    S(metal)    S(lipo)     H(rot)  DE(clash)    DE(int)     intcor
     12.97     -17.17       2.75        0.00      58.98       1.72       0.69       3.50       ----

> <Gold.Chemscore.Fitness>
12.9743

> <Gold.Chemscore.DG>
-17.1682

> <Gold.Chemscore.ZeroCoef>
-5.4800

> <Gold.Chemscore.Hbond>
2.7529

> <Gold.Chemscore.Metal>
0.0000

> <Gold.Chemscore.Lipo>
58.9774

> <Gold.Chemscore.Internal_Hbond>
0.0000

> <Gold.Chemscore.DEClash>
0.6947

> <Gold.Chemscore.DEInternal>
3.4992

> <Gold.Chemscore.Rot>
1.7214

> <Gold.Chemscore.Internal.Correction>
   9.000000E+99

> <Gold.Chemscore.Hbonds>
donor molecule, donor type, donor heavy atom, donor atom, acceptor molecule, acceptor atom, score
      L1  H    11    37       P1 10175  0.99
      L1  H    11    45       P1 10171  0.70
      P1  H  7997  8008       L1    18  0.51

> <Gold.Chemscore.Hbond.Weighted>
-9.1947

> <Gold.Chemscore.Metal.Weighted>
-0.0000

> <Gold.Chemscore.Lipo.Weighted>
-6.9004

> <Gold.Chemscore.Internal_Hbond.Weighted>
0.0000

> <Gold.Chemscore.DEClash.Weighted>
0.6947

> <Gold.Chemscore.DEInternal.Weighted>
3.4992

> <Gold.Chemscore.Rot.Weighted>
4.4069

> <Gold.Chemscore.Internal.Correction.Weighted>
   9.000000E+99

> <Gold.Protein.RotatedTorsions>
[ 6907 6896 6895 6894 ] final -146.90 input  -60.11 | X-H torsion
[ 7974 7965 7964 7962 ] final  -77.60 input  175.53 | X-H torsion
[ 8008 7997 7996 7995 ] final  -30.18 input   59.86 | X-H torsion
[ 10167 10162 10161 10158 ] final -148.03 input  -65.29 | X-H torsion
[ 10718 10713 10712 10709 ] final -129.72 input   66.30 | X-H torsion
[ 10763 10752 10751 10750 ] final -129.06 input  -60.55 | X-H torsion
[ 11005 11000 10999 10996 ] final    6.54 input  -57.11 | X-H torsion

> <Gold.Protein.ActiveResidues>
 VAL166  LYS551  ARG553  GLY616  TRP617  ASP618  TYR619  PRO620  LYS621  CYS622 
 ASP623  PHE694  ASN695  SER759  ASP760  ASP761  ALA762  ILE779  LEU786  VAL792 
 PHE793  MET794  SER795  GLU796  ALA797  LYS798  CYS799  TRP800  GLU811  SER814 

> <Gold.Protein.RotatedAtoms>
  151.1481  133.4925  159.2595 H   0  0  0  0  0  0  0  0  0  0  0  0  # atno 6907 bound_to 6896
  151.1583  135.0260  159.8709 H   0  0  0  0  0  0  0  0  0  0  0  0  # atno 6908 bound_to 6896
  152.5463  134.1358  159.8511 H   0  0  0  0  0  0  0  0  0  0  0  0  # atno 6909 bound_to 6896
  145.5976  140.9416  143.1258 H   0  0  0  0  0  0  0  0  0  0  0  0  # atno 7974 bound_to 7965
  154.4260  140.1798  156.1367 H   0  0  0  0  0  0  0  0  0  0  0  0  # atno 8008 bound_to 7997
  156.0025  140.3358  155.6834 H   0  0  0  0  0  0  0  0  0  0  0  0  # atno 8009 bound_to 7997
  155.6224  140.0661  157.2665 H   0  0  0  0  0  0  0  0  0  0  0  0  # atno 8010 bound_to 7997
  139.7568  143.8435  152.2599 H   0  0  0  0  0  0  0  0  0  0  0  0  # atno 10167 bound_to 10162
  156.2074  130.6896  151.0610 H   0  0  0  0  0  0  0  0  0  0  0  0  # atno 10718 bound_to 10713
  154.8757  135.3908  154.3858 H   0  0  0  0  0  0  0  0  0  0  0  0  # atno 10763 bound_to 10752
  153.4600  135.7029  153.6061 H   0  0  0  0  0  0  0  0  0  0  0  0  # atno 10764 bound_to 10752
  153.4564  135.3822  155.2282 H   0  0  0  0  0  0  0  0  0  0  0  0  # atno 10765 bound_to 10752
  140.5583  134.0217  155.7962 H   0  0  0  0  0  0  0  0  0  0  0  0  # atno 11005 bound_to 11000
  144.7324  139.7686  143.7342 LP  0  0  0  0  0  0  0  0  0  0  0  0  # atno 17320 bound_to 7965
  146.1601  139.4712  142.9994 LP  0  0  0  0  0  0  0  0  0  0  0  0  # atno 17321 bound_to 7965
  139.8430  144.7201  150.9308 LP  0  0  0  0  0  0  0  0  0  0  0  0  # atno 17342 bound_to 10162
  140.7803  143.3966  151.1219 LP  0  0  0  0  0  0  0  0  0  0  0  0  # atno 17343 bound_to 10162
  157.7019  131.0772  150.6791 LP  0  0  0  0  0  0  0  0  0  0  0  0  # atno 17370 bound_to 10713
  156.6850  130.4578  149.5616 LP  0  0  0  0  0  0  0  0  0  0  0  0  # atno 17371 bound_to 10713
  141.1130  133.9586  157.2875 LP  0  0  0  0  0  0  0  0  0  0  0  0  # atno 17394 bound_to 11000
  139.9420  135.0189  156.8738 LP  0  0  0  0  0  0  0  0  0  0  0  0  # atno 17395 bound_to 11000

$$$$
