AV-unprocessed.smi:2608|AV-procd|sdf|10204|dock1
  -GOLD-   2272014213D 1   1.00000     0.00000
 Structure written by MMmdl.
 40 41  0  0  0  0  0  0  0  0  1 V2000
  152.1922  144.3182  160.8095 C   0  0  0  0  0  0  0  0  0  0  0  0
  152.1963  142.8528  161.2708 C   0  0  0  0  0  0  0  0  0  0  0  0
  153.1570  142.6692  162.4597 C   0  0  0  0  0  0  0  0  0  0  0  0
  152.5063  141.9120  160.0836 C   0  0  0  0  0  0  0  0  0  0  0  0
  151.4404  141.9352  158.9833 C   0  0  0  0  0  0  0  0  0  0  0  0
  150.4281  142.6198  159.1288 O   0  0  0  0  0  0  0  0  0  0  0  0
  151.7017  141.1736  157.9059 N   0  0  0  0  0  0  0  0  0  0  0  0
  150.9226  141.0043  156.7263 C   0  0  0  0  0  0  0  0  0  0  0  0
  149.7009  141.6850  156.5050 C   0  0  0  0  0  0  0  0  0  0  0  0
  148.9845  141.4388  155.3194 C   0  0  0  0  0  0  0  0  0  0  0  0
  149.5092  140.5126  154.4002 C   0  0  0  0  0  0  0  0  0  0  0  0
  150.6628  139.8441  154.6027 N   0  0  0  0  0  0  0  0  0  0  0  0
  151.3561  140.0788  155.7429 C   0  0  0  0  0  0  0  0  0  0  0  0
  152.5542  139.3681  155.9268 N   0  0  0  0  0  0  0  0  0  0  0  0
  152.5159  138.4208  157.0332 C   0  0  0  0  0  0  0  0  0  0  0  0
  153.9115  137.8097  157.2458 C   0  0  0  0  0  0  0  0  0  0  0  0
  154.3597  137.2105  156.0331 O   0  0  0  0  0  0  0  0  0  0  0  0
  154.4622  138.1574  154.9728 C   0  0  0  0  0  0  0  0  0  0  0  0
  153.0823  138.7811  154.7018 C   0  0  0  0  0  0  0  0  0  0  0  0
  153.1731  144.6199  160.4410 H   0  0  0  0  0  0  0  0  0  0  0  0
  151.9226  144.9878  161.6267 H   0  0  0  0  0  0  0  0  0  0  0  0
  151.4718  144.4769  160.0065 H   0  0  0  0  0  0  0  0  0  0  0  0
  151.1889  142.6281  161.6249 H   0  0  0  0  0  0  0  0  0  0  0  0
  154.1935  142.8231  162.1582 H   0  0  0  0  0  0  0  0  0  0  0  0
  153.0795  141.6727  162.8936 H   0  0  0  0  0  0  0  0  0  0  0  0
  152.9349  143.3801  163.2560 H   0  0  0  0  0  0  0  0  0  0  0  0
  153.4671  142.1818  159.6418 H   0  0  0  0  0  0  0  0  0  0  0  0
  152.6198  140.8870  160.4391 H   0  0  0  0  0  0  0  0  0  0  0  0
  152.6103  140.7332  157.8877 H   0  0  0  0  0  0  0  0  0  0  0  0
  149.2936  142.3763  157.2264 H   0  0  0  0  0  0  0  0  0  0  0  0
  148.0512  141.9447  155.1224 H   0  0  0  0  0  0  0  0  0  0  0  0
  148.9855  140.2971  153.4807 H   0  0  0  0  0  0  0  0  0  0  0  0
  152.1843  138.9254  157.9415 H   0  0  0  0  0  0  0  0  0  0  0  0
  151.7947  137.6308  156.8190 H   0  0  0  0  0  0  0  0  0  0  0  0
  154.6234  138.5696  157.5728 H   0  0  0  0  0  0  0  0  0  0  0  0
  153.8751  137.0496  158.0264 H   0  0  0  0  0  0  0  0  0  0  0  0
  155.1933  138.9263  155.2277 H   0  0  0  0  0  0  0  0  0  0  0  0
  154.8292  137.6526  154.0791 H   0  0  0  0  0  0  0  0  0  0  0  0
  152.3969  138.0163  154.3335 H   0  0  0  0  0  0  0  0  0  0  0  0
  153.1608  139.5460  153.9281 H   0  0  0  0  0  0  0  0  0  0  0  0
  1  2  1  0  0  0  0
  1 20  1  0  0  0  0
  1 21  1  0  0  0  0
  1 22  1  0  0  0  0
  2  3  1  0  0  0  0
  2  4  1  0  0  0  0
  2 23  1  0  0  0  0
  3 24  1  0  0  0  0
  3 25  1  0  0  0  0
  3 26  1  0  0  0  0
  4  5  1  0  0  0  0
  4 27  1  0  0  0  0
  4 28  1  0  0  0  0
  5  6  2  0  0  0  0
  5  7  1  0  0  0  0
  7  8  1  0  0  0  0
  7 29  1  0  0  0  0
  8 13  1  0  0  0  0
  8  9  2  0  0  0  0
  9 10  1  0  0  0  0
  9 30  1  0  0  0  0
 10 11  2  0  0  0  0
 10 31  1  0  0  0  0
 11 12  1  0  0  0  0
 11 32  1  0  0  0  0
 12 13  2  0  0  0  0
 13 14  1  0  0  0  0
 14 19  1  0  0  0  0
 14 15  1  0  0  0  0
 15 16  1  0  0  0  0
 15 33  1  0  0  0  0
 15 34  1  0  0  0  0
 16 17  1  0  0  0  0
 16 35  1  0  0  0  0
 16 36  1  0  0  0  0
 17 18  1  0  0  0  0
 18 19  1  0  0  0  0
 18 37  1  0  0  0  0
 18 38  1  0  0  0  0
 19 39  1  0  0  0  0
 19 40  1  0  0  0  0
M  END
> <s_m_source_file>
AV-unprocessed.smi

> <i_m_source_file_index>
2608

> <i_lp_mmshare_version>
43012

> <i_f3d_flags>
0

> <s_epik_input>
W0NIM11bQ0hdKFtDSDNdKVtDSDJdQyg9TylbTkhdYzFbY0hdW2NIXVtjSF1uYzFOMltDSDJdW0NIMl1PW0NIMl1bQ0gyXTI=

> <s_epik_cmdline>
J2VwaWtfcHl0aG9uJywgJy1waCcsICc3LjAnLCAnLXRuJywgJzgnLCAnLW1hJywgJzIwMCcsICctbWV0YWxfYmluZGluZycsICctaW1hZScsICc8aW5maWxlLm1hZT4nLCAnLW9tYWUnLCAnPG91dGZpbGUubWFlPic=

> <r_lp_tautomer_probability>
1

> <r_epik_Ionization_Penalty>
0.0006373

> <r_epik_Ionization_Penalty_Charging>
0

> <r_epik_Ionization_Penalty_Neutral>
0.0006373

> <r_epik_State_Penalty>
0.000394234

> <r_epik_Charging_Adjusted_Penalty>
0.000394234

> <i_epik_Tot_Q>
0

> <i_epik_Tot_abs_Q>
0

> <r_epik_Metal_State_Penalty>
-0

> <b_epik_Metal_Only>
0

> <s_lp_Force_Field>
OPLS_2005

> <r_lp_Energy>
24.3939

> <b_lp_Chiralities_Consistent>
1

> <s_lp_Variant>
AV-unprocessed.smi:2608-1

> <Gold.Version>
5.8.1

> <Gold.Id.Protein>
6NUR|6NUR_protein|mol2

> <Gold.PLP.Fitness>
43.5866

> <Gold.PLP.PLP>
-36.5774

> <Gold.PLP.part.hbond>
-3.7956

> <Gold.PLP.part.metal>
0.0000

> <Gold.PLP.part.buried>
1.7084

> <Gold.PLP.part.nonpolar>
-34.4486

> <Gold.PLP.part.repulsive>
0.2141

> <Gold.PLP.ligand.clash>
0.0000

> <Gold.PLP.ligand.torsion>
0.3078

> <Gold.PLP.Chemscore.Hbond>
1.4895

> <Gold.PLP.Chemscore.CHOScore>
1.0000

> <Gold.PLP.Chemscore.Metal>
0.0000

> <Gold.Chemscore.Hbonds>
donor molecule, donor type, donor heavy atom, donor atom, acceptor molecule, acceptor atom, score
      P1  H  7989  7998       L1    12  0.71
      P1  H  7997  8008       L1    14  0.42
      P1  H 10752 10765       L1    17  0.34
      L1  C    11    32       P1  7957  1.00

> <Gold.PLP.Chemscore.Internal.Correction>
0.1564

> <Gold.Rescore>
     Score         DG    S(hbond)    S(metal)    S(lipo)     H(rot)  DE(clash)    DE(int)     intcor
     11.64     -14.85       0.26        0.00     101.20       1.31       1.21       1.99       ----

> <Gold.Chemscore.Fitness>
11.6439

> <Gold.Chemscore.DG>
-14.8461

> <Gold.Chemscore.ZeroCoef>
-5.4800

> <Gold.Chemscore.Hbond>
0.2648

> <Gold.Chemscore.Metal>
0.0000

> <Gold.Chemscore.Lipo>
101.2038

> <Gold.Chemscore.Internal_Hbond>
0.0000

> <Gold.Chemscore.DEClash>
1.2104

> <Gold.Chemscore.DEInternal>
1.9918

> <Gold.Chemscore.Rot>
1.3122

> <Gold.Chemscore.Internal.Correction>
   9.000000E+99

> <Gold.Chemscore.Hbonds>
donor molecule, donor type, donor heavy atom, donor atom, acceptor molecule, acceptor atom, score
      P1  H  7989  7998       L1    12  0.02
      P1  H 10752 10765       L1    17  0.27

> <Gold.Chemscore.Hbond.Weighted>
-0.8844

> <Gold.Chemscore.Metal.Weighted>
-0.0000

> <Gold.Chemscore.Lipo.Weighted>
-11.8408

> <Gold.Chemscore.Internal_Hbond.Weighted>
0.0000

> <Gold.Chemscore.DEClash.Weighted>
1.2104

> <Gold.Chemscore.DEInternal.Weighted>
1.9918

> <Gold.Chemscore.Rot.Weighted>
3.3592

> <Gold.Chemscore.Internal.Correction.Weighted>
   9.000000E+99

> <Gold.Protein.RotatedTorsions>
[ 6907 6896 6895 6894 ] final  -53.60 input  -60.11 | X-H torsion
[ 7974 7965 7964 7962 ] final -145.23 input  175.53 | X-H torsion
[ 8008 7997 7996 7995 ] final  -42.48 input   59.86 | X-H torsion
[ 10167 10162 10161 10158 ] final -125.43 input  -65.29 | X-H torsion
[ 10718 10713 10712 10709 ] final -136.97 input   66.30 | X-H torsion
[ 10763 10752 10751 10750 ] final -103.62 input  -60.55 | X-H torsion
[ 11005 11000 10999 10996 ] final -114.51 input  -57.11 | X-H torsion

> <Gold.Protein.ActiveResidues>
 VAL166  LYS551  ARG553  GLY616  TRP617  ASP618  TYR619  PRO620  LYS621  CYS622 
 ASP623  PHE694  ASN695  SER759  ASP760  ASP761  ALA762  ILE779  LEU786  VAL792 
 PHE793  MET794  SER795  GLU796  ALA797  LYS798  CYS799  TRP800  GLU811  SER814 

> <Gold.Protein.RotatedAtoms>
  150.8412  134.7705  159.6933 H   0  0  0  0  0  0  0  0  0  0  0  0  # atno 6907 bound_to 6896
  152.4499  134.5413  159.9849 H   0  0  0  0  0  0  0  0  0  0  0  0  # atno 6908 bound_to 6896
  151.5552  133.3373  159.2996 H   0  0  0  0  0  0  0  0  0  0  0  0  # atno 6909 bound_to 6896
  144.8242  140.5610  143.5558 H   0  0  0  0  0  0  0  0  0  0  0  0  # atno 7974 bound_to 7965
  154.3999  140.1472  156.3363 H   0  0  0  0  0  0  0  0  0  0  0  0  # atno 8008 bound_to 7997
  155.8398  140.3462  155.5603 H   0  0  0  0  0  0  0  0  0  0  0  0  # atno 8009 bound_to 7997
  155.8099  140.0882  157.1900 H   0  0  0  0  0  0  0  0  0  0  0  0  # atno 8010 bound_to 7997
  139.9822  143.5730  152.2374 H   0  0  0  0  0  0  0  0  0  0  0  0  # atno 10167 bound_to 10162
  156.2829  130.7331  151.1334 H   0  0  0  0  0  0  0  0  0  0  0  0  # atno 10718 bound_to 10713
  154.7820  135.4816  153.9866 H   0  0  0  0  0  0  0  0  0  0  0  0  # atno 10763 bound_to 10752
  153.1507  135.6790  153.8893 H   0  0  0  0  0  0  0  0  0  0  0  0  # atno 10764 bound_to 10752
  153.8538  135.3164  155.3412 H   0  0  0  0  0  0  0  0  0  0  0  0  # atno 10765 bound_to 10752
  141.0547  133.9632  157.2775 H   0  0  0  0  0  0  0  0  0  0  0  0  # atno 11005 bound_to 11000
  145.5037  139.1482  143.3643 LP  0  0  0  0  0  0  0  0  0  0  0  0  # atno 17320 bound_to 7965
  146.2547  140.5177  142.8878 LP  0  0  0  0  0  0  0  0  0  0  0  0  # atno 17321 bound_to 7965
  139.6401  144.7654  151.2356 LP  0  0  0  0  0  0  0  0  0  0  0  0  # atno 17342 bound_to 10162
  140.7485  143.6331  150.8404 LP  0  0  0  0  0  0  0  0  0  0  0  0  # atno 17343 bound_to 10162
  157.7320  131.0603  150.5650 LP  0  0  0  0  0  0  0  0  0  0  0  0  # atno 17370 bound_to 10713
  156.5758  130.4291  149.5999 LP  0  0  0  0  0  0  0  0  0  0  0  0  # atno 17371 bound_to 10713
  139.9380  135.0194  156.8617 LP  0  0  0  0  0  0  0  0  0  0  0  0  # atno 17394 bound_to 11000
  140.5987  134.0192  155.7528 LP  0  0  0  0  0  0  0  0  0  0  0  0  # atno 17395 bound_to 11000

$$$$
