AV-unprocessed.smi:1682|AV-procd|sdf|6746|dock5
  -GOLD-   22720 7503D 1   1.00000     0.00000
 Structure written by MMmdl.
 39 40  0  0  0  0  0  0  0  0  2 V2000
  149.1731  141.3722  153.9654 O   0  0  0  0  0  0  0  0  0  0  0  0
  148.3597  141.1017  154.8493 C   0  0  0  0  0  0  0  0  0  0  0  0
  148.7132  140.8264  156.1141 N   0  0  0  0  0  0  0  0  0  0  0  0
  150.0824  140.8206  156.6225 C   0  0  0  0  0  0  0  0  0  0  0  0
  150.8359  142.1399  156.3546 C   0  0  0  0  0  0  0  0  0  0  0  0
  151.3152  142.8369  157.6162 C   0  0  0  0  0  0  0  0  0  0  0  0
  152.2752  142.2586  158.4757 C   0  0  0  0  0  0  0  0  0  0  0  0
  152.6832  142.9629  159.6272 C   0  0  0  0  0  0  0  0  0  0  0  0
  152.1213  144.2281  159.8969 C   0  0  0  0  0  0  0  0  0  0  0  0
  151.1652  144.7577  159.0064 C   0  0  0  0  0  0  0  0  0  0  0  0
  150.8019  144.0530  157.9120 N   0  3  0  0  0  0  0  0  0  0  0  0
  146.8547  141.0854  154.5402 C   0  0  1  0  0  0  0  0  0  0  0  0
  146.1307  139.9973  155.3570 C   0  0  0  0  0  0  0  0  0  0  0  0
  145.2427  140.7796  156.3090 C   0  0  0  0  0  0  0  0  0  0  0  0
  144.5943  140.2422  157.2051 O   0  0  0  0  0  0  0  0  0  0  0  0
  145.2870  142.0890  156.0420 N   0  0  0  0  0  0  0  0  0  0  0  0
  144.5855  143.1466  156.7685 C   0  0  0  0  0  0  0  0  0  0  0  0
  143.3054  143.6079  156.0481 C   0  0  0  0  0  0  0  0  0  0  0  0
  142.3753  142.6533  156.0540 F   0  0  0  0  0  0  0  0  0  0  0  0
  142.8164  144.6764  156.6759 F   0  0  0  0  0  0  0  0  0  0  0  0
  143.5791  143.9449  154.7877 F   0  0  0  0  0  0  0  0  0  0  0  0
  146.1529  142.4086  154.9184 C   0  0  0  0  0  0  0  0  0  0  0  0
  147.9799  140.6091  156.7737 H   0  0  0  0  0  0  0  0  0  0  0  0
  150.0275  140.6472  157.6974 H   0  0  0  0  0  0  0  0  0  0  0  0
  150.6330  139.9773  156.2028 H   0  0  0  0  0  0  0  0  0  0  0  0
  151.6936  141.9463  155.7093 H   0  0  0  0  0  0  0  0  0  0  0  0
  150.1955  142.8254  155.7983 H   0  0  0  0  0  0  0  0  0  0  0  0
  152.6980  141.2891  158.2537 H   0  0  0  0  0  0  0  0  0  0  0  0
  153.4176  142.5375  160.2955 H   0  0  0  0  0  0  0  0  0  0  0  0
  152.4191  144.7835  160.7745 H   0  0  0  0  0  0  0  0  0  0  0  0
  150.6836  145.7162  159.1352 H   0  0  0  0  0  0  0  0  0  0  0  0
  146.7138  140.8967  153.4744 H   0  0  0  0  0  0  0  0  0  0  0  0
  145.5114  139.3699  154.7153 H   0  0  0  0  0  0  0  0  0  0  0  0
  146.8041  139.3454  155.9159 H   0  0  0  0  0  0  0  0  0  0  0  0
  144.3428  142.7983  157.7736 H   0  0  0  0  0  0  0  0  0  0  0  0
  145.2575  143.9962  156.8977 H   0  0  0  0  0  0  0  0  0  0  0  0
  146.8527  143.2020  155.1869 H   0  0  0  0  0  0  0  0  0  0  0  0
  145.5471  142.7744  154.0884 H   0  0  0  0  0  0  0  0  0  0  0  0
  150.1083  144.4559  157.2815 H   0  0  0  0  0  0  0  0  0  0  0  0
  1  2  2  0  0  0  0
  2  3  1  0  0  0  0
  2 12  1  0  0  0  0
  3  4  1  0  0  0  0
  3 23  1  0  0  0  0
  4  5  1  0  0  0  0
  4 24  1  0  0  0  0
  4 25  1  0  0  0  0
  5  6  1  0  0  0  0
  5 26  1  0  0  0  0
  5 27  1  0  0  0  0
  6 11  1  0  0  0  0
  6  7  2  0  0  0  0
  7  8  1  0  0  0  0
  7 28  1  0  0  0  0
  8  9  2  0  0  0  0
  8 29  1  0  0  0  0
  9 10  1  0  0  0  0
  9 30  1  0  0  0  0
 10 11  2  0  0  0  0
 10 31  1  0  0  0  0
 11 39  1  0  0  0  0
 12 22  1  0  0  0  0
 12 13  1  0  0  0  0
 12 32  1  0  0  0  0
 13 14  1  0  0  0  0
 13 33  1  0  0  0  0
 13 34  1  0  0  0  0
 14 15  2  0  0  0  0
 14 16  1  0  0  0  0
 16 17  1  0  0  0  0
 16 22  1  0  0  0  0
 17 18  1  0  0  0  0
 17 35  1  0  0  0  0
 17 36  1  0  0  0  0
 18 19  1  0  0  0  0
 18 20  1  0  0  0  0
 18 21  1  0  0  0  0
 22 37  1  0  0  0  0
 22 38  1  0  0  0  0
M  CHG  1  11   1
M  END
> <s_m_source_file>
AV-unprocessed.smi

> <i_m_source_file_index>
1682

> <i_lp_mmshare_version>
43012

> <i_f3d_flags>
0

> <s_epik_input>
RkMoRikoRilbQ0gyXU4oW0NIMl0xKUMoPU8pW0NIMl1bQ0BIXTFDKD1PKVtOSF1bQ0gyXVtDSDJdYzJbY0hdW2NIXVtjSF1bY0hdbjI=

> <s_epik_cmdline>
J2VwaWtfcHl0aG9uJywgJy1waCcsICc3LjAnLCAnLXRuJywgJzgnLCAnLW1hJywgJzIwMCcsICctbWV0YWxfYmluZGluZycsICctaW1hZScsICc8aW5maWxlLm1hZT4nLCAnLW9tYWUnLCAnPG91dGZpbGUubWFlPic=

> <r_epik_Ionization_Penalty>
1.88249

> <r_epik_Ionization_Penalty_Charging>
1.88249

> <r_epik_Ionization_Penalty_Neutral>
2.8664e-08

> <r_epik_State_Penalty>
2.00238

> <r_epik_Charging_Adjusted_Penalty>
3.88487

> <i_epik_Tot_Q>
1

> <i_epik_Tot_abs_Q>
1

> <r_epik_Metal_State_Penalty>
2.02677

> <b_epik_Metal_Only>
0

> <s_lp_Force_Field>
OPLS_2005

> <r_lp_Energy>
19.2524

> <b_lp_Chiralities_Consistent>
1

> <s_lp_Variant>
AV-unprocessed.smi:1682-4

> <Gold.Version>
5.8.1

> <Gold.Id.Protein>
6NUR|6NUR_protein|mol2

> <Gold.PLP.Fitness>
50.9948

> <Gold.PLP.PLP>
-45.0013

> <Gold.PLP.part.hbond>
-3.0000

> <Gold.PLP.part.metal>
0.0000

> <Gold.PLP.part.buried>
-7.3161

> <Gold.PLP.part.nonpolar>
-36.7997

> <Gold.PLP.part.repulsive>
1.4805

> <Gold.PLP.ligand.clash>
0.0000

> <Gold.PLP.ligand.torsion>
1.4113

> <Gold.PLP.Chemscore.Hbond>
2.8938

> <Gold.PLP.Chemscore.CHOScore>
0.0000

> <Gold.PLP.Chemscore.Metal>
0.0000

> <Gold.Chemscore.Hbonds>
donor molecule, donor type, donor heavy atom, donor atom, acceptor molecule, acceptor atom, score
      L1  H    11    39       P1  8028  2.00
      P1  H  8011  8017       L1     1  0.75

> <Gold.PLP.Chemscore.Internal.Correction>
0.1348

> <Gold.Rescore>
     Score         DG    S(hbond)    S(metal)    S(lipo)     H(rot)  DE(clash)    DE(int)     intcor
     12.11     -16.15       1.67        0.00      91.46       2.19       1.63       2.42       ----

> <Gold.Chemscore.Fitness>
12.1074

> <Gold.Chemscore.DG>
-16.1498

> <Gold.Chemscore.ZeroCoef>
-5.4800

> <Gold.Chemscore.Hbond>
1.6718

> <Gold.Chemscore.Metal>
0.0000

> <Gold.Chemscore.Lipo>
91.4580

> <Gold.Chemscore.Internal_Hbond>
0.0000

> <Gold.Chemscore.DEClash>
1.6257

> <Gold.Chemscore.DEInternal>
2.4167

> <Gold.Chemscore.Rot>
2.1932

> <Gold.Chemscore.Internal.Correction>
   9.000000E+99

> <Gold.Chemscore.Hbonds>
donor molecule, donor type, donor heavy atom, donor atom, acceptor molecule, acceptor atom, score
      L1  H    11    39       P1  8028  0.47
      P1  H  8011  8017       L1     1  0.70

> <Gold.Chemscore.Hbond.Weighted>
-5.5837

> <Gold.Chemscore.Metal.Weighted>
-0.0000

> <Gold.Chemscore.Lipo.Weighted>
-10.7006

> <Gold.Chemscore.Internal_Hbond.Weighted>
0.0000

> <Gold.Chemscore.DEClash.Weighted>
1.6257

> <Gold.Chemscore.DEInternal.Weighted>
2.4167

> <Gold.Chemscore.Rot.Weighted>
5.6145

> <Gold.Chemscore.Internal.Correction.Weighted>
   9.000000E+99

> <Gold.Protein.RotatedTorsions>
[ 6907 6896 6895 6894 ] final  -48.29 input  -60.11 | X-H torsion
[ 7974 7965 7964 7962 ] final  161.69 input  175.53 | X-H torsion
[ 8008 7997 7996 7995 ] final   91.36 input   59.86 | X-H torsion
[ 10167 10162 10161 10158 ] final  168.14 input  -65.29 | X-H torsion
[ 10718 10713 10712 10709 ] final   36.50 input   66.30 | X-H torsion
[ 10763 10752 10751 10750 ] final  -55.73 input  -60.55 | X-H torsion
[ 11005 11000 10999 10996 ] final  170.30 input  -57.11 | X-H torsion

> <Gold.Protein.ActiveResidues>
 VAL166  LYS551  ARG553  GLY616  TRP617  ASP618  TYR619  PRO620  LYS621  CYS622 
 ASP623  PHE694  ASN695  SER759  ASP760  ASP761  ALA762  ILE779  LEU786  VAL792 
 PHE793  MET794  SER795  GLU796  ALA797  LYS798  CYS799  TRP800  GLU811  SER814 

> <Gold.Protein.RotatedAtoms>
  150.8921  134.8325  159.7300 H   0  0  0  0  0  0  0  0  0  0  0  0  # atno 6907 bound_to 6896
  152.4843  134.4633  159.9622 H   0  0  0  0  0  0  0  0  0  0  0  0  # atno 6908 bound_to 6896
  151.4694  133.3534  159.2856 H   0  0  0  0  0  0  0  0  0  0  0  0  # atno 6909 bound_to 6896
  144.7673  139.7933  143.6310 H   0  0  0  0  0  0  0  0  0  0  0  0  # atno 7974 bound_to 7965
  156.0228  140.3338  155.7057 H   0  0  0  0  0  0  0  0  0  0  0  0  # atno 8008 bound_to 7997
  155.5997  140.0654  157.2754 H   0  0  0  0  0  0  0  0  0  0  0  0  # atno 8009 bound_to 7997
  154.4322  140.1812  156.1148 H   0  0  0  0  0  0  0  0  0  0  0  0  # atno 8010 bound_to 7997
  139.4961  144.3846  151.9584 H   0  0  0  0  0  0  0  0  0  0  0  0  # atno 10167 bound_to 10162
  157.3356  130.7521  149.6877 H   0  0  0  0  0  0  0  0  0  0  0  0  # atno 10718 bound_to 10713
  154.1954  135.6420  153.5072 H   0  0  0  0  0  0  0  0  0  0  0  0  # atno 10763 bound_to 10752
  153.0025  135.5438  154.6371 H   0  0  0  0  0  0  0  0  0  0  0  0  # atno 10764 bound_to 10752
  154.5771  135.2922  155.0743 H   0  0  0  0  0  0  0  0  0  0  0  0  # atno 10765 bound_to 10752
  140.3068  134.7549  157.3960 H   0  0  0  0  0  0  0  0  0  0  0  0  # atno 11005 bound_to 11000
  146.1792  139.4976  142.9878 LP  0  0  0  0  0  0  0  0  0  0  0  0  # atno 17320 bound_to 7965
  145.6430  141.0280  143.1801 LP  0  0  0  0  0  0  0  0  0  0  0  0  # atno 17321 bound_to 7965
  140.3283  144.3347  150.5993 LP  0  0  0  0  0  0  0  0  0  0  0  0  # atno 17342 bound_to 10162
  140.5666  143.2185  151.7672 LP  0  0  0  0  0  0  0  0  0  0  0  0  # atno 17343 bound_to 10162
  155.9701  130.4182  150.4318 LP  0  0  0  0  0  0  0  0  0  0  0  0  # atno 17370 bound_to 10713
  157.2357  131.0514  151.2466 LP  0  0  0  0  0  0  0  0  0  0  0  0  # atno 17371 bound_to 10713
  140.1060  134.5409  155.8309 LP  0  0  0  0  0  0  0  0  0  0  0  0  # atno 17394 bound_to 11000
  141.2116  133.6709  156.6599 LP  0  0  0  0  0  0  0  0  0  0  0  0  # atno 17395 bound_to 11000

$$$$
