AV-unprocessed.smi:3090|AV-procd|sdf|11775|dock3
  -GOLD-   2272017153D 1   1.00000     0.00000
 Structure written by MMmdl.
 22 22  0  0  0  0  0  0  0  0  2 V2000
  145.2632  136.9205  151.8759 C   0  0  0  0  0  0  0  0  0  0  0  0
  144.6718  135.6070  151.7378 N   0  0  0  0  0  0  0  0  0  0  0  0
  144.6074  134.8056  150.6188 C   0  0  0  0  0  0  0  0  0  0  0  0
  143.9532  133.6571  150.9713 C   0  0  0  0  0  0  0  0  0  0  0  0
  143.6220  132.4507  150.1328 C   0  0  1  0  0  0  0  0  0  0  0  0
  142.2268  132.2263  150.0803 O   0  0  0  0  0  0  0  0  0  0  0  0
  144.1408  132.6303  148.6953 C   0  0  0  0  0  0  0  0  0  0  0  0
  143.4819  133.7568  148.0116 N   0  3  0  0  0  0  0  0  0  0  0  0
  143.6569  133.8602  152.3499 C   0  0  0  0  0  0  0  0  0  0  0  0
  144.0874  135.0252  152.8046 N   0  0  0  0  0  0  0  0  0  0  0  0
  145.6917  137.2401  150.9255 H   0  0  0  0  0  0  0  0  0  0  0  0
  146.0519  136.8936  152.6285 H   0  0  0  0  0  0  0  0  0  0  0  0
  144.5012  137.6386  152.1799 H   0  0  0  0  0  0  0  0  0  0  0  0
  145.0287  135.1143  149.6732 H   0  0  0  0  0  0  0  0  0  0  0  0
  144.0772  131.5597  150.5671 H   0  0  0  0  0  0  0  0  0  0  0  0
  142.0760  131.3041  149.9349 H   0  0  0  0  0  0  0  0  0  0  0  0
  145.2200  132.7896  148.6892 H   0  0  0  0  0  0  0  0  0  0  0  0
  143.9489  131.7280  148.1134 H   0  0  0  0  0  0  0  0  0  0  0  0
  142.7325  134.1117  148.5883 H   0  0  0  0  0  0  0  0  0  0  0  0
  143.1069  133.4355  147.1302 H   0  0  0  0  0  0  0  0  0  0  0  0
  143.1445  133.1961  153.0306 H   0  0  0  0  0  0  0  0  0  0  0  0
  144.1556  134.4899  147.8427 H   0  0  0  0  0  0  0  0  0  0  0  0
  1  2  1  0  0  0  0
  1 11  1  0  0  0  0
  1 12  1  0  0  0  0
  1 13  1  0  0  0  0
  2 10  1  0  0  0  0
  2  3  1  0  0  0  0
  3  4  2  0  0  0  0
  3 14  1  0  0  0  0
  4  5  1  0  0  0  0
  4  9  1  0  0  0  0
  5  6  1  0  0  0  0
  5  7  1  0  0  0  0
  5 15  1  0  0  0  0
  6 16  1  0  0  0  0
  7  8  1  0  0  0  0
  7 17  1  0  0  0  0
  7 18  1  0  0  0  0
  8 19  1  0  0  0  0
  8 20  1  0  0  0  0
  8 22  1  0  0  0  0
  9 10  2  0  0  0  0
  9 21  1  0  0  0  0
M  CHG  1   8   1
M  END
> <s_m_source_file>
AV-unprocessed.smi

> <i_m_source_file_index>
3090

> <i_lp_mmshare_version>
43012

> <i_f3d_flags>
0

> <s_epik_input>
W0NIM11uMVtjSF1jKFtjSF1uMSlbQ0BIXShbT0hdKVtDSDJdW05IMl0=

> <s_epik_cmdline>
J2VwaWtfcHl0aG9uJywgJy1waCcsICc3LjAnLCAnLXRuJywgJzgnLCAnLW1hJywgJzIwMCcsICctbWV0YWxfYmluZGluZycsICctaW1hZScsICc8aW5maWxlLm1hZT4nLCAnLW9tYWUnLCAnPG91dGZpbGUubWFlPic=

> <r_lp_tautomer_probability>
1

> <r_epik_Ionization_Penalty>
0.014056

> <r_epik_Ionization_Penalty_Charging>
0.0140431

> <r_epik_Ionization_Penalty_Neutral>
1.29738e-05

> <r_epik_State_Penalty>
0.0109628

> <r_epik_Charging_Adjusted_Penalty>
0.0250059

> <i_epik_Tot_Q>
1

> <i_epik_Tot_abs_Q>
1

> <r_epik_Metal_State_Penalty>
0.0109636

> <b_epik_Metal_Only>
0

> <s_lp_Force_Field>
OPLS_2005

> <r_lp_Energy>
1.35566

> <b_lp_Chiralities_Consistent>
1

> <s_lp_Variant>
AV-unprocessed.smi:3090-2

> <Gold.Version>
5.8.1

> <Gold.Id.Protein>
6NUR|6NUR_protein|mol2

> <Gold.PLP.Fitness>
43.1394

> <Gold.PLP.PLP>
-22.2176

> <Gold.PLP.part.hbond>
-4.6879

> <Gold.PLP.part.metal>
0.0000

> <Gold.PLP.part.buried>
-0.9723

> <Gold.PLP.part.nonpolar>
-17.9712

> <Gold.PLP.part.repulsive>
0.2843

> <Gold.PLP.ligand.clash>
0.0000

> <Gold.PLP.ligand.torsion>
0.0043

> <Gold.PLP.Chemscore.Hbond>
4.9760

> <Gold.PLP.Chemscore.CHOScore>
2.0000

> <Gold.PLP.Chemscore.Metal>
0.0000

> <Gold.Chemscore.Hbonds>
donor molecule, donor type, donor heavy atom, donor atom, acceptor molecule, acceptor atom, score
      L1  H     6    16       P1 10952  0.74
      L1  H     8    19       P1 10186  2.00
      L1  H     8    20       P1 10195  0.89
      L1  H     8    22       P1  7921  0.85
      L1  C     3    14       P1  7921  1.00
      L1  C     9    21       P1 10957  1.00

> <Gold.PLP.Chemscore.Internal.Correction>
0.0024

> <Gold.Rescore>
     Score         DG    S(hbond)    S(metal)    S(lipo)     H(rot)  DE(clash)    DE(int)     intcor
     17.01     -18.20       3.58        0.00      49.22       1.96       0.18       1.01       ----

> <Gold.Chemscore.Fitness>
17.0130

> <Gold.Chemscore.DG>
-18.1997

> <Gold.Chemscore.ZeroCoef>
-5.4800

> <Gold.Chemscore.Hbond>
3.5825

> <Gold.Chemscore.Metal>
0.0000

> <Gold.Chemscore.Lipo>
49.2238

> <Gold.Chemscore.Internal_Hbond>
0.0000

> <Gold.Chemscore.DEClash>
0.1804

> <Gold.Chemscore.DEInternal>
1.0062

> <Gold.Chemscore.Rot>
1.9551

> <Gold.Chemscore.Internal.Correction>
   9.000000E+99

> <Gold.Chemscore.Hbonds>
donor molecule, donor type, donor heavy atom, donor atom, acceptor molecule, acceptor atom, score
      L1  H     6    16       P1 10952  0.66
      L1  H     8    19       P1 10186  0.97
      L1  H     8    20       P1 10195  0.87
      L1  H     8    22       P1  7921  0.80

> <Gold.Chemscore.Hbond.Weighted>
-11.9657

> <Gold.Chemscore.Metal.Weighted>
-0.0000

> <Gold.Chemscore.Lipo.Weighted>
-5.7592

> <Gold.Chemscore.Internal_Hbond.Weighted>
0.0000

> <Gold.Chemscore.DEClash.Weighted>
0.1804

> <Gold.Chemscore.DEInternal.Weighted>
1.0062

> <Gold.Chemscore.Rot.Weighted>
5.0051

> <Gold.Chemscore.Internal.Correction.Weighted>
   9.000000E+99

> <Gold.Protein.RotatedTorsions>
[ 6907 6896 6895 6894 ] final  -15.06 input  -60.11 | X-H torsion
[ 7974 7965 7964 7962 ] final   18.85 input  175.53 | X-H torsion
[ 8008 7997 7996 7995 ] final  -76.40 input   59.86 | X-H torsion
[ 10167 10162 10161 10158 ] final  -57.43 input  -65.29 | X-H torsion
[ 10718 10713 10712 10709 ] final -144.18 input   66.30 | X-H torsion
[ 10763 10752 10751 10750 ] final  171.28 input  -60.55 | X-H torsion
[ 11005 11000 10999 10996 ] final  165.25 input  -57.11 | X-H torsion

> <Gold.Protein.ActiveResidues>
 VAL166  LYS551  ARG553  GLY616  TRP617  ASP618  TYR619  PRO620  LYS621  CYS622 
 ASP623  PHE694  ASN695  SER759  ASP760  ASP761  ALA762  ILE779  LEU786  VAL792 
 PHE793  MET794  SER795  GLU796  ALA797  LYS798  CYS799  TRP800  GLU811  SER814 

> <Gold.Protein.RotatedAtoms>
  151.3298  135.0839  159.9334 H   0  0  0  0  0  0  0  0  0  0  0  0  # atno 6907 bound_to 6896
  152.5237  133.9554  159.7702 H   0  0  0  0  0  0  0  0  0  0  0  0  # atno 6908 bound_to 6896
  150.9890  133.6115  159.2741 H   0  0  0  0  0  0  0  0  0  0  0  0  # atno 6909 bound_to 6896
  146.2170  139.8398  142.8643 H   0  0  0  0  0  0  0  0  0  0  0  0  # atno 7974 bound_to 7965
  154.5501  140.0728  156.8654 H   0  0  0  0  0  0  0  0  0  0  0  0  # atno 8008 bound_to 7997
  155.3009  140.3384  155.4229 H   0  0  0  0  0  0  0  0  0  0  0  0  # atno 8009 bound_to 7997
  156.1954  140.1701  156.7995 H   0  0  0  0  0  0  0  0  0  0  0  0  # atno 8010 bound_to 7997
  140.6258  143.2438  151.5366 H   0  0  0  0  0  0  0  0  0  0  0  0  # atno 10167 bound_to 10162
  156.3670  130.7768  151.1944 H   0  0  0  0  0  0  0  0  0  0  0  0  # atno 10718 bound_to 10713
  154.4096  135.2756  155.2045 H   0  0  0  0  0  0  0  0  0  0  0  0  # atno 10763 bound_to 10752
  154.4036  135.6038  153.5915 H   0  0  0  0  0  0  0  0  0  0  0  0  # atno 10764 bound_to 10752
  152.9831  135.5932  154.4376 H   0  0  0  0  0  0  0  0  0  0  0  0  # atno 10765 bound_to 10752
  140.2542  134.7953  157.3530 H   0  0  0  0  0  0  0  0  0  0  0  0  # atno 11005 bound_to 11000
  145.2910  141.0167  143.3663 LP  0  0  0  0  0  0  0  0  0  0  0  0  # atno 17320 bound_to 7965
  144.9077  139.4568  143.6602 LP  0  0  0  0  0  0  0  0  0  0  0  0  # atno 17321 bound_to 7965
  139.5479  144.2473  152.1476 LP  0  0  0  0  0  0  0  0  0  0  0  0  # atno 17342 bound_to 10162
  140.1704  144.4941  150.6583 LP  0  0  0  0  0  0  0  0  0  0  0  0  # atno 17343 bound_to 10162
  157.7480  131.0383  150.4498 LP  0  0  0  0  0  0  0  0  0  0  0  0  # atno 17370 bound_to 10713
  156.4718  130.4054  149.6513 LP  0  0  0  0  0  0  0  0  0  0  0  0  # atno 17371 bound_to 10713
  140.1528  134.4827  155.7949 LP  0  0  0  0  0  0  0  0  0  0  0  0  # atno 17394 bound_to 11000
  141.2198  133.6869  156.7409 LP  0  0  0  0  0  0  0  0  0  0  0  0  # atno 17395 bound_to 11000

$$$$
