AV-unprocessed.smi:193|AV-procd|sdf|1502|dock2
  -GOLD-   2262019333D 1   1.00000     0.00000
 Structure written by MMmdl.
 62 66  0  0  0  0  0  0  0  0  2 V2000
  146.3619  128.8961  152.9443 C   0  0  0  0  0  0  0  0  0  0  0  0
  146.9057  130.3186  152.7421 C   0  0  2  0  0  0  0  0  0  0  0  0
  147.1112  131.0219  154.0976 C   0  0  0  0  0  0  0  0  0  0  0  0
  148.1926  132.0037  154.0410 N   0  0  0  0  0  0  0  0  0  0  0  0
  148.7567  132.2252  155.2466 C   0  0  0  0  0  0  0  0  0  0  0  0
  150.0792  132.5189  155.2743 N   0  0  0  0  0  0  0  0  0  0  0  0
  150.6862  132.7425  156.4445 C   0  0  0  0  0  0  0  0  0  0  0  0
  150.1641  132.7242  157.6734 N   0  0  0  0  0  0  0  0  0  0  0  0
  148.8322  132.4301  157.6443 C   0  0  0  0  0  0  0  0  0  0  0  0
  148.0549  132.1671  156.4825 C   0  0  0  0  0  0  0  0  0  0  0  0
  146.7376  131.9051  156.8383 N   0  0  0  0  0  0  0  0  0  0  0  0
  146.7357  132.0107  158.1397 C   0  0  0  0  0  0  0  0  0  0  0  0
  147.9501  132.3290  158.7057 N   0  0  0  0  0  0  0  0  0  0  0  0
  148.2302  132.5107  160.1222 C   0  0  0  0  0  0  0  0  0  0  0  0
  147.8833  133.9235  160.6540 C   0  0  0  0  0  0  0  0  0  0  0  0
  146.4754  134.0734  160.5883 O   0  0  0  0  0  0  0  0  0  0  0  0
  148.3195  134.0689  162.1261 C   0  0  0  0  0  0  0  0  0  0  0  0
  148.1492  135.5089  162.6428 C   0  0  0  0  0  0  0  0  0  0  0  0
  148.8542  136.4143  161.8027 O   0  0  0  0  0  0  0  0  0  0  0  0
  148.3547  136.4315  160.4713 C   0  0  0  0  0  0  0  0  0  0  0  0
  148.5338  135.0488  159.8197 C   0  0  0  0  0  0  0  0  0  0  0  0
  148.0065  133.2384  153.2848 C   0  0  0  0  0  0  0  0  0  0  0  0
  147.5950  133.0094  151.8225 C   0  0  0  0  0  0  0  0  0  0  0  0
  146.1810  132.5699  151.7452 N   0  3  1  0  0  0  0  0  0  0  0  0
  145.4551  133.2002  150.6174 C   0  0  1  0  0  0  0  0  0  0  0  0
  143.9773  132.8813  150.5819 C   0  0  0  0  0  0  0  0  0  0  0  0
  144.4388  134.2558  151.0154 C   0  0  1  0  0  0  0  0  0  0  0  0
  144.2294  134.7155  152.4469 C   0  0  0  0  0  0  0  0  0  0  0  0
  145.9850  131.0963  151.7720 C   0  0  0  0  0  0  0  0  0  0  0  0
  145.3889  128.9081  153.4364 H   0  0  0  0  0  0  0  0  0  0  0  0
  147.0373  128.3000  153.5590 H   0  0  0  0  0  0  0  0  0  0  0  0
  146.2476  128.3789  151.9910 H   0  0  0  0  0  0  0  0  0  0  0  0
  147.8842  130.2024  152.2733 H   0  0  0  0  0  0  0  0  0  0  0  0
  146.1857  131.4920  154.4330 H   0  0  0  0  0  0  0  0  0  0  0  0
  147.3667  130.2741  154.8510 H   0  0  0  0  0  0  0  0  0  0  0  0
  151.7413  132.9676  156.3889 H   0  0  0  0  0  0  0  0  0  0  0  0
  145.8413  131.8643  158.7281 H   0  0  0  0  0  0  0  0  0  0  0  0
  147.6810  131.7498  160.6787 H   0  0  0  0  0  0  0  0  0  0  0  0
  149.2877  132.2996  160.2869 H   0  0  0  0  0  0  0  0  0  0  0  0
  146.0838  133.5073  161.2358 H   0  0  0  0  0  0  0  0  0  0  0  0
  147.7657  133.3758  162.7609 H   0  0  0  0  0  0  0  0  0  0  0  0
  149.3707  133.7932  162.2195 H   0  0  0  0  0  0  0  0  0  0  0  0
  147.0956  135.7876  162.6950 H   0  0  0  0  0  0  0  0  0  0  0  0
  148.5458  135.5902  163.6550 H   0  0  0  0  0  0  0  0  0  0  0  0
  147.3066  136.7347  160.4681 H   0  0  0  0  0  0  0  0  0  0  0  0
  148.9009  137.1836  159.9019 H   0  0  0  0  0  0  0  0  0  0  0  0
  149.6015  134.8497  159.7198 H   0  0  0  0  0  0  0  0  0  0  0  0
  148.1294  135.0673  158.8071 H   0  0  0  0  0  0  0  0  0  0  0  0
  147.2726  133.8732  153.7824 H   0  0  0  0  0  0  0  0  0  0  0  0
  148.9481  133.7900  153.2961 H   0  0  0  0  0  0  0  0  0  0  0  0
  147.6974  133.9655  151.3070 H   0  0  0  0  0  0  0  0  0  0  0  0
  148.2637  132.3207  151.3049 H   0  0  0  0  0  0  0  0  0  0  0  0
  146.0124  133.2926  149.6868 H   0  0  0  0  0  0  0  0  0  0  0  0
  143.5031  132.8026  149.6056 H   0  0  0  0  0  0  0  0  0  0  0  0
  143.5716  132.2211  151.3466 H   0  0  0  0  0  0  0  0  0  0  0  0
  144.2967  135.0537  150.2889 H   0  0  0  0  0  0  0  0  0  0  0  0
  144.2526  133.8759  153.1423 H   0  0  0  0  0  0  0  0  0  0  0  0
  143.2605  135.2063  152.5404 H   0  0  0  0  0  0  0  0  0  0  0  0
  145.0050  135.4272  152.7302 H   0  0  0  0  0  0  0  0  0  0  0  0
  146.1239  130.6982  150.7656 H   0  0  0  0  0  0  0  0  0  0  0  0
  144.9420  130.9118  152.0321 H   0  0  0  0  0  0  0  0  0  0  0  0
  145.7462  132.9277  152.5837 H   0  0  0  0  0  0  0  0  0  0  0  0
  1  2  1  0  0  0  0
  1 30  1  0  0  0  0
  1 31  1  0  0  0  0
  1 32  1  0  0  0  0
  2 29  1  0  0  0  0
  2  3  1  0  0  0  0
  2 33  1  0  0  0  0
  3  4  1  0  0  0  0
  3 34  1  0  0  0  0
  3 35  1  0  0  0  0
  4  5  1  0  0  0  0
  4 22  1  0  0  0  0
  5 10  1  0  0  0  0
  5  6  2  0  0  0  0
  6  7  1  0  0  0  0
  7  8  2  0  0  0  0
  7 36  1  0  0  0  0
  8  9  1  0  0  0  0
  9 13  1  0  0  0  0
  9 10  2  0  0  0  0
 10 11  1  0  0  0  0
 11 12  2  0  0  0  0
 12 13  1  0  0  0  0
 12 37  1  0  0  0  0
 13 14  1  0  0  0  0
 14 15  1  0  0  0  0
 14 38  1  0  0  0  0
 14 39  1  0  0  0  0
 15 21  1  0  0  0  0
 15 16  1  0  0  0  0
 15 17  1  0  0  0  0
 16 40  1  0  0  0  0
 17 18  1  0  0  0  0
 17 41  1  0  0  0  0
 17 42  1  0  0  0  0
 18 19  1  0  0  0  0
 18 43  1  0  0  0  0
 18 44  1  0  0  0  0
 19 20  1  0  0  0  0
 20 21  1  0  0  0  0
 20 45  1  0  0  0  0
 20 46  1  0  0  0  0
 21 47  1  0  0  0  0
 21 48  1  0  0  0  0
 22 23  1  0  0  0  0
 22 49  1  0  0  0  0
 22 50  1  0  0  0  0
 23 24  1  0  0  0  0
 23 51  1  0  0  0  0
 23 52  1  0  0  0  0
 24 25  1  0  0  0  0
 24 29  1  0  0  0  0
 24 62  1  0  0  0  0
 25 27  1  0  0  0  0
 25 26  1  0  0  0  0
 25 53  1  0  0  0  0
 26 27  1  0  0  0  0
 26 54  1  0  0  0  0
 26 55  1  0  0  0  0
 27 28  1  0  0  0  0
 27 56  1  0  0  0  0
 28 57  1  0  0  0  0
 28 58  1  0  0  0  0
 28 59  1  0  0  0  0
 29 60  1  0  0  0  0
 29 61  1  0  0  0  0
M  CHG  1  24   1
M  END
> <s_m_source_file>
AV-unprocessed.smi

> <i_m_source_file_index>
193

> <i_lp_mmshare_version>
43012

> <i_f3d_flags>
0

> <s_epik_input>
W0NIM11bQ0BASF0xW0NIMl1bQ0BIXTFOKFtDSDJdMilbQ0gyXVtDSDJdTihbQ0gyXVtDQEhdMltDSDNdKWMobltjSF1uMyljKGMzNCluW2NIXW40W0NIMl1DNShbT0hdKVtDSDJdW0NIMl1PW0NIMl1bQ0gyXTU=

> <s_epik_cmdline>
J2VwaWtfcHl0aG9uJywgJy1waCcsICc3LjAnLCAnLXRuJywgJzgnLCAnLW1hJywgJzIwMCcsICctbWV0YWxfYmluZGluZycsICctaW1hZScsICc8aW5maWxlLm1hZT4nLCAnLW9tYWUnLCAnPG91dGZpbGUubWFlPic=

> <r_lp_tautomer_probability>
1

> <r_epik_Ionization_Penalty>
0.0540825

> <r_epik_Ionization_Penalty_Charging>
0.0538476

> <r_epik_Ionization_Penalty_Neutral>
0.000234891

> <r_epik_State_Penalty>
0.0200719

> <r_epik_Charging_Adjusted_Penalty>
0.0739194

> <i_epik_Tot_Q>
1

> <i_epik_Tot_abs_Q>
1

> <r_epik_Metal_State_Penalty>
0.0199414

> <b_epik_Metal_Only>
0

> <s_lp_Force_Field>
OPLS_2005

> <r_lp_Energy>
58.7768

> <b_lp_Chiralities_Consistent>
1

> <s_lp_Variant>
AV-unprocessed.smi:193-7

> <Gold.Version>
5.8.1

> <Gold.Id.Protein>
6NUR|6NUR_protein|mol2

> <Gold.PLP.Fitness>
46.8756

> <Gold.PLP.PLP>
-42.4917

> <Gold.PLP.part.hbond>
-2.0000

> <Gold.PLP.part.metal>
0.0000

> <Gold.PLP.part.buried>
-7.4950

> <Gold.PLP.part.nonpolar>
-33.2880

> <Gold.PLP.part.repulsive>
0.1065

> <Gold.PLP.ligand.clash>
0.0000

> <Gold.PLP.ligand.torsion>
1.6233

> <Gold.PLP.Chemscore.Hbond>
2.0000

> <Gold.PLP.Chemscore.CHOScore>
0.0000

> <Gold.PLP.Chemscore.Metal>
0.0000

> <Gold.Chemscore.Hbonds>
donor molecule, donor type, donor heavy atom, donor atom, acceptor molecule, acceptor atom, score
      P1  H  6896  6907       L1     8  1.00
      P1  H  6931  6943       L1    19  0.75

> <Gold.PLP.Chemscore.Internal.Correction>
1.6304

> <Gold.Rescore>
     Score         DG    S(hbond)    S(metal)    S(lipo)     H(rot)  DE(clash)    DE(int)     intcor
     14.66     -19.04       1.95        0.00     108.33       2.20       1.58       2.80       ----

> <Gold.Chemscore.Fitness>
14.6642

> <Gold.Chemscore.DG>
-19.0391

> <Gold.Chemscore.ZeroCoef>
-5.4800

> <Gold.Chemscore.Hbond>
1.9525

> <Gold.Chemscore.Metal>
0.0000

> <Gold.Chemscore.Lipo>
108.3282

> <Gold.Chemscore.Internal_Hbond>
0.0000

> <Gold.Chemscore.DEClash>
1.5789

> <Gold.Chemscore.DEInternal>
2.7960

> <Gold.Chemscore.Rot>
2.2018

> <Gold.Chemscore.Internal.Correction>
   9.000000E+99

> <Gold.Chemscore.Hbonds>
donor molecule, donor type, donor heavy atom, donor atom, acceptor molecule, acceptor atom, score
      P1  H  6896  6907       L1     8  0.98
      P1  H  6931  6943       L1    19  0.09

> <Gold.Chemscore.Hbond.Weighted>
-6.5213

> <Gold.Chemscore.Metal.Weighted>
-0.0000

> <Gold.Chemscore.Lipo.Weighted>
-12.6744

> <Gold.Chemscore.Internal_Hbond.Weighted>
0.0000

> <Gold.Chemscore.DEClash.Weighted>
1.5789

> <Gold.Chemscore.DEInternal.Weighted>
2.7960

> <Gold.Chemscore.Rot.Weighted>
5.6366

> <Gold.Chemscore.Internal.Correction.Weighted>
   9.000000E+99

> <Gold.Protein.RotatedTorsions>
[ 6907 6896 6895 6894 ] final -145.12 input  -60.11 | X-H torsion
[ 7974 7965 7964 7962 ] final -106.08 input  175.53 | X-H torsion
[ 8008 7997 7996 7995 ] final  160.99 input   59.86 | X-H torsion
[ 10167 10162 10161 10158 ] final  167.44 input  -65.29 | X-H torsion
[ 10718 10713 10712 10709 ] final   59.56 input   66.30 | X-H torsion
[ 10763 10752 10751 10750 ] final   91.91 input  -60.55 | X-H torsion
[ 11005 11000 10999 10996 ] final   25.02 input  -57.11 | X-H torsion

> <Gold.Protein.ActiveResidues>
 VAL166  LYS551  ARG553  GLY616  TRP617  ASP618  TYR619  PRO620  LYS621  CYS622 
 ASP623  PHE694  ASN695  SER759  ASP760  ASP761  ALA762  ILE779  LEU786  VAL792 
 PHE793  MET794  SER795  GLU796  ALA797  LYS798  CYS799  TRP800  GLU811  SER814 

> <Gold.Protein.RotatedAtoms>
  151.1234  133.5087  159.2601 H   0  0  0  0  0  0  0  0  0  0  0  0  # atno 6907 bound_to 6896
  151.1836  135.0371  159.8813 H   0  0  0  0  0  0  0  0  0  0  0  0  # atno 6908 bound_to 6896
  152.5457  134.1083  159.8401 H   0  0  0  0  0  0  0  0  0  0  0  0  # atno 6909 bound_to 6896
  145.2223  140.9139  143.3252 H   0  0  0  0  0  0  0  0  0  0  0  0  # atno 7974 bound_to 7965
  156.2135  140.1789  156.7643 H   0  0  0  0  0  0  0  0  0  0  0  0  # atno 8008 bound_to 7997
  154.5756  140.0675  156.9059 H   0  0  0  0  0  0  0  0  0  0  0  0  # atno 8009 bound_to 7997
  155.2593  140.3334  155.4277 H   0  0  0  0  0  0  0  0  0  0  0  0  # atno 8010 bound_to 7997
  139.4945  144.3921  151.9505 H   0  0  0  0  0  0  0  0  0  0  0  0  # atno 10167 bound_to 10162
  157.5685  130.8889  149.9227 H   0  0  0  0  0  0  0  0  0  0  0  0  # atno 10718 bound_to 10713
  153.2134  135.4380  155.0406 H   0  0  0  0  0  0  0  0  0  0  0  0  # atno 10763 bound_to 10752
  154.8212  135.3338  154.7035 H   0  0  0  0  0  0  0  0  0  0  0  0  # atno 10764 bound_to 10752
  153.7471  135.7001  153.5009 H   0  0  0  0  0  0  0  0  0  0  0  0  # atno 10765 bound_to 10752
  140.3523  134.2215  155.7679 H   0  0  0  0  0  0  0  0  0  0  0  0  # atno 11005 bound_to 11000
  144.9754  139.3837  143.6288 LP  0  0  0  0  0  0  0  0  0  0  0  0  # atno 17320 bound_to 7965
  146.3373  139.8870  142.8815 LP  0  0  0  0  0  0  0  0  0  0  0  0  # atno 17321 bound_to 7965
  140.3359  144.3262  150.5977 LP  0  0  0  0  0  0  0  0  0  0  0  0  # atno 17342 bound_to 10162
  140.5607  143.2192  151.7771 LP  0  0  0  0  0  0  0  0  0  0  0  0  # atno 17343 bound_to 10162
  156.0732  130.3682  150.0733 LP  0  0  0  0  0  0  0  0  0  0  0  0  # atno 17370 bound_to 10713
  156.8889  130.9581  151.3591 LP  0  0  0  0  0  0  0  0  0  0  0  0  # atno 17371 bound_to 10713
  141.2008  133.7977  157.0470 LP  0  0  0  0  0  0  0  0  0  0  0  0  # atno 17394 bound_to 11000
  140.0693  134.9711  157.1439 LP  0  0  0  0  0  0  0  0  0  0  0  0  # atno 17395 bound_to 11000

$$$$
