AV-unprocessed.smi:34|AV-procd|sdf|243|dock5
  -GOLD-   2262015593D 1   1.00000     0.00000
 Structure written by MMmdl.
 54 58  0  0  0  0  0  0  0  0  2 V2000
  143.9368  134.6612  153.4409 O   0  0  0  0  0  0  0  0  0  0  0  0
  144.9858  134.1041  153.1101 C   0  0  0  0  0  0  0  0  0  0  0  0
  146.1399  134.0114  153.8181 N   0  5  0  0  0  0  0  0  0  0  0  0
  146.7427  135.1238  154.2647 C   0  0  0  0  0  0  0  0  0  0  0  0
  146.0952  136.3163  154.2317 N   0  0  0  0  0  0  0  0  0  0  0  0
  146.6948  137.4231  154.6855 C   0  0  0  0  0  0  0  0  0  0  0  0
  147.9150  137.5616  155.2122 N   0  0  0  0  0  0  0  0  0  0  0  0
  148.5757  136.3684  155.2571 C   0  0  0  0  0  0  0  0  0  0  0  0
  148.0557  135.1183  154.8097 C   0  0  0  0  0  0  0  0  0  0  0  0
  148.9788  134.1016  155.0049 N   0  0  0  0  0  0  0  0  0  0  0  0
  149.9968  134.7646  155.5473 C   0  0  0  0  0  0  0  0  0  0  0  0
  149.8505  136.0924  155.7274 N   0  0  0  0  0  0  0  0  0  0  0  0
  150.8542  137.0382  156.3094 C   0  0  2  0  0  0  0  0  0  0  0  0
  150.1725  138.0726  156.9528 O   0  0  0  0  0  0  0  0  0  0  0  0
  150.8414  139.3097  156.7206 C   0  0  1  0  0  0  0  0  0  0  0  0
  151.9446  139.5012  157.7746 C   0  0  0  0  0  0  0  0  0  0  0  0
  152.1183  140.8877  158.0168 O   0  0  0  0  0  0  0  0  0  0  0  0
  152.6455  141.3105  159.1825 C   0  0  0  0  0  0  0  0  0  0  0  0
  153.2669  140.5788  159.9560 O   0  0  0  0  0  0  0  0  0  0  0  0
  152.3944  142.7577  159.4410 C   0  0  0  0  0  0  0  0  0  0  0  0
  152.1929  143.6325  158.3478 C   0  0  0  0  0  0  0  0  0  0  0  0
  151.9536  145.0040  158.5611 C   0  0  0  0  0  0  0  0  0  0  0  0
  151.9111  145.5170  159.8706 C   0  0  0  0  0  0  0  0  0  0  0  0
  152.1095  144.6572  160.9666 C   0  0  0  0  0  0  0  0  0  0  0  0
  152.3504  143.2856  160.7550 C   0  0  0  0  0  0  0  0  0  0  0  0
  151.3891  139.1474  155.3016 C   0  0  2  0  0  0  0  0  0  0  0  0
  150.4034  139.4222  154.4451 F   0  0  0  0  0  0  0  0  0  0  0  0
  151.7772  137.6754  155.2503 C   0  0  2  0  0  0  0  0  0  0  0  0
  151.6916  137.1352  153.9435 O   0  0  0  0  0  0  0  0  0  0  0  0
  145.0331  133.3672  151.7986 C   0  0  0  0  0  0  0  0  0  0  0  0
  143.8310  133.0814  151.1116 C   0  0  0  0  0  0  0  0  0  0  0  0
  143.8561  132.4152  149.8707 C   0  0  0  0  0  0  0  0  0  0  0  0
  145.0849  132.0363  149.2985 C   0  0  0  0  0  0  0  0  0  0  0  0
  146.2890  132.3284  149.9660 C   0  0  0  0  0  0  0  0  0  0  0  0
  146.2648  132.9940  151.2072 C   0  0  0  0  0  0  0  0  0  0  0  0
  146.1112  138.3291  154.6179 H   0  0  0  0  0  0  0  0  0  0  0  0
  150.9064  134.2540  155.8272 H   0  0  0  0  0  0  0  0  0  0  0  0
  151.4029  136.4394  157.0377 H   0  0  0  0  0  0  0  0  0  0  0  0
  150.1370  140.1412  156.7724 H   0  0  0  0  0  0  0  0  0  0  0  0
  151.6952  138.9732  158.6960 H   0  0  0  0  0  0  0  0  0  0  0  0
  152.8873  139.0928  157.4085 H   0  0  0  0  0  0  0  0  0  0  0  0
  152.2211  143.2615  157.3333 H   0  0  0  0  0  0  0  0  0  0  0  0
  151.8023  145.6625  157.7186 H   0  0  0  0  0  0  0  0  0  0  0  0
  151.7266  146.5685  160.0342 H   0  0  0  0  0  0  0  0  0  0  0  0
  152.0764  145.0496  161.9723 H   0  0  0  0  0  0  0  0  0  0  0  0
  152.4978  142.6536  161.6185 H   0  0  0  0  0  0  0  0  0  0  0  0
  152.2142  139.8216  155.0704 H   0  0  0  0  0  0  0  0  0  0  0  0
  152.8025  137.5607  155.6043 H   0  0  0  0  0  0  0  0  0  0  0  0
  151.8560  137.8253  153.3193 H   0  0  0  0  0  0  0  0  0  0  0  0
  142.8796  133.3675  151.5365 H   0  0  0  0  0  0  0  0  0  0  0  0
  142.9314  132.1967  149.3577 H   0  0  0  0  0  0  0  0  0  0  0  0
  145.1039  131.5262  148.3470 H   0  0  0  0  0  0  0  0  0  0  0  0
  147.2334  132.0450  149.5251 H   0  0  0  0  0  0  0  0  0  0  0  0
  147.2010  133.2182  151.6980 H   0  0  0  0  0  0  0  0  0  0  0  0
  1  2  2  0  0  0  0
  2  3  1  0  0  0  0
  2 30  1  0  0  0  0
  3  4  1  0  0  0  0
  4  9  1  0  0  0  0
  4  5  2  0  0  0  0
  5  6  1  0  0  0  0
  6  7  2  0  0  0  0
  6 36  1  0  0  0  0
  7  8  1  0  0  0  0
  8 12  1  0  0  0  0
  8  9  2  0  0  0  0
  9 10  1  0  0  0  0
 10 11  2  0  0  0  0
 11 12  1  0  0  0  0
 11 37  1  0  0  0  0
 12 13  1  0  0  0  0
 13 28  1  0  0  0  0
 13 14  1  0  0  0  0
 13 38  1  0  0  0  0
 14 15  1  0  0  0  0
 15 16  1  0  0  0  0
 15 26  1  0  0  0  0
 15 39  1  0  0  0  0
 16 17  1  0  0  0  0
 16 40  1  0  0  0  0
 16 41  1  0  0  0  0
 17 18  1  0  0  0  0
 18 19  2  0  0  0  0
 18 20  1  0  0  0  0
 20 25  1  0  0  0  0
 20 21  2  0  0  0  0
 21 22  1  0  0  0  0
 21 42  1  0  0  0  0
 22 23  2  0  0  0  0
 22 43  1  0  0  0  0
 23 24  1  0  0  0  0
 23 44  1  0  0  0  0
 24 25  2  0  0  0  0
 24 45  1  0  0  0  0
 25 46  1  0  0  0  0
 26 27  1  0  0  0  0
 26 28  1  0  0  0  0
 26 47  1  0  0  0  0
 28 29  1  0  0  0  0
 28 48  1  0  0  0  0
 29 49  1  0  0  0  0
 30 35  1  0  0  0  0
 30 31  2  0  0  0  0
 31 32  1  0  0  0  0
 31 50  1  0  0  0  0
 32 33  2  0  0  0  0
 32 51  1  0  0  0  0
 33 34  1  0  0  0  0
 33 52  1  0  0  0  0
 34 35  2  0  0  0  0
 34 53  1  0  0  0  0
 35 54  1  0  0  0  0
M  CHG  1   3  -1
M  END
> <s_m_source_file>
AV-unprocessed.smi

> <i_m_source_file_index>
34

> <i_lp_mmshare_version>
43012

> <i_f3d_flags>
0

> <s_epik_input>
W2NIXTFbY0hdW2NIXVtjSF1bY0hdYzFDKD1PKVtOSF1jKG5bY0hdbjIpYyhjMjMpbltjSF1uM1tDQEBIXTRPW0NASF0oW0NAQEhdKEYpW0NASF00W09IXSlbQ0gyXU9DKD1PKWM1W2NIXVtjSF1bY0hdW2NIXVtjSF01

> <s_epik_cmdline>
J2VwaWtfcHl0aG9uJywgJy1waCcsICc3LjAnLCAnLXRuJywgJzgnLCAnLW1hJywgJzIwMCcsICctbWV0YWxfYmluZGluZycsICctaW1hZScsICc8aW5maWxlLm1hZT4nLCAnLW9tYWUnLCAnPG91dGZpbGUubWFlPic=

> <r_lp_tautomer_probability>
1

> <r_epik_Ionization_Penalty>
4.33227

> <r_epik_Ionization_Penalty_Charging>
3.41027

> <r_epik_Ionization_Penalty_Neutral>
0.922001

> <r_epik_State_Penalty>
3.41358

> <r_epik_Charging_Adjusted_Penalty>
6.82385

> <i_epik_Tot_Q>
-1

> <i_epik_Tot_abs_Q>
1

> <r_epik_Metal_State_Penalty>
0.496292

> <b_epik_Metal_Only>
1

> <s_epik_Chemistry_Notes>
This compound has an ester and may undergo hydrolysis at high or low pH. This compound contains an acetal/aminal-like group ( X-CH(R)-Y where X, Y are N, S, or O) that may be acid/base labile, releasing an aldehyde.

> <s_lp_Force_Field>
OPLS_2005

> <r_lp_Energy>
51.1701

> <b_lp_Chiralities_Consistent>
1

> <s_lp_Variant>
AV-unprocessed.smi:34-29

> <Gold.Version>
5.8.1

> <Gold.Id.Protein>
6NUR|6NUR_protein|mol2

> <Gold.PLP.Fitness>
61.2118

> <Gold.PLP.PLP>
-62.4429

> <Gold.PLP.part.hbond>
-2.0000

> <Gold.PLP.part.metal>
0.0000

> <Gold.PLP.part.buried>
-8.1915

> <Gold.PLP.part.nonpolar>
-53.1801

> <Gold.PLP.part.repulsive>
0.4022

> <Gold.PLP.ligand.clash>
0.0000

> <Gold.PLP.ligand.torsion>
2.4537

> <Gold.PLP.Chemscore.Hbond>
1.0000

> <Gold.PLP.Chemscore.CHOScore>
0.0000

> <Gold.PLP.Chemscore.Metal>
0.0000

> <Gold.Chemscore.Hbonds>
donor molecule, donor type, donor heavy atom, donor atom, acceptor molecule, acceptor atom, score
      P1  H 10752 10765       L1    29  1.00

> <Gold.PLP.Chemscore.Internal.Correction>
0.6763

> <Gold.Rescore>
     Score         DG    S(hbond)    S(metal)    S(lipo)     H(rot)  DE(clash)    DE(int)     intcor
     13.20     -18.20       0.52        0.00     152.69       2.69       0.12       4.87       ----

> <Gold.Chemscore.Fitness>
13.2022

> <Gold.Chemscore.DG>
-18.1963

> <Gold.Chemscore.ZeroCoef>
-5.4800

> <Gold.Chemscore.Hbond>
0.5238

> <Gold.Chemscore.Metal>
0.0000

> <Gold.Chemscore.Lipo>
152.6857

> <Gold.Chemscore.Internal_Hbond>
0.0000

> <Gold.Chemscore.DEClash>
0.1204

> <Gold.Chemscore.DEInternal>
4.8737

> <Gold.Chemscore.Rot>
2.6944

> <Gold.Chemscore.Internal.Correction>
   9.000000E+99

> <Gold.Chemscore.Hbonds>
donor molecule, donor type, donor heavy atom, donor atom, acceptor molecule, acceptor atom, score
      P1  H 10752 10765       L1    29  0.32

> <Gold.Chemscore.Hbond.Weighted>
-1.7496

> <Gold.Chemscore.Metal.Weighted>
-0.0000

> <Gold.Chemscore.Lipo.Weighted>
-17.8642

> <Gold.Chemscore.Internal_Hbond.Weighted>
0.0000

> <Gold.Chemscore.DEClash.Weighted>
0.1204

> <Gold.Chemscore.DEInternal.Weighted>
4.8737

> <Gold.Chemscore.Rot.Weighted>
6.8975

> <Gold.Chemscore.Internal.Correction.Weighted>
   9.000000E+99

> <Gold.Protein.RotatedTorsions>
[ 6907 6896 6895 6894 ] final -150.73 input  -60.11 | X-H torsion
[ 7974 7965 7964 7962 ] final  -49.98 input  175.53 | X-H torsion
[ 8008 7997 7996 7995 ] final  -52.56 input   59.86 | X-H torsion
[ 10167 10162 10161 10158 ] final   93.33 input  -65.29 | X-H torsion
[ 10718 10713 10712 10709 ] final  146.52 input   66.30 | X-H torsion
[ 10763 10752 10751 10750 ] final  144.23 input  -60.55 | X-H torsion
[ 11005 11000 10999 10996 ] final  -98.24 input  -57.11 | X-H torsion

> <Gold.Protein.ActiveResidues>
 VAL166  LYS551  ARG553  GLY616  TRP617  ASP618  TYR619  PRO620  LYS621  CYS622 
 ASP623  PHE694  ASN695  SER759  ASP760  ASP761  ALA762  ILE779  LEU786  VAL792 
 PHE793  MET794  SER795  GLU796  ALA797  LYS798  CYS799  TRP800  GLU811  SER814 

> <Gold.Protein.RotatedAtoms>
  151.2028  133.4601  159.2596 H   0  0  0  0  0  0  0  0  0  0  0  0  # atno 6907 bound_to 6896
  151.1053  134.9995  159.8478 H   0  0  0  0  0  0  0  0  0  0  0  0  # atno 6908 bound_to 6896
  152.5446  134.1951  159.8742 H   0  0  0  0  0  0  0  0  0  0  0  0  # atno 6909 bound_to 6896
  145.9348  140.7717  142.9582 H   0  0  0  0  0  0  0  0  0  0  0  0  # atno 7974 bound_to 7965
  154.4110  140.1221  156.5011 H   0  0  0  0  0  0  0  0  0  0  0  0  # atno 8008 bound_to 7997
  155.6893  140.3495  155.4868 H   0  0  0  0  0  0  0  0  0  0  0  0  # atno 8009 bound_to 7997
  155.9482  140.1100  157.0988 H   0  0  0  0  0  0  0  0  0  0  0  0  # atno 8010 bound_to 7997
  139.8190  144.6740  150.9543 H   0  0  0  0  0  0  0  0  0  0  0  0  # atno 10167 bound_to 10162
  157.3322  131.0922  151.1153 H   0  0  0  0  0  0  0  0  0  0  0  0  # atno 10718 bound_to 10713
  153.9855  135.2937  155.3416 H   0  0  0  0  0  0  0  0  0  0  0  0  # atno 10763 bound_to 10752
  154.7244  135.5095  153.8867 H   0  0  0  0  0  0  0  0  0  0  0  0  # atno 10764 bound_to 10752
  153.0834  135.6686  154.0113 H   0  0  0  0  0  0  0  0  0  0  0  0  # atno 10765 bound_to 10752
  141.1351  133.8231  157.0814 H   0  0  0  0  0  0  0  0  0  0  0  0  # atno 11005 bound_to 11000
  144.6770  140.2185  143.7369 LP  0  0  0  0  0  0  0  0  0  0  0  0  # atno 17320 bound_to 7965
  145.8379  139.2116  143.1845 LP  0  0  0  0  0  0  0  0  0  0  0  0  # atno 17321 bound_to 7965
  140.7814  143.4110  151.0993 LP  0  0  0  0  0  0  0  0  0  0  0  0  # atno 17342 bound_to 10162
  139.7772  143.8408  152.3131 LP  0  0  0  0  0  0  0  0  0  0  0  0  # atno 17343 bound_to 10162
  157.2397  130.6563  149.5884 LP  0  0  0  0  0  0  0  0  0  0  0  0  # atno 17370 bound_to 10713
  155.9697  130.4572  150.5954 LP  0  0  0  0  0  0  0  0  0  0  0  0  # atno 17371 bound_to 10713
  140.0449  134.9835  157.1031 LP  0  0  0  0  0  0  0  0  0  0  0  0  # atno 17394 bound_to 11000
  140.4078  134.2014  155.7163 LP  0  0  0  0  0  0  0  0  0  0  0  0  # atno 17395 bound_to 11000

$$$$
