AV-unprocessed.smi:223|AV-procd|sdf|1704|dock2
  -GOLD-   2262020163D 1   1.00000     0.00000
 Structure written by MMmdl.
 47 50  0  0  0  0  0  0  0  0  1 V2000
  151.0420  130.4734  157.8521 C   0  0  0  0  0  0  0  0  0  0  0  0
  151.3353  131.7900  157.1238 C   0  0  1  0  0  0  0  0  0  0  0  0
  152.4391  132.5069  157.7834 C   0  0  0  0  0  0  0  0  0  0  0  0
  153.3054  133.0716  158.3026 N   0  0  0  0  0  0  0  0  0  0  0  0
  151.6029  131.5453  155.6236 C   0  0  0  0  0  0  0  0  0  0  0  0
  151.0149  130.3085  155.1082 N   0  0  0  0  0  0  0  0  0  0  0  0
  149.8128  130.4152  154.4799 C   0  0  0  0  0  0  0  0  0  0  0  0
  149.1439  129.2840  154.1285 N   0  0  0  0  0  0  0  0  0  0  0  0
  147.9752  129.3572  153.4869 C   0  0  0  0  0  0  0  0  0  0  0  0
  147.3008  130.4422  153.1052 N   0  0  0  0  0  0  0  0  0  0  0  0
  147.9556  131.5829  153.4642 C   0  0  0  0  0  0  0  0  0  0  0  0
  149.2058  131.6606  154.1429 C   0  0  0  0  0  0  0  0  0  0  0  0
  149.5527  132.9937  154.3310 N   0  0  0  0  0  0  0  0  0  0  0  0
  148.5727  133.6623  153.7885 C   0  0  0  0  0  0  0  0  0  0  0  0
  147.5633  132.8943  153.2549 N   0  0  0  0  0  0  0  0  0  0  0  0
  146.3588  133.3736  152.5928 C   0  0  0  0  0  0  0  0  0  0  0  0
  146.1576  132.8231  151.1572 C   0  0  1  0  0  0  0  0  0  0  0  0
  147.3863  132.8788  150.4565 O   0  0  0  0  0  0  0  0  0  0  0  0
  145.6168  131.3921  151.1035 C   0  0  0  0  0  0  0  0  0  0  0  0
  144.1318  131.5945  150.8388 C   0  0  0  0  0  0  0  0  0  0  0  0
  144.1326  132.6808  149.9308 O   0  0  0  0  0  0  0  0  0  0  0  0
  145.0896  133.6281  150.3886 C   0  0  0  0  0  0  0  0  0  0  0  0
  151.9309  129.2592  154.6667 C   0  0  0  0  0  0  0  0  0  0  0  0
  152.8329  128.5950  155.6831 C   0  0  0  0  0  0  0  0  0  0  0  0
  153.4138  129.5473  154.6647 C   0  0  0  0  0  0  0  0  0  0  0  0
  150.8218  130.6506  158.9051 H   0  0  0  0  0  0  0  0  0  0  0  0
  151.8940  129.7949  157.7995 H   0  0  0  0  0  0  0  0  0  0  0  0
  150.1813  129.9662  157.4153 H   0  0  0  0  0  0  0  0  0  0  0  0
  150.4565  132.4254  157.2336 H   0  0  0  0  0  0  0  0  0  0  0  0
  151.2020  132.3827  155.0514 H   0  0  0  0  0  0  0  0  0  0  0  0
  152.6732  131.5496  155.4240 H   0  0  0  0  0  0  0  0  0  0  0  0
  147.5157  128.4107  153.2431 H   0  0  0  0  0  0  0  0  0  0  0  0
  148.5573  134.7424  153.7682 H   0  0  0  0  0  0  0  0  0  0  0  0
  145.5033  133.1116  153.2169 H   0  0  0  0  0  0  0  0  0  0  0  0
  146.3964  134.4636  152.5726 H   0  0  0  0  0  0  0  0  0  0  0  0
  147.7259  132.0007  150.3766 H   0  0  0  0  0  0  0  0  0  0  0  0
  146.0481  130.8471  150.2621 H   0  0  0  0  0  0  0  0  0  0  0  0
  145.8038  130.8027  151.9993 H   0  0  0  0  0  0  0  0  0  0  0  0
  143.6536  130.7120  150.4135 H   0  0  0  0  0  0  0  0  0  0  0  0
  143.6024  131.8724  151.7516 H   0  0  0  0  0  0  0  0  0  0  0  0
  144.5825  134.3380  151.0438 H   0  0  0  0  0  0  0  0  0  0  0  0
  145.4950  134.1944  149.5490 H   0  0  0  0  0  0  0  0  0  0  0  0
  151.5685  128.6173  153.8667 H   0  0  0  0  0  0  0  0  0  0  0  0
  152.7757  128.9368  156.7149 H   0  0  0  0  0  0  0  0  0  0  0  0
  153.0349  127.5338  155.5541 H   0  0  0  0  0  0  0  0  0  0  0  0
  154.0061  129.1213  153.8575 H   0  0  0  0  0  0  0  0  0  0  0  0
  153.7439  130.5212  155.0213 H   0  0  0  0  0  0  0  0  0  0  0  0
  1  2  1  0  0  0  0
  1 26  1  0  0  0  0
  1 27  1  0  0  0  0
  1 28  1  0  0  0  0
  2  3  1  0  0  0  0
  2  5  1  0  0  0  0
  2 29  1  0  0  0  0
  3  4  3  0  0  0  0
  5  6  1  0  0  0  0
  5 30  1  0  0  0  0
  5 31  1  0  0  0  0
  6  7  1  0  0  0  0
  6 23  1  0  0  0  0
  7 12  1  0  0  0  0
  7  8  2  0  0  0  0
  8  9  1  0  0  0  0
  9 10  2  0  0  0  0
  9 32  1  0  0  0  0
 10 11  1  0  0  0  0
 11 15  1  0  0  0  0
 11 12  2  0  0  0  0
 12 13  1  0  0  0  0
 13 14  2  0  0  0  0
 14 15  1  0  0  0  0
 14 33  1  0  0  0  0
 15 16  1  0  0  0  0
 16 17  1  0  0  0  0
 16 34  1  0  0  0  0
 16 35  1  0  0  0  0
 17 22  1  0  0  0  0
 17 18  1  0  0  0  0
 17 19  1  0  0  0  0
 18 36  1  0  0  0  0
 19 20  1  0  0  0  0
 19 37  1  0  0  0  0
 19 38  1  0  0  0  0
 20 21  1  0  0  0  0
 20 39  1  0  0  0  0
 20 40  1  0  0  0  0
 21 22  1  0  0  0  0
 22 41  1  0  0  0  0
 22 42  1  0  0  0  0
 23 25  1  0  0  0  0
 23 24  1  0  0  0  0
 23 43  1  0  0  0  0
 24 25  1  0  0  0  0
 24 44  1  0  0  0  0
 24 45  1  0  0  0  0
 25 46  1  0  0  0  0
 25 47  1  0  0  0  0
M  END
> <s_m_source_file>
AV-unprocessed.smi

> <i_m_source_file_index>
223

> <i_lp_mmshare_version>
43012

> <i_f3d_flags>
0

> <s_epik_input>
TiNDW0NAQEhdKFtDSDNdKVtDSDJdTihbQ0hdMVtDSDJdW0NIMl0xKWMobltjSF1uMiljKGMyMyluW2NIXW4zW0NIMl1bQ0BAXTQoW09IXSlbQ0gyXVtDSDJdT1tDSDJdNA==

> <s_epik_cmdline>
J2VwaWtfcHl0aG9uJywgJy1waCcsICc3LjAnLCAnLXRuJywgJzgnLCAnLW1hJywgJzIwMCcsICctbWV0YWxfYmluZGluZycsICctaW1hZScsICc8aW5maWxlLm1hZT4nLCAnLW9tYWUnLCAnPG91dGZpbGUubWFlPic=

> <r_lp_tautomer_probability>
1

> <r_epik_Ionization_Penalty>
0.000756152

> <r_epik_Ionization_Penalty_Charging>
0

> <r_epik_Ionization_Penalty_Neutral>
0.000756152

> <r_epik_State_Penalty>
0.00038036

> <r_epik_Charging_Adjusted_Penalty>
0.00038036

> <i_epik_Tot_Q>
0

> <i_epik_Tot_abs_Q>
0

> <r_epik_Metal_State_Penalty>
-0

> <b_epik_Metal_Only>
0

> <s_lp_Force_Field>
OPLS_2005

> <r_lp_Energy>
37.1098

> <b_lp_Chiralities_Consistent>
1

> <s_lp_Variant>
AV-unprocessed.smi:223-2

> <Gold.Version>
5.8.1

> <Gold.Id.Protein>
6NUR|6NUR_protein|mol2

> <Gold.PLP.Fitness>
44.9681

> <Gold.PLP.PLP>
-38.0091

> <Gold.PLP.part.hbond>
-2.1183

> <Gold.PLP.part.metal>
0.0000

> <Gold.PLP.part.buried>
-2.1240

> <Gold.PLP.part.nonpolar>
-34.4011

> <Gold.PLP.part.repulsive>
0.4861

> <Gold.PLP.ligand.clash>
0.0000

> <Gold.PLP.ligand.torsion>
1.5446

> <Gold.PLP.Chemscore.Hbond>
1.8968

> <Gold.PLP.Chemscore.CHOScore>
0.9878

> <Gold.PLP.Chemscore.Metal>
0.0000

> <Gold.Chemscore.Hbonds>
donor molecule, donor type, donor heavy atom, donor atom, acceptor molecule, acceptor atom, score
      L1  H    18    36       P1 10747  1.00
      P1  H  6896  6909       L1     4  0.85
      L1  C    14    33       P1  7948  0.94

> <Gold.PLP.Chemscore.Internal.Correction>
1.3946

> <Gold.Rescore>
     Score         DG    S(hbond)    S(metal)    S(lipo)     H(rot)  DE(clash)    DE(int)     intcor
      6.38     -11.94       1.35        0.00      76.17       2.72       1.48       4.08       ----

> <Gold.Chemscore.Fitness>
6.3812

> <Gold.Chemscore.DG>
-11.9434

> <Gold.Chemscore.ZeroCoef>
-5.4800

> <Gold.Chemscore.Hbond>
1.3495

> <Gold.Chemscore.Metal>
0.0000

> <Gold.Chemscore.Lipo>
76.1696

> <Gold.Chemscore.Internal_Hbond>
0.0000

> <Gold.Chemscore.DEClash>
1.4776

> <Gold.Chemscore.DEInternal>
4.0845

> <Gold.Chemscore.Rot>
2.7171

> <Gold.Chemscore.Internal.Correction>
   9.000000E+99

> <Gold.Chemscore.Hbonds>
donor molecule, donor type, donor heavy atom, donor atom, acceptor molecule, acceptor atom, score
      L1  H    18    36       P1 10747  0.97
      P1  H  6896  6909       L1     4  0.19

> <Gold.Chemscore.Hbond.Weighted>
-4.5073

> <Gold.Chemscore.Metal.Weighted>
-0.0000

> <Gold.Chemscore.Lipo.Weighted>
-8.9118

> <Gold.Chemscore.Internal_Hbond.Weighted>
0.0000

> <Gold.Chemscore.DEClash.Weighted>
1.4776

> <Gold.Chemscore.DEInternal.Weighted>
4.0845

> <Gold.Chemscore.Rot.Weighted>
6.9558

> <Gold.Chemscore.Internal.Correction.Weighted>
   9.000000E+99

> <Gold.Protein.RotatedTorsions>
[ 6907 6896 6895 6894 ] final -118.25 input  -60.11 | X-H torsion
[ 7974 7965 7964 7962 ] final  -60.86 input  175.53 | X-H torsion
[ 8008 7997 7996 7995 ] final   17.18 input   59.86 | X-H torsion
[ 10167 10162 10161 10158 ] final  -80.34 input  -65.29 | X-H torsion
[ 10718 10713 10712 10709 ] final  -97.35 input   66.30 | X-H torsion
[ 10763 10752 10751 10750 ] final  -32.24 input  -60.55 | X-H torsion
[ 11005 11000 10999 10996 ] final -156.61 input  -57.11 | X-H torsion

> <Gold.Protein.ActiveResidues>
 VAL166  LYS551  ARG553  GLY616  TRP617  ASP618  TYR619  PRO620  LYS621  CYS622 
 ASP623  PHE694  ASN695  SER759  ASP760  ASP761  ALA762  ILE779  LEU786  VAL792 
 PHE793  MET794  SER795  GLU796  ALA797  LYS798  CYS799  TRP800  GLU811  SER814 

> <Gold.Protein.RotatedAtoms>
  150.8204  133.8262  159.3141 H   0  0  0  0  0  0  0  0  0  0  0  0  # atno 6907 bound_to 6896
  151.6022  135.1045  160.0072 H   0  0  0  0  0  0  0  0  0  0  0  0  # atno 6908 bound_to 6896
  152.4293  133.7209  159.6589 H   0  0  0  0  0  0  0  0  0  0  0  0  # atno 6909 bound_to 6896
  145.8104  140.8602  143.0185 H   0  0  0  0  0  0  0  0  0  0  0  0  # atno 7974 bound_to 7965
  154.8877  140.2982  155.5389 H   0  0  0  0  0  0  0  0  0  0  0  0  # atno 8008 bound_to 7997
  156.3021  140.2430  156.3822 H   0  0  0  0  0  0  0  0  0  0  0  0  # atno 8009 bound_to 7997
  154.8651  140.0403  157.1678 H   0  0  0  0  0  0  0  0  0  0  0  0  # atno 8010 bound_to 7997
  140.4512  143.2482  151.8486 H   0  0  0  0  0  0  0  0  0  0  0  0  # atno 10167 bound_to 10162
  156.0081  130.5190  150.6361 H   0  0  0  0  0  0  0  0  0  0  0  0  # atno 10718 bound_to 10713
  153.8105  135.6883  153.4841 H   0  0  0  0  0  0  0  0  0  0  0  0  # atno 10763 bound_to 10752
  153.1631  135.4572  154.9799 H   0  0  0  0  0  0  0  0  0  0  0  0  # atno 10764 bound_to 10752
  154.7969  135.3323  154.7586 H   0  0  0  0  0  0  0  0  0  0  0  0  # atno 10765 bound_to 10752
  140.6737  134.4219  157.5230 H   0  0  0  0  0  0  0  0  0  0  0  0  # atno 11005 bound_to 11000
  144.6758  140.0387  143.7481 LP  0  0  0  0  0  0  0  0  0  0  0  0  # atno 17320 bound_to 7965
  145.9783  139.2922  143.1057 LP  0  0  0  0  0  0  0  0  0  0  0  0  # atno 17321 bound_to 7965
  139.4797  144.5118  151.8922 LP  0  0  0  0  0  0  0  0  0  0  0  0  # atno 17342 bound_to 10162
  140.4205  144.2250  150.5887 LP  0  0  0  0  0  0  0  0  0  0  0  0  # atno 17343 bound_to 10162
  157.4150  131.0829  151.1185 LP  0  0  0  0  0  0  0  0  0  0  0  0  # atno 17370 bound_to 10713
  157.1805  130.6307  149.5670 LP  0  0  0  0  0  0  0  0  0  0  0  0  # atno 17371 bound_to 10713
  139.8973  134.8639  156.2049 LP  0  0  0  0  0  0  0  0  0  0  0  0  # atno 17394 bound_to 11000
  141.0372  133.6957  156.1533 LP  0  0  0  0  0  0  0  0  0  0  0  0  # atno 17395 bound_to 11000

$$$$
