AV-unprocessed.smi:36|AV-procd|sdf|290|dock3
  -GOLD-   2262016 73D 1   1.00000     0.00000
 Structure written by MMmdl.
 64 67  0  0  0  0  0  0  0  0  1 V2000
  156.0895  128.5086  167.1364 C   0  0  0  0  0  0  0  0  0  0  0  0
  157.5584  128.8765  167.4033 C   0  0  0  0  0  0  0  0  0  0  0  0
  157.6574  129.7533  168.6628 C   0  0  0  0  0  0  0  0  0  0  0  0
  158.3910  127.5981  167.5963 C   0  0  0  0  0  0  0  0  0  0  0  0
  158.2516  129.8488  165.9118 Si  0  0  0  0  0  0  0  0  0  0  0  0
  159.9312  130.6339  166.3292 C   0  0  0  0  0  0  0  0  0  0  0  0
  158.4238  128.7341  164.3827 C   0  0  0  0  0  0  0  0  0  0  0  0
  157.1581  131.0856  165.5450 O   0  0  0  0  0  0  0  0  0  0  0  0
  156.6489  131.9858  166.5061 C   0  0  0  0  0  0  0  0  0  0  0  0
  155.5185  132.8054  165.8682 C   0  0  1  0  0  0  0  0  0  0  0  0
  155.9937  133.5650  164.7567 O   0  0  0  0  0  0  0  0  0  0  0  0
  155.0216  133.6229  163.7560 C   0  0  2  0  0  0  0  0  0  0  0  0
  154.7681  135.0544  163.4081 N   0  0  0  0  0  0  0  0  0  0  0  0
  154.4185  136.0297  164.2675 C   0  0  0  0  0  0  0  0  0  0  0  0
  154.2478  137.2332  163.7273 N   0  0  0  0  0  0  0  0  0  0  0  0
  154.5104  137.0020  162.3811 C   0  0  0  0  0  0  0  0  0  0  0  0
  154.4947  137.9334  161.2324 C   0  0  0  0  0  0  0  0  0  0  0  0
  154.2116  139.1784  161.4701 N   0  0  0  0  0  0  0  0  0  0  0  0
  154.1809  140.0979  160.4297 C   0  0  0  0  0  0  0  0  0  0  0  0
  154.6482  139.9944  159.2920 O   0  0  0  0  0  0  0  0  0  0  0  0
  153.5248  141.3877  160.8019 C   0  0  0  0  0  0  0  0  0  0  0  0
  152.7188  142.0672  159.8639 C   0  0  0  0  0  0  0  0  0  0  0  0
  152.1047  143.2863  160.2119 C   0  0  0  0  0  0  0  0  0  0  0  0
  152.2965  143.8304  161.4969 C   0  0  0  0  0  0  0  0  0  0  0  0
  153.1037  143.1564  162.4340 C   0  0  0  0  0  0  0  0  0  0  0  0
  153.7180  141.9370  162.0876 C   0  0  0  0  0  0  0  0  0  0  0  0
  154.8127  137.2427  160.0558 N   0  0  0  0  0  0  0  0  0  0  0  0
  155.1186  135.8766  159.9608 C   0  0  0  0  0  0  0  0  0  0  0  0
  155.1463  135.0461  160.9684 N   0  0  0  0  0  0  0  0  0  0  0  0
  154.8265  135.6780  162.1624 C   0  0  0  0  0  0  0  0  0  0  0  0
  153.7559  132.9566  164.2990 C   0  0  0  0  0  0  0  0  0  0  0  0
  154.3330  131.9989  165.3204 C   0  0  1  0  0  0  0  0  0  0  0  0
  154.7459  130.7934  164.7037 O   0  0  0  0  0  0  0  0  0  0  0  0
  155.6615  127.9557  167.9733 H   0  0  0  0  0  0  0  0  0  0  0  0
  155.9911  127.8855  166.2472 H   0  0  0  0  0  0  0  0  0  0  0  0
  155.4780  129.3982  166.9842 H   0  0  0  0  0  0  0  0  0  0  0  0
  157.0728  130.6676  168.5582 H   0  0  0  0  0  0  0  0  0  0  0  0
  158.6893  130.0437  168.8623 H   0  0  0  0  0  0  0  0  0  0  0  0
  157.2872  129.2265  169.5430 H   0  0  0  0  0  0  0  0  0  0  0  0
  158.0389  127.0204  168.4515 H   0  0  0  0  0  0  0  0  0  0  0  0
  159.4424  127.8325  167.7671 H   0  0  0  0  0  0  0  0  0  0  0  0
  158.3367  126.9521  166.7198 H   0  0  0  0  0  0  0  0  0  0  0  0
  160.6636  129.8819  166.6213 H   0  0  0  0  0  0  0  0  0  0  0  0
  159.8474  131.3443  167.1514 H   0  0  0  0  0  0  0  0  0  0  0  0
  160.3444  131.1727  165.4769 H   0  0  0  0  0  0  0  0  0  0  0  0
  159.0958  127.8971  164.5700 H   0  0  0  0  0  0  0  0  0  0  0  0
  158.8219  129.2851  163.5310 H   0  0  0  0  0  0  0  0  0  0  0  0
  157.4630  128.3190  164.0790 H   0  0  0  0  0  0  0  0  0  0  0  0
  156.2954  131.4468  167.3854 H   0  0  0  0  0  0  0  0  0  0  0  0
  157.4588  132.6429  166.8247 H   0  0  0  0  0  0  0  0  0  0  0  0
  155.1293  133.5091  166.6055 H   0  0  0  0  0  0  0  0  0  0  0  0
  155.3979  133.1588  162.8433 H   0  0  0  0  0  0  0  0  0  0  0  0
  154.2888  135.8525  165.3250 H   0  0  0  0  0  0  0  0  0  0  0  0
  152.5677  141.6567  158.8756 H   0  0  0  0  0  0  0  0  0  0  0  0
  151.4872  143.8046  159.4929 H   0  0  0  0  0  0  0  0  0  0  0  0
  151.8258  144.7655  161.7628 H   0  0  0  0  0  0  0  0  0  0  0  0
  153.2528  143.5755  163.4182 H   0  0  0  0  0  0  0  0  0  0  0  0
  154.3377  141.4269  162.8111 H   0  0  0  0  0  0  0  0  0  0  0  0
  155.3418  135.5414  158.9469 H   0  0  0  0  0  0  0  0  0  0  0  0
  153.1274  133.6973  164.7955 H   0  0  0  0  0  0  0  0  0  0  0  0
  153.1806  132.4809  163.5041 H   0  0  0  0  0  0  0  0  0  0  0  0
  153.6127  131.7566  166.1023 H   0  0  0  0  0  0  0  0  0  0  0  0
  155.3137  131.0088  163.9795 H   0  0  0  0  0  0  0  0  0  0  0  0
  154.8280  137.7789  159.2001 H   0  0  0  0  0  0  0  0  0  0  0  0
  1  2  1  0  0  0  0
  1 34  1  0  0  0  0
  1 35  1  0  0  0  0
  1 36  1  0  0  0  0
  2  3  1  0  0  0  0
  2  4  1  0  0  0  0
  2  5  1  0  0  0  0
  3 37  1  0  0  0  0
  3 38  1  0  0  0  0
  3 39  1  0  0  0  0
  4 40  1  0  0  0  0
  4 41  1  0  0  0  0
  4 42  1  0  0  0  0
  5  6  1  0  0  0  0
  5  7  1  0  0  0  0
  5  8  1  0  0  0  0
  6 43  1  0  0  0  0
  6 44  1  0  0  0  0
  6 45  1  0  0  0  0
  7 46  1  0  0  0  0
  7 47  1  0  0  0  0
  7 48  1  0  0  0  0
  8  9  1  0  0  0  0
  9 10  1  0  0  0  0
  9 49  1  0  0  0  0
  9 50  1  0  0  0  0
 10 32  1  0  0  0  0
 10 11  1  0  0  0  0
 10 51  1  0  0  0  0
 11 12  1  0  0  0  0
 12 13  1  0  0  0  0
 12 31  1  0  0  0  0
 12 52  1  0  0  0  0
 13 30  1  0  0  0  0
 13 14  1  0  0  0  0
 14 15  2  0  0  0  0
 14 53  1  0  0  0  0
 15 16  1  0  0  0  0
 16 30  2  0  0  0  0
 16 17  1  0  0  0  0
 17 18  2  0  0  0  0
 17 27  1  0  0  0  0
 18 19  1  0  0  0  0
 19 20  2  0  0  0  0
 19 21  1  0  0  0  0
 21 26  1  0  0  0  0
 21 22  2  0  0  0  0
 22 23  1  0  0  0  0
 22 54  1  0  0  0  0
 23 24  2  0  0  0  0
 23 55  1  0  0  0  0
 24 25  1  0  0  0  0
 24 56  1  0  0  0  0
 25 26  2  0  0  0  0
 25 57  1  0  0  0  0
 26 58  1  0  0  0  0
 27 28  1  0  0  0  0
 27 64  1  0  0  0  0
 28 29  2  0  0  0  0
 28 59  1  0  0  0  0
 29 30  1  0  0  0  0
 31 32  1  0  0  0  0
 31 60  1  0  0  0  0
 31 61  1  0  0  0  0
 32 33  1  0  0  0  0
 32 62  1  0  0  0  0
 33 63  1  0  0  0  0
M  END
> <s_m_source_file>
AV-unprocessed.smi

> <i_m_source_file_index>
36

> <i_lp_mmshare_version>
43012

> <i_f3d_flags>
0

> <s_epik_input>
W0NIM11DKFtDSDNdKShbQ0gzXSlbU2ldKFtDSDNdKShbQ0gzXSlPW0NIMl1bQ0BASF0xT1tDQEhdKFtDSDJdW0NASF0xW09IXSluKFtjSF1uMiljKGMyMyluW2NIXW5jM1tOSF1DKD1PKWM0W2NIXVtjSF1bY0hdW2NIXVtjSF00

> <s_epik_cmdline>
J2VwaWtfcHl0aG9uJywgJy1waCcsICc3LjAnLCAnLXRuJywgJzgnLCAnLW1hJywgJzIwMCcsICctbWV0YWxfYmluZGluZycsICctaW1hZScsICc8aW5maWxlLm1hZT4nLCAnLW9tYWUnLCAnPG91dGZpbGUubWFlPic=

> <r_epik_Ionization_Penalty>
0.0850405

> <r_epik_Ionization_Penalty_Charging>
0.0850403

> <r_epik_Ionization_Penalty_Neutral>
1.47497e-07

> <r_epik_State_Penalty>
2.6133

> <r_epik_Charging_Adjusted_Penalty>
2.69834

> <i_epik_Tot_Q>
0

> <i_epik_Tot_abs_Q>
0

> <r_epik_Metal_State_Penalty>
2.92945

> <b_epik_Metal_Only>
0

> <s_epik_Chemistry_Notes>
This compound contains an acetal/aminal-like group ( X-CH(R)-Y where X, Y are N, S, or O) that may be acid/base labile, releasing an aldehyde.

> <s_lp_Force_Field>
OPLS_2005

> <r_lp_Energy>
50.4083

> <b_lp_Chiralities_Consistent>
1

> <s_lp_Variant>
AV-unprocessed.smi:36-12

> <Gold.Version>
5.8.1

> <Gold.Id.Protein>
6NUR|6NUR_protein|mol2

> <Gold.PLP.Fitness>
56.2758

> <Gold.PLP.PLP>
-54.9512

> <Gold.PLP.part.hbond>
-1.0000

> <Gold.PLP.part.metal>
0.0000

> <Gold.PLP.part.buried>
-6.3169

> <Gold.PLP.part.nonpolar>
-46.3594

> <Gold.PLP.part.repulsive>
0.1217

> <Gold.PLP.ligand.clash>
0.0000

> <Gold.PLP.ligand.torsion>
1.0177

> <Gold.PLP.Chemscore.Hbond>
1.0000

> <Gold.PLP.Chemscore.CHOScore>
0.0000

> <Gold.PLP.Chemscore.Metal>
0.0000

> <Gold.Chemscore.Hbonds>
donor molecule, donor type, donor heavy atom, donor atom, acceptor molecule, acceptor atom, score
      P1  H  7997  8010       L1    20  1.00

> <Gold.PLP.Chemscore.Internal.Correction>
0.3601

> <Gold.Rescore>
     Score         DG    S(hbond)    S(metal)    S(lipo)     H(rot)  DE(clash)    DE(int)     intcor
     13.31     -16.07       0.94        0.00     122.70       2.70       0.15       2.61       ----

> <Gold.Chemscore.Fitness>
13.3127

> <Gold.Chemscore.DG>
-16.0677

> <Gold.Chemscore.ZeroCoef>
-5.4800

> <Gold.Chemscore.Hbond>
0.9443

> <Gold.Chemscore.Metal>
0.0000

> <Gold.Chemscore.Lipo>
122.7022

> <Gold.Chemscore.Internal_Hbond>
0.0000

> <Gold.Chemscore.DEClash>
0.1473

> <Gold.Chemscore.DEInternal>
2.6077

> <Gold.Chemscore.Rot>
2.7041

> <Gold.Chemscore.Internal.Correction>
   9.000000E+99

> <Gold.Chemscore.Hbonds>
donor molecule, donor type, donor heavy atom, donor atom, acceptor molecule, acceptor atom, score
      P1  H  7997  8010       L1    20  0.90

> <Gold.Chemscore.Hbond.Weighted>
-3.1540

> <Gold.Chemscore.Metal.Weighted>
-0.0000

> <Gold.Chemscore.Lipo.Weighted>
-14.3562

> <Gold.Chemscore.Internal_Hbond.Weighted>
0.0000

> <Gold.Chemscore.DEClash.Weighted>
0.1473

> <Gold.Chemscore.DEInternal.Weighted>
2.6077

> <Gold.Chemscore.Rot.Weighted>
6.9225

> <Gold.Chemscore.Internal.Correction.Weighted>
   9.000000E+99

> <Gold.Protein.RotatedTorsions>
[ 6907 6896 6895 6894 ] final  -95.46 input  -60.11 | X-H torsion
[ 7974 7965 7964 7962 ] final   22.00 input  175.53 | X-H torsion
[ 8008 7997 7996 7995 ] final   -7.43 input   59.86 | X-H torsion
[ 10167 10162 10161 10158 ] final  -92.71 input  -65.29 | X-H torsion
[ 10718 10713 10712 10709 ] final   48.87 input   66.30 | X-H torsion
[ 10763 10752 10751 10750 ] final   84.12 input  -60.55 | X-H torsion
[ 11005 11000 10999 10996 ] final  118.78 input  -57.11 | X-H torsion

> <Gold.Protein.ActiveResidues>
 VAL166  LYS551  ARG553  GLY616  TRP617  ASP618  TYR619  PRO620  LYS621  CYS622 
 ASP623  PHE694  ASN695  SER759  ASP760  ASP761  ALA762  ILE779  LEU786  VAL792 
 PHE793  MET794  SER795  GLU796  ALA797  LYS798  CYS799  TRP800  GLU811  SER814 

> <Gold.Protein.RotatedAtoms>
  150.6964  134.1653  159.4191 H   0  0  0  0  0  0  0  0  0  0  0  0  # atno 6907 bound_to 6896
  151.9633  135.0111  160.0558 H   0  0  0  0  0  0  0  0  0  0  0  0  # atno 6908 bound_to 6896
  152.1907  133.4736  159.5043 H   0  0  0  0  0  0  0  0  0  0  0  0  # atno 6909 bound_to 6896
  146.2048  139.7948  142.8734 H   0  0  0  0  0  0  0  0  0  0  0  0  # atno 7974 bound_to 7965
  154.5839  140.2407  155.8015 H   0  0  0  0  0  0  0  0  0  0  0  0  # atno 8008 bound_to 7997
  156.2199  140.3001  155.9883 H   0  0  0  0  0  0  0  0  0  0  0  0  # atno 8009 bound_to 7997
  155.2492  140.0410  157.2975 H   0  0  0  0  0  0  0  0  0  0  0  0  # atno 8010 bound_to 7997
  140.3320  143.2989  151.9931 H   0  0  0  0  0  0  0  0  0  0  0  0  # atno 10167 bound_to 10162
  157.4730  130.8267  149.8008 H   0  0  0  0  0  0  0  0  0  0  0  0  # atno 10718 bound_to 10713
  153.1353  135.4666  154.9412 H   0  0  0  0  0  0  0  0  0  0  0  0  # atno 10763 bound_to 10752
  154.7700  135.3156  154.8211 H   0  0  0  0  0  0  0  0  0  0  0  0  # atno 10764 bound_to 10752
  153.8745  135.6900  153.4825 H   0  0  0  0  0  0  0  0  0  0  0  0  # atno 10765 bound_to 10752
  139.9122  134.9623  156.7556 H   0  0  0  0  0  0  0  0  0  0  0  0  # atno 11005 bound_to 11000
  145.3359  141.0277  143.3420 LP  0  0  0  0  0  0  0  0  0  0  0  0  # atno 17320 bound_to 7965
  144.8766  139.4963  143.6743 LP  0  0  0  0  0  0  0  0  0  0  0  0  # atno 17321 bound_to 7965
  139.4855  144.6227  151.7224 LP  0  0  0  0  0  0  0  0  0  0  0  0  # atno 17342 bound_to 10162
  140.5388  144.0613  150.6080 LP  0  0  0  0  0  0  0  0  0  0  0  0  # atno 17343 bound_to 10162
  156.0082  130.3845  150.2355 LP  0  0  0  0  0  0  0  0  0  0  0  0  # atno 17370 bound_to 10713
  157.0538  131.0070  151.3245 LP  0  0  0  0  0  0  0  0  0  0  0  0  # atno 17371 bound_to 10713
  140.6739  133.9535  155.7872 LP  0  0  0  0  0  0  0  0  0  0  0  0  # atno 17394 bound_to 11000
  141.0558  134.0418  157.3724 LP  0  0  0  0  0  0  0  0  0  0  0  0  # atno 17395 bound_to 11000

$$$$
