AV-unprocessed.smi:2810|AV-procd|sdf|10828|dock4
  -GOLD-   2272015273D 1   1.00000     0.00000
 Structure written by MMmdl.
 39 40  0  0  0  0  0  0  0  0  1 V2000
  151.3467  138.1496  153.9593 C   0  0  0  0  0  0  0  0  0  0  0  0
  150.8595  139.4110  154.6399 C   0  0  0  0  0  0  0  0  0  0  0  0
  151.5775  140.0005  155.7011 C   0  0  0  0  0  0  0  0  0  0  0  0
  151.0288  141.1750  156.2637 C   0  0  0  0  0  0  0  0  0  0  0  0
  151.6925  141.8241  157.3268 N   0  0  0  0  0  0  0  0  0  0  0  0
  151.2177  143.2013  157.4554 C   0  0  0  0  0  0  0  0  0  0  0  0
  152.0328  143.9695  158.5043 C   0  0  0  0  0  0  0  0  0  0  0  0
  151.9707  143.2713  159.7389 O   0  0  0  0  0  0  0  0  0  0  0  0
  152.5656  141.9840  159.6371 C   0  0  0  0  0  0  0  0  0  0  0  0
  151.8110  141.1051  158.6103 C   0  0  2  0  0  0  0  0  0  0  0  0
  152.5176  139.7325  158.5669 C   0  0  0  0  0  0  0  0  0  0  0  0
  151.8224  138.6434  158.9120 N   0  0  0  0  0  0  0  0  0  0  0  0
  153.6978  139.6623  158.2309 O   0  0  0  0  0  0  0  0  0  0  0  0
  149.8754  141.6971  155.7821 N   0  0  0  0  0  0  0  0  0  0  0  0
  149.2728  141.0556  154.7763 C   0  0  0  0  0  0  0  0  0  0  0  0
  147.9646  141.6477  154.2694 C   0  0  0  0  0  0  0  0  0  0  0  0
  146.9660  141.8963  155.4105 C   0  0  0  0  0  0  0  0  0  0  0  0
  147.3694  140.8188  153.1203 C   0  0  0  0  0  0  0  0  0  0  0  0
  149.7052  139.9401  154.1804 N   0  0  0  0  0  0  0  0  0  0  0  0
  152.2245  137.7442  154.4630 H   0  0  0  0  0  0  0  0  0  0  0  0
  151.6137  138.3582  152.9231 H   0  0  0  0  0  0  0  0  0  0  0  0
  150.5675  137.3869  153.9678 H   0  0  0  0  0  0  0  0  0  0  0  0
  152.4982  139.5717  156.0689 H   0  0  0  0  0  0  0  0  0  0  0  0
  151.2845  143.7274  156.5023 H   0  0  0  0  0  0  0  0  0  0  0  0
  150.1641  143.1932  157.7405 H   0  0  0  0  0  0  0  0  0  0  0  0
  153.0696  144.0919  158.1861 H   0  0  0  0  0  0  0  0  0  0  0  0
  151.6209  144.9694  158.6415 H   0  0  0  0  0  0  0  0  0  0  0  0
  153.6186  142.0905  159.3676 H   0  0  0  0  0  0  0  0  0  0  0  0
  152.5411  141.5228  160.6252 H   0  0  0  0  0  0  0  0  0  0  0  0
  150.8027  140.9431  158.9965 H   0  0  0  0  0  0  0  0  0  0  0  0
  152.2656  137.7366  158.8869 H   0  0  0  0  0  0  0  0  0  0  0  0
  150.8568  138.7324  159.1928 H   0  0  0  0  0  0  0  0  0  0  0  0
  148.1967  142.6281  153.8495 H   0  0  0  0  0  0  0  0  0  0  0  0
  147.3977  142.5450  156.1731 H   0  0  0  0  0  0  0  0  0  0  0  0
  146.6719  140.9639  155.8935 H   0  0  0  0  0  0  0  0  0  0  0  0
  146.0602  142.3776  155.0412 H   0  0  0  0  0  0  0  0  0  0  0  0
  148.0797  140.7234  152.2985 H   0  0  0  0  0  0  0  0  0  0  0  0
  146.4674  141.2865  152.7251 H   0  0  0  0  0  0  0  0  0  0  0  0
  147.1042  139.8135  153.4495 H   0  0  0  0  0  0  0  0  0  0  0  0
  1  2  1  0  0  0  0
  1 20  1  0  0  0  0
  1 21  1  0  0  0  0
  1 22  1  0  0  0  0
  2 19  1  0  0  0  0
  2  3  2  0  0  0  0
  3  4  1  0  0  0  0
  3 23  1  0  0  0  0
  4  5  1  0  0  0  0
  4 14  2  0  0  0  0
  5 10  1  0  0  0  0
  5  6  1  0  0  0  0
  6  7  1  0  0  0  0
  6 24  1  0  0  0  0
  6 25  1  0  0  0  0
  7  8  1  0  0  0  0
  7 26  1  0  0  0  0
  7 27  1  0  0  0  0
  8  9  1  0  0  0  0
  9 10  1  0  0  0  0
  9 28  1  0  0  0  0
  9 29  1  0  0  0  0
 10 11  1  0  0  0  0
 10 30  1  0  0  0  0
 11 12  1  0  0  0  0
 11 13  2  0  0  0  0
 12 31  1  0  0  0  0
 12 32  1  0  0  0  0
 14 15  1  0  0  0  0
 15 16  1  0  0  0  0
 15 19  2  0  0  0  0
 16 17  1  0  0  0  0
 16 18  1  0  0  0  0
 16 33  1  0  0  0  0
 17 34  1  0  0  0  0
 17 35  1  0  0  0  0
 17 36  1  0  0  0  0
 18 37  1  0  0  0  0
 18 38  1  0  0  0  0
 18 39  1  0  0  0  0
M  END
> <s_m_source_file>
AV-unprocessed.smi

> <i_m_source_file_index>
2810

> <i_lp_mmshare_version>
43012

> <i_f3d_flags>
0

> <s_epik_input>
W0NIM11bQ0hdKFtDSDNdKWMobjEpbmMoW2NIXWMxW0NIM10pTjJbQ0gyXVtDSDJdT1tDSDJdW0NASF0yQyg9TylbTkgyXQ==

> <s_epik_cmdline>
J2VwaWtfcHl0aG9uJywgJy1waCcsICc3LjAnLCAnLXRuJywgJzgnLCAnLW1hJywgJzIwMCcsICctbWV0YWxfYmluZGluZycsICctaW1hZScsICc8aW5maWxlLm1hZT4nLCAnLW9tYWUnLCAnPG91dGZpbGUubWFlPic=

> <r_lp_tautomer_probability>
1

> <r_epik_Ionization_Penalty>
0.00607782

> <r_epik_Ionization_Penalty_Charging>
0

> <r_epik_Ionization_Penalty_Neutral>
0.00607782

> <r_epik_State_Penalty>
0.00441345

> <r_epik_Charging_Adjusted_Penalty>
0.00441345

> <i_epik_Tot_Q>
0

> <i_epik_Tot_abs_Q>
0

> <r_epik_Metal_State_Penalty>
-0

> <b_epik_Metal_Only>
0

> <s_lp_Force_Field>
OPLS_2005

> <r_lp_Energy>
6.30102

> <b_lp_Chiralities_Consistent>
1

> <s_lp_Variant>
AV-unprocessed.smi:2810-2

> <Gold.Version>
5.8.1

> <Gold.Id.Protein>
6NUR|6NUR_protein|mol2

> <Gold.PLP.Fitness>
40.9839

> <Gold.PLP.PLP>
-38.4015

> <Gold.PLP.part.hbond>
-1.2025

> <Gold.PLP.part.metal>
0.0000

> <Gold.PLP.part.buried>
-3.3708

> <Gold.PLP.part.nonpolar>
-34.1818

> <Gold.PLP.part.repulsive>
0.3806

> <Gold.PLP.ligand.clash>
0.0000

> <Gold.PLP.ligand.torsion>
0.3390

> <Gold.PLP.Chemscore.Hbond>
1.0000

> <Gold.PLP.Chemscore.CHOScore>
0.0000

> <Gold.PLP.Chemscore.Metal>
0.0000

> <Gold.Chemscore.Hbonds>
donor molecule, donor type, donor heavy atom, donor atom, acceptor molecule, acceptor atom, score
      P1  H  7997  8008       L1    13  1.00

> <Gold.PLP.Chemscore.Internal.Correction>
0.2604

> <Gold.Rescore>
     Score         DG    S(hbond)    S(metal)    S(lipo)     H(rot)  DE(clash)    DE(int)     intcor
     12.31     -13.83       0.99        0.00      80.64       1.71       0.12       1.40       ----

> <Gold.Chemscore.Fitness>
12.3147

> <Gold.Chemscore.DG>
-13.8343

> <Gold.Chemscore.ZeroCoef>
-5.4800

> <Gold.Chemscore.Hbond>
0.9884

> <Gold.Chemscore.Metal>
0.0000

> <Gold.Chemscore.Lipo>
80.6402

> <Gold.Chemscore.Internal_Hbond>
0.0000

> <Gold.Chemscore.DEClash>
0.1201

> <Gold.Chemscore.DEInternal>
1.3995

> <Gold.Chemscore.Rot>
1.7117

> <Gold.Chemscore.Internal.Correction>
   9.000000E+99

> <Gold.Chemscore.Hbonds>
donor molecule, donor type, donor heavy atom, donor atom, acceptor molecule, acceptor atom, score
      P1  H  7997  8008       L1    13  0.95

> <Gold.Chemscore.Hbond.Weighted>
-3.3014

> <Gold.Chemscore.Metal.Weighted>
-0.0000

> <Gold.Chemscore.Lipo.Weighted>
-9.4349

> <Gold.Chemscore.Internal_Hbond.Weighted>
0.0000

> <Gold.Chemscore.DEClash.Weighted>
0.1201

> <Gold.Chemscore.DEInternal.Weighted>
1.3995

> <Gold.Chemscore.Rot.Weighted>
4.3820

> <Gold.Chemscore.Internal.Correction.Weighted>
   9.000000E+99

> <Gold.Protein.RotatedTorsions>
[ 6907 6896 6895 6894 ] final -104.84 input  -60.11 | X-H torsion
[ 7974 7965 7964 7962 ] final  137.45 input  175.53 | X-H torsion
[ 8008 7997 7996 7995 ] final -106.67 input   59.86 | X-H torsion
[ 10167 10162 10161 10158 ] final  -35.40 input  -65.29 | X-H torsion
[ 10718 10713 10712 10709 ] final   96.25 input   66.30 | X-H torsion
[ 10763 10752 10751 10750 ] final  166.89 input  -60.55 | X-H torsion
[ 11005 11000 10999 10996 ] final  -30.85 input  -57.11 | X-H torsion

> <Gold.Protein.ActiveResidues>
 VAL166  LYS551  ARG553  GLY616  TRP617  ASP618  TYR619  PRO620  LYS621  CYS622 
 ASP623  PHE694  ASN695  SER759  ASP760  ASP761  ALA762  ILE779  LEU786  VAL792 
 PHE793  MET794  SER795  GLU796  ALA797  LYS798  CYS799  TRP800  GLU811  SER814 

> <Gold.Protein.RotatedAtoms>
  150.7307  134.0217  159.3703 H   0  0  0  0  0  0  0  0  0  0  0  0  # atno 6907 bound_to 6896
  151.8182  135.0658  160.0431 H   0  0  0  0  0  0  0  0  0  0  0  0  # atno 6908 bound_to 6896
  152.3023  133.5632  159.5663 H   0  0  0  0  0  0  0  0  0  0  0  0  # atno 6909 bound_to 6896
  144.9466  139.4867  143.5546 H   0  0  0  0  0  0  0  0  0  0  0  0  # atno 7974 bound_to 7965
  154.9180  140.0408  157.1982 H   0  0  0  0  0  0  0  0  0  0  0  0  # atno 8008 bound_to 7997
  154.8282  140.2895  155.5719 H   0  0  0  0  0  0  0  0  0  0  0  0  # atno 8009 bound_to 7997
  156.2985  140.2506  156.3202 H   0  0  0  0  0  0  0  0  0  0  0  0  # atno 8010 bound_to 7997
  140.7166  143.3480  151.2215 H   0  0  0  0  0  0  0  0  0  0  0  0  # atno 10167 bound_to 10162
  157.6929  131.0572  150.4463 H   0  0  0  0  0  0  0  0  0  0  0  0  # atno 10718 bound_to 10713
  154.3457  135.2753  155.2399 H   0  0  0  0  0  0  0  0  0  0  0  0  # atno 10763 bound_to 10752
  154.4650  135.5897  153.6285 H   0  0  0  0  0  0  0  0  0  0  0  0  # atno 10764 bound_to 10752
  152.9854  135.6074  154.3663 H   0  0  0  0  0  0  0  0  0  0  0  0  # atno 10765 bound_to 10752
  140.9418  133.7274  156.1087 H   0  0  0  0  0  0  0  0  0  0  0  0  # atno 11005 bound_to 11000
  146.3306  139.8523  142.8871 LP  0  0  0  0  0  0  0  0  0  0  0  0  # atno 17320 bound_to 7965
  145.2908  141.0166  143.3664 LP  0  0  0  0  0  0  0  0  0  0  0  0  # atno 17321 bound_to 7965
  139.7004  143.9542  152.2903 LP  0  0  0  0  0  0  0  0  0  0  0  0  # atno 17342 bound_to 10162
  139.9233  144.6786  150.8438 LP  0  0  0  0  0  0  0  0  0  0  0  0  # atno 17343 bound_to 10162
  156.4818  130.4075  149.6457 LP  0  0  0  0  0  0  0  0  0  0  0  0  # atno 17370 bound_to 10713
  156.3500  130.7427  151.2385 LP  0  0  0  0  0  0  0  0  0  0  0  0  # atno 17371 bound_to 10713
  140.7724  134.3818  157.5505 LP  0  0  0  0  0  0  0  0  0  0  0  0  # atno 17394 bound_to 11000
  139.8822  134.9030  156.2846 LP  0  0  0  0  0  0  0  0  0  0  0  0  # atno 17395 bound_to 11000

$$$$
