AV-unprocessed.smi:35|AV-procd|sdf|253|dock5
  -GOLD-   2262016 13D 1   1.00000     0.00000
 Structure written by MMmdl.
 29 30  0  0  0  0  0  0  0  0  1 V2000
  152.1275  136.9103  159.3466 O   0  0  0  0  0  0  0  0  0  0  0  0
  151.6936  137.4340  158.3229 C   0  0  0  0  0  0  0  0  0  0  0  0
  152.5714  137.9055  157.3441 N   0  0  0  0  0  0  0  0  0  0  0  0
  152.1981  138.5069  156.1407 C   0  0  0  0  0  0  0  0  0  0  0  0
  153.0651  138.9270  155.3759 O   0  0  0  0  0  0  0  0  0  0  0  0
  150.8139  138.6098  155.8645 N   0  0  0  0  0  0  0  0  0  0  0  0
  150.3677  139.2948  154.5811 C   0  0  2  0  0  0  0  0  0  0  0  0
  150.6245  140.6689  154.6738 O   0  0  0  0  0  0  0  0  0  0  0  0
  149.4306  141.4160  154.9030 C   0  0  2  0  0  0  0  0  0  0  0  0
  149.1322  141.5348  156.4161 C   0  0  0  0  0  0  0  0  0  0  0  0
  148.0010  142.3541  156.6208 O   0  0  0  0  0  0  0  0  0  0  0  0
  148.4117  140.6006  154.1000 C   0  0  2  0  0  0  0  0  0  0  0  0
  147.0752  140.8181  154.5091 O   0  0  0  0  0  0  0  0  0  0  0  0
  148.8454  139.1585  154.3289 C   0  0  1  0  0  0  0  0  0  0  0  0
  148.5644  138.3958  153.1718 O   0  0  0  0  0  0  0  0  0  0  0  0
  149.9069  138.2119  156.8426 C   0  0  0  0  0  0  0  0  0  0  0  0
  150.2851  137.6399  158.0095 C   0  0  0  0  0  0  0  0  0  0  0  0
  148.8328  137.1276  159.2557 Br  0  0  0  0  0  0  0  0  0  0  0  0
  153.5600  137.8168  157.5298 H   0  0  0  0  0  0  0  0  0  0  0  0
  150.9966  138.8566  153.8037 H   0  0  0  0  0  0  0  0  0  0  0  0
  149.5276  142.4146  154.4747 H   0  0  0  0  0  0  0  0  0  0  0  0
  148.8809  140.5599  156.8332 H   0  0  0  0  0  0  0  0  0  0  0  0
  149.9831  141.9061  156.9850 H   0  0  0  0  0  0  0  0  0  0  0  0
  148.1986  143.2233  156.3064 H   0  0  0  0  0  0  0  0  0  0  0  0
  148.5115  140.8635  153.0453 H   0  0  0  0  0  0  0  0  0  0  0  0
  146.5613  141.0300  153.7445 H   0  0  0  0  0  0  0  0  0  0  0  0
  148.3492  138.7424  155.2073 H   0  0  0  0  0  0  0  0  0  0  0  0
  148.6652  138.9549  152.4161 H   0  0  0  0  0  0  0  0  0  0  0  0
  148.8475  138.3535  156.6923 H   0  0  0  0  0  0  0  0  0  0  0  0
  1  2  2  0  0  0  0
  2 17  1  0  0  0  0
  2  3  1  0  0  0  0
  3 19  1  0  0  0  0
  3  4  1  0  0  0  0
  4  5  2  0  0  0  0
  4  6  1  0  0  0  0
  6  7  1  0  0  0  0
  6 16  1  0  0  0  0
  7 14  1  0  0  0  0
  7  8  1  0  0  0  0
  7 20  1  0  0  0  0
  8  9  1  0  0  0  0
  9 10  1  0  0  0  0
  9 12  1  0  0  0  0
  9 21  1  0  0  0  0
 10 11  1  0  0  0  0
 10 22  1  0  0  0  0
 10 23  1  0  0  0  0
 11 24  1  0  0  0  0
 12 13  1  0  0  0  0
 12 14  1  0  0  0  0
 12 25  1  0  0  0  0
 13 26  1  0  0  0  0
 14 15  1  0  0  0  0
 14 27  1  0  0  0  0
 15 28  1  0  0  0  0
 16 17  2  0  0  0  0
 16 29  1  0  0  0  0
 17 18  1  0  0  0  0
M  END
> <s_m_source_file>
AV-unprocessed.smi

> <i_m_source_file_index>
35

> <i_lp_mmshare_version>
43012

> <i_f3d_flags>
0

> <s_epik_input>
Tz1jMVtuSF1jKD1PKW4oW2NIXWMxQnIpW0NAQEhdMk9bQ0BASF0oW0NIMl1bT0hdKVtDQEBIXShbT0hdKVtDQEhdMltPSF0=

> <s_epik_cmdline>
J2VwaWtfcHl0aG9uJywgJy1waCcsICc3LjAnLCAnLXRuJywgJzgnLCAnLW1hJywgJzIwMCcsICctbWV0YWxfYmluZGluZycsICctaW1hZScsICc8aW5maWxlLm1hZT4nLCAnLW9tYWUnLCAnPG91dGZpbGUubWFlPic=

> <r_lp_tautomer_probability>
0.999537

> <r_epik_Ionization_Penalty>
0.10812

> <r_epik_Ionization_Penalty_Charging>
0.108119

> <r_epik_Ionization_Penalty_Neutral>
4.93006e-07

> <r_epik_State_Penalty>
0.0979238

> <r_epik_Charging_Adjusted_Penalty>
0.206043

> <i_epik_Tot_Q>
0

> <i_epik_Tot_abs_Q>
0

> <r_epik_Metal_State_Penalty>
3.07911

> <b_epik_Metal_Only>
0

> <s_epik_Chemistry_Notes>
This compound contains an acetal/aminal-like group ( X-CH(R)-Y where X, Y are N, S, or O) that may be acid/base labile, releasing an aldehyde.

> <s_lp_Force_Field>
OPLS_2005

> <r_lp_Energy>
30.5173

> <b_lp_Chiralities_Consistent>
1

> <s_lp_Variant>
AV-unprocessed.smi:35-7

> <Gold.Version>
5.8.1

> <Gold.Id.Protein>
6NUR|6NUR_protein|mol2

> <Gold.PLP.Fitness>
39.9359

> <Gold.PLP.PLP>
-25.7114

> <Gold.PLP.part.hbond>
-5.6828

> <Gold.PLP.part.metal>
0.0000

> <Gold.PLP.part.buried>
-3.1837

> <Gold.PLP.part.nonpolar>
-16.8764

> <Gold.PLP.part.repulsive>
0.2258

> <Gold.PLP.ligand.clash>
0.0000

> <Gold.PLP.ligand.torsion>
0.3124

> <Gold.PLP.Chemscore.Hbond>
4.9280

> <Gold.PLP.Chemscore.CHOScore>
0.0000

> <Gold.PLP.Chemscore.Metal>
0.0000

> <Gold.Chemscore.Hbonds>
donor molecule, donor type, donor heavy atom, donor atom, acceptor molecule, acceptor atom, score
      L1  H    11    24       P1  8028  1.00
      L1  H    15    28       P1  7957  1.00
      P1  H  6896  6908       L1     1  1.00
      P1  H  7989  7998       L1     8  0.93
      P1  H  7997  8010       L1     5  1.00

> <Gold.PLP.Chemscore.Internal.Correction>
0.0653

> <Gold.Rescore>
     Score         DG    S(hbond)    S(metal)    S(lipo)     H(rot)  DE(clash)    DE(int)     intcor
     13.31     -13.85       4.12        0.00      34.15       3.67       0.17       0.37       ----

> <Gold.Chemscore.Fitness>
13.3103

> <Gold.Chemscore.DG>
-13.8538

> <Gold.Chemscore.ZeroCoef>
-5.4800

> <Gold.Chemscore.Hbond>
4.1240

> <Gold.Chemscore.Metal>
0.0000

> <Gold.Chemscore.Lipo>
34.1455

> <Gold.Chemscore.Internal_Hbond>
0.0000

> <Gold.Chemscore.DEClash>
0.1705

> <Gold.Chemscore.DEInternal>
0.3730

> <Gold.Chemscore.Rot>
3.6701

> <Gold.Chemscore.Internal.Correction>
   9.000000E+99

> <Gold.Chemscore.Hbonds>
donor molecule, donor type, donor heavy atom, donor atom, acceptor molecule, acceptor atom, score
      L1  H    11    24       P1  8028  0.50
      L1  H    15    28       P1  7957  0.98
      P1  H  6896  6908       L1     1  0.98
      P1  H  7989  7998       L1     8  0.30
      P1  H  7997  8010       L1     5  0.96

> <Gold.Chemscore.Hbond.Weighted>
-13.7743

> <Gold.Chemscore.Metal.Weighted>
-0.0000

> <Gold.Chemscore.Lipo.Weighted>
-3.9950

> <Gold.Chemscore.Internal_Hbond.Weighted>
0.0000

> <Gold.Chemscore.DEClash.Weighted>
0.1705

> <Gold.Chemscore.DEInternal.Weighted>
0.3730

> <Gold.Chemscore.Rot.Weighted>
9.3955

> <Gold.Chemscore.Internal.Correction.Weighted>
   9.000000E+99

> <Gold.Protein.RotatedTorsions>
[ 6907 6896 6895 6894 ] final -105.55 input  -60.11 | X-H torsion
[ 7974 7965 7964 7962 ] final  124.63 input  175.53 | X-H torsion
[ 8008 7997 7996 7995 ] final   93.88 input   59.86 | X-H torsion
[ 10167 10162 10161 10158 ] final  -74.65 input  -65.29 | X-H torsion
[ 10718 10713 10712 10709 ] final   28.89 input   66.30 | X-H torsion
[ 10763 10752 10751 10750 ] final  -73.13 input  -60.55 | X-H torsion
[ 11005 11000 10999 10996 ] final  -45.45 input  -57.11 | X-H torsion

> <Gold.Protein.ActiveResidues>
 VAL166  LYS551  ARG553  GLY616  TRP617  ASP618  TYR619  PRO620  LYS621  CYS622 
 ASP623  PHE694  ASN695  SER759  ASP760  ASP761  ALA762  ILE779  LEU786  VAL792 
 PHE793  MET794  SER795  GLU796  ALA797  LYS798  CYS799  TRP800  GLU811  SER814 

> <Gold.Protein.RotatedAtoms>
  150.7343  134.0109  159.3669 H   0  0  0  0  0  0  0  0  0  0  0  0  # atno 6907 bound_to 6896
  151.8069  135.0690  160.0417 H   0  0  0  0  0  0  0  0  0  0  0  0  # atno 6908 bound_to 6896
  152.3101  133.5707  159.5711 H   0  0  0  0  0  0  0  0  0  0  0  0  # atno 6909 bound_to 6896
  145.0822  139.3648  143.4903 H   0  0  0  0  0  0  0  0  0  0  0  0  # atno 7974 bound_to 7965
  156.0517  140.3307  155.7359 H   0  0  0  0  0  0  0  0  0  0  0  0  # atno 8008 bound_to 7997
  155.5590  140.0617  157.2850 H   0  0  0  0  0  0  0  0  0  0  0  0  # atno 8009 bound_to 7997
  154.4439  140.1881  156.0751 H   0  0  0  0  0  0  0  0  0  0  0  0  # atno 8010 bound_to 7997
  140.5009  143.2361  151.7754 H   0  0  0  0  0  0  0  0  0  0  0  0  # atno 10167 bound_to 10162
  157.2394  130.7062  149.6351 H   0  0  0  0  0  0  0  0  0  0  0  0  # atno 10718 bound_to 10713
  154.4552  135.5907  153.6218 H   0  0  0  0  0  0  0  0  0  0  0  0  # atno 10763 bound_to 10752
  152.9817  135.6030  154.3555 H   0  0  0  0  0  0  0  0  0  0  0  0  # atno 10764 bound_to 10752
  154.3421  135.2841  155.2396 H   0  0  0  0  0  0  0  0  0  0  0  0  # atno 10765 bound_to 10752
  141.0516  133.6741  156.3015 H   0  0  0  0  0  0  0  0  0  0  0  0  # atno 11005 bound_to 11000
  146.3531  140.0618  142.8629 LP  0  0  0  0  0  0  0  0  0  0  0  0  # atno 17320 bound_to 7965
  145.1164  140.9436  143.4626 LP  0  0  0  0  0  0  0  0  0  0  0  0  # atno 17321 bound_to 7965
  139.4872  144.4523  151.9639 LP  0  0  0  0  0  0  0  0  0  0  0  0  # atno 17342 bound_to 10162
  140.3612  144.2970  150.5933 LP  0  0  0  0  0  0  0  0  0  0  0  0  # atno 17343 bound_to 10162
  155.9671  130.4463  150.5535 LP  0  0  0  0  0  0  0  0  0  0  0  0  # atno 17370 bound_to 10713
  157.3394  131.0714  151.1799 LP  0  0  0  0  0  0  0  0  0  0  0  0  # atno 17371 bound_to 10713
  140.6044  134.5522  157.5523 LP  0  0  0  0  0  0  0  0  0  0  0  0  # atno 17394 bound_to 11000
  139.9355  134.7883  156.0814 LP  0  0  0  0  0  0  0  0  0  0  0  0  # atno 17395 bound_to 11000

$$$$
