AV-unprocessed.smi:2641|AV-procd|sdf|10273|dock10
  -GOLD-   2272014283D 1   1.00000     0.00000
 Structure written by MMmdl.
 40 41  0  0  0  0  0  0  0  0  3 V2000
  145.8315  131.7290  152.2414 C   0  0  0  0  0  0  0  0  0  0  0  0
  146.0900  132.8477  153.2286 C   0  0  0  0  0  0  0  0  0  0  0  0
  147.3487  133.4758  153.3436 C   0  0  0  0  0  0  0  0  0  0  0  0
  147.5179  134.5100  154.2877 C   0  0  0  0  0  0  0  0  0  0  0  0
  146.4263  134.8958  155.0969 C   0  0  0  0  0  0  0  0  0  0  0  0
  146.5771  136.0042  156.1234 C   0  0  0  0  0  0  0  0  0  0  0  0
  147.3125  135.4899  157.3624 C   0  0  0  0  0  0  0  0  0  0  0  0
  148.4236  134.9786  157.2313 O   0  0  0  0  0  0  0  0  0  0  0  0
  146.6597  135.6444  158.5296 N   0  0  0  0  0  0  0  0  0  0  0  0
  147.0235  135.3160  159.9177 C   0  0  0  0  0  0  0  0  0  0  0  0
  148.1815  136.2878  160.2614 C   0  0  0  0  0  0  0  0  0  0  0  0
  149.2734  136.1265  159.6710 O   0  0  0  0  0  0  0  0  0  0  0  0
  147.9819  137.1478  161.1481 O   0  5  0  0  0  0  0  0  0  0  0  0
  145.7702  135.5994  160.7951 C   0  0  0  0  0  0  0  0  0  0  0  0
  145.9751  135.2620  162.2855 C   0  0  0  0  0  0  0  0  0  0  0  0
  146.4136  133.8023  162.4717 C   0  0  0  0  0  0  0  0  0  0  0  0
  147.6660  133.4896  161.6407 C   0  0  0  0  0  0  0  0  0  0  0  0
  147.4456  133.8298  160.1534 C   0  0  0  0  0  0  0  0  0  0  0  0
  145.1911  134.2310  154.9373 C   0  0  0  0  0  0  0  0  0  0  0  0
  145.0698  133.2447  154.0223 N   0  3  0  0  0  0  0  0  0  0  0  0
  146.7011  131.5563  151.6067 H   0  0  0  0  0  0  0  0  0  0  0  0
  144.9855  131.9749  151.5988 H   0  0  0  0  0  0  0  0  0  0  0  0
  145.6059  130.8024  152.7699 H   0  0  0  0  0  0  0  0  0  0  0  0
  148.1763  133.1708  152.7195 H   0  0  0  0  0  0  0  0  0  0  0  0
  148.4763  134.9980  154.3907 H   0  0  0  0  0  0  0  0  0  0  0  0
  147.1367  136.8367  155.6951 H   0  0  0  0  0  0  0  0  0  0  0  0
  145.5924  136.3922  156.3900 H   0  0  0  0  0  0  0  0  0  0  0  0
  145.7627  136.1019  158.4562 H   0  0  0  0  0  0  0  0  0  0  0  0
  145.4502  136.6380  160.6993 H   0  0  0  0  0  0  0  0  0  0  0  0
  144.9343  135.0072  160.4199 H   0  0  0  0  0  0  0  0  0  0  0  0
  146.7202  135.9272  162.7232 H   0  0  0  0  0  0  0  0  0  0  0  0
  145.0501  135.4410  162.8339 H   0  0  0  0  0  0  0  0  0  0  0  0
  146.6059  133.6023  163.5261 H   0  0  0  0  0  0  0  0  0  0  0  0
  145.6027  133.1371  162.1728 H   0  0  0  0  0  0  0  0  0  0  0  0
  148.5177  134.0451  162.0344 H   0  0  0  0  0  0  0  0  0  0  0  0
  147.9197  132.4342  161.7422 H   0  0  0  0  0  0  0  0  0  0  0  0
  146.6619  133.1665  159.7854 H   0  0  0  0  0  0  0  0  0  0  0  0
  148.3439  133.5772  159.5882 H   0  0  0  0  0  0  0  0  0  0  0  0
  144.3043  134.4545  155.5127 H   0  0  0  0  0  0  0  0  0  0  0  0
  144.1676  132.7781  153.9270 H   0  0  0  0  0  0  0  0  0  0  0  0
  1  2  1  0  0  0  0
  1 21  1  0  0  0  0
  1 22  1  0  0  0  0
  1 23  1  0  0  0  0
  2 20  1  0  0  0  0
  2  3  2  0  0  0  0
  3  4  1  0  0  0  0
  3 24  1  0  0  0  0
  4  5  2  0  0  0  0
  4 25  1  0  0  0  0
  5  6  1  0  0  0  0
  5 19  1  0  0  0  0
  6  7  1  0  0  0  0
  6 26  1  0  0  0  0
  6 27  1  0  0  0  0
  7  8  2  0  0  0  0
  7  9  1  0  0  0  0
  9 10  1  0  0  0  0
  9 28  1  0  0  0  0
 10 18  1  0  0  0  0
 10 11  1  0  0  0  0
 10 14  1  0  0  0  0
 11 12  2  0  0  0  0
 11 13  1  0  0  0  0
 14 15  1  0  0  0  0
 14 29  1  0  0  0  0
 14 30  1  0  0  0  0
 15 16  1  0  0  0  0
 15 31  1  0  0  0  0
 15 32  1  0  0  0  0
 16 17  1  0  0  0  0
 16 33  1  0  0  0  0
 16 34  1  0  0  0  0
 17 18  1  0  0  0  0
 17 35  1  0  0  0  0
 17 36  1  0  0  0  0
 18 37  1  0  0  0  0
 18 38  1  0  0  0  0
 19 20  2  0  0  0  0
 19 39  1  0  0  0  0
 20 40  1  0  0  0  0
M  CHG  1  13  -1
M  CHG  1  20   1
M  END
> <s_m_source_file>
AV-unprocessed.smi

> <i_m_source_file_index>
2641

> <i_lp_mmshare_version>
43012

> <i_f3d_flags>
0

> <s_epik_input>
W0NIM11jMVtjSF1bY0hdYyhbY0hdbjEpW0NIMl1DKD1PKVtOSF1DMihDKD1PKVtPSF0pW0NIMl1bQ0gyXVtDSDJdW0NIMl1bQ0gyXTI=

> <s_epik_cmdline>
J2VwaWtfcHl0aG9uJywgJy1waCcsICc3LjAnLCAnLXRuJywgJzgnLCAnLW1hJywgJzIwMCcsICctbWV0YWxfYmluZGluZycsICctaW1hZScsICc8aW5maWxlLm1hZT4nLCAnLW9tYWUnLCAnPG91dGZpbGUubWFlPic=

> <r_epik_Ionization_Penalty>
2.05743

> <r_epik_Ionization_Penalty_Charging>
2.05743

> <r_epik_Ionization_Penalty_Neutral>
6.51537e-08

> <r_epik_State_Penalty>
2.19002

> <r_epik_Charging_Adjusted_Penalty>
4.24745

> <i_epik_Tot_Q>
0

> <i_epik_Tot_abs_Q>
2

> <r_epik_Metal_State_Penalty>
2.2083

> <b_epik_Metal_Only>
0

> <s_lp_Force_Field>
OPLS_2005

> <r_lp_Energy>
7.8147

> <b_lp_Chiralities_Consistent>
1

> <s_lp_Variant>
AV-unprocessed.smi:2641-2

> <Gold.Version>
5.8.1

> <Gold.Id.Protein>
6NUR|6NUR_protein|mol2

> <Gold.PLP.Fitness>
44.7510

> <Gold.PLP.PLP>
-23.1194

> <Gold.PLP.part.hbond>
-4.0000

> <Gold.PLP.part.metal>
0.0000

> <Gold.PLP.part.buried>
-2.6033

> <Gold.PLP.part.nonpolar>
-16.8478

> <Gold.PLP.part.repulsive>
0.0000

> <Gold.PLP.ligand.clash>
0.0000

> <Gold.PLP.ligand.torsion>
0.3705

> <Gold.PLP.Chemscore.Hbond>
7.4400

> <Gold.PLP.Chemscore.CHOScore>
0.0000

> <Gold.PLP.Chemscore.Metal>
0.0000

> <Gold.Chemscore.Hbonds>
donor molecule, donor type, donor heavy atom, donor atom, acceptor molecule, acceptor atom, score
      L1  H    20    40       P1 10957  1.95
      P1  H  6896  6907       L1    12  2.00
      P1  H  6931  6943       L1    13  2.00
      P1  H  6934  6947       L1    13  1.44

> <Gold.PLP.Chemscore.Internal.Correction>
0.0525

> <Gold.Rescore>
     Score         DG    S(hbond)    S(metal)    S(lipo)     H(rot)  DE(clash)    DE(int)     intcor
     15.98     -18.88       3.54        0.00      55.37       1.91       0.12       2.78       ----

> <Gold.Chemscore.Fitness>
15.9825

> <Gold.Chemscore.DG>
-18.8815

> <Gold.Chemscore.ZeroCoef>
-5.4800

> <Gold.Chemscore.Hbond>
3.5405

> <Gold.Chemscore.Metal>
0.0000

> <Gold.Chemscore.Lipo>
55.3720

> <Gold.Chemscore.Internal_Hbond>
0.0000

> <Gold.Chemscore.DEClash>
0.1214

> <Gold.Chemscore.DEInternal>
2.7775

> <Gold.Chemscore.Rot>
1.9149

> <Gold.Chemscore.Internal.Correction>
   9.000000E+99

> <Gold.Chemscore.Hbonds>
donor molecule, donor type, donor heavy atom, donor atom, acceptor molecule, acceptor atom, score
      L1  H    20    40       P1 10957  0.77
      P1  H  6896  6907       L1    12  0.96
      P1  H  6931  6943       L1    13  0.95
      P1  H  6934  6947       L1    13  0.67

> <Gold.Chemscore.Hbond.Weighted>
-11.8252

> <Gold.Chemscore.Metal.Weighted>
-0.0000

> <Gold.Chemscore.Lipo.Weighted>
-6.4785

> <Gold.Chemscore.Internal_Hbond.Weighted>
0.0000

> <Gold.Chemscore.DEClash.Weighted>
0.1214

> <Gold.Chemscore.DEInternal.Weighted>
2.7775

> <Gold.Chemscore.Rot.Weighted>
4.9023

> <Gold.Chemscore.Internal.Correction.Weighted>
   9.000000E+99

> <Gold.Protein.RotatedTorsions>
[ 6907 6896 6895 6894 ] final  -52.51 input  -60.11 | X-H torsion
[ 7974 7965 7964 7962 ] final  -79.13 input  175.53 | X-H torsion
[ 8008 7997 7996 7995 ] final   62.26 input   59.86 | X-H torsion
[ 10167 10162 10161 10158 ] final   70.67 input  -65.29 | X-H torsion
[ 10718 10713 10712 10709 ] final  134.58 input   66.30 | X-H torsion
[ 10763 10752 10751 10750 ] final  -52.74 input  -60.55 | X-H torsion
[ 11005 11000 10999 10996 ] final  157.41 input  -57.11 | X-H torsion

> <Gold.Protein.ActiveResidues>
 VAL166  LYS551  ARG553  GLY616  TRP617  ASP618  TYR619  PRO620  LYS621  CYS622 
 ASP623  PHE694  ASN695  SER759  ASP760  ASP761  ALA762  ILE779  LEU786  VAL792 
 PHE793  MET794  SER795  GLU796  ALA797  LYS798  CYS799  TRP800  GLU811  SER814 

> <Gold.Protein.RotatedAtoms>
  150.8511  134.7836  159.7008 H   0  0  0  0  0  0  0  0  0  0  0  0  # atno 6907 bound_to 6896
  152.4575  134.5255  159.9805 H   0  0  0  0  0  0  0  0  0  0  0  0  # atno 6908 bound_to 6896
  151.5376  133.3400  159.2965 H   0  0  0  0  0  0  0  0  0  0  0  0  # atno 6909 bound_to 6896
  145.5773  140.9455  143.1363 H   0  0  0  0  0  0  0  0  0  0  0  0  # atno 7974 bound_to 7965
  155.6115  140.3495  155.4624 H   0  0  0  0  0  0  0  0  0  0  0  0  # atno 8008 bound_to 7997
  156.0150  140.1241  157.0439 H   0  0  0  0  0  0  0  0  0  0  0  0  # atno 8009 bound_to 7997
  154.4294  140.1074  156.5869 H   0  0  0  0  0  0  0  0  0  0  0  0  # atno 8010 bound_to 7997
  140.0545  144.5284  150.7339 H   0  0  0  0  0  0  0  0  0  0  0  0  # atno 10167 bound_to 10162
  157.4658  131.1076  150.9864 H   0  0  0  0  0  0  0  0  0  0  0  0  # atno 10718 bound_to 10713
  154.1476  135.6495  153.4956 H   0  0  0  0  0  0  0  0  0  0  0  0  # atno 10763 bound_to 10752
  153.0147  135.5330  154.6841 H   0  0  0  0  0  0  0  0  0  0  0  0  # atno 10764 bound_to 10752
  154.6120  135.2955  155.0393 H   0  0  0  0  0  0  0  0  0  0  0  0  # atno 10765 bound_to 10752
  140.1767  134.8505  157.2755 H   0  0  0  0  0  0  0  0  0  0  0  0  # atno 11005 bound_to 11000
  144.7410  139.7449  143.7311 LP  0  0  0  0  0  0  0  0  0  0  0  0  # atno 17320 bound_to 7965
  146.1742  139.4905  142.9908 LP  0  0  0  0  0  0  0  0  0  0  0  0  # atno 17321 bound_to 7965
  140.7201  143.2581  151.4306 LP  0  0  0  0  0  0  0  0  0  0  0  0  # atno 17342 bound_to 10162
  139.5932  144.1453  152.2113 LP  0  0  0  0  0  0  0  0  0  0  0  0  # atno 17343 bound_to 10162
  157.0646  130.5839  149.5392 LP  0  0  0  0  0  0  0  0  0  0  0  0  # atno 17370 bound_to 10713
  156.0049  130.5135  150.7796 LP  0  0  0  0  0  0  0  0  0  0  0  0  # atno 17371 bound_to 10713
  140.2314  134.3904  155.7520 LP  0  0  0  0  0  0  0  0  0  0  0  0  # atno 17394 bound_to 11000
  141.2221  133.7217  156.8647 LP  0  0  0  0  0  0  0  0  0  0  0  0  # atno 17395 bound_to 11000

$$$$
