AV-unprocessed.smi:1815|AV-procd|sdf|7352|dock4
  -GOLD-   22720 9 13D 1   1.00000     0.00000
 Structure written by MMmdl.
 39 40  0  0  0  0  0  0  0  0  1 V2000
  152.3057  137.8189  155.9489 C   0  0  0  0  0  0  0  0  0  0  0  0
  151.5711  138.5168  154.7914 C   0  0  1  0  0  0  0  0  0  0  0  0
  150.1767  137.9228  154.5088 C   0  0  0  0  0  0  0  0  0  0  0  0
  149.1907  138.2954  155.5203 N   0  0  0  0  0  0  0  0  0  0  0  0
  147.8622  137.7500  155.2390 C   0  0  0  0  0  0  0  0  0  0  0  0
  147.7600  136.2120  155.2699 C   0  0  0  0  0  0  0  0  0  0  0  0
  147.5174  135.6547  153.9430 N   0  0  0  0  0  0  0  0  0  0  0  0
  146.5101  134.8281  153.6283 C   0  0  0  0  0  0  0  0  0  0  0  0
  145.6563  134.4605  154.4362 O   0  0  0  0  0  0  0  0  0  0  0  0
  146.5659  134.4628  152.3355 N   0  0  0  0  0  0  0  0  0  0  0  0
  145.6794  133.6114  151.6250 C   0  0  0  0  0  0  0  0  0  0  0  0
  146.0678  132.6907  150.7347 N   0  0  0  0  0  0  0  0  0  0  0  0
  144.9843  131.9953  150.1921 C   0  0  0  0  0  0  0  0  0  0  0  0
  143.7689  132.4025  150.6838 C   0  0  0  0  0  0  0  0  0  0  0  0
  143.9383  133.6819  151.8561 S   0  0  0  0  0  0  0  0  0  0  0  0
  149.1479  139.7474  155.6299 C   0  0  0  0  0  0  0  0  0  0  0  0
  150.5262  140.3388  155.9761 C   0  0  2  0  0  0  0  0  0  0  0  0
  150.5058  141.8706  156.0042 C   0  0  0  0  0  0  0  0  0  0  0  0
  151.4780  139.9275  154.9963 O   0  0  0  0  0  0  0  0  0  0  0  0
  152.4688  136.7647  155.7239 H   0  0  0  0  0  0  0  0  0  0  0  0
  151.7439  137.8690  156.8814 H   0  0  0  0  0  0  0  0  0  0  0  0
  153.2810  138.2744  156.1207 H   0  0  0  0  0  0  0  0  0  0  0  0
  152.1809  138.3775  153.8984 H   0  0  0  0  0  0  0  0  0  0  0  0
  149.8386  138.2676  153.5305 H   0  0  0  0  0  0  0  0  0  0  0  0
  150.2632  136.8391  154.4400 H   0  0  0  0  0  0  0  0  0  0  0  0
  147.1561  138.1447  155.9710 H   0  0  0  0  0  0  0  0  0  0  0  0
  147.5146  138.1129  154.2708 H   0  0  0  0  0  0  0  0  0  0  0  0
  148.6765  135.7901  155.6851 H   0  0  0  0  0  0  0  0  0  0  0  0
  146.9591  135.8881  155.9339 H   0  0  0  0  0  0  0  0  0  0  0  0
  148.1768  135.9013  153.2198 H   0  0  0  0  0  0  0  0  0  0  0  0
  147.3310  134.8390  151.7954 H   0  0  0  0  0  0  0  0  0  0  0  0
  145.1696  131.2241  149.4592 H   0  0  0  0  0  0  0  0  0  0  0  0
  142.7887  132.0282  150.4282 H   0  0  0  0  0  0  0  0  0  0  0  0
  148.7899  140.1776  154.6931 H   0  0  0  0  0  0  0  0  0  0  0  0
  148.4312  140.0373  156.3995 H   0  0  0  0  0  0  0  0  0  0  0  0
  150.8394  139.9819  156.9576 H   0  0  0  0  0  0  0  0  0  0  0  0
  149.7997  142.2406  156.7479 H   0  0  0  0  0  0  0  0  0  0  0  0
  150.2167  142.2790  155.0353 H   0  0  0  0  0  0  0  0  0  0  0  0
  151.4898  142.2684  156.2531 H   0  0  0  0  0  0  0  0  0  0  0  0
  1  2  1  0  0  0  0
  1 20  1  0  0  0  0
  1 21  1  0  0  0  0
  1 22  1  0  0  0  0
  2 19  1  0  0  0  0
  2  3  1  0  0  0  0
  2 23  1  0  0  0  0
  3  4  1  0  0  0  0
  3 24  1  0  0  0  0
  3 25  1  0  0  0  0
  4  5  1  0  0  0  0
  4 16  1  0  0  0  0
  5  6  1  0  0  0  0
  5 26  1  0  0  0  0
  5 27  1  0  0  0  0
  6  7  1  0  0  0  0
  6 28  1  0  0  0  0
  6 29  1  0  0  0  0
  7  8  1  0  0  0  0
  7 30  1  0  0  0  0
  8  9  2  0  0  0  0
  8 10  1  0  0  0  0
 10 11  1  0  0  0  0
 10 31  1  0  0  0  0
 11 15  1  0  0  0  0
 11 12  2  0  0  0  0
 12 13  1  0  0  0  0
 13 14  2  0  0  0  0
 13 32  1  0  0  0  0
 14 15  1  0  0  0  0
 14 33  1  0  0  0  0
 16 17  1  0  0  0  0
 16 34  1  0  0  0  0
 16 35  1  0  0  0  0
 17 18  1  0  0  0  0
 17 19  1  0  0  0  0
 17 36  1  0  0  0  0
 18 37  1  0  0  0  0
 18 38  1  0  0  0  0
 18 39  1  0  0  0  0
M  END
> <s_m_source_file>
AV-unprocessed.smi

> <i_m_source_file_index>
1815

> <i_lp_mmshare_version>
43012

> <i_f3d_flags>
0

> <s_epik_input>
W0NIM11bQ0BASF0xW0NIMl1OKFtDSDJdW0NASF0oTzEpW0NIM10pW0NIMl1bQ0gyXVtOSF1DKD1PKVtOSF1jMm5bY0hdW2NIXXMy

> <s_epik_cmdline>
J2VwaWtfcHl0aG9uJywgJy1waCcsICc3LjAnLCAnLXRuJywgJzgnLCAnLW1hJywgJzIwMCcsICctbWV0YWxfYmluZGluZycsICctaW1hZScsICc8aW5maWxlLm1hZT4nLCAnLW9tYWUnLCAnPG91dGZpbGUubWFlPic=

> <r_lp_tautomer_probability>
0.999

> <r_epik_Ionization_Penalty>
0.219201

> <r_epik_Ionization_Penalty_Charging>
0

> <r_epik_Ionization_Penalty_Neutral>
0.219201

> <r_epik_State_Penalty>
0.209349

> <r_epik_Charging_Adjusted_Penalty>
0.209349

> <i_epik_Tot_Q>
0

> <i_epik_Tot_abs_Q>
0

> <r_epik_Metal_State_Penalty>
0.247737

> <b_epik_Metal_Only>
0

> <s_lp_Force_Field>
OPLS_2005

> <r_lp_Energy>
25.7567

> <b_lp_Chiralities_Consistent>
1

> <s_lp_Variant>
AV-unprocessed.smi:1815-3

> <Gold.Version>
5.8.1

> <Gold.Id.Protein>
6NUR|6NUR_protein|mol2

> <Gold.PLP.Fitness>
37.2657

> <Gold.PLP.PLP>
-27.6882

> <Gold.PLP.part.hbond>
-2.9579

> <Gold.PLP.part.metal>
0.0000

> <Gold.PLP.part.buried>
-5.7203

> <Gold.PLP.part.nonpolar>
-20.1623

> <Gold.PLP.part.repulsive>
0.3550

> <Gold.PLP.ligand.clash>
0.0000

> <Gold.PLP.ligand.torsion>
0.7125

> <Gold.PLP.Chemscore.Hbond>
2.8636

> <Gold.PLP.Chemscore.CHOScore>
0.8030

> <Gold.PLP.Chemscore.Metal>
0.0000

> <Gold.Chemscore.Hbonds>
donor molecule, donor type, donor heavy atom, donor atom, acceptor molecule, acceptor atom, score
      L1  H     7    30       P1  7948  1.00
      L1  H    10    31       P1  7948  0.76
      P1  H  7989  7998       L1    19  1.00
      L1  C    14    33       P1 10952  0.52

> <Gold.PLP.Chemscore.Internal.Correction>
0.0028

> <Gold.Rescore>
     Score         DG    S(hbond)    S(metal)    S(lipo)     H(rot)  DE(clash)    DE(int)     intcor
     16.70     -17.55       2.57        0.00      64.74       1.60       0.00       0.85       ----

> <Gold.Chemscore.Fitness>
16.6965

> <Gold.Chemscore.DG>
-17.5494

> <Gold.Chemscore.ZeroCoef>
-5.4800

> <Gold.Chemscore.Hbond>
2.5723

> <Gold.Chemscore.Metal>
0.0000

> <Gold.Chemscore.Lipo>
64.7366

> <Gold.Chemscore.Internal_Hbond>
0.0000

> <Gold.Chemscore.DEClash>
0.0048

> <Gold.Chemscore.DEInternal>
0.8481

> <Gold.Chemscore.Rot>
1.6001

> <Gold.Chemscore.Internal.Correction>
   9.000000E+99

> <Gold.Chemscore.Hbonds>
donor molecule, donor type, donor heavy atom, donor atom, acceptor molecule, acceptor atom, score
      L1  H     7    30       P1  7948  0.98
      L1  H    10    31       P1  7948  0.57
      P1  H  7989  7998       L1    19  0.82

> <Gold.Chemscore.Hbond.Weighted>
-8.5915

> <Gold.Chemscore.Metal.Weighted>
-0.0000

> <Gold.Chemscore.Lipo.Weighted>
-7.5742

> <Gold.Chemscore.Internal_Hbond.Weighted>
0.0000

> <Gold.Chemscore.DEClash.Weighted>
0.0048

> <Gold.Chemscore.DEInternal.Weighted>
0.8481

> <Gold.Chemscore.Rot.Weighted>
4.0963

> <Gold.Chemscore.Internal.Correction.Weighted>
   9.000000E+99

> <Gold.Protein.RotatedTorsions>
[ 6907 6896 6895 6894 ] final  121.12 input  -60.11 | X-H torsion
[ 7974 7965 7964 7962 ] final  -57.46 input  175.53 | X-H torsion
[ 8008 7997 7996 7995 ] final  134.71 input   59.86 | X-H torsion
[ 10167 10162 10161 10158 ] final   -0.67 input  -65.29 | X-H torsion
[ 10718 10713 10712 10709 ] final   13.33 input   66.30 | X-H torsion
[ 10763 10752 10751 10750 ] final   74.58 input  -60.55 | X-H torsion
[ 11005 11000 10999 10996 ] final   96.78 input  -57.11 | X-H torsion

> <Gold.Protein.ActiveResidues>
 VAL166  LYS551  ARG553  GLY616  TRP617  ASP618  TYR619  PRO620  LYS621  CYS622 
 ASP623  PHE694  ASN695  SER759  ASP760  ASP761  ALA762  ILE779  LEU786  VAL792 
 PHE793  MET794  SER795  GLU796  ALA797  LYS798  CYS799  TRP800  GLU811  SER814 

> <Gold.Protein.RotatedAtoms>
  152.4346  133.7338  159.6602 H   0  0  0  0  0  0  0  0  0  0  0  0  # atno 6907 bound_to 6896
  150.8228  133.8212  159.3137 H   0  0  0  0  0  0  0  0  0  0  0  0  # atno 6908 bound_to 6896
  151.5889  135.1057  160.0086 H   0  0  0  0  0  0  0  0  0  0  0  0  # atno 6909 bound_to 6896
  145.8508  140.8353  142.9987 H   0  0  0  0  0  0  0  0  0  0  0  0  # atno 7974 bound_to 7965
  156.3000  140.2489  156.3461 H   0  0  0  0  0  0  0  0  0  0  0  0  # atno 8008 bound_to 7997
  154.9009  140.0406  157.1912 H   0  0  0  0  0  0  0  0  0  0  0  0  # atno 8009 bound_to 7997
  154.8502  140.2904  155.5607 H   0  0  0  0  0  0  0  0  0  0  0  0  # atno 8010 bound_to 7997
  140.6777  143.6866  150.8061 H   0  0  0  0  0  0  0  0  0  0  0  0  # atno 10167 bound_to 10162
  157.0230  130.6162  149.5724 H   0  0  0  0  0  0  0  0  0  0  0  0  # atno 10718 bound_to 10713
  153.0596  135.5020  154.8063 H   0  0  0  0  0  0  0  0  0  0  0  0  # atno 10763 bound_to 10752
  154.6862  135.2976  154.9546 H   0  0  0  0  0  0  0  0  0  0  0  0  # atno 10764 bound_to 10752
  154.0316  135.6729  153.4834 H   0  0  0  0  0  0  0  0  0  0  0  0  # atno 10765 bound_to 10752
  139.8779  134.8968  156.4210 H   0  0  0  0  0  0  0  0  0  0  0  0  # atno 11005 bound_to 11000
  144.6729  140.0950  143.7463 LP  0  0  0  0  0  0  0  0  0  0  0  0  # atno 17320 bound_to 7965
  145.9360  139.2637  143.1297 LP  0  0  0  0  0  0  0  0  0  0  0  0  # atno 17321 bound_to 7965
  140.0562  143.5200  152.2650 LP  0  0  0  0  0  0  0  0  0  0  0  0  # atno 17342 bound_to 10162
  139.6080  144.7601  151.3017 LP  0  0  0  0  0  0  0  0  0  0  0  0  # atno 17343 bound_to 10162
  156.0095  130.5186  150.7943 LP  0  0  0  0  0  0  0  0  0  0  0  0  # atno 17370 bound_to 10713
  157.5235  131.0933  151.0048 LP  0  0  0  0  0  0  0  0  0  0  0  0  # atno 17371 bound_to 10713
  140.9134  133.7696  155.9819 LP  0  0  0  0  0  0  0  0  0  0  0  0  # atno 17394 bound_to 11000
  140.8521  134.2941  157.5271 LP  0  0  0  0  0  0  0  0  0  0  0  0  # atno 17395 bound_to 11000

$$$$
