AV-unprocessed.smi:1727|AV-procd|sdf|6966|dock8
  -GOLD-   22720 8183D 1   1.00000     0.00000
 Structure written by MMmdl.
 50 52  0  0  0  0  0  0  0  0  2 V2000
  146.4660  142.5435  156.7026 C   0  0  0  0  0  0  0  0  0  0  0  0
  147.5055  141.4242  156.7978 C   0  0  0  0  0  0  0  0  0  0  0  0
  147.7887  140.9924  157.9152 O   0  0  0  0  0  0  0  0  0  0  0  0
  148.0762  140.9512  155.6638 N   0  0  0  0  0  0  0  0  0  0  0  0
  149.0278  139.8354  155.5927 C   0  0  0  0  0  0  0  0  0  0  0  0
  148.3308  138.6288  154.9394 C   0  0  0  0  0  0  0  0  0  0  0  0
  147.7604  138.9948  153.5494 C   0  0  0  0  0  0  0  0  0  0  0  0
  146.9351  137.9095  153.0281 N   0  0  0  0  0  0  0  0  0  0  0  0
  145.6922  137.6181  153.4364 C   0  0  0  0  0  0  0  0  0  0  0  0
  145.0943  138.2467  154.3097 O   0  0  0  0  0  0  0  0  0  0  0  0
  145.1867  136.5759  152.7563 N   0  0  0  0  0  0  0  0  0  0  0  0
  143.8870  136.0094  152.8780 C   0  0  0  0  0  0  0  0  0  0  0  0
  142.8933  136.6300  153.6777 C   0  0  0  0  0  0  0  0  0  0  0  0
  141.6384  136.0144  153.8425 C   0  0  0  0  0  0  0  0  0  0  0  0
  141.4004  134.7783  153.2178 C   0  0  0  0  0  0  0  0  0  0  0  0
  142.3700  134.2075  152.4734 N   0  3  0  0  0  0  0  0  0  0  0  0
  143.5928  134.7569  152.2651 C   0  0  0  0  0  0  0  0  0  0  0  0
  144.5051  134.0493  151.4492 N   0  0  0  0  0  0  0  0  0  0  0  0
  145.8494  133.7528  151.9311 C   0  0  0  0  0  0  0  0  0  0  0  0
  146.3899  132.6965  150.9711 C   0  0  0  0  0  0  0  0  0  0  0  0
  145.1408  131.8853  150.6397 C   0  0  0  0  0  0  0  0  0  0  0  0
  144.0168  132.9269  150.6536 C   0  0  0  0  0  0  0  0  0  0  0  0
  146.9287  140.2943  153.6060 C   0  0  0  0  0  0  0  0  0  0  0  0
  147.6928  141.4193  154.3269 C   0  0  0  0  0  0  0  0  0  0  0  0
  146.8914  143.4282  156.2279 H   0  0  0  0  0  0  0  0  0  0  0  0
  146.1212  142.8326  157.6959 H   0  0  0  0  0  0  0  0  0  0  0  0
  145.5971  142.2159  156.1313 H   0  0  0  0  0  0  0  0  0  0  0  0
  149.8875  140.1371  154.9926 H   0  0  0  0  0  0  0  0  0  0  0  0
  149.4378  139.5473  156.5595 H   0  0  0  0  0  0  0  0  0  0  0  0
  149.0340  137.7999  154.8524 H   0  0  0  0  0  0  0  0  0  0  0  0
  147.5265  138.2846  155.5914 H   0  0  0  0  0  0  0  0  0  0  0  0
  148.5963  139.1673  152.8683 H   0  0  0  0  0  0  0  0  0  0  0  0
  147.3453  137.3387  152.3035 H   0  0  0  0  0  0  0  0  0  0  0  0
  145.7509  136.2200  151.9985 H   0  0  0  0  0  0  0  0  0  0  0  0
  143.0837  137.5622  154.1882 H   0  0  0  0  0  0  0  0  0  0  0  0
  140.8754  136.4787  154.4502 H   0  0  0  0  0  0  0  0  0  0  0  0
  140.4727  134.2297  153.2932 H   0  0  0  0  0  0  0  0  0  0  0  0
  146.4744  134.6462  151.9437 H   0  0  0  0  0  0  0  0  0  0  0  0
  145.8123  133.3427  152.9413 H   0  0  0  0  0  0  0  0  0  0  0  0
  146.7750  133.1732  150.0685 H   0  0  0  0  0  0  0  0  0  0  0  0
  147.1890  132.0952  151.4057 H   0  0  0  0  0  0  0  0  0  0  0  0
  145.2158  131.3552  149.6897 H   0  0  0  0  0  0  0  0  0  0  0  0
  144.9671  131.1462  151.4229 H   0  0  0  0  0  0  0  0  0  0  0  0
  143.0930  132.5073  151.0548 H   0  0  0  0  0  0  0  0  0  0  0  0
  143.8197  133.2754  149.6394 H   0  0  0  0  0  0  0  0  0  0  0  0
  146.6626  140.6130  152.5974 H   0  0  0  0  0  0  0  0  0  0  0  0
  145.9891  140.1115  154.1301 H   0  0  0  0  0  0  0  0  0  0  0  0
  147.0829  142.3234  154.3540 H   0  0  0  0  0  0  0  0  0  0  0  0
  148.5895  141.6846  153.7649 H   0  0  0  0  0  0  0  0  0  0  0  0
  142.1664  133.3100  152.0332 H   0  0  0  0  0  0  0  0  0  0  0  0
  1  2  1  0  0  0  0
  1 25  1  0  0  0  0
  1 26  1  0  0  0  0
  1 27  1  0  0  0  0
  2  3  2  0  0  0  0
  2  4  1  0  0  0  0
  4 24  1  0  0  0  0
  4  5  1  0  0  0  0
  5  6  1  0  0  0  0
  5 28  1  0  0  0  0
  5 29  1  0  0  0  0
  6  7  1  0  0  0  0
  6 30  1  0  0  0  0
  6 31  1  0  0  0  0
  7  8  1  0  0  0  0
  7 23  1  0  0  0  0
  7 32  1  0  0  0  0
  8  9  1  0  0  0  0
  8 33  1  0  0  0  0
  9 10  2  0  0  0  0
  9 11  1  0  0  0  0
 11 12  1  0  0  0  0
 11 34  1  0  0  0  0
 12 17  1  0  0  0  0
 12 13  2  0  0  0  0
 13 14  1  0  0  0  0
 13 35  1  0  0  0  0
 14 15  2  0  0  0  0
 14 36  1  0  0  0  0
 15 16  1  0  0  0  0
 15 37  1  0  0  0  0
 16 17  2  0  0  0  0
 16 50  1  0  0  0  0
 17 18  1  0  0  0  0
 18 22  1  0  0  0  0
 18 19  1  0  0  0  0
 19 20  1  0  0  0  0
 19 38  1  0  0  0  0
 19 39  1  0  0  0  0
 20 21  1  0  0  0  0
 20 40  1  0  0  0  0
 20 41  1  0  0  0  0
 21 22  1  0  0  0  0
 21 42  1  0  0  0  0
 21 43  1  0  0  0  0
 22 44  1  0  0  0  0
 22 45  1  0  0  0  0
 23 24  1  0  0  0  0
 23 46  1  0  0  0  0
 23 47  1  0  0  0  0
 24 48  1  0  0  0  0
 24 49  1  0  0  0  0
M  CHG  1  16   1
M  END
> <s_m_source_file>
AV-unprocessed.smi

> <i_m_source_file_index>
1727

> <i_lp_mmshare_version>
43012

> <i_f3d_flags>
0

> <s_epik_input>
W0NIM11DKD1PKU4xW0NIMl1bQ0gyXVtDSF0oW0NIMl1bQ0gyXTEpW05IXUMoPU8pW05IXWMyW2NIXVtjSF1bY0hdbmMyTjNbQ0gyXVtDSDJdW0NIMl1bQ0gyXTM=

> <s_epik_cmdline>
J2VwaWtfcHl0aG9uJywgJy1waCcsICc3LjAnLCAnLXRuJywgJzgnLCAnLW1hJywgJzIwMCcsICctbWV0YWxfYmluZGluZycsICctaW1hZScsICc8aW5maWxlLm1hZT4nLCAnLW9tYWUnLCAnPG91dGZpbGUubWFlPic=

> <r_lp_tautomer_probability>
0.999994

> <r_epik_Ionization_Penalty>
1.09439

> <r_epik_Ionization_Penalty_Charging>
1.09437

> <r_epik_Ionization_Penalty_Neutral>
2.13526e-05

> <r_epik_State_Penalty>
1.15094

> <r_epik_Charging_Adjusted_Penalty>
2.24531

> <i_epik_Tot_Q>
1

> <i_epik_Tot_abs_Q>
1

> <r_epik_Metal_State_Penalty>
1.23914

> <b_epik_Metal_Only>
0

> <s_lp_Force_Field>
OPLS_2005

> <r_lp_Energy>
56.6798

> <b_lp_Chiralities_Consistent>
1

> <s_lp_Variant>
AV-unprocessed.smi:1727-2

> <Gold.Version>
5.8.1

> <Gold.Id.Protein>
6NUR|6NUR_protein|mol2

> <Gold.PLP.Fitness>
37.1978

> <Gold.PLP.PLP>
-35.0478

> <Gold.PLP.part.hbond>
-1.4909

> <Gold.PLP.part.metal>
0.0000

> <Gold.PLP.part.buried>
-7.0095

> <Gold.PLP.part.nonpolar>
-27.1609

> <Gold.PLP.part.repulsive>
0.3300

> <Gold.PLP.ligand.clash>
0.0000

> <Gold.PLP.ligand.torsion>
0.3903

> <Gold.PLP.Chemscore.Hbond>
0.8480

> <Gold.PLP.Chemscore.CHOScore>
0.0000

> <Gold.PLP.Chemscore.Metal>
0.0000

> <Gold.Chemscore.Hbonds>
donor molecule, donor type, donor heavy atom, donor atom, acceptor molecule, acceptor atom, score
      L1  H     8    33       P1  7948  0.88

> <Gold.PLP.Chemscore.Internal.Correction>
0.3866

> <Gold.Rescore>
     Score         DG    S(hbond)    S(metal)    S(lipo)     H(rot)  DE(clash)    DE(int)     intcor
     11.69     -14.77       0.91        0.00      80.18       1.22       0.03       3.05       ----

> <Gold.Chemscore.Fitness>
11.6933

> <Gold.Chemscore.DG>
-14.7689

> <Gold.Chemscore.ZeroCoef>
-5.4800

> <Gold.Chemscore.Hbond>
0.9093

> <Gold.Chemscore.Metal>
0.0000

> <Gold.Chemscore.Lipo>
80.1788

> <Gold.Chemscore.Internal_Hbond>
0.0000

> <Gold.Chemscore.DEClash>
0.0272

> <Gold.Chemscore.DEInternal>
3.0484

> <Gold.Chemscore.Rot>
1.2222

> <Gold.Chemscore.Internal.Correction>
   9.000000E+99

> <Gold.Chemscore.Hbonds>
donor molecule, donor type, donor heavy atom, donor atom, acceptor molecule, acceptor atom, score
      L1  H     8    33       P1  7948  0.84

> <Gold.Chemscore.Hbond.Weighted>
-3.0369

> <Gold.Chemscore.Metal.Weighted>
-0.0000

> <Gold.Chemscore.Lipo.Weighted>
-9.3809

> <Gold.Chemscore.Internal_Hbond.Weighted>
0.0000

> <Gold.Chemscore.DEClash.Weighted>
0.0272

> <Gold.Chemscore.DEInternal.Weighted>
3.0484

> <Gold.Chemscore.Rot.Weighted>
3.1289

> <Gold.Chemscore.Internal.Correction.Weighted>
   9.000000E+99

> <Gold.Protein.RotatedTorsions>
[ 6907 6896 6895 6894 ] final  130.85 input  -60.11 | X-H torsion
[ 7974 7965 7964 7962 ] final   34.58 input  175.53 | X-H torsion
[ 8008 7997 7996 7995 ] final  158.88 input   59.86 | X-H torsion
[ 10167 10162 10161 10158 ] final  -82.31 input  -65.29 | X-H torsion
[ 10718 10713 10712 10709 ] final  -46.03 input   66.30 | X-H torsion
[ 10763 10752 10751 10750 ] final -161.82 input  -60.55 | X-H torsion
[ 11005 11000 10999 10996 ] final   68.03 input  -57.11 | X-H torsion

> <Gold.Protein.ActiveResidues>
 VAL166  LYS551  ARG553  GLY616  TRP617  ASP618  TYR619  PRO620  LYS621  CYS622 
 ASP623  PHE694  ASN695  SER759  ASP760  ASP761  ALA762  ILE779  LEU786  VAL792 
 PHE793  MET794  SER795  GLU796  ALA797  LYS798  CYS799  TRP800  GLU811  SER814 

> <Gold.Protein.RotatedAtoms>
  152.3486  133.6152  159.5927 H   0  0  0  0  0  0  0  0  0  0  0  0  # atno 6907 bound_to 6896
  150.7523  133.9611  159.3524 H   0  0  0  0  0  0  0  0  0  0  0  0  # atno 6908 bound_to 6896
  151.7465  135.0843  160.0375 H   0  0  0  0  0  0  0  0  0  0  0  0  # atno 6909 bound_to 6896
  146.1343  139.6251  142.9205 H   0  0  0  0  0  0  0  0  0  0  0  0  # atno 7974 bound_to 7965
  156.2275  140.1846  156.7327 H   0  0  0  0  0  0  0  0  0  0  0  0  # atno 8008 bound_to 7997
  154.5965  140.0642  156.9338 H   0  0  0  0  0  0  0  0  0  0  0  0  # atno 8009 bound_to 7997
  155.2247  140.3310  155.4313 H   0  0  0  0  0  0  0  0  0  0  0  0  # atno 8010 bound_to 7997
  140.4331  143.2541  151.8731 H   0  0  0  0  0  0  0  0  0  0  0  0  # atno 10167 bound_to 10162
  156.2224  130.4167  149.8976 H   0  0  0  0  0  0  0  0  0  0  0  0  # atno 10718 bound_to 10713
  154.7270  135.3038  154.8955 H   0  0  0  0  0  0  0  0  0  0  0  0  # atno 10763 bound_to 10752
  153.9810  135.6730  153.4754 H   0  0  0  0  0  0  0  0  0  0  0  0  # atno 10764 bound_to 10752
  153.0883  135.4972  154.8560 H   0  0  0  0  0  0  0  0  0  0  0  0  # atno 10765 bound_to 10752
  139.9736  134.6860  156.0399 H   0  0  0  0  0  0  0  0  0  0  0  0  # atno 11005 bound_to 11000
  145.5191  141.0432  143.2445 LP  0  0  0  0  0  0  0  0  0  0  0  0  # atno 17320 bound_to 7965
  144.7723  139.6707  143.7189 LP  0  0  0  0  0  0  0  0  0  0  0  0  # atno 17321 bound_to 7965
  139.4786  144.5313  151.8663 LP  0  0  0  0  0  0  0  0  0  0  0  0  # atno 17342 bound_to 10162
  140.4404  144.1994  150.5891 LP  0  0  0  0  0  0  0  0  0  0  0  0  # atno 17343 bound_to 10162
  156.6618  130.8785  151.3548 LP  0  0  0  0  0  0  0  0  0  0  0  0  # atno 17370 bound_to 10713
  157.7094  130.9422  150.1038 LP  0  0  0  0  0  0  0  0  0  0  0  0  # atno 17371 bound_to 10713
  141.1414  133.6564  156.3741 LP  0  0  0  0  0  0  0  0  0  0  0  0  # atno 17394 bound_to 11000
  140.5242  134.6275  157.5328 LP  0  0  0  0  0  0  0  0  0  0  0  0  # atno 17395 bound_to 11000

$$$$
