AV-unprocessed.smi:1774|AV-procd|sdf|7169|dock4
  -GOLD-   22720 8403D 1   1.00000     0.00000
 Structure written by MMmdl.
 46 47  0  0  0  0  0  0  0  0  2 V2000
  147.8613  133.0378  152.3887 C   0  0  0  0  0  0  0  0  0  0  0  0
  146.5316  133.0359  151.6524 C   0  0  0  0  0  0  0  0  0  0  0  0
  146.0088  131.8153  151.1745 C   0  0  0  0  0  0  0  0  0  0  0  0
  144.7789  131.8155  150.4949 C   0  0  0  0  0  0  0  0  0  0  0  0
  144.1198  133.0444  150.3200 C   0  0  0  0  0  0  0  0  0  0  0  0
  144.6119  134.2152  150.7736 N   0  0  0  0  0  0  0  0  0  0  0  0
  145.7974  134.2322  151.4335 C   0  0  0  0  0  0  0  0  0  0  0  0
  146.3747  135.4300  151.9423 N   0  0  0  0  0  0  0  0  0  0  0  0
  145.7719  136.4284  152.6117 C   0  0  0  0  0  0  0  0  0  0  0  0
  144.5729  136.4834  152.8872 O   0  0  0  0  0  0  0  0  0  0  0  0
  146.6484  137.3820  152.9595 N   0  0  0  0  0  0  0  0  0  0  0  0
  146.3117  138.5732  153.7302 C   0  0  0  0  0  0  0  0  0  0  0  0
  147.1955  139.7731  153.3393 C   0  0  0  0  0  0  0  0  0  0  0  0
  148.3485  139.9379  154.2582 N   0  3  1  0  0  0  0  0  0  0  0  0
  149.4972  139.0772  153.8942 C   0  0  0  0  0  0  0  0  0  0  0  0
  150.6176  139.2066  154.9424 C   0  0  1  0  0  0  0  0  0  0  0  0
  151.8613  138.3980  154.5578 C   0  0  0  0  0  0  0  0  0  0  0  0
  151.0029  140.5738  155.0608 O   0  0  0  0  0  0  0  0  0  0  0  0
  149.9467  141.4682  155.4113 C   0  0  2  0  0  0  0  0  0  0  0  0
  149.5026  141.3024  156.8756 C   0  0  0  0  0  0  0  0  0  0  0  0
  148.7898  141.3475  154.4003 C   0  0  0  0  0  0  0  0  0  0  0  0
  148.2597  132.0282  152.4909 H   0  0  0  0  0  0  0  0  0  0  0  0
  147.7444  133.4541  153.3896 H   0  0  0  0  0  0  0  0  0  0  0  0
  148.5953  133.6355  151.8476 H   0  0  0  0  0  0  0  0  0  0  0  0
  146.5411  130.8879  151.3262 H   0  0  0  0  0  0  0  0  0  0  0  0
  144.3517  130.8984  150.1172 H   0  0  0  0  0  0  0  0  0  0  0  0
  143.1729  133.0895  149.8028 H   0  0  0  0  0  0  0  0  0  0  0  0
  147.3688  135.5238  151.7964 H   0  0  0  0  0  0  0  0  0  0  0  0
  147.6156  137.2641  152.6946 H   0  0  0  0  0  0  0  0  0  0  0  0
  145.2526  138.7959  153.5968 H   0  0  0  0  0  0  0  0  0  0  0  0
  146.4471  138.3424  154.7872 H   0  0  0  0  0  0  0  0  0  0  0  0
  147.5620  139.6049  152.3254 H   0  0  0  0  0  0  0  0  0  0  0  0
  146.6182  140.6986  153.3072 H   0  0  0  0  0  0  0  0  0  0  0  0
  149.1745  138.0370  153.8338 H   0  0  0  0  0  0  0  0  0  0  0  0
  149.8641  139.3580  152.9053 H   0  0  0  0  0  0  0  0  0  0  0  0
  150.2621  138.8400  155.9055 H   0  0  0  0  0  0  0  0  0  0  0  0
  151.6260  137.3379  154.4594 H   0  0  0  0  0  0  0  0  0  0  0  0
  152.6388  138.4955  155.3157 H   0  0  0  0  0  0  0  0  0  0  0  0
  152.2772  138.7383  153.6090 H   0  0  0  0  0  0  0  0  0  0  0  0
  150.3614  142.4726  155.3210 H   0  0  0  0  0  0  0  0  0  0  0  0
  148.7944  142.0829  157.1547 H   0  0  0  0  0  0  0  0  0  0  0  0
  150.3555  141.3768  157.5506 H   0  0  0  0  0  0  0  0  0  0  0  0
  149.0155  140.3447  157.0561 H   0  0  0  0  0  0  0  0  0  0  0  0
  149.1184  141.7158  153.4269 H   0  0  0  0  0  0  0  0  0  0  0  0
  147.9633  141.9856  154.7112 H   0  0  0  0  0  0  0  0  0  0  0  0
  148.0392  139.6277  155.1682 H   0  0  0  0  0  0  0  0  0  0  0  0
  1  2  1  0  0  0  0
  1 22  1  0  0  0  0
  1 23  1  0  0  0  0
  1 24  1  0  0  0  0
  2  7  1  0  0  0  0
  2  3  2  0  0  0  0
  3  4  1  0  0  0  0
  3 25  1  0  0  0  0
  4  5  2  0  0  0  0
  4 26  1  0  0  0  0
  5  6  1  0  0  0  0
  5 27  1  0  0  0  0
  6  7  2  0  0  0  0
  7  8  1  0  0  0  0
  8  9  1  0  0  0  0
  8 28  1  0  0  0  0
  9 10  2  0  0  0  0
  9 11  1  0  0  0  0
 11 12  1  0  0  0  0
 11 29  1  0  0  0  0
 12 13  1  0  0  0  0
 12 30  1  0  0  0  0
 12 31  1  0  0  0  0
 13 14  1  0  0  0  0
 13 32  1  0  0  0  0
 13 33  1  0  0  0  0
 14 21  1  0  0  0  0
 14 15  1  0  0  0  0
 14 46  1  0  0  0  0
 15 16  1  0  0  0  0
 15 34  1  0  0  0  0
 15 35  1  0  0  0  0
 16 17  1  0  0  0  0
 16 18  1  0  0  0  0
 16 36  1  0  0  0  0
 17 37  1  0  0  0  0
 17 38  1  0  0  0  0
 17 39  1  0  0  0  0
 18 19  1  0  0  0  0
 19 20  1  0  0  0  0
 19 21  1  0  0  0  0
 19 40  1  0  0  0  0
 20 41  1  0  0  0  0
 20 42  1  0  0  0  0
 20 43  1  0  0  0  0
 21 44  1  0  0  0  0
 21 45  1  0  0  0  0
M  CHG  1  14   1
M  END
> <s_m_source_file>
AV-unprocessed.smi

> <i_m_source_file_index>
1774

> <i_lp_mmshare_version>
43012

> <i_f3d_flags>
0

> <s_epik_input>
W0NIM11jMVtjSF1bY0hdW2NIXW5jMVtOSF1DKD1PKVtOSF1bQ0gyXVtDSDJdTjJbQ0gyXVtDQEBIXShbQ0gzXSlPW0NAQEhdKFtDSDNdKVtDSDJdMg==

> <s_epik_cmdline>
J2VwaWtfcHl0aG9uJywgJy1waCcsICc3LjAnLCAnLXRuJywgJzgnLCAnLW1hJywgJzIwMCcsICctbWV0YWxfYmluZGluZycsICctaW1hZScsICc8aW5maWxlLm1hZT4nLCAnLW9tYWUnLCAnPG91dGZpbGUubWFlPic=

> <r_epik_Ionization_Penalty>
0.602573

> <r_epik_Ionization_Penalty_Charging>
0.602531

> <r_epik_Ionization_Penalty_Neutral>
4.21996e-05

> <r_epik_State_Penalty>
0.617039

> <r_epik_Charging_Adjusted_Penalty>
1.21957

> <i_epik_Tot_Q>
1

> <i_epik_Tot_abs_Q>
1

> <r_epik_Metal_State_Penalty>
0.617042

> <b_epik_Metal_Only>
0

> <s_lp_Force_Field>
OPLS_2005

> <r_lp_Energy>
18.7656

> <b_lp_Chiralities_Consistent>
1

> <s_lp_Variant>
AV-unprocessed.smi:1774-6

> <Gold.Version>
5.8.1

> <Gold.Id.Protein>
6NUR|6NUR_protein|mol2

> <Gold.PLP.Fitness>
48.7140

> <Gold.PLP.PLP>
-38.9513

> <Gold.PLP.part.hbond>
-3.1466

> <Gold.PLP.part.metal>
0.0000

> <Gold.PLP.part.buried>
-4.0040

> <Gold.PLP.part.nonpolar>
-33.2480

> <Gold.PLP.part.repulsive>
0.5804

> <Gold.PLP.ligand.clash>
0.0000

> <Gold.PLP.ligand.torsion>
1.1164

> <Gold.PLP.Chemscore.Hbond>
2.9920

> <Gold.PLP.Chemscore.CHOScore>
1.0000

> <Gold.PLP.Chemscore.Metal>
0.0000

> <Gold.Chemscore.Hbonds>
donor molecule, donor type, donor heavy atom, donor atom, acceptor molecule, acceptor atom, score
      L1  H     8    28       P1  7948  1.00
      L1  H    11    29       P1  7948  0.99
      P1  H  7989  7998       L1    18  0.96
      L1  C     5    27       P1 10186  0.94

> <Gold.PLP.Chemscore.Internal.Correction>
0.0196

> <Gold.Rescore>
     Score         DG    S(hbond)    S(metal)    S(lipo)     H(rot)  DE(clash)    DE(int)     intcor
     18.75     -20.04       2.23        0.00      93.58       1.49       0.20       1.08       ----

> <Gold.Chemscore.Fitness>
18.7543

> <Gold.Chemscore.DG>
-20.0358

> <Gold.Chemscore.ZeroCoef>
-5.4800

> <Gold.Chemscore.Hbond>
2.2256

> <Gold.Chemscore.Metal>
0.0000

> <Gold.Chemscore.Lipo>
93.5761

> <Gold.Chemscore.Internal_Hbond>
0.0000

> <Gold.Chemscore.DEClash>
0.2003

> <Gold.Chemscore.DEInternal>
1.0812

> <Gold.Chemscore.Rot>
1.4946

> <Gold.Chemscore.Internal.Correction>
   9.000000E+99

> <Gold.Chemscore.Hbonds>
donor molecule, donor type, donor heavy atom, donor atom, acceptor molecule, acceptor atom, score
      L1  H     8    28       P1  7948  0.99
      L1  H    11    29       P1  7948  0.93
      P1  H  7989  7998       L1    18  0.26

> <Gold.Chemscore.Hbond.Weighted>
-7.4335

> <Gold.Chemscore.Metal.Weighted>
-0.0000

> <Gold.Chemscore.Lipo.Weighted>
-10.9484

> <Gold.Chemscore.Internal_Hbond.Weighted>
0.0000

> <Gold.Chemscore.DEClash.Weighted>
0.2003

> <Gold.Chemscore.DEInternal.Weighted>
1.0812

> <Gold.Chemscore.Rot.Weighted>
3.8261

> <Gold.Chemscore.Internal.Correction.Weighted>
   9.000000E+99

> <Gold.Protein.RotatedTorsions>
[ 6907 6896 6895 6894 ] final  141.91 input  -60.11 | X-H torsion
[ 7974 7965 7964 7962 ] final   -0.76 input  175.53 | X-H torsion
[ 8008 7997 7996 7995 ] final   70.45 input   59.86 | X-H torsion
[ 10167 10162 10161 10158 ] final  102.41 input  -65.29 | X-H torsion
[ 10718 10713 10712 10709 ] final   83.96 input   66.30 | X-H torsion
[ 10763 10752 10751 10750 ] final   55.68 input  -60.55 | X-H torsion
[ 11005 11000 10999 10996 ] final  -49.81 input  -57.11 | X-H torsion

> <Gold.Protein.ActiveResidues>
 VAL166  LYS551  ARG553  GLY616  TRP617  ASP618  TYR619  PRO620  LYS621  CYS622 
 ASP623  PHE694  ASN695  SER759  ASP760  ASP761  ALA762  ILE779  LEU786  VAL792 
 PHE793  MET794  SER795  GLU796  ALA797  LYS798  CYS799  TRP800  GLU811  SER814 

> <Gold.Protein.RotatedAtoms>
  152.2252  133.5014  159.5184 H   0  0  0  0  0  0  0  0  0  0  0  0  # atno 6907 bound_to 6896
  150.7023  134.1290  159.4071 H   0  0  0  0  0  0  0  0  0  0  0  0  # atno 6908 bound_to 6896
  151.9211  135.0298  160.0573 H   0  0  0  0  0  0  0  0  0  0  0  0  # atno 6909 bound_to 6896
  146.2424  140.1319  142.8337 H   0  0  0  0  0  0  0  0  0  0  0  0  # atno 7974 bound_to 7965
  155.7389  140.3490  155.5095 H   0  0  0  0  0  0  0  0  0  0  0  0  # atno 8008 bound_to 7997
  155.9113  140.1051  157.1299 H   0  0  0  0  0  0  0  0  0  0  0  0  # atno 8009 bound_to 7997
  154.4056  140.1267  156.4547 H   0  0  0  0  0  0  0  0  0  0  0  0  # atno 8010 bound_to 7997
  139.7352  144.7026  151.0660 H   0  0  0  0  0  0  0  0  0  0  0  0  # atno 10167 bound_to 10162
  157.6889  131.0113  150.2602 H   0  0  0  0  0  0  0  0  0  0  0  0  # atno 10718 bound_to 10713
  152.9820  135.5702  154.5105 H   0  0  0  0  0  0  0  0  0  0  0  0  # atno 10763 bound_to 10752
  154.4610  135.2781  155.1715 H   0  0  0  0  0  0  0  0  0  0  0  0  # atno 10764 bound_to 10752
  154.3302  135.6251  153.5601 H   0  0  0  0  0  0  0  0  0  0  0  0  # atno 10765 bound_to 10752
  141.0781  133.6660  156.3640 H   0  0  0  0  0  0  0  0  0  0  0  0  # atno 11005 bound_to 11000
  145.0319  140.8877  143.5104 LP  0  0  0  0  0  0  0  0  0  0  0  0  # atno 17320 bound_to 7965
  145.1384  139.2587  143.5503 LP  0  0  0  0  0  0  0  0  0  0  0  0  # atno 17321 bound_to 7965
  140.7777  143.4993  150.9792 LP  0  0  0  0  0  0  0  0  0  0  0  0  # atno 17342 bound_to 10162
  139.8681  143.7228  152.3168 LP  0  0  0  0  0  0  0  0  0  0  0  0  # atno 17343 bound_to 10162
  156.3182  130.3782  149.7599 LP  0  0  0  0  0  0  0  0  0  0  0  0  # atno 17370 bound_to 10713
  156.5177  130.8201  151.3192 LP  0  0  0  0  0  0  0  0  0  0  0  0  # atno 17371 bound_to 10713
  140.5530  134.6009  157.5413 LP  0  0  0  0  0  0  0  0  0  0  0  0  # atno 17394 bound_to 11000
  139.9593  134.7480  156.0271 LP  0  0  0  0  0  0  0  0  0  0  0  0  # atno 17395 bound_to 11000

$$$$
