AV-unprocessed.smi:94|AV-procd|sdf|853|dock3
  -GOLD-   2262017293D 1   1.00000     0.00000
 Structure written by MMmdl.
 53 55  0  0  0  0  0  0  0  0  1 V2000
  154.8026  138.5630  160.4228 C   0  0  0  0  0  0  0  0  0  0  0  0
  153.6961  138.8220  159.5710 O   0  0  0  0  0  0  0  0  0  0  0  0
  153.1707  140.0984  159.5434 C   0  0  0  0  0  0  0  0  0  0  0  0
  153.7296  141.1855  160.2635 C   0  0  0  0  0  0  0  0  0  0  0  0
  153.1561  142.4686  160.1908 C   0  0  0  0  0  0  0  0  0  0  0  0
  152.0182  142.6894  159.3934 C   0  0  0  0  0  0  0  0  0  0  0  0
  151.3961  144.0672  159.2989 C   0  0  0  0  0  0  0  0  0  0  0  0
  151.4583  141.6192  158.6732 C   0  0  0  0  0  0  0  0  0  0  0  0
  152.0172  140.3203  158.7498 C   0  0  0  0  0  0  0  0  0  0  0  0
  151.3914  139.1673  157.9631 C   0  0  2  0  0  0  0  0  0  0  0  0
  151.0443  139.6077  156.5311 C   0  0  0  0  0  0  0  0  0  0  0  0
  150.2065  138.6500  158.6380 N   0  0  0  0  0  0  0  0  0  0  0  0
  150.1294  137.6139  159.4877 C   0  0  0  0  0  0  0  0  0  0  0  0
  151.1012  136.9277  159.8002 O   0  0  0  0  0  0  0  0  0  0  0  0
  148.7469  137.2972  160.0896 C   0  0  0  0  0  0  0  0  0  0  0  0
  148.5768  135.8857  160.5146 N   0  0  0  0  0  0  0  0  0  0  0  0
  148.4396  135.6085  161.8978 C   0  0  0  0  0  0  0  0  0  0  0  0
  148.4817  136.5085  162.7375 O   0  0  0  0  0  0  0  0  0  0  0  0
  148.2367  134.2062  162.2419 C   0  0  0  0  0  0  0  0  0  0  0  0
  148.1238  133.8460  163.5316 F   0  0  0  0  0  0  0  0  0  0  0  0
  148.1546  133.2613  161.2832 C   0  0  0  0  0  0  0  0  0  0  0  0
  148.2483  133.5481  159.9356 N   0  0  0  0  0  0  0  0  0  0  0  0
  148.1414  132.4163  158.9377 C   0  0  1  0  0  0  0  0  0  0  0  0
  147.0355  132.6245  157.8924 C   0  0  0  0  0  0  0  0  0  0  0  0
  147.6645  131.9936  156.6692 C   0  0  0  0  0  0  0  0  0  0  0  0
  149.1383  132.3391  156.8546 C   0  0  0  0  0  0  0  0  0  0  0  0
  149.3580  132.2783  158.2619 O   0  0  0  0  0  0  0  0  0  0  0  0
  148.4975  134.8778  159.5226 C   0  0  0  0  0  0  0  0  0  0  0  0
  148.6244  135.1626  158.3313 O   0  0  0  0  0  0  0  0  0  0  0  0
  155.0905  137.5159  160.3287 H   0  0  0  0  0  0  0  0  0  0  0  0
  154.5506  138.7425  161.4689 H   0  0  0  0  0  0  0  0  0  0  0  0
  155.6681  139.1677  160.1488 H   0  0  0  0  0  0  0  0  0  0  0  0
  154.6050  141.0627  160.8827 H   0  0  0  0  0  0  0  0  0  0  0  0
  153.5978  143.2826  160.7467 H   0  0  0  0  0  0  0  0  0  0  0  0
  151.6131  144.5103  158.3267 H   0  0  0  0  0  0  0  0  0  0  0  0
  151.7828  144.7314  160.0728 H   0  0  0  0  0  0  0  0  0  0  0  0
  150.3131  144.0054  159.4143 H   0  0  0  0  0  0  0  0  0  0  0  0
  150.5926  141.8115  158.0560 H   0  0  0  0  0  0  0  0  0  0  0  0
  152.1152  138.3519  157.9156 H   0  0  0  0  0  0  0  0  0  0  0  0
  151.9318  139.9602  156.0049 H   0  0  0  0  0  0  0  0  0  0  0  0
  150.3151  140.4187  156.5326 H   0  0  0  0  0  0  0  0  0  0  0  0
  150.6269  138.7855  155.9493 H   0  0  0  0  0  0  0  0  0  0  0  0
  149.3473  139.1454  158.4502 H   0  0  0  0  0  0  0  0  0  0  0  0
  148.5813  137.9741  160.9288 H   0  0  0  0  0  0  0  0  0  0  0  0
  147.9832  137.5873  159.3665 H   0  0  0  0  0  0  0  0  0  0  0  0
  148.0005  132.2378  161.5928 H   0  0  0  0  0  0  0  0  0  0  0  0
  147.9787  131.5110  159.5241 H   0  0  0  0  0  0  0  0  0  0  0  0
  146.1086  132.1429  158.2038 H   0  0  0  0  0  0  0  0  0  0  0  0
  146.8384  133.6820  157.7207 H   0  0  0  0  0  0  0  0  0  0  0  0
  147.5281  130.9117  156.6939 H   0  0  0  0  0  0  0  0  0  0  0  0
  147.2524  132.3701  155.7326 H   0  0  0  0  0  0  0  0  0  0  0  0
  149.7981  131.6558  156.3199 H   0  0  0  0  0  0  0  0  0  0  0  0
  149.3421  133.3488  156.4977 H   0  0  0  0  0  0  0  0  0  0  0  0
  1  2  1  0  0  0  0
  1 30  1  0  0  0  0
  1 31  1  0  0  0  0
  1 32  1  0  0  0  0
  2  3  1  0  0  0  0
  3  9  1  0  0  0  0
  3  4  2  0  0  0  0
  4  5  1  0  0  0  0
  4 33  1  0  0  0  0
  5  6  2  0  0  0  0
  5 34  1  0  0  0  0
  6  7  1  0  0  0  0
  6  8  1  0  0  0  0
  7 35  1  0  0  0  0
  7 36  1  0  0  0  0
  7 37  1  0  0  0  0
  8  9  2  0  0  0  0
  8 38  1  0  0  0  0
  9 10  1  0  0  0  0
 10 11  1  0  0  0  0
 10 12  1  0  0  0  0
 10 39  1  0  0  0  0
 11 40  1  0  0  0  0
 11 41  1  0  0  0  0
 11 42  1  0  0  0  0
 12 13  1  0  0  0  0
 12 43  1  0  0  0  0
 13 14  2  0  0  0  0
 13 15  1  0  0  0  0
 15 16  1  0  0  0  0
 15 44  1  0  0  0  0
 15 45  1  0  0  0  0
 16 28  1  0  0  0  0
 16 17  1  0  0  0  0
 17 18  2  0  0  0  0
 17 19  1  0  0  0  0
 19 20  1  0  0  0  0
 19 21  2  0  0  0  0
 21 22  1  0  0  0  0
 21 46  1  0  0  0  0
 22 23  1  0  0  0  0
 22 28  1  0  0  0  0
 23 27  1  0  0  0  0
 23 24  1  0  0  0  0
 23 47  1  0  0  0  0
 24 25  1  0  0  0  0
 24 48  1  0  0  0  0
 24 49  1  0  0  0  0
 25 26  1  0  0  0  0
 25 50  1  0  0  0  0
 25 51  1  0  0  0  0
 26 27  1  0  0  0  0
 26 52  1  0  0  0  0
 26 53  1  0  0  0  0
 28 29  2  0  0  0  0
M  END
> <s_m_source_file>
AV-unprocessed.smi

> <i_m_source_file_index>
94

> <i_lp_mmshare_version>
43012

> <i_f3d_flags>
0

> <s_epik_input>
W0NIM11PYzFbY0hdW2NIXWMoW0NIM10pW2NIXWMxW0NASF0oW0NIM10pW05IXUMoPU8pW0NIMl1uMmMoPU8pYyhGKVtjSF1uKGMyPU8pW0NAQEhdM1tDSDJdW0NIMl1bQ0gyXU8z

> <s_epik_cmdline>
J2VwaWtfcHl0aG9uJywgJy1waCcsICc3LjAnLCAnLXRuJywgJzgnLCAnLW1hJywgJzIwMCcsICctbWV0YWxfYmluZGluZycsICctaW1hZScsICc8aW5maWxlLm1hZT4nLCAnLW9tYWUnLCAnPG91dGZpbGUubWFlPic=

> <r_lp_tautomer_probability>
1

> <r_epik_Ionization_Penalty>
3.37009e-08

> <r_epik_Ionization_Penalty_Charging>
3.59856e-09

> <r_epik_Ionization_Penalty_Neutral>
3.01024e-08

> <r_epik_State_Penalty>
-0

> <r_epik_Charging_Adjusted_Penalty>
3.59856e-09

> <i_epik_Tot_Q>
0

> <i_epik_Tot_abs_Q>
0

> <r_epik_Metal_State_Penalty>
-0

> <b_epik_Metal_Only>
0

> <s_epik_Chemistry_Notes>
This compound contains an acetal/aminal-like group ( X-CH(R)-Y where X, Y are N, S, or O) that may be acid/base labile, releasing an aldehyde.

> <s_lp_Force_Field>
OPLS_2005

> <r_lp_Energy>
25.2965

> <b_lp_Chiralities_Consistent>
1

> <s_lp_Variant>
AV-unprocessed.smi:94-3

> <Gold.Version>
5.8.1

> <Gold.Id.Protein>
6NUR|6NUR_protein|mol2

> <Gold.PLP.Fitness>
57.5718

> <Gold.PLP.PLP>
-48.6918

> <Gold.PLP.part.hbond>
-4.1659

> <Gold.PLP.part.metal>
0.0000

> <Gold.PLP.part.buried>
-4.6287

> <Gold.PLP.part.nonpolar>
-40.4362

> <Gold.PLP.part.repulsive>
0.0715

> <Gold.PLP.ligand.clash>
0.0000

> <Gold.PLP.ligand.torsion>
1.2490

> <Gold.PLP.Chemscore.Hbond>
3.7510

> <Gold.PLP.Chemscore.CHOScore>
0.0000

> <Gold.PLP.Chemscore.Metal>
0.0000

> <Gold.Chemscore.Hbonds>
donor molecule, donor type, donor heavy atom, donor atom, acceptor molecule, acceptor atom, score
      P1  H  6896  6907       L1    27  0.39
      P1  H  6896  6908       L1    14  1.00
      P1  H  6931  6943       L1    18  1.00

> <Gold.PLP.Chemscore.Internal.Correction>
0.1249

> <Gold.Rescore>
     Score         DG    S(hbond)    S(metal)    S(lipo)     H(rot)  DE(clash)    DE(int)     intcor
     20.79     -23.56       3.45        0.00     107.21       2.34       0.01       2.77       ----

> <Gold.Chemscore.Fitness>
20.7924

> <Gold.Chemscore.DG>
-23.5635

> <Gold.Chemscore.ZeroCoef>
-5.4800

> <Gold.Chemscore.Hbond>
3.4499

> <Gold.Chemscore.Metal>
0.0000

> <Gold.Chemscore.Lipo>
107.2102

> <Gold.Chemscore.Internal_Hbond>
0.0000

> <Gold.Chemscore.DEClash>
0.0057

> <Gold.Chemscore.DEInternal>
2.7654

> <Gold.Chemscore.Rot>
2.3370

> <Gold.Chemscore.Internal.Correction>
   9.000000E+99

> <Gold.Chemscore.Hbonds>
donor molecule, donor type, donor heavy atom, donor atom, acceptor molecule, acceptor atom, score
      P1  H  6896  6907       L1    27  0.30
      P1  H  6896  6908       L1    14  1.00
      P1  H  6931  6943       L1    18  0.76

> <Gold.Chemscore.Hbond.Weighted>
-11.5226

> <Gold.Chemscore.Metal.Weighted>
-0.0000

> <Gold.Chemscore.Lipo.Weighted>
-12.5436

> <Gold.Chemscore.Internal_Hbond.Weighted>
0.0000

> <Gold.Chemscore.DEClash.Weighted>
0.0057

> <Gold.Chemscore.DEInternal.Weighted>
2.7654

> <Gold.Chemscore.Rot.Weighted>
5.9827

> <Gold.Chemscore.Internal.Correction.Weighted>
   9.000000E+99

> <Gold.Protein.RotatedTorsions>
[ 6907 6896 6895 6894 ] final -138.50 input  -60.11 | X-H torsion
[ 7974 7965 7964 7962 ] final  -28.46 input  175.53 | X-H torsion
[ 8008 7997 7996 7995 ] final -134.23 input   59.86 | X-H torsion
[ 10167 10162 10161 10158 ] final  153.66 input  -65.29 | X-H torsion
[ 10718 10713 10712 10709 ] final -103.08 input   66.30 | X-H torsion
[ 10763 10752 10751 10750 ] final  168.49 input  -60.55 | X-H torsion
[ 11005 11000 10999 10996 ] final -156.26 input  -57.11 | X-H torsion

> <Gold.Protein.ActiveResidues>
 VAL166  LYS551  ARG553  GLY616  TRP617  ASP618  TYR619  PRO620  LYS621  CYS622 
 ASP623  PHE694  ASN695  SER759  ASP760  ASP761  ALA762  ILE779  LEU786  VAL792 
 PHE793  MET794  SER795  GLU796  ALA797  LYS798  CYS799  TRP800  GLU811  SER814 

> <Gold.Protein.RotatedAtoms>
  151.0358  133.5749  159.2655 H   0  0  0  0  0  0  0  0  0  0  0  0  # atno 6907 bound_to 6896
  151.2814  135.0714  159.9180 H   0  0  0  0  0  0  0  0  0  0  0  0  # atno 6908 bound_to 6896
  152.5354  134.0072  159.7976 H   0  0  0  0  0  0  0  0  0  0  0  0  # atno 6909 bound_to 6896
  146.1286  140.5286  142.8703 H   0  0  0  0  0  0  0  0  0  0  0  0  # atno 7974 bound_to 7965
  155.3586  140.0481  157.3046 H   0  0  0  0  0  0  0  0  0  0  0  0  # atno 8008 bound_to 7997
  154.5190  140.2218  155.8975 H   0  0  0  0  0  0  0  0  0  0  0  0  # atno 8009 bound_to 7997
  156.1668  140.3104  155.8909 H   0  0  0  0  0  0  0  0  0  0  0  0  # atno 8010 bound_to 7997
  139.4826  144.5254  151.7809 H   0  0  0  0  0  0  0  0  0  0  0  0  # atno 10167 bound_to 10162
  156.0252  130.5450  150.7202 H   0  0  0  0  0  0  0  0  0  0  0  0  # atno 10718 bound_to 10713
  154.3693  135.2753  155.2276 H   0  0  0  0  0  0  0  0  0  0  0  0  # atno 10763 bound_to 10752
  154.4430  135.5949  153.6145 H   0  0  0  0  0  0  0  0  0  0  0  0  # atno 10764 bound_to 10752
  152.9839  135.6023  154.3922 H   0  0  0  0  0  0  0  0  0  0  0  0  # atno 10765 bound_to 10752
  140.6775  134.4181  157.5228 H   0  0  0  0  0  0  0  0  0  0  0  0  # atno 11005 bound_to 11000
  144.7667  140.5547  143.6698 LP  0  0  0  0  0  0  0  0  0  0  0  0  # atno 17320 bound_to 7965
  145.5310  139.1475  143.3499 LP  0  0  0  0  0  0  0  0  0  0  0  0  # atno 17321 bound_to 7965
  140.4774  144.1500  150.5927 LP  0  0  0  0  0  0  0  0  0  0  0  0  # atno 17342 bound_to 10162
  140.4316  143.2566  151.9588 LP  0  0  0  0  0  0  0  0  0  0  0  0  # atno 17343 bound_to 10162
  157.4819  131.0903  151.0526 LP  0  0  0  0  0  0  0  0  0  0  0  0  # atno 17370 bound_to 10713
  157.0957  130.5961  149.5449 LP  0  0  0  0  0  0  0  0  0  0  0  0  # atno 17371 bound_to 10713
  139.8962  134.8665  156.2097 LP  0  0  0  0  0  0  0  0  0  0  0  0  # atno 17394 bound_to 11000
  141.0344  133.6971  156.1486 LP  0  0  0  0  0  0  0  0  0  0  0  0  # atno 17395 bound_to 11000

$$$$
