AV-unprocessed.smi:517|AV-procd|sdf|2789|dock5
  -GOLD-   2262023263D 1   1.00000     0.00000
 Structure written by MMmdl.
 35 36  0  0  0  0  0  0  0  0  1 V2000
  148.2847  140.6648  154.0911 C   0  0  0  0  0  0  0  0  0  0  0  0
  149.4286  141.4043  154.7885 C   0  0  0  0  0  0  0  0  0  0  0  0
  150.4880  140.4954  155.0351 O   0  0  0  0  0  0  0  0  0  0  0  0
  151.3593  140.9384  156.0626 C   0  0  0  0  0  0  0  0  0  0  0  0
  150.5711  141.2052  157.3527 C   0  0  0  0  0  0  0  0  0  0  0  0
  151.4065  141.7532  158.4139 N   0  0  0  0  0  0  0  0  0  0  0  0
  151.3718  142.9851  158.9912 C   0  0  0  0  0  0  0  0  0  0  0  0
  150.3827  144.0536  158.6069 C   0  0  1  0  0  0  0  0  0  0  0  0
  149.7903  144.7603  159.8346 C   0  0  0  0  0  0  0  0  0  0  0  0
  150.9608  145.0289  157.7646 O   0  0  0  0  0  0  0  0  0  0  0  0
  152.3039  143.2085  159.9210 N   0  0  0  0  0  0  0  0  0  0  0  0
  152.9802  142.0075  159.9774 C   0  0  0  0  0  0  0  0  0  0  0  0
  154.0702  141.6043  160.7818 C   0  0  0  0  0  0  0  0  0  0  0  0
  154.6011  140.3033  160.6639 C   0  0  0  0  0  0  0  0  0  0  0  0
  154.0520  139.3899  159.7408 C   0  0  0  0  0  0  0  0  0  0  0  0
  152.9679  139.7732  158.9280 C   0  0  0  0  0  0  0  0  0  0  0  0
  152.4409  141.0732  159.0502 C   0  0  0  0  0  0  0  0  0  0  0  0
  147.4398  141.3310  153.9165 H   0  0  0  0  0  0  0  0  0  0  0  0
  147.9327  139.8284  154.6952 H   0  0  0  0  0  0  0  0  0  0  0  0
  148.6033  140.2721  153.1254 H   0  0  0  0  0  0  0  0  0  0  0  0
  149.7741  142.2275  154.1616 H   0  0  0  0  0  0  0  0  0  0  0  0
  149.0762  141.8303  155.7289 H   0  0  0  0  0  0  0  0  0  0  0  0
  152.1274  140.1853  156.2457 H   0  0  0  0  0  0  0  0  0  0  0  0
  151.8680  141.8524  155.7527 H   0  0  0  0  0  0  0  0  0  0  0  0
  149.7713  141.9170  157.1457 H   0  0  0  0  0  0  0  0  0  0  0  0
  150.0695  140.3033  157.7003 H   0  0  0  0  0  0  0  0  0  0  0  0
  149.5533  143.6191  158.0543 H   0  0  0  0  0  0  0  0  0  0  0  0
  149.3093  144.0463  160.5018 H   0  0  0  0  0  0  0  0  0  0  0  0
  149.0404  145.4958  159.5421 H   0  0  0  0  0  0  0  0  0  0  0  0
  150.5592  145.2801  160.4075 H   0  0  0  0  0  0  0  0  0  0  0  0
  150.4625  145.0637  156.9627 H   0  0  0  0  0  0  0  0  0  0  0  0
  154.4973  142.2971  161.4918 H   0  0  0  0  0  0  0  0  0  0  0  0
  155.4331  140.0048  161.2848 H   0  0  0  0  0  0  0  0  0  0  0  0
  154.4642  138.3950  159.6570 H   0  0  0  0  0  0  0  0  0  0  0  0
  152.5458  139.0749  158.2210 H   0  0  0  0  0  0  0  0  0  0  0  0
  1  2  1  0  0  0  0
  1 18  1  0  0  0  0
  1 19  1  0  0  0  0
  1 20  1  0  0  0  0
  2  3  1  0  0  0  0
  2 21  1  0  0  0  0
  2 22  1  0  0  0  0
  3  4  1  0  0  0  0
  4  5  1  0  0  0  0
  4 23  1  0  0  0  0
  4 24  1  0  0  0  0
  5  6  1  0  0  0  0
  5 25  1  0  0  0  0
  5 26  1  0  0  0  0
  6 17  1  0  0  0  0
  6  7  1  0  0  0  0
  7  8  1  0  0  0  0
  7 11  2  0  0  0  0
  8  9  1  0  0  0  0
  8 10  1  0  0  0  0
  8 27  1  0  0  0  0
  9 28  1  0  0  0  0
  9 29  1  0  0  0  0
  9 30  1  0  0  0  0
 10 31  1  0  0  0  0
 11 12  1  0  0  0  0
 12 17  2  0  0  0  0
 12 13  1  0  0  0  0
 13 14  2  0  0  0  0
 13 32  1  0  0  0  0
 14 15  1  0  0  0  0
 14 33  1  0  0  0  0
 15 16  2  0  0  0  0
 15 34  1  0  0  0  0
 16 17  1  0  0  0  0
 16 35  1  0  0  0  0
M  END
> <s_m_source_file>
AV-unprocessed.smi

> <i_m_source_file_index>
517

> <i_lp_mmshare_version>
43012

> <i_f3d_flags>
0

> <s_epik_input>
W0NIM11bQ0gyXU9bQ0gyXVtDSDJdbihjKG4xKVtDQEhdKFtDSDNdKVtPSF0pYyhjMTIpW2NIXVtjSF1bY0hdW2NIXTI=

> <s_epik_cmdline>
J2VwaWtfcHl0aG9uJywgJy1waCcsICc3LjAnLCAnLXRuJywgJzgnLCAnLW1hJywgJzIwMCcsICctbWV0YWxfYmluZGluZycsICctaW1hZScsICc8aW5maWxlLm1hZT4nLCAnLW9tYWUnLCAnPG91dGZpbGUubWFlPic=

> <r_epik_Ionization_Penalty>
0.0517997

> <r_epik_Ionization_Penalty_Charging>
0

> <r_epik_Ionization_Penalty_Neutral>
0.0517997

> <r_epik_State_Penalty>
0.0443961

> <r_epik_Charging_Adjusted_Penalty>
0.0443961

> <i_epik_Tot_Q>
0

> <i_epik_Tot_abs_Q>
0

> <r_epik_Metal_State_Penalty>
4.60999e-05

> <b_epik_Metal_Only>
0

> <s_lp_Force_Field>
OPLS_2005

> <r_lp_Energy>
6.29619

> <b_lp_Chiralities_Consistent>
1

> <s_lp_Variant>
AV-unprocessed.smi:517-2

> <Gold.Version>
5.8.1

> <Gold.Id.Protein>
6NUR|6NUR_protein|mol2

> <Gold.PLP.Fitness>
40.3748

> <Gold.PLP.PLP>
-35.6603

> <Gold.PLP.part.hbond>
-2.4096

> <Gold.PLP.part.metal>
0.0000

> <Gold.PLP.part.buried>
-3.6756

> <Gold.PLP.part.nonpolar>
-28.9676

> <Gold.PLP.part.repulsive>
0.0729

> <Gold.PLP.ligand.clash>
0.0000

> <Gold.PLP.ligand.torsion>
0.5866

> <Gold.PLP.Chemscore.Hbond>
1.9500

> <Gold.PLP.Chemscore.CHOScore>
0.0000

> <Gold.PLP.Chemscore.Metal>
0.0000

> <Gold.Chemscore.Hbonds>
donor molecule, donor type, donor heavy atom, donor atom, acceptor molecule, acceptor atom, score
      L1  H    10    31       P1  8028  1.00
      P1  H  7989  7998       L1     3  0.95

> <Gold.PLP.Chemscore.Internal.Correction>
0.0377

> <Gold.Rescore>
     Score         DG    S(hbond)    S(metal)    S(lipo)     H(rot)  DE(clash)    DE(int)     intcor
     12.15     -13.41       0.78        0.00      91.51       2.11       0.64       0.62       ----

> <Gold.Chemscore.Fitness>
12.1507

> <Gold.Chemscore.DG>
-13.4110

> <Gold.Chemscore.ZeroCoef>
-5.4800

> <Gold.Chemscore.Hbond>
0.7827

> <Gold.Chemscore.Metal>
0.0000

> <Gold.Chemscore.Lipo>
91.5064

> <Gold.Chemscore.Internal_Hbond>
0.0000

> <Gold.Chemscore.DEClash>
0.6397

> <Gold.Chemscore.DEInternal>
0.6206

> <Gold.Chemscore.Rot>
2.1052

> <Gold.Chemscore.Internal.Correction>
   9.000000E+99

> <Gold.Chemscore.Hbonds>
donor molecule, donor type, donor heavy atom, donor atom, acceptor molecule, acceptor atom, score
      L1  H    10    31       P1  8028  0.32
      P1  H  7989  7998       L1     3  0.05

> <Gold.Chemscore.Hbond.Weighted>
-2.6142

> <Gold.Chemscore.Metal.Weighted>
-0.0000

> <Gold.Chemscore.Lipo.Weighted>
-10.7062

> <Gold.Chemscore.Internal_Hbond.Weighted>
0.0000

> <Gold.Chemscore.DEClash.Weighted>
0.6397

> <Gold.Chemscore.DEInternal.Weighted>
0.6206

> <Gold.Chemscore.Rot.Weighted>
5.3894

> <Gold.Chemscore.Internal.Correction.Weighted>
   9.000000E+99

> <Gold.Protein.RotatedTorsions>
[ 6907 6896 6895 6894 ] final -161.23 input  -60.11 | X-H torsion
[ 7974 7965 7964 7962 ] final -101.01 input  175.53 | X-H torsion
[ 8008 7997 7996 7995 ] final  132.15 input   59.86 | X-H torsion
[ 10167 10162 10161 10158 ] final  -33.46 input  -65.29 | X-H torsion
[ 10718 10713 10712 10709 ] final  -93.25 input   66.30 | X-H torsion
[ 10763 10752 10751 10750 ] final  -18.71 input  -60.55 | X-H torsion
[ 11005 11000 10999 10996 ] final   75.07 input  -57.11 | X-H torsion

> <Gold.Protein.ActiveResidues>
 VAL166  LYS551  ARG553  GLY616  TRP617  ASP618  TYR619  PRO620  LYS621  CYS622 
 ASP623  PHE694  ASN695  SER759  ASP760  ASP761  ALA762  ILE779  LEU786  VAL792 
 PHE793  MET794  SER795  GLU796  ALA797  LYS798  CYS799  TRP800  GLU811  SER814 

> <Gold.Protein.RotatedAtoms>
  151.3614  133.3888  159.2689 H   0  0  0  0  0  0  0  0  0  0  0  0  # atno 6907 bound_to 6896
  150.9723  134.9094  159.7805 H   0  0  0  0  0  0  0  0  0  0  0  0  # atno 6908 bound_to 6896
  152.5189  134.3576  159.9325 H   0  0  0  0  0  0  0  0  0  0  0  0  # atno 6909 bound_to 6896
  145.2871  140.9342  143.2899 H   0  0  0  0  0  0  0  0  0  0  0  0  # atno 7974 bound_to 7965
  156.2979  140.2553  156.3042 H   0  0  0  0  0  0  0  0  0  0  0  0  # atno 8008 bound_to 7997
  154.9388  140.0396  157.2105 H   0  0  0  0  0  0  0  0  0  0  0  0  # atno 8009 bound_to 7997
  154.8147  140.2850  155.5833 H   0  0  0  0  0  0  0  0  0  0  0  0  # atno 8010 bound_to 7997
  140.7204  143.3619  151.1947 H   0  0  0  0  0  0  0  0  0  0  0  0  # atno 10167 bound_to 10162
  156.0011  130.5019  150.5748 H   0  0  0  0  0  0  0  0  0  0  0  0  # atno 10718 bound_to 10713
  153.5935  135.7001  153.5413 H   0  0  0  0  0  0  0  0  0  0  0  0  # atno 10763 bound_to 10752
  153.3158  135.4088  155.1374 H   0  0  0  0  0  0  0  0  0  0  0  0  # atno 10764 bound_to 10752
  154.8596  135.3683  154.5468 H   0  0  0  0  0  0  0  0  0  0  0  0  # atno 10765 bound_to 10752
  139.9361  134.7486  156.1225 H   0  0  0  0  0  0  0  0  0  0  0  0  # atno 11005 bound_to 11000
  144.9204  139.4419  143.6544 LP  0  0  0  0  0  0  0  0  0  0  0  0  # atno 17320 bound_to 7965
  146.3197  139.8061  142.8955 LP  0  0  0  0  0  0  0  0  0  0  0  0  # atno 17321 bound_to 7965
  139.7172  143.9281  152.2971 LP  0  0  0  0  0  0  0  0  0  0  0  0  # atno 17342 bound_to 10162
  139.9026  144.6903  150.8649 LP  0  0  0  0  0  0  0  0  0  0  0  0  # atno 17343 bound_to 10162
  157.3637  131.0754  151.1615 LP  0  0  0  0  0  0  0  0  0  0  0  0  # atno 17370 bound_to 10713
  157.2391  130.6561  149.5882 LP  0  0  0  0  0  0  0  0  0  0  0  0  # atno 17371 bound_to 10713
  141.0975  133.6690  156.2678 LP  0  0  0  0  0  0  0  0  0  0  0  0  # atno 17394 bound_to 11000
  140.6072  134.5495  157.5527 LP  0  0  0  0  0  0  0  0  0  0  0  0  # atno 17395 bound_to 11000

$$$$
