AV-unprocessed.smi:540|AV-procd|sdf|2869|dock6
  -GOLD-   2262023363D 1   1.00000     0.00000
 Structure written by MMmdl.
 49 51  0  0  0  0  0  0  0  0  1 V2000
  157.3637  138.0923  154.3065 C   0  0  0  0  0  0  0  0  0  0  0  0
  155.8691  138.1359  153.9810 C   0  0  0  0  0  0  0  0  0  0  0  0
  155.1366  138.1704  155.1940 O   0  0  0  0  0  0  0  0  0  0  0  0
  153.8007  138.6074  155.0140 C   0  0  0  0  0  0  0  0  0  0  0  0
  153.1354  138.7388  156.3890 C   0  0  0  0  0  0  0  0  0  0  0  0
  151.8612  139.4470  156.3009 N   0  0  0  0  0  0  0  0  0  0  0  0
  151.4465  140.5370  157.0052 C   0  0  0  0  0  0  0  0  0  0  0  0
  152.2368  141.1410  157.9857 N   0  0  0  0  0  0  0  0  0  0  0  0
  152.5065  142.5714  158.1317 C   0  0  0  0  0  0  0  0  0  0  0  0
  152.2013  143.0615  159.5587 C   0  0  0  0  0  0  0  0  0  0  0  0
  153.0282  142.2783  160.5934 C   0  0  0  0  0  0  0  0  0  0  0  0
  152.6689  142.6792  162.0309 C   0  0  0  0  0  0  0  0  0  0  0  0
  152.8477  140.7681  160.3574 C   0  0  0  0  0  0  0  0  0  0  0  0
  153.1162  140.3995  158.8871 C   0  0  0  0  0  0  0  0  0  0  0  0
  150.2501  141.0088  156.6439 N   0  0  0  0  0  0  0  0  0  0  0  0
  149.8552  140.1354  155.6429 C   0  0  0  0  0  0  0  0  0  0  0  0
  150.8121  139.2005  155.4117 C   0  0  0  0  0  0  0  0  0  0  0  0
  150.6730  138.1785  154.3636 C   0  0  0  0  0  0  0  0  0  0  0  0
  151.5339  137.3387  154.1116 O   0  0  0  0  0  0  0  0  0  0  0  0
  149.4985  138.2602  153.6926 N   0  0  0  0  0  0  0  0  0  0  0  0
  148.4932  139.1677  153.8823 C   0  0  0  0  0  0  0  0  0  0  0  0
  147.4805  139.1189  153.1842 O   0  0  0  0  0  0  0  0  0  0  0  0
  148.6655  140.1134  154.8603 N   0  0  0  0  0  0  0  0  0  0  0  0
  147.6267  141.1170  155.1000 C   0  0  0  0  0  0  0  0  0  0  0  0
  149.3517  137.5770  152.9641 H   0  0  0  0  0  0  0  0  0  0  0  0
  157.9605  138.0661  153.3945 H   0  0  0  0  0  0  0  0  0  0  0  0
  157.6108  137.2075  154.8937 H   0  0  0  0  0  0  0  0  0  0  0  0
  157.6648  138.9702  154.8785 H   0  0  0  0  0  0  0  0  0  0  0  0
  155.6465  139.0198  153.3812 H   0  0  0  0  0  0  0  0  0  0  0  0
  155.5877  137.2587  153.3964 H   0  0  0  0  0  0  0  0  0  0  0  0
  153.7936  139.5701  154.5009 H   0  0  0  0  0  0  0  0  0  0  0  0
  153.2502  137.8987  154.3933 H   0  0  0  0  0  0  0  0  0  0  0  0
  152.9887  137.7580  156.8359 H   0  0  0  0  0  0  0  0  0  0  0  0
  153.7972  139.2540  157.0780 H   0  0  0  0  0  0  0  0  0  0  0  0
  153.5566  142.7538  157.8995 H   0  0  0  0  0  0  0  0  0  0  0  0
  151.9444  143.1431  157.3945 H   0  0  0  0  0  0  0  0  0  0  0  0
  152.4185  144.1272  159.6355 H   0  0  0  0  0  0  0  0  0  0  0  0
  151.1380  142.9473  159.7714 H   0  0  0  0  0  0  0  0  0  0  0  0
  154.0804  142.5183  160.4331 H   0  0  0  0  0  0  0  0  0  0  0  0
  151.6232  142.4636  162.2531 H   0  0  0  0  0  0  0  0  0  0  0  0
  152.8311  143.7453  162.1923 H   0  0  0  0  0  0  0  0  0  0  0  0
  153.2819  142.1394  162.7530 H   0  0  0  0  0  0  0  0  0  0  0  0
  153.5190  140.2055  161.0069 H   0  0  0  0  0  0  0  0  0  0  0  0
  151.8339  140.4687  160.6268 H   0  0  0  0  0  0  0  0  0  0  0  0
  152.9639  139.3286  158.7483 H   0  0  0  0  0  0  0  0  0  0  0  0
  154.1563  140.6006  158.6274 H   0  0  0  0  0  0  0  0  0  0  0  0
  146.6558  140.6428  155.2516 H   0  0  0  0  0  0  0  0  0  0  0  0
  147.5472  141.7907  154.2460 H   0  0  0  0  0  0  0  0  0  0  0  0
  147.8274  141.7247  155.9823 H   0  0  0  0  0  0  0  0  0  0  0  0
  1  2  1  0  0  0  0
  1 26  1  0  0  0  0
  1 27  1  0  0  0  0
  1 28  1  0  0  0  0
  2  3  1  0  0  0  0
  2 29  1  0  0  0  0
  2 30  1  0  0  0  0
  3  4  1  0  0  0  0
  4  5  1  0  0  0  0
  4 31  1  0  0  0  0
  4 32  1  0  0  0  0
  5  6  1  0  0  0  0
  5 33  1  0  0  0  0
  5 34  1  0  0  0  0
  6 17  1  0  0  0  0
  6  7  1  0  0  0  0
  7  8  1  0  0  0  0
  7 15  2  0  0  0  0
  8 14  1  0  0  0  0
  8  9  1  0  0  0  0
  9 10  1  0  0  0  0
  9 35  1  0  0  0  0
  9 36  1  0  0  0  0
 10 11  1  0  0  0  0
 10 37  1  0  0  0  0
 10 38  1  0  0  0  0
 11 12  1  0  0  0  0
 11 13  1  0  0  0  0
 11 39  1  0  0  0  0
 12 40  1  0  0  0  0
 12 41  1  0  0  0  0
 12 42  1  0  0  0  0
 13 14  1  0  0  0  0
 13 43  1  0  0  0  0
 13 44  1  0  0  0  0
 14 45  1  0  0  0  0
 14 46  1  0  0  0  0
 15 16  1  0  0  0  0
 16 23  1  0  0  0  0
 16 17  2  0  0  0  0
 17 18  1  0  0  0  0
 18 19  2  0  0  0  0
 18 20  1  0  0  0  0
 20 25  1  0  0  0  0
 20 21  1  0  0  0  0
 21 22  2  0  0  0  0
 21 23  1  0  0  0  0
 23 24  1  0  0  0  0
 24 47  1  0  0  0  0
 24 48  1  0  0  0  0
 24 49  1  0  0  0  0
M  END
> <s_m_source_file>
AV-unprocessed.smi

> <i_m_source_file_index>
540

> <i_lp_mmshare_version>
43012

> <i_f3d_flags>
0

> <s_epik_input>
W0NIM11uMWMoPU8pW25IXWMoPU8pYyhjMTIpbihbQ0gyXVtDSDJdT1tDSDJdW0NIM10pYyhuMilOM1tDSDJdW0NIMl1bQ0hdKFtDSDNdKVtDSDJdW0NIMl0z

> <s_epik_cmdline>
J2VwaWtfcHl0aG9uJywgJy1waCcsICc3LjAnLCAnLXRuJywgJzgnLCAnLW1hJywgJzIwMCcsICctbWV0YWxfYmluZGluZycsICctaW1hZScsICc8aW5maWxlLm1hZT4nLCAnLW9tYWUnLCAnPG91dGZpbGUubWFlPic=

> <r_lp_tautomer_probability>
1

> <r_epik_Ionization_Penalty>
0.000763957

> <r_epik_Ionization_Penalty_Charging>
0.000121351

> <r_epik_Ionization_Penalty_Neutral>
0.000642606

> <r_epik_State_Penalty>
-0

> <r_epik_Charging_Adjusted_Penalty>
0.000121351

> <i_epik_Tot_Q>
0

> <i_epik_Tot_abs_Q>
0

> <r_epik_Metal_State_Penalty>
0.0930422

> <b_epik_Metal_Only>
0

> <s_lp_Force_Field>
OPLS_2005

> <r_lp_Energy>
38.5385

> <b_lp_Chiralities_Consistent>
1

> <s_lp_Variant>
AV-unprocessed.smi:540-1

> <Gold.Version>
5.8.1

> <Gold.Id.Protein>
6NUR|6NUR_protein|mol2

> <Gold.PLP.Fitness>
42.3454

> <Gold.PLP.PLP>
-38.7319

> <Gold.PLP.part.hbond>
-3.5440

> <Gold.PLP.part.metal>
0.0000

> <Gold.PLP.part.buried>
-0.6663

> <Gold.PLP.part.nonpolar>
-37.2836

> <Gold.PLP.part.repulsive>
1.8316

> <Gold.PLP.ligand.clash>
0.0104

> <Gold.PLP.ligand.torsion>
0.8270

> <Gold.PLP.Chemscore.Hbond>
1.6012

> <Gold.PLP.Chemscore.CHOScore>
0.0000

> <Gold.PLP.Chemscore.Metal>
0.0000

> <Gold.Chemscore.Hbonds>
donor molecule, donor type, donor heavy atom, donor atom, acceptor molecule, acceptor atom, score
      L1  H    20    25       P1  7948  1.00
      P1  H 10752 10763       L1    19  0.60

> <Gold.PLP.Chemscore.Internal.Correction>
0.4741

> <Gold.Rescore>
     Score         DG    S(hbond)    S(metal)    S(lipo)     H(rot)  DE(clash)    DE(int)     intcor
     13.80     -20.16       1.92        0.00     105.22       1.58       3.10       3.25       ----

> <Gold.Chemscore.Fitness>
13.8029

> <Gold.Chemscore.DG>
-20.1559

> <Gold.Chemscore.ZeroCoef>
-5.4800

> <Gold.Chemscore.Hbond>
1.9195

> <Gold.Chemscore.Metal>
0.0000

> <Gold.Chemscore.Lipo>
105.2229

> <Gold.Chemscore.Internal_Hbond>
0.0000

> <Gold.Chemscore.DEClash>
3.0993

> <Gold.Chemscore.DEInternal>
3.2536

> <Gold.Chemscore.Rot>
1.5806

> <Gold.Chemscore.Internal.Correction>
   9.000000E+99

> <Gold.Chemscore.Hbonds>
donor molecule, donor type, donor heavy atom, donor atom, acceptor molecule, acceptor atom, score
      L1  H    20    25       P1  7948  0.94
      P1  H 10752 10763       L1    19  0.60

> <Gold.Chemscore.Hbond.Weighted>
-6.4110

> <Gold.Chemscore.Metal.Weighted>
-0.0000

> <Gold.Chemscore.Lipo.Weighted>
-12.3111

> <Gold.Chemscore.Internal_Hbond.Weighted>
0.0000

> <Gold.Chemscore.DEClash.Weighted>
3.0993

> <Gold.Chemscore.DEInternal.Weighted>
3.2536

> <Gold.Chemscore.Rot.Weighted>
4.0463

> <Gold.Chemscore.Internal.Correction.Weighted>
   9.000000E+99

> <Gold.Protein.RotatedTorsions>
[ 6907 6896 6895 6894 ] final -147.44 input  -60.11 | X-H torsion
[ 7974 7965 7964 7962 ] final  -46.26 input  175.53 | X-H torsion
[ 8008 7997 7996 7995 ] final  112.13 input   59.86 | X-H torsion
[ 10167 10162 10161 10158 ] final  149.85 input  -65.29 | X-H torsion
[ 10718 10713 10712 10709 ] final  -85.67 input   66.30 | X-H torsion
[ 10763 10752 10751 10750 ] final   39.70 input  -60.55 | X-H torsion
[ 11005 11000 10999 10996 ] final  163.57 input  -57.11 | X-H torsion

> <Gold.Protein.ActiveResidues>
 VAL166  LYS551  ARG553  GLY616  TRP617  ASP618  TYR619  PRO620  LYS621  CYS622 
 ASP623  PHE694  ASN695  SER759  ASP760  ASP761  ALA762  ILE779  LEU786  VAL792 
 PHE793  MET794  SER795  GLU796  ALA797  LYS798  CYS799  TRP800  GLU811  SER814 

> <Gold.Protein.RotatedAtoms>
  151.1558  133.4877  159.2594 H   0  0  0  0  0  0  0  0  0  0  0  0  # atno 6907 bound_to 6896
  151.1506  135.0225  159.8676 H   0  0  0  0  0  0  0  0  0  0  0  0  # atno 6908 bound_to 6896
  152.5463  134.1442  159.8545 H   0  0  0  0  0  0  0  0  0  0  0  0  # atno 6909 bound_to 6896
  145.9737  140.7356  142.9397 H   0  0  0  0  0  0  0  0  0  0  0  0  # atno 7974 bound_to 7965
  156.2171  140.3005  155.9865 H   0  0  0  0  0  0  0  0  0  0  0  0  # atno 8008 bound_to 7997
  155.2577  140.0428  157.3011 H   0  0  0  0  0  0  0  0  0  0  0  0  # atno 8009 bound_to 7997
  154.5784  140.2368  155.8097 H   0  0  0  0  0  0  0  0  0  0  0  0  # atno 8010 bound_to 7997
  139.4856  144.5569  151.7301 H   0  0  0  0  0  0  0  0  0  0  0  0  # atno 10167 bound_to 10162
  155.9995  130.4739  150.4598 H   0  0  0  0  0  0  0  0  0  0  0  0  # atno 10718 bound_to 10713
  152.9959  135.6213  154.2508 H   0  0  0  0  0  0  0  0  0  0  0  0  # atno 10763 bound_to 10752
  154.2246  135.2794  155.2914 H   0  0  0  0  0  0  0  0  0  0  0  0  # atno 10764 bound_to 10752
  154.5500  135.5736  153.6972 H   0  0  0  0  0  0  0  0  0  0  0  0  # atno 10765 bound_to 10752
  140.2371  134.8079  157.3374 H   0  0  0  0  0  0  0  0  0  0  0  0  # atno 11005 bound_to 11000
  144.6843  140.2792  143.7294 LP  0  0  0  0  0  0  0  0  0  0  0  0  # atno 17320 bound_to 7965
  145.7869  139.1912  143.2125 LP  0  0  0  0  0  0  0  0  0  0  0  0  # atno 17321 bound_to 7965
  140.5132  144.0993  150.6001 LP  0  0  0  0  0  0  0  0  0  0  0  0  # atno 17342 bound_to 10162
  140.3926  143.2745  152.0042 LP  0  0  0  0  0  0  0  0  0  0  0  0  # atno 17343 bound_to 10162
  157.2623  131.0569  151.2312 LP  0  0  0  0  0  0  0  0  0  0  0  0  # atno 17370 bound_to 10713
  157.3422  130.7039  149.6389 LP  0  0  0  0  0  0  0  0  0  0  0  0  # atno 17371 bound_to 10713
  140.1691  134.4632  155.7843 LP  0  0  0  0  0  0  0  0  0  0  0  0  # atno 17394 bound_to 11000
  141.2213  133.6934  156.7676 LP  0  0  0  0  0  0  0  0  0  0  0  0  # atno 17395 bound_to 11000

$$$$
