AV-unprocessed.smi:3226|AV-procd|sdf|12315|dock1
  -GOLD-   2272018163D 1   1.00000     0.00000
 Structure written by MMmdl.
 41 43  0  0  0  0  0  0  0  0  2 V2000
  152.2243  138.2977  159.4107 C   0  0  0  0  0  0  0  0  0  0  0  0
  152.0693  139.5654  158.5630 C   0  0  0  0  0  0  0  0  0  0  0  0
  152.2725  139.3089  157.1014 C   0  0  0  0  0  0  0  0  0  0  0  0
  153.4169  138.8401  156.5899 N   0  0  0  0  0  0  0  0  0  0  0  0
  153.1958  138.7132  155.2333 N   0  0  0  0  0  0  0  0  0  0  0  0
  151.9361  139.1088  155.0614 C   0  0  0  0  0  0  0  0  0  0  0  0
  151.3039  139.4975  156.1798 N   0  0  0  0  0  0  0  0  0  0  0  0
  149.9402  139.9791  156.3225 C   0  0  0  0  0  0  0  0  0  0  0  0
  149.6830  141.2570  155.5074 C   0  0  0  0  0  0  0  0  0  0  0  0
  150.2202  142.4548  156.1843 N   0  3  0  0  0  0  0  0  0  0  0  0
  150.1506  142.3943  157.6571 C   0  0  0  0  0  0  0  0  0  0  0  0
  150.5846  143.7288  158.2921 C   0  0  2  0  0  0  0  0  0  0  0  0
  151.8104  144.3904  157.5906 C   0  0  0  0  0  0  0  0  0  0  0  0
  152.7876  144.6430  158.7621 C   0  0  2  0  0  0  0  0  0  0  0  0
  153.2729  143.2968  159.2552 C   0  0  0  0  0  0  0  0  0  0  0  0
  152.2434  142.7007  159.8585 C   0  0  0  0  0  0  0  0  0  0  0  0
  151.0600  143.6436  159.7685 C   0  0  1  0  0  0  0  0  0  0  0  0
  151.7895  144.9885  159.8720 C   0  0  0  0  0  0  0  0  0  0  0  0
  152.0718  138.5161  160.4677 H   0  0  0  0  0  0  0  0  0  0  0  0
  153.2211  137.8694  159.2995 H   0  0  0  0  0  0  0  0  0  0  0  0
  151.4990  137.5374  159.1198 H   0  0  0  0  0  0  0  0  0  0  0  0
  151.0873  140.0080  158.7272 H   0  0  0  0  0  0  0  0  0  0  0  0
  152.7954  140.3114  158.8882 H   0  0  0  0  0  0  0  0  0  0  0  0
  151.4621  139.1192  154.0907 H   0  0  0  0  0  0  0  0  0  0  0  0
  149.2546  139.1872  156.0173 H   0  0  0  0  0  0  0  0  0  0  0  0
  149.7454  140.1629  157.3794 H   0  0  0  0  0  0  0  0  0  0  0  0
  150.1589  141.1626  154.5304 H   0  0  0  0  0  0  0  0  0  0  0  0
  148.6150  141.3880  155.3294 H   0  0  0  0  0  0  0  0  0  0  0  0
  151.1862  142.5726  155.9135 H   0  0  0  0  0  0  0  0  0  0  0  0
  149.1394  142.1256  157.9646 H   0  0  0  0  0  0  0  0  0  0  0  0
  150.8074  141.5959  158.0053 H   0  0  0  0  0  0  0  0  0  0  0  0
  149.7434  144.4225  158.2378 H   0  0  0  0  0  0  0  0  0  0  0  0
  152.2570  143.7526  156.8261 H   0  0  0  0  0  0  0  0  0  0  0  0
  151.5213  145.3272  157.1122 H   0  0  0  0  0  0  0  0  0  0  0  0
  153.5733  145.3786  158.5886 H   0  0  0  0  0  0  0  0  0  0  0  0
  154.2680  142.9057  159.1028 H   0  0  0  0  0  0  0  0  0  0  0  0
  152.2172  141.7174  160.3046 H   0  0  0  0  0  0  0  0  0  0  0  0
  150.2851  143.4805  160.5181 H   0  0  0  0  0  0  0  0  0  0  0  0
  152.2674  145.1417  160.8420 H   0  0  0  0  0  0  0  0  0  0  0  0
  151.1623  145.8541  159.6487 H   0  0  0  0  0  0  0  0  0  0  0  0
  149.6969  143.2613  155.8747 H   0  0  0  0  0  0  0  0  0  0  0  0
  1  2  1  0  0  0  0
  1 19  1  0  0  0  0
  1 20  1  0  0  0  0
  1 21  1  0  0  0  0
  2  3  1  0  0  0  0
  2 22  1  0  0  0  0
  2 23  1  0  0  0  0
  3  7  1  0  0  0  0
  3  4  2  0  0  0  0
  4  5  1  0  0  0  0
  5  6  2  0  0  0  0
  6  7  1  0  0  0  0
  6 24  1  0  0  0  0
  7  8  1  0  0  0  0
  8  9  1  0  0  0  0
  8 25  1  0  0  0  0
  8 26  1  0  0  0  0
  9 10  1  0  0  0  0
  9 27  1  0  0  0  0
  9 28  1  0  0  0  0
 10 11  1  0  0  0  0
 10 29  1  0  0  0  0
 10 41  1  0  0  0  0
 11 12  1  0  0  0  0
 11 30  1  0  0  0  0
 11 31  1  0  0  0  0
 12 17  1  0  0  0  0
 12 13  1  0  0  0  0
 12 32  1  0  0  0  0
 13 14  1  0  0  0  0
 13 33  1  0  0  0  0
 13 34  1  0  0  0  0
 14 18  1  0  0  0  0
 14 15  1  0  0  0  0
 14 35  1  0  0  0  0
 15 16  2  0  0  0  0
 15 36  1  0  0  0  0
 16 17  1  0  0  0  0
 16 37  1  0  0  0  0
 17 18  1  0  0  0  0
 17 38  1  0  0  0  0
 18 39  1  0  0  0  0
 18 40  1  0  0  0  0
M  CHG  1  10   1
M  END
> <s_m_source_file>
AV-unprocessed.smi

> <i_m_source_file_index>
3226

> <i_lp_mmshare_version>
43012

> <i_f3d_flags>
0

> <s_epik_input>
W0NIM11bQ0gyXWMxbm5bY0hdbjFbQ0gyXVtDSDJdW05IXVtDSDJdW0NASF0oW0NIMl1bQ0BASF0yMylbQ0BASF0oW0NIMl0zKVtDSF09W0NIXTI=

> <s_epik_cmdline>
J2VwaWtfcHl0aG9uJywgJy1waCcsICc3LjAnLCAnLXRuJywgJzgnLCAnLW1hJywgJzIwMCcsICctbWV0YWxfYmluZGluZycsICctaW1hZScsICc8aW5maWxlLm1hZT4nLCAnLW9tYWUnLCAnPG91dGZpbGUubWFlPic=

> <r_lp_tautomer_probability>
1

> <r_epik_Ionization_Penalty>
0.00175008

> <r_epik_Ionization_Penalty_Charging>
0.00173932

> <r_epik_Ionization_Penalty_Neutral>
1.07546e-05

> <r_epik_State_Penalty>
-0

> <r_epik_Charging_Adjusted_Penalty>
0.00173932

> <i_epik_Tot_Q>
1

> <i_epik_Tot_abs_Q>
1

> <r_epik_Metal_State_Penalty>
-0

> <b_epik_Metal_Only>
0

> <s_lp_Force_Field>
OPLS_2005

> <r_lp_Energy>
64.9624

> <b_lp_Chiralities_Consistent>
1

> <s_lp_Variant>
AV-unprocessed.smi:3226-3

> <Gold.Version>
5.8.1

> <Gold.Id.Protein>
6NUR|6NUR_protein|mol2

> <Gold.PLP.Fitness>
50.1380

> <Gold.PLP.PLP>
-41.8491

> <Gold.PLP.part.hbond>
-2.7769

> <Gold.PLP.part.metal>
0.0000

> <Gold.PLP.part.buried>
-5.1619

> <Gold.PLP.part.nonpolar>
-35.0657

> <Gold.PLP.part.repulsive>
0.1099

> <Gold.PLP.ligand.clash>
0.0000

> <Gold.PLP.ligand.torsion>
0.4484

> <Gold.PLP.Chemscore.Hbond>
3.0000

> <Gold.PLP.Chemscore.CHOScore>
0.0000

> <Gold.PLP.Chemscore.Metal>
0.0000

> <Gold.Chemscore.Hbonds>
donor molecule, donor type, donor heavy atom, donor atom, acceptor molecule, acceptor atom, score
      L1  H    10    41       P1  8028  2.00
      P1  H  7997  8008       L1     4  0.95

> <Gold.PLP.Chemscore.Internal.Correction>
0.1857

> <Gold.Rescore>
     Score         DG    S(hbond)    S(metal)    S(lipo)     H(rot)  DE(clash)    DE(int)     intcor
     17.42     -17.96       1.36        0.00     112.99       2.06       0.09       0.45       ----

> <Gold.Chemscore.Fitness>
17.4219

> <Gold.Chemscore.DG>
-17.9621

> <Gold.Chemscore.ZeroCoef>
-5.4800

> <Gold.Chemscore.Hbond>
1.3599

> <Gold.Chemscore.Metal>
0.0000

> <Gold.Chemscore.Lipo>
112.9895

> <Gold.Chemscore.Internal_Hbond>
0.0000

> <Gold.Chemscore.DEClash>
0.0879

> <Gold.Chemscore.DEInternal>
0.4523

> <Gold.Chemscore.Rot>
2.0623

> <Gold.Chemscore.Internal.Correction>
   9.000000E+99

> <Gold.Chemscore.Hbonds>
donor molecule, donor type, donor heavy atom, donor atom, acceptor molecule, acceptor atom, score
      L1  H    10    41       P1  8028  1.00
      P1  H  7997  8008       L1     4  0.10

> <Gold.Chemscore.Hbond.Weighted>
-4.5420

> <Gold.Chemscore.Metal.Weighted>
-0.0000

> <Gold.Chemscore.Lipo.Weighted>
-13.2198

> <Gold.Chemscore.Internal_Hbond.Weighted>
0.0000

> <Gold.Chemscore.DEClash.Weighted>
0.0879

> <Gold.Chemscore.DEInternal.Weighted>
0.4523

> <Gold.Chemscore.Rot.Weighted>
5.2796

> <Gold.Chemscore.Internal.Correction.Weighted>
   9.000000E+99

> <Gold.Protein.RotatedTorsions>
[ 6907 6896 6895 6894 ] final  -31.51 input  -60.11 | X-H torsion
[ 7974 7965 7964 7962 ] final -167.10 input  175.53 | X-H torsion
[ 8008 7997 7996 7995 ] final  -55.67 input   59.86 | X-H torsion
[ 10167 10162 10161 10158 ] final -164.85 input  -65.29 | X-H torsion
[ 10718 10713 10712 10709 ] final   26.06 input   66.30 | X-H torsion
[ 10763 10752 10751 10750 ] final   -9.41 input  -60.55 | X-H torsion
[ 11005 11000 10999 10996 ] final   10.92 input  -57.11 | X-H torsion

> <Gold.Protein.ActiveResidues>
 VAL166  LYS551  ARG553  GLY616  TRP617  ASP618  TYR619  PRO620  LYS621  CYS622 
 ASP623  PHE694  ASN695  SER759  ASP760  ASP761  ALA762  ILE779  LEU786  VAL792 
 PHE793  MET794  SER795  GLU796  ALA797  LYS798  CYS799  TRP800  GLU811  SER814 

> <Gold.Protein.RotatedAtoms>
  151.0911  134.9917  159.8402 H   0  0  0  0  0  0  0  0  0  0  0  0  # atno 6907 bound_to 6896
  152.5429  134.2064  159.8742 H   0  0  0  0  0  0  0  0  0  0  0  0  # atno 6908 bound_to 6896
  151.2100  133.4517  159.2631 H   0  0  0  0  0  0  0  0  0  0  0  0  # atno 6909 bound_to 6896
  144.7230  140.2569  143.6270 H   0  0  0  0  0  0  0  0  0  0  0  0  # atno 7974 bound_to 7965
  154.4203  140.1147  156.5514 H   0  0  0  0  0  0  0  0  0  0  0  0  # atno 8008 bound_to 7997
  155.6406  140.3496  155.4694 H   0  0  0  0  0  0  0  0  0  0  0  0  # atno 8009 bound_to 7997
  155.9874  140.1172  157.0660 H   0  0  0  0  0  0  0  0  0  0  0  0  # atno 8010 bound_to 7997
  139.6222  144.0602  152.1943 H   0  0  0  0  0  0  0  0  0  0  0  0  # atno 10167 bound_to 10162
  157.2017  130.6893  149.6191 H   0  0  0  0  0  0  0  0  0  0  0  0  # atno 10718 bound_to 10713
  153.4543  135.7015  153.6089 H   0  0  0  0  0  0  0  0  0  0  0  0  # atno 10763 bound_to 10752
  153.4410  135.3780  155.2228 H   0  0  0  0  0  0  0  0  0  0  0  0  # atno 10764 bound_to 10752
  154.8728  135.3974  154.3960 H   0  0  0  0  0  0  0  0  0  0  0  0  # atno 10765 bound_to 10752
  140.5090  134.0670  155.7813 H   0  0  0  0  0  0  0  0  0  0  0  0  # atno 11005 bound_to 11000
  145.8174  139.2029  143.1958 LP  0  0  0  0  0  0  0  0  0  0  0  0  # atno 17320 bound_to 7965
  146.0544  140.8036  142.9766 LP  0  0  0  0  0  0  0  0  0  0  0  0  # atno 17321 bound_to 7965
  140.0246  144.6127  150.7538 LP  0  0  0  0  0  0  0  0  0  0  0  0  # atno 17342 bound_to 10162
  140.7389  143.2784  151.3671 LP  0  0  0  0  0  0  0  0  0  0  0  0  # atno 17343 bound_to 10162
  155.9700  130.4580  150.5985 LP  0  0  0  0  0  0  0  0  0  0  0  0  # atno 17370 bound_to 10713
  157.3760  131.0773  151.1517 LP  0  0  0  0  0  0  0  0  0  0  0  0  # atno 17371 bound_to 10713
  141.1395  133.9163  157.2358 LP  0  0  0  0  0  0  0  0  0  0  0  0  # atno 17394 bound_to 11000
  139.9669  135.0139  156.9411 LP  0  0  0  0  0  0  0  0  0  0  0  0  # atno 17395 bound_to 11000

$$$$
