AV-unprocessed.smi:382|AV-procd|sdf|2463|dock5
  -GOLD-   2262022403D 1   1.00000     0.00000
 Structure written by MMmdl.
 36 37  0  0  0  0  0  0  0  0  1 V2000
  146.1771  142.8428  154.4271 C   0  0  0  0  0  0  0  0  0  0  0  0
  145.5601  142.3141  155.7294 C   0  0  0  0  0  0  0  0  0  0  0  0
  146.4558  142.5141  156.9663 C   0  0  0  0  0  0  0  0  0  0  0  0
  147.8660  142.2699  156.6815 N   0  0  0  0  0  0  0  0  0  0  0  0
  148.5869  141.2472  157.1648 C   0  0  0  0  0  0  0  0  0  0  0  0
  148.1280  140.4046  157.9376 O   0  0  0  0  0  0  0  0  0  0  0  0
  150.0510  141.1813  156.7049 C   0  0  0  0  0  0  0  0  0  0  0  0
  150.9892  140.8330  157.7942 N   0  0  0  0  0  0  0  0  0  0  0  0
  151.3335  139.4714  157.9935 C   0  0  0  0  0  0  0  0  0  0  0  0
  150.8460  138.5832  157.2923 O   0  0  0  0  0  0  0  0  0  0  0  0
  152.2998  139.2170  159.0596 C   0  0  0  0  0  0  0  0  0  0  0  0
  152.6973  137.8642  159.2694 C   0  0  0  0  0  0  0  0  0  0  0  0
  153.0114  136.7673  159.4641 N   0  0  0  0  0  0  0  0  0  0  0  0
  152.7945  140.2267  159.8051 C   0  0  0  0  0  0  0  0  0  0  0  0
  152.4164  141.5387  159.6208 N   0  0  0  0  0  0  0  0  0  0  0  0
  153.0678  142.6105  160.3198 C   0  0  0  0  0  0  0  0  0  0  0  0
  153.0155  142.6382  161.8318 C   0  0  0  0  0  0  0  0  0  0  0  0
  152.2501  143.6675  161.0364 C   0  0  0  0  0  0  0  0  0  0  0  0
  151.5399  141.8830  158.5686 C   0  0  0  0  0  0  0  0  0  0  0  0
  151.2684  143.0614  158.3232 O   0  0  0  0  0  0  0  0  0  0  0  0
  145.4834  142.7227  153.5947 H   0  0  0  0  0  0  0  0  0  0  0  0
  147.0918  142.3074  154.1713 H   0  0  0  0  0  0  0  0  0  0  0  0
  146.4188  143.9030  154.5079 H   0  0  0  0  0  0  0  0  0  0  0  0
  144.6086  142.8185  155.8999 H   0  0  0  0  0  0  0  0  0  0  0  0
  145.3211  141.2564  155.6116 H   0  0  0  0  0  0  0  0  0  0  0  0
  146.3565  143.5367  157.3313 H   0  0  0  0  0  0  0  0  0  0  0  0
  146.1256  141.8654  157.7794 H   0  0  0  0  0  0  0  0  0  0  0  0
  148.3235  142.9193  156.0581 H   0  0  0  0  0  0  0  0  0  0  0  0
  150.1373  140.4640  155.8866 H   0  0  0  0  0  0  0  0  0  0  0  0
  150.3066  142.1369  156.2454 H   0  0  0  0  0  0  0  0  0  0  0  0
  153.5113  140.0003  160.5811 H   0  0  0  0  0  0  0  0  0  0  0  0
  153.9985  142.9563  159.8731 H   0  0  0  0  0  0  0  0  0  0  0  0
  152.4354  141.8696  162.3393 H   0  0  0  0  0  0  0  0  0  0  0  0
  153.9072  142.9717  162.3585 H   0  0  0  0  0  0  0  0  0  0  0  0
  152.6329  144.6858  161.0291 H   0  0  0  0  0  0  0  0  0  0  0  0
  151.1655  143.5780  161.0235 H   0  0  0  0  0  0  0  0  0  0  0  0
  1  2  1  0  0  0  0
  1 21  1  0  0  0  0
  1 22  1  0  0  0  0
  1 23  1  0  0  0  0
  2  3  1  0  0  0  0
  2 24  1  0  0  0  0
  2 25  1  0  0  0  0
  3  4  1  0  0  0  0
  3 26  1  0  0  0  0
  3 27  1  0  0  0  0
  4  5  1  0  0  0  0
  4 28  1  0  0  0  0
  5  6  2  0  0  0  0
  5  7  1  0  0  0  0
  7  8  1  0  0  0  0
  7 29  1  0  0  0  0
  7 30  1  0  0  0  0
  8 19  1  0  0  0  0
  8  9  1  0  0  0  0
  9 10  2  0  0  0  0
  9 11  1  0  0  0  0
 11 12  1  0  0  0  0
 11 14  2  0  0  0  0
 12 13  3  0  0  0  0
 14 15  1  0  0  0  0
 14 31  1  0  0  0  0
 15 16  1  0  0  0  0
 15 19  1  0  0  0  0
 16 18  1  0  0  0  0
 16 17  1  0  0  0  0
 16 32  1  0  0  0  0
 17 18  1  0  0  0  0
 17 33  1  0  0  0  0
 17 34  1  0  0  0  0
 18 35  1  0  0  0  0
 18 36  1  0  0  0  0
 19 20  2  0  0  0  0
M  END
> <s_m_source_file>
AV-unprocessed.smi

> <i_m_source_file_index>
382

> <i_lp_mmshare_version>
43012

> <i_f3d_flags>
0

> <s_epik_input>
W0NIM11bQ0gyXVtDSDJdW05IXUMoPU8pW0NIMl1uMWMoPU8pYyhDI04pW2NIXW4oYzE9TylbQ0hdMltDSDJdW0NIMl0y

> <s_epik_cmdline>
J2VwaWtfcHl0aG9uJywgJy1waCcsICc3LjAnLCAnLXRuJywgJzgnLCAnLW1hJywgJzIwMCcsICctbWV0YWxfYmluZGluZycsICctaW1hZScsICc8aW5maWxlLm1hZT4nLCAnLW9tYWUnLCAnPG91dGZpbGUubWFlPic=

> <r_lp_tautomer_probability>
1

> <r_epik_Ionization_Penalty>
1.82511e-08

> <r_epik_Ionization_Penalty_Charging>
8.22213e-11

> <r_epik_Ionization_Penalty_Neutral>
1.81689e-08

> <r_epik_State_Penalty>
-0

> <r_epik_Charging_Adjusted_Penalty>
8.22213e-11

> <i_epik_Tot_Q>
0

> <i_epik_Tot_abs_Q>
0

> <r_epik_Metal_State_Penalty>
-0

> <b_epik_Metal_Only>
0

> <s_lp_Force_Field>
OPLS_2005

> <r_lp_Energy>
29.1959

> <b_lp_Chiralities_Consistent>
1

> <s_lp_Variant>
AV-unprocessed.smi:382-1

> <Gold.Version>
5.8.1

> <Gold.Id.Protein>
6NUR|6NUR_protein|mol2

> <Gold.PLP.Fitness>
42.2034

> <Gold.PLP.PLP>
-37.7121

> <Gold.PLP.part.hbond>
-2.5903

> <Gold.PLP.part.metal>
0.0000

> <Gold.PLP.part.buried>
-6.4426

> <Gold.PLP.part.nonpolar>
-29.2638

> <Gold.PLP.part.repulsive>
0.0777

> <Gold.PLP.ligand.clash>
0.0000

> <Gold.PLP.ligand.torsion>
0.8491

> <Gold.PLP.Chemscore.Hbond>
1.9920

> <Gold.PLP.Chemscore.CHOScore>
0.0000

> <Gold.PLP.Chemscore.Metal>
0.0000

> <Gold.Chemscore.Hbonds>
donor molecule, donor type, donor heavy atom, donor atom, acceptor molecule, acceptor atom, score
      L1  H     4    28       P1  8028  0.98
      P1  H  6896  6907       L1    13  0.94

> <Gold.PLP.Chemscore.Internal.Correction>
0.2135

> <Gold.Rescore>
     Score         DG    S(hbond)    S(metal)    S(lipo)     H(rot)  DE(clash)    DE(int)     intcor
     13.57     -14.40       1.91        0.00      66.40       2.04       0.00       0.83       ----

> <Gold.Chemscore.Fitness>
13.5688

> <Gold.Chemscore.DG>
-14.4001

> <Gold.Chemscore.ZeroCoef>
-5.4800

> <Gold.Chemscore.Hbond>
1.9111

> <Gold.Chemscore.Metal>
0.0000

> <Gold.Chemscore.Lipo>
66.4029

> <Gold.Chemscore.Internal_Hbond>
0.0000

> <Gold.Chemscore.DEClash>
0.0015

> <Gold.Chemscore.DEInternal>
0.8299

> <Gold.Chemscore.Rot>
2.0438

> <Gold.Chemscore.Internal.Correction>
   9.000000E+99

> <Gold.Chemscore.Hbonds>
donor molecule, donor type, donor heavy atom, donor atom, acceptor molecule, acceptor atom, score
      L1  H     4    28       P1  8028  0.84
      P1  H  6896  6907       L1    13  0.89

> <Gold.Chemscore.Hbond.Weighted>
-6.3832

> <Gold.Chemscore.Metal.Weighted>
-0.0000

> <Gold.Chemscore.Lipo.Weighted>
-7.7691

> <Gold.Chemscore.Internal_Hbond.Weighted>
0.0000

> <Gold.Chemscore.DEClash.Weighted>
0.0015

> <Gold.Chemscore.DEInternal.Weighted>
0.8299

> <Gold.Chemscore.Rot.Weighted>
5.2322

> <Gold.Chemscore.Internal.Correction.Weighted>
   9.000000E+99

> <Gold.Protein.RotatedTorsions>
[ 6907 6896 6895 6894 ] final   27.50 input  -60.11 | X-H torsion
[ 7974 7965 7964 7962 ] final  152.15 input  175.53 | X-H torsion
[ 8008 7997 7996 7995 ] final  133.06 input   59.86 | X-H torsion
[ 10167 10162 10161 10158 ] final  118.69 input  -65.29 | X-H torsion
[ 10718 10713 10712 10709 ] final  -70.24 input   66.30 | X-H torsion
[ 10763 10752 10751 10750 ] final  -33.23 input  -60.55 | X-H torsion
[ 11005 11000 10999 10996 ] final  -60.55 input  -57.11 | X-H torsion

> <Gold.Protein.ActiveResidues>
 VAL166  LYS551  ARG553  GLY616  TRP617  ASP618  TYR619  PRO620  LYS621  CYS622 
 ASP623  PHE694  ASN695  SER759  ASP760  ASP761  ALA762  ILE779  LEU786  VAL792 
 PHE793  MET794  SER795  GLU796  ALA797  LYS798  CYS799  TRP800  GLU811  SER814 

> <Gold.Protein.RotatedAtoms>
  152.0032  134.9917  160.0565 H   0  0  0  0  0  0  0  0  0  0  0  0  # atno 6907 bound_to 6896
  152.1499  133.4511  159.4817 H   0  0  0  0  0  0  0  0  0  0  0  0  # atno 6908 bound_to 6896
  150.6874  134.2119  159.4406 H   0  0  0  0  0  0  0  0  0  0  0  0  # atno 6909 bound_to 6896
  144.8243  139.6630  143.6087 H   0  0  0  0  0  0  0  0  0  0  0  0  # atno 7974 bound_to 7965
  156.2989  140.2531  156.3191 H   0  0  0  0  0  0  0  0  0  0  0  0  # atno 8008 bound_to 7997
  154.9252  140.0399  157.2038 H   0  0  0  0  0  0  0  0  0  0  0  0  # atno 8009 bound_to 7997
  154.8272  140.2870  155.5751 H   0  0  0  0  0  0  0  0  0  0  0  0  # atno 8010 bound_to 7997
  139.6095  144.7078  151.2877 H   0  0  0  0  0  0  0  0  0  0  0  0  # atno 10167 bound_to 10162
  156.0417  130.4328  150.2267 H   0  0  0  0  0  0  0  0  0  0  0  0  # atno 10718 bound_to 10713
  153.8268  135.6869  153.4820 H   0  0  0  0  0  0  0  0  0  0  0  0  # atno 10763 bound_to 10752
  153.1535  135.4608  154.9669 H   0  0  0  0  0  0  0  0  0  0  0  0  # atno 10764 bound_to 10752
  154.7904  135.3299  154.7735 H   0  0  0  0  0  0  0  0  0  0  0  0  # atno 10765 bound_to 10752
  141.1291  133.6623  156.5240 H   0  0  0  0  0  0  0  0  0  0  0  0  # atno 11005 bound_to 11000
  146.2548  139.6278  142.9402 LP  0  0  0  0  0  0  0  0  0  0  0  0  # atno 17320 bound_to 7965
  145.5036  141.0437  143.2527 LP  0  0  0  0  0  0  0  0  0  0  0  0  # atno 17321 bound_to 7965
  140.7309  143.6867  150.7956 LP  0  0  0  0  0  0  0  0  0  0  0  0  # atno 17342 bound_to 10162
  140.0459  143.5299  152.2696 LP  0  0  0  0  0  0  0  0  0  0  0  0  # atno 17343 bound_to 10162
  157.0361  131.0021  151.3298 LP  0  0  0  0  0  0  0  0  0  0  0  0  # atno 17370 bound_to 10713
  157.5243  130.8018  149.7844 LP  0  0  0  0  0  0  0  0  0  0  0  0  # atno 17371 bound_to 10713
  140.4269  134.7137  157.4921 LP  0  0  0  0  0  0  0  0  0  0  0  0  # atno 17394 bound_to 11000
  140.0320  134.6391  155.9093 LP  0  0  0  0  0  0  0  0  0  0  0  0  # atno 17395 bound_to 11000

$$$$
