AV-unprocessed.smi:2398|AV-procd|sdf|9498|dock1
  -GOLD-   2272013123D 1   1.00000     0.00000
 Structure written by MMmdl.
 34 35  0  0  0  0  0  0  0  0  1 V2000
  150.8312  140.5149  156.3053 O   0  0  0  0  0  0  0  0  0  0  0  0
  150.3379  141.6414  156.2579 C   0  0  0  0  0  0  0  0  0  0  0  0
  150.6236  142.6563  157.0921 N   0  0  0  0  0  0  0  0  0  0  0  0
  151.5399  142.6992  158.1803 C   0  0  0  0  0  0  0  0  0  0  0  0
  152.3244  141.6022  158.6142 C   0  0  0  0  0  0  0  0  0  0  0  0
  153.2040  141.7879  159.6997 C   0  0  0  0  0  0  0  0  0  0  0  0
  153.3466  142.9615  160.3507 N   0  0  0  0  0  0  0  0  0  0  0  0
  152.6058  144.0076  159.9286 C   0  0  0  0  0  0  0  0  0  0  0  0
  151.6979  143.9296  158.8535 C   0  0  0  0  0  0  0  0  0  0  0  0
  150.9894  145.0221  158.4785 F   0  0  0  0  0  0  0  0  0  0  0  0
  149.4203  142.0059  155.3500 N   0  0  0  0  0  0  0  0  0  0  0  0
  148.8947  141.1477  154.2918 C   0  0  1  0  0  0  0  0  0  0  0  0
  148.6314  139.7366  154.8480 C   0  0  0  0  0  0  0  0  0  0  0  0
  148.0369  138.8102  153.7721 C   0  0  0  0  0  0  0  0  0  0  0  0
  146.7659  139.3991  153.1308 C   0  0  1  0  0  0  0  0  0  0  0  0
  145.7017  139.3839  154.0617 O   0  0  0  0  0  0  0  0  0  0  0  0
  146.9995  140.8333  152.6194 C   0  0  0  0  0  0  0  0  0  0  0  0
  147.6041  141.7479  153.6991 C   0  0  0  0  0  0  0  0  0  0  0  0
  149.6403  141.0616  153.4987 H   0  0  0  0  0  0  0  0  0  0  0  0
  146.4632  138.7684  152.2942 H   0  0  0  0  0  0  0  0  0  0  0  0
  150.0890  143.5017  156.9549 H   0  0  0  0  0  0  0  0  0  0  0  0
  152.2830  140.6347  158.1400 H   0  0  0  0  0  0  0  0  0  0  0  0
  153.8154  140.9698  160.0514 H   0  0  0  0  0  0  0  0  0  0  0  0
  152.7423  144.9366  160.4622 H   0  0  0  0  0  0  0  0  0  0  0  0
  149.0641  142.9498  155.3862 H   0  0  0  0  0  0  0  0  0  0  0  0
  149.5589  139.3062  155.2270 H   0  0  0  0  0  0  0  0  0  0  0  0
  147.9497  139.7934  155.6981 H   0  0  0  0  0  0  0  0  0  0  0  0
  148.7845  138.6503  152.9942 H   0  0  0  0  0  0  0  0  0  0  0  0
  147.8272  137.8277  154.1966 H   0  0  0  0  0  0  0  0  0  0  0  0
  144.8876  139.3195  153.5862 H   0  0  0  0  0  0  0  0  0  0  0  0
  147.6787  140.7996  151.7666 H   0  0  0  0  0  0  0  0  0  0  0  0
  146.0669  141.2588  152.2468 H   0  0  0  0  0  0  0  0  0  0  0  0
  146.8727  141.9067  154.4925 H   0  0  0  0  0  0  0  0  0  0  0  0
  147.8083  142.7293  153.2694 H   0  0  0  0  0  0  0  0  0  0  0  0
  1  2  2  0  0  0  0
  2  3  1  0  0  0  0
  2 11  1  0  0  0  0
  3  4  1  0  0  0  0
  3 21  1  0  0  0  0
  4  9  1  0  0  0  0
  4  5  2  0  0  0  0
  5  6  1  0  0  0  0
  5 22  1  0  0  0  0
  6  7  2  0  0  0  0
  6 23  1  0  0  0  0
  7  8  1  0  0  0  0
  8  9  2  0  0  0  0
  8 24  1  0  0  0  0
  9 10  1  0  0  0  0
 11 12  1  0  0  0  0
 11 25  1  0  0  0  0
 12 19  1  0  0  0  0
 12 18  1  0  0  0  0
 12 13  1  0  0  0  0
 13 14  1  0  0  0  0
 13 26  1  0  0  0  0
 13 27  1  0  0  0  0
 14 15  1  0  0  0  0
 14 28  1  0  0  0  0
 14 29  1  0  0  0  0
 15 20  1  0  0  0  0
 15 16  1  0  0  0  0
 15 17  1  0  0  0  0
 16 30  1  0  0  0  0
 17 18  1  0  0  0  0
 17 31  1  0  0  0  0
 17 32  1  0  0  0  0
 18 33  1  0  0  0  0
 18 34  1  0  0  0  0
M  END
> <s_m_source_file>
AV-unprocessed.smi

> <i_m_source_file_index>
2398

> <i_lp_mmshare_version>
43012

> <i_f3d_flags>
0

> <s_epik_input>
W0NIMl0xW0NIMl1bQ0BASF0oW09IXSlbQ0gyXVtDSDJdW0NAQEhdMVtOSF1DKD1PKVtOSF1jMltjSF1bY0hdbltjSF1jMkY=

> <s_epik_cmdline>
J2VwaWtfcHl0aG9uJywgJy1waCcsICc3LjAnLCAnLXRuJywgJzgnLCAnLW1hJywgJzIwMCcsICctbWV0YWxfYmluZGluZycsICctaW1hZScsICc8aW5maWxlLm1hZT4nLCAnLW9tYWUnLCAnPG91dGZpbGUubWFlPic=

> <r_epik_Ionization_Penalty>
0.00343298

> <r_epik_Ionization_Penalty_Charging>
0

> <r_epik_Ionization_Penalty_Neutral>
0.00343298

> <r_epik_State_Penalty>
0.00240232

> <r_epik_Charging_Adjusted_Penalty>
0.00240232

> <i_epik_Tot_Q>
0

> <i_epik_Tot_abs_Q>
0

> <r_epik_Metal_State_Penalty>
-0

> <b_epik_Metal_Only>
0

> <s_lp_Force_Field>
OPLS_2005

> <r_lp_Energy>
16.4629

> <b_lp_Chiralities_Consistent>
1

> <s_lp_Variant>
AV-unprocessed.smi:2398-2

> <Gold.Version>
5.8.1

> <Gold.Id.Protein>
6NUR|6NUR_protein|mol2

> <Gold.PLP.Fitness>
43.1067

> <Gold.PLP.PLP>
-35.9766

> <Gold.PLP.part.hbond>
-2.9512

> <Gold.PLP.part.metal>
0.0000

> <Gold.PLP.part.buried>
-4.6999

> <Gold.PLP.part.nonpolar>
-28.6750

> <Gold.PLP.part.repulsive>
0.2158

> <Gold.PLP.ligand.clash>
0.0000

> <Gold.PLP.ligand.torsion>
0.2248

> <Gold.PLP.Chemscore.Hbond>
2.5255

> <Gold.PLP.Chemscore.CHOScore>
0.0000

> <Gold.PLP.Chemscore.Metal>
0.0000

> <Gold.Chemscore.Hbonds>
donor molecule, donor type, donor heavy atom, donor atom, acceptor molecule, acceptor atom, score
      L1  H     3    21       P1  8028  0.73
      L1  H    11    25       P1  8028  1.00
      L1  H    16    30       P1 10175  0.80

> <Gold.PLP.Chemscore.Internal.Correction>
0.0032

> <Gold.Rescore>
     Score         DG    S(hbond)    S(metal)    S(lipo)     H(rot)  DE(clash)    DE(int)     intcor
     18.91     -22.26       2.79        0.00      95.82       1.47       0.42       2.93       ----

> <Gold.Chemscore.Fitness>
18.9098

> <Gold.Chemscore.DG>
-22.2617

> <Gold.Chemscore.ZeroCoef>
-5.4800

> <Gold.Chemscore.Hbond>
2.7910

> <Gold.Chemscore.Metal>
0.0000

> <Gold.Chemscore.Lipo>
95.8198

> <Gold.Chemscore.Internal_Hbond>
0.0000

> <Gold.Chemscore.DEClash>
0.4195

> <Gold.Chemscore.DEInternal>
2.9325

> <Gold.Chemscore.Rot>
1.4653

> <Gold.Chemscore.Internal.Correction>
   9.000000E+99

> <Gold.Chemscore.Hbonds>
donor molecule, donor type, donor heavy atom, donor atom, acceptor molecule, acceptor atom, score
      L1  H     3    21       P1  8028  0.69
      L1  H    11    25       P1  8028  1.00
      L1  H    16    30       P1 10175  0.76

> <Gold.Chemscore.Hbond.Weighted>
-9.3219

> <Gold.Chemscore.Metal.Weighted>
-0.0000

> <Gold.Chemscore.Lipo.Weighted>
-11.2109

> <Gold.Chemscore.Internal_Hbond.Weighted>
0.0000

> <Gold.Chemscore.DEClash.Weighted>
0.4195

> <Gold.Chemscore.DEInternal.Weighted>
2.9325

> <Gold.Chemscore.Rot.Weighted>
3.7511

> <Gold.Chemscore.Internal.Correction.Weighted>
   9.000000E+99

> <Gold.Protein.RotatedTorsions>
[ 6907 6896 6895 6894 ] final -159.27 input  -60.11 | X-H torsion
[ 7974 7965 7964 7962 ] final  -68.89 input  175.53 | X-H torsion
[ 8008 7997 7996 7995 ] final  -95.83 input   59.86 | X-H torsion
[ 10167 10162 10161 10158 ] final -160.49 input  -65.29 | X-H torsion
[ 10718 10713 10712 10709 ] final  -89.62 input   66.30 | X-H torsion
[ 10763 10752 10751 10750 ] final  157.38 input  -60.55 | X-H torsion
[ 11005 11000 10999 10996 ] final   92.59 input  -57.11 | X-H torsion

> <Gold.Protein.ActiveResidues>
 VAL166  LYS551  ARG553  GLY616  TRP617  ASP618  TYR619  PRO620  LYS621  CYS622 
 ASP623  PHE694  ASN695  SER759  ASP760  ASP761  ALA762  ILE779  LEU786  VAL792 
 PHE793  MET794  SER795  GLU796  ALA797  LYS798  CYS799  TRP800  GLU811  SER814 

> <Gold.Protein.RotatedAtoms>
  151.3310  133.4000  159.2662 H   0  0  0  0  0  0  0  0  0  0  0  0  # atno 6907 bound_to 6896
  150.9956  134.9281  159.7935 H   0  0  0  0  0  0  0  0  0  0  0  0  # atno 6908 bound_to 6896
  152.5260  134.3275  159.9223 H   0  0  0  0  0  0  0  0  0  0  0  0  # atno 6909 bound_to 6896
  145.7108  140.9079  143.0682 H   0  0  0  0  0  0  0  0  0  0  0  0  # atno 7974 bound_to 7965
  154.7665  140.0476  157.1017 H   0  0  0  0  0  0  0  0  0  0  0  0  # atno 8008 bound_to 7997
  154.9873  140.3109  155.4901 H   0  0  0  0  0  0  0  0  0  0  0  0  # atno 8009 bound_to 7997
  156.2914  140.2225  156.4975 H   0  0  0  0  0  0  0  0  0  0  0  0  # atno 8010 bound_to 7997
  139.6536  144.0040  152.2178 H   0  0  0  0  0  0  0  0  0  0  0  0  # atno 10167 bound_to 10162
  155.9985  130.4879  150.5199 H   0  0  0  0  0  0  0  0  0  0  0  0  # atno 10718 bound_to 10713
  154.1993  135.2791  155.2996 H   0  0  0  0  0  0  0  0  0  0  0  0  # atno 10763 bound_to 10752
  154.5867  135.5572  153.7241 H   0  0  0  0  0  0  0  0  0  0  0  0  # atno 10764 bound_to 10752
  153.0092  135.6358  154.2131 H   0  0  0  0  0  0  0  0  0  0  0  0  # atno 10765 bound_to 10752
  139.8821  134.8742  156.3595 H   0  0  0  0  0  0  0  0  0  0  0  0  # atno 11005 bound_to 11000
  144.6942  139.9071  143.7461 LP  0  0  0  0  0  0  0  0  0  0  0  0  # atno 17320 bound_to 7965
  146.0714  139.3703  143.0520 LP  0  0  0  0  0  0  0  0  0  0  0  0  # atno 17321 bound_to 7965
  139.9760  144.6461  150.7944 LP  0  0  0  0  0  0  0  0  0  0  0  0  # atno 17342 bound_to 10162
  140.7549  143.3035  151.3020 LP  0  0  0  0  0  0  0  0  0  0  0  0  # atno 17343 bound_to 10162
  157.3161  131.0673  151.1965 LP  0  0  0  0  0  0  0  0  0  0  0  0  # atno 17370 bound_to 10713
  157.2895  130.6789  149.6106 LP  0  0  0  0  0  0  0  0  0  0  0  0  # atno 17371 bound_to 10713
  140.9539  133.7433  156.0309 LP  0  0  0  0  0  0  0  0  0  0  0  0  # atno 17394 bound_to 11000
  140.8072  134.3441  157.5422 LP  0  0  0  0  0  0  0  0  0  0  0  0  # atno 17395 bound_to 11000

$$$$
