AV-unprocessed.smi:2452|AV-procd|sdf|9686|dock5
  -GOLD-   2272013323D 1   1.00000     0.00000
 Structure written by MMmdl.
 34 35  0  0  0  0  0  0  0  0  1 V2000
  150.0166  139.4520  155.2881 C   0  0  0  0  0  0  0  0  0  0  0  0
  150.9232  138.4190  155.8931 C   0  0  0  0  0  0  0  0  0  0  0  0
  151.1424  137.2784  155.2597 N   0  0  0  0  0  0  0  0  0  0  0  0
  152.0074  136.5345  156.0768 O   0  0  0  0  0  0  0  0  0  0  0  0
  152.2958  137.2523  157.1965 C   0  0  0  0  0  0  0  0  0  0  0  0
  153.1651  136.5759  158.2047 C   0  0  0  0  0  0  0  0  0  0  0  0
  151.6536  138.4590  157.1097 C   0  0  0  0  0  0  0  0  0  0  0  0
  151.6174  139.5343  158.0342 N   0  0  0  0  0  0  0  0  0  0  0  0
  152.6197  139.9754  158.8099 C   0  0  0  0  0  0  0  0  0  0  0  0
  153.7642  139.5230  158.8109 O   0  0  0  0  0  0  0  0  0  0  0  0
  152.2261  140.9989  159.5798 N   0  0  0  0  0  0  0  0  0  0  0  0
  153.0752  141.7019  160.5348 C   0  0  0  0  0  0  0  0  0  0  0  0
  152.9588  143.2274  160.3799 C   0  0  1  0  0  0  0  0  0  0  0  0
  152.9587  143.7035  158.9286 C   0  0  0  0  0  0  0  0  0  0  0  0
  152.1981  145.0205  158.9834 C   0  0  0  0  0  0  0  0  0  0  0  0
  151.5338  145.0137  160.3633 C   0  0  0  0  0  0  0  0  0  0  0  0
  151.7015  143.6891  160.8478 O   0  0  0  0  0  0  0  0  0  0  0  0
  149.6129  140.1193  156.0497 H   0  0  0  0  0  0  0  0  0  0  0  0
  149.1723  138.9885  154.7767 H   0  0  0  0  0  0  0  0  0  0  0  0
  150.5525  140.0631  154.5617 H   0  0  0  0  0  0  0  0  0  0  0  0
  152.8562  136.8289  159.2189 H   0  0  0  0  0  0  0  0  0  0  0  0
  154.2064  136.8720  158.0787 H   0  0  0  0  0  0  0  0  0  0  0  0
  153.1104  135.4920  158.1019 H   0  0  0  0  0  0  0  0  0  0  0  0
  150.7637  140.0726  158.0504 H   0  0  0  0  0  0  0  0  0  0  0  0
  151.2674  141.3072  159.5120 H   0  0  0  0  0  0  0  0  0  0  0  0
  152.8115  141.4047  161.5511 H   0  0  0  0  0  0  0  0  0  0  0  0
  154.1066  141.3851  160.3771 H   0  0  0  0  0  0  0  0  0  0  0  0
  153.7533  143.7353  160.9305 H   0  0  0  0  0  0  0  0  0  0  0  0
  153.9654  143.8101  158.5234 H   0  0  0  0  0  0  0  0  0  0  0  0
  152.4162  142.9970  158.2986 H   0  0  0  0  0  0  0  0  0  0  0  0
  152.8669  145.8761  158.8818 H   0  0  0  0  0  0  0  0  0  0  0  0
  151.4601  145.0741  158.1823 H   0  0  0  0  0  0  0  0  0  0  0  0
  152.0405  145.7074  161.0360 H   0  0  0  0  0  0  0  0  0  0  0  0
  150.4793  145.2883  160.3234 H   0  0  0  0  0  0  0  0  0  0  0  0
  1  2  1  0  0  0  0
  1 18  1  0  0  0  0
  1 19  1  0  0  0  0
  1 20  1  0  0  0  0
  2  7  1  0  0  0  0
  2  3  2  0  0  0  0
  3  4  1  0  0  0  0
  4  5  1  0  0  0  0
  5  6  1  0  0  0  0
  5  7  2  0  0  0  0
  6 21  1  0  0  0  0
  6 22  1  0  0  0  0
  6 23  1  0  0  0  0
  7  8  1  0  0  0  0
  8  9  1  0  0  0  0
  8 24  1  0  0  0  0
  9 10  2  0  0  0  0
  9 11  1  0  0  0  0
 11 12  1  0  0  0  0
 11 25  1  0  0  0  0
 12 13  1  0  0  0  0
 12 26  1  0  0  0  0
 12 27  1  0  0  0  0
 13 17  1  0  0  0  0
 13 14  1  0  0  0  0
 13 28  1  0  0  0  0
 14 15  1  0  0  0  0
 14 29  1  0  0  0  0
 14 30  1  0  0  0  0
 15 16  1  0  0  0  0
 15 31  1  0  0  0  0
 15 32  1  0  0  0  0
 16 17  1  0  0  0  0
 16 33  1  0  0  0  0
 16 34  1  0  0  0  0
M  END
> <s_m_source_file>
AV-unprocessed.smi

> <i_m_source_file_index>
2452

> <i_lp_mmshare_version>
43012

> <i_f3d_flags>
0

> <s_epik_input>
W0NIM11jMW5vYyhbQ0gzXSljMVtOSF1DKD1PKVtOSF1bQ0gyXVtDQEBIXTJbQ0gyXVtDSDJdW0NIMl1PMg==

> <s_epik_cmdline>
J2VwaWtfcHl0aG9uJywgJy1waCcsICc3LjAnLCAnLXRuJywgJzgnLCAnLW1hJywgJzIwMCcsICctbWV0YWxfYmluZGluZycsICctaW1hZScsICc8aW5maWxlLm1hZT4nLCAnLW9tYWUnLCAnPG91dGZpbGUubWFlPic=

> <r_lp_tautomer_probability>
1

> <r_epik_Ionization_Penalty>
3.28451e-05

> <r_epik_Ionization_Penalty_Charging>
0

> <r_epik_Ionization_Penalty_Neutral>
3.28451e-05

> <r_epik_State_Penalty>
-0

> <r_epik_Charging_Adjusted_Penalty>
0

> <i_epik_Tot_Q>
0

> <i_epik_Tot_abs_Q>
0

> <r_epik_Metal_State_Penalty>
-0

> <b_epik_Metal_Only>
0

> <s_lp_Force_Field>
OPLS_2005

> <r_lp_Energy>
18.1661

> <b_lp_Chiralities_Consistent>
1

> <s_lp_Variant>
AV-unprocessed.smi:2452-2

> <Gold.Version>
5.8.1

> <Gold.Id.Protein>
6NUR|6NUR_protein|mol2

> <Gold.PLP.Fitness>
39.2538

> <Gold.PLP.PLP>
-33.9567

> <Gold.PLP.part.hbond>
-2.1318

> <Gold.PLP.part.metal>
0.0000

> <Gold.PLP.part.buried>
-5.0820

> <Gold.PLP.part.nonpolar>
-27.3022

> <Gold.PLP.part.repulsive>
0.5533

> <Gold.PLP.ligand.clash>
0.0000

> <Gold.PLP.ligand.torsion>
0.4229

> <Gold.PLP.Chemscore.Hbond>
2.0000

> <Gold.PLP.Chemscore.CHOScore>
0.0000

> <Gold.PLP.Chemscore.Metal>
0.0000

> <Gold.Chemscore.Hbonds>
donor molecule, donor type, donor heavy atom, donor atom, acceptor molecule, acceptor atom, score
      P1  H  7997  8010       L1    10  0.99
      P1  H 10752 10764       L1     4  0.91

> <Gold.PLP.Chemscore.Internal.Correction>
0.1429

> <Gold.Rescore>
     Score         DG    S(hbond)    S(metal)    S(lipo)     H(rot)  DE(clash)    DE(int)     intcor
     18.82     -19.21       1.92        0.00      89.69       1.23       0.03       0.36       ----

> <Gold.Chemscore.Fitness>
18.8247

> <Gold.Chemscore.DG>
-19.2146

> <Gold.Chemscore.ZeroCoef>
-5.4800

> <Gold.Chemscore.Hbond>
1.9159

> <Gold.Chemscore.Metal>
0.0000

> <Gold.Chemscore.Lipo>
89.6902

> <Gold.Chemscore.Internal_Hbond>
0.0000

> <Gold.Chemscore.DEClash>
0.0308

> <Gold.Chemscore.DEInternal>
0.3591

> <Gold.Chemscore.Rot>
1.2337

> <Gold.Chemscore.Internal.Correction>
   9.000000E+99

> <Gold.Chemscore.Hbonds>
donor molecule, donor type, donor heavy atom, donor atom, acceptor molecule, acceptor atom, score
      P1  H  7997  8010       L1    10  0.54
      P1  H 10752 10764       L1     4  0.20

> <Gold.Chemscore.Hbond.Weighted>
-6.3990

> <Gold.Chemscore.Metal.Weighted>
-0.0000

> <Gold.Chemscore.Lipo.Weighted>
-10.4938

> <Gold.Chemscore.Internal_Hbond.Weighted>
0.0000

> <Gold.Chemscore.DEClash.Weighted>
0.0308

> <Gold.Chemscore.DEInternal.Weighted>
0.3591

> <Gold.Chemscore.Rot.Weighted>
3.1582

> <Gold.Chemscore.Internal.Correction.Weighted>
   9.000000E+99

> <Gold.Protein.RotatedTorsions>
[ 6907 6896 6895 6894 ] final -101.46 input  -60.11 | X-H torsion
[ 7974 7965 7964 7962 ] final  155.56 input  175.53 | X-H torsion
[ 8008 7997 7996 7995 ] final   36.10 input   59.86 | X-H torsion
[ 10167 10162 10161 10158 ] final  156.04 input  -65.29 | X-H torsion
[ 10718 10713 10712 10709 ] final   77.48 input   66.30 | X-H torsion
[ 10763 10752 10751 10750 ] final  -53.63 input  -60.55 | X-H torsion
[ 11005 11000 10999 10996 ] final  -13.44 input  -57.11 | X-H torsion

> <Gold.Protein.ActiveResidues>
 VAL166  LYS551  ARG553  GLY616  TRP617  ASP618  TYR619  PRO620  LYS621  CYS622 
 ASP623  PHE694  ASN695  SER759  ASP760  ASP761  ALA762  ILE779  LEU786  VAL792 
 PHE793  MET794  SER795  GLU796  ALA797  LYS798  CYS799  TRP800  GLU811  SER814 

> <Gold.Protein.RotatedAtoms>
  150.7155  134.0731  159.3871 H   0  0  0  0  0  0  0  0  0  0  0  0  # atno 6907 bound_to 6896
  151.8713  135.0486  160.0489 H   0  0  0  0  0  0  0  0  0  0  0  0  # atno 6908 bound_to 6896
  152.2640  133.5287  159.5435 H   0  0  0  0  0  0  0  0  0  0  0  0  # atno 6909 bound_to 6896
  144.8017  139.7084  143.6179 H   0  0  0  0  0  0  0  0  0  0  0  0  # atno 7974 bound_to 7965
  155.1819  140.3300  155.4373 H   0  0  0  0  0  0  0  0  0  0  0  0  # atno 8008 bound_to 7997
  156.2473  140.1925  156.6867 H   0  0  0  0  0  0  0  0  0  0  0  0  # atno 8009 bound_to 7997
  154.6265  140.0588  156.9666 H   0  0  0  0  0  0  0  0  0  0  0  0  # atno 8010 bound_to 7997
  139.4821  144.5044  151.8120 H   0  0  0  0  0  0  0  0  0  0  0  0  # atno 10167 bound_to 10162
  157.6712  130.9824  150.1648 H   0  0  0  0  0  0  0  0  0  0  0  0  # atno 10718 bound_to 10713
  154.1619  135.6473  153.4988 H   0  0  0  0  0  0  0  0  0  0  0  0  # atno 10763 bound_to 10752
  153.0108  135.5363  154.6702 H   0  0  0  0  0  0  0  0  0  0  0  0  # atno 10764 bound_to 10752
  154.6018  135.2944  155.0499 H   0  0  0  0  0  0  0  0  0  0  0  0  # atno 10765 bound_to 10752
  140.7761  133.8400  155.9250 H   0  0  0  0  0  0  0  0  0  0  0  0  # atno 11005 bound_to 11000
  146.2300  139.5795  142.9561 LP  0  0  0  0  0  0  0  0  0  0  0  0  # atno 17320 bound_to 7965
  145.5536  141.0411  143.2264 LP  0  0  0  0  0  0  0  0  0  0  0  0  # atno 17321 bound_to 7965
  140.4541  144.1814  150.5900 LP  0  0  0  0  0  0  0  0  0  0  0  0  # atno 17342 bound_to 10162
  140.4554  143.2470  151.9291 LP  0  0  0  0  0  0  0  0  0  0  0  0  # atno 17343 bound_to 10162
  156.2416  130.3691  149.8331 LP  0  0  0  0  0  0  0  0  0  0  0  0  # atno 17370 bound_to 10713
  156.6129  130.8594  151.3458 LP  0  0  0  0  0  0  0  0  0  0  0  0  # atno 17371 bound_to 10713
  140.9527  134.1757  157.4715 LP  0  0  0  0  0  0  0  0  0  0  0  0  # atno 17394 bound_to 11000
  139.8749  134.9915  156.5554 LP  0  0  0  0  0  0  0  0  0  0  0  0  # atno 17395 bound_to 11000

$$$$
