AV-unprocessed.smi:3184|AV-procd|sdf|12163|dock2
  -GOLD-   2272017593D 1   1.00000     0.00000
 Structure written by MMmdl.
 34 35  0  0  0  0  0  0  0  0  1 V2000
  151.7497  139.3853  155.6378 C   0  0  0  0  0  0  0  0  0  0  0  0
  150.5439  140.3237  155.7895 C   0  0  2  0  0  0  0  0  0  0  0  0
  150.0100  140.7909  154.4225 C   0  0  0  0  0  0  0  0  0  0  0  0
  148.6211  141.2068  154.4914 N   0  0  0  0  0  0  0  0  0  0  0  0
  147.5900  140.8273  153.6423 C   0  0  0  0  0  0  0  0  0  0  0  0
  146.4543  141.4583  154.0972 C   0  0  0  0  0  0  0  0  0  0  0  0
  146.7618  142.2280  155.2169 N   0  0  0  0  0  0  0  0  0  0  0  0
  148.0623  142.0305  155.3888 C   0  0  0  0  0  0  0  0  0  0  0  0
  150.9181  141.4815  156.5983 N   0  0  0  0  0  0  0  0  0  0  0  0
  151.5929  141.4450  157.7599 C   0  0  0  0  0  0  0  0  0  0  0  0
  152.0236  140.4021  158.2536 O   0  0  0  0  0  0  0  0  0  0  0  0
  151.7624  142.6560  158.3333 N   0  0  0  0  0  0  0  0  0  0  0  0
  151.5952  143.9603  157.6843 C   0  0  0  0  0  0  0  0  0  0  0  0
  151.6617  144.9958  158.8072 C   0  0  0  0  0  0  0  0  0  0  0  0
  152.4686  144.3098  159.9003 C   0  0  0  0  0  0  0  0  0  0  0  0
  152.1323  142.8276  159.7368 C   0  0  0  0  0  0  0  0  0  0  0  0
  151.4899  138.5057  155.0482 H   0  0  0  0  0  0  0  0  0  0  0  0
  152.1009  139.0362  156.6095 H   0  0  0  0  0  0  0  0  0  0  0  0
  152.5826  139.8848  155.1415 H   0  0  0  0  0  0  0  0  0  0  0  0
  149.7468  139.7693  156.2886 H   0  0  0  0  0  0  0  0  0  0  0  0
  150.6082  141.6175  154.0360 H   0  0  0  0  0  0  0  0  0  0  0  0
  150.0832  139.9833  153.6930 H   0  0  0  0  0  0  0  0  0  0  0  0
  147.7446  140.1554  152.8109 H   0  0  0  0  0  0  0  0  0  0  0  0
  145.4474  141.4173  153.7087 H   0  0  0  0  0  0  0  0  0  0  0  0
  148.6207  142.4908  156.1909 H   0  0  0  0  0  0  0  0  0  0  0  0
  150.6137  142.3844  156.2648 H   0  0  0  0  0  0  0  0  0  0  0  0
  152.4110  144.1125  156.9763 H   0  0  0  0  0  0  0  0  0  0  0  0
  150.6518  144.0345  157.1406 H   0  0  0  0  0  0  0  0  0  0  0  0
  152.1014  145.9404  158.4855 H   0  0  0  0  0  0  0  0  0  0  0  0
  150.6553  145.2032  159.1734 H   0  0  0  0  0  0  0  0  0  0  0  0
  153.5332  144.4651  159.7193 H   0  0  0  0  0  0  0  0  0  0  0  0
  152.2408  144.6884  160.8971 H   0  0  0  0  0  0  0  0  0  0  0  0
  151.2806  142.5570  160.3627 H   0  0  0  0  0  0  0  0  0  0  0  0
  152.9756  142.1960  160.0205 H   0  0  0  0  0  0  0  0  0  0  0  0
  1  2  1  0  0  0  0
  1 17  1  0  0  0  0
  1 18  1  0  0  0  0
  1 19  1  0  0  0  0
  2  3  1  0  0  0  0
  2  9  1  0  0  0  0
  2 20  1  0  0  0  0
  3  4  1  0  0  0  0
  3 21  1  0  0  0  0
  3 22  1  0  0  0  0
  4  8  1  0  0  0  0
  4  5  1  0  0  0  0
  5  6  2  0  0  0  0
  5 23  1  0  0  0  0
  6  7  1  0  0  0  0
  6 24  1  0  0  0  0
  7  8  2  0  0  0  0
  8 25  1  0  0  0  0
  9 10  1  0  0  0  0
  9 26  1  0  0  0  0
 10 11  2  0  0  0  0
 10 12  1  0  0  0  0
 12 16  1  0  0  0  0
 12 13  1  0  0  0  0
 13 14  1  0  0  0  0
 13 27  1  0  0  0  0
 13 28  1  0  0  0  0
 14 15  1  0  0  0  0
 14 29  1  0  0  0  0
 14 30  1  0  0  0  0
 15 16  1  0  0  0  0
 15 31  1  0  0  0  0
 15 32  1  0  0  0  0
 16 33  1  0  0  0  0
 16 34  1  0  0  0  0
M  END
> <s_m_source_file>
AV-unprocessed.smi

> <i_m_source_file_index>
3184

> <i_lp_mmshare_version>
43012

> <i_f3d_flags>
0

> <s_epik_input>
W2NIXTFuW2NIXVtjSF1uMVtDSDJdW0NAQEhdKFtDSDNdKVtOSF1DKD1PKU4yW0NIMl1bQ0gyXVtDSDJdW0NIMl0y

> <s_epik_cmdline>
J2VwaWtfcHl0aG9uJywgJy1waCcsICc3LjAnLCAnLXRuJywgJzgnLCAnLW1hJywgJzIwMCcsICctbWV0YWxfYmluZGluZycsICctaW1hZScsICc8aW5maWxlLm1hZT4nLCAnLW9tYWUnLCAnPG91dGZpbGUubWFlPic=

> <r_lp_tautomer_probability>
1

> <r_epik_Ionization_Penalty>
0.625774

> <r_epik_Ionization_Penalty_Charging>
0.625709

> <r_epik_Ionization_Penalty_Neutral>
6.46152e-05

> <r_epik_State_Penalty>
0.642123

> <r_epik_Charging_Adjusted_Penalty>
1.26783

> <i_epik_Tot_Q>
0

> <i_epik_Tot_abs_Q>
0

> <r_epik_Metal_State_Penalty>
0.307922

> <b_epik_Metal_Only>
0

> <s_lp_Force_Field>
OPLS_2005

> <r_lp_Energy>
35.6501

> <b_lp_Chiralities_Consistent>
1

> <s_lp_Variant>
AV-unprocessed.smi:3184-3

> <Gold.Version>
5.8.1

> <Gold.Id.Protein>
6NUR|6NUR_protein|mol2

> <Gold.PLP.Fitness>
40.2285

> <Gold.PLP.PLP>
-33.7823

> <Gold.PLP.part.hbond>
0.0000

> <Gold.PLP.part.metal>
0.0000

> <Gold.PLP.part.buried>
0.7801

> <Gold.PLP.part.nonpolar>
-35.3002

> <Gold.PLP.part.repulsive>
0.2366

> <Gold.PLP.ligand.clash>
0.0000

> <Gold.PLP.ligand.torsion>
0.6005

> <Gold.PLP.Chemscore.Hbond>
0.0000

> <Gold.PLP.Chemscore.CHOScore>
2.5389

> <Gold.PLP.Chemscore.Metal>
0.0000

> <Gold.Chemscore.Hbonds>
donor molecule, donor type, donor heavy atom, donor atom, acceptor molecule, acceptor atom, score
      L1  C     5    23       P1  7957  1.00
      L1  C     6    24       P1 10175  1.00
      L1  C     8    25       P1  8028  0.54

> <Gold.PLP.Chemscore.Internal.Correction>
0.0304

> <Gold.Rescore>
     Score         DG    S(hbond)    S(metal)    S(lipo)     H(rot)  DE(clash)    DE(int)     intcor
      8.89     -10.75       0.00        0.00      80.10       1.60       0.14       1.72       ----

> <Gold.Chemscore.Fitness>
8.8901

> <Gold.Chemscore.DG>
-10.7538

> <Gold.Chemscore.ZeroCoef>
-5.4800

> <Gold.Chemscore.Hbond>
0.0000

> <Gold.Chemscore.Metal>
0.0000

> <Gold.Chemscore.Lipo>
80.1034

> <Gold.Chemscore.Internal_Hbond>
0.0000

> <Gold.Chemscore.DEClash>
0.1407

> <Gold.Chemscore.DEInternal>
1.7229

> <Gold.Chemscore.Rot>
1.6009

> <Gold.Chemscore.Internal.Correction>
   9.000000E+99

> <Gold.Chemscore.Hbond.Weighted>
-0.0000

> <Gold.Chemscore.Metal.Weighted>
-0.0000

> <Gold.Chemscore.Lipo.Weighted>
-9.3721

> <Gold.Chemscore.Internal_Hbond.Weighted>
0.0000

> <Gold.Chemscore.DEClash.Weighted>
0.1407

> <Gold.Chemscore.DEInternal.Weighted>
1.7229

> <Gold.Chemscore.Rot.Weighted>
4.0983

> <Gold.Chemscore.Internal.Correction.Weighted>
   9.000000E+99

> <Gold.Protein.RotatedTorsions>
[ 6907 6896 6895 6894 ] final  172.96 input  -60.11 | X-H torsion
[ 7974 7965 7964 7962 ] final -132.35 input  175.53 | X-H torsion
[ 8008 7997 7996 7995 ] final -154.23 input   59.86 | X-H torsion
[ 10167 10162 10161 10158 ] final  -47.48 input  -65.29 | X-H torsion
[ 10718 10713 10712 10709 ] final  152.82 input   66.30 | X-H torsion
[ 10763 10752 10751 10750 ] final  177.31 input  -60.55 | X-H torsion
[ 11005 11000 10999 10996 ] final  -11.31 input  -57.11 | X-H torsion

> <Gold.Protein.ActiveResidues>
 VAL166  LYS551  ARG553  GLY616  TRP617  ASP618  TYR619  PRO620  LYS621  CYS622 
 ASP623  PHE694  ASN695  SER759  ASP760  ASP761  ALA762  ILE779  LEU786  VAL792 
 PHE793  MET794  SER795  GLU796  ALA797  LYS798  CYS799  TRP800  GLU811  SER814 

> <Gold.Protein.RotatedAtoms>
  151.7759  133.3345  159.3457 H   0  0  0  0  0  0  0  0  0  0  0  0  # atno 6907 bound_to 6896
  150.7444  134.5975  159.6029 H   0  0  0  0  0  0  0  0  0  0  0  0  # atno 6908 bound_to 6896
  152.3309  134.7262  160.0341 H   0  0  0  0  0  0  0  0  0  0  0  0  # atno 6909 bound_to 6896
  144.9294  140.7110  143.4915 H   0  0  0  0  0  0  0  0  0  0  0  0  # atno 7974 bound_to 7965
  155.6832  140.0746  157.2477 H   0  0  0  0  0  0  0  0  0  0  0  0  # atno 8008 bound_to 7997
  154.4102  140.1678  156.2057 H   0  0  0  0  0  0  0  0  0  0  0  0  # atno 8009 bound_to 7997
  155.9517  140.3377  155.6416 H   0  0  0  0  0  0  0  0  0  0  0  0  # atno 8010 bound_to 7997
  140.6773  143.2783  151.3932 H   0  0  0  0  0  0  0  0  0  0  0  0  # atno 10167 bound_to 10162
  157.2528  131.0782  151.1718 H   0  0  0  0  0  0  0  0  0  0  0  0  # atno 10718 bound_to 10713
  154.4928  135.2780  155.1483 H   0  0  0  0  0  0  0  0  0  0  0  0  # atno 10763 bound_to 10752
  154.3148  135.6222  153.5485 H   0  0  0  0  0  0  0  0  0  0  0  0  # atno 10764 bound_to 10752
  152.9890  135.5728  154.5353 H   0  0  0  0  0  0  0  0  0  0  0  0  # atno 10765 bound_to 10752
  140.7540  133.8569  155.9068 H   0  0  0  0  0  0  0  0  0  0  0  0  # atno 11005 bound_to 11000
  145.3167  139.1801  143.4610 LP  0  0  0  0  0  0  0  0  0  0  0  0  # atno 17320 bound_to 7965
  146.3240  140.3178  142.8631 LP  0  0  0  0  0  0  0  0  0  0  0  0  # atno 17321 bound_to 7965
  139.6073  144.1170  152.2263 LP  0  0  0  0  0  0  0  0  0  0  0  0  # atno 17342 bound_to 10162
  140.0573  144.5885  150.7290 LP  0  0  0  0  0  0  0  0  0  0  0  0  # atno 17343 bound_to 10162
  157.3259  130.6961  149.6296 LP  0  0  0  0  0  0  0  0  0  0  0  0  # atno 17370 bound_to 10713
  155.9666  130.4321  150.4951 LP  0  0  0  0  0  0  0  0  0  0  0  0  # atno 17371 bound_to 10713
  140.9725  134.1512  157.4564 LP  0  0  0  0  0  0  0  0  0  0  0  0  # atno 17394 bound_to 11000
  139.8782  134.9983  156.5894 LP  0  0  0  0  0  0  0  0  0  0  0  0  # atno 17395 bound_to 11000

$$$$
