AV-unprocessed.smi:1627|AV-procd|sdf|6519|dock6
  -GOLD-   22720 7193D 1   1.00000     0.00000
 Structure written by MMmdl.
 44 45  0  0  0  0  0  0  0  0  2 V2000
  156.7267  135.4579  162.4885 C   0  0  0  0  0  0  0  0  0  0  0  0
  155.4137  134.9945  161.8404 C   0  0  1  0  0  0  0  0  0  0  0  0
  154.6028  134.4373  162.8711 O   0  0  0  0  0  0  0  0  0  0  0  0
  155.2368  133.4578  163.6870 C   0  0  0  0  0  0  0  0  0  0  0  0
  154.1995  132.8313  164.6266 C   0  0  0  0  0  0  0  0  0  0  0  0
  153.6062  133.7949  165.3301 F   0  0  0  0  0  0  0  0  0  0  0  0
  153.2719  132.1819  163.9237 F   0  0  0  0  0  0  0  0  0  0  0  0
  154.7941  131.9891  165.4710 F   0  0  0  0  0  0  0  0  0  0  0  0
  154.6835  136.1664  161.1645 C   0  0  0  0  0  0  0  0  0  0  0  0
  153.9505  135.9510  160.1997 O   0  0  0  0  0  0  0  0  0  0  0  0
  154.9372  137.3875  161.6712 N   0  0  0  0  0  0  0  0  0  0  0  0
  154.4137  138.6425  161.2581 C   0  0  0  0  0  0  0  0  0  0  0  0
  153.3102  138.7921  160.3831 C   0  0  0  0  0  0  0  0  0  0  0  0
  152.8580  140.0851  160.0488 C   0  0  0  0  0  0  0  0  0  0  0  0
  153.4989  141.2230  160.5946 C   0  0  0  0  0  0  0  0  0  0  0  0
  153.0875  142.5397  160.2927 N   0  0  0  0  0  0  0  0  0  0  0  0
  152.7675  142.8001  158.8872 C   0  0  0  0  0  0  0  0  0  0  0  0
  152.7454  144.3097  158.5914 C   0  0  0  0  0  0  0  0  0  0  0  0
  151.8087  145.0493  159.5575 C   0  0  0  0  0  0  0  0  0  0  0  0
  152.2066  144.7446  161.0085 C   0  0  0  0  0  0  0  0  0  0  0  0
  152.2377  143.2286  161.2680 C   0  0  0  0  0  0  0  0  0  0  0  0
  154.5446  141.0257  161.4352 N   0  3  0  0  0  0  0  0  0  0  0  0
  155.0095  139.8066  161.7835 C   0  0  0  0  0  0  0  0  0  0  0  0
  157.3947  135.9091  161.7539 H   0  0  0  0  0  0  0  0  0  0  0  0
  157.2532  134.6156  162.9375 H   0  0  0  0  0  0  0  0  0  0  0  0
  156.5495  136.1912  163.2762 H   0  0  0  0  0  0  0  0  0  0  0  0
  155.6485  134.2235  161.1039 H   0  0  0  0  0  0  0  0  0  0  0  0
  155.6937  132.6763  163.0789 H   0  0  0  0  0  0  0  0  0  0  0  0
  156.0320  133.9224  164.2721 H   0  0  0  0  0  0  0  0  0  0  0  0
  155.6320  137.4250  162.4032 H   0  0  0  0  0  0  0  0  0  0  0  0
  152.7931  137.9412  159.9676 H   0  0  0  0  0  0  0  0  0  0  0  0
  152.0283  140.1868  159.3653 H   0  0  0  0  0  0  0  0  0  0  0  0
  153.4774  142.3227  158.2136 H   0  0  0  0  0  0  0  0  0  0  0  0
  151.7909  142.3660  158.6684 H   0  0  0  0  0  0  0  0  0  0  0  0
  153.7547  144.7137  158.6813 H   0  0  0  0  0  0  0  0  0  0  0  0
  152.4334  144.4832  157.5611 H   0  0  0  0  0  0  0  0  0  0  0  0
  151.8482  146.1233  159.3729 H   0  0  0  0  0  0  0  0  0  0  0  0
  150.7775  144.7386  159.3841 H   0  0  0  0  0  0  0  0  0  0  0  0
  153.1902  145.1697  161.2131 H   0  0  0  0  0  0  0  0  0  0  0  0
  151.5121  145.2271  161.6969 H   0  0  0  0  0  0  0  0  0  0  0  0
  151.2278  142.8197  161.2129 H   0  0  0  0  0  0  0  0  0  0  0  0
  152.6037  143.0531  162.2804 H   0  0  0  0  0  0  0  0  0  0  0  0
  155.8474  139.8026  162.4656 H   0  0  0  0  0  0  0  0  0  0  0  0
  155.0052  141.8454  161.8309 H   0  0  0  0  0  0  0  0  0  0  0  0
  1  2  1  0  0  0  0
  1 24  1  0  0  0  0
  1 25  1  0  0  0  0
  1 26  1  0  0  0  0
  2  3  1  0  0  0  0
  2  9  1  0  0  0  0
  2 27  1  0  0  0  0
  3  4  1  0  0  0  0
  4  5  1  0  0  0  0
  4 28  1  0  0  0  0
  4 29  1  0  0  0  0
  5  6  1  0  0  0  0
  5  7  1  0  0  0  0
  5  8  1  0  0  0  0
  9 10  2  0  0  0  0
  9 11  1  0  0  0  0
 11 12  1  0  0  0  0
 11 30  1  0  0  0  0
 12 23  1  0  0  0  0
 12 13  2  0  0  0  0
 13 14  1  0  0  0  0
 13 31  1  0  0  0  0
 14 15  2  0  0  0  0
 14 32  1  0  0  0  0
 15 16  1  0  0  0  0
 15 22  1  0  0  0  0
 16 21  1  0  0  0  0
 16 17  1  0  0  0  0
 17 18  1  0  0  0  0
 17 33  1  0  0  0  0
 17 34  1  0  0  0  0
 18 19  1  0  0  0  0
 18 35  1  0  0  0  0
 18 36  1  0  0  0  0
 19 20  1  0  0  0  0
 19 37  1  0  0  0  0
 19 38  1  0  0  0  0
 20 21  1  0  0  0  0
 20 39  1  0  0  0  0
 20 40  1  0  0  0  0
 21 41  1  0  0  0  0
 21 42  1  0  0  0  0
 22 23  2  0  0  0  0
 22 44  1  0  0  0  0
 23 43  1  0  0  0  0
M  CHG  1  22   1
M  END
> <s_m_source_file>
AV-unprocessed.smi

> <i_m_source_file_index>
1627

> <i_lp_mmshare_version>
43012

> <i_f3d_flags>
0

> <s_epik_input>
RkMoRikoRilbQ0gyXU9bQ0BASF0oW0NIM10pQyg9TylbTkhdYzFbY0hdW2NIXWMobltjSF0xKU4yW0NIMl1bQ0gyXVtDSDJdW0NIMl1bQ0gyXTI=

> <s_epik_cmdline>
J2VwaWtfcHl0aG9uJywgJy1waCcsICc3LjAnLCAnLXRuJywgJzgnLCAnLW1hJywgJzIwMCcsICctbWV0YWxfYmluZGluZycsICctaW1hZScsICc8aW5maWxlLm1hZT4nLCAnLW9tYWUnLCAnPG91dGZpbGUubWFlPic=

> <r_lp_tautomer_probability>
0.999994

> <r_epik_Ionization_Penalty>
1.93197

> <r_epik_Ionization_Penalty_Charging>
1.93197

> <r_epik_Ionization_Penalty_Neutral>
3.16684e-06

> <r_epik_State_Penalty>
2.05557

> <r_epik_Charging_Adjusted_Penalty>
3.98754

> <i_epik_Tot_Q>
1

> <i_epik_Tot_abs_Q>
1

> <r_epik_Metal_State_Penalty>
2.08108

> <b_epik_Metal_Only>
0

> <s_lp_Force_Field>
OPLS_2005

> <r_lp_Energy>
31.3841

> <b_lp_Chiralities_Consistent>
1

> <s_lp_Variant>
AV-unprocessed.smi:1627-4

> <Gold.Version>
5.8.1

> <Gold.Id.Protein>
6NUR|6NUR_protein|mol2

> <Gold.PLP.Fitness>
45.1557

> <Gold.PLP.PLP>
-44.3381

> <Gold.PLP.part.hbond>
-1.7024

> <Gold.PLP.part.metal>
0.0000

> <Gold.PLP.part.buried>
-6.0089

> <Gold.PLP.part.nonpolar>
-37.6883

> <Gold.PLP.part.repulsive>
0.0000

> <Gold.PLP.ligand.clash>
0.0000

> <Gold.PLP.ligand.torsion>
1.3547

> <Gold.PLP.Chemscore.Hbond>
1.0000

> <Gold.PLP.Chemscore.CHOScore>
0.0000

> <Gold.PLP.Chemscore.Metal>
0.0000

> <Gold.Chemscore.Hbonds>
donor molecule, donor type, donor heavy atom, donor atom, acceptor molecule, acceptor atom, score
      P1  H  6896  6907       L1    10  1.00

> <Gold.PLP.Chemscore.Internal.Correction>
0.5271

> <Gold.Rescore>
     Score         DG    S(hbond)    S(metal)    S(lipo)     H(rot)  DE(clash)    DE(int)     intcor
     13.61     -16.17       1.00        0.00     104.41       1.90       0.00       2.56       ----

> <Gold.Chemscore.Fitness>
13.6118

> <Gold.Chemscore.DG>
-16.1698

> <Gold.Chemscore.ZeroCoef>
-5.4800

> <Gold.Chemscore.Hbond>
0.9999

> <Gold.Chemscore.Metal>
0.0000

> <Gold.Chemscore.Lipo>
104.4081

> <Gold.Chemscore.Internal_Hbond>
0.0000

> <Gold.Chemscore.DEClash>
0.0019

> <Gold.Chemscore.DEInternal>
2.5560

> <Gold.Chemscore.Rot>
1.9007

> <Gold.Chemscore.Internal.Correction>
   9.000000E+99

> <Gold.Chemscore.Hbonds>
donor molecule, donor type, donor heavy atom, donor atom, acceptor molecule, acceptor atom, score
      P1  H  6896  6907       L1    10  0.98

> <Gold.Chemscore.Hbond.Weighted>
-3.3397

> <Gold.Chemscore.Metal.Weighted>
-0.0000

> <Gold.Chemscore.Lipo.Weighted>
-12.2157

> <Gold.Chemscore.Internal_Hbond.Weighted>
0.0000

> <Gold.Chemscore.DEClash.Weighted>
0.0019

> <Gold.Chemscore.DEInternal.Weighted>
2.5560

> <Gold.Chemscore.Rot.Weighted>
4.8657

> <Gold.Chemscore.Internal.Correction.Weighted>
   9.000000E+99

> <Gold.Protein.RotatedTorsions>
[ 6907 6896 6895 6894 ] final   53.43 input  -60.11 | X-H torsion
[ 7974 7965 7964 7962 ] final -152.47 input  175.53 | X-H torsion
[ 8008 7997 7996 7995 ] final   42.71 input   59.86 | X-H torsion
[ 10167 10162 10161 10158 ] final  -97.38 input  -65.29 | X-H torsion
[ 10718 10713 10712 10709 ] final  118.40 input   66.30 | X-H torsion
[ 10763 10752 10751 10750 ] final   74.84 input  -60.55 | X-H torsion
[ 11005 11000 10999 10996 ] final  -92.80 input  -57.11 | X-H torsion

> <Gold.Protein.ActiveResidues>
 VAL166  LYS551  ARG553  GLY616  TRP617  ASP618  TYR619  PRO620  LYS621  CYS622 
 ASP623  PHE694  ASN695  SER759  ASP760  ASP761  ALA762  ILE779  LEU786  VAL792 
 PHE793  MET794  SER795  GLU796  ALA797  LYS798  CYS799  TRP800  GLU811  SER814 

> <Gold.Protein.RotatedAtoms>
  152.3336  134.7227  160.0282 H   0  0  0  0  0  0  0  0  0  0  0  0  # atno 6907 bound_to 6896
  151.7635  133.3330  159.3432 H   0  0  0  0  0  0  0  0  0  0  0  0  # atno 6908 bound_to 6896
  150.7438  134.6016  159.6084 H   0  0  0  0  0  0  0  0  0  0  0  0  # atno 6909 bound_to 6896
  144.7793  140.4658  143.5851 H   0  0  0  0  0  0  0  0  0  0  0  0  # atno 7974 bound_to 7965
  155.2906  140.3378  155.4252 H   0  0  0  0  0  0  0  0  0  0  0  0  # atno 8008 bound_to 7997
  156.2048  140.1746  156.7864 H   0  0  0  0  0  0  0  0  0  0  0  0  # atno 8009 bound_to 7997
  154.5606  140.0688  156.8796 H   0  0  0  0  0  0  0  0  0  0  0  0  # atno 8010 bound_to 7997
  140.2840  143.3264  152.0413 H   0  0  0  0  0  0  0  0  0  0  0  0  # atno 10167 bound_to 10162
  157.6032  131.1047  150.7751 H   0  0  0  0  0  0  0  0  0  0  0  0  # atno 10718 bound_to 10713
  153.0614  135.5011  154.8101 H   0  0  0  0  0  0  0  0  0  0  0  0  # atno 10763 bound_to 10752
  154.6888  135.2981  154.9512 H   0  0  0  0  0  0  0  0  0  0  0  0  # atno 10764 bound_to 10752
  154.0273  135.6734  153.4830 H   0  0  0  0  0  0  0  0  0  0  0  0  # atno 10765 bound_to 10752
  141.1513  133.7845  157.0070 H   0  0  0  0  0  0  0  0  0  0  0  0  # atno 11005 bound_to 11000
  145.6097  139.1512  143.3083 LP  0  0  0  0  0  0  0  0  0  0  0  0  # atno 17320 bound_to 7965
  146.1991  140.6214  142.9110 LP  0  0  0  0  0  0  0  0  0  0  0  0  # atno 17321 bound_to 7965
  139.4955  144.6572  151.6546 LP  0  0  0  0  0  0  0  0  0  0  0  0  # atno 17342 bound_to 10162
  140.5788  143.9982  150.6256 LP  0  0  0  0  0  0  0  0  0  0  0  0  # atno 17343 bound_to 10162
  156.8145  130.4963  149.5351 LP  0  0  0  0  0  0  0  0  0  0  0  0  # atno 17370 bound_to 10713
  156.1111  130.6041  151.0049 LP  0  0  0  0  0  0  0  0  0  0  0  0  # atno 17371 bound_to 10713
  140.0902  134.9597  157.1764 LP  0  0  0  0  0  0  0  0  0  0  0  0  # atno 17394 bound_to 11000
  140.3456  134.2655  155.7205 LP  0  0  0  0  0  0  0  0  0  0  0  0  # atno 17395 bound_to 11000

$$$$
