AV-unprocessed.smi:1947|AV-procd|sdf|7868|dock4
  -GOLD-   2272010 23D 1   1.00000     0.00000
 Structure written by MMmdl.
 39 40  0  0  0  0  0  0  0  0  1 V2000
  154.0922  141.0611  159.8949 C   0  0  0  0  0  0  0  0  0  0  0  0
  152.8619  141.9541  159.6658 C   0  0  1  0  0  0  0  0  0  0  0  0
  153.2460  143.4441  159.7627 C   0  0  0  0  0  0  0  0  0  0  0  0
  152.0348  144.3607  159.5354 C   0  0  0  0  0  0  0  0  0  0  0  0
  151.3652  144.0633  158.1868 C   0  0  0  0  0  0  0  0  0  0  0  0
  150.9697  142.5831  158.0816 C   0  0  0  0  0  0  0  0  0  0  0  0
  152.1795  141.6520  158.3122 C   0  0  2  0  0  0  0  0  0  0  0  0
  151.7360  140.3015  158.3415 O   0  0  0  0  0  0  0  0  0  0  0  0
  150.8428  139.9510  157.2945 C   0  0  0  0  0  0  0  0  0  0  0  0
  150.5950  138.4367  157.3439 C   0  0  0  0  0  0  0  0  0  0  0  0
  149.8636  138.0529  158.5464 N   0  0  0  0  0  0  0  0  0  0  0  0
  149.7170  136.7973  158.9915 C   0  0  0  0  0  0  0  0  0  0  0  0
  150.2234  135.8197  158.4416 O   0  0  0  0  0  0  0  0  0  0  0  0
  148.9500  136.7597  160.0929 N   0  0  0  0  0  0  0  0  0  0  0  0
  148.5540  135.6228  160.8404 C   0  0  0  0  0  0  0  0  0  0  0  0
  148.3819  134.4687  160.1852 N   0  0  0  0  0  0  0  0  0  0  0  0
  147.9957  133.4399  161.0355 N   0  0  0  0  0  0  0  0  0  0  0  0
  147.8913  133.8592  162.3001 C   0  0  0  0  0  0  0  0  0  0  0  0
  148.2538  135.5532  162.5796 S   0  0  0  0  0  0  0  0  0  0  0  0
  154.8406  141.2103  159.1162 H   0  0  0  0  0  0  0  0  0  0  0  0
  153.8219  140.0050  159.8977 H   0  0  0  0  0  0  0  0  0  0  0  0
  154.5619  141.2794  160.8541 H   0  0  0  0  0  0  0  0  0  0  0  0
  152.1457  141.7418  160.4611 H   0  0  0  0  0  0  0  0  0  0  0  0
  153.6815  143.6538  160.7403 H   0  0  0  0  0  0  0  0  0  0  0  0
  154.0172  143.6745  159.0264 H   0  0  0  0  0  0  0  0  0  0  0  0
  151.3136  144.2229  160.3421 H   0  0  0  0  0  0  0  0  0  0  0  0
  152.3464  145.4049  159.5738 H   0  0  0  0  0  0  0  0  0  0  0  0
  150.4841  144.6935  158.0622 H   0  0  0  0  0  0  0  0  0  0  0  0
  152.0468  144.3190  157.3745 H   0  0  0  0  0  0  0  0  0  0  0  0
  150.1952  142.3622  158.8173 H   0  0  0  0  0  0  0  0  0  0  0  0
  150.5241  142.4014  157.1041 H   0  0  0  0  0  0  0  0  0  0  0  0
  152.9115  141.7929  157.5143 H   0  0  0  0  0  0  0  0  0  0  0  0
  149.8993  140.4904  157.3795 H   0  0  0  0  0  0  0  0  0  0  0  0
  151.2827  140.2216  156.3339 H   0  0  0  0  0  0  0  0  0  0  0  0
  150.0478  138.1137  156.4570 H   0  0  0  0  0  0  0  0  0  0  0  0
  151.5464  137.9042  157.3335 H   0  0  0  0  0  0  0  0  0  0  0  0
  149.4113  138.7966  159.0576 H   0  0  0  0  0  0  0  0  0  0  0  0
  148.6001  137.6444  160.4302 H   0  0  0  0  0  0  0  0  0  0  0  0
  147.5978  133.1658  163.0741 H   0  0  0  0  0  0  0  0  0  0  0  0
  1  2  1  0  0  0  0
  1 20  1  0  0  0  0
  1 21  1  0  0  0  0
  1 22  1  0  0  0  0
  2  7  1  0  0  0  0
  2  3  1  0  0  0  0
  2 23  1  0  0  0  0
  3  4  1  0  0  0  0
  3 24  1  0  0  0  0
  3 25  1  0  0  0  0
  4  5  1  0  0  0  0
  4 26  1  0  0  0  0
  4 27  1  0  0  0  0
  5  6  1  0  0  0  0
  5 28  1  0  0  0  0
  5 29  1  0  0  0  0
  6  7  1  0  0  0  0
  6 30  1  0  0  0  0
  6 31  1  0  0  0  0
  7  8  1  0  0  0  0
  7 32  1  0  0  0  0
  8  9  1  0  0  0  0
  9 10  1  0  0  0  0
  9 33  1  0  0  0  0
  9 34  1  0  0  0  0
 10 11  1  0  0  0  0
 10 35  1  0  0  0  0
 10 36  1  0  0  0  0
 11 12  1  0  0  0  0
 11 37  1  0  0  0  0
 12 13  2  0  0  0  0
 12 14  1  0  0  0  0
 14 15  1  0  0  0  0
 14 38  1  0  0  0  0
 15 19  1  0  0  0  0
 15 16  2  0  0  0  0
 16 17  1  0  0  0  0
 17 18  2  0  0  0  0
 18 19  1  0  0  0  0
 18 39  1  0  0  0  0
M  END
> <s_m_source_file>
AV-unprocessed.smi

> <i_m_source_file_index>
1947

> <i_lp_mmshare_version>
43012

> <i_f3d_flags>
0

> <s_epik_input>
W0NIM11bQ0BASF0xW0NIMl1bQ0gyXVtDSDJdW0NIMl1bQ0BIXTFPW0NIMl1bQ0gyXVtOSF1DKD1PKVtOSF1jMm5uW2NIXXMy

> <s_epik_cmdline>
J2VwaWtfcHl0aG9uJywgJy1waCcsICc3LjAnLCAnLXRuJywgJzgnLCAnLW1hJywgJzIwMCcsICctbWV0YWxfYmluZGluZycsICctaW1hZScsICc8aW5maWxlLm1hZT4nLCAnLW9tYWUnLCAnPG91dGZpbGUubWFlPic=

> <r_lp_tautomer_probability>
1

> <r_epik_Ionization_Penalty>
0.00220897

> <r_epik_Ionization_Penalty_Charging>
0

> <r_epik_Ionization_Penalty_Neutral>
0.00220897

> <r_epik_State_Penalty>
-0

> <r_epik_Charging_Adjusted_Penalty>
0

> <i_epik_Tot_Q>
0

> <i_epik_Tot_abs_Q>
0

> <r_epik_Metal_State_Penalty>
0.345002

> <b_epik_Metal_Only>
0

> <s_lp_Force_Field>
OPLS_2005

> <r_lp_Energy>
7.32574

> <b_lp_Chiralities_Consistent>
1

> <s_lp_Variant>
AV-unprocessed.smi:1947-4

> <Gold.Version>
5.8.1

> <Gold.Id.Protein>
6NUR|6NUR_protein|mol2

> <Gold.PLP.Fitness>
42.1712

> <Gold.PLP.PLP>
-39.9112

> <Gold.PLP.part.hbond>
-1.0000

> <Gold.PLP.part.metal>
0.0000

> <Gold.PLP.part.buried>
-6.3532

> <Gold.PLP.part.nonpolar>
-33.9111

> <Gold.PLP.part.repulsive>
1.0872

> <Gold.PLP.ligand.clash>
0.0000

> <Gold.PLP.ligand.torsion>
0.3918

> <Gold.PLP.Chemscore.Hbond>
1.0000

> <Gold.PLP.Chemscore.CHOScore>
0.0000

> <Gold.PLP.Chemscore.Metal>
0.0000

> <Gold.Chemscore.Hbonds>
donor molecule, donor type, donor heavy atom, donor atom, acceptor molecule, acceptor atom, score
      P1  H  6896  6907       L1    13  0.83

> <Gold.PLP.Chemscore.Internal.Correction>
0.0436

> <Gold.Rescore>
     Score         DG    S(hbond)    S(metal)    S(lipo)     H(rot)  DE(clash)    DE(int)     intcor
     13.90     -15.58       0.99        0.00     100.41       1.94       0.09       1.60       ----

> <Gold.Chemscore.Fitness>
13.8956

> <Gold.Chemscore.DG>
-15.5840

> <Gold.Chemscore.ZeroCoef>
-5.4800

> <Gold.Chemscore.Hbond>
0.9934

> <Gold.Chemscore.Metal>
0.0000

> <Gold.Chemscore.Lipo>
100.4147

> <Gold.Chemscore.Internal_Hbond>
0.0000

> <Gold.Chemscore.DEClash>
0.0901

> <Gold.Chemscore.DEInternal>
1.5983

> <Gold.Chemscore.Rot>
1.9385

> <Gold.Chemscore.Internal.Correction>
   9.000000E+99

> <Gold.Chemscore.Hbonds>
donor molecule, donor type, donor heavy atom, donor atom, acceptor molecule, acceptor atom, score
      P1  H  6896  6907       L1    13  0.73

> <Gold.Chemscore.Hbond.Weighted>
-3.3180

> <Gold.Chemscore.Metal.Weighted>
-0.0000

> <Gold.Chemscore.Lipo.Weighted>
-11.7485

> <Gold.Chemscore.Internal_Hbond.Weighted>
0.0000

> <Gold.Chemscore.DEClash.Weighted>
0.0901

> <Gold.Chemscore.DEInternal.Weighted>
1.5983

> <Gold.Chemscore.Rot.Weighted>
4.9625

> <Gold.Chemscore.Internal.Correction.Weighted>
   9.000000E+99

> <Gold.Protein.RotatedTorsions>
[ 6907 6896 6895 6894 ] final  -71.06 input  -60.11 | X-H torsion
[ 7974 7965 7964 7962 ] final  173.60 input  175.53 | X-H torsion
[ 8008 7997 7996 7995 ] final -120.08 input   59.86 | X-H torsion
[ 10167 10162 10161 10158 ] final  153.36 input  -65.29 | X-H torsion
[ 10718 10713 10712 10709 ] final -145.16 input   66.30 | X-H torsion
[ 10763 10752 10751 10750 ] final  103.12 input  -60.55 | X-H torsion
[ 11005 11000 10999 10996 ] final  -94.13 input  -57.11 | X-H torsion

> <Gold.Protein.ActiveResidues>
 VAL166  LYS551  ARG553  GLY616  TRP617  ASP618  TYR619  PRO620  LYS621  CYS622 
 ASP623  PHE694  ASN695  SER759  ASP760  ASP761  ALA762  ILE779  LEU786  VAL792 
 PHE793  MET794  SER795  GLU796  ALA797  LYS798  CYS799  TRP800  GLU811  SER814 

> <Gold.Protein.RotatedAtoms>
  150.7229  134.5363  159.5724 H   0  0  0  0  0  0  0  0  0  0  0  0  # atno 6907 bound_to 6896
  152.2884  134.7746  160.0392 H   0  0  0  0  0  0  0  0  0  0  0  0  # atno 6908 bound_to 6896
  151.8368  133.3382  159.3667 H   0  0  0  0  0  0  0  0  0  0  0  0  # atno 6909 bound_to 6896
  144.7240  139.9672  143.6436 H   0  0  0  0  0  0  0  0  0  0  0  0  # atno 7974 bound_to 7965
  155.1261  140.0399  157.2762 H   0  0  0  0  0  0  0  0  0  0  0  0  # atno 8008 bound_to 7997
  154.6578  140.2584  155.7117 H   0  0  0  0  0  0  0  0  0  0  0  0  # atno 8009 bound_to 7997
  156.2606  140.2823  156.1037 H   0  0  0  0  0  0  0  0  0  0  0  0  # atno 8010 bound_to 7997
  139.4827  144.5280  151.7769 H   0  0  0  0  0  0  0  0  0  0  0  0  # atno 10167 bound_to 10162
  156.3790  130.7827  151.2017 H   0  0  0  0  0  0  0  0  0  0  0  0  # atno 10718 bound_to 10713
  153.3484  135.3987  155.1627 H   0  0  0  0  0  0  0  0  0  0  0  0  # atno 10763 bound_to 10752
  154.8657  135.3650  154.5253 H   0  0  0  0  0  0  0  0  0  0  0  0  # atno 10764 bound_to 10752
  153.5703  135.7079  153.5567 H   0  0  0  0  0  0  0  0  0  0  0  0  # atno 10765 bound_to 10752
  141.1479  133.7935  157.0255 H   0  0  0  0  0  0  0  0  0  0  0  0  # atno 11005 bound_to 11000
  146.0591  139.3586  143.0592 LP  0  0  0  0  0  0  0  0  0  0  0  0  # atno 17320 bound_to 7965
  145.8116  140.9723  143.0946 LP  0  0  0  0  0  0  0  0  0  0  0  0  # atno 17321 bound_to 7965
  140.4802  144.1460  150.5931 LP  0  0  0  0  0  0  0  0  0  0  0  0  # atno 17342 bound_to 10162
  140.4286  143.2578  151.9625 LP  0  0  0  0  0  0  0  0  0  0  0  0  # atno 17343 bound_to 10162
  157.7491  131.0350  150.4342 LP  0  0  0  0  0  0  0  0  0  0  0  0  # atno 17370 bound_to 10713
  156.4582  130.4026  149.6593 LP  0  0  0  0  0  0  0  0  0  0  0  0  # atno 17371 bound_to 10713
  140.0788  134.9660  157.1589 LP  0  0  0  0  0  0  0  0  0  0  0  0  # atno 17394 bound_to 11000
  140.3606  134.2498  155.7187 LP  0  0  0  0  0  0  0  0  0  0  0  0  # atno 17395 bound_to 11000

$$$$
