AV-unprocessed.smi:185|AV-procd|sdf|1465|dock10
  -GOLD-   2262019273D 1   1.00000     0.00000
 Structure written by MMmdl.
 53 56  0  0  0  0  0  0  0  0  1 V2000
  152.7358  138.8270  158.8460 C   0  0  0  0  0  0  0  0  0  0  0  0
  152.2393  139.9416  158.0426 N   0  0  0  0  0  0  0  0  0  0  0  0
  151.5430  141.0086  158.7601 C   0  0  0  0  0  0  0  0  0  0  0  0
  152.4455  141.7237  159.7846 C   0  0  0  0  0  0  0  0  0  0  0  0
  152.2650  143.1706  159.7302 N   0  0  0  0  0  0  0  0  0  0  0  0
  152.0108  143.8439  158.4677 C   0  0  0  0  0  0  0  0  0  0  0  0
  152.1052  145.3429  158.7882 C   0  0  0  0  0  0  0  0  0  0  0  0
  152.0942  145.4462  160.3176 C   0  0  0  0  0  0  0  0  0  0  0  0
  152.3237  144.0137  160.7683 C   0  0  0  0  0  0  0  0  0  0  0  0
  152.5344  143.7087  161.9419 O   0  0  0  0  0  0  0  0  0  0  0  0
  151.8526  139.6870  156.7593 C   0  0  0  0  0  0  0  0  0  0  0  0
  152.6786  138.9670  155.9517 N   0  0  0  0  0  0  0  0  0  0  0  0
  152.3174  138.6586  154.7035 C   0  0  0  0  0  0  0  0  0  0  0  0
  151.1874  138.9606  154.0648 N   0  0  0  0  0  0  0  0  0  0  0  0
  150.3553  139.6944  154.8567 C   0  0  0  0  0  0  0  0  0  0  0  0
  150.6099  140.1100  156.1963 C   0  0  0  0  0  0  0  0  0  0  0  0
  149.5382  140.8694  156.6546 N   0  0  0  0  0  0  0  0  0  0  0  0
  148.6925  140.8755  155.6626 C   0  0  0  0  0  0  0  0  0  0  0  0
  149.0964  140.1795  154.5476 N   0  0  0  0  0  0  0  0  0  0  0  0
  148.3477  140.0071  153.3123 C   0  0  0  0  0  0  0  0  0  0  0  0
  147.0804  139.1282  153.4659 C   0  0  0  0  0  0  0  0  0  0  0  0
  146.0520  139.9409  154.0048 O   0  0  0  0  0  0  0  0  0  0  0  0
  146.5869  138.5515  152.1200 C   0  0  0  0  0  0  0  0  0  0  0  0
  145.4637  137.5165  152.3092 C   0  0  0  0  0  0  0  0  0  0  0  0
  145.8889  136.4876  153.1943 O   0  0  0  0  0  0  0  0  0  0  0  0
  146.1764  136.9713  154.5007 C   0  0  0  0  0  0  0  0  0  0  0  0
  147.3471  137.9691  154.4473 C   0  0  0  0  0  0  0  0  0  0  0  0
  153.5267  138.2904  158.3205 H   0  0  0  0  0  0  0  0  0  0  0  0
  151.9323  138.1267  159.0776 H   0  0  0  0  0  0  0  0  0  0  0  0
  153.1520  139.1861  159.7876 H   0  0  0  0  0  0  0  0  0  0  0  0
  151.1834  141.7399  158.0355 H   0  0  0  0  0  0  0  0  0  0  0  0
  150.6424  140.6264  159.2339 H   0  0  0  0  0  0  0  0  0  0  0  0
  152.2195  141.3892  160.7983 H   0  0  0  0  0  0  0  0  0  0  0  0
  153.4912  141.4700  159.6061 H   0  0  0  0  0  0  0  0  0  0  0  0
  152.7333  143.5495  157.7056 H   0  0  0  0  0  0  0  0  0  0  0  0
  151.0133  143.5800  158.1141 H   0  0  0  0  0  0  0  0  0  0  0  0
  153.0378  145.7517  158.3968 H   0  0  0  0  0  0  0  0  0  0  0  0
  151.2867  145.9039  158.3357 H   0  0  0  0  0  0  0  0  0  0  0  0
  152.8717  146.1124  160.6925 H   0  0  0  0  0  0  0  0  0  0  0  0
  151.1278  145.7912  160.6864 H   0  0  0  0  0  0  0  0  0  0  0  0
  153.0336  138.0806  154.1385 H   0  0  0  0  0  0  0  0  0  0  0  0
  147.7400  141.3814  155.7226 H   0  0  0  0  0  0  0  0  0  0  0  0
  148.0716  140.9981  152.9497 H   0  0  0  0  0  0  0  0  0  0  0  0
  149.0156  139.5852  152.5598 H   0  0  0  0  0  0  0  0  0  0  0  0
  145.5533  140.3079  153.2911 H   0  0  0  0  0  0  0  0  0  0  0  0
  146.2393  139.3460  151.4582 H   0  0  0  0  0  0  0  0  0  0  0  0
  147.4210  138.0689  151.6089 H   0  0  0  0  0  0  0  0  0  0  0  0
  144.5559  137.9873  152.6895 H   0  0  0  0  0  0  0  0  0  0  0  0
  145.2063  137.0684  151.3494 H   0  0  0  0  0  0  0  0  0  0  0  0
  145.2871  137.4291  154.9365 H   0  0  0  0  0  0  0  0  0  0  0  0
  146.4378  136.1254  155.1367 H   0  0  0  0  0  0  0  0  0  0  0  0
  148.2429  137.4308  154.1347 H   0  0  0  0  0  0  0  0  0  0  0  0
  147.5559  138.3540  155.4465 H   0  0  0  0  0  0  0  0  0  0  0  0
  1  2  1  0  0  0  0
  1 28  1  0  0  0  0
  1 29  1  0  0  0  0
  1 30  1  0  0  0  0
  2  3  1  0  0  0  0
  2 11  1  0  0  0  0
  3  4  1  0  0  0  0
  3 31  1  0  0  0  0
  3 32  1  0  0  0  0
  4  5  1  0  0  0  0
  4 33  1  0  0  0  0
  4 34  1  0  0  0  0
  5  9  1  0  0  0  0
  5  6  1  0  0  0  0
  6  7  1  0  0  0  0
  6 35  1  0  0  0  0
  6 36  1  0  0  0  0
  7  8  1  0  0  0  0
  7 37  1  0  0  0  0
  7 38  1  0  0  0  0
  8  9  1  0  0  0  0
  8 39  1  0  0  0  0
  8 40  1  0  0  0  0
  9 10  2  0  0  0  0
 11 16  1  0  0  0  0
 11 12  2  0  0  0  0
 12 13  1  0  0  0  0
 13 14  2  0  0  0  0
 13 41  1  0  0  0  0
 14 15  1  0  0  0  0
 15 19  1  0  0  0  0
 15 16  2  0  0  0  0
 16 17  1  0  0  0  0
 17 18  2  0  0  0  0
 18 19  1  0  0  0  0
 18 42  1  0  0  0  0
 19 20  1  0  0  0  0
 20 21  1  0  0  0  0
 20 43  1  0  0  0  0
 20 44  1  0  0  0  0
 21 27  1  0  0  0  0
 21 22  1  0  0  0  0
 21 23  1  0  0  0  0
 22 45  1  0  0  0  0
 23 24  1  0  0  0  0
 23 46  1  0  0  0  0
 23 47  1  0  0  0  0
 24 25  1  0  0  0  0
 24 48  1  0  0  0  0
 24 49  1  0  0  0  0
 25 26  1  0  0  0  0
 26 27  1  0  0  0  0
 26 50  1  0  0  0  0
 26 51  1  0  0  0  0
 27 52  1  0  0  0  0
 27 53  1  0  0  0  0
M  END
> <s_m_source_file>
AV-unprocessed.smi

> <i_m_source_file_index>
185

> <i_lp_mmshare_version>
43012

> <i_f3d_flags>
0

> <s_epik_input>
Tz1DMVtDSDJdW0NIMl1bQ0gyXU4xW0NIMl1bQ0gyXU4oW0NIM10pYyhuW2NIXW4yKWMoYzIzKW5bY0hdbjNbQ0gyXUM0KFtPSF0pW0NIMl1bQ0gyXU9bQ0gyXVtDSDJdNA==

> <s_epik_cmdline>
J2VwaWtfcHl0aG9uJywgJy1waCcsICc3LjAnLCAnLXRuJywgJzgnLCAnLW1hJywgJzIwMCcsICctbWV0YWxfYmluZGluZycsICctaW1hZScsICc8aW5maWxlLm1hZT4nLCAnLW9tYWUnLCAnPG91dGZpbGUubWFlPic=

> <r_lp_tautomer_probability>
1

> <r_epik_Ionization_Penalty>
0.00150291

> <r_epik_Ionization_Penalty_Charging>
0

> <r_epik_Ionization_Penalty_Neutral>
0.00150291

> <r_epik_State_Penalty>
0.000836254

> <r_epik_Charging_Adjusted_Penalty>
0.000836254

> <i_epik_Tot_Q>
0

> <i_epik_Tot_abs_Q>
0

> <r_epik_Metal_State_Penalty>
-0

> <b_epik_Metal_Only>
0

> <s_lp_Force_Field>
OPLS_2005

> <r_lp_Energy>
31.6945

> <b_lp_Chiralities_Consistent>
1

> <s_lp_Variant>
AV-unprocessed.smi:185-1

> <Gold.Version>
5.8.1

> <Gold.Id.Protein>
6NUR|6NUR_protein|mol2

> <Gold.PLP.Fitness>
52.7924

> <Gold.PLP.PLP>
-49.3844

> <Gold.PLP.part.hbond>
-3.0000

> <Gold.PLP.part.metal>
0.0000

> <Gold.PLP.part.buried>
0.2289

> <Gold.PLP.part.nonpolar>
-48.1454

> <Gold.PLP.part.repulsive>
0.5389

> <Gold.PLP.ligand.clash>
0.0000

> <Gold.PLP.ligand.torsion>
1.7102

> <Gold.PLP.Chemscore.Hbond>
2.0683

> <Gold.PLP.Chemscore.CHOScore>
0.0000

> <Gold.PLP.Chemscore.Metal>
0.0000

> <Gold.Chemscore.Hbonds>
donor molecule, donor type, donor heavy atom, donor atom, acceptor molecule, acceptor atom, score
      L1  H    22    45       P1 10175  0.86
      P1  H  7997  8010       L1    12  0.86

> <Gold.PLP.Chemscore.Internal.Correction>
0.6234

> <Gold.Rescore>
     Score         DG    S(hbond)    S(metal)    S(lipo)     H(rot)  DE(clash)    DE(int)     intcor
      9.32     -13.58       1.45        0.00      87.54       2.73       1.33       2.93       ----

> <Gold.Chemscore.Fitness>
9.3207

> <Gold.Chemscore.DG>
-13.5797

> <Gold.Chemscore.ZeroCoef>
-5.4800

> <Gold.Chemscore.Hbond>
1.4522

> <Gold.Chemscore.Metal>
0.0000

> <Gold.Chemscore.Lipo>
87.5431

> <Gold.Chemscore.Internal_Hbond>
0.0000

> <Gold.Chemscore.DEClash>
1.3313

> <Gold.Chemscore.DEInternal>
2.9277

> <Gold.Chemscore.Rot>
2.7318

> <Gold.Chemscore.Internal.Correction>
   9.000000E+99

> <Gold.Chemscore.Hbonds>
donor molecule, donor type, donor heavy atom, donor atom, acceptor molecule, acceptor atom, score
      L1  H    22    45       P1 10175  0.79
      P1  H  7997  8010       L1    12  0.18

> <Gold.Chemscore.Hbond.Weighted>
-4.8505

> <Gold.Chemscore.Metal.Weighted>
-0.0000

> <Gold.Chemscore.Lipo.Weighted>
-10.2425

> <Gold.Chemscore.Internal_Hbond.Weighted>
0.0000

> <Gold.Chemscore.DEClash.Weighted>
1.3313

> <Gold.Chemscore.DEInternal.Weighted>
2.9277

> <Gold.Chemscore.Rot.Weighted>
6.9933

> <Gold.Chemscore.Internal.Correction.Weighted>
   9.000000E+99

> <Gold.Protein.RotatedTorsions>
[ 6907 6896 6895 6894 ] final -169.80 input  -60.11 | X-H torsion
[ 7974 7965 7964 7962 ] final -152.96 input  175.53 | X-H torsion
[ 8008 7997 7996 7995 ] final   95.11 input   59.86 | X-H torsion
[ 10167 10162 10161 10158 ] final -179.48 input  -65.29 | X-H torsion
[ 10718 10713 10712 10709 ] final  -77.16 input   66.30 | X-H torsion
[ 10763 10752 10751 10750 ] final -163.96 input  -60.55 | X-H torsion
[ 11005 11000 10999 10996 ] final  138.27 input  -57.11 | X-H torsion

> <Gold.Protein.ActiveResidues>
 VAL166  LYS551  ARG553  GLY616  TRP617  ASP618  TYR619  PRO620  LYS621  CYS622 
 ASP623  PHE694  ASN695  SER759  ASP760  ASP761  ALA762  ILE779  LEU786  VAL792 
 PHE793  MET794  SER795  GLU796  ALA797  LYS798  CYS799  TRP800  GLU811  SER814 

> <Gold.Protein.RotatedAtoms>
  151.4975  133.3511  159.2863 H   0  0  0  0  0  0  0  0  0  0  0  0  # atno 6907 bound_to 6896
  150.8795  134.8185  159.7225 H   0  0  0  0  0  0  0  0  0  0  0  0  # atno 6908 bound_to 6896
  152.4753  134.4870  159.9735 H   0  0  0  0  0  0  0  0  0  0  0  0  # atno 6909 bound_to 6896
  144.7766  140.4591  143.5869 H   0  0  0  0  0  0  0  0  0  0  0  0  # atno 7974 bound_to 7965
  156.0653  140.3291  155.7511 H   0  0  0  0  0  0  0  0  0  0  0  0  # atno 8008 bound_to 7997
  155.5390  140.0600  157.2891 H   0  0  0  0  0  0  0  0  0  0  0  0  # atno 8009 bound_to 7997
  154.4502  140.1914  156.0560 H   0  0  0  0  0  0  0  0  0  0  0  0  # atno 8010 bound_to 7997
  139.5384  144.2431  152.0844 H   0  0  0  0  0  0  0  0  0  0  0  0  # atno 10167 bound_to 10162
  156.0153  130.4484  150.3302 H   0  0  0  0  0  0  0  0  0  0  0  0  # atno 10718 bound_to 10713
  154.7073  135.2999  154.9251 H   0  0  0  0  0  0  0  0  0  0  0  0  # atno 10763 bound_to 10752
  154.0164  135.6688  153.4773 H   0  0  0  0  0  0  0  0  0  0  0  0  # atno 10764 bound_to 10752
  153.0727  135.5052  154.8251 H   0  0  0  0  0  0  0  0  0  0  0  0  # atno 10765 bound_to 10752
  140.0172  134.9413  157.0400 H   0  0  0  0  0  0  0  0  0  0  0  0  # atno 11005 bound_to 11000
  145.6169  139.1519  143.3044 LP  0  0  0  0  0  0  0  0  0  0  0  0  # atno 17320 bound_to 7965
  146.1949  140.6281  142.9129 LP  0  0  0  0  0  0  0  0  0  0  0  0  # atno 17321 bound_to 7965
  140.1905  144.4756  150.6481 LP  0  0  0  0  0  0  0  0  0  0  0  0  # atno 17342 bound_to 10162
  140.6603  143.2250  151.5872 LP  0  0  0  0  0  0  0  0  0  0  0  0  # atno 17343 bound_to 10162
  157.1400  131.0294  151.2932 LP  0  0  0  0  0  0  0  0  0  0  0  0  # atno 17370 bound_to 10713
  157.4479  130.7581  149.7126 LP  0  0  0  0  0  0  0  0  0  0  0  0  # atno 17371 bound_to 10713
  140.4450  134.1641  155.7177 LP  0  0  0  0  0  0  0  0  0  0  0  0  # atno 17394 bound_to 11000
  141.1750  133.8531  157.1449 LP  0  0  0  0  0  0  0  0  0  0  0  0  # atno 17395 bound_to 11000

$$$$
