AV-unprocessed.smi:2280|AV-procd|sdf|9192|dock3
  -GOLD-   2272012403D 1   1.00000     0.00000
 Structure written by MMmdl.
 41 42  0  0  0  0  0  0  0  0  1 V2000
  145.3582  137.7628  157.1019 C   0  0  0  0  0  0  0  0  0  0  0  0
  146.8641  137.9298  156.9998 C   0  0  0  0  0  0  0  0  0  0  0  0
  147.6225  137.0667  157.7959 N   0  0  0  0  0  0  0  0  0  0  0  0
  148.9134  137.1359  157.7730 C   0  0  0  0  0  0  0  0  0  0  0  0
  149.5888  138.0599  156.9592 N   0  0  0  0  0  0  0  0  0  0  0  0
  151.0599  138.0361  157.0264 C   0  0  0  0  0  0  0  0  0  0  0  0
  151.5987  138.8092  158.2520 C   0  0  1  0  0  0  0  0  0  0  0  0
  153.0112  138.7441  158.2192 O   0  0  0  0  0  0  0  0  0  0  0  0
  151.2126  140.2975  158.2089 C   0  0  0  0  0  0  0  0  0  0  0  0
  151.6396  140.9131  159.4166 O   0  0  0  0  0  0  0  0  0  0  0  0
  151.3707  142.2526  159.6104 C   0  0  0  0  0  0  0  0  0  0  0  0
  150.5987  143.0331  158.7119 C   0  0  0  0  0  0  0  0  0  0  0  0
  150.3612  144.3960  158.9684 C   0  0  0  0  0  0  0  0  0  0  0  0
  150.8897  144.9971  160.1234 C   0  0  0  0  0  0  0  0  0  0  0  0
  151.6558  144.2336  161.0223 C   0  0  0  0  0  0  0  0  0  0  0  0
  151.9007  142.8637  160.7739 C   0  0  0  0  0  0  0  0  0  0  0  0
  152.7318  142.0416  161.7544 C   0  0  0  0  0  0  0  0  0  0  0  0
  152.7831  142.6068  162.9613 F   0  0  0  0  0  0  0  0  0  0  0  0
  152.2005  140.8260  161.8872 F   0  0  0  0  0  0  0  0  0  0  0  0
  153.9792  141.9207  161.3000 F   0  0  0  0  0  0  0  0  0  0  0  0
  148.9256  138.9443  156.1589 C   0  0  0  0  0  0  0  0  0  0  0  0
  149.5282  139.7605  155.4588 O   0  0  0  0  0  0  0  0  0  0  0  0
  147.4570  138.8536  156.1949 C   0  0  0  0  0  0  0  0  0  0  0  0
  146.6827  139.8198  155.3071 C   0  0  0  0  0  0  0  0  0  0  0  0
  144.9320  137.5271  156.1262 H   0  0  0  0  0  0  0  0  0  0  0  0
  144.8972  138.6788  157.4728 H   0  0  0  0  0  0  0  0  0  0  0  0
  145.0934  136.9551  157.7857 H   0  0  0  0  0  0  0  0  0  0  0  0
  149.5506  136.4906  158.3800 H   0  0  0  0  0  0  0  0  0  0  0  0
  151.4573  137.0187  157.0073 H   0  0  0  0  0  0  0  0  0  0  0  0
  151.4465  138.4865  156.1105 H   0  0  0  0  0  0  0  0  0  0  0  0
  151.2273  138.3657  159.1770 H   0  0  0  0  0  0  0  0  0  0  0  0
  153.2864  137.9522  158.6547 H   0  0  0  0  0  0  0  0  0  0  0  0
  151.6404  140.7856  157.3311 H   0  0  0  0  0  0  0  0  0  0  0  0
  150.1270  140.3903  158.1481 H   0  0  0  0  0  0  0  0  0  0  0  0
  150.1737  142.6097  157.8149 H   0  0  0  0  0  0  0  0  0  0  0  0
  149.7723  144.9804  158.2770 H   0  0  0  0  0  0  0  0  0  0  0  0
  150.7073  146.0432  160.3206 H   0  0  0  0  0  0  0  0  0  0  0  0
  152.0526  144.7129  161.9047 H   0  0  0  0  0  0  0  0  0  0  0  0
  146.9379  140.8495  155.5593 H   0  0  0  0  0  0  0  0  0  0  0  0
  145.6028  139.7185  155.4008 H   0  0  0  0  0  0  0  0  0  0  0  0
  146.9394  139.6542  154.2600 H   0  0  0  0  0  0  0  0  0  0  0  0
  1  2  1  0  0  0  0
  1 25  1  0  0  0  0
  1 26  1  0  0  0  0
  1 27  1  0  0  0  0
  2 23  2  0  0  0  0
  2  3  1  0  0  0  0
  3  4  2  0  0  0  0
  4  5  1  0  0  0  0
  4 28  1  0  0  0  0
  5  6  1  0  0  0  0
  5 21  1  0  0  0  0
  6  7  1  0  0  0  0
  6 29  1  0  0  0  0
  6 30  1  0  0  0  0
  7  8  1  0  0  0  0
  7  9  1  0  0  0  0
  7 31  1  0  0  0  0
  8 32  1  0  0  0  0
  9 10  1  0  0  0  0
  9 33  1  0  0  0  0
  9 34  1  0  0  0  0
 10 11  1  0  0  0  0
 11 16  1  0  0  0  0
 11 12  2  0  0  0  0
 12 13  1  0  0  0  0
 12 35  1  0  0  0  0
 13 14  2  0  0  0  0
 13 36  1  0  0  0  0
 14 15  1  0  0  0  0
 14 37  1  0  0  0  0
 15 16  2  0  0  0  0
 15 38  1  0  0  0  0
 16 17  1  0  0  0  0
 17 18  1  0  0  0  0
 17 19  1  0  0  0  0
 17 20  1  0  0  0  0
 21 22  2  0  0  0  0
 21 23  1  0  0  0  0
 23 24  1  0  0  0  0
 24 39  1  0  0  0  0
 24 40  1  0  0  0  0
 24 41  1  0  0  0  0
M  END
> <s_m_source_file>
AV-unprocessed.smi

> <i_m_source_file_index>
2280

> <i_lp_mmshare_version>
43012

> <i_f3d_flags>
0

> <s_epik_input>
W0NIM11jMW5bY0hdbihjKD1PKWMxW0NIM10pW0NIMl1bQ0BIXShbT0hdKVtDSDJdT2MyW2NIXVtjSF1bY0hdW2NIXWMyQyhGKShGKUY=

> <s_epik_cmdline>
J2VwaWtfcHl0aG9uJywgJy1waCcsICc3LjAnLCAnLXRuJywgJzgnLCAnLW1hJywgJzIwMCcsICctbWV0YWxfYmluZGluZycsICctaW1hZScsICc8aW5maWxlLm1hZT4nLCAnLW9tYWUnLCAnPG91dGZpbGUubWFlPic=

> <r_lp_tautomer_probability>
1

> <r_epik_Ionization_Penalty>
3.7476e-05

> <r_epik_Ionization_Penalty_Charging>
8.44705e-08

> <r_epik_Ionization_Penalty_Neutral>
3.73915e-05

> <r_epik_State_Penalty>
-0

> <r_epik_Charging_Adjusted_Penalty>
8.44705e-08

> <i_epik_Tot_Q>
0

> <i_epik_Tot_abs_Q>
0

> <r_epik_Metal_State_Penalty>
-0

> <b_epik_Metal_Only>
0

> <s_lp_Force_Field>
OPLS_2005

> <r_lp_Energy>
26.5065

> <b_lp_Chiralities_Consistent>
1

> <s_lp_Variant>
AV-unprocessed.smi:2280-2

> <Gold.Version>
5.8.1

> <Gold.Id.Protein>
6NUR|6NUR_protein|mol2

> <Gold.PLP.Fitness>
53.2109

> <Gold.PLP.PLP>
-49.5948

> <Gold.PLP.part.hbond>
-3.0000

> <Gold.PLP.part.metal>
0.0000

> <Gold.PLP.part.buried>
-3.2484

> <Gold.PLP.part.nonpolar>
-43.4923

> <Gold.PLP.part.repulsive>
0.5657

> <Gold.PLP.ligand.clash>
0.0000

> <Gold.PLP.ligand.torsion>
1.2069

> <Gold.PLP.Chemscore.Hbond>
1.7984

> <Gold.PLP.Chemscore.CHOScore>
0.0000

> <Gold.PLP.Chemscore.Metal>
0.0000

> <Gold.PLP.Chemscore.Internal.Correction>
0.6348

> <Gold.Rescore>
     Score         DG    S(hbond)    S(metal)    S(lipo)     H(rot)  DE(clash)    DE(int)     intcor
     13.63     -16.75       1.78        0.00     105.21       2.73       0.56       2.56       ----

> <Gold.Chemscore.Fitness>
13.6272

> <Gold.Chemscore.DG>
-16.7473

> <Gold.Chemscore.ZeroCoef>
-5.4800

> <Gold.Chemscore.Hbond>
1.7804

> <Gold.Chemscore.Metal>
0.0000

> <Gold.Chemscore.Lipo>
105.2102

> <Gold.Chemscore.Internal_Hbond>
0.0000

> <Gold.Chemscore.DEClash>
0.5623

> <Gold.Chemscore.DEInternal>
2.5578

> <Gold.Chemscore.Rot>
2.7300

> <Gold.Chemscore.Internal.Correction>
   9.000000E+99

> <Gold.Chemscore.Hbond.Weighted>
-5.9464

> <Gold.Chemscore.Metal.Weighted>
-0.0000

> <Gold.Chemscore.Lipo.Weighted>
-12.3096

> <Gold.Chemscore.Internal_Hbond.Weighted>
0.0000

> <Gold.Chemscore.DEClash.Weighted>
0.5623

> <Gold.Chemscore.DEInternal.Weighted>
2.5578

> <Gold.Chemscore.Rot.Weighted>
6.9888

> <Gold.Chemscore.Internal.Correction.Weighted>
   9.000000E+99

> <Gold.Protein.RotatedTorsions>
[ 6907 6896 6895 6894 ] final -122.64 input  -60.11 | X-H torsion
[ 7974 7965 7964 7962 ] final -130.03 input  175.53 | X-H torsion
[ 8008 7997 7996 7995 ] final  -32.23 input   59.86 | X-H torsion
[ 10167 10162 10161 10158 ] final   90.02 input  -65.29 | X-H torsion
[ 10718 10713 10712 10709 ] final  157.31 input   66.30 | X-H torsion
[ 10763 10752 10751 10750 ] final  -34.37 input  -60.55 | X-H torsion
[ 11005 11000 10999 10996 ] final   98.51 input  -57.11 | X-H torsion

> <Gold.Protein.ActiveResidues>
 VAL166  LYS551  ARG553  GLY616  TRP617  ASP618  TYR619  PRO620  LYS621  CYS622 
 ASP623  PHE694  ASN695  SER759  ASP760  ASP761  ALA762  ILE779  LEU786  VAL792 
 PHE793  MET794  SER795  GLU796  ALA797  LYS798  CYS799  TRP800  GLU811  SER814 

> <Gold.Protein.RotatedAtoms>
  150.8595  133.7665  159.2997 H   0  0  0  0  0  0  0  0  0  0  0  0  # atno 6907 bound_to 6896
  151.5312  135.1067  159.9912 H   0  0  0  0  0  0  0  0  0  0  0  0  # atno 6908 bound_to 6896
  152.4615  133.7789  159.6895 H   0  0  0  0  0  0  0  0  0  0  0  0  # atno 6909 bound_to 6896
  144.9514  140.7349  143.4785 H   0  0  0  0  0  0  0  0  0  0  0  0  # atno 7974 bound_to 7965
  154.4187  140.1743  156.1693 H   0  0  0  0  0  0  0  0  0  0  0  0  # atno 8008 bound_to 7997
  155.9773  140.3380  155.6607 H   0  0  0  0  0  0  0  0  0  0  0  0  # atno 8009 bound_to 7997
  155.6546  140.0694  157.2566 H   0  0  0  0  0  0  0  0  0  0  0  0  # atno 8010 bound_to 7997
  139.8515  144.6591  150.9164 H   0  0  0  0  0  0  0  0  0  0  0  0  # atno 10167 bound_to 10162
  157.1932  131.0659  151.2067 H   0  0  0  0  0  0  0  0  0  0  0  0  # atno 10718 bound_to 10713
  153.8456  135.6853  153.4798 H   0  0  0  0  0  0  0  0  0  0  0  0  # atno 10763 bound_to 10752
  153.1428  135.4650  154.9519 H   0  0  0  0  0  0  0  0  0  0  0  0  # atno 10764 bound_to 10752
  154.7825  135.3274  154.7905 H   0  0  0  0  0  0  0  0  0  0  0  0  # atno 10765 bound_to 10752
  139.8772  134.9052  156.4467 H   0  0  0  0  0  0  0  0  0  0  0  0  # atno 11005 bound_to 11000
  145.2838  139.1908  143.4777 LP  0  0  0  0  0  0  0  0  0  0  0  0  # atno 17320 bound_to 7965
  146.3322  140.2804  142.8610 LP  0  0  0  0  0  0  0  0  0  0  0  0  # atno 17321 bound_to 7965
  140.7787  143.3823  151.1455 LP  0  0  0  0  0  0  0  0  0  0  0  0  # atno 17342 bound_to 10162
  139.7461  143.8850  152.3064 LP  0  0  0  0  0  0  0  0  0  0  0  0  # atno 17343 bound_to 10162
  157.3839  130.7246  149.6650 LP  0  0  0  0  0  0  0  0  0  0  0  0  # atno 17370 bound_to 10713
  155.9709  130.4165  150.4232 LP  0  0  0  0  0  0  0  0  0  0  0  0  # atno 17371 bound_to 10713
  140.8961  133.7813  155.9626 LP  0  0  0  0  0  0  0  0  0  0  0  0  # atno 17394 bound_to 11000
  140.8702  134.2736  157.5194 LP  0  0  0  0  0  0  0  0  0  0  0  0  # atno 17395 bound_to 11000

$$$$
