AV-unprocessed.smi:2342|AV-procd|sdf|9355|dock2
  -GOLD-   2272012573D 1   1.00000     0.00000
 Structure written by MMmdl.
 38 38  0  0  0  0  0  0  0  0  2 V2000
  148.4949  136.5988  156.4109 C   0  0  0  0  0  0  0  0  0  0  0  0
  149.9633  136.5207  155.9418 C   0  0  1  0  0  0  0  0  0  0  0  0
  150.4085  137.7764  155.1492 C   0  0  0  0  0  0  0  0  0  0  0  0
  150.0794  139.0125  155.8495 N   0  0  0  0  0  0  0  0  0  0  0  0
  150.8135  140.1358  155.8352 C   0  0  0  0  0  0  0  0  0  0  0  0
  151.9147  140.2239  155.2924 O   0  0  0  0  0  0  0  0  0  0  0  0
  150.1976  141.3548  156.5236 C   0  0  0  0  0  0  0  0  0  0  0  0
  151.2213  142.0116  157.4046 C   0  0  0  0  0  0  0  0  0  0  0  0
  151.5134  143.3503  157.4723 C   0  0  0  0  0  0  0  0  0  0  0  0
  152.7388  143.6870  158.6621 S   0  0  0  0  0  0  0  0  0  0  0  0
  152.8250  141.9612  159.0342 C   0  0  0  0  0  0  0  0  0  0  0  0
  153.7164  141.3435  160.0844 C   0  0  0  0  0  0  0  0  0  0  0  0
  153.5486  142.0977  161.4179 C   0  0  0  0  0  0  0  0  0  0  0  0
  155.2039  141.4317  159.6800 C   0  0  0  0  0  0  0  0  0  0  0  0
  153.3691  139.8520  160.2561 C   0  0  0  0  0  0  0  0  0  0  0  0
  151.9846  141.2383  158.2854 N   0  0  0  0  0  0  0  0  0  0  0  0
  150.8856  136.2386  157.1443 C   0  0  0  0  0  0  0  0  0  0  0  0
  150.3855  136.2190  158.2914 O   0  0  0  0  0  0  0  0  0  0  0  0
  152.0969  136.0495  156.8947 O   0  5  0  0  0  0  0  0  0  0  0  0
  148.2078  135.7292  157.0028 H   0  0  0  0  0  0  0  0  0  0  0  0
  147.8121  136.6371  155.5623 H   0  0  0  0  0  0  0  0  0  0  0  0
  148.3188  137.4877  157.0172 H   0  0  0  0  0  0  0  0  0  0  0  0
  150.0549  135.6556  155.2838 H   0  0  0  0  0  0  0  0  0  0  0  0
  151.4891  137.7648  155.0011 H   0  0  0  0  0  0  0  0  0  0  0  0
  149.9587  137.7892  154.1547 H   0  0  0  0  0  0  0  0  0  0  0  0
  149.1880  139.0394  156.3230 H   0  0  0  0  0  0  0  0  0  0  0  0
  149.8289  142.0492  155.7675 H   0  0  0  0  0  0  0  0  0  0  0  0
  149.3305  141.0427  157.1071 H   0  0  0  0  0  0  0  0  0  0  0  0
  151.0715  144.1574  156.9067 H   0  0  0  0  0  0  0  0  0  0  0  0
  154.1881  141.6792  162.1959 H   0  0  0  0  0  0  0  0  0  0  0  0
  152.5210  142.0469  161.7803 H   0  0  0  0  0  0  0  0  0  0  0  0
  153.8059  143.1523  161.3121 H   0  0  0  0  0  0  0  0  0  0  0  0
  155.5280  142.4661  159.5584 H   0  0  0  0  0  0  0  0  0  0  0  0
  155.3975  140.9093  158.7425 H   0  0  0  0  0  0  0  0  0  0  0  0
  155.8473  140.9818  160.4372 H   0  0  0  0  0  0  0  0  0  0  0  0
  154.0109  139.3770  160.9987 H   0  0  0  0  0  0  0  0  0  0  0  0
  153.4889  139.3065  159.3191 H   0  0  0  0  0  0  0  0  0  0  0  0
  152.3383  139.7168  160.5853 H   0  0  0  0  0  0  0  0  0  0  0  0
  1  2  1  0  0  0  0
  1 20  1  0  0  0  0
  1 21  1  0  0  0  0
  1 22  1  0  0  0  0
  2  3  1  0  0  0  0
  2 17  1  0  0  0  0
  2 23  1  0  0  0  0
  3  4  1  0  0  0  0
  3 24  1  0  0  0  0
  3 25  1  0  0  0  0
  4  5  1  0  0  0  0
  4 26  1  0  0  0  0
  5  6  2  0  0  0  0
  5  7  1  0  0  0  0
  7  8  1  0  0  0  0
  7 27  1  0  0  0  0
  7 28  1  0  0  0  0
  8 16  1  0  0  0  0
  8  9  2  0  0  0  0
  9 10  1  0  0  0  0
  9 29  1  0  0  0  0
 10 11  1  0  0  0  0
 11 12  1  0  0  0  0
 11 16  2  0  0  0  0
 12 13  1  0  0  0  0
 12 14  1  0  0  0  0
 12 15  1  0  0  0  0
 13 30  1  0  0  0  0
 13 31  1  0  0  0  0
 13 32  1  0  0  0  0
 14 33  1  0  0  0  0
 14 34  1  0  0  0  0
 14 35  1  0  0  0  0
 15 36  1  0  0  0  0
 15 37  1  0  0  0  0
 15 38  1  0  0  0  0
 17 18  2  0  0  0  0
 17 19  1  0  0  0  0
M  CHG  1  19  -1
M  END
> <s_m_source_file>
AV-unprocessed.smi

> <i_m_source_file_index>
2342

> <i_lp_mmshare_version>
43012

> <i_f3d_flags>
0

> <s_epik_input>
Tz1DKFtPSF0pW0NASF0oW0NIM10pW0NIMl1bTkhdQyg9TylbQ0gyXWMxW2NIXXNjKG4xKUMoW0NIM10pKFtDSDNdKVtDSDNd

> <s_epik_cmdline>
J2VwaWtfcHl0aG9uJywgJy1waCcsICc3LjAnLCAnLXRuJywgJzgnLCAnLW1hJywgJzIwMCcsICctbWV0YWxfYmluZGluZycsICctaW1hZScsICc8aW5maWxlLm1hZT4nLCAnLW9tYWUnLCAnPG91dGZpbGUubWFlPic=

> <r_epik_Ionization_Penalty>
0.00120065

> <r_epik_Ionization_Penalty_Charging>
0.00115909

> <r_epik_Ionization_Penalty_Neutral>
4.15663e-05

> <r_epik_State_Penalty>
0.00076313

> <r_epik_Charging_Adjusted_Penalty>
0.00192222

> <i_epik_Tot_Q>
-1

> <i_epik_Tot_abs_Q>
1

> <r_epik_Metal_State_Penalty>
-0

> <b_epik_Metal_Only>
0

> <s_lp_Force_Field>
OPLS_2005

> <r_lp_Energy>
-2.08659

> <b_lp_Chiralities_Consistent>
1

> <s_lp_Variant>
AV-unprocessed.smi:2342-2

> <Gold.Version>
5.8.1

> <Gold.Id.Protein>
6NUR|6NUR_protein|mol2

> <Gold.PLP.Fitness>
47.5758

> <Gold.PLP.PLP>
-33.4473

> <Gold.PLP.part.hbond>
-3.0000

> <Gold.PLP.part.metal>
0.0000

> <Gold.PLP.part.buried>
-4.6758

> <Gold.PLP.part.nonpolar>
-26.2927

> <Gold.PLP.part.repulsive>
0.0532

> <Gold.PLP.ligand.clash>
0.0000

> <Gold.PLP.ligand.torsion>
0.7910

> <Gold.PLP.Chemscore.Hbond>
4.1920

> <Gold.PLP.Chemscore.CHOScore>
1.0000

> <Gold.PLP.Chemscore.Metal>
0.0000

> <Gold.Chemscore.Hbonds>
donor molecule, donor type, donor heavy atom, donor atom, acceptor molecule, acceptor atom, score
      P1  H  6896  6908       L1    18  1.76
      P1  H  7989  7998       L1     6  0.80
      P1  H 10752 10765       L1    19  1.27
      L1  C     9    29       P1  8028  0.95

> <Gold.PLP.Chemscore.Internal.Correction>
0.1346

> <Gold.Rescore>
     Score         DG    S(hbond)    S(metal)    S(lipo)     H(rot)  DE(clash)    DE(int)     intcor
     18.40     -18.98       2.59        0.00      93.66       2.38       0.04       0.54       ----

> <Gold.Chemscore.Fitness>
18.3963

> <Gold.Chemscore.DG>
-18.9775

> <Gold.Chemscore.ZeroCoef>
-5.4800

> <Gold.Chemscore.Hbond>
2.5853

> <Gold.Chemscore.Metal>
0.0000

> <Gold.Chemscore.Lipo>
93.6622

> <Gold.Chemscore.Internal_Hbond>
0.0000

> <Gold.Chemscore.DEClash>
0.0417

> <Gold.Chemscore.DEInternal>
0.5395

> <Gold.Chemscore.Rot>
2.3812

> <Gold.Chemscore.Internal.Correction>
   9.000000E+99

> <Gold.Chemscore.Hbonds>
donor molecule, donor type, donor heavy atom, donor atom, acceptor molecule, acceptor atom, score
      P1  H  6896  6908       L1    18  0.83
      P1  H  7989  7998       L1     6  0.55
      P1  H 10752 10765       L1    19  0.63

> <Gold.Chemscore.Hbond.Weighted>
-8.6350

> <Gold.Chemscore.Metal.Weighted>
-0.0000

> <Gold.Chemscore.Lipo.Weighted>
-10.9585

> <Gold.Chemscore.Internal_Hbond.Weighted>
0.0000

> <Gold.Chemscore.DEClash.Weighted>
0.0417

> <Gold.Chemscore.DEInternal.Weighted>
0.5395

> <Gold.Chemscore.Rot.Weighted>
6.0959

> <Gold.Chemscore.Internal.Correction.Weighted>
   9.000000E+99

> <Gold.Protein.RotatedTorsions>
[ 6907 6896 6895 6894 ] final -170.11 input  -60.11 | X-H torsion
[ 7974 7965 7964 7962 ] final -126.49 input  175.53 | X-H torsion
[ 8008 7997 7996 7995 ] final   93.65 input   59.86 | X-H torsion
[ 10167 10162 10161 10158 ] final   16.44 input  -65.29 | X-H torsion
[ 10718 10713 10712 10709 ] final  -31.91 input   66.30 | X-H torsion
[ 10763 10752 10751 10750 ] final -130.00 input  -60.55 | X-H torsion
[ 11005 11000 10999 10996 ] final  128.95 input  -57.11 | X-H torsion

> <Gold.Protein.ActiveResidues>
 VAL166  LYS551  ARG553  GLY616  TRP617  ASP618  TYR619  PRO620  LYS621  CYS622 
 ASP623  PHE694  ASN695  SER759  ASP760  ASP761  ALA762  ILE779  LEU786  VAL792 
 PHE793  MET794  SER795  GLU796  ALA797  LYS798  CYS799  TRP800  GLU811  SER814 

> <Gold.Protein.RotatedAtoms>
  151.5024  133.3502  159.2870 H   0  0  0  0  0  0  0  0  0  0  0  0  # atno 6907 bound_to 6896
  150.8765  134.8150  159.7204 H   0  0  0  0  0  0  0  0  0  0  0  0  # atno 6908 bound_to 6896
  152.4734  134.4915  159.9748 H   0  0  0  0  0  0  0  0  0  0  0  0  # atno 6909 bound_to 6896
  144.9868  140.7693  143.4579 H   0  0  0  0  0  0  0  0  0  0  0  0  # atno 7974 bound_to 7965
  156.0491  140.3310  155.7330 H   0  0  0  0  0  0  0  0  0  0  0  0  # atno 8008 bound_to 7997
  155.5628  140.0620  157.2842 H   0  0  0  0  0  0  0  0  0  0  0  0  # atno 8009 bound_to 7997
  154.4427  140.1874  156.0788 H   0  0  0  0  0  0  0  0  0  0  0  0  # atno 8010 bound_to 7997
  140.5797  143.9005  150.6779 H   0  0  0  0  0  0  0  0  0  0  0  0  # atno 10167 bound_to 10162
  156.3814  130.4356  149.7466 H   0  0  0  0  0  0  0  0  0  0  0  0  # atno 10718 bound_to 10713
  154.8756  135.3877  154.4012 H   0  0  0  0  0  0  0  0  0  0  0  0  # atno 10763 bound_to 10752
  153.4736  135.7030  153.5984 H   0  0  0  0  0  0  0  0  0  0  0  0  # atno 10764 bound_to 10752
  153.4430  135.3851  155.2207 H   0  0  0  0  0  0  0  0  0  0  0  0  # atno 10765 bound_to 10752
  139.9589  134.9607  156.9077 H   0  0  0  0  0  0  0  0  0  0  0  0  # atno 11005 bound_to 11000
  145.2343  139.2101  143.5026 LP  0  0  0  0  0  0  0  0  0  0  0  0  # atno 17320 bound_to 7965
  146.3422  140.2226  142.8591 LP  0  0  0  0  0  0  0  0  0  0  0  0  # atno 17321 bound_to 7965
  140.2501  143.3600  152.1413 LP  0  0  0  0  0  0  0  0  0  0  0  0  # atno 17342 bound_to 10162
  139.5163  144.6975  151.5589 LP  0  0  0  0  0  0  0  0  0  0  0  0  # atno 17343 bound_to 10162
  156.4555  130.7927  151.2948 LP  0  0  0  0  0  0  0  0  0  0  0  0  # atno 17370 bound_to 10713
  157.7492  131.0082  150.3220 LP  0  0  0  0  0  0  0  0  0  0  0  0  # atno 17371 bound_to 10713
  140.5546  134.0593  155.7380 LP  0  0  0  0  0  0  0  0  0  0  0  0  # atno 17394 bound_to 11000
  141.1263  133.9377  157.2627 LP  0  0  0  0  0  0  0  0  0  0  0  0  # atno 17395 bound_to 11000

$$$$
