AV-unprocessed.smi:1225|AV-procd|sdf|5143|dock9
  -GOLD-   22720 4213D 1   1.00000     0.00000
 Structure written by MMmdl.
 49 51  0  0  0  0  0  0  0  0  2 V2000
  143.9680  145.7631  155.8155 C   0  0  0  0  0  0  0  0  0  0  0  0
  144.5035  144.3724  155.7900 C   0  0  0  0  0  0  0  0  0  0  0  0
  144.5279  143.6088  154.6953 N   0  0  0  0  0  0  0  0  0  0  0  0
  145.0740  142.3466  154.9365 C   0  0  0  0  0  0  0  0  0  0  0  0
  145.4728  142.1540  156.2367 C   0  0  0  0  0  0  0  0  0  0  0  0
  146.0958  140.9323  156.8313 C   0  0  0  0  0  0  0  0  0  0  0  0
  147.2653  140.4464  156.0554 N   0  3  2  0  0  0  0  0  0  0  0  0
  147.9300  139.2823  156.6933 C   0  0  0  0  0  0  0  0  0  0  0  0
  148.2161  141.5402  155.7264 C   0  0  0  0  0  0  0  0  0  0  0  0
  149.5562  141.0115  155.1679 C   0  0  1  0  0  0  0  0  0  0  0  0
  149.5160  141.0741  153.7567 O   0  0  0  0  0  0  0  0  0  0  0  0
  150.7810  141.8203  155.6404 C   0  0  0  0  0  0  0  0  0  0  0  0
  151.2782  141.3785  156.9307 N   0  0  0  0  0  0  0  0  0  0  0  0
  151.5607  140.1152  157.3041 C   0  0  0  0  0  0  0  0  0  0  0  0
  152.0192  139.9338  158.5387 N   0  0  0  0  0  0  0  0  0  0  0  0
  152.0214  141.2283  159.0294 C   0  0  0  0  0  0  0  0  0  0  0  0
  152.3997  141.7290  160.2941 C   0  0  0  0  0  0  0  0  0  0  0  0
  152.3179  143.1103  160.5807 C   0  0  0  0  0  0  0  0  0  0  0  0
  152.7343  143.6053  161.9548 C   0  0  0  0  0  0  0  0  0  0  0  0
  151.8509  144.0146  159.5931 C   0  0  0  0  0  0  0  0  0  0  0  0
  151.7495  145.5021  159.8806 C   0  0  0  0  0  0  0  0  0  0  0  0
  151.4704  143.5313  158.3238 C   0  0  0  0  0  0  0  0  0  0  0  0
  151.5583  142.1549  158.0499 C   0  0  0  0  0  0  0  0  0  0  0  0
  145.1683  143.5714  157.2082 S   0  0  0  0  0  0  0  0  0  0  0  0
  143.6568  146.0741  154.8177 H   0  0  0  0  0  0  0  0  0  0  0  0
  144.7344  146.4513  156.1725 H   0  0  0  0  0  0  0  0  0  0  0  0
  143.1079  145.8188  156.4829 H   0  0  0  0  0  0  0  0  0  0  0  0
  145.1443  141.6435  154.1197 H   0  0  0  0  0  0  0  0  0  0  0  0
  146.4054  141.1741  157.8487 H   0  0  0  0  0  0  0  0  0  0  0  0
  145.3577  140.1335  156.9179 H   0  0  0  0  0  0  0  0  0  0  0  0
  148.3227  139.5483  157.6754 H   0  0  0  0  0  0  0  0  0  0  0  0
  148.7567  138.9104  156.0899 H   0  0  0  0  0  0  0  0  0  0  0  0
  147.2354  138.4520  156.8201 H   0  0  0  0  0  0  0  0  0  0  0  0
  147.7817  142.2086  154.9816 H   0  0  0  0  0  0  0  0  0  0  0  0
  148.3706  142.1462  156.6201 H   0  0  0  0  0  0  0  0  0  0  0  0
  149.7015  139.9698  155.4511 H   0  0  0  0  0  0  0  0  0  0  0  0
  149.2300  140.2357  153.4254 H   0  0  0  0  0  0  0  0  0  0  0  0
  151.5935  141.7381  154.9171 H   0  0  0  0  0  0  0  0  0  0  0  0
  150.5312  142.8803  155.7111 H   0  0  0  0  0  0  0  0  0  0  0  0
  151.4317  139.2822  156.6283 H   0  0  0  0  0  0  0  0  0  0  0  0
  152.7540  141.0400  161.0468 H   0  0  0  0  0  0  0  0  0  0  0  0
  151.9071  144.1196  162.4437 H   0  0  0  0  0  0  0  0  0  0  0  0
  153.5729  144.2968  161.8731 H   0  0  0  0  0  0  0  0  0  0  0  0
  153.0420  142.7812  162.5989 H   0  0  0  0  0  0  0  0  0  0  0  0
  151.3981  146.0531  159.0079 H   0  0  0  0  0  0  0  0  0  0  0  0
  152.7225  145.9058  160.1610 H   0  0  0  0  0  0  0  0  0  0  0  0
  151.0497  145.6855  160.6962 H   0  0  0  0  0  0  0  0  0  0  0  0
  151.1105  144.2098  157.5648 H   0  0  0  0  0  0  0  0  0  0  0  0
  146.8958  140.1301  155.1698 H   0  0  0  0  0  0  0  0  0  0  0  0
  1  2  1  0  0  0  0
  1 25  1  0  0  0  0
  1 26  1  0  0  0  0
  1 27  1  0  0  0  0
  2 24  1  0  0  0  0
  2  3  2  0  0  0  0
  3  4  1  0  0  0  0
  4  5  2  0  0  0  0
  4 28  1  0  0  0  0
  5  6  1  0  0  0  0
  5 24  1  0  0  0  0
  6  7  1  0  0  0  0
  6 29  1  0  0  0  0
  6 30  1  0  0  0  0
  7  8  1  0  0  0  0
  7  9  1  0  0  0  0
  7 49  1  0  0  0  0
  8 31  1  0  0  0  0
  8 32  1  0  0  0  0
  8 33  1  0  0  0  0
  9 10  1  0  0  0  0
  9 34  1  0  0  0  0
  9 35  1  0  0  0  0
 10 11  1  0  0  0  0
 10 12  1  0  0  0  0
 10 36  1  0  0  0  0
 11 37  1  0  0  0  0
 12 13  1  0  0  0  0
 12 38  1  0  0  0  0
 12 39  1  0  0  0  0
 13 23  1  0  0  0  0
 13 14  1  0  0  0  0
 14 15  2  0  0  0  0
 14 40  1  0  0  0  0
 15 16  1  0  0  0  0
 16 23  2  0  0  0  0
 16 17  1  0  0  0  0
 17 18  2  0  0  0  0
 17 41  1  0  0  0  0
 18 19  1  0  0  0  0
 18 20  1  0  0  0  0
 19 42  1  0  0  0  0
 19 43  1  0  0  0  0
 19 44  1  0  0  0  0
 20 21  1  0  0  0  0
 20 22  2  0  0  0  0
 21 45  1  0  0  0  0
 21 46  1  0  0  0  0
 21 47  1  0  0  0  0
 22 23  1  0  0  0  0
 22 48  1  0  0  0  0
M  CHG  1   7   1
M  END
> <s_m_source_file>
AV-unprocessed.smi

> <i_m_source_file_index>
1225

> <i_lp_mmshare_version>
43012

> <i_f3d_flags>
0

> <s_epik_input>
W0NIM11jMW5bY0hdYyhzMSlbQ0gyXU4oW0NIM10pW0NIMl1bQ0BIXShbT0hdKVtDSDJdbihbY0hdbjIpYyhjMjMpW2NIXWMoW0NIM10pYyhbY0hdMylbQ0gzXQ==

> <s_epik_cmdline>
J2VwaWtfcHl0aG9uJywgJy1waCcsICc3LjAnLCAnLXRuJywgJzgnLCAnLW1hJywgJzIwMCcsICctbWV0YWxfYmluZGluZycsICctaW1hZScsICc8aW5maWxlLm1hZT4nLCAnLW9tYWUnLCAnPG91dGZpbGUubWFlPic=

> <r_epik_Ionization_Penalty>
1.62543

> <r_epik_Ionization_Penalty_Charging>
1.53932

> <r_epik_Ionization_Penalty_Neutral>
0.0861152

> <r_epik_State_Penalty>
1.73127

> <r_epik_Charging_Adjusted_Penalty>
3.27059

> <i_epik_Tot_Q>
1

> <i_epik_Tot_abs_Q>
1

> <r_epik_Metal_State_Penalty>
1.71387

> <b_epik_Metal_Only>
0

> <s_lp_Force_Field>
OPLS_2005

> <r_lp_Energy>
12.5396

> <b_lp_Chiralities_Consistent>
1

> <s_lp_Variant>
AV-unprocessed.smi:1225-8

> <Gold.Version>
5.8.1

> <Gold.Id.Protein>
6NUR|6NUR_protein|mol2

> <Gold.PLP.Fitness>
49.2463

> <Gold.PLP.PLP>
-44.7208

> <Gold.PLP.part.hbond>
-3.0000

> <Gold.PLP.part.metal>
0.0000

> <Gold.PLP.part.buried>
-5.6960

> <Gold.PLP.part.nonpolar>
-34.7251

> <Gold.PLP.part.repulsive>
0.1755

> <Gold.PLP.ligand.clash>
0.0000

> <Gold.PLP.ligand.torsion>
1.1204

> <Gold.PLP.Chemscore.Hbond>
1.2227

> <Gold.PLP.Chemscore.CHOScore>
1.0000

> <Gold.PLP.Chemscore.Metal>
0.0000

> <Gold.Chemscore.Hbonds>
donor molecule, donor type, donor heavy atom, donor atom, acceptor molecule, acceptor atom, score
      L1  H    11    37       P1  7957  0.07
      P1  H  7989  7998       L1    11  0.21
      P1  H  8011  8017       L1    11  0.94
      L1  C     4    28       P1 10175  1.00

> <Gold.PLP.Chemscore.Internal.Correction>
0.0982

> <Gold.Rescore>
     Score         DG    S(hbond)    S(metal)    S(lipo)     H(rot)  DE(clash)    DE(int)     intcor
     14.81     -17.47       1.09        0.00     123.23       2.37       1.92       0.74       ----

> <Gold.Chemscore.Fitness>
14.8123

> <Gold.Chemscore.DG>
-17.4707

> <Gold.Chemscore.ZeroCoef>
-5.4800

> <Gold.Chemscore.Hbond>
1.0935

> <Gold.Chemscore.Metal>
0.0000

> <Gold.Chemscore.Lipo>
123.2342

> <Gold.Chemscore.Internal_Hbond>
0.0000

> <Gold.Chemscore.DEClash>
1.9183

> <Gold.Chemscore.DEInternal>
0.7400

> <Gold.Chemscore.Rot>
2.3750

> <Gold.Chemscore.Internal.Correction>
   9.000000E+99

> <Gold.Chemscore.Hbonds>
donor molecule, donor type, donor heavy atom, donor atom, acceptor molecule, acceptor atom, score
      L1  H    11    37       P1  7957  0.08
      P1  H  7989  7998       L1    11  0.01
      P1  H  8011  8017       L1    11  0.76

> <Gold.Chemscore.Hbond.Weighted>
-3.6523

> <Gold.Chemscore.Metal.Weighted>
-0.0000

> <Gold.Chemscore.Lipo.Weighted>
-14.4184

> <Gold.Chemscore.Internal_Hbond.Weighted>
0.0000

> <Gold.Chemscore.DEClash.Weighted>
1.9183

> <Gold.Chemscore.DEInternal.Weighted>
0.7400

> <Gold.Chemscore.Rot.Weighted>
6.0800

> <Gold.Chemscore.Internal.Correction.Weighted>
   9.000000E+99

> <Gold.Protein.RotatedTorsions>
[ 6907 6896 6895 6894 ] final  -14.27 input  -60.11 | X-H torsion
[ 7974 7965 7964 7962 ] final   29.10 input  175.53 | X-H torsion
[ 8008 7997 7996 7995 ] final  174.32 input   59.86 | X-H torsion
[ 10167 10162 10161 10158 ] final -129.25 input  -65.29 | X-H torsion
[ 10718 10713 10712 10709 ] final -132.64 input   66.30 | X-H torsion
[ 10763 10752 10751 10750 ] final   98.03 input  -60.55 | X-H torsion
[ 11005 11000 10999 10996 ] final -150.58 input  -57.11 | X-H torsion

> <Gold.Protein.ActiveResidues>
 VAL166  LYS551  ARG553  GLY616  TRP617  ASP618  TYR619  PRO620  LYS621  CYS622 
 ASP623  PHE694  ASN695  SER759  ASP760  ASP761  ALA762  ILE779  LEU786  VAL792 
 PHE793  MET794  SER795  GLU796  ALA797  LYS798  CYS799  TRP800  GLU811  SER814 

> <Gold.Protein.RotatedAtoms>
  151.3419  135.0865  159.9373 H   0  0  0  0  0  0  0  0  0  0  0  0  # atno 6907 bound_to 6896
  152.5209  133.9438  159.7649 H   0  0  0  0  0  0  0  0  0  0  0  0  # atno 6908 bound_to 6896
  150.9797  133.6205  159.2754 H   0  0  0  0  0  0  0  0  0  0  0  0  # atno 6909 bound_to 6896
  146.1691  139.6966  142.8980 H   0  0  0  0  0  0  0  0  0  0  0  0  # atno 7974 bound_to 7965
  156.0986  140.1437  156.9498 H   0  0  0  0  0  0  0  0  0  0  0  0  # atno 8008 bound_to 7997
  154.4687  140.0917  156.7135 H   0  0  0  0  0  0  0  0  0  0  0  0  # atno 8009 bound_to 7997
  155.4799  140.3444  155.4340 H   0  0  0  0  0  0  0  0  0  0  0  0  # atno 8010 bound_to 7997
  139.9418  143.6155  152.2501 H   0  0  0  0  0  0  0  0  0  0  0  0  # atno 10167 bound_to 10162
  156.2366  130.7070  151.0914 H   0  0  0  0  0  0  0  0  0  0  0  0  # atno 10718 bound_to 10713
  153.2841  135.4162  155.1106 H   0  0  0  0  0  0  0  0  0  0  0  0  # atno 10763 bound_to 10752
  154.8499  135.3502  154.6072 H   0  0  0  0  0  0  0  0  0  0  0  0  # atno 10764 bound_to 10752
  153.6493  135.7053  153.5272 H   0  0  0  0  0  0  0  0  0  0  0  0  # atno 10765 bound_to 10752
  140.7387  134.3539  157.5152 H   0  0  0  0  0  0  0  0  0  0  0  0  # atno 11005 bound_to 11000
  145.4389  141.0421  143.2868 LP  0  0  0  0  0  0  0  0  0  0  0  0  # atno 17320 bound_to 7965
  144.8136  139.5918  143.7018 LP  0  0  0  0  0  0  0  0  0  0  0  0  # atno 17321 bound_to 7965
  139.6699  144.7661  151.1803 LP  0  0  0  0  0  0  0  0  0  0  0  0  # atno 17342 bound_to 10162
  140.7609  143.5882  150.8824 LP  0  0  0  0  0  0  0  0  0  0  0  0  # atno 17343 bound_to 10162
  157.7157  131.0711  150.6335 LP  0  0  0  0  0  0  0  0  0  0  0  0  # atno 17370 bound_to 10713
  156.6406  130.4457  149.5754 LP  0  0  0  0  0  0  0  0  0  0  0  0  # atno 17371 bound_to 10713
  139.8810  134.9066  156.2927 LP  0  0  0  0  0  0  0  0  0  0  0  0  # atno 17394 bound_to 11000
  140.9856  133.7240  156.0737 LP  0  0  0  0  0  0  0  0  0  0  0  0  # atno 17395 bound_to 11000

$$$$
