AV-unprocessed.smi:2144|AV-procd|sdf|8733|dock10
  -GOLD-   2272011503D 1   1.00000     0.00000
 Structure written by MMmdl.
 41 43  0  0  0  0  0  0  0  0  2 V2000
  147.4265  140.2067  151.7191 O   0  0  0  0  0  0  0  0  0  0  0  0
  147.3448  139.9935  153.1130 C   0  0  0  0  0  0  0  0  0  0  0  0
  148.6810  139.8114  153.7612 C   0  0  0  0  0  0  0  0  0  0  0  0
  149.5728  138.8110  153.5067 N   0  3  0  0  0  0  0  0  0  0  0  0
  150.7044  138.9686  154.3073 C   0  0  0  0  0  0  0  0  0  0  0  0
  151.8664  138.2095  154.4037 C   0  0  0  0  0  0  0  0  0  0  0  0
  152.8331  138.6482  155.3324 C   0  0  0  0  0  0  0  0  0  0  0  0
  152.6257  139.7992  156.1202 C   0  0  0  0  0  0  0  0  0  0  0  0
  151.4438  140.5618  156.0121 C   0  0  0  0  0  0  0  0  0  0  0  0
  150.4937  140.1211  155.0913 C   0  0  0  0  0  0  0  0  0  0  0  0
  149.2364  140.6093  154.7187 N   0  0  0  0  0  0  0  0  0  0  0  0
  148.7189  141.8248  155.3671 C   0  0  0  0  0  0  0  0  0  0  0  0
  148.0647  141.5463  156.7356 C   0  0  1  0  0  0  0  0  0  0  0  0
  147.1356  140.4902  156.5914 O   0  0  0  0  0  0  0  0  0  0  0  0
  149.1022  141.1478  157.7973 C   0  0  0  0  0  0  0  0  0  0  0  0
  149.7800  142.3183  158.2349 O   0  0  0  0  0  0  0  0  0  0  0  0
  150.7663  142.1878  159.1896 C   0  0  0  0  0  0  0  0  0  0  0  0
  151.1583  140.9522  159.7653 C   0  0  0  0  0  0  0  0  0  0  0  0
  152.1782  140.9090  160.7361 C   0  0  0  0  0  0  0  0  0  0  0  0
  152.8178  142.0942  161.1433 C   0  0  0  0  0  0  0  0  0  0  0  0
  152.4357  143.3246  160.5781 C   0  0  0  0  0  0  0  0  0  0  0  0
  151.4164  143.3693  159.6071 C   0  0  0  0  0  0  0  0  0  0  0  0
  151.0589  144.5603  159.0703 F   0  0  0  0  0  0  0  0  0  0  0  0
  148.3306  140.3639  151.4917 H   0  0  0  0  0  0  0  0  0  0  0  0
  146.8356  140.8433  153.5680 H   0  0  0  0  0  0  0  0  0  0  0  0
  146.7348  139.1097  153.3018 H   0  0  0  0  0  0  0  0  0  0  0  0
  152.0271  137.3272  153.8016 H   0  0  0  0  0  0  0  0  0  0  0  0
  153.7519  138.0903  155.4431 H   0  0  0  0  0  0  0  0  0  0  0  0
  153.3890  140.1042  156.8215 H   0  0  0  0  0  0  0  0  0  0  0  0
  151.2945  141.4427  156.6191 H   0  0  0  0  0  0  0  0  0  0  0  0
  149.5498  142.5224  155.4792 H   0  0  0  0  0  0  0  0  0  0  0  0
  148.0114  142.3006  154.6865 H   0  0  0  0  0  0  0  0  0  0  0  0
  147.5319  142.4384  157.0669 H   0  0  0  0  0  0  0  0  0  0  0  0
  146.2633  140.8502  156.6380 H   0  0  0  0  0  0  0  0  0  0  0  0
  148.6265  140.6204  158.6262 H   0  0  0  0  0  0  0  0  0  0  0  0
  149.8355  140.4748  157.3498 H   0  0  0  0  0  0  0  0  0  0  0  0
  150.6923  140.0217  159.4794 H   0  0  0  0  0  0  0  0  0  0  0  0
  152.4701  139.9636  161.1692 H   0  0  0  0  0  0  0  0  0  0  0  0
  153.5996  142.0600  161.8878 H   0  0  0  0  0  0  0  0  0  0  0  0
  152.9239  144.2361  160.8893 H   0  0  0  0  0  0  0  0  0  0  0  0
  149.4110  138.0755  152.8306 H   0  0  0  0  0  0  0  0  0  0  0  0
  1  2  1  0  0  0  0
  1 24  1  0  0  0  0
  2  3  1  0  0  0  0
  2 25  1  0  0  0  0
  2 26  1  0  0  0  0
  3 11  1  0  0  0  0
  3  4  2  0  0  0  0
  4  5  1  0  0  0  0
  4 41  1  0  0  0  0
  5 10  2  0  0  0  0
  5  6  1  0  0  0  0
  6  7  2  0  0  0  0
  6 27  1  0  0  0  0
  7  8  1  0  0  0  0
  7 28  1  0  0  0  0
  8  9  2  0  0  0  0
  8 29  1  0  0  0  0
  9 10  1  0  0  0  0
  9 30  1  0  0  0  0
 10 11  1  0  0  0  0
 11 12  1  0  0  0  0
 12 13  1  0  0  0  0
 12 31  1  0  0  0  0
 12 32  1  0  0  0  0
 13 14  1  0  0  0  0
 13 15  1  0  0  0  0
 13 33  1  0  0  0  0
 14 34  1  0  0  0  0
 15 16  1  0  0  0  0
 15 35  1  0  0  0  0
 15 36  1  0  0  0  0
 16 17  1  0  0  0  0
 17 22  1  0  0  0  0
 17 18  2  0  0  0  0
 18 19  1  0  0  0  0
 18 37  1  0  0  0  0
 19 20  2  0  0  0  0
 19 38  1  0  0  0  0
 20 21  1  0  0  0  0
 20 39  1  0  0  0  0
 21 22  2  0  0  0  0
 21 40  1  0  0  0  0
 22 23  1  0  0  0  0
M  CHG  1   4   1
M  END
> <s_m_source_file>
AV-unprocessed.smi

> <i_m_source_file_index>
2144

> <i_lp_mmshare_version>
43012

> <i_f3d_flags>
0

> <s_epik_input>
W2NIXTFbY0hdW2NIXVtjSF1jKGMxMiluKGMobjIpW0NIMl1bT0hdKVtDSDJdW0NASF0oW09IXSlbQ0gyXU9jM1tjSF1bY0hdW2NIXVtjSF1jM0Y=

> <s_epik_cmdline>
J2VwaWtfcHl0aG9uJywgJy1waCcsICc3LjAnLCAnLXRuJywgJzgnLCAnLW1hJywgJzIwMCcsICctbWV0YWxfYmluZGluZycsICctaW1hZScsICc8aW5maWxlLm1hZT4nLCAnLW9tYWUnLCAnPG91dGZpbGUubWFlPic=

> <r_lp_tautomer_probability>
1

> <r_epik_Ionization_Penalty>
1.44003

> <r_epik_Ionization_Penalty_Charging>
1.43917

> <r_epik_Ionization_Penalty_Neutral>
0.000858184

> <r_epik_State_Penalty>
1.52442

> <r_epik_Charging_Adjusted_Penalty>
2.96359

> <i_epik_Tot_Q>
1

> <i_epik_Tot_abs_Q>
1

> <r_epik_Metal_State_Penalty>
5.57019

> <b_epik_Metal_Only>
0

> <s_lp_Force_Field>
OPLS_2005

> <r_lp_Energy>
20.1924

> <b_lp_Chiralities_Consistent>
1

> <s_lp_Variant>
AV-unprocessed.smi:2144-4

> <Gold.Version>
5.8.1

> <Gold.Id.Protein>
6NUR|6NUR_protein|mol2

> <Gold.PLP.Fitness>
59.1142

> <Gold.PLP.PLP>
-51.0942

> <Gold.PLP.part.hbond>
-3.0000

> <Gold.PLP.part.metal>
0.0000

> <Gold.PLP.part.buried>
3.0346

> <Gold.PLP.part.nonpolar>
-50.9351

> <Gold.PLP.part.repulsive>
0.1773

> <Gold.PLP.ligand.clash>
0.0000

> <Gold.PLP.ligand.torsion>
0.5121

> <Gold.PLP.Chemscore.Hbond>
3.0000

> <Gold.PLP.Chemscore.CHOScore>
0.0000

> <Gold.PLP.Chemscore.Metal>
0.0000

> <Gold.Chemscore.Hbonds>
donor molecule, donor type, donor heavy atom, donor atom, acceptor molecule, acceptor atom, score
      L1  H     1    24       P1  7957  0.47
      L1  H     4    41       P1  7948  1.69

> <Gold.PLP.Chemscore.Internal.Correction>
0.0441

> <Gold.Rescore>
     Score         DG    S(hbond)    S(metal)    S(lipo)     H(rot)  DE(clash)    DE(int)     intcor
     14.55     -18.28       1.93        0.00     126.94       3.31       1.42       2.31       ----

> <Gold.Chemscore.Fitness>
14.5452

> <Gold.Chemscore.DG>
-18.2801

> <Gold.Chemscore.ZeroCoef>
-5.4800

> <Gold.Chemscore.Hbond>
1.9252

> <Gold.Chemscore.Metal>
0.0000

> <Gold.Chemscore.Lipo>
126.9435

> <Gold.Chemscore.Internal_Hbond>
0.0000

> <Gold.Chemscore.DEClash>
1.4235

> <Gold.Chemscore.DEInternal>
2.3114

> <Gold.Chemscore.Rot>
3.3134

> <Gold.Chemscore.Internal.Correction>
   9.000000E+99

> <Gold.Chemscore.Hbonds>
donor molecule, donor type, donor heavy atom, donor atom, acceptor molecule, acceptor atom, score
      L1  H     1    24       P1  7957  0.47
      L1  H     4    41       P1  7948  0.72

> <Gold.Chemscore.Hbond.Weighted>
-6.4300

> <Gold.Chemscore.Metal.Weighted>
-0.0000

> <Gold.Chemscore.Lipo.Weighted>
-14.8524

> <Gold.Chemscore.Internal_Hbond.Weighted>
0.0000

> <Gold.Chemscore.DEClash.Weighted>
1.4235

> <Gold.Chemscore.DEInternal.Weighted>
2.3114

> <Gold.Chemscore.Rot.Weighted>
8.4823

> <Gold.Chemscore.Internal.Correction.Weighted>
   9.000000E+99

> <Gold.Protein.RotatedTorsions>
[ 6907 6896 6895 6894 ] final  -21.85 input  -60.11 | X-H torsion
[ 7974 7965 7964 7962 ] final -108.54 input  175.53 | X-H torsion
[ 8008 7997 7996 7995 ] final    2.47 input   59.86 | X-H torsion
[ 10167 10162 10161 10158 ] final -113.62 input  -65.29 | X-H torsion
[ 10718 10713 10712 10709 ] final -152.90 input   66.30 | X-H torsion
[ 10763 10752 10751 10750 ] final   32.24 input  -60.55 | X-H torsion
[ 11005 11000 10999 10996 ] final   62.01 input  -57.11 | X-H torsion

> <Gold.Protein.ActiveResidues>
 VAL166  LYS551  ARG553  GLY616  TRP617  ASP618  TYR619  PRO620  LYS621  CYS622 
 ASP623  PHE694  ASN695  SER759  ASP760  ASP761  ALA762  ILE779  LEU786  VAL792 
 PHE793  MET794  SER795  GLU796  ALA797  LYS798  CYS799  TRP800  GLU811  SER814 

> <Gold.Protein.RotatedAtoms>
  151.2272  135.0541  159.8972 H   0  0  0  0  0  0  0  0  0  0  0  0  # atno 6907 bound_to 6896
  152.5409  134.0576  159.8148 H   0  0  0  0  0  0  0  0  0  0  0  0  # atno 6908 bound_to 6896
  151.0751  133.5386  159.2656 H   0  0  0  0  0  0  0  0  0  0  0  0  # atno 6909 bound_to 6896
  145.1916  140.9017  143.3421 H   0  0  0  0  0  0  0  0  0  0  0  0  # atno 7974 bound_to 7965
  154.6920  140.2655  155.6803 H   0  0  0  0  0  0  0  0  0  0  0  0  # atno 8008 bound_to 7997
  156.2735  140.2789  156.1425 H   0  0  0  0  0  0  0  0  0  0  0  0  # atno 8009 bound_to 7997
  155.0883  140.0373  157.2651 H   0  0  0  0  0  0  0  0  0  0  0  0  # atno 8010 bound_to 7997
  140.1099  143.4537  152.1759 H   0  0  0  0  0  0  0  0  0  0  0  0  # atno 10167 bound_to 10162
  156.4787  130.8293  151.2520 H   0  0  0  0  0  0  0  0  0  0  0  0  # atno 10718 bound_to 10713
  153.0272  135.6418  154.1325 H   0  0  0  0  0  0  0  0  0  0  0  0  # atno 10763 bound_to 10752
  154.1052  135.2857  155.3244 H   0  0  0  0  0  0  0  0  0  0  0  0  # atno 10764 bound_to 10752
  154.6370  135.5473  153.7809 H   0  0  0  0  0  0  0  0  0  0  0  0  # atno 10765 bound_to 10752
  140.0121  134.6280  155.9764 H   0  0  0  0  0  0  0  0  0  0  0  0  # atno 11005 bound_to 11000
  145.0036  139.3575  143.6155 LP  0  0  0  0  0  0  0  0  0  0  0  0  # atno 17320 bound_to 7965
  146.3435  139.9269  142.8759 LP  0  0  0  0  0  0  0  0  0  0  0  0  # atno 17321 bound_to 7965
  139.5625  144.7415  151.4115 LP  0  0  0  0  0  0  0  0  0  0  0  0  # atno 17342 bound_to 10162
  140.6931  143.7813  150.7286 LP  0  0  0  0  0  0  0  0  0  0  0  0  # atno 17343 bound_to 10162
  157.7485  131.0052  150.3105 LP  0  0  0  0  0  0  0  0  0  0  0  0  # atno 17370 bound_to 10713
  156.3544  130.3836  149.7303 LP  0  0  0  0  0  0  0  0  0  0  0  0  # atno 17371 bound_to 10713
  141.1718  133.6538  156.4680 LP  0  0  0  0  0  0  0  0  0  0  0  0  # atno 17394 bound_to 11000
  140.4535  134.6907  157.5051 LP  0  0  0  0  0  0  0  0  0  0  0  0  # atno 17395 bound_to 11000

$$$$
