AV-unprocessed.smi:72|AV-procd|sdf|756|dock10
  -GOLD-   2262017 93D 1   1.00000     0.00000
 Structure written by MMmdl.
 29 30  0  0  0  0  0  0  0  0  1 V2000
  152.6590  140.8299  159.0141 N   0  0  0  0  0  0  0  0  0  0  0  0
  151.8382  140.8787  157.9071 C   0  0  0  0  0  0  0  0  0  0  0  0
  150.7481  141.7557  157.9781 N   0  0  0  0  0  0  0  0  0  0  0  0
  149.9796  141.8122  156.9369 C   0  0  0  0  0  0  0  0  0  0  0  0
  150.2541  141.0194  155.7478 N   0  0  0  0  0  0  0  0  0  0  0  0
  149.3625  141.0437  154.5149 C   0  0  1  0  0  0  0  0  0  0  0  0
  149.0805  139.7372  154.1032 O   0  0  0  0  0  0  0  0  0  0  0  0
  147.8175  139.3308  154.6215 C   0  0  2  0  0  0  0  0  0  0  0  0
  147.2827  138.0915  153.8831 C   0  0  0  0  0  0  0  0  0  0  0  0
  148.1624  137.0033  154.0705 O   0  0  0  0  0  0  0  0  0  0  0  0
  146.9891  140.6098  154.4691 C   0  0  2  0  0  0  0  0  0  0  0  0
  146.4927  140.7295  153.1448 O   0  0  0  0  0  0  0  0  0  0  0  0
  147.9991  141.7030  154.8246 C   0  0  2  0  0  0  0  0  0  0  0  0
  147.7781  142.8974  154.0984 O   0  0  0  0  0  0  0  0  0  0  0  0
  151.3571  140.1202  155.7651 C   0  0  0  0  0  0  0  0  0  0  0  0
  151.5788  139.3949  154.7957 O   0  0  0  0  0  0  0  0  0  0  0  0
  152.1587  140.1029  156.9124 N   0  0  0  0  0  0  0  0  0  0  0  0
  149.9506  141.5519  153.7486 H   0  0  0  0  0  0  0  0  0  0  0  0
  147.9112  139.1154  155.6876 H   0  0  0  0  0  0  0  0  0  0  0  0
  146.1365  140.6172  155.1490 H   0  0  0  0  0  0  0  0  0  0  0  0
  147.9331  141.9175  155.8924 H   0  0  0  0  0  0  0  0  0  0  0  0
  153.4715  140.2339  159.0773 H   0  0  0  0  0  0  0  0  0  0  0  0
  152.5107  141.3892  159.8413 H   0  0  0  0  0  0  0  0  0  0  0  0
  149.0952  142.4479  156.8970 H   0  0  0  0  0  0  0  0  0  0  0  0
  146.3134  137.8010  154.2893 H   0  0  0  0  0  0  0  0  0  0  0  0
  147.1462  138.2882  152.8192 H   0  0  0  0  0  0  0  0  0  0  0  0
  148.5581  136.7905  153.2394 H   0  0  0  0  0  0  0  0  0  0  0  0
  145.5576  140.5936  153.1656 H   0  0  0  0  0  0  0  0  0  0  0  0
  148.2340  143.5996  154.5374 H   0  0  0  0  0  0  0  0  0  0  0  0
  1  2  1  0  0  0  0
  1 22  1  0  0  0  0
  1 23  1  0  0  0  0
  2 17  2  0  0  0  0
  2  3  1  0  0  0  0
  3  4  2  0  0  0  0
  4  5  1  0  0  0  0
  4 24  1  0  0  0  0
  5  6  1  0  0  0  0
  5 15  1  0  0  0  0
  6 18  1  0  0  0  0
  6 13  1  0  0  0  0
  6  7  1  0  0  0  0
  7  8  1  0  0  0  0
  8 19  1  0  0  0  0
  8  9  1  0  0  0  0
  8 11  1  0  0  0  0
  9 10  1  0  0  0  0
  9 25  1  0  0  0  0
  9 26  1  0  0  0  0
 10 27  1  0  0  0  0
 11 20  1  0  0  0  0
 11 12  1  0  0  0  0
 11 13  1  0  0  0  0
 12 28  1  0  0  0  0
 13 21  1  0  0  0  0
 13 14  1  0  0  0  0
 14 29  1  0  0  0  0
 15 16  2  0  0  0  0
 15 17  1  0  0  0  0
M  END
> <s_m_source_file>
AV-unprocessed.smi

> <i_m_source_file_index>
72

> <i_lp_mmshare_version>
43012

> <i_f3d_flags>
0

> <s_epik_input>
W05IMl1jMW5bY0hdbihjKD1PKW4xKVtDQEBIXTJPW0NASF0oW0NIMl1bT0hdKVtDQEBIXShbT0hdKVtDQEhdMltPSF0=

> <s_epik_cmdline>
J2VwaWtfcHl0aG9uJywgJy1waCcsICc3LjAnLCAnLXRuJywgJzgnLCAnLW1hJywgJzIwMCcsICctbWV0YWxfYmluZGluZycsICctaW1hZScsICc8aW5maWxlLm1hZT4nLCAnLW9tYWUnLCAnPG91dGZpbGUubWFlPic=

> <r_lp_tautomer_probability>
4.77166e-05

> <r_epik_Ionization_Penalty>
1.3546

> <r_epik_Ionization_Penalty_Charging>
1.46833e-10

> <r_epik_Ionization_Penalty_Neutral>
1.3546

> <r_epik_State_Penalty>
3.51908

> <r_epik_Charging_Adjusted_Penalty>
3.51908

> <i_epik_Tot_Q>
0

> <i_epik_Tot_abs_Q>
0

> <r_epik_Metal_State_Penalty>
3.44088

> <b_epik_Metal_Only>
1

> <s_epik_Chemistry_Notes>
This compound contains an acetal/aminal-like group ( X-CH(R)-Y where X, Y are N, S, or O) that may be acid/base labile, releasing an aldehyde.

> <s_lp_Force_Field>
OPLS_2005

> <r_lp_Energy>
31.1202

> <b_lp_Chiralities_Consistent>
1

> <s_lp_Variant>
AV-unprocessed.smi:72-94

> <Gold.Version>
5.8.1

> <Gold.Id.Protein>
6NUR|6NUR_protein|mol2

> <Gold.PLP.Fitness>
41.0691

> <Gold.PLP.PLP>
-25.1614

> <Gold.PLP.part.hbond>
-7.0000

> <Gold.PLP.part.metal>
0.0000

> <Gold.PLP.part.buried>
-1.1621

> <Gold.PLP.part.nonpolar>
-16.6633

> <Gold.PLP.part.repulsive>
1.1377

> <Gold.PLP.ligand.clash>
0.0000

> <Gold.PLP.ligand.torsion>
0.3780

> <Gold.PLP.Chemscore.Hbond>
4.5512

> <Gold.PLP.Chemscore.CHOScore>
0.9941

> <Gold.PLP.Chemscore.Metal>
0.0000

> <Gold.Chemscore.Hbonds>
donor molecule, donor type, donor heavy atom, donor atom, acceptor molecule, acceptor atom, score
      L1  H    10    27       P1  7948  1.00
      L1  H    12    28       P1 10175  1.00
      L1  H    14    29       P1  8028  1.00
      P1  H  7989  7998       L1    16  0.75
      P1  H  7997  8010       L1    17  0.52
      L1  C     4    24       P1  8028  0.79

> <Gold.PLP.Chemscore.Internal.Correction>
0.0275

> <Gold.Rescore>
     Score         DG    S(hbond)    S(metal)    S(lipo)     H(rot)  DE(clash)    DE(int)     intcor
      8.20     -10.05       3.92        0.00      15.89       4.06       0.14       1.71       ----

> <Gold.Chemscore.Fitness>
8.1994

> <Gold.Chemscore.DG>
-10.0548

> <Gold.Chemscore.ZeroCoef>
-5.4800

> <Gold.Chemscore.Hbond>
3.9250

> <Gold.Chemscore.Metal>
0.0000

> <Gold.Chemscore.Lipo>
15.8892

> <Gold.Chemscore.Internal_Hbond>
0.0000

> <Gold.Chemscore.DEClash>
0.1437

> <Gold.Chemscore.DEInternal>
1.7117

> <Gold.Chemscore.Rot>
4.0600

> <Gold.Chemscore.Internal.Correction>
   9.000000E+99

> <Gold.Chemscore.Hbonds>
donor molecule, donor type, donor heavy atom, donor atom, acceptor molecule, acceptor atom, score
      L1  H    10    27       P1  7948  0.93
      L1  H    12    28       P1 10175  0.82
      L1  H    14    29       P1  8028  0.93
      P1  H  7989  7998       L1    16  0.09
      P1  H  7997  8010       L1    17  0.37

> <Gold.Chemscore.Hbond.Weighted>
-13.1094

> <Gold.Chemscore.Metal.Weighted>
-0.0000

> <Gold.Chemscore.Lipo.Weighted>
-1.8590

> <Gold.Chemscore.Internal_Hbond.Weighted>
0.0000

> <Gold.Chemscore.DEClash.Weighted>
0.1437

> <Gold.Chemscore.DEInternal.Weighted>
1.7117

> <Gold.Chemscore.Rot.Weighted>
10.3936

> <Gold.Chemscore.Internal.Correction.Weighted>
   9.000000E+99

> <Gold.Protein.RotatedTorsions>
[ 6907 6896 6895 6894 ] final  136.69 input  -60.11 | X-H torsion
[ 7974 7965 7964 7962 ] final  -95.93 input  175.53 | X-H torsion
[ 8008 7997 7996 7995 ] final   68.82 input   59.86 | X-H torsion
[ 10167 10162 10161 10158 ] final -178.93 input  -65.29 | X-H torsion
[ 10718 10713 10712 10709 ] final  -32.72 input   66.30 | X-H torsion
[ 10763 10752 10751 10750 ] final  -63.32 input  -60.55 | X-H torsion
[ 11005 11000 10999 10996 ] final -126.97 input  -57.11 | X-H torsion

> <Gold.Protein.ActiveResidues>
 VAL166  LYS551  ARG553  GLY616  TRP617  ASP618  TYR619  PRO620  LYS621  CYS622 
 ASP623  PHE694  ASN695  SER759  ASP760  ASP761  ALA762  ILE779  LEU786  VAL792 
 PHE793  MET794  SER795  GLU796  ALA797  LYS798  CYS799  TRP800  GLU811  SER814 

> <Gold.Protein.RotatedAtoms>
  152.2865  133.5520  159.5530 H   0  0  0  0  0  0  0  0  0  0  0  0  # atno 6907 bound_to 6896
  150.7217  134.0489  159.3800 H   0  0  0  0  0  0  0  0  0  0  0  0  # atno 6908 bound_to 6896
  151.8397  135.0594  160.0497 H   0  0  0  0  0  0  0  0  0  0  0  0  # atno 6909 bound_to 6896
  145.3535  140.9480  143.2541 H   0  0  0  0  0  0  0  0  0  0  0  0  # atno 7974 bound_to 7965
  155.7141  140.3494  155.4987 H   0  0  0  0  0  0  0  0  0  0  0  0  # atno 8008 bound_to 7997
  155.9329  140.1087  157.1140 H   0  0  0  0  0  0  0  0  0  0  0  0  # atno 8009 bound_to 7997
  154.4088  140.1227  156.4813 H   0  0  0  0  0  0  0  0  0  0  0  0  # atno 8010 bound_to 7997
  139.5409  144.2365  152.0893 H   0  0  0  0  0  0  0  0  0  0  0  0  # atno 10167 bound_to 10162
  156.3714  130.4340  149.7542 H   0  0  0  0  0  0  0  0  0  0  0  0  # atno 10718 bound_to 10713
  154.3133  135.6211  153.5475 H   0  0  0  0  0  0  0  0  0  0  0  0  # atno 10763 bound_to 10752
  152.9827  135.5706  154.5152 H   0  0  0  0  0  0  0  0  0  0  0  0  # atno 10764 bound_to 10752
  154.4806  135.2863  155.1550 H   0  0  0  0  0  0  0  0  0  0  0  0  # atno 10765 bound_to 10752
  140.9638  134.0900  157.3941 H   0  0  0  0  0  0  0  0  0  0  0  0  # atno 11005 bound_to 11000
  144.8699  139.5053  143.6772 LP  0  0  0  0  0  0  0  0  0  0  0  0  # atno 17320 bound_to 7965
  146.2958  139.7273  142.9128 LP  0  0  0  0  0  0  0  0  0  0  0  0  # atno 17321 bound_to 7965
  140.1843  144.4814  150.6512 LP  0  0  0  0  0  0  0  0  0  0  0  0  # atno 17342 bound_to 10162
  140.6639  143.2261  151.5791 LP  0  0  0  0  0  0  0  0  0  0  0  0  # atno 17343 bound_to 10162
  156.4668  130.7978  151.2997 LP  0  0  0  0  0  0  0  0  0  0  0  0  # atno 17370 bound_to 10713
  157.7484  131.0048  150.3091 LP  0  0  0  0  0  0  0  0  0  0  0  0  # atno 17371 bound_to 10713
  139.8887  135.0100  156.6637 LP  0  0  0  0  0  0  0  0  0  0  0  0  # atno 17394 bound_to 11000
  140.7429  133.8963  155.8291 LP  0  0  0  0  0  0  0  0  0  0  0  0  # atno 17395 bound_to 11000

$$$$
