AV-unprocessed.smi:3341|AV-procd|sdf|12883|dock5
  -GOLD-   2272019283D 1   1.00000     0.00000
 Structure written by MMmdl.
 46 47  0  0  0  0  0  0  0  0  2 V2000
  149.7393  142.5618  158.3426 C   0  0  0  0  0  0  0  0  0  0  0  0
  150.9610  142.3314  157.4451 C   0  0  0  0  0  0  0  0  0  0  0  0
  150.6938  141.3458  156.4158 N   0  0  0  0  0  0  0  0  0  0  0  0
  149.7353  141.3866  155.4225 C   0  0  0  0  0  0  0  0  0  0  0  0
  149.8901  140.2295  154.7123 C   0  0  0  0  0  0  0  0  0  0  0  0
  149.1651  139.7594  153.5881 N   0  0  0  0  0  0  0  0  0  0  0  0
  147.9514  139.1846  153.5831 C   0  0  0  0  0  0  0  0  0  0  0  0
  147.2531  138.9924  154.5789 O   0  0  0  0  0  0  0  0  0  0  0  0
  147.5781  138.8405  152.3425 N   0  0  0  0  0  0  0  0  0  0  0  0
  146.3218  138.1824  152.0022 C   0  0  0  0  0  0  0  0  0  0  0  0
  145.9810  137.0611  153.0029 C   0  0  0  0  0  0  0  0  0  0  0  0
  146.2394  135.7075  152.4497 N   0  3  1  0  0  0  0  0  0  0  0  0
  146.5057  134.7093  153.5180 C   0  0  0  0  0  0  0  0  0  0  0  0
  146.9059  133.3506  152.9215 C   0  0  0  0  0  0  0  0  0  0  0  0
  145.8316  132.8381  151.9544 C   0  0  0  0  0  0  0  0  0  0  0  0
  145.5468  133.8903  150.8699 C   0  0  1  0  0  0  0  0  0  0  0  0
  144.4561  133.4145  149.8997 C   0  0  0  0  0  0  0  0  0  0  0  0
  145.1770  135.2399  151.5183 C   0  0  0  0  0  0  0  0  0  0  0  0
  150.9612  139.5351  155.3324 C   0  0  0  0  0  0  0  0  0  0  0  0
  151.4423  140.2163  156.3611 N   0  0  0  0  0  0  0  0  0  0  0  0
  149.9593  143.2999  159.1140 H   0  0  0  0  0  0  0  0  0  0  0  0
  149.4369  141.6398  158.8401 H   0  0  0  0  0  0  0  0  0  0  0  0
  148.8881  142.9266  157.7664 H   0  0  0  0  0  0  0  0  0  0  0  0
  151.2638  143.2645  156.9681 H   0  0  0  0  0  0  0  0  0  0  0  0
  151.8080  141.9916  158.0424 H   0  0  0  0  0  0  0  0  0  0  0  0
  149.0511  142.2160  155.3198 H   0  0  0  0  0  0  0  0  0  0  0  0
  149.6246  139.8638  152.6953 H   0  0  0  0  0  0  0  0  0  0  0  0
  148.2141  139.0349  151.5825 H   0  0  0  0  0  0  0  0  0  0  0  0
  145.5492  138.9500  151.9979 H   0  0  0  0  0  0  0  0  0  0  0  0
  146.3724  137.7864  150.9863 H   0  0  0  0  0  0  0  0  0  0  0  0
  146.5950  137.2004  153.8937 H   0  0  0  0  0  0  0  0  0  0  0  0
  144.9432  137.1356  153.3316 H   0  0  0  0  0  0  0  0  0  0  0  0
  147.3098  135.0635  154.1644 H   0  0  0  0  0  0  0  0  0  0  0  0
  145.6189  134.6000  154.1446 H   0  0  0  0  0  0  0  0  0  0  0  0
  147.8574  133.4457  152.3966 H   0  0  0  0  0  0  0  0  0  0  0  0
  147.0645  132.6253  153.7202 H   0  0  0  0  0  0  0  0  0  0  0  0
  146.1581  131.9023  151.4994 H   0  0  0  0  0  0  0  0  0  0  0  0
  144.9176  132.6145  152.5066 H   0  0  0  0  0  0  0  0  0  0  0  0
  146.4603  134.0342  150.2907 H   0  0  0  0  0  0  0  0  0  0  0  0
  143.5090  133.2511  150.4150 H   0  0  0  0  0  0  0  0  0  0  0  0
  144.7396  132.4773  149.4199 H   0  0  0  0  0  0  0  0  0  0  0  0
  144.2837  134.1477  149.1113 H   0  0  0  0  0  0  0  0  0  0  0  0
  144.2330  135.1532  152.0590 H   0  0  0  0  0  0  0  0  0  0  0  0
  145.0204  135.9757  150.7302 H   0  0  0  0  0  0  0  0  0  0  0  0
  151.3964  138.5802  155.0771 H   0  0  0  0  0  0  0  0  0  0  0  0
  147.0926  135.7770  151.9135 H   0  0  0  0  0  0  0  0  0  0  0  0
  1  2  1  0  0  0  0
  1 21  1  0  0  0  0
  1 22  1  0  0  0  0
  1 23  1  0  0  0  0
  2  3  1  0  0  0  0
  2 24  1  0  0  0  0
  2 25  1  0  0  0  0
  3 20  1  0  0  0  0
  3  4  1  0  0  0  0
  4  5  2  0  0  0  0
  4 26  1  0  0  0  0
  5  6  1  0  0  0  0
  5 19  1  0  0  0  0
  6  7  1  0  0  0  0
  6 27  1  0  0  0  0
  7  8  2  0  0  0  0
  7  9  1  0  0  0  0
  9 10  1  0  0  0  0
  9 28  1  0  0  0  0
 10 11  1  0  0  0  0
 10 29  1  0  0  0  0
 10 30  1  0  0  0  0
 11 12  1  0  0  0  0
 11 31  1  0  0  0  0
 11 32  1  0  0  0  0
 12 18  1  0  0  0  0
 12 13  1  0  0  0  0
 12 46  1  0  0  0  0
 13 14  1  0  0  0  0
 13 33  1  0  0  0  0
 13 34  1  0  0  0  0
 14 15  1  0  0  0  0
 14 35  1  0  0  0  0
 14 36  1  0  0  0  0
 15 16  1  0  0  0  0
 15 37  1  0  0  0  0
 15 38  1  0  0  0  0
 16 17  1  0  0  0  0
 16 18  1  0  0  0  0
 16 39  1  0  0  0  0
 17 40  1  0  0  0  0
 17 41  1  0  0  0  0
 17 42  1  0  0  0  0
 18 43  1  0  0  0  0
 18 44  1  0  0  0  0
 19 20  2  0  0  0  0
 19 45  1  0  0  0  0
M  CHG  1  12   1
M  END
> <s_m_source_file>
AV-unprocessed.smi

> <i_m_source_file_index>
3341

> <i_lp_mmshare_version>
43012

> <i_f3d_flags>
0

> <s_epik_input>
W0NIM11bQ0gyXW4xW2NIXWMoW2NIXW4xKVtOSF1DKD1PKVtOSF1bQ0gyXVtDSDJdTjJbQ0gyXVtDSDJdW0NIMl1bQ0BASF0oW0NIM10pW0NIMl0y

> <s_epik_cmdline>
J2VwaWtfcHl0aG9uJywgJy1waCcsICc3LjAnLCAnLXRuJywgJzgnLCAnLW1hJywgJzIwMCcsICctbWV0YWxfYmluZGluZycsICctaW1hZScsICc8aW5maWxlLm1hZT4nLCAnLW9tYWUnLCAnPG91dGZpbGUubWFlPic=

> <r_lp_tautomer_probability>
1

> <r_epik_Ionization_Penalty>
0.00203389

> <r_epik_Ionization_Penalty_Charging>
0.00188267

> <r_epik_Ionization_Penalty_Neutral>
0.000151224

> <r_epik_State_Penalty>
0.0012808

> <r_epik_Charging_Adjusted_Penalty>
0.00316346

> <i_epik_Tot_Q>
1

> <i_epik_Tot_abs_Q>
1

> <r_epik_Metal_State_Penalty>
-0

> <b_epik_Metal_Only>
0

> <s_lp_Force_Field>
OPLS_2005

> <r_lp_Energy>
20.2182

> <b_lp_Chiralities_Consistent>
1

> <s_lp_Variant>
AV-unprocessed.smi:3341-1

> <Gold.Version>
5.8.1

> <Gold.Id.Protein>
6NUR|6NUR_protein|mol2

> <Gold.PLP.Fitness>
48.0920

> <Gold.PLP.PLP>
-36.2545

> <Gold.PLP.part.hbond>
-3.7890

> <Gold.PLP.part.metal>
0.0000

> <Gold.PLP.part.buried>
-3.9383

> <Gold.PLP.part.nonpolar>
-30.1094

> <Gold.PLP.part.repulsive>
0.3301

> <Gold.PLP.ligand.clash>
0.0000

> <Gold.PLP.ligand.torsion>
1.3778

> <Gold.PLP.Chemscore.Hbond>
3.8553

> <Gold.PLP.Chemscore.CHOScore>
1.0000

> <Gold.PLP.Chemscore.Metal>
0.0000

> <Gold.Chemscore.Hbonds>
donor molecule, donor type, donor heavy atom, donor atom, acceptor molecule, acceptor atom, score
      L1  H     6    27       P1  7957  1.00
      L1  H     9    28       P1  7957  0.88
      L1  H    12    46       P1  7948  1.98
      L1  C     4    26       P1  8028  1.00

> <Gold.PLP.Chemscore.Internal.Correction>
0.0274

> <Gold.Rescore>
     Score         DG    S(hbond)    S(metal)    S(lipo)     H(rot)  DE(clash)    DE(int)     intcor
     17.31     -20.00       2.89        0.00      76.46       1.59       0.04       2.66       ----

> <Gold.Chemscore.Fitness>
17.3087

> <Gold.Chemscore.DG>
-20.0044

> <Gold.Chemscore.ZeroCoef>
-5.4800

> <Gold.Chemscore.Hbond>
2.8896

> <Gold.Chemscore.Metal>
0.0000

> <Gold.Chemscore.Lipo>
76.4604

> <Gold.Chemscore.Internal_Hbond>
0.0000

> <Gold.Chemscore.DEClash>
0.0376

> <Gold.Chemscore.DEInternal>
2.6580

> <Gold.Chemscore.Rot>
1.5909

> <Gold.Chemscore.Internal.Correction>
   9.000000E+99

> <Gold.Chemscore.Hbonds>
donor molecule, donor type, donor heavy atom, donor atom, acceptor molecule, acceptor atom, score
      L1  H     6    27       P1  7957  0.92
      L1  H     9    28       P1  7957  0.71
      L1  H    12    46       P1  7948  0.94

> <Gold.Chemscore.Hbond.Weighted>
-9.6513

> <Gold.Chemscore.Metal.Weighted>
-0.0000

> <Gold.Chemscore.Lipo.Weighted>
-8.9459

> <Gold.Chemscore.Internal_Hbond.Weighted>
0.0000

> <Gold.Chemscore.DEClash.Weighted>
0.0376

> <Gold.Chemscore.DEInternal.Weighted>
2.6580

> <Gold.Chemscore.Rot.Weighted>
4.0728

> <Gold.Chemscore.Internal.Correction.Weighted>
   9.000000E+99

> <Gold.Protein.RotatedTorsions>
[ 6907 6896 6895 6894 ] final   92.28 input  -60.11 | X-H torsion
[ 7974 7965 7964 7962 ] final  -21.39 input  175.53 | X-H torsion
[ 8008 7997 7996 7995 ] final   86.29 input   59.86 | X-H torsion
[ 10167 10162 10161 10158 ] final   64.89 input  -65.29 | X-H torsion
[ 10718 10713 10712 10709 ] final  115.57 input   66.30 | X-H torsion
[ 10763 10752 10751 10750 ] final -174.26 input  -60.55 | X-H torsion
[ 11005 11000 10999 10996 ] final -149.33 input  -57.11 | X-H torsion

> <Gold.Protein.ActiveResidues>
 VAL166  LYS551  ARG553  GLY616  TRP617  ASP618  TYR619  PRO620  LYS621  CYS622 
 ASP623  PHE694  ASN695  SER759  ASP760  ASP761  ALA762  ILE779  LEU786  VAL792 
 PHE793  MET794  SER795  GLU796  ALA797  LYS798  CYS799  TRP800  GLU811  SER814 

> <Gold.Protein.RotatedAtoms>
  152.5452  134.1526  159.8524 H   0  0  0  0  0  0  0  0  0  0  0  0  # atno 6907 bound_to 6896
  151.1552  133.4874  159.2602 H   0  0  0  0  0  0  0  0  0  0  0  0  # atno 6908 bound_to 6896
  151.1430  135.0200  159.8689 H   0  0  0  0  0  0  0  0  0  0  0  0  # atno 6909 bound_to 6896
  146.1735  140.4335  142.8523 H   0  0  0  0  0  0  0  0  0  0  0  0  # atno 7974 bound_to 7965
  155.9609  140.3393  155.6490 H   0  0  0  0  0  0  0  0  0  0  0  0  # atno 8008 bound_to 7997
  155.6799  140.0736  157.2507 H   0  0  0  0  0  0  0  0  0  0  0  0  # atno 8009 bound_to 7997
  154.4143  140.1676  156.1959 H   0  0  0  0  0  0  0  0  0  0  0  0  # atno 8010 bound_to 7997
  140.1172  144.4764  150.6942 H   0  0  0  0  0  0  0  0  0  0  0  0  # atno 10167 bound_to 10162
  157.6214  131.1014  150.7348 H   0  0  0  0  0  0  0  0  0  0  0  0  # atno 10718 bound_to 10713
  154.5983  135.2852  155.0563 H   0  0  0  0  0  0  0  0  0  0  0  0  # atno 10763 bound_to 10752
  154.1838  135.6452  153.5045 H   0  0  0  0  0  0  0  0  0  0  0  0  # atno 10764 bound_to 10752
  153.0147  135.5430  154.6692 H   0  0  0  0  0  0  0  0  0  0  0  0  # atno 10765 bound_to 10752
  140.7518  134.3397  157.5124 H   0  0  0  0  0  0  0  0  0  0  0  0  # atno 11005 bound_to 11000
  144.8200  140.6533  143.6359 LP  0  0  0  0  0  0  0  0  0  0  0  0  # atno 17320 bound_to 7965
  145.4275  139.1554  143.4040 LP  0  0  0  0  0  0  0  0  0  0  0  0  # atno 17321 bound_to 7965
  140.6892  143.2367  151.5176 LP  0  0  0  0  0  0  0  0  0  0  0  0  # atno 17342 bound_to 10162
  139.5588  144.2209  152.1656 LP  0  0  0  0  0  0  0  0  0  0  0  0  # atno 17343 bound_to 10162
  156.7705  130.4827  149.5419 LP  0  0  0  0  0  0  0  0  0  0  0  0  # atno 17370 bound_to 10713
  156.1361  130.6212  151.0403 LP  0  0  0  0  0  0  0  0  0  0  0  0  # atno 17371 bound_to 10713
  139.8786  134.9147  156.3113 LP  0  0  0  0  0  0  0  0  0  0  0  0  # atno 17394 bound_to 11000
  140.9743  133.7307  156.0580 LP  0  0  0  0  0  0  0  0  0  0  0  0  # atno 17395 bound_to 11000

$$$$
