AV-unprocessed.smi:2272|AV-procd|sdf|9162|dock10
  -GOLD-   2272012373D 1   1.00000     0.00000
 Structure written by MMmdl.
 41 42  0  0  0  0  0  0  0  0  1 V2000
  148.6041  131.7420  161.3077 C   0  0  0  0  0  0  0  0  0  0  0  0
  148.6409  133.2017  160.8913 C   0  0  0  0  0  0  0  0  0  0  0  0
  148.9057  133.4376  159.5396 N   0  0  0  0  0  0  0  0  0  0  0  0
  148.9407  134.6498  159.0921 C   0  0  0  0  0  0  0  0  0  0  0  0
  148.7146  135.7551  159.9298 N   0  0  0  0  0  0  0  0  0  0  0  0
  148.7612  137.0777  159.2801 C   0  0  0  0  0  0  0  0  0  0  0  0
  150.1864  137.4640  158.8229 C   0  0  2  0  0  0  0  0  0  0  0  0
  151.1494  136.8425  159.6474 O   0  0  0  0  0  0  0  0  0  0  0  0
  150.4755  138.9737  158.7610 C   0  0  0  0  0  0  0  0  0  0  0  0
  151.2290  139.2839  157.5966 O   0  0  0  0  0  0  0  0  0  0  0  0
  152.3916  140.0612  157.8505 C   0  0  0  0  0  0  0  0  0  0  0  0
  152.0796  141.4406  158.4077 C   0  0  0  0  0  0  0  0  0  0  0  0
  152.7539  141.9085  159.5556 C   0  0  0  0  0  0  0  0  0  0  0  0
  152.4712  143.1873  160.0734 C   0  0  0  0  0  0  0  0  0  0  0  0
  151.5072  144.0019  159.4499 C   0  0  0  0  0  0  0  0  0  0  0  0
  150.8271  143.5372  158.3078 C   0  0  0  0  0  0  0  0  0  0  0  0
  151.1111  142.2599  157.7866 C   0  0  0  0  0  0  0  0  0  0  0  0
  150.4518  141.8268  156.6852 F   0  0  0  0  0  0  0  0  0  0  0  0
  148.4748  135.6139  161.2660 C   0  0  0  0  0  0  0  0  0  0  0  0
  148.3057  136.5872  162.0011 O   0  0  0  0  0  0  0  0  0  0  0  0
  148.4314  134.2279  161.7601 C   0  0  0  0  0  0  0  0  0  0  0  0
  148.1336  134.0289  163.2407 C   0  0  0  0  0  0  0  0  0  0  0  0
  147.6397  131.4944  161.7523 H   0  0  0  0  0  0  0  0  0  0  0  0
  149.3883  131.5333  162.0360 H   0  0  0  0  0  0  0  0  0  0  0  0
  148.7571  131.0810  160.4535 H   0  0  0  0  0  0  0  0  0  0  0  0
  149.1417  134.8892  158.0461 H   0  0  0  0  0  0  0  0  0  0  0  0
  148.0705  137.1391  158.4375 H   0  0  0  0  0  0  0  0  0  0  0  0
  148.3936  137.8280  159.9832 H   0  0  0  0  0  0  0  0  0  0  0  0
  150.3575  137.0542  157.8270 H   0  0  0  0  0  0  0  0  0  0  0  0
  151.7218  137.5114  159.9917 H   0  0  0  0  0  0  0  0  0  0  0  0
  149.5409  139.5369  158.7762 H   0  0  0  0  0  0  0  0  0  0  0  0
  151.0373  139.2657  159.6484 H   0  0  0  0  0  0  0  0  0  0  0  0
  152.9984  139.5226  158.5784 H   0  0  0  0  0  0  0  0  0  0  0  0
  153.0081  140.1428  156.9536 H   0  0  0  0  0  0  0  0  0  0  0  0
  153.4949  141.2885  160.0389 H   0  0  0  0  0  0  0  0  0  0  0  0
  152.9940  143.5430  160.9491 H   0  0  0  0  0  0  0  0  0  0  0  0
  151.2901  144.9831  159.8455 H   0  0  0  0  0  0  0  0  0  0  0  0
  150.0892  144.1628  157.8277 H   0  0  0  0  0  0  0  0  0  0  0  0
  147.1208  134.3624  163.4641 H   0  0  0  0  0  0  0  0  0  0  0  0
  148.8255  134.6112  163.8503 H   0  0  0  0  0  0  0  0  0  0  0  0
  148.2166  132.9912  163.5595 H   0  0  0  0  0  0  0  0  0  0  0  0
  1  2  1  0  0  0  0
  1 23  1  0  0  0  0
  1 24  1  0  0  0  0
  1 25  1  0  0  0  0
  2 21  2  0  0  0  0
  2  3  1  0  0  0  0
  3  4  2  0  0  0  0
  4  5  1  0  0  0  0
  4 26  1  0  0  0  0
  5  6  1  0  0  0  0
  5 19  1  0  0  0  0
  6  7  1  0  0  0  0
  6 27  1  0  0  0  0
  6 28  1  0  0  0  0
  7  8  1  0  0  0  0
  7  9  1  0  0  0  0
  7 29  1  0  0  0  0
  8 30  1  0  0  0  0
  9 10  1  0  0  0  0
  9 31  1  0  0  0  0
  9 32  1  0  0  0  0
 10 11  1  0  0  0  0
 11 12  1  0  0  0  0
 11 33  1  0  0  0  0
 11 34  1  0  0  0  0
 12 17  1  0  0  0  0
 12 13  2  0  0  0  0
 13 14  1  0  0  0  0
 13 35  1  0  0  0  0
 14 15  2  0  0  0  0
 14 36  1  0  0  0  0
 15 16  1  0  0  0  0
 15 37  1  0  0  0  0
 16 17  2  0  0  0  0
 16 38  1  0  0  0  0
 17 18  1  0  0  0  0
 19 20  2  0  0  0  0
 19 21  1  0  0  0  0
 21 22  1  0  0  0  0
 22 39  1  0  0  0  0
 22 40  1  0  0  0  0
 22 41  1  0  0  0  0
M  END
> <s_m_source_file>
AV-unprocessed.smi

> <i_m_source_file_index>
2272

> <i_lp_mmshare_version>
43012

> <i_f3d_flags>
0

> <s_epik_input>
W0NIM11jMW5bY0hdbihjKD1PKWMxW0NIM10pW0NIMl1bQ0BIXShbT0hdKVtDSDJdT1tDSDJdYzJbY0hdW2NIXVtjSF1bY0hdYzJG

> <s_epik_cmdline>
J2VwaWtfcHl0aG9uJywgJy1waCcsICc3LjAnLCAnLXRuJywgJzgnLCAnLW1hJywgJzIwMCcsICctbWV0YWxfYmluZGluZycsICctaW1hZScsICc8aW5maWxlLm1hZT4nLCAnLW9tYWUnLCAnPG91dGZpbGUubWFlPic=

> <r_lp_tautomer_probability>
1

> <r_epik_Ionization_Penalty>
5.35985e-05

> <r_epik_Ionization_Penalty_Charging>
1.17753e-07

> <r_epik_Ionization_Penalty_Neutral>
5.34808e-05

> <r_epik_State_Penalty>
-0

> <r_epik_Charging_Adjusted_Penalty>
1.17753e-07

> <i_epik_Tot_Q>
0

> <i_epik_Tot_abs_Q>
0

> <r_epik_Metal_State_Penalty>
-0

> <b_epik_Metal_Only>
0

> <s_lp_Force_Field>
OPLS_2005

> <r_lp_Energy>
20.6286

> <b_lp_Chiralities_Consistent>
1

> <s_lp_Variant>
AV-unprocessed.smi:2272-1

> <Gold.Version>
5.8.1

> <Gold.Id.Protein>
6NUR|6NUR_protein|mol2

> <Gold.PLP.Fitness>
49.9790

> <Gold.PLP.PLP>
-44.4132

> <Gold.PLP.part.hbond>
-3.0000

> <Gold.PLP.part.metal>
0.0000

> <Gold.PLP.part.buried>
-4.7413

> <Gold.PLP.part.nonpolar>
-36.2537

> <Gold.PLP.part.repulsive>
0.0000

> <Gold.PLP.ligand.clash>
0.0000

> <Gold.PLP.ligand.torsion>
1.4573

> <Gold.PLP.Chemscore.Hbond>
2.7833

> <Gold.PLP.Chemscore.CHOScore>
0.0000

> <Gold.PLP.Chemscore.Metal>
0.0000

> <Gold.Chemscore.Hbonds>
donor molecule, donor type, donor heavy atom, donor atom, acceptor molecule, acceptor atom, score
      P1  H  6896  6909       L1     8  0.93
      P1  H  6931  6943       L1    20  1.00

> <Gold.PLP.Chemscore.Internal.Correction>
0.1306

> <Gold.Rescore>
     Score         DG    S(hbond)    S(metal)    S(lipo)     H(rot)  DE(clash)    DE(int)     intcor
     16.94     -19.95       2.71        0.00     105.05       2.69       0.01       3.00       ----

> <Gold.Chemscore.Fitness>
16.9382

> <Gold.Chemscore.DG>
-19.9486

> <Gold.Chemscore.ZeroCoef>
-5.4800

> <Gold.Chemscore.Hbond>
2.7107

> <Gold.Chemscore.Metal>
0.0000

> <Gold.Chemscore.Lipo>
105.0458

> <Gold.Chemscore.Internal_Hbond>
0.0000

> <Gold.Chemscore.DEClash>
0.0137

> <Gold.Chemscore.DEInternal>
2.9968

> <Gold.Chemscore.Rot>
2.6857

> <Gold.Chemscore.Internal.Correction>
   9.000000E+99

> <Gold.Chemscore.Hbonds>
donor molecule, donor type, donor heavy atom, donor atom, acceptor molecule, acceptor atom, score
      P1  H  6896  6909       L1     8  0.85
      P1  H  6931  6943       L1    20  1.00

> <Gold.Chemscore.Hbond.Weighted>
-9.0538

> <Gold.Chemscore.Metal.Weighted>
-0.0000

> <Gold.Chemscore.Lipo.Weighted>
-12.2904

> <Gold.Chemscore.Internal_Hbond.Weighted>
0.0000

> <Gold.Chemscore.DEClash.Weighted>
0.0137

> <Gold.Chemscore.DEInternal.Weighted>
2.9968

> <Gold.Chemscore.Rot.Weighted>
6.8755

> <Gold.Chemscore.Internal.Correction.Weighted>
   9.000000E+99

> <Gold.Protein.RotatedTorsions>
[ 6907 6896 6895 6894 ] final   84.28 input  -60.11 | X-H torsion
[ 7974 7965 7964 7962 ] final  149.08 input  175.53 | X-H torsion
[ 8008 7997 7996 7995 ] final  115.76 input   59.86 | X-H torsion
[ 10167 10162 10161 10158 ] final   21.43 input  -65.29 | X-H torsion
[ 10718 10713 10712 10709 ] final   40.37 input   66.30 | X-H torsion
[ 10763 10752 10751 10750 ] final  133.09 input  -60.55 | X-H torsion
[ 11005 11000 10999 10996 ] final -130.64 input  -57.11 | X-H torsion

> <Gold.Protein.ActiveResidues>
 VAL166  LYS551  ARG553  GLY616  TRP617  ASP618  TYR619  PRO620  LYS621  CYS622 
 ASP623  PHE694  ASN695  SER759  ASP760  ASP761  ALA762  ILE779  LEU786  VAL792 
 PHE793  MET794  SER795  GLU796  ALA797  LYS798  CYS799  TRP800  GLU811  SER814 

> <Gold.Protein.RotatedAtoms>
  152.5348  134.2765  159.8991 H   0  0  0  0  0  0  0  0  0  0  0  0  # atno 6907 bound_to 6896
  151.2720  133.4244  159.2629 H   0  0  0  0  0  0  0  0  0  0  0  0  # atno 6908 bound_to 6896
  151.0359  134.9587  159.8192 H   0  0  0  0  0  0  0  0  0  0  0  0  # atno 6909 bound_to 6896
  144.8465  139.6235  143.5993 H   0  0  0  0  0  0  0  0  0  0  0  0  # atno 7974 bound_to 7965
  156.2400  140.2932  156.0419 H   0  0  0  0  0  0  0  0  0  0  0  0  # atno 8008 bound_to 7997
  155.1978  140.0408  157.2929 H   0  0  0  0  0  0  0  0  0  0  0  0  # atno 8009 bound_to 7997
  154.6151  140.2461  155.7627 H   0  0  0  0  0  0  0  0  0  0  0  0  # atno 8010 bound_to 7997
  140.5427  143.9648  150.6529 H   0  0  0  0  0  0  0  0  0  0  0  0  # atno 10167 bound_to 10162
  157.3814  130.7755  149.7196 H   0  0  0  0  0  0  0  0  0  0  0  0  # atno 10718 bound_to 10713
  153.8013  135.3141  155.3390 H   0  0  0  0  0  0  0  0  0  0  0  0  # atno 10763 bound_to 10752
  154.8088  135.4681  154.0464 H   0  0  0  0  0  0  0  0  0  0  0  0  # atno 10764 bound_to 10752
  153.1813  135.6894  153.8562 H   0  0  0  0  0  0  0  0  0  0  0  0  # atno 10765 bound_to 10752
  140.9328  134.1297  157.4220 H   0  0  0  0  0  0  0  0  0  0  0  0  # atno 11005 bound_to 11000
  146.2748  139.6726  142.9270 LP  0  0  0  0  0  0  0  0  0  0  0  0  # atno 17320 bound_to 7965
  145.4587  141.0432  143.2763 LP  0  0  0  0  0  0  0  0  0  0  0  0  # atno 17321 bound_to 7965
  140.3053  143.3233  152.0932 LP  0  0  0  0  0  0  0  0  0  0  0  0  # atno 17342 bound_to 10162
  139.4995  144.6671  151.6331 LP  0  0  0  0  0  0  0  0  0  0  0  0  # atno 17343 bound_to 10162
  155.9776  130.4060  150.3698 LP  0  0  0  0  0  0  0  0  0  0  0  0  # atno 17370 bound_to 10713
  157.1802  131.0390  151.2752 LP  0  0  0  0  0  0  0  0  0  0  0  0  # atno 17371 bound_to 10713
  139.8800  135.0011  156.6047 LP  0  0  0  0  0  0  0  0  0  0  0  0  # atno 17394 bound_to 11000
  140.7839  133.8637  155.8590 LP  0  0  0  0  0  0  0  0  0  0  0  0  # atno 17395 bound_to 11000

$$$$
