AV-unprocessed.smi:3234|AV-procd|sdf|12357|dock4
  -GOLD-   2272018213D 1   1.00000     0.00000
 Structure written by MMmdl.
 37 39  0  0  0  0  0  0  0  0  4 V2000
  152.4917  139.8988  156.2429 O   0  0  0  0  0  0  0  0  0  0  0  0
  151.4904  140.4935  155.8278 C   0  0  0  0  0  0  0  0  0  0  0  0
  151.0397  141.5911  156.4614 N   0  0  0  0  0  0  0  0  0  0  0  0
  151.5209  142.2006  157.6519 C   0  0  0  0  0  0  0  0  0  0  0  0
  152.0712  141.3579  158.6428 C   0  0  0  0  0  0  0  0  0  0  0  0
  152.5792  141.9215  159.8308 C   0  0  0  0  0  0  0  0  0  0  0  0
  152.5476  143.2602  160.0074 N   0  3  0  0  0  0  0  0  0  0  0  0
  152.0488  144.1069  159.0811 C   0  0  0  0  0  0  0  0  0  0  0  0
  151.5273  143.6012  157.8732 C   0  0  0  0  0  0  0  0  0  0  0  0
  150.7435  140.1900  154.7314 N   0  5  0  0  0  0  0  0  0  0  0  0
  150.4432  138.8304  154.2781 C   0  0  1  0  0  0  0  0  0  0  0  0
  151.1154  137.7780  155.1613 C   0  0  0  0  0  0  0  0  0  0  0  0
  150.2135  136.5406  155.0342 C   0  0  0  0  0  0  0  0  0  0  0  0
  148.9360  137.0035  154.4428 N   0  3  1  0  0  0  0  0  0  0  0  0
  147.7263  136.4213  155.0623 C   0  0  0  0  0  0  0  0  0  0  0  0
  147.3118  135.1037  154.4527 C   0  0  0  0  0  0  0  0  0  0  0  0
  146.5394  136.3650  154.1306 C   0  0  0  0  0  0  0  0  0  0  0  0
  148.9629  138.4787  154.4327 C   0  0  0  0  0  0  0  0  0  0  0  0
  150.2868  142.0773  155.9970 H   0  0  0  0  0  0  0  0  0  0  0  0
  152.0995  140.2874  158.4978 H   0  0  0  0  0  0  0  0  0  0  0  0
  153.0096  141.3463  160.6375 H   0  0  0  0  0  0  0  0  0  0  0  0
  152.0885  145.1577  159.3282 H   0  0  0  0  0  0  0  0  0  0  0  0
  151.1551  144.2943  157.1343 H   0  0  0  0  0  0  0  0  0  0  0  0
  150.7421  138.6574  153.2427 H   0  0  0  0  0  0  0  0  0  0  0  0
  152.1451  137.5782  154.8628 H   0  0  0  0  0  0  0  0  0  0  0  0
  151.1307  138.1038  156.2032 H   0  0  0  0  0  0  0  0  0  0  0  0
  150.6552  135.7885  154.3788 H   0  0  0  0  0  0  0  0  0  0  0  0
  150.0639  136.0764  156.0105 H   0  0  0  0  0  0  0  0  0  0  0  0
  147.5856  136.6097  156.1254 H   0  0  0  0  0  0  0  0  0  0  0  0
  147.9357  134.6814  153.6667 H   0  0  0  0  0  0  0  0  0  0  0  0
  146.8309  134.3776  155.1052 H   0  0  0  0  0  0  0  0  0  0  0  0
  145.5504  136.4712  154.5719 H   0  0  0  0  0  0  0  0  0  0  0  0
  146.6495  136.7819  153.1310 H   0  0  0  0  0  0  0  0  0  0  0  0
  148.5750  138.8567  155.3811 H   0  0  0  0  0  0  0  0  0  0  0  0
  148.3482  138.8842  153.6285 H   0  0  0  0  0  0  0  0  0  0  0  0
  148.9543  136.7181  153.4743 H   0  0  0  0  0  0  0  0  0  0  0  0
  152.9219  143.6486  160.8734 H   0  0  0  0  0  0  0  0  0  0  0  0
  1  2  2  0  0  0  0
  2  3  1  0  0  0  0
  2 10  1  0  0  0  0
  3  4  1  0  0  0  0
  3 19  1  0  0  0  0
  4  9  1  0  0  0  0
  4  5  2  0  0  0  0
  5  6  1  0  0  0  0
  5 20  1  0  0  0  0
  6  7  2  0  0  0  0
  6 21  1  0  0  0  0
  7  8  1  0  0  0  0
  7 37  1  0  0  0  0
  8  9  2  0  0  0  0
  8 22  1  0  0  0  0
  9 23  1  0  0  0  0
 10 11  1  0  0  0  0
 11 18  1  0  0  0  0
 11 12  1  0  0  0  0
 11 24  1  0  0  0  0
 12 13  1  0  0  0  0
 12 25  1  0  0  0  0
 12 26  1  0  0  0  0
 13 14  1  0  0  0  0
 13 27  1  0  0  0  0
 13 28  1  0  0  0  0
 14 15  1  0  0  0  0
 14 18  1  0  0  0  0
 14 36  1  0  0  0  0
 15 17  1  0  0  0  0
 15 16  1  0  0  0  0
 15 29  1  0  0  0  0
 16 17  1  0  0  0  0
 16 30  1  0  0  0  0
 16 31  1  0  0  0  0
 17 32  1  0  0  0  0
 17 33  1  0  0  0  0
 18 34  1  0  0  0  0
 18 35  1  0  0  0  0
M  CHG  1   7   1
M  CHG  1  10  -1
M  CHG  1  14   1
M  END
> <s_m_source_file>
AV-unprocessed.smi

> <i_m_source_file_index>
3234

> <i_lp_mmshare_version>
43012

> <i_f3d_flags>
0

> <s_epik_input>
W2NIXTFbY0hdbltjSF1bY0hdYzFbTkhdQyg9TylbTkhdW0NAQEhdMltDSDJdW0NIMl1OKFtDSDJdMilbQ0hdM1tDSDJdW0NIMl0z

> <s_epik_cmdline>
J2VwaWtfcHl0aG9uJywgJy1waCcsICc3LjAnLCAnLXRuJywgJzgnLCAnLW1hJywgJzIwMCcsICctbWV0YWxfYmluZGluZycsICctaW1hZScsICc8aW5maWxlLm1hZT4nLCAnLW9tYWUnLCAnPG91dGZpbGUubWFlPic=

> <r_epik_Ionization_Penalty>
8.3234

> <r_epik_Ionization_Penalty_Charging>
8.3234

> <r_epik_Ionization_Penalty_Neutral>
3.58513e-06

> <r_epik_State_Penalty>
7.99376

> <r_epik_Charging_Adjusted_Penalty>
16.3172

> <i_epik_Tot_Q>
1

> <i_epik_Tot_abs_Q>
3

> <r_epik_Metal_State_Penalty>
3.98956

> <b_epik_Metal_Only>
1

> <s_lp_Force_Field>
OPLS_2005

> <r_lp_Energy>
39.5194

> <b_lp_Chiralities_Consistent>
1

> <s_lp_Variant>
AV-unprocessed.smi:3234-10

> <Gold.Version>
5.8.1

> <Gold.Id.Protein>
6NUR|6NUR_protein|mol2

> <Gold.PLP.Fitness>
43.2920

> <Gold.PLP.PLP>
-32.3231

> <Gold.PLP.part.hbond>
-3.0000

> <Gold.PLP.part.metal>
0.0000

> <Gold.PLP.part.buried>
-4.2800

> <Gold.PLP.part.nonpolar>
-24.4816

> <Gold.PLP.part.repulsive>
0.2237

> <Gold.PLP.ligand.clash>
0.0033

> <Gold.PLP.ligand.torsion>
1.1572

> <Gold.PLP.Chemscore.Hbond>
4.0000

> <Gold.PLP.Chemscore.CHOScore>
0.0000

> <Gold.PLP.Chemscore.Metal>
0.0000

> <Gold.Chemscore.Hbonds>
donor molecule, donor type, donor heavy atom, donor atom, acceptor molecule, acceptor atom, score
      L1  H    14    36       P1  7948  2.00
      P1  H  7989  7998       L1    10  1.00
      P1  H  7997  8008       L1     1  1.00

> <Gold.PLP.Chemscore.Internal.Correction>
1.2866

> <Gold.Rescore>
     Score         DG    S(hbond)    S(metal)    S(lipo)     H(rot)  DE(clash)    DE(int)     intcor
     15.73     -19.79       2.36        0.00      81.46       1.21       0.08       3.97       ----

> <Gold.Chemscore.Fitness>
15.7314

> <Gold.Chemscore.DG>
-19.7856

> <Gold.Chemscore.ZeroCoef>
-5.4800

> <Gold.Chemscore.Hbond>
2.3577

> <Gold.Chemscore.Metal>
0.0000

> <Gold.Chemscore.Lipo>
81.4580

> <Gold.Chemscore.Internal_Hbond>
0.0000

> <Gold.Chemscore.DEClash>
0.0843

> <Gold.Chemscore.DEInternal>
3.9699

> <Gold.Chemscore.Rot>
1.2108

> <Gold.Chemscore.Internal.Correction>
   9.000000E+99

> <Gold.Chemscore.Hbonds>
donor molecule, donor type, donor heavy atom, donor atom, acceptor molecule, acceptor atom, score
      L1  H    14    36       P1  7948  1.00
      P1  H  7989  7998       L1    10  0.17
      P1  H  7997  8008       L1     1  1.00

> <Gold.Chemscore.Hbond.Weighted>
-7.8746

> <Gold.Chemscore.Metal.Weighted>
-0.0000

> <Gold.Chemscore.Lipo.Weighted>
-9.5306

> <Gold.Chemscore.Internal_Hbond.Weighted>
0.0000

> <Gold.Chemscore.DEClash.Weighted>
0.0843

> <Gold.Chemscore.DEInternal.Weighted>
3.9699

> <Gold.Chemscore.Rot.Weighted>
3.0996

> <Gold.Chemscore.Internal.Correction.Weighted>
   9.000000E+99

> <Gold.Protein.RotatedTorsions>
[ 6907 6896 6895 6894 ] final  -96.61 input  -60.11 | X-H torsion
[ 7974 7965 7964 7962 ] final   47.80 input  175.53 | X-H torsion
[ 8008 7997 7996 7995 ] final  -42.28 input   59.86 | X-H torsion
[ 10167 10162 10161 10158 ] final -143.50 input  -65.29 | X-H torsion
[ 10718 10713 10712 10709 ] final -114.47 input   66.30 | X-H torsion
[ 10763 10752 10751 10750 ] final  169.33 input  -60.55 | X-H torsion
[ 11005 11000 10999 10996 ] final -124.58 input  -57.11 | X-H torsion

> <Gold.Protein.ActiveResidues>
 VAL166  LYS551  ARG553  GLY616  TRP617  ASP618  TYR619  PRO620  LYS621  CYS622 
 ASP623  PHE694  ASN695  SER759  ASP760  ASP761  ALA762  ILE779  LEU786  VAL792 
 PHE793  MET794  SER795  GLU796  ALA797  LYS798  CYS799  TRP800  GLU811  SER814 

> <Gold.Protein.RotatedAtoms>
  150.6993  134.1476  159.4128 H   0  0  0  0  0  0  0  0  0  0  0  0  # atno 6907 bound_to 6896
  151.9460  135.0189  160.0548 H   0  0  0  0  0  0  0  0  0  0  0  0  # atno 6908 bound_to 6896
  152.2053  133.4835  159.5117 H   0  0  0  0  0  0  0  0  0  0  0  0  # atno 6909 bound_to 6896
  146.0264  139.4711  142.9865 H   0  0  0  0  0  0  0  0  0  0  0  0  # atno 7974 bound_to 7965
  154.4000  140.1477  156.3329 H   0  0  0  0  0  0  0  0  0  0  0  0  # atno 8008 bound_to 7997
  155.8427  140.3461  155.5621 H   0  0  0  0  0  0  0  0  0  0  0  0  # atno 8009 bound_to 7997
  155.8069  140.0878  157.1916 H   0  0  0  0  0  0  0  0  0  0  0  0  # atno 8010 bound_to 7997
  139.7988  143.7863  152.2656 H   0  0  0  0  0  0  0  0  0  0  0  0  # atno 10167 bound_to 10162
  156.0832  130.6028  150.8779 H   0  0  0  0  0  0  0  0  0  0  0  0  # atno 10718 bound_to 10713
  154.3816  135.2753  155.2208 H   0  0  0  0  0  0  0  0  0  0  0  0  # atno 10763 bound_to 10752
  154.4312  135.5977  153.6074 H   0  0  0  0  0  0  0  0  0  0  0  0  # atno 10764 bound_to 10752
  152.9834  135.5996  154.4059 H   0  0  0  0  0  0  0  0  0  0  0  0  # atno 10765 bound_to 10752
  140.9830  134.0646  157.3743 H   0  0  0  0  0  0  0  0  0  0  0  0  # atno 11005 bound_to 11000
  145.7111  141.0106  143.1453 LP  0  0  0  0  0  0  0  0  0  0  0  0  # atno 17320 bound_to 7965
  144.7011  139.8758  143.7444 LP  0  0  0  0  0  0  0  0  0  0  0  0  # atno 17321 bound_to 7965
  139.7976  144.7386  150.9868 LP  0  0  0  0  0  0  0  0  0  0  0  0  # atno 17342 bound_to 10162
  140.7820  143.4377  151.0598 LP  0  0  0  0  0  0  0  0  0  0  0  0  # atno 17343 bound_to 10162
  157.5957  131.0943  150.9045 LP  0  0  0  0  0  0  0  0  0  0  0  0  # atno 17370 bound_to 10713
  156.9212  130.5316  149.5279 LP  0  0  0  0  0  0  0  0  0  0  0  0  # atno 17371 bound_to 10713
  139.8958  135.0143  156.7021 LP  0  0  0  0  0  0  0  0  0  0  0  0  # atno 17394 bound_to 11000
  140.7157  133.9184  155.8114 LP  0  0  0  0  0  0  0  0  0  0  0  0  # atno 17395 bound_to 11000

$$$$
