AV-unprocessed.smi:1674|AV-procd|sdf|6713|dock4
  -GOLD-   22720 7453D 1   1.00000     0.00000
 Structure written by MMmdl.
 47 48  0  0  0  0  0  0  0  0  1 V2000
  149.4680  133.5794  155.8417 C   0  0  0  0  0  0  0  0  0  0  0  0
  149.7212  134.7760  156.7184 C   0  0  0  0  0  0  0  0  0  0  0  0
  150.3816  135.7524  156.1892 N   0  0  0  0  0  0  0  0  0  0  0  0
  150.6808  136.8936  156.9065 N   0  0  0  0  0  0  0  0  0  0  0  0
  151.4833  137.8641  156.1455 C   0  0  0  0  0  0  0  0  0  0  0  0
  150.8489  139.2777  156.0428 C   0  0  2  0  0  0  0  0  0  0  0  0
  150.8714  139.6984  154.6926 O   0  0  0  0  0  0  0  0  0  0  0  0
  151.4165  140.3157  157.0067 C   0  0  0  0  0  0  0  0  0  0  0  0
  152.4656  139.9559  157.8788 C   0  0  0  0  0  0  0  0  0  0  0  0
  153.0220  140.9076  158.7545 C   0  0  0  0  0  0  0  0  0  0  0  0
  152.5319  142.2299  158.7689 C   0  0  0  0  0  0  0  0  0  0  0  0
  153.1308  143.2601  159.7112 C   0  0  0  0  0  0  0  0  0  0  0  0
  152.1282  143.8008  160.7517 C   0  0  0  0  0  0  0  0  0  0  0  0
  151.6684  145.2187  160.3809 C   0  0  0  0  0  0  0  0  0  0  0  0
  152.6900  143.7660  162.1833 C   0  0  0  0  0  0  0  0  0  0  0  0
  151.4833  142.5930  157.8991 C   0  0  0  0  0  0  0  0  0  0  0  0
  150.9269  141.6411  157.0239 C   0  0  0  0  0  0  0  0  0  0  0  0
  150.3037  137.1174  158.1994 C   0  0  0  0  0  0  0  0  0  0  0  0
  150.5833  138.1530  158.8052 O   0  0  0  0  0  0  0  0  0  0  0  0
  149.5560  136.0069  158.7931 C   0  0  0  0  0  0  0  0  0  0  0  0
  149.1611  136.1917  160.1521 C   0  0  0  0  0  0  0  0  0  0  0  0
  148.8275  136.3568  161.2484 N   0  0  0  0  0  0  0  0  0  0  0  0
  149.2661  134.8770  158.1010 C   0  0  0  0  0  0  0  0  0  0  0  0
  148.4950  133.6958  158.6737 C   0  0  0  0  0  0  0  0  0  0  0  0
  148.4033  133.4713  155.6345 H   0  0  0  0  0  0  0  0  0  0  0  0
  149.8146  132.6643  156.3222 H   0  0  0  0  0  0  0  0  0  0  0  0
  149.9843  133.6608  154.8837 H   0  0  0  0  0  0  0  0  0  0  0  0
  152.4950  137.9214  156.5518 H   0  0  0  0  0  0  0  0  0  0  0  0
  151.6317  137.4884  155.1320 H   0  0  0  0  0  0  0  0  0  0  0  0
  149.7879  139.1745  156.2741 H   0  0  0  0  0  0  0  0  0  0  0  0
  150.6964  138.9493  154.1436 H   0  0  0  0  0  0  0  0  0  0  0  0
  152.8559  138.9487  157.8700 H   0  0  0  0  0  0  0  0  0  0  0  0
  153.8265  140.6187  159.4147 H   0  0  0  0  0  0  0  0  0  0  0  0
  153.9975  142.8308  160.2162 H   0  0  0  0  0  0  0  0  0  0  0  0
  153.5137  144.0832  159.1062 H   0  0  0  0  0  0  0  0  0  0  0  0
  151.2435  143.1628  160.7292 H   0  0  0  0  0  0  0  0  0  0  0  0
  152.5048  145.9185  160.3776 H   0  0  0  0  0  0  0  0  0  0  0  0
  150.9273  145.5903  161.0891 H   0  0  0  0  0  0  0  0  0  0  0  0
  151.2132  145.2386  159.3902 H   0  0  0  0  0  0  0  0  0  0  0  0
  153.5998  144.3615  162.2662 H   0  0  0  0  0  0  0  0  0  0  0  0
  152.9276  142.7491  162.4966 H   0  0  0  0  0  0  0  0  0  0  0  0
  151.9672  144.1620  162.8972 H   0  0  0  0  0  0  0  0  0  0  0  0
  151.1041  143.6043  157.8998 H   0  0  0  0  0  0  0  0  0  0  0  0
  150.1323  141.9387  156.3555 H   0  0  0  0  0  0  0  0  0  0  0  0
  148.1042  133.9025  159.6696 H   0  0  0  0  0  0  0  0  0  0  0  0
  149.1414  132.8207  158.7475 H   0  0  0  0  0  0  0  0  0  0  0  0
  147.6452  133.4442  158.0383 H   0  0  0  0  0  0  0  0  0  0  0  0
  1  2  1  0  0  0  0
  1 25  1  0  0  0  0
  1 26  1  0  0  0  0
  1 27  1  0  0  0  0
  2 23  1  0  0  0  0
  2  3  2  0  0  0  0
  3  4  1  0  0  0  0
  4  5  1  0  0  0  0
  4 18  1  0  0  0  0
  5  6  1  0  0  0  0
  5 28  1  0  0  0  0
  5 29  1  0  0  0  0
  6  7  1  0  0  0  0
  6  8  1  0  0  0  0
  6 30  1  0  0  0  0
  7 31  1  0  0  0  0
  8 17  1  0  0  0  0
  8  9  2  0  0  0  0
  9 10  1  0  0  0  0
  9 32  1  0  0  0  0
 10 11  2  0  0  0  0
 10 33  1  0  0  0  0
 11 12  1  0  0  0  0
 11 16  1  0  0  0  0
 12 13  1  0  0  0  0
 12 34  1  0  0  0  0
 12 35  1  0  0  0  0
 13 14  1  0  0  0  0
 13 15  1  0  0  0  0
 13 36  1  0  0  0  0
 14 37  1  0  0  0  0
 14 38  1  0  0  0  0
 14 39  1  0  0  0  0
 15 40  1  0  0  0  0
 15 41  1  0  0  0  0
 15 42  1  0  0  0  0
 16 17  2  0  0  0  0
 16 43  1  0  0  0  0
 17 44  1  0  0  0  0
 18 19  2  0  0  0  0
 18 20  1  0  0  0  0
 20 21  1  0  0  0  0
 20 23  2  0  0  0  0
 21 22  3  0  0  0  0
 23 24  1  0  0  0  0
 24 45  1  0  0  0  0
 24 46  1  0  0  0  0
 24 47  1  0  0  0  0
M  END
> <s_m_source_file>
AV-unprocessed.smi

> <i_m_source_file_index>
1674

> <i_lp_mmshare_version>
43012

> <i_f3d_flags>
0

> <s_epik_input>
TiNDYyhjMVtDSDNdKWMoPU8pbihuYzFbQ0gzXSlbQ0gyXVtDQEhdKFtPSF0pYzJbY0hdW2NIXWMoW2NIXVtjSF0yKVtDSDJdW0NIXShbQ0gzXSlbQ0gzXQ==

> <s_epik_cmdline>
J2VwaWtfcHl0aG9uJywgJy1waCcsICc3LjAnLCAnLXRuJywgJzgnLCAnLW1hJywgJzIwMCcsICctbWV0YWxfYmluZGluZycsICctaW1hZScsICc8aW5maWxlLm1hZT4nLCAnLW9tYWUnLCAnPG91dGZpbGUubWFlPic=

> <r_lp_tautomer_probability>
1

> <r_epik_Ionization_Penalty>
4.60566e-08

> <r_epik_Ionization_Penalty_Charging>
1.40848e-10

> <r_epik_Ionization_Penalty_Neutral>
4.59158e-08

> <r_epik_State_Penalty>
-0

> <r_epik_Charging_Adjusted_Penalty>
1.40848e-10

> <i_epik_Tot_Q>
0

> <i_epik_Tot_abs_Q>
0

> <r_epik_Metal_State_Penalty>
-0

> <b_epik_Metal_Only>
0

> <s_lp_Force_Field>
OPLS_2005

> <r_lp_Energy>
29.2193

> <b_lp_Chiralities_Consistent>
1

> <s_lp_Variant>
AV-unprocessed.smi:1674-1

> <Gold.Version>
5.8.1

> <Gold.Id.Protein>
6NUR|6NUR_protein|mol2

> <Gold.PLP.Fitness>
45.6487

> <Gold.PLP.PLP>
-39.6548

> <Gold.PLP.part.hbond>
-3.1927

> <Gold.PLP.part.metal>
0.0000

> <Gold.PLP.part.buried>
-6.3129

> <Gold.PLP.part.nonpolar>
-29.7900

> <Gold.PLP.part.repulsive>
0.0238

> <Gold.PLP.ligand.clash>
0.0000

> <Gold.PLP.ligand.torsion>
1.3508

> <Gold.PLP.Chemscore.Hbond>
2.8560

> <Gold.PLP.Chemscore.CHOScore>
0.0000

> <Gold.PLP.Chemscore.Metal>
0.0000

> <Gold.Chemscore.Hbonds>
donor molecule, donor type, donor heavy atom, donor atom, acceptor molecule, acceptor atom, score
      P1  H  6931  6943       L1    22  1.00
      P1  H  7989  7998       L1     7  1.00

> <Gold.PLP.Chemscore.Internal.Correction>
0.1276

> <Gold.Rescore>
     Score         DG    S(hbond)    S(metal)    S(lipo)     H(rot)  DE(clash)    DE(int)     intcor
     16.81     -21.98       2.47        0.00     117.14       2.13       0.10       5.07       ----

> <Gold.Chemscore.Fitness>
16.8132

> <Gold.Chemscore.DG>
-21.9830

> <Gold.Chemscore.ZeroCoef>
-5.4800

> <Gold.Chemscore.Hbond>
2.4700

> <Gold.Chemscore.Metal>
0.0000

> <Gold.Chemscore.Lipo>
117.1438

> <Gold.Chemscore.Internal_Hbond>
0.0000

> <Gold.Chemscore.DEClash>
0.0992

> <Gold.Chemscore.DEInternal>
5.0706

> <Gold.Chemscore.Rot>
2.1299

> <Gold.Chemscore.Internal.Correction>
   9.000000E+99

> <Gold.Chemscore.Hbonds>
donor molecule, donor type, donor heavy atom, donor atom, acceptor molecule, acceptor atom, score
      P1  H  6931  6943       L1    22  0.84
      P1  H  7989  7998       L1     7  0.30

> <Gold.Chemscore.Hbond.Weighted>
-8.2498

> <Gold.Chemscore.Metal.Weighted>
-0.0000

> <Gold.Chemscore.Lipo.Weighted>
-13.7058

> <Gold.Chemscore.Internal_Hbond.Weighted>
0.0000

> <Gold.Chemscore.DEClash.Weighted>
0.0992

> <Gold.Chemscore.DEInternal.Weighted>
5.0706

> <Gold.Chemscore.Rot.Weighted>
5.4526

> <Gold.Chemscore.Internal.Correction.Weighted>
   9.000000E+99

> <Gold.Protein.RotatedTorsions>
[ 6907 6896 6895 6894 ] final -138.33 input  -60.11 | X-H torsion
[ 7974 7965 7964 7962 ] final -149.00 input  175.53 | X-H torsion
[ 8008 7997 7996 7995 ] final   43.49 input   59.86 | X-H torsion
[ 10167 10162 10161 10158 ] final  -10.76 input  -65.29 | X-H torsion
[ 10718 10713 10712 10709 ] final   52.83 input   66.30 | X-H torsion
[ 10763 10752 10751 10750 ] final  -90.45 input  -60.55 | X-H torsion
[ 11005 11000 10999 10996 ] final -158.50 input  -57.11 | X-H torsion

> <Gold.Protein.ActiveResidues>
 VAL166  LYS551  ARG553  GLY616  TRP617  ASP618  TYR619  PRO620  LYS621  CYS622 
 ASP623  PHE694  ASN695  SER759  ASP760  ASP761  ALA762  ILE779  LEU786  VAL792 
 PHE793  MET794  SER795  GLU796  ALA797  LYS798  CYS799  TRP800  GLU811  SER814 

> <Gold.Protein.RotatedAtoms>
  151.0337  133.5767  159.2657 H   0  0  0  0  0  0  0  0  0  0  0  0  # atno 6907 bound_to 6896
  151.2839  135.0721  159.9189 H   0  0  0  0  0  0  0  0  0  0  0  0  # atno 6908 bound_to 6896
  152.5350  134.0047  159.7965 H   0  0  0  0  0  0  0  0  0  0  0  0  # atno 6909 bound_to 6896
  144.7994  140.5123  143.5717 H   0  0  0  0  0  0  0  0  0  0  0  0  # atno 7974 bound_to 7965
  155.3036  140.3386  155.4246 H   0  0  0  0  0  0  0  0  0  0  0  0  # atno 8008 bound_to 7997
  156.1989  140.1725  156.7978 H   0  0  0  0  0  0  0  0  0  0  0  0  # atno 8009 bound_to 7997
  154.5534  140.0701  156.8689 H   0  0  0  0  0  0  0  0  0  0  0  0  # atno 8010 bound_to 7997
  140.7122  143.5712  150.9090 H   0  0  0  0  0  0  0  0  0  0  0  0  # atno 10167 bound_to 10162
  157.5111  130.8501  149.8436 H   0  0  0  0  0  0  0  0  0  0  0  0  # atno 10718 bound_to 10713
  154.6659  135.5304  153.8076 H   0  0  0  0  0  0  0  0  0  0  0  0  # atno 10763 bound_to 10752
  153.0470  135.6517  154.0800 H   0  0  0  0  0  0  0  0  0  0  0  0  # atno 10764 bound_to 10752
  154.0704  135.2954  155.3289 H   0  0  0  0  0  0  0  0  0  0  0  0  # atno 10765 bound_to 10752
  140.6529  134.4431  157.5235 H   0  0  0  0  0  0  0  0  0  0  0  0  # atno 11005 bound_to 11000
  145.5590  139.1479  143.3352 LP  0  0  0  0  0  0  0  0  0  0  0  0  # atno 17320 bound_to 7965
  146.2272  140.5726  142.8991 LP  0  0  0  0  0  0  0  0  0  0  0  0  # atno 17321 bound_to 7965
  139.9438  143.6351  152.3047 LP  0  0  0  0  0  0  0  0  0  0  0  0  # atno 17342 bound_to 10162
  139.6845  144.7653  151.1549 LP  0  0  0  0  0  0  0  0  0  0  0  0  # atno 17343 bound_to 10162
  156.0289  130.3770  150.1742 LP  0  0  0  0  0  0  0  0  0  0  0  0  # atno 17370 bound_to 10713
  156.9932  130.9899  151.3409 LP  0  0  0  0  0  0  0  0  0  0  0  0  # atno 17371 bound_to 10713
  139.9039  134.8492  156.1782 LP  0  0  0  0  0  0  0  0  0  0  0  0  # atno 17394 bound_to 11000
  141.0523  133.6882  156.1795 LP  0  0  0  0  0  0  0  0  0  0  0  0  # atno 17395 bound_to 11000

$$$$
