AV-unprocessed.smi:2079|AV-procd|sdf|8484|dock8
  -GOLD-   2272011193D 1   1.00000     0.00000
 Structure written by MMmdl.
 41 42  0  0  0  0  0  0  0  0  3 V2000
  151.8494  140.3687  156.2316 C   0  0  0  0  0  0  0  0  0  0  0  0
  151.1764  139.2579  155.5010 C   0  0  0  0  0  0  0  0  0  0  0  0
  151.1341  137.9063  155.6971 C   0  0  0  0  0  0  0  0  0  0  0  0
  150.3157  137.4519  154.6286 C   0  0  0  0  0  0  0  0  0  0  0  0
  150.0255  136.0703  154.4754 N   0  0  0  0  0  0  0  0  0  0  0  0
  150.5076  135.0256  155.1730 C   0  0  0  0  0  0  0  0  0  0  0  0
  151.3292  135.2051  156.0803 O   0  0  0  0  0  0  0  0  0  0  0  0
  149.9907  133.8389  154.7488 N   0  5  0  0  0  0  0  0  0  0  0  0
  148.9680  133.6966  153.7134 C   0  0  0  0  0  0  0  0  0  0  0  0
  148.3271  132.2950  153.7786 C   0  0  0  0  0  0  0  0  0  0  0  0
  147.4840  132.0143  152.5848 N   0  3  1  0  0  0  0  0  0  0  0  0
  146.4995  130.9102  152.7764 C   0  0  0  0  0  0  0  0  0  0  0  0
  145.8416  130.5222  151.4421 C   0  0  0  0  0  0  0  0  0  0  0  0
  145.1875  131.7366  150.7712 C   0  0  0  0  0  0  0  0  0  0  0  0
  146.2096  132.8744  150.6251 C   0  0  0  0  0  0  0  0  0  0  0  0
  146.8760  133.2325  151.9701 C   0  0  1  0  0  0  0  0  0  0  0  0
  145.9175  133.9840  152.9199 C   0  0  0  0  0  0  0  0  0  0  0  0
  149.8936  138.4398  153.8531 N   0  0  0  0  0  0  0  0  0  0  0  0
  150.4438  139.6014  154.4073 O   0  0  0  0  0  0  0  0  0  0  0  0
  152.2648  140.0184  157.1766 H   0  0  0  0  0  0  0  0  0  0  0  0
  151.1453  141.1720  156.4489 H   0  0  0  0  0  0  0  0  0  0  0  0
  152.6634  140.7833  155.6367 H   0  0  0  0  0  0  0  0  0  0  0  0
  151.6145  137.3354  156.4778 H   0  0  0  0  0  0  0  0  0  0  0  0
  149.3579  135.8430  153.7536 H   0  0  0  0  0  0  0  0  0  0  0  0
  148.1849  134.4511  153.8006 H   0  0  0  0  0  0  0  0  0  0  0  0
  149.3973  133.8415  152.7220 H   0  0  0  0  0  0  0  0  0  0  0  0
  149.0857  131.5189  153.8926 H   0  0  0  0  0  0  0  0  0  0  0  0
  147.7108  132.2519  154.6778 H   0  0  0  0  0  0  0  0  0  0  0  0
  146.9957  130.0317  153.1893 H   0  0  0  0  0  0  0  0  0  0  0  0
  145.7424  131.2025  153.5045 H   0  0  0  0  0  0  0  0  0  0  0  0
  146.5934  130.0978  150.7754 H   0  0  0  0  0  0  0  0  0  0  0  0
  145.0982  129.7416  151.6058 H   0  0  0  0  0  0  0  0  0  0  0  0
  144.7943  131.4576  149.7932 H   0  0  0  0  0  0  0  0  0  0  0  0
  144.3342  132.0712  151.3618 H   0  0  0  0  0  0  0  0  0  0  0  0
  146.9801  132.5690  149.9155 H   0  0  0  0  0  0  0  0  0  0  0  0
  145.7322  133.7539  150.1916 H   0  0  0  0  0  0  0  0  0  0  0  0
  147.6958  133.9147  151.7396 H   0  0  0  0  0  0  0  0  0  0  0  0
  145.5284  134.8824  152.4400 H   0  0  0  0  0  0  0  0  0  0  0  0
  146.4194  134.3039  153.8330 H   0  0  0  0  0  0  0  0  0  0  0  0
  145.0601  133.3785  153.2118 H   0  0  0  0  0  0  0  0  0  0  0  0
  148.1376  131.6780  151.8920 H   0  0  0  0  0  0  0  0  0  0  0  0
  1  2  1  0  0  0  0
  1 20  1  0  0  0  0
  1 21  1  0  0  0  0
  1 22  1  0  0  0  0
  2 19  1  0  0  0  0
  2  3  2  0  0  0  0
  3  4  1  0  0  0  0
  3 23  1  0  0  0  0
  4  5  1  0  0  0  0
  4 18  2  0  0  0  0
  5  6  1  0  0  0  0
  5 24  1  0  0  0  0
  6  7  2  0  0  0  0
  6  8  1  0  0  0  0
  8  9  1  0  0  0  0
  9 10  1  0  0  0  0
  9 25  1  0  0  0  0
  9 26  1  0  0  0  0
 10 11  1  0  0  0  0
 10 27  1  0  0  0  0
 10 28  1  0  0  0  0
 11 16  1  0  0  0  0
 11 12  1  0  0  0  0
 11 41  1  0  0  0  0
 12 13  1  0  0  0  0
 12 29  1  0  0  0  0
 12 30  1  0  0  0  0
 13 14  1  0  0  0  0
 13 31  1  0  0  0  0
 13 32  1  0  0  0  0
 14 15  1  0  0  0  0
 14 33  1  0  0  0  0
 14 34  1  0  0  0  0
 15 16  1  0  0  0  0
 15 35  1  0  0  0  0
 15 36  1  0  0  0  0
 16 17  1  0  0  0  0
 16 37  1  0  0  0  0
 17 38  1  0  0  0  0
 17 39  1  0  0  0  0
 17 40  1  0  0  0  0
 18 19  1  0  0  0  0
M  CHG  1   8  -1
M  CHG  1  11   1
M  END
> <s_m_source_file>
AV-unprocessed.smi

> <i_m_source_file_index>
2079

> <i_lp_mmshare_version>
43012

> <i_f3d_flags>
0

> <s_epik_input>
W0NIM11jMVtjSF1jKG5vMSlbTkhdQyg9TylbTkhdW0NIMl1bQ0gyXU4yW0NIMl1bQ0gyXVtDSDJdW0NIMl1bQ0BIXTJbQ0gzXQ==

> <s_epik_cmdline>
J2VwaWtfcHl0aG9uJywgJy1waCcsICc3LjAnLCAnLXRuJywgJzgnLCAnLW1hJywgJzIwMCcsICctbWV0YWxfYmluZGluZycsICctaW1hZScsICc8aW5maWxlLm1hZT4nLCAnLW9tYWUnLCAnPG91dGZpbGUubWFlPic=

> <r_epik_Ionization_Penalty>
6.7666

> <r_epik_Ionization_Penalty_Charging>
6.7666

> <r_epik_Ionization_Penalty_Neutral>
5.77131e-06

> <r_epik_State_Penalty>
6.79217

> <r_epik_Charging_Adjusted_Penalty>
13.5588

> <i_epik_Tot_Q>
0

> <i_epik_Tot_abs_Q>
2

> <r_epik_Metal_State_Penalty>
2.72569

> <b_epik_Metal_Only>
1

> <s_lp_Force_Field>
OPLS_2005

> <r_lp_Energy>
14.7698

> <b_lp_Chiralities_Consistent>
1

> <s_lp_Variant>
AV-unprocessed.smi:2079-10

> <Gold.Version>
5.8.1

> <Gold.Id.Protein>
6NUR|6NUR_protein|mol2

> <Gold.PLP.Fitness>
41.0504

> <Gold.PLP.PLP>
-32.4178

> <Gold.PLP.part.hbond>
-4.6913

> <Gold.PLP.part.metal>
0.0000

> <Gold.PLP.part.buried>
-4.0259

> <Gold.PLP.part.nonpolar>
-25.5661

> <Gold.PLP.part.repulsive>
1.2837

> <Gold.PLP.ligand.clash>
2.0505

> <Gold.PLP.ligand.torsion>
0.4354

> <Gold.PLP.Chemscore.Hbond>
3.8320

> <Gold.PLP.Chemscore.CHOScore>
0.0000

> <Gold.PLP.Chemscore.Metal>
0.0000

> <Gold.Chemscore.Hbonds>
donor molecule, donor type, donor heavy atom, donor atom, acceptor molecule, acceptor atom, score
      L1  H     5    24       P1  7948  0.80
      L1  H    11    41       P1 10747  1.00
      P1  H  7989  7998       L1    19  1.00
      P1  H 10752 10765       L1     7  0.86

> <Gold.PLP.Chemscore.Internal.Correction>
0.0579

> <Gold.Rescore>
     Score         DG    S(hbond)    S(metal)    S(lipo)     H(rot)  DE(clash)    DE(int)     intcor
     16.54     -18.82       2.50        0.00      76.31       1.54       0.36       1.92       ----

> <Gold.Chemscore.Fitness>
16.5439

> <Gold.Chemscore.DG>
-18.8196

> <Gold.Chemscore.ZeroCoef>
-5.4800

> <Gold.Chemscore.Hbond>
2.5017

> <Gold.Chemscore.Metal>
0.0000

> <Gold.Chemscore.Lipo>
76.3130

> <Gold.Chemscore.Internal_Hbond>
0.0000

> <Gold.Chemscore.DEClash>
0.3562

> <Gold.Chemscore.DEInternal>
1.9194

> <Gold.Chemscore.Rot>
1.5409

> <Gold.Chemscore.Internal.Correction>
   9.000000E+99

> <Gold.Chemscore.Hbonds>
donor molecule, donor type, donor heavy atom, donor atom, acceptor molecule, acceptor atom, score
      L1  H     5    24       P1  7948  0.48
      L1  H    11    41       P1 10747  0.97
      P1  H  7989  7998       L1    19  0.39
      P1  H 10752 10765       L1     7  0.25

> <Gold.Chemscore.Hbond.Weighted>
-8.3556

> <Gold.Chemscore.Metal.Weighted>
-0.0000

> <Gold.Chemscore.Lipo.Weighted>
-8.9286

> <Gold.Chemscore.Internal_Hbond.Weighted>
0.0000

> <Gold.Chemscore.DEClash.Weighted>
0.3562

> <Gold.Chemscore.DEInternal.Weighted>
1.9194

> <Gold.Chemscore.Rot.Weighted>
3.9446

> <Gold.Chemscore.Internal.Correction.Weighted>
   9.000000E+99

> <Gold.Protein.RotatedTorsions>
[ 6907 6896 6895 6894 ] final  134.72 input  -60.11 | X-H torsion
[ 7974 7965 7964 7962 ] final   14.44 input  175.53 | X-H torsion
[ 8008 7997 7996 7995 ] final   46.78 input   59.86 | X-H torsion
[ 10167 10162 10161 10158 ] final   -4.44 input  -65.29 | X-H torsion
[ 10718 10713 10712 10709 ] final  179.50 input   66.30 | X-H torsion
[ 10763 10752 10751 10750 ] final -155.38 input  -60.55 | X-H torsion
[ 11005 11000 10999 10996 ] final -129.79 input  -57.11 | X-H torsion

> <Gold.Protein.ActiveResidues>
 VAL166  LYS551  ARG553  GLY616  TRP617  ASP618  TYR619  PRO620  LYS621  CYS622 
 ASP623  PHE694  ASN695  SER759  ASP760  ASP761  ALA762  ILE779  LEU786  VAL792 
 PHE793  MET794  SER795  GLU796  ALA797  LYS798  CYS799  TRP800  GLU811  SER814 

> <Gold.Protein.RotatedAtoms>
  152.3082  133.5725  159.5662 H   0  0  0  0  0  0  0  0  0  0  0  0  # atno 6907 bound_to 6896
  150.7310  134.0192  159.3704 H   0  0  0  0  0  0  0  0  0  0  0  0  # atno 6908 bound_to 6896
  151.8086  135.0688  160.0461 H   0  0  0  0  0  0  0  0  0  0  0  0  # atno 6909 bound_to 6896
  146.2305  139.9041  142.8534 H   0  0  0  0  0  0  0  0  0  0  0  0  # atno 7974 bound_to 7965
  155.3581  140.3417  155.4240 H   0  0  0  0  0  0  0  0  0  0  0  0  # atno 8008 bound_to 7997
  156.1728  140.1637  156.8451 H   0  0  0  0  0  0  0  0  0  0  0  0  # atno 8009 bound_to 7997
  154.5251  140.0758  156.8225 H   0  0  0  0  0  0  0  0  0  0  0  0  # atno 8010 bound_to 7997
  140.6927  143.6424  150.8424 H   0  0  0  0  0  0  0  0  0  0  0  0  # atno 10167 bound_to 10162
  156.8748  130.9796  151.3069 H   0  0  0  0  0  0  0  0  0  0  0  0  # atno 10718 bound_to 10713
  154.7791  135.3169  154.8028 H   0  0  0  0  0  0  0  0  0  0  0  0  # atno 10763 bound_to 10752
  153.8744  135.6841  153.4776 H   0  0  0  0  0  0  0  0  0  0  0  0  # atno 10764 bound_to 10752
  153.1423  135.4734  154.9450 H   0  0  0  0  0  0  0  0  0  0  0  0  # atno 10765 bound_to 10752
  140.9402  134.1204  157.4158 H   0  0  0  0  0  0  0  0  0  0  0  0  # atno 11005 bound_to 11000
  145.2294  140.9967  143.3999 LP  0  0  0  0  0  0  0  0  0  0  0  0  # atno 17320 bound_to 7965
  144.9543  139.4049  143.6387 LP  0  0  0  0  0  0  0  0  0  0  0  0  # atno 17321 bound_to 7965
  140.0138  143.5614  152.2828 LP  0  0  0  0  0  0  0  0  0  0  0  0  # atno 17342 bound_to 10162
  139.6348  144.7648  151.2461 LP  0  0  0  0  0  0  0  0  0  0  0  0  # atno 17343 bound_to 10162
  157.6174  130.8629  149.9052 LP  0  0  0  0  0  0  0  0  0  0  0  0  # atno 17370 bound_to 10713
  156.0707  130.3685  150.0781 LP  0  0  0  0  0  0  0  0  0  0  0  0  # atno 17371 bound_to 10713
  139.8818  135.0034  156.6184 LP  0  0  0  0  0  0  0  0  0  0  0  0  # atno 17394 bound_to 11000
  140.7745  133.8711  155.8518 LP  0  0  0  0  0  0  0  0  0  0  0  0  # atno 17395 bound_to 11000

$$$$
