AV-unprocessed.smi:3284|AV-procd|sdf|12574|dock10
  -GOLD-   2272018493D 1   1.00000     0.00000
 Structure written by MMmdl.
 44 45  0  0  0  0  0  0  0  0  2 V2000
  148.7029  139.9583  154.4581 C   0  0  0  0  0  0  0  0  0  0  0  0
  147.5964  140.7901  155.0854 C   0  0  0  0  0  0  0  0  0  0  0  0
  146.7762  141.5122  154.2983 C   0  0  0  0  0  0  0  0  0  0  0  0
  145.5993  142.3141  154.8028 C   0  0  0  0  0  0  0  0  0  0  0  0
  145.1472  141.8174  156.1777 C   0  0  0  0  0  0  0  0  0  0  0  0
  146.3319  141.7022  157.1505 C   0  0  1  0  0  0  0  0  0  0  0  0
  145.8132  141.2870  158.5408 C   0  0  0  0  0  0  0  0  0  0  0  0
  147.4474  140.7487  156.6204 C   0  0  2  0  0  0  0  0  0  0  0  0
  148.7818  141.0316  157.3606 C   0  0  0  0  0  0  0  0  0  0  0  0
  149.6177  142.0405  156.6780 N   0  3  0  0  0  0  0  0  0  0  0  0
  151.0261  142.0531  157.1173 C   0  0  0  0  0  0  0  0  0  0  0  0
  151.2688  143.1549  158.1563 C   0  0  0  0  0  0  0  0  0  0  0  0
  152.0754  142.6710  159.3206 C   0  0  0  0  0  0  0  0  0  0  0  0
  152.6739  141.4847  159.3553 N   0  0  0  0  0  0  0  0  0  0  0  0
  153.3212  141.4492  160.5856 C   0  0  0  0  0  0  0  0  0  0  0  0
  153.0962  142.6289  161.2529 C   0  0  0  0  0  0  0  0  0  0  0  0
  152.2987  143.4085  160.4256 N   0  0  0  0  0  0  0  0  0  0  0  0
  151.8191  144.7450  160.7188 C   0  0  0  0  0  0  0  0  0  0  0  0
  148.6694  138.9337  154.8293 H   0  0  0  0  0  0  0  0  0  0  0  0
  149.6818  140.3845  154.6760 H   0  0  0  0  0  0  0  0  0  0  0  0
  148.6016  139.9185  153.3729 H   0  0  0  0  0  0  0  0  0  0  0  0
  146.9321  141.5300  153.2293 H   0  0  0  0  0  0  0  0  0  0  0  0
  145.8829  143.3662  154.8425 H   0  0  0  0  0  0  0  0  0  0  0  0
  144.7770  142.2291  154.0920 H   0  0  0  0  0  0  0  0  0  0  0  0
  144.3900  142.4948  156.5745 H   0  0  0  0  0  0  0  0  0  0  0  0
  144.6651  140.8443  156.0725 H   0  0  0  0  0  0  0  0  0  0  0  0
  146.7597  142.7022  157.2425 H   0  0  0  0  0  0  0  0  0  0  0  0
  145.3835  140.2851  158.5188 H   0  0  0  0  0  0  0  0  0  0  0  0
  145.0348  141.9684  158.8854 H   0  0  0  0  0  0  0  0  0  0  0  0
  146.5959  141.2947  159.2977 H   0  0  0  0  0  0  0  0  0  0  0  0
  147.1363  139.7290  156.8531 H   0  0  0  0  0  0  0  0  0  0  0  0
  148.5730  141.3568  158.3810 H   0  0  0  0  0  0  0  0  0  0  0  0
  149.3839  140.1285  157.4459 H   0  0  0  0  0  0  0  0  0  0  0  0
  149.5878  141.8646  155.6839 H   0  0  0  0  0  0  0  0  0  0  0  0
  151.2773  141.0804  157.5425 H   0  0  0  0  0  0  0  0  0  0  0  0
  151.6728  142.2051  156.2524 H   0  0  0  0  0  0  0  0  0  0  0  0
  151.7644  144.0101  157.6961 H   0  0  0  0  0  0  0  0  0  0  0  0
  150.3138  143.5245  158.5322 H   0  0  0  0  0  0  0  0  0  0  0  0
  153.8945  140.5867  160.8922 H   0  0  0  0  0  0  0  0  0  0  0  0
  153.4319  142.9688  162.2217 H   0  0  0  0  0  0  0  0  0  0  0  0
  152.2539  145.1043  161.6520 H   0  0  0  0  0  0  0  0  0  0  0  0
  150.7336  144.7335  160.8176 H   0  0  0  0  0  0  0  0  0  0  0  0
  152.1012  145.4249  159.9149 H   0  0  0  0  0  0  0  0  0  0  0  0
  149.2213  142.9522  156.8569 H   0  0  0  0  0  0  0  0  0  0  0  0
  1  2  1  0  0  0  0
  1 19  1  0  0  0  0
  1 20  1  0  0  0  0
  1 21  1  0  0  0  0
  2  8  1  0  0  0  0
  2  3  2  0  0  0  0
  3  4  1  0  0  0  0
  3 22  1  0  0  0  0
  4  5  1  0  0  0  0
  4 23  1  0  0  0  0
  4 24  1  0  0  0  0
  5  6  1  0  0  0  0
  5 25  1  0  0  0  0
  5 26  1  0  0  0  0
  6  7  1  0  0  0  0
  6  8  1  0  0  0  0
  6 27  1  0  0  0  0
  7 28  1  0  0  0  0
  7 29  1  0  0  0  0
  7 30  1  0  0  0  0
  8  9  1  0  0  0  0
  8 31  1  0  0  0  0
  9 10  1  0  0  0  0
  9 32  1  0  0  0  0
  9 33  1  0  0  0  0
 10 11  1  0  0  0  0
 10 34  1  0  0  0  0
 10 44  1  0  0  0  0
 11 12  1  0  0  0  0
 11 35  1  0  0  0  0
 11 36  1  0  0  0  0
 12 13  1  0  0  0  0
 12 37  1  0  0  0  0
 12 38  1  0  0  0  0
 13 17  1  0  0  0  0
 13 14  2  0  0  0  0
 14 15  1  0  0  0  0
 15 16  2  0  0  0  0
 15 39  1  0  0  0  0
 16 17  1  0  0  0  0
 16 40  1  0  0  0  0
 17 18  1  0  0  0  0
 18 41  1  0  0  0  0
 18 42  1  0  0  0  0
 18 43  1  0  0  0  0
M  CHG  1  10   1
M  END
> <s_m_source_file>
AV-unprocessed.smi

> <i_m_source_file_index>
3284

> <i_lp_mmshare_version>
43012

> <i_f3d_flags>
0

> <s_epik_input>
W0NIM11DMT1bQ0hdW0NIMl1bQ0gyXVtDQEBIXShbQ0gzXSlbQ0BIXTFbQ0gyXVtOSF1bQ0gyXVtDSDJdYzJuW2NIXVtjSF1uMltDSDNd

> <s_epik_cmdline>
J2VwaWtfcHl0aG9uJywgJy1waCcsICc3LjAnLCAnLXRuJywgJzgnLCAnLW1hJywgJzIwMCcsICctbWV0YWxfYmluZGluZycsICctaW1hZScsICc8aW5maWxlLm1hZT4nLCAnLW9tYWUnLCAnPG91dGZpbGUubWFlPic=

> <r_lp_tautomer_probability>
1

> <r_epik_Ionization_Penalty>
0.150779

> <r_epik_Ionization_Penalty_Charging>
0.150779

> <r_epik_Ionization_Penalty_Neutral>
1.39452e-13

> <r_epik_State_Penalty>
0.349447

> <r_epik_Charging_Adjusted_Penalty>
0.500226

> <i_epik_Tot_Q>
1

> <i_epik_Tot_abs_Q>
1

> <r_epik_Metal_State_Penalty>
0.000470967

> <b_epik_Metal_Only>
0

> <s_lp_Force_Field>
OPLS_2005

> <r_lp_Energy>
12.7203

> <b_lp_Chiralities_Consistent>
1

> <s_lp_Variant>
AV-unprocessed.smi:3284-3

> <Gold.Version>
5.8.1

> <Gold.Id.Protein>
6NUR|6NUR_protein|mol2

> <Gold.PLP.Fitness>
47.1328

> <Gold.PLP.PLP>
-43.1783

> <Gold.PLP.part.hbond>
-0.8712

> <Gold.PLP.part.metal>
0.0000

> <Gold.PLP.part.buried>
-6.8989

> <Gold.PLP.part.nonpolar>
-35.8491

> <Gold.PLP.part.repulsive>
0.0805

> <Gold.PLP.ligand.clash>
0.0000

> <Gold.PLP.ligand.torsion>
1.0397

> <Gold.PLP.Chemscore.Hbond>
2.0000

> <Gold.PLP.Chemscore.CHOScore>
0.0000

> <Gold.PLP.Chemscore.Metal>
0.0000

> <Gold.Chemscore.Hbonds>
donor molecule, donor type, donor heavy atom, donor atom, acceptor molecule, acceptor atom, score
      L1  H    10    44       P1  8028  0.96

> <Gold.PLP.Chemscore.Internal.Correction>
0.0339

> <Gold.Rescore>
     Score         DG    S(hbond)    S(metal)    S(lipo)     H(rot)  DE(clash)    DE(int)     intcor
     14.90     -15.73       0.99        0.00      94.58       1.61       0.01       0.82       ----

> <Gold.Chemscore.Fitness>
14.8957

> <Gold.Chemscore.DG>
-15.7265

> <Gold.Chemscore.ZeroCoef>
-5.4800

> <Gold.Chemscore.Hbond>
0.9891

> <Gold.Chemscore.Metal>
0.0000

> <Gold.Chemscore.Lipo>
94.5807

> <Gold.Chemscore.Internal_Hbond>
0.0000

> <Gold.Chemscore.DEClash>
0.0130

> <Gold.Chemscore.DEInternal>
0.8177

> <Gold.Chemscore.Rot>
1.6105

> <Gold.Chemscore.Internal.Correction>
   9.000000E+99

> <Gold.Chemscore.Hbonds>
donor molecule, donor type, donor heavy atom, donor atom, acceptor molecule, acceptor atom, score
      L1  H    10    44       P1  8028  0.47

> <Gold.Chemscore.Hbond.Weighted>
-3.3035

> <Gold.Chemscore.Metal.Weighted>
-0.0000

> <Gold.Chemscore.Lipo.Weighted>
-11.0659

> <Gold.Chemscore.Internal_Hbond.Weighted>
0.0000

> <Gold.Chemscore.DEClash.Weighted>
0.0130

> <Gold.Chemscore.DEInternal.Weighted>
0.8177

> <Gold.Chemscore.Rot.Weighted>
4.1230

> <Gold.Chemscore.Internal.Correction.Weighted>
   9.000000E+99

> <Gold.Protein.RotatedTorsions>
[ 6907 6896 6895 6894 ] final -130.62 input  -60.11 | X-H torsion
[ 7974 7965 7964 7962 ] final  -92.19 input  175.53 | X-H torsion
[ 8008 7997 7996 7995 ] final   37.75 input   59.86 | X-H torsion
[ 10167 10162 10161 10158 ] final   51.10 input  -65.29 | X-H torsion
[ 10718 10713 10712 10709 ] final -159.82 input   66.30 | X-H torsion
[ 10763 10752 10751 10750 ] final  130.30 input  -60.55 | X-H torsion
[ 11005 11000 10999 10996 ] final  -21.13 input  -57.11 | X-H torsion

> <Gold.Protein.ActiveResidues>
 VAL166  LYS551  ARG553  GLY616  TRP617  ASP618  TYR619  PRO620  LYS621  CYS622 
 ASP623  PHE694  ASN695  SER759  ASP760  ASP761  ALA762  ILE779  LEU786  VAL792 
 PHE793  MET794  SER795  GLU796  ALA797  LYS798  CYS799  TRP800  GLU811  SER814 

> <Gold.Protein.RotatedAtoms>
  150.9418  133.6648  159.2788 H   0  0  0  0  0  0  0  0  0  0  0  0  # atno 6907 bound_to 6896
  151.4034  135.0973  159.9572 H   0  0  0  0  0  0  0  0  0  0  0  0  # atno 6908 bound_to 6896
  152.5072  133.8907  159.7447 H   0  0  0  0  0  0  0  0  0  0  0  0  # atno 6909 bound_to 6896
  145.4032  140.9539  143.2276 H   0  0  0  0  0  0  0  0  0  0  0  0  # atno 7974 bound_to 7965
  155.2089  140.3322  155.4332 H   0  0  0  0  0  0  0  0  0  0  0  0  # atno 8008 bound_to 7997
  156.2378  140.1880  156.7120 H   0  0  0  0  0  0  0  0  0  0  0  0  # atno 8009 bound_to 7997
  154.6091  140.0611  156.9456 H   0  0  0  0  0  0  0  0  0  0  0  0  # atno 8010 bound_to 7997
  140.2655  144.3325  150.6305 H   0  0  0  0  0  0  0  0  0  0  0  0  # atno 10167 bound_to 10162
  156.5735  130.8699  151.2844 H   0  0  0  0  0  0  0  0  0  0  0  0  # atno 10718 bound_to 10713
  153.7558  135.3203  155.3329 H   0  0  0  0  0  0  0  0  0  0  0  0  # atno 10763 bound_to 10752
  154.8247  135.4578  154.0886 H   0  0  0  0  0  0  0  0  0  0  0  0  # atno 10764 bound_to 10752
  153.2103  135.6935  153.8205 H   0  0  0  0  0  0  0  0  0  0  0  0  # atno 10765 bound_to 10752
  140.8532  133.7842  155.9989 H   0  0  0  0  0  0  0  0  0  0  0  0  # atno 11005 bound_to 11000
  144.8360  139.5550  143.6922 LP  0  0  0  0  0  0  0  0  0  0  0  0  # atno 17320 bound_to 7965
  146.2742  139.6710  142.9275 LP  0  0  0  0  0  0  0  0  0  0  0  0  # atno 17321 bound_to 7965
  140.5932  143.2167  151.7214 LP  0  0  0  0  0  0  0  0  0  0  0  0  # atno 17342 bound_to 10162
  139.5004  144.3908  152.0282 LP  0  0  0  0  0  0  0  0  0  0  0  0  # atno 17343 bound_to 10162
  157.7343  130.9743  150.2021 LP  0  0  0  0  0  0  0  0  0  0  0  0  # atno 17370 bound_to 10713
  156.2694  130.3720  149.8048 LP  0  0  0  0  0  0  0  0  0  0  0  0  # atno 17371 bound_to 10713
  140.8767  134.2661  157.5164 LP  0  0  0  0  0  0  0  0  0  0  0  0  # atno 17394 bound_to 11000
  139.8704  134.9594  156.4332 LP  0  0  0  0  0  0  0  0  0  0  0  0  # atno 17395 bound_to 11000

$$$$
