AV-unprocessed.smi:54|AV-procd|sdf|531|dock7
  -GOLD-   2262016403D 1   1.00000     0.00000
 Structure written by MMmdl.
 44 46  0  0  0  0  0  0  0  0  1 V2000
  152.0463  144.5017  157.6438 C   0  0  0  0  0  0  0  0  0  0  0  0
  151.4466  143.3817  158.5093 C   0  0  0  0  0  0  0  0  0  0  0  0
  152.4710  142.8536  159.5266 C   0  0  0  0  0  0  0  0  0  0  0  0
  150.9237  142.2404  157.6300 C   0  0  0  0  0  0  0  0  0  0  0  0
  151.3413  141.0870  157.7416 O   0  0  0  0  0  0  0  0  0  0  0  0
  149.9143  142.6164  156.6557 N   0  0  0  0  0  0  0  0  0  0  0  0
  149.2757  141.8004  155.7857 C   0  0  0  0  0  0  0  0  0  0  0  0
  149.5537  140.5104  155.6737 N   0  0  0  0  0  0  0  0  0  0  0  0
  148.7985  139.8332  154.7584 C   0  0  0  0  0  0  0  0  0  0  0  0
  147.8002  140.3705  153.9711 C   0  0  0  0  0  0  0  0  0  0  0  0
  147.2466  139.3873  153.1605 N   0  0  0  0  0  0  0  0  0  0  0  0
  147.9070  138.3094  153.4772 C   0  0  0  0  0  0  0  0  0  0  0  0
  148.8776  138.4911  154.4334 N   0  0  0  0  0  0  0  0  0  0  0  0
  149.7788  137.4423  155.0132 C   0  0  2  0  0  0  0  0  0  0  0  0
  149.5374  137.3663  156.3880 O   0  0  0  0  0  0  0  0  0  0  0  0
  150.6890  137.7677  157.1284 C   0  0  1  0  0  0  0  0  0  0  0  0
  150.7331  137.0842  158.5068 C   0  0  0  0  0  0  0  0  0  0  0  0
  150.2096  135.7759  158.4173 O   0  0  0  0  0  0  0  0  0  0  0  0
  151.8519  137.4378  156.1837 C   0  0  1  0  0  0  0  0  0  0  0  0
  152.2117  136.0694  156.2993 O   0  0  0  0  0  0  0  0  0  0  0  0
  151.2657  137.7789  154.8156 C   0  0  1  0  0  0  0  0  0  0  0  0
  151.8746  137.0348  153.7772 O   0  0  0  0  0  0  0  0  0  0  0  0
  147.4815  141.7653  154.0817 C   0  0  0  0  0  0  0  0  0  0  0  0
  146.6314  142.4033  153.4644 O   0  0  0  0  0  0  0  0  0  0  0  0
  148.2786  142.4169  155.0314 N   0  0  0  0  0  0  0  0  0  0  0  0
  149.4738  136.5085  154.5388 H   0  0  0  0  0  0  0  0  0  0  0  0
  150.6671  138.8471  157.2676 H   0  0  0  0  0  0  0  0  0  0  0  0
  152.7331  138.0408  156.4053 H   0  0  0  0  0  0  0  0  0  0  0  0
  151.3911  138.8435  154.6195 H   0  0  0  0  0  0  0  0  0  0  0  0
  151.3211  144.8750  156.9200 H   0  0  0  0  0  0  0  0  0  0  0  0
  152.9221  144.1575  157.0920 H   0  0  0  0  0  0  0  0  0  0  0  0
  152.3560  145.3462  158.2601 H   0  0  0  0  0  0  0  0  0  0  0  0
  150.6044  143.7976  159.0644 H   0  0  0  0  0  0  0  0  0  0  0  0
  152.0478  142.0552  160.1376 H   0  0  0  0  0  0  0  0  0  0  0  0
  152.7923  143.6463  160.2023 H   0  0  0  0  0  0  0  0  0  0  0  0
  153.3609  142.4599  159.0334 H   0  0  0  0  0  0  0  0  0  0  0  0
  149.6850  143.5983  156.6107 H   0  0  0  0  0  0  0  0  0  0  0  0
  147.7033  137.3521  153.0196 H   0  0  0  0  0  0  0  0  0  0  0  0
  151.7464  137.0591  158.9087 H   0  0  0  0  0  0  0  0  0  0  0  0
  150.1133  137.6328  159.2168 H   0  0  0  0  0  0  0  0  0  0  0  0
  149.7742  135.6832  157.5837 H   0  0  0  0  0  0  0  0  0  0  0  0
  151.4248  135.5485  156.2497 H   0  0  0  0  0  0  0  0  0  0  0  0
  151.2168  136.8316  153.1298 H   0  0  0  0  0  0  0  0  0  0  0  0
  148.1073  143.4025  155.1646 H   0  0  0  0  0  0  0  0  0  0  0  0
  1  2  1  0  0  0  0
  1 30  1  0  0  0  0
  1 31  1  0  0  0  0
  1 32  1  0  0  0  0
  2  3  1  0  0  0  0
  2  4  1  0  0  0  0
  2 33  1  0  0  0  0
  3 34  1  0  0  0  0
  3 35  1  0  0  0  0
  3 36  1  0  0  0  0
  4  5  2  0  0  0  0
  4  6  1  0  0  0  0
  6 37  1  0  0  0  0
  6  7  1  0  0  0  0
  7 25  1  0  0  0  0
  7  8  2  0  0  0  0
  8  9  1  0  0  0  0
  9 13  1  0  0  0  0
  9 10  2  0  0  0  0
 10 11  1  0  0  0  0
 10 23  1  0  0  0  0
 11 12  2  0  0  0  0
 12 13  1  0  0  0  0
 12 38  1  0  0  0  0
 13 14  1  0  0  0  0
 14 26  1  0  0  0  0
 14 21  1  0  0  0  0
 14 15  1  0  0  0  0
 15 16  1  0  0  0  0
 16 27  1  0  0  0  0
 16 17  1  0  0  0  0
 16 19  1  0  0  0  0
 17 18  1  0  0  0  0
 17 39  1  0  0  0  0
 17 40  1  0  0  0  0
 18 41  1  0  0  0  0
 19 28  1  0  0  0  0
 19 20  1  0  0  0  0
 19 21  1  0  0  0  0
 20 42  1  0  0  0  0
 21 29  1  0  0  0  0
 21 22  1  0  0  0  0
 22 43  1  0  0  0  0
 23 24  2  0  0  0  0
 23 25  1  0  0  0  0
 25 44  1  0  0  0  0
M  END
> <s_m_source_file>
AV-unprocessed.smi

> <i_m_source_file_index>
54

> <i_lp_mmshare_version>
43012

> <i_f3d_flags>
0

> <s_epik_input>
W0NIM11bQ0hdKFtDSDNdKUMoPU8pW05IXWMobjEpW25IXWMoPU8pYyhjMTIpbltjSF1uMltDQEBIXTNPW0NASF0oW0NIMl1bT0hdKVtDQEBIXShbT0hdKVtDQEhdM1tPSF0=

> <s_epik_cmdline>
J2VwaWtfcHl0aG9uJywgJy1waCcsICc3LjAnLCAnLXRuJywgJzgnLCAnLW1hJywgJzIwMCcsICctbWV0YWxfYmluZGluZycsICctaW1hZScsICc8aW5maWxlLm1hZT4nLCAnLW9tYWUnLCAnPG91dGZpbGUubWFlPic=

> <r_lp_tautomer_probability>
0.85571

> <r_epik_Ionization_Penalty>
0.0316551

> <r_epik_Ionization_Penalty_Charging>
0.0316043

> <r_epik_Ionization_Penalty_Neutral>
5.07097e-05

> <r_epik_State_Penalty>
3.15494e-07

> <r_epik_Charging_Adjusted_Penalty>
0.0316047

> <i_epik_Tot_Q>
0

> <i_epik_Tot_abs_Q>
0

> <r_epik_Metal_State_Penalty>
0.421206

> <b_epik_Metal_Only>
0

> <s_epik_Chemistry_Notes>
This compound contains an acetal/aminal-like group ( X-CH(R)-Y where X, Y are N, S, or O) that may be acid/base labile, releasing an aldehyde.

> <s_lp_Force_Field>
OPLS_2005

> <r_lp_Energy>
45.4171

> <b_lp_Chiralities_Consistent>
1

> <s_lp_Variant>
AV-unprocessed.smi:54-3

> <Gold.Version>
5.8.1

> <Gold.Id.Protein>
6NUR|6NUR_protein|mol2

> <Gold.PLP.Fitness>
50.2541

> <Gold.PLP.PLP>
-32.7454

> <Gold.PLP.part.hbond>
-5.6329

> <Gold.PLP.part.metal>
0.0000

> <Gold.PLP.part.buried>
-1.8386

> <Gold.PLP.part.nonpolar>
-27.9499

> <Gold.PLP.part.repulsive>
0.7150

> <Gold.PLP.ligand.clash>
0.0000

> <Gold.PLP.ligand.torsion>
0.2734

> <Gold.PLP.Chemscore.Hbond>
5.0639

> <Gold.PLP.Chemscore.CHOScore>
0.9449

> <Gold.PLP.Chemscore.Metal>
0.0000

> <Gold.Chemscore.Hbonds>
donor molecule, donor type, donor heavy atom, donor atom, acceptor molecule, acceptor atom, score
      L1  H     6    37       P1  8028  0.85
      L1  H    22    43       P1  7949  0.74
      L1  H    25    44       P1  8028  0.83
      P1  H  6896  6908       L1    18  0.93
      P1  H 10752 10764       L1    22  0.70
      P1  H 10752 10765       L1    20  0.93
      L1  C    12    38       P1  7948  0.95

> <Gold.PLP.Chemscore.Internal.Correction>
0.0290

> <Gold.Rescore>
     Score         DG    S(hbond)    S(metal)    S(lipo)     H(rot)  DE(clash)    DE(int)     intcor
     13.54     -16.82       4.32        0.00      62.18       4.05       1.70       1.58       ----

> <Gold.Chemscore.Fitness>
13.5366

> <Gold.Chemscore.DG>
-16.8202

> <Gold.Chemscore.ZeroCoef>
-5.4800

> <Gold.Chemscore.Hbond>
4.3206

> <Gold.Chemscore.Metal>
0.0000

> <Gold.Chemscore.Lipo>
62.1840

> <Gold.Chemscore.Internal_Hbond>
0.0000

> <Gold.Chemscore.DEClash>
1.7025

> <Gold.Chemscore.DEInternal>
1.5812

> <Gold.Chemscore.Rot>
4.0493

> <Gold.Chemscore.Internal.Correction>
   9.000000E+99

> <Gold.Chemscore.Hbonds>
donor molecule, donor type, donor heavy atom, donor atom, acceptor molecule, acceptor atom, score
      L1  H     6    37       P1  8028  0.85
      L1  H    22    43       P1  7949  0.43
      L1  H    25    44       P1  8028  0.68
      P1  H  6896  6908       L1    18  0.81
      P1  H 10752 10764       L1    22  0.52
      P1  H 10752 10765       L1    20  0.73

> <Gold.Chemscore.Hbond.Weighted>
-14.4309

> <Gold.Chemscore.Metal.Weighted>
-0.0000

> <Gold.Chemscore.Lipo.Weighted>
-7.2755

> <Gold.Chemscore.Internal_Hbond.Weighted>
0.0000

> <Gold.Chemscore.DEClash.Weighted>
1.7025

> <Gold.Chemscore.DEInternal.Weighted>
1.5812

> <Gold.Chemscore.Rot.Weighted>
10.3662

> <Gold.Chemscore.Internal.Correction.Weighted>
   9.000000E+99

> <Gold.Protein.RotatedTorsions>
[ 6907 6896 6895 6894 ] final  177.95 input  -60.11 | X-H torsion
[ 7974 7965 7964 7962 ] final -159.31 input  175.53 | X-H torsion
[ 8008 7997 7996 7995 ] final  106.00 input   59.86 | X-H torsion
[ 10167 10162 10161 10158 ] final  -83.92 input  -65.29 | X-H torsion
[ 10718 10713 10712 10709 ] final -147.93 input   66.30 | X-H torsion
[ 10763 10752 10751 10750 ] final -122.21 input  -60.55 | X-H torsion
[ 11005 11000 10999 10996 ] final  150.77 input  -57.11 | X-H torsion

> <Gold.Protein.ActiveResidues>
 VAL166  LYS551  ARG553  GLY616  TRP617  ASP618  TYR619  PRO620  LYS621  CYS622 
 ASP623  PHE694  ASN695  SER759  ASP760  ASP761  ALA762  ILE779  LEU786  VAL792 
 PHE793  MET794  SER795  GLU796  ALA797  LYS798  CYS799  TRP800  GLU811  SER814 

> <Gold.Protein.RotatedAtoms>
  151.6957  133.3311  159.3253 H   0  0  0  0  0  0  0  0  0  0  0  0  # atno 6907 bound_to 6896
  150.7759  134.6660  159.6375 H   0  0  0  0  0  0  0  0  0  0  0  0  # atno 6908 bound_to 6896
  152.3800  134.6607  160.0198 H   0  0  0  0  0  0  0  0  0  0  0  0  # atno 6909 bound_to 6896
  144.7470  140.3703  143.6077 H   0  0  0  0  0  0  0  0  0  0  0  0  # atno 7974 bound_to 7965
  156.1707  140.3120  155.8968 H   0  0  0  0  0  0  0  0  0  0  0  0  # atno 8008 bound_to 7997
  155.3593  140.0475  157.3063 H   0  0  0  0  0  0  0  0  0  0  0  0  # atno 8009 bound_to 7997
  154.5238  140.2207  155.8938 H   0  0  0  0  0  0  0  0  0  0  0  0  # atno 8010 bound_to 7997
  140.4181  143.2595  151.8927 H   0  0  0  0  0  0  0  0  0  0  0  0  # atno 10167 bound_to 10162
  156.4138  130.7995  151.2214 H   0  0  0  0  0  0  0  0  0  0  0  0  # atno 10718 bound_to 10713
  154.8685  135.4141  154.2744 H   0  0  0  0  0  0  0  0  0  0  0  0  # atno 10763 bound_to 10752
  153.3648  135.7005  153.6689 H   0  0  0  0  0  0  0  0  0  0  0  0  # atno 10764 bound_to 10752
  153.5575  135.3616  155.2757 H   0  0  0  0  0  0  0  0  0  0  0  0  # atno 10765 bound_to 10752
  140.1161  134.8894  157.2005 H   0  0  0  0  0  0  0  0  0  0  0  0  # atno 11005 bound_to 11000
  145.7084  139.1678  143.2552 LP  0  0  0  0  0  0  0  0  0  0  0  0  # atno 17320 bound_to 7965
  146.1364  140.7116  142.9387 LP  0  0  0  0  0  0  0  0  0  0  0  0  # atno 17321 bound_to 7965
  139.4782  144.5466  151.8449 LP  0  0  0  0  0  0  0  0  0  0  0  0  # atno 17342 bound_to 10162
  140.4564  144.1784  150.5902 LP  0  0  0  0  0  0  0  0  0  0  0  0  # atno 17343 bound_to 10162
  157.7507  131.0249  150.3897 LP  0  0  0  0  0  0  0  0  0  0  0  0  # atno 17370 bound_to 10713
  156.4200  130.3951  149.6831 LP  0  0  0  0  0  0  0  0  0  0  0  0  # atno 17371 bound_to 10713
  140.3027  134.3113  155.7286 LP  0  0  0  0  0  0  0  0  0  0  0  0  # atno 17394 bound_to 11000
  141.2141  133.7602  156.9664 LP  0  0  0  0  0  0  0  0  0  0  0  0  # atno 17395 bound_to 11000

$$$$
