AV-unprocessed.smi:110|AV-procd|sdf|1068|dock10
  -GOLD-   2262018153D 1   1.00000     0.00000
 Structure written by MMmdl.
 46 50  0  0  0  0  0  0  0  0  1 V2000
  151.2866  131.9099  157.9333 O   0  0  0  0  0  0  0  0  0  0  0  0
  151.9529  132.2736  156.7430 C   0  0  0  0  0  0  0  0  0  0  0  0
  151.4474  133.6406  156.2493 C   0  0  2  0  0  0  0  0  0  0  0  0
  150.7781  134.3502  157.2910 O   0  0  0  0  0  0  0  0  0  0  0  0
  149.7965  135.1919  156.7619 C   0  0  1  0  0  0  0  0  0  0  0  0
  150.1061  136.6158  157.1175 N   0  0  0  0  0  0  0  0  0  0  0  0
  149.2423  137.5356  157.6667 C   0  0  0  0  0  0  0  0  0  0  0  0
  149.7487  138.7173  157.8881 N   0  0  0  0  0  0  0  0  0  0  0  0
  151.0704  138.6073  157.4732 C   0  0  0  0  0  0  0  0  0  0  0  0
  152.1796  139.4999  157.4290 C   0  0  0  0  0  0  0  0  0  0  0  0
  152.1492  140.7854  157.8512 N   0  0  0  0  0  0  0  0  0  0  0  0
  151.3234  141.7637  157.1289 C   0  0  0  0  0  0  0  0  0  0  0  0
  151.1135  142.9726  158.0608 C   0  0  0  0  0  0  0  0  0  0  0  0
  151.9757  142.5916  159.2211 C   0  0  0  0  0  0  0  0  0  0  0  0
  152.2429  143.3546  160.3710 C   0  0  0  0  0  0  0  0  0  0  0  0
  153.1119  142.8120  161.3418 C   0  0  0  0  0  0  0  0  0  0  0  0
  153.6988  141.5403  161.1453 C   0  0  0  0  0  0  0  0  0  0  0  0
  153.4173  140.7924  159.9810 C   0  0  0  0  0  0  0  0  0  0  0  0
  152.5301  141.3305  159.0258 C   0  0  0  0  0  0  0  0  0  0  0  0
  153.3337  139.0428  156.8809 N   0  0  0  0  0  0  0  0  0  0  0  0
  153.4161  137.7830  156.4453 C   0  0  0  0  0  0  0  0  0  0  0  0
  152.4763  136.8369  156.4507 N   0  0  0  0  0  0  0  0  0  0  0  0
  151.3014  137.2943  156.9711 C   0  0  0  0  0  0  0  0  0  0  0  0
  149.7193  134.9396  155.2426 C   0  0  1  0  0  0  0  0  0  0  0  0
  150.3768  135.9213  154.4607 O   0  0  0  0  0  0  0  0  0  0  0  0
  150.4170  133.5948  155.1125 C   0  0  2  0  0  0  0  0  0  0  0  0
  149.4944  132.5358  155.2986 O   0  0  0  0  0  0  0  0  0  0  0  0
  152.2906  134.2389  155.9021 H   0  0  0  0  0  0  0  0  0  0  0  0
  148.8532  134.9838  157.2685 H   0  0  0  0  0  0  0  0  0  0  0  0
  148.6752  134.9025  154.9287 H   0  0  0  0  0  0  0  0  0  0  0  0
  150.8902  133.4610  154.1385 H   0  0  0  0  0  0  0  0  0  0  0  0
  151.4386  130.9914  158.0947 H   0  0  0  0  0  0  0  0  0  0  0  0
  153.0181  132.3276  156.9704 H   0  0  0  0  0  0  0  0  0  0  0  0
  151.8198  131.5013  155.9847 H   0  0  0  0  0  0  0  0  0  0  0  0
  148.2133  137.3017  157.8978 H   0  0  0  0  0  0  0  0  0  0  0  0
  151.8434  142.0690  156.2202 H   0  0  0  0  0  0  0  0  0  0  0  0
  150.3684  141.3253  156.8358 H   0  0  0  0  0  0  0  0  0  0  0  0
  151.4460  143.9074  157.6087 H   0  0  0  0  0  0  0  0  0  0  0  0
  150.0741  143.0700  158.3755 H   0  0  0  0  0  0  0  0  0  0  0  0
  151.7996  144.3302  160.5060 H   0  0  0  0  0  0  0  0  0  0  0  0
  153.3366  143.3748  162.2356 H   0  0  0  0  0  0  0  0  0  0  0  0
  154.3716  141.1392  161.8890 H   0  0  0  0  0  0  0  0  0  0  0  0
  153.8815  139.8289  159.8305 H   0  0  0  0  0  0  0  0  0  0  0  0
  154.3711  137.4908  156.0340 H   0  0  0  0  0  0  0  0  0  0  0  0
  149.8992  136.0298  153.6524 H   0  0  0  0  0  0  0  0  0  0  0  0
  148.7330  132.7037  154.7646 H   0  0  0  0  0  0  0  0  0  0  0  0
  1  2  1  0  0  0  0
  1 32  1  0  0  0  0
  2  3  1  0  0  0  0
  2 33  1  0  0  0  0
  2 34  1  0  0  0  0
  3 28  1  0  0  0  0
  3 26  1  0  0  0  0
  3  4  1  0  0  0  0
  4  5  1  0  0  0  0
  5 29  1  0  0  0  0
  5  6  1  0  0  0  0
  5 24  1  0  0  0  0
  6 23  1  0  0  0  0
  6  7  1  0  0  0  0
  7  8  2  0  0  0  0
  7 35  1  0  0  0  0
  8  9  1  0  0  0  0
  9 23  2  0  0  0  0
  9 10  1  0  0  0  0
 10 11  1  0  0  0  0
 10 20  2  0  0  0  0
 11 19  1  0  0  0  0
 11 12  1  0  0  0  0
 12 13  1  0  0  0  0
 12 36  1  0  0  0  0
 12 37  1  0  0  0  0
 13 14  1  0  0  0  0
 13 38  1  0  0  0  0
 13 39  1  0  0  0  0
 14 19  2  0  0  0  0
 14 15  1  0  0  0  0
 15 16  2  0  0  0  0
 15 40  1  0  0  0  0
 16 17  1  0  0  0  0
 16 41  1  0  0  0  0
 17 18  2  0  0  0  0
 17 42  1  0  0  0  0
 18 19  1  0  0  0  0
 18 43  1  0  0  0  0
 20 21  1  0  0  0  0
 21 22  2  0  0  0  0
 21 44  1  0  0  0  0
 22 23  1  0  0  0  0
 24 30  1  0  0  0  0
 24 25  1  0  0  0  0
 24 26  1  0  0  0  0
 25 45  1  0  0  0  0
 26 31  1  0  0  0  0
 26 27  1  0  0  0  0
 27 46  1  0  0  0  0
M  END
> <s_m_source_file>
AV-unprocessed.smi

> <i_m_source_file_index>
110

> <i_lp_mmshare_version>
43012

> <i_f3d_flags>
0

> <s_epik_input>
W09IXVtDSDJdW0NASF0xT1tDQEhdKFtDQEhdKFtPSF0pW0NAQEhdMVtPSF0pbihbY0hdbjIpYyhjMjMpbltjSF1uYzNOKFtDSDJdW0NIMl00KWMoYzQ1KVtjSF1bY0hdW2NIXVtjSF01

> <s_epik_cmdline>
J2VwaWtfcHl0aG9uJywgJy1waCcsICc3LjAnLCAnLXRuJywgJzgnLCAnLW1hJywgJzIwMCcsICctbWV0YWxfYmluZGluZycsICctaW1hZScsICc8aW5maWxlLm1hZT4nLCAnLW9tYWUnLCAnPG91dGZpbGUubWFlPic=

> <r_lp_tautomer_probability>
1

> <r_epik_Ionization_Penalty>
0.00068475

> <r_epik_Ionization_Penalty_Charging>
0

> <r_epik_Ionization_Penalty_Neutral>
0.00068475

> <r_epik_State_Penalty>
0.000417442

> <r_epik_Charging_Adjusted_Penalty>
0.000417442

> <i_epik_Tot_Q>
0

> <i_epik_Tot_abs_Q>
0

> <r_epik_Metal_State_Penalty>
-0

> <b_epik_Metal_Only>
0

> <s_epik_Chemistry_Notes>
This compound contains an acetal/aminal-like group ( X-CH(R)-Y where X, Y are N, S, or O) that may be acid/base labile, releasing an aldehyde.

> <s_lp_Force_Field>
OPLS_2005

> <r_lp_Energy>
62.6904

> <b_lp_Chiralities_Consistent>
1

> <s_lp_Variant>
AV-unprocessed.smi:110-6

> <Gold.Version>
5.8.1

> <Gold.Id.Protein>
6NUR|6NUR_protein|mol2

> <Gold.PLP.Fitness>
49.4080

> <Gold.PLP.PLP>
-42.2388

> <Gold.PLP.part.hbond>
-5.5711

> <Gold.PLP.part.metal>
0.0000

> <Gold.PLP.part.buried>
-6.5159

> <Gold.PLP.part.nonpolar>
-29.4467

> <Gold.PLP.part.repulsive>
0.0000

> <Gold.PLP.ligand.clash>
0.0000

> <Gold.PLP.ligand.torsion>
2.1915

> <Gold.PLP.Chemscore.Hbond>
3.8291

> <Gold.PLP.Chemscore.CHOScore>
0.0000

> <Gold.PLP.Chemscore.Metal>
0.0000

> <Gold.Chemscore.Hbonds>
donor molecule, donor type, donor heavy atom, donor atom, acceptor molecule, acceptor atom, score
      L1  H    25    45       P1  7948  0.75
      P1  H  6896  6908       L1     1  1.00
      P1  H  6896  6909       L1     4  0.02
      P1  H  7997  8010       L1    20  0.93
      P1  H 10752 10765       L1    22  0.98

> <Gold.PLP.Chemscore.Internal.Correction>
0.0648

> <Gold.Rescore>
     Score         DG    S(hbond)    S(metal)    S(lipo)     H(rot)  DE(clash)    DE(int)     intcor
     14.74     -18.07       2.82        0.00     101.07       3.38       0.01       3.33       ----

> <Gold.Chemscore.Fitness>
14.7390

> <Gold.Chemscore.DG>
-18.0747

> <Gold.Chemscore.ZeroCoef>
-5.4800

> <Gold.Chemscore.Hbond>
2.8237

> <Gold.Chemscore.Metal>
0.0000

> <Gold.Chemscore.Lipo>
101.0730

> <Gold.Chemscore.Internal_Hbond>
0.0000

> <Gold.Chemscore.DEClash>
0.0089

> <Gold.Chemscore.DEInternal>
3.3267

> <Gold.Chemscore.Rot>
3.3837

> <Gold.Chemscore.Internal.Correction>
   9.000000E+99

> <Gold.Chemscore.Hbonds>
donor molecule, donor type, donor heavy atom, donor atom, acceptor molecule, acceptor atom, score
      L1  H    25    45       P1  7948  0.09
      P1  H  6896  6908       L1     1  0.64
      P1  H  6896  6909       L1     4  0.02
      P1  H  7997  8010       L1    20  0.82
      P1  H 10752 10765       L1    22  0.30

> <Gold.Chemscore.Hbond.Weighted>
-9.4313

> <Gold.Chemscore.Metal.Weighted>
-0.0000

> <Gold.Chemscore.Lipo.Weighted>
-11.8255

> <Gold.Chemscore.Internal_Hbond.Weighted>
0.0000

> <Gold.Chemscore.DEClash.Weighted>
0.0089

> <Gold.Chemscore.DEInternal.Weighted>
3.3267

> <Gold.Chemscore.Rot.Weighted>
8.6622

> <Gold.Chemscore.Internal.Correction.Weighted>
   9.000000E+99

> <Gold.Protein.RotatedTorsions>
[ 6907 6896 6895 6894 ] final   59.44 input  -60.11 | X-H torsion
[ 7974 7965 7964 7962 ] final  -92.81 input  175.53 | X-H torsion
[ 8008 7997 7996 7995 ] final   66.88 input   59.86 | X-H torsion
[ 10167 10162 10161 10158 ] final -114.57 input  -65.29 | X-H torsion
[ 10718 10713 10712 10709 ] final  -61.94 input   66.30 | X-H torsion
[ 10763 10752 10751 10750 ] final -146.70 input  -60.55 | X-H torsion
[ 11005 11000 10999 10996 ] final  160.28 input  -57.11 | X-H torsion

> <Gold.Protein.ActiveResidues>
 VAL166  LYS551  ARG553  GLY616  TRP617  ASP618  TYR619  PRO620  LYS621  CYS622 
 ASP623  PHE694  ASN695  SER759  ASP760  ASP761  ALA762  ILE779  LEU786  VAL792 
 PHE793  MET794  SER795  GLU796  ALA797  LYS798  CYS799  TRP800  GLU811  SER814 

> <Gold.Protein.RotatedAtoms>
  152.3915  134.6434  160.0105 H   0  0  0  0  0  0  0  0  0  0  0  0  # atno 6907 bound_to 6896
  151.6667  133.3309  159.3195 H   0  0  0  0  0  0  0  0  0  0  0  0  # atno 6908 bound_to 6896
  150.7830  134.6834  159.6501 H   0  0  0  0  0  0  0  0  0  0  0  0  # atno 6909 bound_to 6896
  145.3949  140.9532  143.2319 H   0  0  0  0  0  0  0  0  0  0  0  0  # atno 7974 bound_to 7965
  155.6842  140.3496  155.4867 H   0  0  0  0  0  0  0  0  0  0  0  0  # atno 8008 bound_to 7997
  155.9581  140.1132  157.0942 H   0  0  0  0  0  0  0  0  0  0  0  0  # atno 8009 bound_to 7997
  154.4137  140.1181  156.5128 H   0  0  0  0  0  0  0  0  0  0  0  0  # atno 8010 bound_to 7997
  140.0996  143.4625  152.1820 H   0  0  0  0  0  0  0  0  0  0  0  0  # atno 10167 bound_to 10162
  156.0888  130.4203  150.1065 H   0  0  0  0  0  0  0  0  0  0  0  0  # atno 10718 bound_to 10713
  154.8323  135.3379  154.6702 H   0  0  0  0  0  0  0  0  0  0  0  0  # atno 10763 bound_to 10752
  153.7321  135.6951  153.4991 H   0  0  0  0  0  0  0  0  0  0  0  0  # atno 10764 bound_to 10752
  153.2305  135.4418  155.0541 H   0  0  0  0  0  0  0  0  0  0  0  0  # atno 10765 bound_to 10752
  140.2044  134.8314  157.3053 H   0  0  0  0  0  0  0  0  0  0  0  0  # atno 11005 bound_to 11000
  144.8414  139.5466  143.6898 LP  0  0  0  0  0  0  0  0  0  0  0  0  # atno 17320 bound_to 7965
  146.2780  139.6802  142.9249 LP  0  0  0  0  0  0  0  0  0  0  0  0  # atno 17321 bound_to 7965
  139.5679  144.7446  151.3972 LP  0  0  0  0  0  0  0  0  0  0  0  0  # atno 17342 bound_to 10162
  140.6985  143.7690  150.7365 LP  0  0  0  0  0  0  0  0  0  0  0  0  # atno 17343 bound_to 10162
  156.9080  130.9642  151.3567 LP  0  0  0  0  0  0  0  0  0  0  0  0  # atno 17370 bound_to 10713
  157.6031  130.8527  149.8832 LP  0  0  0  0  0  0  0  0  0  0  0  0  # atno 17371 bound_to 10713
  140.2019  134.4245  155.7658 LP  0  0  0  0  0  0  0  0  0  0  0  0  # atno 17394 bound_to 11000
  141.2227  133.7076  156.8197 LP  0  0  0  0  0  0  0  0  0  0  0  0  # atno 17395 bound_to 11000

$$$$
