AV-unprocessed.smi:1406|AV-procd|sdf|5710|dock10
  -GOLD-   22720 5343D 1   1.00000     0.00000
 Structure written by MMmdl.
 41 43  0  0  0  0  0  0  0  0  2 V2000
  150.2865  132.3280  155.0064 C   0  0  0  0  0  0  0  0  0  0  0  0
  149.7586  133.5939  154.3012 C   0  0  1  0  0  0  0  0  0  0  0  0
  148.2346  133.5752  154.0884 C   0  0  0  0  0  0  0  0  0  0  0  0
  147.5009  132.9049  154.8158 O   0  0  0  0  0  0  0  0  0  0  0  0
  147.7667  134.3246  153.0780 N   0  0  0  0  0  0  0  0  0  0  0  0
  146.3556  134.4986  152.7550 C   0  0  2  0  0  0  0  0  0  0  0  0
  145.5978  135.4173  153.7251 C   0  0  0  0  0  0  0  0  0  0  0  0
  144.2026  134.7794  153.8824 C   0  0  0  0  0  0  0  0  0  0  0  0
  144.1679  133.5993  152.9870 N   0  3  1  0  0  0  0  0  0  0  0  0
  143.4895  133.8964  151.6951 C   0  0  0  0  0  0  0  0  0  0  0  0
  143.6606  132.7608  150.6778 C   0  0  0  0  0  0  0  0  0  0  0  0
  145.1472  132.4976  150.4248 C   0  0  0  0  0  0  0  0  0  0  0  0
  145.8349  132.1404  151.7468 C   0  0  0  0  0  0  0  0  0  0  0  0
  145.5849  133.1806  152.8617 C   0  0  1  0  0  0  0  0  0  0  0  0
  150.1616  134.8088  155.0007 N   0  0  0  0  0  0  0  0  0  0  0  0
  150.8307  135.8747  154.5555 C   0  0  0  0  0  0  0  0  0  0  0  0
  150.9820  136.8318  155.4597 N   0  0  0  0  0  0  0  0  0  0  0  0
  150.3368  136.2527  156.5154 C   0  0  0  0  0  0  0  0  0  0  0  0
  149.8176  135.0459  156.2912 N   0  0  0  0  0  0  0  0  0  0  0  0
  150.0480  131.4296  154.4358 H   0  0  0  0  0  0  0  0  0  0  0  0
  149.8615  132.2097  156.0042 H   0  0  0  0  0  0  0  0  0  0  0  0
  151.3710  132.3664  155.1128 H   0  0  0  0  0  0  0  0  0  0  0  0
  150.2140  133.6280  153.3102 H   0  0  0  0  0  0  0  0  0  0  0  0
  148.4330  134.8419  152.5229 H   0  0  0  0  0  0  0  0  0  0  0  0
  146.2594  134.8907  151.7408 H   0  0  0  0  0  0  0  0  0  0  0  0
  146.0930  135.4683  154.6960 H   0  0  0  0  0  0  0  0  0  0  0  0
  145.5381  136.4336  153.3341 H   0  0  0  0  0  0  0  0  0  0  0  0
  144.0721  134.4350  154.9089 H   0  0  0  0  0  0  0  0  0  0  0  0
  143.3969  135.4853  153.6752 H   0  0  0  0  0  0  0  0  0  0  0  0
  142.4290  134.0679  151.8830 H   0  0  0  0  0  0  0  0  0  0  0  0
  143.8833  134.8220  151.2717 H   0  0  0  0  0  0  0  0  0  0  0  0
  143.1765  131.8545  151.0440 H   0  0  0  0  0  0  0  0  0  0  0  0
  143.1652  133.0221  149.7423 H   0  0  0  0  0  0  0  0  0  0  0  0
  145.2692  131.6852  149.7078 H   0  0  0  0  0  0  0  0  0  0  0  0
  145.6143  133.3773  149.9807 H   0  0  0  0  0  0  0  0  0  0  0  0
  145.4567  131.1737  152.0823 H   0  0  0  0  0  0  0  0  0  0  0  0
  146.9056  132.0039  151.5892 H   0  0  0  0  0  0  0  0  0  0  0  0
  145.8553  132.7132  153.8111 H   0  0  0  0  0  0  0  0  0  0  0  0
  151.2080  135.9561  153.5466 H   0  0  0  0  0  0  0  0  0  0  0  0
  150.2400  136.7384  157.4755 H   0  0  0  0  0  0  0  0  0  0  0  0
  143.6488  132.8558  153.4322 H   0  0  0  0  0  0  0  0  0  0  0  0
  1  2  1  0  0  0  0
  1 20  1  0  0  0  0
  1 21  1  0  0  0  0
  1 22  1  0  0  0  0
  2  3  1  0  0  0  0
  2 15  1  0  0  0  0
  2 23  1  0  0  0  0
  3  4  2  0  0  0  0
  3  5  1  0  0  0  0
  5  6  1  0  0  0  0
  5 24  1  0  0  0  0
  6 14  1  0  0  0  0
  6  7  1  0  0  0  0
  6 25  1  0  0  0  0
  7  8  1  0  0  0  0
  7 26  1  0  0  0  0
  7 27  1  0  0  0  0
  8  9  1  0  0  0  0
  8 28  1  0  0  0  0
  8 29  1  0  0  0  0
  9 14  1  0  0  0  0
  9 10  1  0  0  0  0
  9 41  1  0  0  0  0
 10 11  1  0  0  0  0
 10 30  1  0  0  0  0
 10 31  1  0  0  0  0
 11 12  1  0  0  0  0
 11 32  1  0  0  0  0
 11 33  1  0  0  0  0
 12 13  1  0  0  0  0
 12 34  1  0  0  0  0
 12 35  1  0  0  0  0
 13 14  1  0  0  0  0
 13 36  1  0  0  0  0
 13 37  1  0  0  0  0
 14 38  1  0  0  0  0
 15 19  1  0  0  0  0
 15 16  1  0  0  0  0
 16 17  2  0  0  0  0
 16 39  1  0  0  0  0
 17 18  1  0  0  0  0
 18 19  2  0  0  0  0
 18 40  1  0  0  0  0
M  CHG  1   9   1
M  END
> <s_m_source_file>
AV-unprocessed.smi

> <i_m_source_file_index>
1406

> <i_lp_mmshare_version>
43012

> <i_f3d_flags>
0

> <s_epik_input>
bjFbY0hdbltjSF1uMVtDQEhdKFtDSDNdKUMoPU8pW05IXVtDQEhdKFtDSDJdW0NIMl0yKVtDQEBIXShOMjMpW0NIMl1bQ0gyXVtDSDJdW0NIMl0z

> <s_epik_cmdline>
J2VwaWtfcHl0aG9uJywgJy1waCcsICc3LjAnLCAnLXRuJywgJzgnLCAnLW1hJywgJzIwMCcsICctbWV0YWxfYmluZGluZycsICctaW1hZScsICc8aW5maWxlLm1hZT4nLCAnLW9tYWUnLCAnPG91dGZpbGUubWFlPic=

> <r_lp_tautomer_probability>
1

> <r_epik_Ionization_Penalty>
0.00197066

> <r_epik_Ionization_Penalty_Charging>
0.00196223

> <r_epik_Ionization_Penalty_Neutral>
8.43107e-06

> <r_epik_State_Penalty>
0.00133866

> <r_epik_Charging_Adjusted_Penalty>
0.00330089

> <i_epik_Tot_Q>
1

> <i_epik_Tot_abs_Q>
1

> <r_epik_Metal_State_Penalty>
-0

> <b_epik_Metal_Only>
0

> <s_lp_Force_Field>
OPLS_2005

> <r_lp_Energy>
42.7017

> <b_lp_Chiralities_Consistent>
1

> <s_lp_Variant>
AV-unprocessed.smi:1406-2

> <Gold.Version>
5.8.1

> <Gold.Id.Protein>
6NUR|6NUR_protein|mol2

> <Gold.PLP.Fitness>
36.6649

> <Gold.PLP.PLP>
-26.3893

> <Gold.PLP.part.hbond>
-1.9858

> <Gold.PLP.part.metal>
0.0000

> <Gold.PLP.part.buried>
-2.7087

> <Gold.PLP.part.nonpolar>
-20.7143

> <Gold.PLP.part.repulsive>
0.1065

> <Gold.PLP.ligand.clash>
0.0000

> <Gold.PLP.ligand.torsion>
0.9146

> <Gold.PLP.Chemscore.Hbond>
3.0000

> <Gold.PLP.Chemscore.CHOScore>
1.0000

> <Gold.PLP.Chemscore.Metal>
0.0000

> <Gold.Chemscore.Hbonds>
donor molecule, donor type, donor heavy atom, donor atom, acceptor molecule, acceptor atom, score
      L1  H     5    24       P1  7948  1.00
      L1  H     9    41       P1 10957  2.00
      L1  C    16    39       P1  7949  1.00

> <Gold.PLP.Chemscore.Internal.Correction>
0.1048

> <Gold.Rescore>
     Score         DG    S(hbond)    S(metal)    S(lipo)     H(rot)  DE(clash)    DE(int)     intcor
     10.60     -12.74       1.98        0.00      46.68       1.89       0.00       2.13       ----

> <Gold.Chemscore.Fitness>
10.6037

> <Gold.Chemscore.DG>
-12.7362

> <Gold.Chemscore.ZeroCoef>
-5.4800

> <Gold.Chemscore.Hbond>
1.9833

> <Gold.Chemscore.Metal>
0.0000

> <Gold.Chemscore.Lipo>
46.6788

> <Gold.Chemscore.Internal_Hbond>
0.0000

> <Gold.Chemscore.DEClash>
0.0000

> <Gold.Chemscore.DEInternal>
2.1326

> <Gold.Chemscore.Rot>
1.8865

> <Gold.Chemscore.Internal.Correction>
   9.000000E+99

> <Gold.Chemscore.Hbonds>
donor molecule, donor type, donor heavy atom, donor atom, acceptor molecule, acceptor atom, score
      L1  H     5    24       P1  7948  0.28
      L1  H     9    41       P1 10957  0.68

> <Gold.Chemscore.Hbond.Weighted>
-6.6243

> <Gold.Chemscore.Metal.Weighted>
-0.0000

> <Gold.Chemscore.Lipo.Weighted>
-5.4614

> <Gold.Chemscore.Internal_Hbond.Weighted>
0.0000

> <Gold.Chemscore.DEClash.Weighted>
0.0000

> <Gold.Chemscore.DEInternal.Weighted>
2.1326

> <Gold.Chemscore.Rot.Weighted>
4.8295

> <Gold.Chemscore.Internal.Correction.Weighted>
   9.000000E+99

> <Gold.Protein.RotatedTorsions>
[ 6907 6896 6895 6894 ] final   69.42 input  -60.11 | X-H torsion
[ 7974 7965 7964 7962 ] final -147.35 input  175.53 | X-H torsion
[ 8008 7997 7996 7995 ] final  -56.43 input   59.86 | X-H torsion
[ 10167 10162 10161 10158 ] final   23.02 input  -65.29 | X-H torsion
[ 10718 10713 10712 10709 ] final  103.98 input   66.30 | X-H torsion
[ 10763 10752 10751 10750 ] final  134.22 input  -60.55 | X-H torsion
[ 11005 11000 10999 10996 ] final  -32.30 input  -57.11 | X-H torsion

> <Gold.Protein.ActiveResidues>
 VAL166  LYS551  ARG553  GLY616  TRP617  ASP618  TYR619  PRO620  LYS621  CYS622 
 ASP623  PHE694  ASN695  SER759  ASP760  ASP761  ALA762  ILE779  LEU786  VAL792 
 PHE793  MET794  SER795  GLU796  ALA797  LYS798  CYS799  TRP800  GLU811  SER814 

> <Gold.Protein.RotatedAtoms>
  152.4685  134.5019  159.9726 H   0  0  0  0  0  0  0  0  0  0  0  0  # atno 6907 bound_to 6896
  151.5051  133.3490  159.2883 H   0  0  0  0  0  0  0  0  0  0  0  0  # atno 6908 bound_to 6896
  150.8681  134.8077  159.7196 H   0  0  0  0  0  0  0  0  0  0  0  0  # atno 6909 bound_to 6896
  144.8099  140.5338  143.5649 H   0  0  0  0  0  0  0  0  0  0  0  0  # atno 7974 bound_to 7965
  154.4230  140.1130  156.5635 H   0  0  0  0  0  0  0  0  0  0  0  0  # atno 8008 bound_to 7997
  155.6286  140.3495  155.4656 H   0  0  0  0  0  0  0  0  0  0  0  0  # atno 8009 bound_to 7997
  155.9966  140.1190  157.0577 H   0  0  0  0  0  0  0  0  0  0  0  0  # atno 8010 bound_to 7997
  140.5302  143.9854  150.6462 H   0  0  0  0  0  0  0  0  0  0  0  0  # atno 10167 bound_to 10162
  157.6755  131.0792  150.5637 H   0  0  0  0  0  0  0  0  0  0  0  0  # atno 10718 bound_to 10713
  153.8199  135.3117  155.3409 H   0  0  0  0  0  0  0  0  0  0  0  0  # atno 10763 bound_to 10752
  154.8017  135.4723  154.0294 H   0  0  0  0  0  0  0  0  0  0  0  0  # atno 10764 bound_to 10752
  153.1700  135.6876  153.8711 H   0  0  0  0  0  0  0  0  0  0  0  0  # atno 10765 bound_to 10752
  140.9541  133.7203  156.1265 H   0  0  0  0  0  0  0  0  0  0  0  0  # atno 11005 bound_to 11000
  145.5348  139.1475  143.3479 LP  0  0  0  0  0  0  0  0  0  0  0  0  # atno 17320 bound_to 7965
  146.2396  140.5489  142.8940 LP  0  0  0  0  0  0  0  0  0  0  0  0  # atno 17321 bound_to 7965
  140.3227  143.3127  152.0768 LP  0  0  0  0  0  0  0  0  0  0  0  0  # atno 17342 bound_to 10162
  139.4952  144.6563  151.6565 LP  0  0  0  0  0  0  0  0  0  0  0  0  # atno 17343 bound_to 10162
  156.5939  130.4336  149.5925 LP  0  0  0  0  0  0  0  0  0  0  0  0  # atno 17370 bound_to 10713
  156.2561  130.6935  151.1689 LP  0  0  0  0  0  0  0  0  0  0  0  0  # atno 17371 bound_to 10713
  140.7561  134.3991  157.5533 LP  0  0  0  0  0  0  0  0  0  0  0  0  # atno 17394 bound_to 11000
  139.8856  134.8931  156.2631 LP  0  0  0  0  0  0  0  0  0  0  0  0  # atno 17395 bound_to 11000

$$$$
