AV-unprocessed.smi:1702|AV-procd|sdf|6847|dock1
  -GOLD-   22720 8 23D 1   1.00000     0.00000
 Structure written by MMmdl.
 44 46  0  0  0  0  0  0  0  0  2 V2000
  146.0979  140.7440  155.0901 C   0  0  0  0  0  0  0  0  0  0  0  0
  146.9215  140.9136  153.8017 C   0  0  2  0  0  0  0  0  0  0  0  0
  147.2798  139.5685  153.1435 C   0  0  0  0  0  0  0  0  0  0  0  0
  148.3870  138.8207  153.9085 C   0  0  0  0  0  0  0  0  0  0  0  0
  149.5982  139.6665  154.0617 N   0  3  2  0  0  0  0  0  0  0  0  0
  150.7365  138.9230  154.6614 C   0  0  0  0  0  0  0  0  0  0  0  0
  151.7832  139.8594  155.2972 C   0  0  2  0  0  0  0  0  0  0  0  0
  153.0582  139.5370  154.7741 O   0  0  0  0  0  0  0  0  0  0  0  0
  151.8112  139.7292  156.8325 C   0  0  0  0  0  0  0  0  0  0  0  0
  151.6124  141.0024  157.5027 N   0  0  0  0  0  0  0  0  0  0  0  0
  150.8994  142.0516  157.0497 C   0  0  0  0  0  0  0  0  0  0  0  0
  150.8454  143.1316  157.8233 N   0  0  0  0  0  0  0  0  0  0  0  0
  151.6105  142.7378  158.9076 C   0  0  0  0  0  0  0  0  0  0  0  0
  151.9493  143.4318  160.0909 C   0  0  0  0  0  0  0  0  0  0  0  0
  152.7548  142.8195  161.0734 C   0  0  0  0  0  0  0  0  0  0  0  0
  153.0697  143.4985  162.2018 F   0  0  0  0  0  0  0  0  0  0  0  0
  153.2335  141.5055  160.8871 C   0  0  0  0  0  0  0  0  0  0  0  0
  154.0061  140.9243  161.8351 F   0  0  0  0  0  0  0  0  0  0  0  0
  152.9098  140.7944  159.7157 C   0  0  0  0  0  0  0  0  0  0  0  0
  152.1050  141.4091  158.7386 C   0  0  0  0  0  0  0  0  0  0  0  0
  149.2888  140.9392  154.7657 C   0  0  0  0  0  0  0  0  0  0  0  0
  148.2049  141.7362  154.0179 C   0  0  0  0  0  0  0  0  0  0  0  0
  146.6418  140.1943  155.8577 H   0  0  0  0  0  0  0  0  0  0  0  0
  145.1723  140.2026  154.8920 H   0  0  0  0  0  0  0  0  0  0  0  0
  145.8252  141.7127  155.5094 H   0  0  0  0  0  0  0  0  0  0  0  0
  146.2906  141.4654  153.1034 H   0  0  0  0  0  0  0  0  0  0  0  0
  146.3926  138.9401  153.0586 H   0  0  0  0  0  0  0  0  0  0  0  0
  147.6182  139.7506  152.1226 H   0  0  0  0  0  0  0  0  0  0  0  0
  148.0318  138.5050  154.8903 H   0  0  0  0  0  0  0  0  0  0  0  0
  148.6409  137.9126  153.3603 H   0  0  0  0  0  0  0  0  0  0  0  0
  150.3540  138.2162  155.3994 H   0  0  0  0  0  0  0  0  0  0  0  0
  151.2326  138.3219  153.8977 H   0  0  0  0  0  0  0  0  0  0  0  0
  151.5676  140.8969  155.0435 H   0  0  0  0  0  0  0  0  0  0  0  0
  152.9780  139.3936  153.8432 H   0  0  0  0  0  0  0  0  0  0  0  0
  151.0287  139.0460  157.1658 H   0  0  0  0  0  0  0  0  0  0  0  0
  152.7579  139.3018  157.1655 H   0  0  0  0  0  0  0  0  0  0  0  0
  150.3933  142.0212  156.0959 H   0  0  0  0  0  0  0  0  0  0  0  0
  151.5889  144.4382  160.2445 H   0  0  0  0  0  0  0  0  0  0  0  0
  153.2766  139.7892  159.5729 H   0  0  0  0  0  0  0  0  0  0  0  0
  148.9685  140.7257  155.7863 H   0  0  0  0  0  0  0  0  0  0  0  0
  150.1832  141.5557  154.8452 H   0  0  0  0  0  0  0  0  0  0  0  0
  148.5993  142.0433  153.0483 H   0  0  0  0  0  0  0  0  0  0  0  0
  147.9779  142.6573  154.5559 H   0  0  0  0  0  0  0  0  0  0  0  0
  149.8873  139.9111  153.1249 H   0  0  0  0  0  0  0  0  0  0  0  0
  1  2  1  0  0  0  0
  1 23  1  0  0  0  0
  1 24  1  0  0  0  0
  1 25  1  0  0  0  0
  2 22  1  0  0  0  0
  2  3  1  0  0  0  0
  2 26  1  0  0  0  0
  3  4  1  0  0  0  0
  3 27  1  0  0  0  0
  3 28  1  0  0  0  0
  4  5  1  0  0  0  0
  4 29  1  0  0  0  0
  4 30  1  0  0  0  0
  5  6  1  0  0  0  0
  5 21  1  0  0  0  0
  5 44  1  0  0  0  0
  6  7  1  0  0  0  0
  6 31  1  0  0  0  0
  6 32  1  0  0  0  0
  7  8  1  0  0  0  0
  7  9  1  0  0  0  0
  7 33  1  0  0  0  0
  8 34  1  0  0  0  0
  9 10  1  0  0  0  0
  9 35  1  0  0  0  0
  9 36  1  0  0  0  0
 10 20  1  0  0  0  0
 10 11  1  0  0  0  0
 11 12  2  0  0  0  0
 11 37  1  0  0  0  0
 12 13  1  0  0  0  0
 13 20  2  0  0  0  0
 13 14  1  0  0  0  0
 14 15  2  0  0  0  0
 14 38  1  0  0  0  0
 15 16  1  0  0  0  0
 15 17  1  0  0  0  0
 17 18  1  0  0  0  0
 17 19  2  0  0  0  0
 19 20  1  0  0  0  0
 19 39  1  0  0  0  0
 21 22  1  0  0  0  0
 21 40  1  0  0  0  0
 21 41  1  0  0  0  0
 22 42  1  0  0  0  0
 22 43  1  0  0  0  0
M  CHG  1   5   1
M  END
> <s_m_source_file>
AV-unprocessed.smi

> <i_m_source_file_index>
1702

> <i_lp_mmshare_version>
43012

> <i_f3d_flags>
0

> <s_epik_input>
W0NIM11bQ0hdMVtDSDJdW0NIMl1OKFtDSDJdW0NIMl0xKVtDSDJdW0NASF0oW09IXSlbQ0gyXW4oW2NIXW4yKWMoYzIzKVtjSF1jKEYpYyhGKVtjSF0z

> <s_epik_cmdline>
J2VwaWtfcHl0aG9uJywgJy1waCcsICc3LjAnLCAnLXRuJywgJzgnLCAnLW1hJywgJzIwMCcsICctbWV0YWxfYmluZGluZycsICctaW1hZScsICc8aW5maWxlLm1hZT4nLCAnLW9tYWUnLCAnPG91dGZpbGUubWFlPic=

> <r_epik_Ionization_Penalty>
0.0135195

> <r_epik_Ionization_Penalty_Charging>
0.00181365

> <r_epik_Ionization_Penalty_Neutral>
0.0117059

> <r_epik_State_Penalty>
0.00902283

> <r_epik_Charging_Adjusted_Penalty>
0.0108365

> <i_epik_Tot_Q>
1

> <i_epik_Tot_abs_Q>
1

> <r_epik_Metal_State_Penalty>
9.09181e-06

> <b_epik_Metal_Only>
0

> <s_lp_Force_Field>
OPLS_2005

> <r_lp_Energy>
24.0829

> <b_lp_Chiralities_Consistent>
1

> <s_lp_Variant>
AV-unprocessed.smi:1702-3

> <Gold.Version>
5.8.1

> <Gold.Id.Protein>
6NUR|6NUR_protein|mol2

> <Gold.PLP.Fitness>
51.7548

> <Gold.PLP.PLP>
-49.8079

> <Gold.PLP.part.hbond>
-3.0000

> <Gold.PLP.part.metal>
0.0000

> <Gold.PLP.part.buried>
-4.3315

> <Gold.PLP.part.nonpolar>
-43.0258

> <Gold.PLP.part.repulsive>
0.2647

> <Gold.PLP.ligand.clash>
0.0000

> <Gold.PLP.ligand.torsion>
2.1112

> <Gold.PLP.Chemscore.Hbond>
2.0000

> <Gold.PLP.Chemscore.CHOScore>
0.0000

> <Gold.PLP.Chemscore.Metal>
0.0000

> <Gold.Chemscore.Hbonds>
donor molecule, donor type, donor heavy atom, donor atom, acceptor molecule, acceptor atom, score
      L1  H     5    44       P1  7957  1.00
      P1  H  7997  8009       L1     8  1.00

> <Gold.PLP.Chemscore.Internal.Correction>
0.1694

> <Gold.Rescore>
     Score         DG    S(hbond)    S(metal)    S(lipo)     H(rot)  DE(clash)    DE(int)     intcor
     16.09     -18.89       1.64        0.00     117.18       2.26       0.68       2.12       ----

> <Gold.Chemscore.Fitness>
16.0883

> <Gold.Chemscore.DG>
-18.8866

> <Gold.Chemscore.ZeroCoef>
-5.4800

> <Gold.Chemscore.Hbond>
1.6428

> <Gold.Chemscore.Metal>
0.0000

> <Gold.Chemscore.Lipo>
117.1804

> <Gold.Chemscore.Internal_Hbond>
0.0000

> <Gold.Chemscore.DEClash>
0.6798

> <Gold.Chemscore.DEInternal>
2.1184

> <Gold.Chemscore.Rot>
2.2619

> <Gold.Chemscore.Internal.Correction>
   9.000000E+99

> <Gold.Chemscore.Hbonds>
donor molecule, donor type, donor heavy atom, donor atom, acceptor molecule, acceptor atom, score
      L1  H     5    44       P1  7957  0.95
      P1  H  7997  8009       L1     8  0.65

> <Gold.Chemscore.Hbond.Weighted>
-5.4869

> <Gold.Chemscore.Metal.Weighted>
-0.0000

> <Gold.Chemscore.Lipo.Weighted>
-13.7101

> <Gold.Chemscore.Internal_Hbond.Weighted>
0.0000

> <Gold.Chemscore.DEClash.Weighted>
0.6798

> <Gold.Chemscore.DEInternal.Weighted>
2.1184

> <Gold.Chemscore.Rot.Weighted>
5.7904

> <Gold.Chemscore.Internal.Correction.Weighted>
   9.000000E+99

> <Gold.Protein.RotatedTorsions>
[ 6907 6896 6895 6894 ] final  109.97 input  -60.11 | X-H torsion
[ 7974 7965 7964 7962 ] final -153.83 input  175.53 | X-H torsion
[ 8008 7997 7996 7995 ] final -145.03 input   59.86 | X-H torsion
[ 10167 10162 10161 10158 ] final  -72.39 input  -65.29 | X-H torsion
[ 10718 10713 10712 10709 ] final   22.59 input   66.30 | X-H torsion
[ 10763 10752 10751 10750 ] final  159.14 input  -60.55 | X-H torsion
[ 11005 11000 10999 10996 ] final  -90.49 input  -57.11 | X-H torsion

> <Gold.Protein.ActiveResidues>
 VAL166  LYS551  ARG553  GLY616  TRP617  ASP618  TYR619  PRO620  LYS621  CYS622 
 ASP623  PHE694  ASN695  SER759  ASP760  ASP761  ALA762  ILE779  LEU786  VAL792 
 PHE793  MET794  SER795  GLU796  ALA797  LYS798  CYS799  TRP800  GLU811  SER814 

> <Gold.Protein.RotatedAtoms>
  152.5042  133.8867  159.7373 H   0  0  0  0  0  0  0  0  0  0  0  0  # atno 6907 bound_to 6896
  150.9316  133.6751  159.2816 H   0  0  0  0  0  0  0  0  0  0  0  0  # atno 6908 bound_to 6896
  151.4094  135.0987  159.9633 H   0  0  0  0  0  0  0  0  0  0  0  0  # atno 6909 bound_to 6896
  144.7720  140.4472  143.5900 H   0  0  0  0  0  0  0  0  0  0  0  0  # atno 7974 bound_to 7965
  155.5365  140.0604  157.2878 H   0  0  0  0  0  0  0  0  0  0  0  0  # atno 8008 bound_to 7997
  154.4466  140.1926  156.0592 H   0  0  0  0  0  0  0  0  0  0  0  0  # atno 8009 bound_to 7997
  156.0615  140.3272  155.7471 H   0  0  0  0  0  0  0  0  0  0  0  0  # atno 8010 bound_to 7997
  140.5196  143.2333  151.7453 H   0  0  0  0  0  0  0  0  0  0  0  0  # atno 10167 bound_to 10162
  157.1544  130.6689  149.6022 H   0  0  0  0  0  0  0  0  0  0  0  0  # atno 10718 bound_to 10713
  154.2271  135.2780  155.2903 H   0  0  0  0  0  0  0  0  0  0  0  0  # atno 10763 bound_to 10752
  154.5654  135.5634  153.7049 H   0  0  0  0  0  0  0  0  0  0  0  0  # atno 10764 bound_to 10752
  153.0028  135.6308  154.2412 H   0  0  0  0  0  0  0  0  0  0  0  0  # atno 10765 bound_to 10752
  141.1564  133.7695  156.9745 H   0  0  0  0  0  0  0  0  0  0  0  0  # atno 11005 bound_to 11000
  145.6295  139.1534  143.2977 LP  0  0  0  0  0  0  0  0  0  0  0  0  # atno 17320 bound_to 7965
  146.1874  140.6399  142.9161 LP  0  0  0  0  0  0  0  0  0  0  0  0  # atno 17321 bound_to 7965
  139.4919  144.4274  151.9910 LP  0  0  0  0  0  0  0  0  0  0  0  0  # atno 17342 bound_to 10162
  140.3370  144.3249  150.5975 LP  0  0  0  0  0  0  0  0  0  0  0  0  # atno 17343 bound_to 10162
  155.9765  130.4733  150.6530 LP  0  0  0  0  0  0  0  0  0  0  0  0  # atno 17370 bound_to 10713
  157.4191  131.0834  151.1148 LP  0  0  0  0  0  0  0  0  0  0  0  0  # atno 17371 bound_to 10713
  140.1107  134.9478  157.2061 LP  0  0  0  0  0  0  0  0  0  0  0  0  # atno 17394 bound_to 11000
  140.3198  134.2930  155.7249 LP  0  0  0  0  0  0  0  0  0  0  0  0  # atno 17395 bound_to 11000

$$$$
