AV-unprocessed.smi:830|AV-procd|sdf|3871|dock5
  -GOLD-   22720 1323D 1   1.00000     0.00000
 Structure written by MMmdl.
 52 54  0  0  0  0  0  0  0  0  1 V2000
  148.6076  133.0440  154.1880 C   0  0  0  0  0  0  0  0  0  0  0  0
  147.5874  134.1942  154.2282 C   0  0  1  0  0  0  0  0  0  0  0  0
  148.3142  135.4529  154.0730 N   0  0  0  0  0  0  0  0  0  0  0  0
  147.7687  136.6743  154.1728 C   0  0  0  0  0  0  0  0  0  0  0  0
  146.5872  136.8662  154.4597 O   0  0  0  0  0  0  0  0  0  0  0  0
  148.6799  137.6319  153.9310 N   0  0  0  0  0  0  0  0  0  0  0  0
  148.5227  139.0486  153.9530 C   0  0  0  0  0  0  0  0  0  0  0  0
  147.3671  139.6912  153.4426 C   0  0  0  0  0  0  0  0  0  0  0  0
  147.2648  141.0909  153.5178 C   0  0  0  0  0  0  0  0  0  0  0  0
  148.3252  141.8048  154.0993 C   0  0  0  0  0  0  0  0  0  0  0  0
  149.4403  141.2125  154.5700 N   0  0  0  0  0  0  0  0  0  0  0  0
  149.5601  139.8643  154.4901 C   0  0  0  0  0  0  0  0  0  0  0  0
  150.7649  139.2994  154.9666 N   0  0  0  0  0  0  0  0  0  0  0  0
  151.5501  138.5028  154.0281 C   0  0  0  0  0  0  0  0  0  0  0  0
  153.0222  138.8059  154.3269 C   0  0  0  0  0  0  0  0  0  0  0  0
  152.9974  139.3329  155.7580 C   0  0  0  0  0  0  0  0  0  0  0  0
  151.6684  140.0817  155.8041 C   0  0  0  0  0  0  0  0  0  0  0  0
  146.6052  134.0069  153.0615 C   0  0  0  0  0  0  0  0  0  0  0  0
  145.5187  133.4540  153.2406 O   0  0  0  0  0  0  0  0  0  0  0  0
  146.9994  134.4868  151.8725 N   0  0  0  0  0  0  0  0  0  0  0  0
  146.2255  134.4089  150.6367 C   0  0  0  0  0  0  0  0  0  0  0  0
  144.7874  134.9165  150.8578 C   0  0  0  0  0  0  0  0  0  0  0  0
  143.8671  133.8633  150.2385 C   0  0  0  0  0  0  0  0  0  0  0  0
  144.6396  132.5559  150.3840 C   0  0  0  0  0  0  0  0  0  0  0  0
  146.0958  132.9542  150.1422 C   0  0  0  0  0  0  0  0  0  0  0  0
  148.1158  132.0755  154.2871 H   0  0  0  0  0  0  0  0  0  0  0  0
  149.3214  133.1295  155.0079 H   0  0  0  0  0  0  0  0  0  0  0  0
  149.1766  133.0346  153.2568 H   0  0  0  0  0  0  0  0  0  0  0  0
  147.0569  134.1791  155.1826 H   0  0  0  0  0  0  0  0  0  0  0  0
  149.2929  135.3855  153.8357 H   0  0  0  0  0  0  0  0  0  0  0  0
  149.6262  137.3110  153.7874 H   0  0  0  0  0  0  0  0  0  0  0  0
  146.5589  139.1416  152.9866 H   0  0  0  0  0  0  0  0  0  0  0  0
  146.3926  141.6036  153.1405 H   0  0  0  0  0  0  0  0  0  0  0  0
  148.2819  142.8808  154.1809 H   0  0  0  0  0  0  0  0  0  0  0  0
  151.3447  137.4471  154.2072 H   0  0  0  0  0  0  0  0  0  0  0  0
  151.3009  138.7247  152.9892 H   0  0  0  0  0  0  0  0  0  0  0  0
  153.6680  137.9364  154.2026 H   0  0  0  0  0  0  0  0  0  0  0  0
  153.3791  139.5883  153.6556 H   0  0  0  0  0  0  0  0  0  0  0  0
  152.9830  138.4999  156.4623 H   0  0  0  0  0  0  0  0  0  0  0  0
  153.8522  139.9665  155.9963 H   0  0  0  0  0  0  0  0  0  0  0  0
  151.8066  141.0854  155.4003 H   0  0  0  0  0  0  0  0  0  0  0  0
  151.2879  140.1709  156.8219 H   0  0  0  0  0  0  0  0  0  0  0  0
  147.9066  134.9264  151.8163 H   0  0  0  0  0  0  0  0  0  0  0  0
  146.7057  135.0136  149.8648 H   0  0  0  0  0  0  0  0  0  0  0  0
  144.5664  134.9975  151.9235 H   0  0  0  0  0  0  0  0  0  0  0  0
  144.6282  135.9034  150.4215 H   0  0  0  0  0  0  0  0  0  0  0  0
  142.8868  133.8293  150.7150 H   0  0  0  0  0  0  0  0  0  0  0  0
  143.7164  134.0836  149.1808 H   0  0  0  0  0  0  0  0  0  0  0  0
  144.5265  132.1733  151.3993 H   0  0  0  0  0  0  0  0  0  0  0  0
  144.2951  131.7839  149.6952 H   0  0  0  0  0  0  0  0  0  0  0  0
  146.3042  132.9209  149.0720 H   0  0  0  0  0  0  0  0  0  0  0  0
  146.7927  132.2661  150.6231 H   0  0  0  0  0  0  0  0  0  0  0  0
  1  2  1  0  0  0  0
  1 26  1  0  0  0  0
  1 27  1  0  0  0  0
  1 28  1  0  0  0  0
  2  3  1  0  0  0  0
  2 18  1  0  0  0  0
  2 29  1  0  0  0  0
  3  4  1  0  0  0  0
  3 30  1  0  0  0  0
  4  5  2  0  0  0  0
  4  6  1  0  0  0  0
  6  7  1  0  0  0  0
  6 31  1  0  0  0  0
  7 12  1  0  0  0  0
  7  8  2  0  0  0  0
  8  9  1  0  0  0  0
  8 32  1  0  0  0  0
  9 10  2  0  0  0  0
  9 33  1  0  0  0  0
 10 11  1  0  0  0  0
 10 34  1  0  0  0  0
 11 12  2  0  0  0  0
 12 13  1  0  0  0  0
 13 17  1  0  0  0  0
 13 14  1  0  0  0  0
 14 15  1  0  0  0  0
 14 35  1  0  0  0  0
 14 36  1  0  0  0  0
 15 16  1  0  0  0  0
 15 37  1  0  0  0  0
 15 38  1  0  0  0  0
 16 17  1  0  0  0  0
 16 39  1  0  0  0  0
 16 40  1  0  0  0  0
 17 41  1  0  0  0  0
 17 42  1  0  0  0  0
 18 19  2  0  0  0  0
 18 20  1  0  0  0  0
 20 21  1  0  0  0  0
 20 43  1  0  0  0  0
 21 25  1  0  0  0  0
 21 22  1  0  0  0  0
 21 44  1  0  0  0  0
 22 23  1  0  0  0  0
 22 45  1  0  0  0  0
 22 46  1  0  0  0  0
 23 24  1  0  0  0  0
 23 47  1  0  0  0  0
 23 48  1  0  0  0  0
 24 25  1  0  0  0  0
 24 49  1  0  0  0  0
 24 50  1  0  0  0  0
 25 51  1  0  0  0  0
 25 52  1  0  0  0  0
M  END
> <s_m_source_file>
AV-unprocessed.smi

> <i_m_source_file_index>
830

> <i_lp_mmshare_version>
43012

> <i_f3d_flags>
0

> <s_epik_input>
W0NIMl0xW0NIMl1bQ0gyXVtDSDJdW0NIXTFbTkhdQyg9TylbQ0BIXShbQ0gzXSlbTkhdQyg9TylbTkhdYzJbY0hdW2NIXVtjSF1uYzJOM1tDSDJdW0NIMl1bQ0gyXVtDSDJdMw==

> <s_epik_cmdline>
J2VwaWtfcHl0aG9uJywgJy1waCcsICc3LjAnLCAnLXRuJywgJzgnLCAnLW1hJywgJzIwMCcsICctbWV0YWxfYmluZGluZycsICctaW1hZScsICc8aW5maWxlLm1hZT4nLCAnLW9tYWUnLCAnPG91dGZpbGUubWFlPic=

> <r_lp_tautomer_probability>
1

> <r_epik_Ionization_Penalty>
0.0827694

> <r_epik_Ionization_Penalty_Charging>
0

> <r_epik_Ionization_Penalty_Neutral>
0.0827694

> <r_epik_State_Penalty>
0.0729202

> <r_epik_Charging_Adjusted_Penalty>
0.0729202

> <i_epik_Tot_Q>
0

> <i_epik_Tot_abs_Q>
0

> <r_epik_Metal_State_Penalty>
0.0639723

> <b_epik_Metal_Only>
0

> <s_lp_Force_Field>
OPLS_2005

> <r_lp_Energy>
46.8553

> <b_lp_Chiralities_Consistent>
1

> <s_lp_Variant>
AV-unprocessed.smi:830-2

> <Gold.Version>
5.8.1

> <Gold.Id.Protein>
6NUR|6NUR_protein|mol2

> <Gold.PLP.Fitness>
43.2787

> <Gold.PLP.PLP>
-39.5391

> <Gold.PLP.part.hbond>
-3.2749

> <Gold.PLP.part.metal>
0.0000

> <Gold.PLP.part.buried>
0.3311

> <Gold.PLP.part.nonpolar>
-35.9642

> <Gold.PLP.part.repulsive>
0.3975

> <Gold.PLP.ligand.clash>
0.0000

> <Gold.PLP.ligand.torsion>
1.3162

> <Gold.PLP.Chemscore.Hbond>
1.0000

> <Gold.PLP.Chemscore.CHOScore>
1.0000

> <Gold.PLP.Chemscore.Metal>
0.0000

> <Gold.Chemscore.Hbonds>
donor molecule, donor type, donor heavy atom, donor atom, acceptor molecule, acceptor atom, score
      L1  H    20    43       P1  7948  1.00
      L1  C    10    34       P1  8028  1.00

> <Gold.PLP.Chemscore.Internal.Correction>
0.3720

> <Gold.Rescore>
     Score         DG    S(hbond)    S(metal)    S(lipo)     H(rot)  DE(clash)    DE(int)     intcor
      8.76     -14.81       0.77        0.00      93.73       1.64       1.66       4.39       ----

> <Gold.Chemscore.Fitness>
8.7603

> <Gold.Chemscore.DG>
-14.8138

> <Gold.Chemscore.ZeroCoef>
-5.4800

> <Gold.Chemscore.Hbond>
0.7667

> <Gold.Chemscore.Metal>
0.0000

> <Gold.Chemscore.Lipo>
93.7321

> <Gold.Chemscore.Internal_Hbond>
0.0000

> <Gold.Chemscore.DEClash>
1.6649

> <Gold.Chemscore.DEInternal>
4.3887

> <Gold.Chemscore.Rot>
1.6382

> <Gold.Chemscore.Internal.Correction>
   9.000000E+99

> <Gold.Chemscore.Hbonds>
donor molecule, donor type, donor heavy atom, donor atom, acceptor molecule, acceptor atom, score
      L1  H    20    43       P1  7948  0.39

> <Gold.Chemscore.Hbond.Weighted>
-2.5609

> <Gold.Chemscore.Metal.Weighted>
-0.0000

> <Gold.Chemscore.Lipo.Weighted>
-10.9667

> <Gold.Chemscore.Internal_Hbond.Weighted>
0.0000

> <Gold.Chemscore.DEClash.Weighted>
1.6649

> <Gold.Chemscore.DEInternal.Weighted>
4.3887

> <Gold.Chemscore.Rot.Weighted>
4.1937

> <Gold.Chemscore.Internal.Correction.Weighted>
   9.000000E+99

> <Gold.Protein.RotatedTorsions>
[ 6907 6896 6895 6894 ] final   -0.15 input  -60.11 | X-H torsion
[ 7974 7965 7964 7962 ] final -141.37 input  175.53 | X-H torsion
[ 8008 7997 7996 7995 ] final  169.72 input   59.86 | X-H torsion
[ 10167 10162 10161 10158 ] final  151.77 input  -65.29 | X-H torsion
[ 10718 10713 10712 10709 ] final  -99.35 input   66.30 | X-H torsion
[ 10763 10752 10751 10750 ] final  173.19 input  -60.55 | X-H torsion
[ 11005 11000 10999 10996 ] final -134.43 input  -57.11 | X-H torsion

> <Gold.Protein.ActiveResidues>
 VAL166  LYS551  ARG553  GLY616  TRP617  ASP618  TYR619  PRO620  LYS621  CYS622 
 ASP623  PHE694  ASN695  SER759  ASP760  ASP761  ALA762  ILE779  LEU786  VAL792 
 PHE793  MET794  SER795  GLU796  ALA797  LYS798  CYS799  TRP800  GLU811  SER814 

> <Gold.Protein.RotatedAtoms>
  151.5669  135.1064  159.9985 H   0  0  0  0  0  0  0  0  0  0  0  0  # atno 6907 bound_to 6896
  152.4420  133.7461  159.6678 H   0  0  0  0  0  0  0  0  0  0  0  0  # atno 6908 bound_to 6896
  150.8327  133.7996  159.3115 H   0  0  0  0  0  0  0  0  0  0  0  0  # atno 6909 bound_to 6896
  144.8524  140.6088  143.5381 H   0  0  0  0  0  0  0  0  0  0  0  0  # atno 7974 bound_to 7965
  156.1431  140.1556  156.8889 H   0  0  0  0  0  0  0  0  0  0  0  0  # atno 8008 bound_to 7997
  154.5005  140.0826  156.7825 H   0  0  0  0  0  0  0  0  0  0  0  0  # atno 8009 bound_to 7997
  155.4040  140.3416  155.4261 H   0  0  0  0  0  0  0  0  0  0  0  0  # atno 8010 bound_to 7997
  139.4838  144.5413  151.7559 H   0  0  0  0  0  0  0  0  0  0  0  0  # atno 10167 bound_to 10162
  156.0131  130.5278  150.6657 H   0  0  0  0  0  0  0  0  0  0  0  0  # atno 10718 bound_to 10713
  154.4366  135.2761  155.1876 H   0  0  0  0  0  0  0  0  0  0  0  0  # atno 10763 bound_to 10752
  154.3760  135.6098  153.5769 H   0  0  0  0  0  0  0  0  0  0  0  0  # atno 10764 bound_to 10752
  152.9838  135.5869  154.4686 H   0  0  0  0  0  0  0  0  0  0  0  0  # atno 10765 bound_to 10752
  140.8991  134.1714  157.4473 H   0  0  0  0  0  0  0  0  0  0  0  0  # atno 11005 bound_to 11000
  145.4472  139.1528  143.3938 LP  0  0  0  0  0  0  0  0  0  0  0  0  # atno 17320 bound_to 7965
  146.2796  140.4597  142.8781 LP  0  0  0  0  0  0  0  0  0  0  0  0  # atno 17321 bound_to 7965
  140.4953  144.1249  150.5959 LP  0  0  0  0  0  0  0  0  0  0  0  0  # atno 17342 bound_to 10162
  140.4124  143.2650  151.9816 LP  0  0  0  0  0  0  0  0  0  0  0  0  # atno 17343 bound_to 10162
  157.4390  131.0859  151.0963 LP  0  0  0  0  0  0  0  0  0  0  0  0  # atno 17370 bound_to 10713
  157.1513  130.6185  149.5583 LP  0  0  0  0  0  0  0  0  0  0  0  0  # atno 17371 bound_to 10713
  139.8739  134.9890  156.5439 LP  0  0  0  0  0  0  0  0  0  0  0  0  # atno 17394 bound_to 11000
  140.8252  133.8322  155.8933 LP  0  0  0  0  0  0  0  0  0  0  0  0  # atno 17395 bound_to 11000

$$$$
