AV-unprocessed.smi:160|AV-procd|sdf|1356|dock9
  -GOLD-   2262019 63D 1   1.00000     0.00000
 Structure written by MMmdl.
 29 30  0  0  0  0  0  0  0  0  1 V2000
  141.1467  139.5472  153.4113 N   0  0  0  0  0  0  0  0  0  0  0  0
  140.5485  138.4024  153.7567 C   0  0  0  0  0  0  0  0  0  0  0  0
  139.3966  138.3656  154.1864 O   0  0  0  0  0  0  0  0  0  0  0  0
  141.3650  137.1498  153.5922 C   0  0  0  0  0  0  0  0  0  0  0  0
  140.9366  135.9570  154.1017 N   0  0  0  0  0  0  0  0  0  0  0  0
  141.9512  135.1911  153.7215 C   0  0  0  0  0  0  0  0  0  0  0  0
  142.8997  135.8400  153.0350 N   0  0  0  0  0  0  0  0  0  0  0  0
  144.1986  135.3712  152.4571 C   0  0  1  0  0  0  0  0  0  0  0  0
  144.2645  133.9852  152.6113 O   0  0  0  0  0  0  0  0  0  0  0  0
  143.7943  133.3552  151.4246 C   0  0  2  0  0  0  0  0  0  0  0  0
  144.2084  131.8740  151.3736 C   0  0  0  0  0  0  0  0  0  0  0  0
  144.0095  131.3604  150.0737 O   0  0  0  0  0  0  0  0  0  0  0  0
  144.3993  134.2538  150.3390 C   0  0  2  0  0  0  0  0  0  0  0  0
  145.7569  133.9104  150.1098 O   0  0  0  0  0  0  0  0  0  0  0  0
  144.2379  135.6507  150.9410 C   0  0  2  0  0  0  0  0  0  0  0  0
  145.2741  136.5366  150.5603 O   0  0  0  0  0  0  0  0  0  0  0  0
  142.5352  137.1433  152.9505 N   0  0  0  0  0  0  0  0  0  0  0  0
  144.9665  135.8780  153.0429 H   0  0  0  0  0  0  0  0  0  0  0  0
  142.7068  133.4415  151.3756 H   0  0  0  0  0  0  0  0  0  0  0  0
  143.8630  134.1614  149.3939 H   0  0  0  0  0  0  0  0  0  0  0  0
  143.2826  136.0698  150.6204 H   0  0  0  0  0  0  0  0  0  0  0  0
  140.6506  140.4216  153.5012 H   0  0  0  0  0  0  0  0  0  0  0  0
  142.0946  139.5283  153.0638 H   0  0  0  0  0  0  0  0  0  0  0  0
  142.0011  134.1359  153.9484 H   0  0  0  0  0  0  0  0  0  0  0  0
  145.2689  131.7725  151.6059 H   0  0  0  0  0  0  0  0  0  0  0  0
  143.6562  131.2796  152.1025 H   0  0  0  0  0  0  0  0  0  0  0  0
  144.6912  131.6954  149.5114 H   0  0  0  0  0  0  0  0  0  0  0  0
  146.0574  134.3823  149.3477 H   0  0  0  0  0  0  0  0  0  0  0  0
  144.8862  137.2820  150.1276 H   0  0  0  0  0  0  0  0  0  0  0  0
  1  2  1  0  0  0  0
  1 22  1  0  0  0  0
  1 23  1  0  0  0  0
  2  3  2  0  0  0  0
  2  4  1  0  0  0  0
  4 17  2  0  0  0  0
  4  5  1  0  0  0  0
  5  6  2  0  0  0  0
  6  7  1  0  0  0  0
  6 24  1  0  0  0  0
  7  8  1  0  0  0  0
  7 17  1  0  0  0  0
  8 18  1  0  0  0  0
  8 15  1  0  0  0  0
  8  9  1  0  0  0  0
  9 10  1  0  0  0  0
 10 19  1  0  0  0  0
 10 11  1  0  0  0  0
 10 13  1  0  0  0  0
 11 12  1  0  0  0  0
 11 25  1  0  0  0  0
 11 26  1  0  0  0  0
 12 27  1  0  0  0  0
 13 20  1  0  0  0  0
 13 14  1  0  0  0  0
 13 15  1  0  0  0  0
 14 28  1  0  0  0  0
 15 21  1  0  0  0  0
 15 16  1  0  0  0  0
 16 29  1  0  0  0  0
M  END
> <s_m_source_file>
AV-unprocessed.smi

> <i_m_source_file_index>
160

> <i_lp_mmshare_version>
43012

> <i_f3d_flags>
0

> <s_epik_input>
W05IMl1DKD1PKWMxbltjSF1uKG4xKVtDQEBIXTJPW0NASF0oW0NIMl1bT0hdKVtDQEBIXShbT0hdKVtDQEhdMltPSF0=

> <s_epik_cmdline>
J2VwaWtfcHl0aG9uJywgJy1waCcsICc3LjAnLCAnLXRuJywgJzgnLCAnLW1hJywgJzIwMCcsICctbWV0YWxfYmluZGluZycsICctaW1hZScsICc8aW5maWxlLm1hZT4nLCAnLW9tYWUnLCAnPG91dGZpbGUubWFlPic=

> <r_lp_tautomer_probability>
1

> <r_epik_Ionization_Penalty>
1.06932e-05

> <r_epik_Ionization_Penalty_Charging>
0

> <r_epik_Ionization_Penalty_Neutral>
1.06932e-05

> <r_epik_State_Penalty>
-0

> <r_epik_Charging_Adjusted_Penalty>
0

> <i_epik_Tot_Q>
0

> <i_epik_Tot_abs_Q>
0

> <r_epik_Metal_State_Penalty>
0.0142097

> <b_epik_Metal_Only>
0

> <s_epik_Chemistry_Notes>
This compound contains an acetal/aminal-like group ( X-CH(R)-Y where X, Y are N, S, or O) that may be acid/base labile, releasing an aldehyde.

> <s_lp_Force_Field>
OPLS_2005

> <r_lp_Energy>
42.1222

> <b_lp_Chiralities_Consistent>
1

> <s_lp_Variant>
AV-unprocessed.smi:160-14

> <Gold.Version>
5.8.1

> <Gold.Id.Protein>
6NUR|6NUR_protein|mol2

> <Gold.PLP.Fitness>
41.5481

> <Gold.PLP.PLP>
-26.8133

> <Gold.PLP.part.hbond>
-5.7666

> <Gold.PLP.part.metal>
0.0000

> <Gold.PLP.part.buried>
-5.8239

> <Gold.PLP.part.nonpolar>
-16.5589

> <Gold.PLP.part.repulsive>
0.4890

> <Gold.PLP.ligand.clash>
0.0000

> <Gold.PLP.ligand.torsion>
0.1456

> <Gold.PLP.Chemscore.Hbond>
3.9990

> <Gold.PLP.Chemscore.CHOScore>
1.0000

> <Gold.PLP.Chemscore.Metal>
0.0000

> <Gold.Chemscore.Hbonds>
donor molecule, donor type, donor heavy atom, donor atom, acceptor molecule, acceptor atom, score
      L1  H     1    23       P1 10175  0.96
      L1  H    14    28       P1  7921  1.00
      L1  H    16    29       P1 10171  1.00
      P1  H 10785 10796       L1    12  0.56
      P1  H 11000 11005       L1     5  0.11
      L1  C     6    24       P1 10957  0.86

> <Gold.PLP.Chemscore.Internal.Correction>
0.0290

> <Gold.Rescore>
     Score         DG    S(hbond)    S(metal)    S(lipo)     H(rot)  DE(clash)    DE(int)     intcor
      9.45     -10.08       3.56        0.00      26.48       4.06       0.17       0.46       ----

> <Gold.Chemscore.Fitness>
9.4507

> <Gold.Chemscore.DG>
-10.0792

> <Gold.Chemscore.ZeroCoef>
-5.4800

> <Gold.Chemscore.Hbond>
3.5612

> <Gold.Chemscore.Metal>
0.0000

> <Gold.Chemscore.Lipo>
26.4804

> <Gold.Chemscore.Internal_Hbond>
0.0000

> <Gold.Chemscore.DEClash>
0.1718

> <Gold.Chemscore.DEInternal>
0.4567

> <Gold.Chemscore.Rot>
4.0600

> <Gold.Chemscore.Internal.Correction>
   9.000000E+99

> <Gold.Chemscore.Hbonds>
donor molecule, donor type, donor heavy atom, donor atom, acceptor molecule, acceptor atom, score
      L1  H     1    23       P1 10175  0.79
      L1  H    14    28       P1  7921  0.34
      L1  H    16    29       P1 10171  1.00
      P1  H 10785 10796       L1    12  0.09
      P1  H 11000 11005       L1     5  0.02

> <Gold.Chemscore.Hbond.Weighted>
-11.8946

> <Gold.Chemscore.Metal.Weighted>
-0.0000

> <Gold.Chemscore.Lipo.Weighted>
-3.0982

> <Gold.Chemscore.Internal_Hbond.Weighted>
0.0000

> <Gold.Chemscore.DEClash.Weighted>
0.1718

> <Gold.Chemscore.DEInternal.Weighted>
0.4567

> <Gold.Chemscore.Rot.Weighted>
10.3936

> <Gold.Chemscore.Internal.Correction.Weighted>
   9.000000E+99

> <Gold.Protein.RotatedTorsions>
[ 6907 6896 6895 6894 ] final   67.90 input  -60.11 | X-H torsion
[ 7974 7965 7964 7962 ] final   67.69 input  175.53 | X-H torsion
[ 8008 7997 7996 7995 ] final   89.96 input   59.86 | X-H torsion
[ 10167 10162 10161 10158 ] final  161.48 input  -65.29 | X-H torsion
[ 10718 10713 10712 10709 ] final  -27.59 input   66.30 | X-H torsion
[ 10763 10752 10751 10750 ] final -145.92 input  -60.55 | X-H torsion
[ 11005 11000 10999 10996 ] final   50.39 input  -57.11 | X-H torsion

> <Gold.Protein.ActiveResidues>
 VAL166  LYS551  ARG553  GLY616  TRP617  ASP618  TYR619  PRO620  LYS621  CYS622 
 ASP623  PHE694  ASN695  SER759  ASP760  ASP761  ALA762  ILE779  LEU786  VAL792 
 PHE793  MET794  SER795  GLU796  ALA797  LYS798  CYS799  TRP800  GLU811  SER814 

> <Gold.Protein.RotatedAtoms>
  152.4584  134.5240  159.9790 H   0  0  0  0  0  0  0  0  0  0  0  0  # atno 6907 bound_to 6896
  151.5295  133.3446  159.2923 H   0  0  0  0  0  0  0  0  0  0  0  0  # atno 6908 bound_to 6896
  150.8537  134.7899  159.7091 H   0  0  0  0  0  0  0  0  0  0  0  0  # atno 6909 bound_to 6896
  145.8117  139.3036  143.1095 H   0  0  0  0  0  0  0  0  0  0  0  0  # atno 7974 bound_to 7965
  156.0062  140.3355  155.6895 H   0  0  0  0  0  0  0  0  0  0  0  0  # atno 8008 bound_to 7997
  155.6221  140.0676  157.2692 H   0  0  0  0  0  0  0  0  0  0  0  0  # atno 8009 bound_to 7997
  154.4266  140.1774  156.1371 H   0  0  0  0  0  0  0  0  0  0  0  0  # atno 8010 bound_to 7997
  139.4850  144.4532  151.8802 H   0  0  0  0  0  0  0  0  0  0  0  0  # atno 10167 bound_to 10162
  156.4362  130.4455  149.7084 H   0  0  0  0  0  0  0  0  0  0  0  0  # atno 10718 bound_to 10713
  154.8361  135.3400  154.6579 H   0  0  0  0  0  0  0  0  0  0  0  0  # atno 10763 bound_to 10752
  153.7194  135.6959  153.5021 H   0  0  0  0  0  0  0  0  0  0  0  0  # atno 10764 bound_to 10752
  153.2392  135.4390  155.0633 H   0  0  0  0  0  0  0  0  0  0  0  0  # atno 10765 bound_to 10752
  140.1021  134.5067  155.8753 H   0  0  0  0  0  0  0  0  0  0  0  0  # atno 11005 bound_to 11000
  145.9770  140.8713  143.0133 LP  0  0  0  0  0  0  0  0  0  0  0  0  # atno 17320 bound_to 7965
  144.6757  140.2027  143.7385 LP  0  0  0  0  0  0  0  0  0  0  0  0  # atno 17321 bound_to 7965
  140.3990  144.2517  150.5894 LP  0  0  0  0  0  0  0  0  0  0  0  0  # atno 17342 bound_to 10162
  140.5074  143.2300  151.8586 LP  0  0  0  0  0  0  0  0  0  0  0  0  # atno 17343 bound_to 10162
  156.3967  130.7654  151.2659 LP  0  0  0  0  0  0  0  0  0  0  0  0  # atno 17370 bound_to 10713
  157.7507  131.0252  150.3908 LP  0  0  0  0  0  0  0  0  0  0  0  0  # atno 17371 bound_to 10713
  141.2108  133.6699  156.6539 LP  0  0  0  0  0  0  0  0  0  0  0  0  # atno 17394 bound_to 11000
  140.3205  134.8012  157.4248 LP  0  0  0  0  0  0  0  0  0  0  0  0  # atno 17395 bound_to 11000

$$$$
