AV-unprocessed.smi:2505|AV-procd|sdf|9855|dock8
  -GOLD-   2272013483D 1   1.00000     0.00000
 Structure written by MMmdl.
 48 52  0  0  0  0  0  0  0  0  1 V2000
  147.4923  135.9604  155.8417 O   0  0  0  0  0  0  0  0  0  0  0  0
  147.9615  135.9848  154.7061 C   0  0  0  0  0  0  0  0  0  0  0  0
  148.8278  136.9105  154.2516 N   0  0  0  0  0  0  0  0  0  0  0  0
  149.4077  138.0007  154.9521 C   0  0  0  0  0  0  0  0  0  0  0  0
  149.4063  138.1595  156.3600 C   0  0  0  0  0  0  0  0  0  0  0  0
  149.9950  139.2202  156.9541 N   0  0  0  0  0  0  0  0  0  0  0  0
  150.5753  140.1188  156.1540 C   0  0  0  0  0  0  0  0  0  0  0  0
  151.2563  141.2729  156.8219 C   0  0  0  0  0  0  0  0  0  0  0  0
  151.3844  141.3315  158.3305 C   0  0  0  0  0  0  0  0  0  0  0  0
  150.4617  142.2843  157.6231 C   0  0  0  0  0  0  0  0  0  0  0  0
  150.6599  140.0614  154.8219 N   0  0  0  0  0  0  0  0  0  0  0  0
  150.0755  139.0038  154.2194 C   0  0  0  0  0  0  0  0  0  0  0  0
  147.5932  135.0828  153.7805 N   0  0  0  0  0  0  0  0  0  0  0  0
  146.6707  133.9524  153.9461 C   0  0  2  0  0  0  0  0  0  0  0  0
  147.3162  132.7100  154.6077 C   0  0  2  0  0  0  0  0  0  0  0  0
  148.6638  132.7389  155.2885 C   0  0  0  0  0  0  0  0  0  0  0  0
  149.6127  132.2481  154.1910 C   0  0  0  0  0  0  0  0  0  0  0  0
  148.9028  132.4556  152.9720 O   0  0  0  0  0  0  0  0  0  0  0  0
  147.5309  132.1520  153.2098 C   0  0  2  0  0  0  0  0  0  0  0  0
  146.4997  133.1454  152.6374 C   0  0  0  0  0  0  0  0  0  0  0  0
  146.8063  133.7873  151.2837 C   0  0  0  0  0  0  0  0  0  0  0  0
  146.2193  132.8646  150.2143 C   0  0  0  0  0  0  0  0  0  0  0  0
  145.0823  132.1076  150.9067 C   0  0  0  0  0  0  0  0  0  0  0  0
  145.1148  132.5560  152.3716 C   0  0  0  0  0  0  0  0  0  0  0  0
  149.0615  136.8507  153.2713 H   0  0  0  0  0  0  0  0  0  0  0  0
  148.9606  137.4408  157.0293 H   0  0  0  0  0  0  0  0  0  0  0  0
  152.0917  141.6370  156.2270 H   0  0  0  0  0  0  0  0  0  0  0  0
  150.9288  140.5316  158.9111 H   0  0  0  0  0  0  0  0  0  0  0  0
  152.3079  141.7361  158.7393 H   0  0  0  0  0  0  0  0  0  0  0  0
  150.7674  143.3264  157.5584 H   0  0  0  0  0  0  0  0  0  0  0  0
  149.3917  142.1187  157.7338 H   0  0  0  0  0  0  0  0  0  0  0  0
  150.1417  138.9604  153.1419 H   0  0  0  0  0  0  0  0  0  0  0  0
  147.9488  135.2237  152.8457 H   0  0  0  0  0  0  0  0  0  0  0  0
  145.7105  134.2229  154.3887 H   0  0  0  0  0  0  0  0  0  0  0  0
  146.5663  132.1298  155.1478 H   0  0  0  0  0  0  0  0  0  0  0  0
  148.9357  133.7367  155.6293 H   0  0  0  0  0  0  0  0  0  0  0  0
  148.6993  132.0812  156.1574 H   0  0  0  0  0  0  0  0  0  0  0  0
  150.5659  132.7767  154.1928 H   0  0  0  0  0  0  0  0  0  0  0  0
  149.8124  131.1818  154.3066 H   0  0  0  0  0  0  0  0  0  0  0  0
  147.2923  131.0924  153.1085 H   0  0  0  0  0  0  0  0  0  0  0  0
  146.3246  134.7642  151.2192 H   0  0  0  0  0  0  0  0  0  0  0  0
  147.8722  133.9518  151.1230 H   0  0  0  0  0  0  0  0  0  0  0  0
  145.8757  133.4219  149.3425 H   0  0  0  0  0  0  0  0  0  0  0  0
  146.9784  132.1582  149.8756 H   0  0  0  0  0  0  0  0  0  0  0  0
  144.1149  132.3209  150.4507 H   0  0  0  0  0  0  0  0  0  0  0  0
  145.2511  131.0327  150.8320 H   0  0  0  0  0  0  0  0  0  0  0  0
  144.8743  131.7318  153.0440 H   0  0  0  0  0  0  0  0  0  0  0  0
  144.3513  133.3190  152.5292 H   0  0  0  0  0  0  0  0  0  0  0  0
  1  2  2  0  0  0  0
  2  3  1  0  0  0  0
  2 13  1  0  0  0  0
  3  4  1  0  0  0  0
  3 25  1  0  0  0  0
  4 12  1  0  0  0  0
  4  5  2  0  0  0  0
  5  6  1  0  0  0  0
  5 26  1  0  0  0  0
  6  7  2  0  0  0  0
  7  8  1  0  0  0  0
  7 11  1  0  0  0  0
  8 10  1  0  0  0  0
  8  9  1  0  0  0  0
  8 27  1  0  0  0  0
  9 10  1  0  0  0  0
  9 28  1  0  0  0  0
  9 29  1  0  0  0  0
 10 30  1  0  0  0  0
 10 31  1  0  0  0  0
 11 12  2  0  0  0  0
 12 32  1  0  0  0  0
 13 14  1  0  0  0  0
 13 33  1  0  0  0  0
 14 20  1  0  0  0  0
 14 15  1  0  0  0  0
 14 34  1  0  0  0  0
 15 19  1  0  0  0  0
 15 16  1  0  0  0  0
 15 35  1  0  0  0  0
 16 17  1  0  0  0  0
 16 36  1  0  0  0  0
 16 37  1  0  0  0  0
 17 18  1  0  0  0  0
 17 38  1  0  0  0  0
 17 39  1  0  0  0  0
 18 19  1  0  0  0  0
 19 20  1  0  0  0  0
 19 40  1  0  0  0  0
 20 24  1  0  0  0  0
 20 21  1  0  0  0  0
 21 22  1  0  0  0  0
 21 41  1  0  0  0  0
 21 42  1  0  0  0  0
 22 23  1  0  0  0  0
 22 43  1  0  0  0  0
 22 44  1  0  0  0  0
 23 24  1  0  0  0  0
 23 45  1  0  0  0  0
 23 46  1  0  0  0  0
 24 47  1  0  0  0  0
 24 48  1  0  0  0  0
M  END
> <s_m_source_file>
AV-unprocessed.smi

> <i_m_source_file_index>
2505

> <i_lp_mmshare_version>
43012

> <i_f3d_flags>
0

> <s_epik_input>
W0NIMl0xW0NIMl1bQ0hdMWMobltjSF0yKW5bY0hdYzJbTkhdQyg9TylbTkhdW0NAQEhdM1tDQEBIXShbQ0gyXVtDSDJdTzQpW0NASF00QzM1W0NIMl1bQ0gyXVtDSDJdW0NIMl01

> <s_epik_cmdline>
J2VwaWtfcHl0aG9uJywgJy1waCcsICc3LjAnLCAnLXRuJywgJzgnLCAnLW1hJywgJzIwMCcsICctbWV0YWxfYmluZGluZycsICctaW1hZScsICc8aW5maWxlLm1hZT4nLCAnLW9tYWUnLCAnPG91dGZpbGUubWFlPic=

> <r_lp_tautomer_probability>
1

> <r_epik_Ionization_Penalty>
2.6075e-05

> <r_epik_Ionization_Penalty_Charging>
0

> <r_epik_Ionization_Penalty_Neutral>
2.6075e-05

> <r_epik_State_Penalty>
-0

> <r_epik_Charging_Adjusted_Penalty>
0

> <i_epik_Tot_Q>
0

> <i_epik_Tot_abs_Q>
0

> <r_epik_Metal_State_Penalty>
-0

> <b_epik_Metal_Only>
0

> <s_lp_Force_Field>
OPLS_2005

> <r_lp_Energy>
63.7277

> <b_lp_Chiralities_Consistent>
1

> <s_lp_Variant>
AV-unprocessed.smi:2505-3

> <Gold.Version>
5.8.1

> <Gold.Id.Protein>
6NUR|6NUR_protein|mol2

> <Gold.PLP.Fitness>
42.9417

> <Gold.PLP.PLP>
-31.4205

> <Gold.PLP.part.hbond>
-2.8078

> <Gold.PLP.part.metal>
0.0000

> <Gold.PLP.part.buried>
-3.7961

> <Gold.PLP.part.nonpolar>
-24.4935

> <Gold.PLP.part.repulsive>
0.2758

> <Gold.PLP.ligand.clash>
0.0000

> <Gold.PLP.ligand.torsion>
0.2516

> <Gold.PLP.Chemscore.Hbond>
2.9033

> <Gold.PLP.Chemscore.CHOScore>
1.0000

> <Gold.PLP.Chemscore.Metal>
0.0000

> <Gold.Chemscore.Hbonds>
donor molecule, donor type, donor heavy atom, donor atom, acceptor molecule, acceptor atom, score
      L1  H     3    25       P1  7948  0.99
      L1  H    13    33       P1  7948  0.91
      P1  H  7989  7998       L1    11  1.00
      L1  C    12    32       P1  7957  1.00

> <Gold.PLP.Chemscore.Internal.Correction>
0.3147

> <Gold.Rescore>
     Score         DG    S(hbond)    S(metal)    S(lipo)     H(rot)  DE(clash)    DE(int)     intcor
     19.40     -21.02       2.53        0.00      86.32       1.17       0.30       1.33       ----

> <Gold.Chemscore.Fitness>
19.3961

> <Gold.Chemscore.DG>
-21.0247

> <Gold.Chemscore.ZeroCoef>
-5.4800

> <Gold.Chemscore.Hbond>
2.5305

> <Gold.Chemscore.Metal>
0.0000

> <Gold.Chemscore.Lipo>
86.3180

> <Gold.Chemscore.Internal_Hbond>
0.0000

> <Gold.Chemscore.DEClash>
0.3030

> <Gold.Chemscore.DEInternal>
1.3255

> <Gold.Chemscore.Rot>
1.1744

> <Gold.Chemscore.Internal.Correction>
   9.000000E+99

> <Gold.Chemscore.Hbonds>
donor molecule, donor type, donor heavy atom, donor atom, acceptor molecule, acceptor atom, score
      L1  H     3    25       P1  7948  0.90
      L1  H    13    33       P1  7948  0.89
      P1  H  7989  7998       L1    11  0.50

> <Gold.Chemscore.Hbond.Weighted>
-8.4519

> <Gold.Chemscore.Metal.Weighted>
-0.0000

> <Gold.Chemscore.Lipo.Weighted>
-10.0992

> <Gold.Chemscore.Internal_Hbond.Weighted>
0.0000

> <Gold.Chemscore.DEClash.Weighted>
0.3030

> <Gold.Chemscore.DEInternal.Weighted>
1.3255

> <Gold.Chemscore.Rot.Weighted>
3.0064

> <Gold.Chemscore.Internal.Correction.Weighted>
   9.000000E+99

> <Gold.Protein.RotatedTorsions>
[ 6907 6896 6895 6894 ] final  109.86 input  -60.11 | X-H torsion
[ 7974 7965 7964 7962 ] final   28.71 input  175.53 | X-H torsion
[ 8008 7997 7996 7995 ] final  128.71 input   59.86 | X-H torsion
[ 10167 10162 10161 10158 ] final  -82.36 input  -65.29 | X-H torsion
[ 10718 10713 10712 10709 ] final  -27.22 input   66.30 | X-H torsion
[ 10763 10752 10751 10750 ] final -130.15 input  -60.55 | X-H torsion
[ 11005 11000 10999 10996 ] final -145.97 input  -57.11 | X-H torsion

> <Gold.Protein.ActiveResidues>
 VAL166  LYS551  ARG553  GLY616  TRP617  ASP618  TYR619  PRO620  LYS621  CYS622 
 ASP623  PHE694  ASN695  SER759  ASP760  ASP761  ALA762  ILE779  LEU786  VAL792 
 PHE793  MET794  SER795  GLU796  ALA797  LYS798  CYS799  TRP800  GLU811  SER814 

> <Gold.Protein.RotatedAtoms>
  152.5047  133.8884  159.7381 H   0  0  0  0  0  0  0  0  0  0  0  0  # atno 6907 bound_to 6896
  150.9329  133.6737  159.2813 H   0  0  0  0  0  0  0  0  0  0  0  0  # atno 6908 bound_to 6896
  151.4075  135.0985  159.9627 H   0  0  0  0  0  0  0  0  0  0  0  0  # atno 6909 bound_to 6896
  146.1713  139.7019  142.8965 H   0  0  0  0  0  0  0  0  0  0  0  0  # atno 7974 bound_to 7965
  156.2921  140.2638  156.2480 H   0  0  0  0  0  0  0  0  0  0  0  0  # atno 8008 bound_to 7997
  154.9911  140.0388  157.2338 H   0  0  0  0  0  0  0  0  0  0  0  0  # atno 8009 bound_to 7997
  154.7685  140.2774  155.6161 H   0  0  0  0  0  0  0  0  0  0  0  0  # atno 8010 bound_to 7997
  140.4327  143.2542  151.8736 H   0  0  0  0  0  0  0  0  0  0  0  0  # atno 10167 bound_to 10162
  156.4409  130.4464  149.7053 H   0  0  0  0  0  0  0  0  0  0  0  0  # atno 10718 bound_to 10713
  154.8756  135.3872  154.4037 H   0  0  0  0  0  0  0  0  0  0  0  0  # atno 10763 bound_to 10752
  153.4758  135.7030  153.5971 H   0  0  0  0  0  0  0  0  0  0  0  0  # atno 10764 bound_to 10752
  153.4409  135.3856  155.2195 H   0  0  0  0  0  0  0  0  0  0  0  0  # atno 10765 bound_to 10752
  140.7868  134.3015  157.5027 H   0  0  0  0  0  0  0  0  0  0  0  0  # atno 11005 bound_to 11000
  145.4332  141.0417  143.2899 LP  0  0  0  0  0  0  0  0  0  0  0  0  # atno 17320 bound_to 7965
  144.8168  139.5863  143.7005 LP  0  0  0  0  0  0  0  0  0  0  0  0  # atno 17321 bound_to 7965
  139.4785  144.5317  151.8657 LP  0  0  0  0  0  0  0  0  0  0  0  0  # atno 17342 bound_to 10162
  140.4408  144.1988  150.5891 LP  0  0  0  0  0  0  0  0  0  0  0  0  # atno 17343 bound_to 10162
  156.3918  130.7631  151.2632 LP  0  0  0  0  0  0  0  0  0  0  0  0  # atno 17370 bound_to 10713
  157.7506  131.0265  150.3967 LP  0  0  0  0  0  0  0  0  0  0  0  0  # atno 17371 bound_to 10713
  139.8736  134.9351  156.3624 LP  0  0  0  0  0  0  0  0  0  0  0  0  # atno 17394 bound_to 11000
  140.9429  133.7502  156.0170 LP  0  0  0  0  0  0  0  0  0  0  0  0  # atno 17395 bound_to 11000

$$$$
