AV-unprocessed.smi:1586|AV-procd|sdf|6383|dock1
  -GOLD-   22720 7 13D 1   1.00000     0.00000
 Structure written by MMmdl.
 46 47  0  0  0  0  0  0  0  0  3 V2000
  144.3394  135.0757  150.9271 C   0  0  0  0  0  0  0  0  0  0  0  0
  144.3628  133.5420  150.8509 C   0  0  0  0  0  0  0  0  0  0  0  0
  145.5883  133.0433  150.2220 N   0  0  0  0  0  0  0  0  0  0  0  0
  146.8327  133.4457  150.8825 C   0  0  0  0  0  0  0  0  0  0  0  0
  147.0228  132.7611  152.2526 C   0  0  0  0  0  0  0  0  0  0  0  0
  147.0046  131.2784  152.1160 N   0  3  0  0  0  0  0  0  0  0  0  0
  147.2564  130.4981  153.3713 C   0  0  2  0  0  0  0  0  0  0  0  0
  148.6556  130.7472  153.9869 C   0  0  0  0  0  0  0  0  0  0  0  0
  147.0517  128.9883  153.1006 C   0  0  0  0  0  0  0  0  0  0  0  0
  147.7937  128.5361  151.9290 N   0  0  0  0  0  0  0  0  0  0  0  0
  147.9658  127.2585  151.5649 C   0  0  0  0  0  0  0  0  0  0  0  0
  147.4975  126.3541  152.2599 O   0  0  0  0  0  0  0  0  0  0  0  0
  148.6665  127.1109  150.4175 N   0  5  0  0  0  0  0  0  0  0  0  0
  148.7612  125.9057  149.8343 C   0  0  0  0  0  0  0  0  0  0  0  0
  147.7075  124.9635  149.6814 C   0  0  0  0  0  0  0  0  0  0  0  0
  148.3136  123.9177  149.0449 C   0  0  0  0  0  0  0  0  0  0  0  0
  147.8136  122.5983  148.5641 C   0  0  0  0  0  0  0  0  0  0  0  0
  149.6298  124.1908  148.8368 O   0  0  0  0  0  0  0  0  0  0  0  0
  149.9097  125.4624  149.3511 N   0  0  0  0  0  0  0  0  0  0  0  0
  145.7490  130.8672  151.4308 C   0  0  0  0  0  0  0  0  0  0  0  0
  145.5929  131.5872  150.0749 C   0  0  0  0  0  0  0  0  0  0  0  0
  143.3664  135.4245  151.2731 H   0  0  0  0  0  0  0  0  0  0  0  0
  144.5204  135.5243  149.9499 H   0  0  0  0  0  0  0  0  0  0  0  0
  145.0837  135.4629  151.6220 H   0  0  0  0  0  0  0  0  0  0  0  0
  144.2142  133.1140  151.8415 H   0  0  0  0  0  0  0  0  0  0  0  0
  143.5128  133.2235  150.2461 H   0  0  0  0  0  0  0  0  0  0  0  0
  147.6665  133.1815  150.2306 H   0  0  0  0  0  0  0  0  0  0  0  0
  146.8751  134.5286  150.9909 H   0  0  0  0  0  0  0  0  0  0  0  0
  147.9861  133.0944  152.6371 H   0  0  0  0  0  0  0  0  0  0  0  0
  146.2652  133.0850  152.9670 H   0  0  0  0  0  0  0  0  0  0  0  0
  146.5260  130.8201  154.1157 H   0  0  0  0  0  0  0  0  0  0  0  0
  148.8131  130.1534  154.8875 H   0  0  0  0  0  0  0  0  0  0  0  0
  148.7896  131.7844  154.2938 H   0  0  0  0  0  0  0  0  0  0  0  0
  149.4509  130.4903  153.2865 H   0  0  0  0  0  0  0  0  0  0  0  0
  147.3783  128.3791  153.9421 H   0  0  0  0  0  0  0  0  0  0  0  0
  145.9873  128.7885  152.9632 H   0  0  0  0  0  0  0  0  0  0  0  0
  148.1956  129.2463  151.3343 H   0  0  0  0  0  0  0  0  0  0  0  0
  146.6743  125.0452  149.9843 H   0  0  0  0  0  0  0  0  0  0  0  0
  147.0724  122.7321  147.7763 H   0  0  0  0  0  0  0  0  0  0  0  0
  147.3473  122.0432  149.3779 H   0  0  0  0  0  0  0  0  0  0  0  0
  148.6259  121.9914  148.1634 H   0  0  0  0  0  0  0  0  0  0  0  0
  145.7482  129.7949  151.2443 H   0  0  0  0  0  0  0  0  0  0  0  0
  144.8913  131.0634  152.0754 H   0  0  0  0  0  0  0  0  0  0  0  0
  144.6764  131.2656  149.5787 H   0  0  0  0  0  0  0  0  0  0  0  0
  146.4132  131.3041  149.4139 H   0  0  0  0  0  0  0  0  0  0  0  0
  147.7663  131.0541  151.4917 H   0  0  0  0  0  0  0  0  0  0  0  0
  1  2  1  0  0  0  0
  1 22  1  0  0  0  0
  1 23  1  0  0  0  0
  1 24  1  0  0  0  0
  2  3  1  0  0  0  0
  2 25  1  0  0  0  0
  2 26  1  0  0  0  0
  3 21  1  0  0  0  0
  3  4  1  0  0  0  0
  4  5  1  0  0  0  0
  4 27  1  0  0  0  0
  4 28  1  0  0  0  0
  5  6  1  0  0  0  0
  5 29  1  0  0  0  0
  5 30  1  0  0  0  0
  6  7  1  0  0  0  0
  6 20  1  0  0  0  0
  6 46  1  0  0  0  0
  7  8  1  0  0  0  0
  7  9  1  0  0  0  0
  7 31  1  0  0  0  0
  8 32  1  0  0  0  0
  8 33  1  0  0  0  0
  8 34  1  0  0  0  0
  9 10  1  0  0  0  0
  9 35  1  0  0  0  0
  9 36  1  0  0  0  0
 10 11  1  0  0  0  0
 10 37  1  0  0  0  0
 11 12  2  0  0  0  0
 11 13  1  0  0  0  0
 13 14  1  0  0  0  0
 14 19  2  0  0  0  0
 14 15  1  0  0  0  0
 15 16  2  0  0  0  0
 15 38  1  0  0  0  0
 16 17  1  0  0  0  0
 16 18  1  0  0  0  0
 17 39  1  0  0  0  0
 17 40  1  0  0  0  0
 17 41  1  0  0  0  0
 18 19  1  0  0  0  0
 20 21  1  0  0  0  0
 20 42  1  0  0  0  0
 20 43  1  0  0  0  0
 21 44  1  0  0  0  0
 21 45  1  0  0  0  0
M  CHG  1   6   1
M  CHG  1  13  -1
M  END
> <s_m_source_file>
AV-unprocessed.smi

> <i_m_source_file_index>
1586

> <i_lp_mmshare_version>
43012

> <i_f3d_flags>
0

> <s_epik_input>
W0NIM11bQ0gyXU4xW0NIMl1bQ0gyXU4oW0NIMl1bQ0gyXTEpW0NASF0oW0NIM10pW0NIMl1bTkhdQyg9TylbTkhdYzJbY0hdYyhbQ0gzXSlvbjI=

> <s_epik_cmdline>
J2VwaWtfcHl0aG9uJywgJy1waCcsICc3LjAnLCAnLXRuJywgJzgnLCAnLW1hJywgJzIwMCcsICctbWV0YWxfYmluZGluZycsICctaW1hZScsICc8aW5maWxlLm1hZT4nLCAnLW9tYWUnLCAnPG91dGZpbGUubWFlPic=

> <r_epik_Ionization_Penalty>
6.35599

> <r_epik_Ionization_Penalty_Charging>
6.35441

> <r_epik_Ionization_Penalty_Neutral>
0.00158318

> <r_epik_State_Penalty>
7.1902

> <r_epik_Charging_Adjusted_Penalty>
13.5446

> <i_epik_Tot_Q>
0

> <i_epik_Tot_abs_Q>
2

> <r_epik_Metal_State_Penalty>
3.12491

> <b_epik_Metal_Only>
1

> <s_lp_Force_Field>
OPLS_2005

> <r_lp_Energy>
12.1212

> <b_lp_Chiralities_Consistent>
1

> <s_lp_Variant>
AV-unprocessed.smi:1586-11

> <Gold.Version>
5.8.1

> <Gold.Id.Protein>
6NUR|6NUR_protein|mol2

> <Gold.PLP.Fitness>
42.5524

> <Gold.PLP.PLP>
-37.5845

> <Gold.PLP.part.hbond>
-2.4493

> <Gold.PLP.part.metal>
0.0000

> <Gold.PLP.part.buried>
-9.1844

> <Gold.PLP.part.nonpolar>
-27.3757

> <Gold.PLP.part.repulsive>
1.4592

> <Gold.PLP.ligand.clash>
0.0000

> <Gold.PLP.ligand.torsion>
0.5682

> <Gold.PLP.Chemscore.Hbond>
2.0000

> <Gold.PLP.Chemscore.CHOScore>
0.0000

> <Gold.PLP.Chemscore.Metal>
0.0000

> <Gold.Chemscore.Hbonds>
donor molecule, donor type, donor heavy atom, donor atom, acceptor molecule, acceptor atom, score
      L1  H     6    46       P1 10747  1.00
      L1  H    10    37       P1 10747  1.00

> <Gold.PLP.Chemscore.Internal.Correction>
0.1043

> <Gold.Rescore>
     Score         DG    S(hbond)    S(metal)    S(lipo)     H(rot)  DE(clash)    DE(int)     intcor
     12.54     -14.38       1.17        0.00      80.44       1.73       0.12       1.72       ----

> <Gold.Chemscore.Fitness>
12.5417

> <Gold.Chemscore.DG>
-14.3843

> <Gold.Chemscore.ZeroCoef>
-5.4800

> <Gold.Chemscore.Hbond>
1.1703

> <Gold.Chemscore.Metal>
0.0000

> <Gold.Chemscore.Lipo>
80.4406

> <Gold.Chemscore.Internal_Hbond>
0.0000

> <Gold.Chemscore.DEClash>
0.1208

> <Gold.Chemscore.DEInternal>
1.7219

> <Gold.Chemscore.Rot>
1.7250

> <Gold.Chemscore.Internal.Correction>
   9.000000E+99

> <Gold.Chemscore.Hbonds>
donor molecule, donor type, donor heavy atom, donor atom, acceptor molecule, acceptor atom, score
      L1  H     6    46       P1 10747  1.00
      L1  H    10    37       P1 10747  0.28

> <Gold.Chemscore.Hbond.Weighted>
-3.9089

> <Gold.Chemscore.Metal.Weighted>
-0.0000

> <Gold.Chemscore.Lipo.Weighted>
-9.4116

> <Gold.Chemscore.Internal_Hbond.Weighted>
0.0000

> <Gold.Chemscore.DEClash.Weighted>
0.1208

> <Gold.Chemscore.DEInternal.Weighted>
1.7219

> <Gold.Chemscore.Rot.Weighted>
4.4161

> <Gold.Chemscore.Internal.Correction.Weighted>
   9.000000E+99

> <Gold.Protein.RotatedTorsions>
[ 6907 6896 6895 6894 ] final -113.03 input  -60.11 | X-H torsion
[ 7974 7965 7964 7962 ] final -133.12 input  175.53 | X-H torsion
[ 8008 7997 7996 7995 ] final   -4.83 input   59.86 | X-H torsion
[ 10167 10162 10161 10158 ] final  165.73 input  -65.29 | X-H torsion
[ 10718 10713 10712 10709 ] final  -71.16 input   66.30 | X-H torsion
[ 10763 10752 10751 10750 ] final   29.37 input  -60.55 | X-H torsion
[ 11005 11000 10999 10996 ] final -136.76 input  -57.11 | X-H torsion

> <Gold.Protein.ActiveResidues>
 VAL166  LYS551  ARG553  GLY616  TRP617  ASP618  TYR619  PRO620  LYS621  CYS622 
 ASP623  PHE694  ASN695  SER759  ASP760  ASP761  ALA762  ILE779  LEU786  VAL792 
 PHE793  MET794  SER795  GLU796  ALA797  LYS798  CYS799  TRP800  GLU811  SER814 

> <Gold.Protein.RotatedAtoms>
  150.7800  133.9004  159.3339 H   0  0  0  0  0  0  0  0  0  0  0  0  # atno 6907 bound_to 6896
  151.6869  135.0951  160.0236 H   0  0  0  0  0  0  0  0  0  0  0  0  # atno 6908 bound_to 6896
  152.3848  133.6558  159.6225 H   0  0  0  0  0  0  0  0  0  0  0  0  # atno 6909 bound_to 6896
  144.9223  140.7029  143.4958 H   0  0  0  0  0  0  0  0  0  0  0  0  # atno 7974 bound_to 7965
  154.6102  140.2474  155.7679 H   0  0  0  0  0  0  0  0  0  0  0  0  # atno 8008 bound_to 7997
  156.2366  140.2948  156.0279 H   0  0  0  0  0  0  0  0  0  0  0  0  # atno 8009 bound_to 7997
  155.2065  140.0396  157.2916 H   0  0  0  0  0  0  0  0  0  0  0  0  # atno 8010 bound_to 7997
  139.4911  144.4101  151.9309 H   0  0  0  0  0  0  0  0  0  0  0  0  # atno 10167 bound_to 10162
  156.0375  130.4346  150.2402 H   0  0  0  0  0  0  0  0  0  0  0  0  # atno 10718 bound_to 10713
  153.0435  135.6490  154.0880 H   0  0  0  0  0  0  0  0  0  0  0  0  # atno 10763 bound_to 10752
  154.0582  135.2890  155.3331 H   0  0  0  0  0  0  0  0  0  0  0  0  # atno 10764 bound_to 10752
  154.6675  135.5368  153.8161 H   0  0  0  0  0  0  0  0  0  0  0  0  # atno 10765 bound_to 10752
  140.8775  134.1973  157.4612 H   0  0  0  0  0  0  0  0  0  0  0  0  # atno 11005 bound_to 11000
  145.3276  139.1769  143.4554 LP  0  0  0  0  0  0  0  0  0  0  0  0  # atno 17320 bound_to 7965
  146.3210  140.3302  142.8640 LP  0  0  0  0  0  0  0  0  0  0  0  0  # atno 17321 bound_to 7965
  140.3542  144.3052  150.5944 LP  0  0  0  0  0  0  0  0  0  0  0  0  # atno 17342 bound_to 10162
  140.5459  143.2215  151.8008 LP  0  0  0  0  0  0  0  0  0  0  0  0  # atno 17343 bound_to 10162
  157.0500  131.0060  151.3256 LP  0  0  0  0  0  0  0  0  0  0  0  0  # atno 17370 bound_to 10713
  157.5147  130.7960  149.7743 LP  0  0  0  0  0  0  0  0  0  0  0  0  # atno 17371 bound_to 10713
  139.8717  134.9802  156.5067 LP  0  0  0  0  0  0  0  0  0  0  0  0  # atno 17394 bound_to 11000
  140.8501  133.8139  155.9160 LP  0  0  0  0  0  0  0  0  0  0  0  0  # atno 17395 bound_to 11000

$$$$
