AV-unprocessed.smi:460|AV-procd|sdf|2628|dock5
  -GOLD-   2262023 33D 1   1.00000     0.00000
 Structure written by MMmdl.
 47 49  0  0  0  0  0  0  0  0  2 V2000
  147.2230  140.7217  153.8465 C   0  0  0  0  0  0  0  0  0  0  0  0
  148.1719  140.7780  155.0543 C   0  0  0  0  0  0  0  0  0  0  0  0
  149.6165  141.1993  154.7103 C   0  0  2  0  0  0  0  0  0  0  0  0
  150.2383  140.1383  154.0181 O   0  0  0  0  0  0  0  0  0  0  0  0
  150.4090  141.6022  155.9185 C   0  0  0  0  0  0  0  0  0  0  0  0
  150.4996  142.8649  156.4273 N   0  3  0  0  0  0  0  0  0  0  0  0
  151.3177  142.8661  157.5561 C   0  0  0  0  0  0  0  0  0  0  0  0
  151.7156  143.9055  158.3909 C   0  0  0  0  0  0  0  0  0  0  0  0
  152.5650  143.5650  159.4639 C   0  0  0  0  0  0  0  0  0  0  0  0
  152.9858  142.2356  159.6733 C   0  0  0  0  0  0  0  0  0  0  0  0
  152.5735  141.1902  158.8207 C   0  0  0  0  0  0  0  0  0  0  0  0
  151.7314  141.5348  157.7631 C   0  0  0  0  0  0  0  0  0  0  0  0
  151.1280  140.7858  156.7452 N   0  0  0  0  0  0  0  0  0  0  0  0
  151.3379  139.3297  156.7142 C   0  0  0  0  0  0  0  0  0  0  0  0
  150.5842  138.6005  157.8348 C   0  0  0  0  0  0  0  0  0  0  0  0
  150.3980  137.2463  157.4504 O   0  0  0  0  0  0  0  0  0  0  0  0
  149.6375  136.4306  158.2597 C   0  0  0  0  0  0  0  0  0  0  0  0
  149.1395  136.8300  159.5249 C   0  0  0  0  0  0  0  0  0  0  0  0
  148.3781  135.9403  160.3042 C   0  0  0  0  0  0  0  0  0  0  0  0
  148.1087  134.6453  159.8301 C   0  0  0  0  0  0  0  0  0  0  0  0
  148.5978  134.2395  158.5750 C   0  0  0  0  0  0  0  0  0  0  0  0
  149.3640  135.1289  157.7798 C   0  0  0  0  0  0  0  0  0  0  0  0
  149.8619  134.8057  156.5343 O   0  0  0  0  0  0  0  0  0  0  0  0
  149.6080  133.5067  156.0217 C   0  0  0  0  0  0  0  0  0  0  0  0
  146.2501  140.3266  154.1398 H   0  0  0  0  0  0  0  0  0  0  0  0
  147.6151  140.0794  153.0601 H   0  0  0  0  0  0  0  0  0  0  0  0
  147.0571  141.7081  153.4146 H   0  0  0  0  0  0  0  0  0  0  0  0
  147.7533  141.4585  155.7972 H   0  0  0  0  0  0  0  0  0  0  0  0
  148.1933  139.7947  155.5260 H   0  0  0  0  0  0  0  0  0  0  0  0
  149.5706  142.0422  154.0224 H   0  0  0  0  0  0  0  0  0  0  0  0
  149.7659  139.9886  153.2133 H   0  0  0  0  0  0  0  0  0  0  0  0
  151.3951  144.9244  158.2307 H   0  0  0  0  0  0  0  0  0  0  0  0
  152.9012  144.3386  160.1389 H   0  0  0  0  0  0  0  0  0  0  0  0
  153.6381  142.0126  160.5052 H   0  0  0  0  0  0  0  0  0  0  0  0
  152.9049  140.1767  158.9907 H   0  0  0  0  0  0  0  0  0  0  0  0
  151.0384  138.9499  155.7375 H   0  0  0  0  0  0  0  0  0  0  0  0
  152.4091  139.1418  156.7932 H   0  0  0  0  0  0  0  0  0  0  0  0
  151.1448  138.6649  158.7685 H   0  0  0  0  0  0  0  0  0  0  0  0
  149.6160  139.0798  157.9876 H   0  0  0  0  0  0  0  0  0  0  0  0
  149.3342  137.8142  159.9225 H   0  0  0  0  0  0  0  0  0  0  0  0
  148.0029  136.2516  161.2681 H   0  0  0  0  0  0  0  0  0  0  0  0
  147.5248  133.9620  160.4292 H   0  0  0  0  0  0  0  0  0  0  0  0
  148.3671  133.2392  158.2418 H   0  0  0  0  0  0  0  0  0  0  0  0
  150.0957  133.4035  155.0527 H   0  0  0  0  0  0  0  0  0  0  0  0
  148.5405  133.3377  155.8737 H   0  0  0  0  0  0  0  0  0  0  0  0
  150.0107  132.7331  156.6769 H   0  0  0  0  0  0  0  0  0  0  0  0
  150.0391  143.6679  156.0189 H   0  0  0  0  0  0  0  0  0  0  0  0
  1  2  1  0  0  0  0
  1 25  1  0  0  0  0
  1 26  1  0  0  0  0
  1 27  1  0  0  0  0
  2  3  1  0  0  0  0
  2 28  1  0  0  0  0
  2 29  1  0  0  0  0
  3  4  1  0  0  0  0
  3  5  1  0  0  0  0
  3 30  1  0  0  0  0
  4 31  1  0  0  0  0
  5 13  1  0  0  0  0
  5  6  2  0  0  0  0
  6  7  1  0  0  0  0
  6 47  1  0  0  0  0
  7 12  2  0  0  0  0
  7  8  1  0  0  0  0
  8  9  2  0  0  0  0
  8 32  1  0  0  0  0
  9 10  1  0  0  0  0
  9 33  1  0  0  0  0
 10 11  2  0  0  0  0
 10 34  1  0  0  0  0
 11 12  1  0  0  0  0
 11 35  1  0  0  0  0
 12 13  1  0  0  0  0
 13 14  1  0  0  0  0
 14 15  1  0  0  0  0
 14 36  1  0  0  0  0
 14 37  1  0  0  0  0
 15 16  1  0  0  0  0
 15 38  1  0  0  0  0
 15 39  1  0  0  0  0
 16 17  1  0  0  0  0
 17 22  1  0  0  0  0
 17 18  2  0  0  0  0
 18 19  1  0  0  0  0
 18 40  1  0  0  0  0
 19 20  2  0  0  0  0
 19 41  1  0  0  0  0
 20 21  1  0  0  0  0
 20 42  1  0  0  0  0
 21 22  2  0  0  0  0
 21 43  1  0  0  0  0
 22 23  1  0  0  0  0
 23 24  1  0  0  0  0
 24 44  1  0  0  0  0
 24 45  1  0  0  0  0
 24 46  1  0  0  0  0
M  CHG  1   6   1
M  END
> <s_m_source_file>
AV-unprocessed.smi

> <i_m_source_file_index>
460

> <i_lp_mmshare_version>
43012

> <i_f3d_flags>
0

> <s_epik_input>
W2NIXTFbY0hdW2NIXVtjSF1jKGMxMiluKGMobjIpW0NAQEhdKFtPSF0pW0NIMl1bQ0gzXSlbQ0gyXVtDSDJdT2MzW2NIXVtjSF1bY0hdW2NIXWMzT1tDSDNd

> <s_epik_cmdline>
J2VwaWtfcHl0aG9uJywgJy1waCcsICc3LjAnLCAnLXRuJywgJzgnLCAnLW1hJywgJzIwMCcsICctbWV0YWxfYmluZGluZycsICctaW1hZScsICc8aW5maWxlLm1hZT4nLCAnLW9tYWUnLCAnPG91dGZpbGUubWFlPic=

> <r_lp_tautomer_probability>
1

> <r_epik_Ionization_Penalty>
1.48085

> <r_epik_Ionization_Penalty_Charging>
1.48083

> <r_epik_Ionization_Penalty_Neutral>
1.80167e-05

> <r_epik_State_Penalty>
1.56944

> <r_epik_Charging_Adjusted_Penalty>
3.05027

> <i_epik_Tot_Q>
1

> <i_epik_Tot_abs_Q>
1

> <r_epik_Metal_State_Penalty>
5.61877

> <b_epik_Metal_Only>
0

> <s_lp_Force_Field>
OPLS_2005

> <r_lp_Energy>
23.3046

> <b_lp_Chiralities_Consistent>
1

> <s_lp_Variant>
AV-unprocessed.smi:460-3

> <Gold.Version>
5.8.1

> <Gold.Id.Protein>
6NUR|6NUR_protein|mol2

> <Gold.PLP.Fitness>
53.8640

> <Gold.PLP.PLP>
-44.4426

> <Gold.PLP.part.hbond>
-2.8978

> <Gold.PLP.part.metal>
0.0000

> <Gold.PLP.part.buried>
-5.9962

> <Gold.PLP.part.nonpolar>
-36.6804

> <Gold.PLP.part.repulsive>
0.0940

> <Gold.PLP.ligand.clash>
0.0000

> <Gold.PLP.ligand.torsion>
1.1116

> <Gold.PLP.Chemscore.Hbond>
3.8560

> <Gold.PLP.Chemscore.CHOScore>
0.0000

> <Gold.PLP.Chemscore.Metal>
0.0000

> <Gold.Chemscore.Hbonds>
donor molecule, donor type, donor heavy atom, donor atom, acceptor molecule, acceptor atom, score
      L1  H     4    31       P1  7957  0.93
      L1  H     6    47       P1  8028  2.00
      P1  H  7989  7998       L1     4  0.94

> <Gold.PLP.Chemscore.Internal.Correction>
0.0767

> <Gold.Rescore>
     Score         DG    S(hbond)    S(metal)    S(lipo)     H(rot)  DE(clash)    DE(int)     intcor
     20.33     -20.85       2.43        0.00     115.42       2.45       0.07       0.45       ----

> <Gold.Chemscore.Fitness>
20.3331

> <Gold.Chemscore.DG>
-20.8533

> <Gold.Chemscore.ZeroCoef>
-5.4800

> <Gold.Chemscore.Hbond>
2.4338

> <Gold.Chemscore.Metal>
0.0000

> <Gold.Chemscore.Lipo>
115.4170

> <Gold.Chemscore.Internal_Hbond>
0.0000

> <Gold.Chemscore.DEClash>
0.0666

> <Gold.Chemscore.DEInternal>
0.4537

> <Gold.Chemscore.Rot>
2.4450

> <Gold.Chemscore.Internal.Correction>
   9.000000E+99

> <Gold.Chemscore.Hbonds>
donor molecule, donor type, donor heavy atom, donor atom, acceptor molecule, acceptor atom, score
      L1  H     4    31       P1  7957  0.85
      L1  H     6    47       P1  8028  0.98
      P1  H  7989  7998       L1     4  0.09

> <Gold.Chemscore.Hbond.Weighted>
-8.1288

> <Gold.Chemscore.Metal.Weighted>
-0.0000

> <Gold.Chemscore.Lipo.Weighted>
-13.5038

> <Gold.Chemscore.Internal_Hbond.Weighted>
0.0000

> <Gold.Chemscore.DEClash.Weighted>
0.0666

> <Gold.Chemscore.DEInternal.Weighted>
0.4537

> <Gold.Chemscore.Rot.Weighted>
6.2593

> <Gold.Chemscore.Internal.Correction.Weighted>
   9.000000E+99

> <Gold.Protein.RotatedTorsions>
[ 6907 6896 6895 6894 ] final  -46.21 input  -60.11 | X-H torsion
[ 7974 7965 7964 7962 ] final -131.71 input  175.53 | X-H torsion
[ 8008 7997 7996 7995 ] final   14.72 input   59.86 | X-H torsion
[ 10167 10162 10161 10158 ] final -173.13 input  -65.29 | X-H torsion
[ 10718 10713 10712 10709 ] final -140.07 input   66.30 | X-H torsion
[ 10763 10752 10751 10750 ] final   78.65 input  -60.55 | X-H torsion
[ 11005 11000 10999 10996 ] final   71.78 input  -57.11 | X-H torsion

> <Gold.Protein.ActiveResidues>
 VAL166  LYS551  ARG553  GLY616  TRP617  ASP618  TYR619  PRO620  LYS621  CYS622 
 ASP623  PHE694  ASN695  SER759  ASP760  ASP761  ALA762  ILE779  LEU786  VAL792 
 PHE793  MET794  SER795  GLU796  ALA797  LYS798  CYS799  TRP800  GLU811  SER814 

> <Gold.Protein.RotatedAtoms>
  150.9137  134.8554  159.7441 H   0  0  0  0  0  0  0  0  0  0  0  0  # atno 6907 bound_to 6896
  152.4957  134.4322  159.9526 H   0  0  0  0  0  0  0  0  0  0  0  0  # atno 6908 bound_to 6896
  151.4362  133.3617  159.2810 H   0  0  0  0  0  0  0  0  0  0  0  0  # atno 6909 bound_to 6896
  144.9353  140.7176  143.4880 H   0  0  0  0  0  0  0  0  0  0  0  0  # atno 7974 bound_to 7965
  154.8525  140.2932  155.5589 H   0  0  0  0  0  0  0  0  0  0  0  0  # atno 8008 bound_to 7997
  156.3017  140.2493  156.3418 H   0  0  0  0  0  0  0  0  0  0  0  0  # atno 8009 bound_to 7997
  154.9006  140.0391  157.1880 H   0  0  0  0  0  0  0  0  0  0  0  0  # atno 8010 bound_to 7997
  139.5705  144.1652  152.1377 H   0  0  0  0  0  0  0  0  0  0  0  0  # atno 10167 bound_to 10162
  156.3181  130.7519  151.1610 H   0  0  0  0  0  0  0  0  0  0  0  0  # atno 10718 bound_to 10713
  153.0890  135.4869  154.8654 H   0  0  0  0  0  0  0  0  0  0  0  0  # atno 10763 bound_to 10752
  154.7246  135.3047  154.8993 H   0  0  0  0  0  0  0  0  0  0  0  0  # atno 10764 bound_to 10752
  153.9647  135.6808  153.4799 H   0  0  0  0  0  0  0  0  0  0  0  0  # atno 10765 bound_to 10752
  139.9525  134.7201  156.0828 H   0  0  0  0  0  0  0  0  0  0  0  0  # atno 11005 bound_to 11000
  145.3076  139.1829  143.4656 LP  0  0  0  0  0  0  0  0  0  0  0  0  # atno 17320 bound_to 7965
  146.3264  140.3076  142.8624 LP  0  0  0  0  0  0  0  0  0  0  0  0  # atno 17321 bound_to 7965
  140.1184  144.5395  150.6879 LP  0  0  0  0  0  0  0  0  0  0  0  0  # atno 17342 bound_to 10162
  140.6990  143.2422  151.4920 LP  0  0  0  0  0  0  0  0  0  0  0  0  # atno 17343 bound_to 10162
  157.7406  131.0515  150.5156 LP  0  0  0  0  0  0  0  0  0  0  0  0  # atno 17370 bound_to 10713
  156.5305  130.4183  149.6204 LP  0  0  0  0  0  0  0  0  0  0  0  0  # atno 17371 bound_to 10713
  141.1191  133.6618  156.3169 LP  0  0  0  0  0  0  0  0  0  0  0  0  # atno 17394 bound_to 11000
  140.5685  134.5864  157.5451 LP  0  0  0  0  0  0  0  0  0  0  0  0  # atno 17395 bound_to 11000

$$$$
