AV-unprocessed.smi:1821|AV-procd|sdf|7386|dock3
  -GOLD-   22720 9 53D 1   1.00000     0.00000
 Structure written by MMmdl.
 35 37  0  0  0  0  0  0  0  0  1 V2000
  151.7705  139.2786  155.9338 C   0  0  0  0  0  0  0  0  0  0  0  0
  152.1270  140.0672  157.1538 C   0  0  0  0  0  0  0  0  0  0  0  0
  153.1105  139.6990  157.9753 N   0  0  0  0  0  0  0  0  0  0  0  0
  153.0876  140.6898  158.9380 C   0  0  0  0  0  0  0  0  0  0  0  0
  153.8879  140.8718  160.0885 C   0  0  0  0  0  0  0  0  0  0  0  0
  153.6761  141.9778  160.9378 C   0  0  0  0  0  0  0  0  0  0  0  0
  152.6636  142.9160  160.6494 C   0  0  0  0  0  0  0  0  0  0  0  0
  151.8557  142.7542  159.5076 C   0  0  0  0  0  0  0  0  0  0  0  0
  152.0712  141.6483  158.6636 C   0  0  0  0  0  0  0  0  0  0  0  0
  151.4689  141.2039  157.4913 N   0  0  0  0  0  0  0  0  0  0  0  0
  150.3643  141.8492  156.7949 C   0  0  0  0  0  0  0  0  0  0  0  0
  148.9963  141.2313  157.1494 C   0  0  2  0  0  0  0  0  0  0  0  0
  149.0804  139.8185  157.1527 O   0  0  0  0  0  0  0  0  0  0  0  0
  147.8965  141.7483  156.2281 C   0  0  0  0  0  0  0  0  0  0  0  0
  147.9737  141.5537  154.8279 C   0  0  0  0  0  0  0  0  0  0  0  0
  149.0297  140.9067  154.2785 F   0  0  0  0  0  0  0  0  0  0  0  0
  146.9535  142.0369  153.9860 C   0  0  0  0  0  0  0  0  0  0  0  0
  145.8525  142.7230  154.5306 C   0  0  0  0  0  0  0  0  0  0  0  0
  145.7737  142.9297  155.9200 C   0  0  0  0  0  0  0  0  0  0  0  0
  146.7908  142.4474  156.7666 C   0  0  0  0  0  0  0  0  0  0  0  0
  146.6970  142.6650  158.1006 F   0  0  0  0  0  0  0  0  0  0  0  0
  152.3484  138.3547  155.8931 H   0  0  0  0  0  0  0  0  0  0  0  0
  151.9846  139.8581  155.0356 H   0  0  0  0  0  0  0  0  0  0  0  0
  150.7118  139.0195  155.9438 H   0  0  0  0  0  0  0  0  0  0  0  0
  154.6662  140.1592  160.3179 H   0  0  0  0  0  0  0  0  0  0  0  0
  154.2941  142.1070  161.8143 H   0  0  0  0  0  0  0  0  0  0  0  0
  152.5079  143.7601  161.3052 H   0  0  0  0  0  0  0  0  0  0  0  0
  151.0794  143.4706  159.2832 H   0  0  0  0  0  0  0  0  0  0  0  0
  150.3722  142.9063  157.0640 H   0  0  0  0  0  0  0  0  0  0  0  0
  150.5391  141.8115  155.7200 H   0  0  0  0  0  0  0  0  0  0  0  0
  148.7511  141.5097  158.1743 H   0  0  0  0  0  0  0  0  0  0  0  0
  148.5702  139.4890  157.8766 H   0  0  0  0  0  0  0  0  0  0  0  0
  147.0176  141.8824  152.9189 H   0  0  0  0  0  0  0  0  0  0  0  0
  145.0716  143.0933  153.8831 H   0  0  0  0  0  0  0  0  0  0  0  0
  144.9312  143.4607  156.3382 H   0  0  0  0  0  0  0  0  0  0  0  0
  1  2  1  0  0  0  0
  1 22  1  0  0  0  0
  1 23  1  0  0  0  0
  1 24  1  0  0  0  0
  2 10  1  0  0  0  0
  2  3  2  0  0  0  0
  3  4  1  0  0  0  0
  4  9  2  0  0  0  0
  4  5  1  0  0  0  0
  5  6  2  0  0  0  0
  5 25  1  0  0  0  0
  6  7  1  0  0  0  0
  6 26  1  0  0  0  0
  7  8  2  0  0  0  0
  7 27  1  0  0  0  0
  8  9  1  0  0  0  0
  8 28  1  0  0  0  0
  9 10  1  0  0  0  0
 10 11  1  0  0  0  0
 11 12  1  0  0  0  0
 11 29  1  0  0  0  0
 11 30  1  0  0  0  0
 12 13  1  0  0  0  0
 12 14  1  0  0  0  0
 12 31  1  0  0  0  0
 13 32  1  0  0  0  0
 14 20  1  0  0  0  0
 14 15  2  0  0  0  0
 15 16  1  0  0  0  0
 15 17  1  0  0  0  0
 17 18  2  0  0  0  0
 17 33  1  0  0  0  0
 18 19  1  0  0  0  0
 18 34  1  0  0  0  0
 19 20  2  0  0  0  0
 19 35  1  0  0  0  0
 20 21  1  0  0  0  0
M  END
> <s_m_source_file>
AV-unprocessed.smi

> <i_m_source_file_index>
1821

> <i_lp_mmshare_version>
43012

> <i_f3d_flags>
0

> <s_epik_input>
W2NIXTFbY0hdW2NIXVtjSF1jKGMxMiluKGMobjIpW0NIM10pW0NIMl1bQ0BIXShbT0hdKWMzYyhGKVtjSF1bY0hdW2NIXWMzRg==

> <s_epik_cmdline>
J2VwaWtfcHl0aG9uJywgJy1waCcsICc3LjAnLCAnLXRuJywgJzgnLCAnLW1hJywgJzIwMCcsICctbWV0YWxfYmluZGluZycsICctaW1hZScsICc8aW5maWxlLm1hZT4nLCAnLW9tYWUnLCAnPG91dGZpbGUubWFlPic=

> <r_epik_Ionization_Penalty>
0.129663

> <r_epik_Ionization_Penalty_Charging>
0

> <r_epik_Ionization_Penalty_Neutral>
0.129663

> <r_epik_State_Penalty>
0.119073

> <r_epik_Charging_Adjusted_Penalty>
0.119073

> <i_epik_Tot_Q>
0

> <i_epik_Tot_abs_Q>
0

> <r_epik_Metal_State_Penalty>
0.000131867

> <b_epik_Metal_Only>
0

> <s_lp_Force_Field>
OPLS_2005

> <r_lp_Energy>
13.297

> <b_lp_Chiralities_Consistent>
1

> <s_lp_Variant>
AV-unprocessed.smi:1821-1

> <Gold.Version>
5.8.1

> <Gold.Id.Protein>
6NUR|6NUR_protein|mol2

> <Gold.PLP.Fitness>
46.2139

> <Gold.PLP.PLP>
-44.0591

> <Gold.PLP.part.hbond>
-1.0000

> <Gold.PLP.part.metal>
0.0000

> <Gold.PLP.part.buried>
-4.1462

> <Gold.PLP.part.nonpolar>
-38.8903

> <Gold.PLP.part.repulsive>
0.0000

> <Gold.PLP.ligand.clash>
0.0000

> <Gold.PLP.ligand.torsion>
0.4395

> <Gold.PLP.Chemscore.Hbond>
1.0000

> <Gold.PLP.Chemscore.CHOScore>
0.0000

> <Gold.PLP.Chemscore.Metal>
0.0000

> <Gold.Chemscore.Hbonds>
donor molecule, donor type, donor heavy atom, donor atom, acceptor molecule, acceptor atom, score
      P1  H  7997  8009       L1     3  1.00

> <Gold.PLP.Chemscore.Internal.Correction>
0.0338

> <Gold.Rescore>
     Score         DG    S(hbond)    S(metal)    S(lipo)     H(rot)  DE(clash)    DE(int)     intcor
     13.15     -14.85       0.67        0.00     102.10       1.88       0.06       1.64       ----

> <Gold.Chemscore.Fitness>
13.1521

> <Gold.Chemscore.DG>
-14.8501

> <Gold.Chemscore.ZeroCoef>
-5.4800

> <Gold.Chemscore.Hbond>
0.6729

> <Gold.Chemscore.Metal>
0.0000

> <Gold.Chemscore.Lipo>
102.0973

> <Gold.Chemscore.Internal_Hbond>
0.0000

> <Gold.Chemscore.DEClash>
0.0554

> <Gold.Chemscore.DEInternal>
1.6426

> <Gold.Chemscore.Rot>
1.8839

> <Gold.Chemscore.Internal.Correction>
   9.000000E+99

> <Gold.Chemscore.Hbonds>
donor molecule, donor type, donor heavy atom, donor atom, acceptor molecule, acceptor atom, score
      P1  H  7997  8009       L1     3  0.20

> <Gold.Chemscore.Hbond.Weighted>
-2.2474

> <Gold.Chemscore.Metal.Weighted>
-0.0000

> <Gold.Chemscore.Lipo.Weighted>
-11.9454

> <Gold.Chemscore.Internal_Hbond.Weighted>
0.0000

> <Gold.Chemscore.DEClash.Weighted>
0.0554

> <Gold.Chemscore.DEInternal.Weighted>
1.6426

> <Gold.Chemscore.Rot.Weighted>
4.8227

> <Gold.Chemscore.Internal.Correction.Weighted>
   9.000000E+99

> <Gold.Protein.RotatedTorsions>
[ 6907 6896 6895 6894 ] final    6.61 input  -60.11 | X-H torsion
[ 7974 7965 7964 7962 ] final  157.26 input  175.53 | X-H torsion
[ 8008 7997 7996 7995 ] final  150.07 input   59.86 | X-H torsion
[ 10167 10162 10161 10158 ] final    3.66 input  -65.29 | X-H torsion
[ 10718 10713 10712 10709 ] final  132.22 input   66.30 | X-H torsion
[ 10763 10752 10751 10750 ] final   39.98 input  -60.55 | X-H torsion
[ 11005 11000 10999 10996 ] final  -75.34 input  -57.11 | X-H torsion

> <Gold.Protein.ActiveResidues>
 VAL166  LYS551  ARG553  GLY616  TRP617  ASP618  TYR619  PRO620  LYS621  CYS622 
 ASP623  PHE694  ASN695  SER759  ASP760  ASP761  ALA762  ILE779  LEU786  VAL792 
 PHE793  MET794  SER795  GLU796  ALA797  LYS798  CYS799  TRP800  GLU811  SER814 

> <Gold.Protein.RotatedAtoms>
  151.6765  135.0968  160.0207 H   0  0  0  0  0  0  0  0  0  0  0  0  # atno 6907 bound_to 6896
  152.3860  133.6608  159.6208 H   0  0  0  0  0  0  0  0  0  0  0  0  # atno 6908 bound_to 6896
  150.7786  133.8950  159.3366 H   0  0  0  0  0  0  0  0  0  0  0  0  # atno 6909 bound_to 6896
  144.7914  139.7316  143.6220 H   0  0  0  0  0  0  0  0  0  0  0  0  # atno 7974 bound_to 7965
  156.2730  140.2085  156.5959 H   0  0  0  0  0  0  0  0  0  0  0  0  # atno 8008 bound_to 7997
  154.6945  140.0527  157.0420 H   0  0  0  0  0  0  0  0  0  0  0  0  # atno 8009 bound_to 7997
  155.0820  140.3187  155.4602 H   0  0  0  0  0  0  0  0  0  0  0  0  # atno 8010 bound_to 7997
  140.6574  143.7391  150.7678 H   0  0  0  0  0  0  0  0  0  0  0  0  # atno 10167 bound_to 10162
  157.4892  131.1089  150.9580 H   0  0  0  0  0  0  0  0  0  0  0  0  # atno 10718 bound_to 10713
  152.9950  135.6204  154.2553 H   0  0  0  0  0  0  0  0  0  0  0  0  # atno 10763 bound_to 10752
  154.2290  135.2793  155.2898 H   0  0  0  0  0  0  0  0  0  0  0  0  # atno 10764 bound_to 10752
  154.5465  135.5746  153.6943 H   0  0  0  0  0  0  0  0  0  0  0  0  # atno 10765 bound_to 10752
  141.1644  133.6943  156.7501 H   0  0  0  0  0  0  0  0  0  0  0  0  # atno 11005 bound_to 11000
  146.2167  139.5562  142.9645 LP  0  0  0  0  0  0  0  0  0  0  0  0  # atno 17320 bound_to 7965
  145.5785  141.0385  143.2135 LP  0  0  0  0  0  0  0  0  0  0  0  0  # atno 17321 bound_to 7965
  140.1054  143.4749  152.2401 LP  0  0  0  0  0  0  0  0  0  0  0  0  # atno 17342 bound_to 10162
  139.5800  144.7506  151.3665 LP  0  0  0  0  0  0  0  0  0  0  0  0  # atno 17343 bound_to 10162
  157.0287  130.5703  149.5340 LP  0  0  0  0  0  0  0  0  0  0  0  0  # atno 17370 bound_to 10713
  156.0164  130.5258  150.8146 LP  0  0  0  0  0  0  0  0  0  0  0  0  # atno 17371 bound_to 10713
  140.2610  134.8466  157.3758 LP  0  0  0  0  0  0  0  0  0  0  0  0  # atno 17394 bound_to 11000
  140.1611  134.4727  155.7894 LP  0  0  0  0  0  0  0  0  0  0  0  0  # atno 17395 bound_to 11000

$$$$
