AV-unprocessed.smi:862|AV-procd|sdf|3982|dock5
  -GOLD-   22720 1463D 1   1.00000     0.00000
 Structure written by MMmdl.
 45 47  0  0  0  0  0  0  0  0  3 V2000
  151.9030  137.9479  154.0675 N   0  0  0  0  0  0  0  0  0  0  0  0
  150.9750  138.5846  154.7884 C   0  0  0  0  0  0  0  0  0  0  0  0
  150.8649  139.8082  154.7413 O   0  0  0  0  0  0  0  0  0  0  0  0
  150.1542  137.7824  155.5120 N   0  0  0  0  0  0  0  0  0  0  0  0
  148.7394  138.0463  155.8209 C   0  0  0  0  0  0  0  0  0  0  0  0
  147.8578  137.1598  154.9211 C   0  0  0  0  0  0  0  0  0  0  0  0
  148.2128  135.6624  155.0860 C   0  0  0  0  0  0  0  0  0  0  0  0
  147.4944  134.8087  154.1114 N   0  3  0  0  0  0  0  0  0  0  0  0
  147.6621  133.3427  154.2642 C   0  0  2  0  0  0  0  0  0  0  0  0
  148.8579  132.7663  153.4975 C   0  0  0  0  0  0  0  0  0  0  0  0
  148.5382  131.2753  153.3226 C   0  0  0  0  0  0  0  0  0  0  0  0
  147.0340  131.1088  153.6024 C   0  0  0  0  0  0  0  0  0  0  0  0
  146.4552  132.5243  153.7656 C   0  0  2  0  0  0  0  0  0  0  0  0
  145.8628  133.0293  152.5078 N   0  0  0  0  0  0  0  0  0  0  0  0
  144.5615  133.3958  152.2569 C   0  0  0  0  0  0  0  0  0  0  0  0
  144.5047  133.7802  150.9424 C   0  0  0  0  0  0  0  0  0  0  0  0
  145.7680  133.6279  150.4400 N   0  3  0  0  0  0  0  0  0  0  0  0
  146.5899  133.1702  151.3897 C   0  0  0  0  0  0  0  0  0  0  0  0
  149.7330  135.4411  154.9438 C   0  0  0  0  0  0  0  0  0  0  0  0
  150.5227  136.4025  155.8491 C   0  0  0  0  0  0  0  0  0  0  0  0
  152.5404  138.4807  153.4934 H   0  0  0  0  0  0  0  0  0  0  0  0
  151.9566  136.9403  154.0870 H   0  0  0  0  0  0  0  0  0  0  0  0
  148.5536  137.8134  156.8706 H   0  0  0  0  0  0  0  0  0  0  0  0
  148.4507  139.0904  155.7017 H   0  0  0  0  0  0  0  0  0  0  0  0
  146.8112  137.3370  155.1679 H   0  0  0  0  0  0  0  0  0  0  0  0
  147.9879  137.4605  153.8804 H   0  0  0  0  0  0  0  0  0  0  0  0
  147.9361  135.3507  156.0938 H   0  0  0  0  0  0  0  0  0  0  0  0
  146.5107  135.0293  154.1750 H   0  0  0  0  0  0  0  0  0  0  0  0
  147.7888  133.1114  155.3221 H   0  0  0  0  0  0  0  0  0  0  0  0
  148.9483  133.2417  152.5201 H   0  0  0  0  0  0  0  0  0  0  0  0
  149.8013  132.9203  154.0226 H   0  0  0  0  0  0  0  0  0  0  0  0
  148.7978  130.9394  152.3182 H   0  0  0  0  0  0  0  0  0  0  0  0
  149.1171  130.6719  154.0229 H   0  0  0  0  0  0  0  0  0  0  0  0
  146.5288  130.5300  152.8280 H   0  0  0  0  0  0  0  0  0  0  0  0
  146.9065  130.5592  154.5361 H   0  0  0  0  0  0  0  0  0  0  0  0
  145.6629  132.5188  154.5165 H   0  0  0  0  0  0  0  0  0  0  0  0
  143.7873  133.3670  153.0097 H   0  0  0  0  0  0  0  0  0  0  0  0
  143.6816  134.1418  150.3429 H   0  0  0  0  0  0  0  0  0  0  0  0
  147.6385  132.9608  151.2734 H   0  0  0  0  0  0  0  0  0  0  0  0
  149.9867  134.4096  155.1910 H   0  0  0  0  0  0  0  0  0  0  0  0
  150.0375  135.5946  153.9070 H   0  0  0  0  0  0  0  0  0  0  0  0
  151.5936  136.2195  155.7480 H   0  0  0  0  0  0  0  0  0  0  0  0
  150.2895  136.2108  156.8974 H   0  0  0  0  0  0  0  0  0  0  0  0
  147.8180  135.0583  153.1879 H   0  0  0  0  0  0  0  0  0  0  0  0
  146.0438  133.8361  149.4881 H   0  0  0  0  0  0  0  0  0  0  0  0
  1  2  1  0  0  0  0
  1 21  1  0  0  0  0
  1 22  1  0  0  0  0
  2  3  2  0  0  0  0
  2  4  1  0  0  0  0
  4 20  1  0  0  0  0
  4  5  1  0  0  0  0
  5  6  1  0  0  0  0
  5 23  1  0  0  0  0
  5 24  1  0  0  0  0
  6  7  1  0  0  0  0
  6 25  1  0  0  0  0
  6 26  1  0  0  0  0
  7  8  1  0  0  0  0
  7 19  1  0  0  0  0
  7 27  1  0  0  0  0
  8  9  1  0  0  0  0
  8 28  1  0  0  0  0
  8 44  1  0  0  0  0
  9 13  1  0  0  0  0
  9 10  1  0  0  0  0
  9 29  1  0  0  0  0
 10 11  1  0  0  0  0
 10 30  1  0  0  0  0
 10 31  1  0  0  0  0
 11 12  1  0  0  0  0
 11 32  1  0  0  0  0
 11 33  1  0  0  0  0
 12 13  1  0  0  0  0
 12 34  1  0  0  0  0
 12 35  1  0  0  0  0
 13 14  1  0  0  0  0
 13 36  1  0  0  0  0
 14 18  1  0  0  0  0
 14 15  1  0  0  0  0
 15 16  2  0  0  0  0
 15 37  1  0  0  0  0
 16 17  1  0  0  0  0
 16 38  1  0  0  0  0
 17 18  2  0  0  0  0
 17 45  1  0  0  0  0
 18 39  1  0  0  0  0
 19 20  1  0  0  0  0
 19 40  1  0  0  0  0
 19 41  1  0  0  0  0
 20 42  1  0  0  0  0
 20 43  1  0  0  0  0
M  CHG  1   8   1
M  CHG  1  17   1
M  END
> <s_m_source_file>
AV-unprocessed.smi

> <i_m_source_file_index>
862

> <i_lp_mmshare_version>
43012

> <i_f3d_flags>
0

> <s_epik_input>
W05IMl1DKD1PKU4xW0NIMl1bQ0gyXVtDSF0oW0NIMl1bQ0gyXTEpW05IXVtDQEBIXTJbQ0gyXVtDSDJdW0NIMl1bQ0BIXTJuM1tjSF1bY0hdbltjSF0z

> <s_epik_cmdline>
J2VwaWtfcHl0aG9uJywgJy1waCcsICc3LjAnLCAnLXRuJywgJzgnLCAnLW1hJywgJzIwMCcsICctbWV0YWxfYmluZGluZycsICctaW1hZScsICc8aW5maWxlLm1hZT4nLCAnLW9tYWUnLCAnPG91dGZpbGUubWFlPic=

> <r_lp_tautomer_probability>
1

> <r_epik_Ionization_Penalty>
1.30217

> <r_epik_Ionization_Penalty_Charging>
0.00439521

> <r_epik_Ionization_Penalty_Neutral>
1.29777

> <r_epik_State_Penalty>
0.977606

> <r_epik_Charging_Adjusted_Penalty>
0.982001

> <i_epik_Tot_Q>
2

> <i_epik_Tot_abs_Q>
2

> <r_epik_Metal_State_Penalty>
1.03289

> <b_epik_Metal_Only>
0

> <s_lp_Force_Field>
OPLS_2005

> <r_lp_Energy>
66.0454

> <b_lp_Chiralities_Consistent>
1

> <s_lp_Variant>
AV-unprocessed.smi:862-7

> <Gold.Version>
5.8.1

> <Gold.Id.Protein>
6NUR|6NUR_protein|mol2

> <Gold.PLP.Fitness>
39.0359

> <Gold.PLP.PLP>
-25.4636

> <Gold.PLP.part.hbond>
-3.3793

> <Gold.PLP.part.metal>
0.0000

> <Gold.PLP.part.buried>
-2.3867

> <Gold.PLP.part.nonpolar>
-20.7813

> <Gold.PLP.part.repulsive>
0.3178

> <Gold.PLP.ligand.clash>
0.6267

> <Gold.PLP.ligand.torsion>
0.6608

> <Gold.PLP.Chemscore.Hbond>
3.8000

> <Gold.PLP.Chemscore.CHOScore>
1.3463

> <Gold.PLP.Chemscore.Metal>
0.0000

> <Gold.Chemscore.Hbonds>
donor molecule, donor type, donor heavy atom, donor atom, acceptor molecule, acceptor atom, score
      L1  H     8    44       P1  7948  1.76
      L1  H    17    45       P1  7921  0.65
      P1  H  7989  7998       L1     3  1.00
      L1  C    15    37       P1 10957  0.74
      L1  C    18    39       P1 10747  0.63

> <Gold.PLP.Chemscore.Internal.Correction>
0.0817

> <Gold.Rescore>
     Score         DG    S(hbond)    S(metal)    S(lipo)     H(rot)  DE(clash)    DE(int)     intcor
     14.39     -16.76       2.88        0.00      51.08       1.68       1.66       0.72       ----

> <Gold.Chemscore.Fitness>
14.3921

> <Gold.Chemscore.DG>
-16.7636

> <Gold.Chemscore.ZeroCoef>
-5.4800

> <Gold.Chemscore.Hbond>
2.8778

> <Gold.Chemscore.Metal>
0.0000

> <Gold.Chemscore.Lipo>
51.0771

> <Gold.Chemscore.Internal_Hbond>
0.0000

> <Gold.Chemscore.DEClash>
1.6551

> <Gold.Chemscore.DEInternal>
0.7164

> <Gold.Chemscore.Rot>
1.6814

> <Gold.Chemscore.Internal.Correction>
   9.000000E+99

> <Gold.Chemscore.Hbonds>
donor molecule, donor type, donor heavy atom, donor atom, acceptor molecule, acceptor atom, score
      L1  H     8    44       P1  7948  0.83
      L1  H    17    45       P1  7921  0.08
      P1  H  7989  7998       L1     3  1.00

> <Gold.Chemscore.Hbond.Weighted>
-9.6119

> <Gold.Chemscore.Metal.Weighted>
-0.0000

> <Gold.Chemscore.Lipo.Weighted>
-5.9760

> <Gold.Chemscore.Internal_Hbond.Weighted>
0.0000

> <Gold.Chemscore.DEClash.Weighted>
1.6551

> <Gold.Chemscore.DEInternal.Weighted>
0.7164

> <Gold.Chemscore.Rot.Weighted>
4.3043

> <Gold.Chemscore.Internal.Correction.Weighted>
   9.000000E+99

> <Gold.Protein.RotatedTorsions>
[ 6907 6896 6895 6894 ] final   15.08 input  -60.11 | X-H torsion
[ 7974 7965 7964 7962 ] final  159.84 input  175.53 | X-H torsion
[ 8008 7997 7996 7995 ] final  140.42 input   59.86 | X-H torsion
[ 10167 10162 10161 10158 ] final  176.29 input  -65.29 | X-H torsion
[ 10718 10713 10712 10709 ] final  -15.55 input   66.30 | X-H torsion
[ 10763 10752 10751 10750 ] final    5.49 input  -60.55 | X-H torsion
[ 11005 11000 10999 10996 ] final  -41.59 input  -57.11 | X-H torsion

> <Gold.Protein.ActiveResidues>
 VAL166  LYS551  ARG553  GLY616  TRP617  ASP618  TYR619  PRO620  LYS621  CYS622 
 ASP623  PHE694  ASN695  SER759  ASP760  ASP761  ALA762  ILE779  LEU786  VAL792 
 PHE793  MET794  SER795  GLU796  ALA797  LYS798  CYS799  TRP800  GLU811  SER814 

> <Gold.Protein.RotatedAtoms>
  151.8124  135.0676  160.0414 H   0  0  0  0  0  0  0  0  0  0  0  0  # atno 6907 bound_to 6896
  152.3010  133.5651  159.5627 H   0  0  0  0  0  0  0  0  0  0  0  0  # atno 6908 bound_to 6896
  150.7274  134.0207  159.3742 H   0  0  0  0  0  0  0  0  0  0  0  0  # atno 6909 bound_to 6896
  144.7768  139.7674  143.6275 H   0  0  0  0  0  0  0  0  0  0  0  0  # atno 7974 bound_to 7965
  156.2979  140.2342  156.4398 H   0  0  0  0  0  0  0  0  0  0  0  0  # atno 8008 bound_to 7997
  154.8196  140.0438  157.1422 H   0  0  0  0  0  0  0  0  0  0  0  0  # atno 8009 bound_to 7997
  154.9330  140.3019  155.5162 H   0  0  0  0  0  0  0  0  0  0  0  0  # atno 8010 bound_to 7997
  139.5209  144.2932  152.0445 H   0  0  0  0  0  0  0  0  0  0  0  0  # atno 10167 bound_to 10162
  156.6002  130.4822  149.6243 H   0  0  0  0  0  0  0  0  0  0  0  0  # atno 10718 bound_to 10713
  153.2588  135.6921  153.7600 H   0  0  0  0  0  0  0  0  0  0  0  0  # atno 10763 bound_to 10752
  153.6667  135.3351  155.3143 H   0  0  0  0  0  0  0  0  0  0  0  0  # atno 10764 bound_to 10752
  154.8422  135.4490  154.1571 H   0  0  0  0  0  0  0  0  0  0  0  0  # atno 10765 bound_to 10752
  141.0256  133.6843  156.2478 H   0  0  0  0  0  0  0  0  0  0  0  0  # atno 11005 bound_to 11000
  146.1953  139.5216  142.9778 LP  0  0  0  0  0  0  0  0  0  0  0  0  # atno 17320 bound_to 7965
  145.6162  141.0331  143.1940 LP  0  0  0  0  0  0  0  0  0  0  0  0  # atno 17321 bound_to 7965
  140.2382  144.4297  150.6271 LP  0  0  0  0  0  0  0  0  0  0  0  0  # atno 17342 bound_to 10162
  140.6309  143.2187  151.6498 LP  0  0  0  0  0  0  0  0  0  0  0  0  # atno 17343 bound_to 10162
  156.2475  130.6888  151.1614 LP  0  0  0  0  0  0  0  0  0  0  0  0  # atno 17370 bound_to 10713
  157.7281  131.0634  150.5833 LP  0  0  0  0  0  0  0  0  0  0  0  0  # atno 17371 bound_to 10713
  140.6497  134.5080  157.5576 LP  0  0  0  0  0  0  0  0  0  0  0  0  # atno 17394 bound_to 11000
  139.9174  134.8218  156.1322 LP  0  0  0  0  0  0  0  0  0  0  0  0  # atno 17395 bound_to 11000

$$$$
