AV-unprocessed.smi:1720|AV-procd|sdf|6934|dock4
  -GOLD-   22720 8143D 1   1.00000     0.00000
 Structure written by MMmdl.
 32 33  0  0  0  0  0  0  0  0  1 V2000
  153.0815  140.8404  160.1880 C   0  0  0  0  0  0  0  0  0  0  0  0
  152.9931  141.9124  159.0909 C   0  0  1  0  0  0  0  0  0  0  0  0
  152.1914  141.3833  157.9894 N   0  0  0  0  0  0  0  0  0  0  0  0
  152.4023  140.2189  157.3586 C   0  0  0  0  0  0  0  0  0  0  0  0
  153.3124  139.4407  157.6448 O   0  0  0  0  0  0  0  0  0  0  0  0
  151.4978  140.0228  156.3855 N   0  0  0  0  0  0  0  0  0  0  0  0
  151.4083  138.9166  155.5030 C   0  0  0  0  0  0  0  0  0  0  0  0
  151.7924  137.5876  155.8295 C   0  0  0  0  0  0  0  0  0  0  0  0
  151.5968  136.7633  154.8100 N   0  0  0  0  0  0  0  0  0  0  0  0
  151.0921  137.5539  153.8359 N   0  0  0  0  0  0  0  0  0  0  0  0
  150.9598  138.8721  154.2126 C   0  0  0  0  0  0  0  0  0  0  0  0
  152.3740  143.2280  159.6075 C   0  0  1  0  0  0  0  0  0  0  0  0
  152.4306  144.3933  158.6189 C   0  0  0  0  0  0  0  0  0  0  0  0
  151.2862  145.2924  159.0587 C   0  0  0  0  0  0  0  0  0  0  0  0
  150.4279  144.3930  159.9520 C   0  0  0  0  0  0  0  0  0  0  0  0
  150.9750  143.0902  159.8053 O   0  0  0  0  0  0  0  0  0  0  0  0
  150.8451  137.1831  152.9293 H   0  0  0  0  0  0  0  0  0  0  0  0
  153.7240  141.1620  161.0077 H   0  0  0  0  0  0  0  0  0  0  0  0
  153.4985  139.9122  159.7959 H   0  0  0  0  0  0  0  0  0  0  0  0
  152.0989  140.6152  160.6038 H   0  0  0  0  0  0  0  0  0  0  0  0
  154.0080  142.1126  158.7427 H   0  0  0  0  0  0  0  0  0  0  0  0
  151.4198  141.9549  157.6790 H   0  0  0  0  0  0  0  0  0  0  0  0
  150.8030  140.7437  156.2583 H   0  0  0  0  0  0  0  0  0  0  0  0
  152.1977  137.2013  156.7531 H   0  0  0  0  0  0  0  0  0  0  0  0
  150.5711  139.6280  153.5463 H   0  0  0  0  0  0  0  0  0  0  0  0
  152.8355  143.5215  160.5526 H   0  0  0  0  0  0  0  0  0  0  0  0
  153.3937  144.9047  158.6231 H   0  0  0  0  0  0  0  0  0  0  0  0
  152.2437  144.0363  157.6051 H   0  0  0  0  0  0  0  0  0  0  0  0
  151.6501  146.1531  159.6207 H   0  0  0  0  0  0  0  0  0  0  0  0
  150.7277  145.6638  158.1990 H   0  0  0  0  0  0  0  0  0  0  0  0
  150.5072  144.7005  160.9957 H   0  0  0  0  0  0  0  0  0  0  0  0
  149.3743  144.4078  159.6723 H   0  0  0  0  0  0  0  0  0  0  0  0
  1  2  1  0  0  0  0
  1 18  1  0  0  0  0
  1 19  1  0  0  0  0
  1 20  1  0  0  0  0
  2  3  1  0  0  0  0
  2 12  1  0  0  0  0
  2 21  1  0  0  0  0
  3  4  1  0  0  0  0
  3 22  1  0  0  0  0
  4  5  2  0  0  0  0
  4  6  1  0  0  0  0
  6  7  1  0  0  0  0
  6 23  1  0  0  0  0
  7 11  2  0  0  0  0
  7  8  1  0  0  0  0
  8  9  2  0  0  0  0
  8 24  1  0  0  0  0
  9 10  1  0  0  0  0
 10 17  1  0  0  0  0
 10 11  1  0  0  0  0
 11 25  1  0  0  0  0
 12 16  1  0  0  0  0
 12 13  1  0  0  0  0
 12 26  1  0  0  0  0
 13 14  1  0  0  0  0
 13 27  1  0  0  0  0
 13 28  1  0  0  0  0
 14 15  1  0  0  0  0
 14 29  1  0  0  0  0
 14 30  1  0  0  0  0
 15 16  1  0  0  0  0
 15 31  1  0  0  0  0
 15 32  1  0  0  0  0
M  END
> <s_m_source_file>
AV-unprocessed.smi

> <i_m_source_file_index>
1720

> <i_lp_mmshare_version>
43012

> <i_f3d_flags>
0

> <s_epik_input>
TzFbQ0gyXVtDSDJdW0NIMl1bQ0BIXTFbQ0BIXShbQ0gzXSlbTkhdQyg9TylbTkhdYzJbY0hdbltuSF1bY0hdMg==

> <s_epik_cmdline>
J2VwaWtfcHl0aG9uJywgJy1waCcsICc3LjAnLCAnLXRuJywgJzgnLCAnLW1hJywgJzIwMCcsICctbWV0YWxfYmluZGluZycsICctaW1hZScsICc8aW5maWxlLm1hZT4nLCAnLW9tYWUnLCAnPG91dGZpbGUubWFlPic=

> <r_lp_tautomer_probability>
1

> <r_epik_Ionization_Penalty>
4.95841e-05

> <r_epik_Ionization_Penalty_Charging>
0

> <r_epik_Ionization_Penalty_Neutral>
4.95841e-05

> <r_epik_State_Penalty>
-0

> <r_epik_Charging_Adjusted_Penalty>
0

> <i_epik_Tot_Q>
0

> <i_epik_Tot_abs_Q>
0

> <r_epik_Metal_State_Penalty>
-0

> <b_epik_Metal_Only>
0

> <s_lp_Force_Field>
OPLS_2005

> <r_lp_Energy>
20.531

> <b_lp_Chiralities_Consistent>
1

> <s_lp_Variant>
AV-unprocessed.smi:1720-4

> <Gold.Version>
5.8.1

> <Gold.Id.Protein>
6NUR|6NUR_protein|mol2

> <Gold.PLP.Fitness>
42.9598

> <Gold.PLP.PLP>
-33.0470

> <Gold.PLP.part.hbond>
-4.4689

> <Gold.PLP.part.metal>
0.0000

> <Gold.PLP.part.buried>
-2.8160

> <Gold.PLP.part.nonpolar>
-24.8091

> <Gold.PLP.part.repulsive>
0.4669

> <Gold.PLP.ligand.clash>
0.0000

> <Gold.PLP.ligand.torsion>
0.3460

> <Gold.PLP.Chemscore.Hbond>
2.8000

> <Gold.PLP.Chemscore.CHOScore>
0.7273

> <Gold.PLP.Chemscore.Metal>
0.0000

> <Gold.Chemscore.Hbonds>
donor molecule, donor type, donor heavy atom, donor atom, acceptor molecule, acceptor atom, score
      L1  H    10    17       P1  7949  0.80
      P1  H  7997  8009       L1     5  0.98
      P1  H 10752 10764       L1     9  1.00
      L1  C    11    25       P1  7957  0.84

> <Gold.PLP.Chemscore.Internal.Correction>
0.0229

> <Gold.Rescore>
     Score         DG    S(hbond)    S(metal)    S(lipo)     H(rot)  DE(clash)    DE(int)     intcor
     17.05     -19.64       2.48        0.00      78.90       1.31       0.11       2.48       ----

> <Gold.Chemscore.Fitness>
17.0496

> <Gold.Chemscore.DG>
-19.6373

> <Gold.Chemscore.ZeroCoef>
-5.4800

> <Gold.Chemscore.Hbond>
2.4775

> <Gold.Chemscore.Metal>
0.0000

> <Gold.Chemscore.Lipo>
78.8955

> <Gold.Chemscore.Internal_Hbond>
0.0000

> <Gold.Chemscore.DEClash>
0.1064

> <Gold.Chemscore.DEInternal>
2.4813

> <Gold.Chemscore.Rot>
1.3079

> <Gold.Chemscore.Internal.Correction>
   9.000000E+99

> <Gold.Chemscore.Hbonds>
donor molecule, donor type, donor heavy atom, donor atom, acceptor molecule, acceptor atom, score
      L1  H    10    17       P1  7949  0.11
      P1  H  7997  8009       L1     5  0.32
      P1  H 10752 10764       L1     9  0.86

> <Gold.Chemscore.Hbond.Weighted>
-8.2748

> <Gold.Chemscore.Metal.Weighted>
-0.0000

> <Gold.Chemscore.Lipo.Weighted>
-9.2308

> <Gold.Chemscore.Internal_Hbond.Weighted>
0.0000

> <Gold.Chemscore.DEClash.Weighted>
0.1064

> <Gold.Chemscore.DEInternal.Weighted>
2.4813

> <Gold.Chemscore.Rot.Weighted>
3.3483

> <Gold.Chemscore.Internal.Correction.Weighted>
   9.000000E+99

> <Gold.Protein.RotatedTorsions>
[ 6907 6896 6895 6894 ] final   92.50 input  -60.11 | X-H torsion
[ 7974 7965 7964 7962 ] final  -76.48 input  175.53 | X-H torsion
[ 8008 7997 7996 7995 ] final  163.55 input   59.86 | X-H torsion
[ 10167 10162 10161 10158 ] final -122.58 input  -65.29 | X-H torsion
[ 10718 10713 10712 10709 ] final  -10.30 input   66.30 | X-H torsion
[ 10763 10752 10751 10750 ] final  -78.91 input  -60.55 | X-H torsion
[ 11005 11000 10999 10996 ] final  -62.86 input  -57.11 | X-H torsion

> <Gold.Protein.ActiveResidues>
 VAL166  LYS551  ARG553  GLY616  TRP617  ASP618  TYR619  PRO620  LYS621  CYS622 
 ASP623  PHE694  ASN695  SER759  ASP760  ASP761  ALA762  ILE779  LEU786  VAL792 
 PHE793  MET794  SER795  GLU796  ALA797  LYS798  CYS799  TRP800  GLU811  SER814 

> <Gold.Protein.RotatedAtoms>
  152.5452  134.1493  159.8511 H   0  0  0  0  0  0  0  0  0  0  0  0  # atno 6907 bound_to 6896
  151.1521  133.4893  159.2602 H   0  0  0  0  0  0  0  0  0  0  0  0  # atno 6908 bound_to 6896
  151.1461  135.0214  159.8702 H   0  0  0  0  0  0  0  0  0  0  0  0  # atno 6909 bound_to 6896
  145.6123  140.9383  143.1183 H   0  0  0  0  0  0  0  0  0  0  0  0  # atno 7974 bound_to 7965
  156.1948  140.1720  156.8020 H   0  0  0  0  0  0  0  0  0  0  0  0  # atno 8008 bound_to 7997
  154.5516  140.0716  156.8708 H   0  0  0  0  0  0  0  0  0  0  0  0  # atno 8009 bound_to 7997
  155.3018  140.3362  155.4250 H   0  0  0  0  0  0  0  0  0  0  0  0  # atno 8010 bound_to 7997
  140.0127  143.5425  152.2256 H   0  0  0  0  0  0  0  0  0  0  0  0  # atno 10167 bound_to 10162
  156.6755  130.5021  149.5987 H   0  0  0  0  0  0  0  0  0  0  0  0  # atno 10718 bound_to 10713
  154.5319  135.5713  153.6766 H   0  0  0  0  0  0  0  0  0  0  0  0  # atno 10763 bound_to 10752
  152.9941  135.6207  154.2617 H   0  0  0  0  0  0  0  0  0  0  0  0  # atno 10764 bound_to 10752
  154.2544  135.2858  155.2783 H   0  0  0  0  0  0  0  0  0  0  0  0  # atno 10765 bound_to 10752
  141.1374  133.6645  156.5591 H   0  0  0  0  0  0  0  0  0  0  0  0  # atno 11005 bound_to 11000
  144.7265  139.7860  143.7363 LP  0  0  0  0  0  0  0  0  0  0  0  0  # atno 17320 bound_to 7965
  146.1495  139.4574  143.0058 LP  0  0  0  0  0  0  0  0  0  0  0  0  # atno 17321 bound_to 7965
  139.6194  144.7626  151.2775 LP  0  0  0  0  0  0  0  0  0  0  0  0  # atno 17342 bound_to 10162
  140.7375  143.6677  150.8109 LP  0  0  0  0  0  0  0  0  0  0  0  0  # atno 17343 bound_to 10162
  156.1907  130.6558  151.1058 LP  0  0  0  0  0  0  0  0  0  0  0  0  # atno 17370 bound_to 10713
  157.7062  131.0755  150.6658 LP  0  0  0  0  0  0  0  0  0  0  0  0  # atno 17371 bound_to 10713
  140.4002  134.7363  157.4775 LP  0  0  0  0  0  0  0  0  0  0  0  0  # atno 17394 bound_to 11000
  140.0501  134.6142  155.8872 LP  0  0  0  0  0  0  0  0  0  0  0  0  # atno 17395 bound_to 11000

$$$$
