AV-unprocessed.smi:3056|AV-procd|sdf|11657|dock4
  -GOLD-   2272017 63D 1   1.00000     0.00000
 Structure written by MMmdl.
 47 48  0  0  0  0  0  0  0  0  1 V2000
  144.4158  134.0230  150.6050 C   0  0  0  0  0  0  0  0  0  0  0  0
  145.4008  133.3135  151.4885 C   0  0  0  0  0  0  0  0  0  0  0  0
  145.4895  131.9181  151.7553 C   0  0  0  0  0  0  0  0  0  0  0  0
  146.4769  131.6146  152.5812 N   0  0  0  0  0  0  0  0  0  0  0  0
  147.0518  132.8024  152.8759 N   0  0  0  0  0  0  0  0  0  0  0  0
  148.1986  132.8634  153.7741 C   0  0  2  0  0  0  0  0  0  0  0  0
  148.6443  131.4367  154.1518 C   0  0  0  0  0  0  0  0  0  0  0  0
  147.9257  133.7529  155.0180 C   0  0  2  0  0  0  0  0  0  0  0  0
  146.6287  133.3723  155.7651 C   0  0  0  0  0  0  0  0  0  0  0  0
  147.8261  135.1397  154.5705 N   0  0  0  0  0  0  0  0  0  0  0  0
  148.6637  136.0504  155.3629 C   0  0  0  0  0  0  0  0  0  0  0  0
  148.3764  137.5174  155.0234 C   0  0  0  0  0  0  0  0  0  0  0  0
  147.2569  137.9567  155.2877 O   0  0  0  0  0  0  0  0  0  0  0  0
  149.3398  138.2800  154.4506 N   0  0  0  0  0  0  0  0  0  0  0  0
  149.2350  139.7017  154.1090 C   0  0  0  0  0  0  0  0  0  0  0  0
  150.2354  140.4794  154.9812 C   0  0  0  0  0  0  0  0  0  0  0  0
  151.5519  139.9772  154.7619 O   0  0  0  0  0  0  0  0  0  0  0  0
  151.6849  138.5863  155.0526 C   0  0  2  0  0  0  0  0  0  0  0  0
  153.1401  138.1795  154.7955 C   0  0  0  0  0  0  0  0  0  0  0  0
  150.6938  137.7896  154.1798 C   0  0  0  0  0  0  0  0  0  0  0  0
  146.4203  133.8434  152.2274 C   0  0  0  0  0  0  0  0  0  0  0  0
  143.9331  133.3395  149.9062 H   0  0  0  0  0  0  0  0  0  0  0  0
  144.8941  134.8025  150.0115 H   0  0  0  0  0  0  0  0  0  0  0  0
  143.6262  134.4990  151.1864 H   0  0  0  0  0  0  0  0  0  0  0  0
  144.8693  131.1207  151.3733 H   0  0  0  0  0  0  0  0  0  0  0  0
  149.0096  133.3206  153.2041 H   0  0  0  0  0  0  0  0  0  0  0  0
  149.5737  131.4434  154.7212 H   0  0  0  0  0  0  0  0  0  0  0  0
  148.8166  130.8332  153.2601 H   0  0  0  0  0  0  0  0  0  0  0  0
  147.8916  130.9284  154.7555 H   0  0  0  0  0  0  0  0  0  0  0  0
  148.7712  133.6470  155.7005 H   0  0  0  0  0  0  0  0  0  0  0  0
  146.6724  132.3549  156.1536 H   0  0  0  0  0  0  0  0  0  0  0  0
  145.7614  133.4370  155.1073 H   0  0  0  0  0  0  0  0  0  0  0  0
  146.4422  134.0193  156.6214 H   0  0  0  0  0  0  0  0  0  0  0  0
  148.0896  135.1791  153.5960 H   0  0  0  0  0  0  0  0  0  0  0  0
  148.5321  135.8883  156.4321 H   0  0  0  0  0  0  0  0  0  0  0  0
  149.7141  135.8423  155.1525 H   0  0  0  0  0  0  0  0  0  0  0  0
  149.4772  139.8359  153.0540 H   0  0  0  0  0  0  0  0  0  0  0  0
  148.2370  140.1161  154.2356 H   0  0  0  0  0  0  0  0  0  0  0  0
  150.2147  141.5389  154.7266 H   0  0  0  0  0  0  0  0  0  0  0  0
  149.9753  140.3987  156.0378 H   0  0  0  0  0  0  0  0  0  0  0  0
  151.4581  138.4227  156.1077 H   0  0  0  0  0  0  0  0  0  0  0  0
  153.2975  137.1237  155.0174 H   0  0  0  0  0  0  0  0  0  0  0  0
  153.8221  138.7552  155.4214 H   0  0  0  0  0  0  0  0  0  0  0  0
  153.4195  138.3485  153.7554 H   0  0  0  0  0  0  0  0  0  0  0  0
  150.8036  136.7222  154.3754 H   0  0  0  0  0  0  0  0  0  0  0  0
  150.9221  137.9271  153.1217 H   0  0  0  0  0  0  0  0  0  0  0  0
  146.7455  134.8669  152.3442 H   0  0  0  0  0  0  0  0  0  0  0  0
  1  2  1  0  0  0  0
  1 22  1  0  0  0  0
  1 23  1  0  0  0  0
  1 24  1  0  0  0  0
  2 21  2  0  0  0  0
  2  3  1  0  0  0  0
  3  4  2  0  0  0  0
  3 25  1  0  0  0  0
  4  5  1  0  0  0  0
  5  6  1  0  0  0  0
  5 21  1  0  0  0  0
  6  7  1  0  0  0  0
  6  8  1  0  0  0  0
  6 26  1  0  0  0  0
  7 27  1  0  0  0  0
  7 28  1  0  0  0  0
  7 29  1  0  0  0  0
  8  9  1  0  0  0  0
  8 10  1  0  0  0  0
  8 30  1  0  0  0  0
  9 31  1  0  0  0  0
  9 32  1  0  0  0  0
  9 33  1  0  0  0  0
 10 11  1  0  0  0  0
 10 34  1  0  0  0  0
 11 12  1  0  0  0  0
 11 35  1  0  0  0  0
 11 36  1  0  0  0  0
 12 13  2  0  0  0  0
 12 14  1  0  0  0  0
 14 20  1  0  0  0  0
 14 15  1  0  0  0  0
 15 16  1  0  0  0  0
 15 37  1  0  0  0  0
 15 38  1  0  0  0  0
 16 17  1  0  0  0  0
 16 39  1  0  0  0  0
 16 40  1  0  0  0  0
 17 18  1  0  0  0  0
 18 19  1  0  0  0  0
 18 20  1  0  0  0  0
 18 41  1  0  0  0  0
 19 42  1  0  0  0  0
 19 43  1  0  0  0  0
 19 44  1  0  0  0  0
 20 45  1  0  0  0  0
 20 46  1  0  0  0  0
 21 47  1  0  0  0  0
M  END
> <s_m_source_file>
AV-unprocessed.smi

> <i_m_source_file_index>
3056

> <i_lp_mmshare_version>
43012

> <i_f3d_flags>
0

> <s_epik_input>
W0NIM11jMVtjSF1ubihbY0hdMSlbQ0BIXShbQ0gzXSlbQ0BIXShbQ0gzXSlbTkhdW0NIMl1DKD1PKU4yW0NIMl1bQ0gyXU9bQ0BASF0oW0NIM10pW0NIMl0y

> <s_epik_cmdline>
J2VwaWtfcHl0aG9uJywgJy1waCcsICc3LjAnLCAnLXRuJywgJzgnLCAnLW1hJywgJzIwMCcsICctbWV0YWxfYmluZGluZycsICctaW1hZScsICc8aW5maWxlLm1hZT4nLCAnLW9tYWUnLCAnPG91dGZpbGUubWFlPic=

> <r_lp_tautomer_probability>
1

> <r_epik_Ionization_Penalty>
0.667689

> <r_epik_Ionization_Penalty_Charging>
0

> <r_epik_Ionization_Penalty_Neutral>
0.667689

> <r_epik_State_Penalty>
0.684601

> <r_epik_Charging_Adjusted_Penalty>
0.684601

> <i_epik_Tot_Q>
0

> <i_epik_Tot_abs_Q>
0

> <r_epik_Metal_State_Penalty>
0.681448

> <b_epik_Metal_Only>
0

> <s_lp_Force_Field>
OPLS_2005

> <r_lp_Energy>
28.8183

> <b_lp_Chiralities_Consistent>
1

> <s_lp_Variant>
AV-unprocessed.smi:3056-13

> <Gold.Version>
5.8.1

> <Gold.Id.Protein>
6NUR|6NUR_protein|mol2

> <Gold.PLP.Fitness>
44.5075

> <Gold.PLP.PLP>
-37.3868

> <Gold.PLP.part.hbond>
-1.9186

> <Gold.PLP.part.metal>
0.0000

> <Gold.PLP.part.buried>
-3.7023

> <Gold.PLP.part.nonpolar>
-32.2303

> <Gold.PLP.part.repulsive>
0.4298

> <Gold.PLP.ligand.clash>
0.0000

> <Gold.PLP.ligand.torsion>
0.8693

> <Gold.PLP.Chemscore.Hbond>
2.0000

> <Gold.PLP.Chemscore.CHOScore>
0.9094

> <Gold.PLP.Chemscore.Metal>
0.0000

> <Gold.Chemscore.Hbonds>
donor molecule, donor type, donor heavy atom, donor atom, acceptor molecule, acceptor atom, score
      L1  H    10    34       P1  7948  0.62
      P1  H  7989  7998       L1    17  0.45
      L1  C    21    47       P1  7948  0.81

> <Gold.PLP.Chemscore.Internal.Correction>
0.1310

> <Gold.Rescore>
     Score         DG    S(hbond)    S(metal)    S(lipo)     H(rot)  DE(clash)    DE(int)     intcor
     14.92     -16.22       1.54        0.00      84.59       1.68       0.32       0.99       ----

> <Gold.Chemscore.Fitness>
14.9222

> <Gold.Chemscore.DG>
-16.2248

> <Gold.Chemscore.ZeroCoef>
-5.4800

> <Gold.Chemscore.Hbond>
1.5409

> <Gold.Chemscore.Metal>
0.0000

> <Gold.Chemscore.Lipo>
84.5910

> <Gold.Chemscore.Internal_Hbond>
0.0000

> <Gold.Chemscore.DEClash>
0.3154

> <Gold.Chemscore.DEInternal>
0.9872

> <Gold.Chemscore.Rot>
1.6793

> <Gold.Chemscore.Internal.Correction>
   9.000000E+99

> <Gold.Chemscore.Hbonds>
donor molecule, donor type, donor heavy atom, donor atom, acceptor molecule, acceptor atom, score
      L1  H    10    34       P1  7948  0.58
      P1  H  7989  7998       L1    17  0.01

> <Gold.Chemscore.Hbond.Weighted>
-5.1468

> <Gold.Chemscore.Metal.Weighted>
-0.0000

> <Gold.Chemscore.Lipo.Weighted>
-9.8971

> <Gold.Chemscore.Internal_Hbond.Weighted>
0.0000

> <Gold.Chemscore.DEClash.Weighted>
0.3154

> <Gold.Chemscore.DEInternal.Weighted>
0.9872

> <Gold.Chemscore.Rot.Weighted>
4.2990

> <Gold.Chemscore.Internal.Correction.Weighted>
   9.000000E+99

> <Gold.Protein.RotatedTorsions>
[ 6907 6896 6895 6894 ] final -156.96 input  -60.11 | X-H torsion
[ 7974 7965 7964 7962 ] final  -72.05 input  175.53 | X-H torsion
[ 8008 7997 7996 7995 ] final -178.53 input   59.86 | X-H torsion
[ 10167 10162 10161 10158 ] final  -98.94 input  -65.29 | X-H torsion
[ 10718 10713 10712 10709 ] final   60.76 input   66.30 | X-H torsion
[ 10763 10752 10751 10750 ] final   28.22 input  -60.55 | X-H torsion
[ 11005 11000 10999 10996 ] final  142.25 input  -57.11 | X-H torsion

> <Gold.Protein.ActiveResidues>
 VAL166  LYS551  ARG553  GLY616  TRP617  ASP618  TYR619  PRO620  LYS621  CYS622 
 ASP623  PHE694  ASN695  SER759  ASP760  ASP761  ALA762  ILE779  LEU786  VAL792 
 PHE793  MET794  SER795  GLU796  ALA797  LYS798  CYS799  TRP800  GLU811  SER814 

> <Gold.Protein.RotatedAtoms>
  151.2956  133.4145  159.2635 H   0  0  0  0  0  0  0  0  0  0  0  0  # atno 6907 bound_to 6896
  151.0239  134.9490  159.8085 H   0  0  0  0  0  0  0  0  0  0  0  0  # atno 6908 bound_to 6896
  152.5330  134.2919  159.9099 H   0  0  0  0  0  0  0  0  0  0  0  0  # atno 6909 bound_to 6896
  145.6701  140.9224  143.0887 H   0  0  0  0  0  0  0  0  0  0  0  0  # atno 7974 bound_to 7965
  156.0199  140.1259  157.0368 H   0  0  0  0  0  0  0  0  0  0  0  0  # atno 8008 bound_to 7997
  154.4307  140.1070  156.6019 H   0  0  0  0  0  0  0  0  0  0  0  0  # atno 8009 bound_to 7997
  155.5959  140.3470  155.4582 H   0  0  0  0  0  0  0  0  0  0  0  0  # atno 8010 bound_to 7997
  140.2677  143.3365  152.0565 H   0  0  0  0  0  0  0  0  0  0  0  0  # atno 10167 bound_to 10162
  157.5777  130.8957  149.9376 H   0  0  0  0  0  0  0  0  0  0  0  0  # atno 10718 bound_to 10713
  153.0506  135.6518  154.0705 H   0  0  0  0  0  0  0  0  0  0  0  0  # atno 10763 bound_to 10752
  154.0394  135.2905  155.3359 H   0  0  0  0  0  0  0  0  0  0  0  0  # atno 10764 bound_to 10752
  154.6791  135.5327  153.8306 H   0  0  0  0  0  0  0  0  0  0  0  0  # atno 10765 bound_to 10752
  140.0462  134.9279  157.0935 H   0  0  0  0  0  0  0  0  0  0  0  0  # atno 11005 bound_to 11000
  144.7060  139.8561  143.7430 LP  0  0  0  0  0  0  0  0  0  0  0  0  # atno 17320 bound_to 7965
  146.1053  139.4052  143.0322 LP  0  0  0  0  0  0  0  0  0  0  0  0  # atno 17321 bound_to 7965
  139.4998  144.6677  151.6317 LP  0  0  0  0  0  0  0  0  0  0  0  0  # atno 17342 bound_to 10162
  140.5915  143.9772  150.6327 LP  0  0  0  0  0  0  0  0  0  0  0  0  # atno 17343 bound_to 10162
  156.0822  130.3672  150.0558 LP  0  0  0  0  0  0  0  0  0  0  0  0  # atno 17370 bound_to 10713
  156.8702  130.9521  151.3610 LP  0  0  0  0  0  0  0  0  0  0  0  0  # atno 17371 bound_to 10713
  140.3989  134.2104  155.7164 LP  0  0  0  0  0  0  0  0  0  0  0  0  # atno 17394 bound_to 11000
  141.1908  133.8208  157.0903 LP  0  0  0  0  0  0  0  0  0  0  0  0  # atno 17395 bound_to 11000

$$$$
