AV-unprocessed.smi:1213|AV-procd|sdf|5087|dock2
  -GOLD-   22720 4133D 1   1.00000     0.00000
 Structure written by MMmdl.
 35 36  0  0  0  0  0  0  0  0  2 V2000
  145.0746  138.3681  153.1378 N   0  0  0  0  0  0  0  0  0  0  0  0
  146.2451  138.4405  153.7767 C   0  0  0  0  0  0  0  0  0  0  0  0
  146.6968  137.5035  154.4311 O   0  0  0  0  0  0  0  0  0  0  0  0
  147.0166  139.7612  153.6728 C   0  0  0  0  0  0  0  0  0  0  0  0
  148.1980  139.8611  154.5608 N   0  0  0  0  0  0  0  0  0  0  0  0
  148.8750  141.1622  154.4506 C   0  0  0  0  0  0  0  0  0  0  0  0
  150.0543  141.2453  155.4361 C   0  0  0  0  0  0  0  0  0  0  0  0
  151.0637  140.1147  155.1935 C   0  0  0  0  0  0  0  0  0  0  0  0
  152.1101  140.1544  156.2116 N   0  0  0  0  0  0  0  0  0  0  0  0
  151.9220  140.1103  157.5387 C   0  0  0  0  0  0  0  0  0  0  0  0
  150.7798  140.0302  157.9971 O   0  0  0  0  0  0  0  0  0  0  0  0
  153.0701  140.1615  158.2522 N   0  5  0  0  0  0  0  0  0  0  0  0
  153.1232  140.8735  159.3897 C   0  0  0  0  0  0  0  0  0  0  0  0
  152.2634  141.8581  159.6745 N   0  0  0  0  0  0  0  0  0  0  0  0
  152.5058  142.4682  160.9066 C   0  0  0  0  0  0  0  0  0  0  0  0
  153.5816  141.9419  161.5714 C   0  0  0  0  0  0  0  0  0  0  0  0
  154.3266  140.6568  160.6642 S   0  0  0  0  0  0  0  0  0  0  0  0
  150.3185  138.7705  155.2211 C   0  0  0  0  0  0  0  0  0  0  0  0
  149.1326  138.7762  154.2411 C   0  0  0  0  0  0  0  0  0  0  0  0
  144.5355  137.5150  153.1706 H   0  0  0  0  0  0  0  0  0  0  0  0
  144.7385  139.1655  152.6171 H   0  0  0  0  0  0  0  0  0  0  0  0
  147.3321  139.8692  152.6340 H   0  0  0  0  0  0  0  0  0  0  0  0
  146.3335  140.5882  153.8754 H   0  0  0  0  0  0  0  0  0  0  0  0
  149.2249  141.3185  153.4287 H   0  0  0  0  0  0  0  0  0  0  0  0
  148.1894  141.9788  154.6767 H   0  0  0  0  0  0  0  0  0  0  0  0
  150.5486  142.2126  155.3375 H   0  0  0  0  0  0  0  0  0  0  0  0
  149.6752  141.1950  156.4583 H   0  0  0  0  0  0  0  0  0  0  0  0
  151.5111  140.2594  154.2083 H   0  0  0  0  0  0  0  0  0  0  0  0
  153.0624  140.2216  155.8833 H   0  0  0  0  0  0  0  0  0  0  0  0
  151.8619  143.2718  161.2311 H   0  0  0  0  0  0  0  0  0  0  0  0
  153.9802  142.2300  162.5323 H   0  0  0  0  0  0  0  0  0  0  0  0
  150.9995  137.9574  154.9665 H   0  0  0  0  0  0  0  0  0  0  0  0
  149.9561  138.5649  156.2297 H   0  0  0  0  0  0  0  0  0  0  0  0
  148.6199  137.8155  154.3062 H   0  0  0  0  0  0  0  0  0  0  0  0
  149.4928  138.8739  153.2153 H   0  0  0  0  0  0  0  0  0  0  0  0
  1  2  1  0  0  0  0
  1 20  1  0  0  0  0
  1 21  1  0  0  0  0
  2  3  2  0  0  0  0
  2  4  1  0  0  0  0
  4  5  1  0  0  0  0
  4 22  1  0  0  0  0
  4 23  1  0  0  0  0
  5 19  1  0  0  0  0
  5  6  1  0  0  0  0
  6  7  1  0  0  0  0
  6 24  1  0  0  0  0
  6 25  1  0  0  0  0
  7  8  1  0  0  0  0
  7 26  1  0  0  0  0
  7 27  1  0  0  0  0
  8  9  1  0  0  0  0
  8 18  1  0  0  0  0
  8 28  1  0  0  0  0
  9 10  1  0  0  0  0
  9 29  1  0  0  0  0
 10 11  2  0  0  0  0
 10 12  1  0  0  0  0
 12 13  1  0  0  0  0
 13 17  1  0  0  0  0
 13 14  2  0  0  0  0
 14 15  1  0  0  0  0
 15 16  2  0  0  0  0
 15 30  1  0  0  0  0
 16 17  1  0  0  0  0
 16 31  1  0  0  0  0
 18 19  1  0  0  0  0
 18 32  1  0  0  0  0
 18 33  1  0  0  0  0
 19 34  1  0  0  0  0
 19 35  1  0  0  0  0
M  CHG  1  12  -1
M  END
> <s_m_source_file>
AV-unprocessed.smi

> <i_m_source_file_index>
1213

> <i_lp_mmshare_version>
43012

> <i_f3d_flags>
0

> <s_epik_input>
W05IMl1DKD1PKVtDSDJdTjFbQ0gyXVtDSDJdW0NIXShbQ0gyXVtDSDJdMSlbTkhdQyg9TylbTkhdYzJuW2NIXVtjSF1zMg==

> <s_epik_cmdline>
J2VwaWtfcHl0aG9uJywgJy1waCcsICc3LjAnLCAnLXRuJywgJzgnLCAnLW1hJywgJzIwMCcsICctbWV0YWxfYmluZGluZycsICctaW1hZScsICc8aW5maWxlLm1hZT4nLCAnLW9tYWUnLCAnPG91dGZpbGUubWFlPic=

> <r_lp_tautomer_probability>
0.999

> <r_epik_Ionization_Penalty>
7.12626

> <r_epik_Ionization_Penalty_Charging>
5.84953

> <r_epik_Ionization_Penalty_Neutral>
1.27674

> <r_epik_State_Penalty>
5.99619

> <r_epik_Charging_Adjusted_Penalty>
11.8457

> <i_epik_Tot_Q>
-1

> <i_epik_Tot_abs_Q>
1

> <r_epik_Metal_State_Penalty>
1.98285

> <b_epik_Metal_Only>
1

> <s_lp_Force_Field>
OPLS_2005

> <r_lp_Energy>
7.2689

> <b_lp_Chiralities_Consistent>
1

> <s_lp_Variant>
AV-unprocessed.smi:1213-4

> <Gold.Version>
5.8.1

> <Gold.Id.Protein>
6NUR|6NUR_protein|mol2

> <Gold.PLP.Fitness>
39.4790

> <Gold.PLP.PLP>
-31.5347

> <Gold.PLP.part.hbond>
-2.0000

> <Gold.PLP.part.metal>
0.0000

> <Gold.PLP.part.buried>
-2.3559

> <Gold.PLP.part.nonpolar>
-27.1175

> <Gold.PLP.part.repulsive>
0.3384

> <Gold.PLP.ligand.clash>
0.0000

> <Gold.PLP.ligand.torsion>
0.4824

> <Gold.PLP.Chemscore.Hbond>
2.9600

> <Gold.PLP.Chemscore.CHOScore>
0.0000

> <Gold.PLP.Chemscore.Metal>
0.0000

> <Gold.Chemscore.Hbonds>
donor molecule, donor type, donor heavy atom, donor atom, acceptor molecule, acceptor atom, score
      L1  H     1    21       P1 10175  1.00
      P1  H  7997  8009       L1    12  1.95

> <Gold.PLP.Chemscore.Internal.Correction>
0.0292

> <Gold.Rescore>
     Score         DG    S(hbond)    S(metal)    S(lipo)     H(rot)  DE(clash)    DE(int)     intcor
      9.50     -14.06       1.74        0.00      67.62       2.01       0.07       4.49       ----

> <Gold.Chemscore.Fitness>
9.4971

> <Gold.Chemscore.DG>
-14.0587

> <Gold.Chemscore.ZeroCoef>
-5.4800

> <Gold.Chemscore.Hbond>
1.7409

> <Gold.Chemscore.Metal>
0.0000

> <Gold.Chemscore.Lipo>
67.6191

> <Gold.Chemscore.Internal_Hbond>
0.0000

> <Gold.Chemscore.DEClash>
0.0680

> <Gold.Chemscore.DEInternal>
4.4936

> <Gold.Chemscore.Rot>
2.0107

> <Gold.Chemscore.Internal.Correction>
   9.000000E+99

> <Gold.Chemscore.Hbonds>
donor molecule, donor type, donor heavy atom, donor atom, acceptor molecule, acceptor atom, score
      L1  H     1    21       P1 10175  0.94
      P1  H  7997  8009       L1    12  0.68

> <Gold.Chemscore.Hbond.Weighted>
-5.8147

> <Gold.Chemscore.Metal.Weighted>
-0.0000

> <Gold.Chemscore.Lipo.Weighted>
-7.9114

> <Gold.Chemscore.Internal_Hbond.Weighted>
0.0000

> <Gold.Chemscore.DEClash.Weighted>
0.0680

> <Gold.Chemscore.DEInternal.Weighted>
4.4936

> <Gold.Chemscore.Rot.Weighted>
5.1474

> <Gold.Chemscore.Internal.Correction.Weighted>
   9.000000E+99

> <Gold.Protein.RotatedTorsions>
[ 6907 6896 6895 6894 ] final   95.26 input  -60.11 | X-H torsion
[ 7974 7965 7964 7962 ] final  -10.14 input  175.53 | X-H torsion
[ 8008 7997 7996 7995 ] final  152.17 input   59.86 | X-H torsion
[ 10167 10162 10161 10158 ] final  146.54 input  -65.29 | X-H torsion
[ 10718 10713 10712 10709 ] final   12.16 input   66.30 | X-H torsion
[ 10763 10752 10751 10750 ] final   95.98 input  -60.55 | X-H torsion
[ 11005 11000 10999 10996 ] final -159.11 input  -57.11 | X-H torsion

> <Gold.Protein.ActiveResidues>
 VAL166  LYS551  ARG553  GLY616  TRP617  ASP618  TYR619  PRO620  LYS621  CYS622 
 ASP623  PHE694  ASN695  SER759  ASP760  ASP761  ALA762  ILE779  LEU786  VAL792 
 PHE793  MET794  SER795  GLU796  ALA797  LYS798  CYS799  TRP800  GLU811  SER814 

> <Gold.Protein.RotatedAtoms>
  152.5445  134.1066  159.8340 H   0  0  0  0  0  0  0  0  0  0  0  0  # atno 6907 bound_to 6896
  151.1138  133.5146  159.2612 H   0  0  0  0  0  0  0  0  0  0  0  0  # atno 6908 bound_to 6896
  151.1855  135.0389  159.8865 H   0  0  0  0  0  0  0  0  0  0  0  0  # atno 6909 bound_to 6896
  146.2230  140.2720  142.8357 H   0  0  0  0  0  0  0  0  0  0  0  0  # atno 7974 bound_to 7965
  156.2641  140.2028  156.6291 H   0  0  0  0  0  0  0  0  0  0  0  0  # atno 8008 bound_to 7997
  154.6697  140.0551  157.0176 H   0  0  0  0  0  0  0  0  0  0  0  0  # atno 8009 bound_to 7997
  155.1155  140.3219  155.4513 H   0  0  0  0  0  0  0  0  0  0  0  0  # atno 8010 bound_to 7997
  139.4905  144.5822  151.6850 H   0  0  0  0  0  0  0  0  0  0  0  0  # atno 10167 bound_to 10162
  157.0061  130.6098  149.5702 H   0  0  0  0  0  0  0  0  0  0  0  0  # atno 10718 bound_to 10713
  153.2596  135.4234  155.0880 H   0  0  0  0  0  0  0  0  0  0  0  0  # atno 10763 bound_to 10752
  154.8414  135.3445  154.6397 H   0  0  0  0  0  0  0  0  0  0  0  0  # atno 10764 bound_to 10752
  153.6817  135.7038  153.5173 H   0  0  0  0  0  0  0  0  0  0  0  0  # atno 10765 bound_to 10752
  140.6462  134.4499  157.5234 H   0  0  0  0  0  0  0  0  0  0  0  0  # atno 11005 bound_to 11000
  144.9261  140.7923  143.5718 LP  0  0  0  0  0  0  0  0  0  0  0  0  # atno 17320 bound_to 7965
  145.2660  139.1973  143.4867 LP  0  0  0  0  0  0  0  0  0  0  0  0  # atno 17321 bound_to 7965
  140.5430  144.0548  150.6096 LP  0  0  0  0  0  0  0  0  0  0  0  0  # atno 17342 bound_to 10162
  140.3577  143.2926  152.0418 LP  0  0  0  0  0  0  0  0  0  0  0  0  # atno 17343 bound_to 10162
  156.0153  130.5247  150.8116 LP  0  0  0  0  0  0  0  0  0  0  0  0  # atno 17370 bound_to 10713
  157.5355  131.0938  150.9898 LP  0  0  0  0  0  0  0  0  0  0  0  0  # atno 17371 bound_to 10713
  139.9062  134.8444  156.1697 LP  0  0  0  0  0  0  0  0  0  0  0  0  # atno 17394 bound_to 11000
  141.0570  133.6860  156.1880 LP  0  0  0  0  0  0  0  0  0  0  0  0  # atno 17395 bound_to 11000

$$$$
