AV-unprocessed.smi:2062|AV-procd|sdf|8398|dock2
  -GOLD-   2272011 83D 1   1.00000     0.00000
 Structure written by MMmdl.
 43 44  0  0  0  0  0  0  0  0  2 V2000
  144.5434  135.6809  154.8867 C   0  0  0  0  0  0  0  0  0  0  0  0
  144.3820  137.1145  154.3535 C   0  0  0  0  0  0  0  0  0  0  0  0
  143.7911  137.0953  152.9357 C   0  0  0  0  0  0  0  0  0  0  0  0
  145.7156  137.8937  154.3740 C   0  0  0  0  0  0  0  0  0  0  0  0
  145.5400  139.3664  154.2417 N   0  3  1  0  0  0  0  0  0  0  0  0
  145.0968  140.0236  155.4951 C   0  0  0  0  0  0  0  0  0  0  0  0
  146.2704  140.1990  156.4748 C   0  0  0  0  0  0  0  0  0  0  0  0
  147.3064  140.9364  155.8399 O   0  0  0  0  0  0  0  0  0  0  0  0
  147.8371  140.2719  154.6970 C   0  0  2  0  0  0  0  0  0  0  0  0
  148.9921  141.1144  154.1267 C   0  0  0  0  0  0  0  0  0  0  0  0
  149.4734  142.0986  155.0905 N   0  0  0  0  0  0  0  0  0  0  0  0
  150.2938  141.8375  156.1181 C   0  0  0  0  0  0  0  0  0  0  0  0
  150.7399  140.7162  156.3622 O   0  0  0  0  0  0  0  0  0  0  0  0
  150.5554  142.9503  156.8259 N   0  0  0  0  0  0  0  0  0  0  0  0
  151.3742  143.0862  157.9775 C   0  0  0  0  0  0  0  0  0  0  0  0
  151.7282  142.0729  158.7765 N   0  0  0  0  0  0  0  0  0  0  0  0
  152.5378  142.4971  159.8333 C   0  0  0  0  0  0  0  0  0  0  0  0
  152.7920  143.8460  159.8229 C   0  0  0  0  0  0  0  0  0  0  0  0
  152.0212  144.6419  158.4771 S   0  0  0  0  0  0  0  0  0  0  0  0
  146.7026  140.0898  153.6640 C   0  0  0  0  0  0  0  0  0  0  0  0
  145.2567  135.1119  154.2895 H   0  0  0  0  0  0  0  0  0  0  0  0
  143.5931  135.1463  154.8649 H   0  0  0  0  0  0  0  0  0  0  0  0
  144.8928  135.6749  155.9192 H   0  0  0  0  0  0  0  0  0  0  0  0
  143.6564  137.6258  154.9847 H   0  0  0  0  0  0  0  0  0  0  0  0
  144.4539  136.5868  152.2349 H   0  0  0  0  0  0  0  0  0  0  0  0
  143.6270  138.1071  152.5639 H   0  0  0  0  0  0  0  0  0  0  0  0
  142.8299  136.5805  152.9166 H   0  0  0  0  0  0  0  0  0  0  0  0
  146.2175  137.6771  155.3181 H   0  0  0  0  0  0  0  0  0  0  0  0
  146.3804  137.5253  153.5929 H   0  0  0  0  0  0  0  0  0  0  0  0
  144.6906  141.0043  155.2434 H   0  0  0  0  0  0  0  0  0  0  0  0
  144.2822  139.4661  155.9583 H   0  0  0  0  0  0  0  0  0  0  0  0
  145.9418  140.7470  157.3581 H   0  0  0  0  0  0  0  0  0  0  0  0
  146.6478  139.2362  156.8222 H   0  0  0  0  0  0  0  0  0  0  0  0
  148.2322  139.2990  154.9923 H   0  0  0  0  0  0  0  0  0  0  0  0
  149.8335  140.4650  153.8841 H   0  0  0  0  0  0  0  0  0  0  0  0
  148.6964  141.5952  153.1926 H   0  0  0  0  0  0  0  0  0  0  0  0
  149.1531  143.0482  154.9685 H   0  0  0  0  0  0  0  0  0  0  0  0
  150.1143  143.8001  156.5066 H   0  0  0  0  0  0  0  0  0  0  0  0
  152.8906  141.7697  160.5496 H   0  0  0  0  0  0  0  0  0  0  0  0
  153.3839  144.4172  160.5223 H   0  0  0  0  0  0  0  0  0  0  0  0
  147.0727  139.5899  152.7703 H   0  0  0  0  0  0  0  0  0  0  0  0
  146.3560  141.0706  153.3353 H   0  0  0  0  0  0  0  0  0  0  0  0
  144.7770  139.4790  153.5892 H   0  0  0  0  0  0  0  0  0  0  0  0
  1  2  1  0  0  0  0
  1 21  1  0  0  0  0
  1 22  1  0  0  0  0
  1 23  1  0  0  0  0
  2  3  1  0  0  0  0
  2  4  1  0  0  0  0
  2 24  1  0  0  0  0
  3 25  1  0  0  0  0
  3 26  1  0  0  0  0
  3 27  1  0  0  0  0
  4  5  1  0  0  0  0
  4 28  1  0  0  0  0
  4 29  1  0  0  0  0
  5 20  1  0  0  0  0
  5  6  1  0  0  0  0
  5 43  1  0  0  0  0
  6  7  1  0  0  0  0
  6 30  1  0  0  0  0
  6 31  1  0  0  0  0
  7  8  1  0  0  0  0
  7 32  1  0  0  0  0
  7 33  1  0  0  0  0
  8  9  1  0  0  0  0
  9 10  1  0  0  0  0
  9 20  1  0  0  0  0
  9 34  1  0  0  0  0
 10 11  1  0  0  0  0
 10 35  1  0  0  0  0
 10 36  1  0  0  0  0
 11 12  1  0  0  0  0
 11 37  1  0  0  0  0
 12 13  2  0  0  0  0
 12 14  1  0  0  0  0
 14 15  1  0  0  0  0
 14 38  1  0  0  0  0
 15 19  1  0  0  0  0
 15 16  2  0  0  0  0
 16 17  1  0  0  0  0
 17 18  2  0  0  0  0
 17 39  1  0  0  0  0
 18 19  1  0  0  0  0
 18 40  1  0  0  0  0
 20 41  1  0  0  0  0
 20 42  1  0  0  0  0
M  CHG  1   5   1
M  END
> <s_m_source_file>
AV-unprocessed.smi

> <i_m_source_file_index>
2062

> <i_lp_mmshare_version>
43012

> <i_f3d_flags>
0

> <s_epik_input>
W0NIM11bQ0hdKFtDSDNdKVtDSDJdTjFbQ0gyXVtDSDJdT1tDQEhdKFtDSDJdMSlbQ0gyXVtOSF1DKD1PKVtOSF1jMm5bY0hdW2NIXXMy

> <s_epik_cmdline>
J2VwaWtfcHl0aG9uJywgJy1waCcsICc3LjAnLCAnLXRuJywgJzgnLCAnLW1hJywgJzIwMCcsICctbWV0YWxfYmluZGluZycsICctaW1hZScsICc8aW5maWxlLm1hZT4nLCAnLW9tYWUnLCAnPG91dGZpbGUubWFlPic=

> <r_lp_tautomer_probability>
0.999

> <r_epik_Ionization_Penalty>
0.0985527

> <r_epik_Ionization_Penalty_Charging>
0.098413

> <r_epik_Ionization_Penalty_Neutral>
0.000139681

> <r_epik_State_Penalty>
0.0884988

> <r_epik_Charging_Adjusted_Penalty>
0.186912

> <i_epik_Tot_Q>
1

> <i_epik_Tot_abs_Q>
1

> <r_epik_Metal_State_Penalty>
0.141792

> <b_epik_Metal_Only>
0

> <s_lp_Force_Field>
OPLS_2005

> <r_lp_Energy>
18.2091

> <b_lp_Chiralities_Consistent>
1

> <s_lp_Variant>
AV-unprocessed.smi:2062-3

> <Gold.Version>
5.8.1

> <Gold.Id.Protein>
6NUR|6NUR_protein|mol2

> <Gold.PLP.Fitness>
40.7374

> <Gold.PLP.PLP>
-30.9541

> <Gold.PLP.part.hbond>
-3.0000

> <Gold.PLP.part.metal>
0.0000

> <Gold.PLP.part.buried>
-3.1949

> <Gold.PLP.part.nonpolar>
-24.5061

> <Gold.PLP.part.repulsive>
0.3147

> <Gold.PLP.ligand.clash>
0.0000

> <Gold.PLP.ligand.torsion>
1.1622

> <Gold.PLP.Chemscore.Hbond>
4.0000

> <Gold.PLP.Chemscore.CHOScore>
0.0000

> <Gold.PLP.Chemscore.Metal>
0.0000

> <Gold.Chemscore.Hbonds>
donor molecule, donor type, donor heavy atom, donor atom, acceptor molecule, acceptor atom, score
      L1  H     5    43       P1 10175  2.00
      L1  H    11    37       P1  8028  1.00
      L1  H    14    38       P1  8028  1.00

> <Gold.PLP.Chemscore.Internal.Correction>
0.1076

> <Gold.Rescore>
     Score         DG    S(hbond)    S(metal)    S(lipo)     H(rot)  DE(clash)    DE(int)     intcor
     16.43     -18.84       2.96        0.00      68.06       1.76       0.01       2.40       ----

> <Gold.Chemscore.Fitness>
16.4300

> <Gold.Chemscore.DG>
-18.8394

> <Gold.Chemscore.ZeroCoef>
-5.4800

> <Gold.Chemscore.Hbond>
2.9646

> <Gold.Chemscore.Metal>
0.0000

> <Gold.Chemscore.Lipo>
68.0602

> <Gold.Chemscore.Internal_Hbond>
0.0000

> <Gold.Chemscore.DEClash>
0.0135

> <Gold.Chemscore.DEInternal>
2.3959

> <Gold.Chemscore.Rot>
1.7599

> <Gold.Chemscore.Internal.Correction>
   9.000000E+99

> <Gold.Chemscore.Hbonds>
donor molecule, donor type, donor heavy atom, donor atom, acceptor molecule, acceptor atom, score
      L1  H     5    43       P1 10175  0.98
      L1  H    11    37       P1  8028  0.95
      L1  H    14    38       P1  8028  0.99

> <Gold.Chemscore.Hbond.Weighted>
-9.9018

> <Gold.Chemscore.Metal.Weighted>
-0.0000

> <Gold.Chemscore.Lipo.Weighted>
-7.9630

> <Gold.Chemscore.Internal_Hbond.Weighted>
0.0000

> <Gold.Chemscore.DEClash.Weighted>
0.0135

> <Gold.Chemscore.DEInternal.Weighted>
2.3959

> <Gold.Chemscore.Rot.Weighted>
4.5054

> <Gold.Chemscore.Internal.Correction.Weighted>
   9.000000E+99

> <Gold.Protein.RotatedTorsions>
[ 6907 6896 6895 6894 ] final  -40.80 input  -60.11 | X-H torsion
[ 7974 7965 7964 7962 ] final -147.13 input  175.53 | X-H torsion
[ 8008 7997 7996 7995 ] final   -2.28 input   59.86 | X-H torsion
[ 10167 10162 10161 10158 ] final -143.41 input  -65.29 | X-H torsion
[ 10718 10713 10712 10709 ] final   49.71 input   66.30 | X-H torsion
[ 10763 10752 10751 10750 ] final  -81.32 input  -60.55 | X-H torsion
[ 11005 11000 10999 10996 ] final  -66.25 input  -57.11 | X-H torsion

> <Gold.Protein.ActiveResidues>
 VAL166  LYS551  ARG553  GLY616  TRP617  ASP618  TYR619  PRO620  LYS621  CYS622 
 ASP623  PHE694  ASN695  SER759  ASP760  ASP761  ALA762  ILE779  LEU786  VAL792 
 PHE793  MET794  SER795  GLU796  ALA797  LYS798  CYS799  TRP800  GLU811  SER814 

> <Gold.Protein.RotatedAtoms>
  150.9742  134.9109  159.7805 H   0  0  0  0  0  0  0  0  0  0  0  0  # atno 6907 bound_to 6896
  152.5200  134.3499  159.9257 H   0  0  0  0  0  0  0  0  0  0  0  0  # atno 6908 bound_to 6896
  151.3508  133.3885  159.2714 H   0  0  0  0  0  0  0  0  0  0  0  0  # atno 6909 bound_to 6896
  144.8113  140.5366  143.5640 H   0  0  0  0  0  0  0  0  0  0  0  0  # atno 7974 bound_to 7965
  154.6375  140.2538  155.7361 H   0  0  0  0  0  0  0  0  0  0  0  0  # atno 8008 bound_to 7997
  156.2511  140.2894  156.0674 H   0  0  0  0  0  0  0  0  0  0  0  0  # atno 8009 bound_to 7997
  155.1649  140.0385  157.2841 H   0  0  0  0  0  0  0  0  0  0  0  0  # atno 8010 bound_to 7997
  139.7996  143.7852  152.2657 H   0  0  0  0  0  0  0  0  0  0  0  0  # atno 10167 bound_to 10162
  157.4814  130.8317  149.8097 H   0  0  0  0  0  0  0  0  0  0  0  0  # atno 10718 bound_to 10713
  154.5622  135.5630  153.7017 H   0  0  0  0  0  0  0  0  0  0  0  0  # atno 10763 bound_to 10752
  153.0021  135.6276  154.2230 H   0  0  0  0  0  0  0  0  0  0  0  0  # atno 10764 bound_to 10752
  154.2167  135.2871  155.2919 H   0  0  0  0  0  0  0  0  0  0  0  0  # atno 10765 bound_to 10752
  141.1477  133.6696  156.6111 H   0  0  0  0  0  0  0  0  0  0  0  0  # atno 11005 bound_to 11000
  145.5317  139.1475  143.3496 LP  0  0  0  0  0  0  0  0  0  0  0  0  # atno 17320 bound_to 7965
  146.2412  140.5457  142.8933 LP  0  0  0  0  0  0  0  0  0  0  0  0  # atno 17321 bound_to 7965
  139.7968  144.7389  150.9879 LP  0  0  0  0  0  0  0  0  0  0  0  0  # atno 17342 bound_to 10162
  140.7820  143.4385  151.0586 LP  0  0  0  0  0  0  0  0  0  0  0  0  # atno 17343 bound_to 10162
  156.0123  130.3828  150.2223 LP  0  0  0  0  0  0  0  0  0  0  0  0  # atno 17370 bound_to 10713
  157.0409  131.0035  151.3284 LP  0  0  0  0  0  0  0  0  0  0  0  0  # atno 17371 bound_to 10713
  140.3614  134.7684  157.4536 LP  0  0  0  0  0  0  0  0  0  0  0  0  # atno 17394 bound_to 11000
  140.0782  134.5767  155.8568 LP  0  0  0  0  0  0  0  0  0  0  0  0  # atno 17395 bound_to 11000

$$$$
