AV-unprocessed.smi:1729|AV-procd|sdf|6969|dock4
  -GOLD-   22720 8183D 1   1.00000     0.00000
 Structure written by MMmdl.
 35 36  0  0  0  0  0  0  0  0  1 V2000
  152.4145  144.3944  161.8699 C   0  0  0  0  0  0  0  0  0  0  0  0
  152.5349  143.0224  161.2027 C   0  0  0  0  0  0  0  0  0  0  0  0
  152.3615  142.0229  161.9003 O   0  0  0  0  0  0  0  0  0  0  0  0
  152.8213  142.9516  159.8804 N   0  0  0  0  0  0  0  0  0  0  0  0
  152.8760  141.6817  159.1471 C   0  0  0  0  0  0  0  0  0  0  0  0
  151.6594  141.5987  158.2076 C   0  0  0  0  0  0  0  0  0  0  0  0
  151.5984  142.8146  157.2580 C   0  0  0  0  0  0  0  0  0  0  0  0
  150.3425  142.7921  156.5141 N   0  0  0  0  0  0  0  0  0  0  0  0
  149.8627  141.7378  155.8387 C   0  0  0  0  0  0  0  0  0  0  0  0
  150.4422  140.6539  155.7663 O   0  0  0  0  0  0  0  0  0  0  0  0
  148.6842  142.0236  155.2617 N   0  0  0  0  0  0  0  0  0  0  0  0
  147.8844  141.1641  154.4665 C   0  0  0  0  0  0  0  0  0  0  0  0
  148.1915  139.8059  154.1820 C   0  0  0  0  0  0  0  0  0  0  0  0
  147.2638  139.2502  153.4156 N   0  0  0  0  0  0  0  0  0  0  0  0
  146.3670  140.2408  153.2091 N   0  0  0  0  0  0  0  0  0  0  0  0
  146.7034  141.4236  153.8296 C   0  0  0  0  0  0  0  0  0  0  0  0
  151.7521  144.1442  158.0330 C   0  0  0  0  0  0  0  0  0  0  0  0
  152.9650  144.1016  158.9793 C   0  0  0  0  0  0  0  0  0  0  0  0
  145.5386  140.0958  152.6495 H   0  0  0  0  0  0  0  0  0  0  0  0
  151.6383  144.9916  161.3905 H   0  0  0  0  0  0  0  0  0  0  0  0
  153.3607  144.9333  161.8185 H   0  0  0  0  0  0  0  0  0  0  0  0
  152.1488  144.2881  162.9224 H   0  0  0  0  0  0  0  0  0  0  0  0
  153.8003  141.6357  158.5697 H   0  0  0  0  0  0  0  0  0  0  0  0
  152.8955  140.8130  159.8067 H   0  0  0  0  0  0  0  0  0  0  0  0
  151.6974  140.6742  157.6306 H   0  0  0  0  0  0  0  0  0  0  0  0
  150.7497  141.5512  158.8083 H   0  0  0  0  0  0  0  0  0  0  0  0
  152.4301  142.7265  156.5563 H   0  0  0  0  0  0  0  0  0  0  0  0
  149.7977  143.6420  156.5175 H   0  0  0  0  0  0  0  0  0  0  0  0
  148.3206  142.9544  155.4046 H   0  0  0  0  0  0  0  0  0  0  0  0
  149.0388  139.2165  154.4997 H   0  0  0  0  0  0  0  0  0  0  0  0
  146.0883  142.3085  153.7607 H   0  0  0  0  0  0  0  0  0  0  0  0
  151.8568  144.9768  157.3366 H   0  0  0  0  0  0  0  0  0  0  0  0
  150.8506  144.3402  158.6157 H   0  0  0  0  0  0  0  0  0  0  0  0
  153.0653  145.0539  159.4978 H   0  0  0  0  0  0  0  0  0  0  0  0
  153.8829  143.9898  158.4003 H   0  0  0  0  0  0  0  0  0  0  0  0
  1  2  1  0  0  0  0
  1 20  1  0  0  0  0
  1 21  1  0  0  0  0
  1 22  1  0  0  0  0
  2  3  2  0  0  0  0
  2  4  1  0  0  0  0
  4 18  1  0  0  0  0
  4  5  1  0  0  0  0
  5  6  1  0  0  0  0
  5 23  1  0  0  0  0
  5 24  1  0  0  0  0
  6  7  1  0  0  0  0
  6 25  1  0  0  0  0
  6 26  1  0  0  0  0
  7  8  1  0  0  0  0
  7 17  1  0  0  0  0
  7 27  1  0  0  0  0
  8  9  1  0  0  0  0
  8 28  1  0  0  0  0
  9 10  2  0  0  0  0
  9 11  1  0  0  0  0
 11 12  1  0  0  0  0
 11 29  1  0  0  0  0
 12 16  2  0  0  0  0
 12 13  1  0  0  0  0
 13 14  2  0  0  0  0
 13 30  1  0  0  0  0
 14 15  1  0  0  0  0
 15 19  1  0  0  0  0
 15 16  1  0  0  0  0
 16 31  1  0  0  0  0
 17 18  1  0  0  0  0
 17 32  1  0  0  0  0
 17 33  1  0  0  0  0
 18 34  1  0  0  0  0
 18 35  1  0  0  0  0
M  END
> <s_m_source_file>
AV-unprocessed.smi

> <i_m_source_file_index>
1729

> <i_lp_mmshare_version>
43012

> <i_f3d_flags>
0

> <s_epik_input>
W0NIM11DKD1PKU4xW0NIMl1bQ0gyXVtDSF0oW0NIMl1bQ0gyXTEpW05IXUMoPU8pW05IXWMyW2NIXW5bbkhdW2NIXTI=

> <s_epik_cmdline>
J2VwaWtfcHl0aG9uJywgJy1waCcsICc3LjAnLCAnLXRuJywgJzgnLCAnLW1hJywgJzIwMCcsICctbWV0YWxfYmluZGluZycsICctaW1hZScsICc8aW5maWxlLm1hZT4nLCAnLW9tYWUnLCAnPG91dGZpbGUubWFlPic=

> <r_lp_tautomer_probability>
1

> <r_epik_Ionization_Penalty>
5.29522e-05

> <r_epik_Ionization_Penalty_Charging>
0

> <r_epik_Ionization_Penalty_Neutral>
5.29522e-05

> <r_epik_State_Penalty>
-0

> <r_epik_Charging_Adjusted_Penalty>
0

> <i_epik_Tot_Q>
0

> <i_epik_Tot_abs_Q>
0

> <r_epik_Metal_State_Penalty>
-0

> <b_epik_Metal_Only>
0

> <s_lp_Force_Field>
OPLS_2005

> <r_lp_Energy>
24.3568

> <b_lp_Chiralities_Consistent>
1

> <s_lp_Variant>
AV-unprocessed.smi:1729-1

> <Gold.Version>
5.8.1

> <Gold.Id.Protein>
6NUR|6NUR_protein|mol2

> <Gold.PLP.Fitness>
45.4980

> <Gold.PLP.PLP>
-36.6539

> <Gold.PLP.part.hbond>
-3.5212

> <Gold.PLP.part.metal>
0.0000

> <Gold.PLP.part.buried>
-3.8977

> <Gold.PLP.part.nonpolar>
-29.9374

> <Gold.PLP.part.repulsive>
0.5983

> <Gold.PLP.ligand.clash>
0.0000

> <Gold.PLP.ligand.torsion>
0.0667

> <Gold.PLP.Chemscore.Hbond>
2.9868

> <Gold.PLP.Chemscore.CHOScore>
0.0000

> <Gold.PLP.Chemscore.Metal>
0.0000

> <Gold.Chemscore.Hbonds>
donor molecule, donor type, donor heavy atom, donor atom, acceptor molecule, acceptor atom, score
      L1  H     8    28       P1  8028  0.98
      L1  H    11    29       P1  8028  0.85
      L1  H    15    19       P1 10175  0.91
      P1  H  6933  6945       L1     3  0.17

> <Gold.PLP.Chemscore.Internal.Correction>
0.0173

> <Gold.Rescore>
     Score         DG    S(hbond)    S(metal)    S(lipo)     H(rot)  DE(clash)    DE(int)     intcor
     20.48     -24.22       3.45        0.00      83.48       1.00       0.91       2.84       ----

> <Gold.Chemscore.Fitness>
20.4778

> <Gold.Chemscore.DG>
-24.2194

> <Gold.Chemscore.ZeroCoef>
-5.4800

> <Gold.Chemscore.Hbond>
3.4529

> <Gold.Chemscore.Metal>
0.0000

> <Gold.Chemscore.Lipo>
83.4775

> <Gold.Chemscore.Internal_Hbond>
0.0000

> <Gold.Chemscore.DEClash>
0.9065

> <Gold.Chemscore.DEInternal>
2.8352

> <Gold.Chemscore.Rot>
1.0000

> <Gold.Chemscore.Internal.Correction>
   9.000000E+99

> <Gold.Chemscore.Hbonds>
donor molecule, donor type, donor heavy atom, donor atom, acceptor molecule, acceptor atom, score
      L1  H     8    28       P1  8028  0.93
      L1  H    11    29       P1  8028  0.82
      L1  H    15    19       P1 10175  0.84
      P1  H  6933  6945       L1     3  0.12

> <Gold.Chemscore.Hbond.Weighted>
-11.5325

> <Gold.Chemscore.Metal.Weighted>
-0.0000

> <Gold.Chemscore.Lipo.Weighted>
-9.7669

> <Gold.Chemscore.Internal_Hbond.Weighted>
0.0000

> <Gold.Chemscore.DEClash.Weighted>
0.9065

> <Gold.Chemscore.DEInternal.Weighted>
2.8352

> <Gold.Chemscore.Rot.Weighted>
2.5600

> <Gold.Chemscore.Internal.Correction.Weighted>
   9.000000E+99

> <Gold.Protein.RotatedTorsions>
[ 6907 6896 6895 6894 ] final  -83.37 input  -60.11 | X-H torsion
[ 7974 7965 7964 7962 ] final -178.44 input  175.53 | X-H torsion
[ 8008 7997 7996 7995 ] final  -19.83 input   59.86 | X-H torsion
[ 10167 10162 10161 10158 ] final  157.56 input  -65.29 | X-H torsion
[ 10718 10713 10712 10709 ] final -150.93 input   66.30 | X-H torsion
[ 10763 10752 10751 10750 ] final  -77.27 input  -60.55 | X-H torsion
[ 11005 11000 10999 10996 ] final  163.78 input  -57.11 | X-H torsion

> <Gold.Protein.ActiveResidues>
 VAL166  LYS551  ARG553  GLY616  TRP617  ASP618  TYR619  PRO620  LYS621  CYS622 
 ASP623  PHE694  ASN695  SER759  ASP760  ASP761  ALA762  ILE779  LEU786  VAL792 
 PHE793  MET794  SER795  GLU796  ALA797  LYS798  CYS799  TRP800  GLU811  SER814 

> <Gold.Protein.RotatedAtoms>
  150.6886  134.3522  159.4913 H   0  0  0  0  0  0  0  0  0  0  0  0  # atno 6907 bound_to 6896
  152.1362  134.9095  160.0565 H   0  0  0  0  0  0  0  0  0  0  0  0  # atno 6908 bound_to 6896
  152.0246  133.3877  159.4309 H   0  0  0  0  0  0  0  0  0  0  0  0  # atno 6909 bound_to 6896
  144.7131  140.0868  143.6423 H   0  0  0  0  0  0  0  0  0  0  0  0  # atno 7974 bound_to 7965
  154.4810  140.2078  155.9764 H   0  0  0  0  0  0  0  0  0  0  0  0  # atno 8008 bound_to 7997
  156.1165  140.3220  155.8115 H   0  0  0  0  0  0  0  0  0  0  0  0  # atno 8009 bound_to 7997
  155.4544  140.0519  157.2988 H   0  0  0  0  0  0  0  0  0  0  0  0  # atno 8010 bound_to 7997
  139.4823  144.4906  151.8314 H   0  0  0  0  0  0  0  0  0  0  0  0  # atno 10167 bound_to 10162
  156.4525  130.8175  151.2406 H   0  0  0  0  0  0  0  0  0  0  0  0  # atno 10718 bound_to 10713
  154.5107  135.5769  153.6603 H   0  0  0  0  0  0  0  0  0  0  0  0  # atno 10763 bound_to 10752
  152.9896  135.6158  154.2882 H   0  0  0  0  0  0  0  0  0  0  0  0  # atno 10764 bound_to 10752
  154.2797  135.2851  155.2682 H   0  0  0  0  0  0  0  0  0  0  0  0  # atno 10765 bound_to 10752
  140.2393  134.8063  157.3395 H   0  0  0  0  0  0  0  0  0  0  0  0  # atno 11005 bound_to 11000
  145.9655  139.2831  143.1130 LP  0  0  0  0  0  0  0  0  0  0  0  0  # atno 17320 bound_to 7965
  145.9174  140.9139  143.0422 LP  0  0  0  0  0  0  0  0  0  0  0  0  # atno 17321 bound_to 7965
  140.4390  144.2013  150.5890 LP  0  0  0  0  0  0  0  0  0  0  0  0  # atno 17342 bound_to 10162
  140.4703  143.2415  151.9098 LP  0  0  0  0  0  0  0  0  0  0  0  0  # atno 17343 bound_to 10162
  157.7502  131.0133  150.3419 LP  0  0  0  0  0  0  0  0  0  0  0  0  # atno 17370 bound_to 10713
  156.3801  130.3879  149.7108 LP  0  0  0  0  0  0  0  0  0  0  0  0  # atno 17371 bound_to 10713
  140.1670  134.4657  155.7856 LP  0  0  0  0  0  0  0  0  0  0  0  0  # atno 17394 bound_to 11000
  141.2212  133.6925  156.7642 LP  0  0  0  0  0  0  0  0  0  0  0  0  # atno 17395 bound_to 11000

$$$$
