AV-unprocessed.smi:1218|AV-procd|sdf|5110|dock10
  -GOLD-   22720 4163D 1   1.00000     0.00000
 Structure written by MMmdl.
 44 45  0  0  0  0  0  0  0  0  1 V2000
  152.4618  144.7404  158.1027 C   0  0  0  0  0  0  0  0  0  0  0  0
  151.8392  144.4947  159.4861 C   0  0  0  0  0  0  0  0  0  0  0  0
  151.7178  145.8257  160.2480 C   0  0  0  0  0  0  0  0  0  0  0  0
  152.6534  143.4477  160.2823 C   0  0  0  0  0  0  0  0  0  0  0  0
  152.9155  142.1877  159.5853 N   0  0  0  0  0  0  0  0  0  0  0  0
  153.5868  141.2370  160.4652 C   0  0  0  0  0  0  0  0  0  0  0  0
  153.8721  139.9014  159.7601 C   0  0  0  0  0  0  0  0  0  0  0  0
  152.6533  139.3627  159.2617 O   0  0  0  0  0  0  0  0  0  0  0  0
  151.9938  140.2317  158.3439 C   0  0  1  0  0  0  0  0  0  0  0  0
  150.7038  139.5552  157.8505 C   0  0  0  0  0  0  0  0  0  0  0  0
  150.0105  140.3764  156.8633 N   0  0  0  0  0  0  0  0  0  0  0  0
  150.5517  140.8566  155.7334 C   0  0  0  0  0  0  0  0  0  0  0  0
  151.7158  140.6349  155.3962 O   0  0  0  0  0  0  0  0  0  0  0  0
  149.6221  141.7169  154.8676 C   0  0  0  0  0  0  0  0  0  0  0  0
  148.4536  140.9919  154.3946 N   0  0  0  0  0  0  0  0  0  0  0  0
  148.4078  139.8654  153.5995 C   0  0  0  0  0  0  0  0  0  0  0  0
  147.0922  139.5485  153.4180 C   0  0  0  0  0  0  0  0  0  0  0  0
  146.3990  140.5509  154.1524 C   0  0  0  0  0  0  0  0  0  0  0  0
  147.2160  141.4117  154.7378 N   0  0  0  0  0  0  0  0  0  0  0  0
  151.7031  141.5686  159.0553 C   0  0  0  0  0  0  0  0  0  0  0  0
  153.4790  145.1246  158.1873 H   0  0  0  0  0  0  0  0  0  0  0  0
  151.8791  145.4633  157.5310 H   0  0  0  0  0  0  0  0  0  0  0  0
  152.5003  143.8194  157.5201 H   0  0  0  0  0  0  0  0  0  0  0  0
  150.8347  144.1055  159.3136 H   0  0  0  0  0  0  0  0  0  0  0  0
  152.6956  146.2833  160.4009 H   0  0  0  0  0  0  0  0  0  0  0  0
  151.2610  145.6934  161.2278 H   0  0  0  0  0  0  0  0  0  0  0  0
  151.1026  146.5374  159.6965 H   0  0  0  0  0  0  0  0  0  0  0  0
  153.6174  143.8928  160.5333 H   0  0  0  0  0  0  0  0  0  0  0  0
  152.1745  143.2519  161.2431 H   0  0  0  0  0  0  0  0  0  0  0  0
  154.5254  141.6616  160.8230 H   0  0  0  0  0  0  0  0  0  0  0  0
  152.9717  141.0519  161.3474 H   0  0  0  0  0  0  0  0  0  0  0  0
  154.5816  140.0369  158.9424 H   0  0  0  0  0  0  0  0  0  0  0  0
  154.3168  139.1912  160.4571 H   0  0  0  0  0  0  0  0  0  0  0  0
  152.6496  140.4143  157.4902 H   0  0  0  0  0  0  0  0  0  0  0  0
  150.9164  138.5598  157.4566 H   0  0  0  0  0  0  0  0  0  0  0  0
  150.0225  139.4127  158.6897 H   0  0  0  0  0  0  0  0  0  0  0  0
  149.0485  140.6098  157.0624 H   0  0  0  0  0  0  0  0  0  0  0  0
  149.2810  142.5777  155.4440 H   0  0  0  0  0  0  0  0  0  0  0  0
  150.1787  142.1027  154.0121 H   0  0  0  0  0  0  0  0  0  0  0  0
  149.3056  139.3914  153.2314 H   0  0  0  0  0  0  0  0  0  0  0  0
  146.6866  138.7269  152.8468 H   0  0  0  0  0  0  0  0  0  0  0  0
  145.3337  140.6771  154.2768 H   0  0  0  0  0  0  0  0  0  0  0  0
  150.9886  141.4045  159.8635 H   0  0  0  0  0  0  0  0  0  0  0  0
  151.2245  142.2395  158.3428 H   0  0  0  0  0  0  0  0  0  0  0  0
  1  2  1  0  0  0  0
  1 21  1  0  0  0  0
  1 22  1  0  0  0  0
  1 23  1  0  0  0  0
  2  3  1  0  0  0  0
  2  4  1  0  0  0  0
  2 24  1  0  0  0  0
  3 25  1  0  0  0  0
  3 26  1  0  0  0  0
  3 27  1  0  0  0  0
  4  5  1  0  0  0  0
  4 28  1  0  0  0  0
  4 29  1  0  0  0  0
  5 20  1  0  0  0  0
  5  6  1  0  0  0  0
  6  7  1  0  0  0  0
  6 30  1  0  0  0  0
  6 31  1  0  0  0  0
  7  8  1  0  0  0  0
  7 32  1  0  0  0  0
  7 33  1  0  0  0  0
  8  9  1  0  0  0  0
  9 10  1  0  0  0  0
  9 20  1  0  0  0  0
  9 34  1  0  0  0  0
 10 11  1  0  0  0  0
 10 35  1  0  0  0  0
 10 36  1  0  0  0  0
 11 12  1  0  0  0  0
 11 37  1  0  0  0  0
 12 13  2  0  0  0  0
 12 14  1  0  0  0  0
 14 15  1  0  0  0  0
 14 38  1  0  0  0  0
 14 39  1  0  0  0  0
 15 19  1  0  0  0  0
 15 16  1  0  0  0  0
 16 17  2  0  0  0  0
 16 40  1  0  0  0  0
 17 18  1  0  0  0  0
 17 41  1  0  0  0  0
 18 19  2  0  0  0  0
 18 42  1  0  0  0  0
 20 43  1  0  0  0  0
 20 44  1  0  0  0  0
M  END
> <s_m_source_file>
AV-unprocessed.smi

> <i_m_source_file_index>
1218

> <i_lp_mmshare_version>
43012

> <i_f3d_flags>
0

> <s_epik_input>
W0NIM11bQ0hdKFtDSDNdKVtDSDJdTjFbQ0gyXVtDSDJdT1tDQEhdKFtDSDJdMSlbQ0gyXVtOSF1DKD1PKVtDSDJdbjJbY0hdW2NIXVtjSF1uMg==

> <s_epik_cmdline>
J2VwaWtfcHl0aG9uJywgJy1waCcsICc3LjAnLCAnLXRuJywgJzgnLCAnLW1hJywgJzIwMCcsICctbWV0YWxfYmluZGluZycsICctaW1hZScsICc8aW5maWxlLm1hZT4nLCAnLW9tYWUnLCAnPG91dGZpbGUubWFlPic=

> <r_lp_tautomer_probability>
1

> <r_epik_Ionization_Penalty>
1.10621

> <r_epik_Ionization_Penalty_Charging>
0

> <r_epik_Ionization_Penalty_Neutral>
1.10621

> <r_epik_State_Penalty>
1.16377

> <r_epik_Charging_Adjusted_Penalty>
1.16377

> <i_epik_Tot_Q>
0

> <i_epik_Tot_abs_Q>
0

> <r_epik_Metal_State_Penalty>
1.16377

> <b_epik_Metal_Only>
0

> <s_lp_Force_Field>
OPLS_2005

> <r_lp_Energy>
27.1639

> <b_lp_Chiralities_Consistent>
1

> <s_lp_Variant>
AV-unprocessed.smi:1218-5

> <Gold.Version>
5.8.1

> <Gold.Id.Protein>
6NUR|6NUR_protein|mol2

> <Gold.PLP.Fitness>
47.9228

> <Gold.PLP.PLP>
-41.5533

> <Gold.PLP.part.hbond>
-1.0000

> <Gold.PLP.part.metal>
0.0000

> <Gold.PLP.part.buried>
-1.7276

> <Gold.PLP.part.nonpolar>
-37.6762

> <Gold.PLP.part.repulsive>
0.1442

> <Gold.PLP.ligand.clash>
0.0000

> <Gold.PLP.ligand.torsion>
0.0623

> <Gold.PLP.Chemscore.Hbond>
0.7680

> <Gold.PLP.Chemscore.CHOScore>
1.3686

> <Gold.PLP.Chemscore.Metal>
0.0000

> <Gold.Chemscore.Hbonds>
donor molecule, donor type, donor heavy atom, donor atom, acceptor molecule, acceptor atom, score
      P1  H  7989  7998       L1    13  0.70
      L1  C    16    40       P1  7957  0.57
      L1  C    18    42       P1 10175  0.91

> <Gold.PLP.Chemscore.Internal.Correction>
0.0842

> <Gold.Rescore>
     Score         DG    S(hbond)    S(metal)    S(lipo)     H(rot)  DE(clash)    DE(int)     intcor
     16.06     -16.23       0.88        0.00     108.35       1.90       0.08       0.09       ----

> <Gold.Chemscore.Fitness>
16.0580

> <Gold.Chemscore.DG>
-16.2264

> <Gold.Chemscore.ZeroCoef>
-5.4800

> <Gold.Chemscore.Hbond>
0.8762

> <Gold.Chemscore.Metal>
0.0000

> <Gold.Chemscore.Lipo>
108.3451

> <Gold.Chemscore.Internal_Hbond>
0.0000

> <Gold.Chemscore.DEClash>
0.0760

> <Gold.Chemscore.DEInternal>
0.0924

> <Gold.Chemscore.Rot>
1.8970

> <Gold.Chemscore.Internal.Correction>
   9.000000E+99

> <Gold.Chemscore.Hbonds>
donor molecule, donor type, donor heavy atom, donor atom, acceptor molecule, acceptor atom, score
      P1  H  7989  7998       L1    13  0.28

> <Gold.Chemscore.Hbond.Weighted>
-2.9265

> <Gold.Chemscore.Metal.Weighted>
-0.0000

> <Gold.Chemscore.Lipo.Weighted>
-12.6764

> <Gold.Chemscore.Internal_Hbond.Weighted>
0.0000

> <Gold.Chemscore.DEClash.Weighted>
0.0760

> <Gold.Chemscore.DEInternal.Weighted>
0.0924

> <Gold.Chemscore.Rot.Weighted>
4.8564

> <Gold.Chemscore.Internal.Correction.Weighted>
   9.000000E+99

> <Gold.Protein.RotatedTorsions>
[ 6907 6896 6895 6894 ] final  144.31 input  -60.11 | X-H torsion
[ 7974 7965 7964 7962 ] final -168.87 input  175.53 | X-H torsion
[ 8008 7997 7996 7995 ] final  175.50 input   59.86 | X-H torsion
[ 10167 10162 10161 10158 ] final  146.95 input  -65.29 | X-H torsion
[ 10718 10713 10712 10709 ] final -147.37 input   66.30 | X-H torsion
[ 10763 10752 10751 10750 ] final -160.19 input  -60.55 | X-H torsion
[ 11005 11000 10999 10996 ] final -159.61 input  -57.11 | X-H torsion

> <Gold.Protein.ActiveResidues>
 VAL166  LYS551  ARG553  GLY616  TRP617  ASP618  TYR619  PRO620  LYS621  CYS622 
 ASP623  PHE694  ASN695  SER759  ASP760  ASP761  ALA762  ILE779  LEU786  VAL792 
 PHE793  MET794  SER795  GLU796  ALA797  LYS798  CYS799  TRP800  GLU811  SER814 

> <Gold.Protein.RotatedAtoms>
  152.1952  133.4801  159.5028 H   0  0  0  0  0  0  0  0  0  0  0  0  # atno 6907 bound_to 6896
  150.6959  134.1661  159.4203 H   0  0  0  0  0  0  0  0  0  0  0  0  # atno 6908 bound_to 6896
  151.9577  135.0138  160.0596 H   0  0  0  0  0  0  0  0  0  0  0  0  # atno 6909 bound_to 6896
  144.7195  140.2305  143.6304 H   0  0  0  0  0  0  0  0  0  0  0  0  # atno 7974 bound_to 7965
  156.0864  140.1407  156.9647 H   0  0  0  0  0  0  0  0  0  0  0  0  # atno 8008 bound_to 7997
  154.4615  140.0941  156.6955 H   0  0  0  0  0  0  0  0  0  0  0  0  # atno 8009 bound_to 7997
  155.4991  140.3450  155.4370 H   0  0  0  0  0  0  0  0  0  0  0  0  # atno 8010 bound_to 7997
  139.4898  144.5791  151.6906 H   0  0  0  0  0  0  0  0  0  0  0  0  # atno 10167 bound_to 10162
  156.4067  130.7961  151.2176 H   0  0  0  0  0  0  0  0  0  0  0  0  # atno 10718 bound_to 10713
  154.7411  135.3069  154.8726 H   0  0  0  0  0  0  0  0  0  0  0  0  # atno 10763 bound_to 10752
  153.9540  135.6760  153.4748 H   0  0  0  0  0  0  0  0  0  0  0  0  # atno 10764 bound_to 10752
  153.1010  135.4912  154.8792 H   0  0  0  0  0  0  0  0  0  0  0  0  # atno 10765 bound_to 10752
  140.6407  134.4554  157.5233 H   0  0  0  0  0  0  0  0  0  0  0  0  # atno 11005 bound_to 11000
  145.8415  139.2132  143.1825 LP  0  0  0  0  0  0  0  0  0  0  0  0  # atno 17320 bound_to 7965
  146.0342  140.8228  142.9861 LP  0  0  0  0  0  0  0  0  0  0  0  0  # atno 17321 bound_to 7965
  140.5394  144.0604  150.6082 LP  0  0  0  0  0  0  0  0  0  0  0  0  # atno 17342 bound_to 10162
  140.3621  143.2902  152.0372 LP  0  0  0  0  0  0  0  0  0  0  0  0  # atno 17343 bound_to 10162
  157.7506  131.0270  150.3987 LP  0  0  0  0  0  0  0  0  0  0  0  0  # atno 17370 bound_to 10713
  156.4277  130.3965  149.6781 LP  0  0  0  0  0  0  0  0  0  0  0  0  # atno 17371 bound_to 10713
  139.9081  134.8404  156.1629 LP  0  0  0  0  0  0  0  0  0  0  0  0  # atno 17394 bound_to 11000
  141.0609  133.6842  156.1950 LP  0  0  0  0  0  0  0  0  0  0  0  0  # atno 17395 bound_to 11000

$$$$
