AV-unprocessed.smi:2520|AV-procd|sdf|9907|dock4
  -GOLD-   2272013543D 1   1.00000     0.00000
 Structure written by MMmdl.
 41 44  0  0  0  0  0  0  0  0  1 V2000
  148.2811  144.2768  161.1914 O   0  0  0  0  0  0  0  0  0  0  0  0
  148.2226  144.5581  159.9959 C   0  0  0  0  0  0  0  0  0  0  0  0
  149.2904  144.3871  159.1879 N   0  0  0  0  0  0  0  0  0  0  0  0
  150.6045  143.9024  159.4539 C   0  0  0  0  0  0  0  0  0  0  0  0
  151.6293  144.5395  158.7218 C   0  0  0  0  0  0  0  0  0  0  0  0
  152.9552  144.1175  158.9184 C   0  0  0  0  0  0  0  0  0  0  0  0
  153.1696  143.0769  159.8380 C   0  0  0  0  0  0  0  0  0  0  0  0
  152.1594  142.4904  160.5154 N   0  0  0  0  0  0  0  0  0  0  0  0
  150.9008  142.8982  160.3219 N   0  0  0  0  0  0  0  0  0  0  0  0
  147.1133  145.0441  159.4185 N   0  0  0  0  0  0  0  0  0  0  0  0
  145.8750  145.3626  160.1179 C   0  0  2  0  0  0  0  0  0  0  0  0
  145.2864  144.1508  160.8396 C   0  0  1  0  0  0  0  0  0  0  0  0
  145.0906  143.7850  162.2676 C   0  0  0  0  0  0  0  0  0  0  0  0
  143.6185  143.3053  162.1668 C   0  0  0  0  0  0  0  0  0  0  0  0
  143.1576  143.7093  160.8548 O   0  0  0  0  0  0  0  0  0  0  0  0
  143.9638  144.8264  160.5382 C   0  0  2  0  0  0  0  0  0  0  0  0
  144.5925  145.2802  159.2049 C   0  0  0  0  0  0  0  0  0  0  0  0
  144.0855  146.6023  158.6126 C   0  0  0  0  0  0  0  0  0  0  0  0
  143.7030  146.3649  157.1504 C   0  0  0  0  0  0  0  0  0  0  0  0
  144.5014  145.1364  156.7399 C   0  0  0  0  0  0  0  0  0  0  0  0
  144.5537  144.2992  158.0140 C   0  0  0  0  0  0  0  0  0  0  0  0
  149.1168  144.6048  158.2175 H   0  0  0  0  0  0  0  0  0  0  0  0
  151.4080  145.3348  158.0250 H   0  0  0  0  0  0  0  0  0  0  0  0
  153.7759  144.5732  158.3848 H   0  0  0  0  0  0  0  0  0  0  0  0
  154.1655  142.7079  160.0331 H   0  0  0  0  0  0  0  0  0  0  0  0
  147.1439  145.2453  158.4289 H   0  0  0  0  0  0  0  0  0  0  0  0
  145.9293  146.2581  160.7442 H   0  0  0  0  0  0  0  0  0  0  0  0
  145.4377  143.2432  160.2469 H   0  0  0  0  0  0  0  0  0  0  0  0
  145.7672  142.9980  162.6010 H   0  0  0  0  0  0  0  0  0  0  0  0
  145.1944  144.6480  162.9268 H   0  0  0  0  0  0  0  0  0  0  0  0
  143.5362  142.2222  162.2620 H   0  0  0  0  0  0  0  0  0  0  0  0
  143.0053  143.7618  162.9446 H   0  0  0  0  0  0  0  0  0  0  0  0
  143.7330  145.6703  161.1985 H   0  0  0  0  0  0  0  0  0  0  0  0
  143.2378  147.0029  159.1694 H   0  0  0  0  0  0  0  0  0  0  0  0
  144.8689  147.3590  158.6596 H   0  0  0  0  0  0  0  0  0  0  0  0
  142.6370  146.1437  157.0844 H   0  0  0  0  0  0  0  0  0  0  0  0
  143.9031  147.2295  156.5167 H   0  0  0  0  0  0  0  0  0  0  0  0
  144.0571  144.6030  155.8992 H   0  0  0  0  0  0  0  0  0  0  0  0
  145.5116  145.4332  156.4552 H   0  0  0  0  0  0  0  0  0  0  0  0
  145.3980  143.6102  157.9854 H   0  0  0  0  0  0  0  0  0  0  0  0
  143.6549  143.6841  158.0735 H   0  0  0  0  0  0  0  0  0  0  0  0
  1  2  2  0  0  0  0
  2  3  1  0  0  0  0
  2 10  1  0  0  0  0
  3  4  1  0  0  0  0
  3 22  1  0  0  0  0
  4  9  1  0  0  0  0
  4  5  2  0  0  0  0
  5  6  1  0  0  0  0
  5 23  1  0  0  0  0
  6  7  2  0  0  0  0
  6 24  1  0  0  0  0
  7  8  1  0  0  0  0
  7 25  1  0  0  0  0
  8  9  2  0  0  0  0
 10 11  1  0  0  0  0
 10 26  1  0  0  0  0
 11 17  1  0  0  0  0
 11 12  1  0  0  0  0
 11 27  1  0  0  0  0
 12 16  1  0  0  0  0
 12 13  1  0  0  0  0
 12 28  1  0  0  0  0
 13 14  1  0  0  0  0
 13 29  1  0  0  0  0
 13 30  1  0  0  0  0
 14 15  1  0  0  0  0
 14 31  1  0  0  0  0
 14 32  1  0  0  0  0
 15 16  1  0  0  0  0
 16 17  1  0  0  0  0
 16 33  1  0  0  0  0
 17 21  1  0  0  0  0
 17 18  1  0  0  0  0
 18 19  1  0  0  0  0
 18 34  1  0  0  0  0
 18 35  1  0  0  0  0
 19 20  1  0  0  0  0
 19 36  1  0  0  0  0
 19 37  1  0  0  0  0
 20 21  1  0  0  0  0
 20 38  1  0  0  0  0
 20 39  1  0  0  0  0
 21 40  1  0  0  0  0
 21 41  1  0  0  0  0
M  END
> <s_m_source_file>
AV-unprocessed.smi

> <i_m_source_file_index>
2520

> <i_lp_mmshare_version>
43012

> <i_f3d_flags>
0

> <s_epik_input>
bjFuW2NIXVtjSF1bY0hdYzFbTkhdQyg9TylbTkhdW0NAQEhdMltDQEBIXShbQ0gyXVtDSDJdTzMpW0NASF0zQzI0W0NIMl1bQ0gyXVtDSDJdW0NIMl00

> <s_epik_cmdline>
J2VwaWtfcHl0aG9uJywgJy1waCcsICc3LjAnLCAnLXRuJywgJzgnLCAnLW1hJywgJzIwMCcsICctbWV0YWxfYmluZGluZycsICctaW1hZScsICc8aW5maWxlLm1hZT4nLCAnLW9tYWUnLCAnPG91dGZpbGUubWFlPic=

> <r_lp_tautomer_probability>
1

> <r_epik_Ionization_Penalty>
0.00552561

> <r_epik_Ionization_Penalty_Charging>
0

> <r_epik_Ionization_Penalty_Neutral>
0.00552561

> <r_epik_State_Penalty>
-0

> <r_epik_Charging_Adjusted_Penalty>
0

> <i_epik_Tot_Q>
0

> <i_epik_Tot_abs_Q>
0

> <r_epik_Metal_State_Penalty>
-0

> <b_epik_Metal_Only>
0

> <s_lp_Force_Field>
OPLS_2005

> <r_lp_Energy>
83.7492

> <b_lp_Chiralities_Consistent>
1

> <s_lp_Variant>
AV-unprocessed.smi:2520-1

> <Gold.Version>
5.8.1

> <Gold.Id.Protein>
6NUR|6NUR_protein|mol2

> <Gold.PLP.Fitness>
44.0100

> <Gold.PLP.PLP>
-36.7186

> <Gold.PLP.part.hbond>
-3.6927

> <Gold.PLP.part.metal>
0.0000

> <Gold.PLP.part.buried>
-6.2223

> <Gold.PLP.part.nonpolar>
-28.1406

> <Gold.PLP.part.repulsive>
0.5488

> <Gold.PLP.ligand.clash>
0.0000

> <Gold.PLP.ligand.torsion>
0.4451

> <Gold.PLP.Chemscore.Hbond>
2.6336

> <Gold.PLP.Chemscore.CHOScore>
0.0000

> <Gold.PLP.Chemscore.Metal>
0.0000

> <Gold.Chemscore.Hbonds>
donor molecule, donor type, donor heavy atom, donor atom, acceptor molecule, acceptor atom, score
      L1  H     3    22       P1  8029  0.67
      L1  H    10    26       P1  8029  0.94
      P1  H  6933  6944       L1     1  1.00

> <Gold.PLP.Chemscore.Internal.Correction>
0.2809

> <Gold.Rescore>
     Score         DG    S(hbond)    S(metal)    S(lipo)     H(rot)  DE(clash)    DE(int)     intcor
     20.42     -22.37       2.75        0.00      87.66       1.00       0.33       1.62       ----

> <Gold.Chemscore.Fitness>
20.4234

> <Gold.Chemscore.DG>
-22.3673

> <Gold.Chemscore.ZeroCoef>
-5.4800

> <Gold.Chemscore.Hbond>
2.7518

> <Gold.Chemscore.Metal>
0.0000

> <Gold.Chemscore.Lipo>
87.6594

> <Gold.Chemscore.Internal_Hbond>
0.0000

> <Gold.Chemscore.DEClash>
0.3280

> <Gold.Chemscore.DEInternal>
1.6158

> <Gold.Chemscore.Rot>
1.0000

> <Gold.Chemscore.Internal.Correction>
   9.000000E+99

> <Gold.Chemscore.Hbonds>
donor molecule, donor type, donor heavy atom, donor atom, acceptor molecule, acceptor atom, score
      L1  H     3    22       P1  8029  0.19
      L1  H    10    26       P1  8029  0.85
      P1  H  6933  6944       L1     1  0.77

> <Gold.Chemscore.Hbond.Weighted>
-9.1911

> <Gold.Chemscore.Metal.Weighted>
-0.0000

> <Gold.Chemscore.Lipo.Weighted>
-10.2561

> <Gold.Chemscore.Internal_Hbond.Weighted>
0.0000

> <Gold.Chemscore.DEClash.Weighted>
0.3280

> <Gold.Chemscore.DEInternal.Weighted>
1.6158

> <Gold.Chemscore.Rot.Weighted>
2.5600

> <Gold.Chemscore.Internal.Correction.Weighted>
   9.000000E+99

> <Gold.Protein.RotatedTorsions>
[ 6907 6896 6895 6894 ] final  -92.77 input  -60.11 | X-H torsion
[ 7974 7965 7964 7962 ] final  -93.65 input  175.53 | X-H torsion
[ 8008 7997 7996 7995 ] final   34.39 input   59.86 | X-H torsion
[ 10167 10162 10161 10158 ] final -134.80 input  -65.29 | X-H torsion
[ 10718 10713 10712 10709 ] final -165.47 input   66.30 | X-H torsion
[ 10763 10752 10751 10750 ] final   64.07 input  -60.55 | X-H torsion
[ 11005 11000 10999 10996 ] final   52.01 input  -57.11 | X-H torsion

> <Gold.Protein.ActiveResidues>
 VAL166  LYS551  ARG553  GLY616  TRP617  ASP618  TYR619  PRO620  LYS621  CYS622 
 ASP623  PHE694  ASN695  SER759  ASP760  ASP761  ALA762  ILE779  LEU786  VAL792 
 PHE793  MET794  SER795  GLU796  ALA797  LYS798  CYS799  TRP800  GLU811  SER814 

> <Gold.Protein.RotatedAtoms>
  150.6911  134.2070  159.4344 H   0  0  0  0  0  0  0  0  0  0  0  0  # atno 6907 bound_to 6896
  152.0033  134.9914  160.0575 H   0  0  0  0  0  0  0  0  0  0  0  0  # atno 6908 bound_to 6896
  152.1557  133.4515  159.4873 H   0  0  0  0  0  0  0  0  0  0  0  0  # atno 6909 bound_to 6896
  145.3837  140.9520  143.2379 H   0  0  0  0  0  0  0  0  0  0  0  0  # atno 7974 bound_to 7965
  155.1541  140.3277  155.4425 H   0  0  0  0  0  0  0  0  0  0  0  0  # atno 8008 bound_to 7997
  156.2564  140.1972  156.6601 H   0  0  0  0  0  0  0  0  0  0  0  0  # atno 8009 bound_to 7997
  154.6452  140.0565  156.9878 H   0  0  0  0  0  0  0  0  0  0  0  0  # atno 8010 bound_to 7997
  139.8844  143.6799  152.2622 H   0  0  0  0  0  0  0  0  0  0  0  0  # atno 10167 bound_to 10162
  156.6539  130.9019  151.3018 H   0  0  0  0  0  0  0  0  0  0  0  0  # atno 10718 bound_to 10713
  153.0041  135.5406  154.6451 H   0  0  0  0  0  0  0  0  0  0  0  0  # atno 10763 bound_to 10752
  154.5697  135.2840  155.0841 H   0  0  0  0  0  0  0  0  0  0  0  0  # atno 10764 bound_to 10752
  154.2012  135.6483  153.5140 H   0  0  0  0  0  0  0  0  0  0  0  0  # atno 10765 bound_to 10752
  140.0885  134.5242  155.8876 H   0  0  0  0  0  0  0  0  0  0  0  0  # atno 11005 bound_to 11000
  144.8489  139.5353  143.6865 LP  0  0  0  0  0  0  0  0  0  0  0  0  # atno 17320 bound_to 7965
  146.2830  139.6928  142.9215 LP  0  0  0  0  0  0  0  0  0  0  0  0  # atno 17321 bound_to 7965
  139.7167  144.7610  151.1023 LP  0  0  0  0  0  0  0  0  0  0  0  0  # atno 17342 bound_to 10162
  140.7738  143.5261  150.9479 LP  0  0  0  0  0  0  0  0  0  0  0  0  # atno 17343 bound_to 10162
  157.7132  130.9465  150.1161 LP  0  0  0  0  0  0  0  0  0  0  0  0  # atno 17370 bound_to 10713
  156.2063  130.3663  149.8726 LP  0  0  0  0  0  0  0  0  0  0  0  0  # atno 17371 bound_to 10713
  141.2070  133.6660  156.6279 LP  0  0  0  0  0  0  0  0  0  0  0  0  # atno 17394 bound_to 11000
  140.3386  134.7868  157.4381 LP  0  0  0  0  0  0  0  0  0  0  0  0  # atno 17395 bound_to 11000

$$$$
