AV-unprocessed.smi:140|AV-procd|sdf|1186|dock9
  -GOLD-   2262018343D 1   1.00000     0.00000
 Structure written by MMmdl.
 52 55  0  0  0  0  0  0  0  0  1 V2000
  149.8703  141.9322  156.9252 C   0  0  0  0  0  0  0  0  0  0  0  0
  150.2248  140.6290  157.5669 C   0  0  0  0  0  0  0  0  0  0  0  0
  149.4408  139.5391  157.8047 C   0  0  0  0  0  0  0  0  0  0  0  0
  150.2314  138.5415  158.4394 C   0  0  0  0  0  0  0  0  0  0  0  0
  149.8153  137.1945  158.9054 C   0  0  0  0  0  0  0  0  0  0  0  0
  150.5815  136.4061  159.4615 O   0  0  0  0  0  0  0  0  0  0  0  0
  148.3400  136.8280  158.6568 C   0  0  0  0  0  0  0  0  0  0  0  0
  147.7981  135.9261  159.6652 N   0  0  0  0  0  0  0  0  0  0  0  0
  147.0523  136.4921  160.7295 C   0  0  0  0  0  0  0  0  0  0  0  0
  146.8547  137.7051  160.8189 O   0  0  0  0  0  0  0  0  0  0  0  0
  146.5566  135.5248  161.7023 C   0  0  0  0  0  0  0  0  0  0  0  0
  145.8253  135.9490  162.7470 F   0  0  0  0  0  0  0  0  0  0  0  0
  146.8189  134.2062  161.5727 C   0  0  0  0  0  0  0  0  0  0  0  0
  147.5659  133.6829  160.5296 N   0  0  0  0  0  0  0  0  0  0  0  0
  147.8555  132.2022  160.4113 C   0  0  1  0  0  0  0  0  0  0  0  0
  148.3548  131.6394  161.7548 C   0  0  0  0  0  0  0  0  0  0  0  0
  147.4724  130.4235  161.9542 C   0  0  0  0  0  0  0  0  0  0  0  0
  146.1951  130.8443  161.2433 C   0  0  0  0  0  0  0  0  0  0  0  0
  146.6819  131.5124  160.0864 O   0  0  0  0  0  0  0  0  0  0  0  0
  148.0806  134.5450  159.5372 C   0  0  0  0  0  0  0  0  0  0  0  0
  148.7585  134.1016  158.6070 O   0  0  0  0  0  0  0  0  0  0  0  0
  151.5049  139.0467  158.5668 C   0  0  0  0  0  0  0  0  0  0  0  0
  152.7495  138.4314  159.1447 C   0  0  0  0  0  0  0  0  0  0  0  0
  151.4986  140.3415  158.0436 N   0  0  0  0  0  0  0  0  0  0  0  0
  152.6396  141.2512  157.9931 C   0  0  0  0  0  0  0  0  0  0  0  0
  152.5536  142.3551  159.0003 C   0  0  0  0  0  0  0  0  0  0  0  0
  152.7475  142.2825  160.3572 C   0  0  0  0  0  0  0  0  0  0  0  0
  152.5850  143.5360  161.0163 C   0  0  0  0  0  0  0  0  0  0  0  0
  152.2710  144.5520  160.1537 C   0  0  0  0  0  0  0  0  0  0  0  0
  152.1705  143.9862  158.5093 S   0  0  0  0  0  0  0  0  0  0  0  0
  148.8616  141.8993  156.5129 H   0  0  0  0  0  0  0  0  0  0  0  0
  150.5535  142.1688  156.1094 H   0  0  0  0  0  0  0  0  0  0  0  0
  149.9068  142.7456  157.6501 H   0  0  0  0  0  0  0  0  0  0  0  0
  148.3938  139.4704  157.5486 H   0  0  0  0  0  0  0  0  0  0  0  0
  147.7147  137.7215  158.6297 H   0  0  0  0  0  0  0  0  0  0  0  0
  148.2128  136.3575  157.6807 H   0  0  0  0  0  0  0  0  0  0  0  0
  146.4186  133.5477  162.3281 H   0  0  0  0  0  0  0  0  0  0  0  0
  148.5690  132.1021  159.5915 H   0  0  0  0  0  0  0  0  0  0  0  0
  149.4175  131.3996  161.7095 H   0  0  0  0  0  0  0  0  0  0  0  0
  148.1884  132.3647  162.5530 H   0  0  0  0  0  0  0  0  0  0  0  0
  147.9087  129.5563  161.4571 H   0  0  0  0  0  0  0  0  0  0  0  0
  147.3153  130.1754  163.0042 H   0  0  0  0  0  0  0  0  0  0  0  0
  145.5588  129.9993  160.9804 H   0  0  0  0  0  0  0  0  0  0  0  0
  145.6172  131.5327  161.8614 H   0  0  0  0  0  0  0  0  0  0  0  0
  152.8785  137.4099  158.7874 H   0  0  0  0  0  0  0  0  0  0  0  0
  152.6927  138.4027  160.2329 H   0  0  0  0  0  0  0  0  0  0  0  0
  153.6566  138.9670  158.8725 H   0  0  0  0  0  0  0  0  0  0  0  0
  153.5622  140.6920  158.1436 H   0  0  0  0  0  0  0  0  0  0  0  0
  152.7147  141.6581  156.9844 H   0  0  0  0  0  0  0  0  0  0  0  0
  152.9948  141.3800  160.8963 H   0  0  0  0  0  0  0  0  0  0  0  0
  152.7017  143.6461  162.0844 H   0  0  0  0  0  0  0  0  0  0  0  0
  152.0937  145.5927  160.3820 H   0  0  0  0  0  0  0  0  0  0  0  0
  1  2  1  0  0  0  0
  1 31  1  0  0  0  0
  1 32  1  0  0  0  0
  1 33  1  0  0  0  0
  2 24  1  0  0  0  0
  2  3  2  0  0  0  0
  3  4  1  0  0  0  0
  3 34  1  0  0  0  0
  4  5  1  0  0  0  0
  4 22  2  0  0  0  0
  5  6  2  0  0  0  0
  5  7  1  0  0  0  0
  7  8  1  0  0  0  0
  7 35  1  0  0  0  0
  7 36  1  0  0  0  0
  8 20  1  0  0  0  0
  8  9  1  0  0  0  0
  9 10  2  0  0  0  0
  9 11  1  0  0  0  0
 11 12  1  0  0  0  0
 11 13  2  0  0  0  0
 13 14  1  0  0  0  0
 13 37  1  0  0  0  0
 14 15  1  0  0  0  0
 14 20  1  0  0  0  0
 15 19  1  0  0  0  0
 15 16  1  0  0  0  0
 15 38  1  0  0  0  0
 16 17  1  0  0  0  0
 16 39  1  0  0  0  0
 16 40  1  0  0  0  0
 17 18  1  0  0  0  0
 17 41  1  0  0  0  0
 17 42  1  0  0  0  0
 18 19  1  0  0  0  0
 18 43  1  0  0  0  0
 18 44  1  0  0  0  0
 20 21  2  0  0  0  0
 22 23  1  0  0  0  0
 22 24  1  0  0  0  0
 23 45  1  0  0  0  0
 23 46  1  0  0  0  0
 23 47  1  0  0  0  0
 24 25  1  0  0  0  0
 25 26  1  0  0  0  0
 25 48  1  0  0  0  0
 25 49  1  0  0  0  0
 26 30  1  0  0  0  0
 26 27  2  0  0  0  0
 27 28  1  0  0  0  0
 27 50  1  0  0  0  0
 28 29  2  0  0  0  0
 28 51  1  0  0  0  0
 29 30  1  0  0  0  0
 29 52  1  0  0  0  0
M  END
> <s_m_source_file>
AV-unprocessed.smi

> <i_m_source_file_index>
140

> <i_lp_mmshare_version>
43012

> <i_f3d_flags>
0

> <s_epik_input>
czFbY0hdW2NIXVtjSF1jMVtDSDJdbjJjKFtDSDNdKWMoW2NIXWMyW0NIM10pQyg9TylbQ0gyXW4zYyg9TyljKEYpW2NIXW4oYzM9TylbQ0BASF00W0NIMl1bQ0gyXVtDSDJdTzQ=

> <s_epik_cmdline>
J2VwaWtfcHl0aG9uJywgJy1waCcsICc3LjAnLCAnLXRuJywgJzgnLCAnLW1hJywgJzIwMCcsICctbWV0YWxfYmluZGluZycsICctaW1hZScsICc8aW5maWxlLm1hZT4nLCAnLW9tYWUnLCAnPG91dGZpbGUubWFlPic=

> <r_lp_tautomer_probability>
1

> <r_epik_Ionization_Penalty>
5.024e-09

> <r_epik_Ionization_Penalty_Charging>
5.01743e-09

> <r_epik_Ionization_Penalty_Neutral>
6.5712e-12

> <r_epik_State_Penalty>
-0

> <r_epik_Charging_Adjusted_Penalty>
5.01743e-09

> <i_epik_Tot_Q>
0

> <i_epik_Tot_abs_Q>
0

> <r_epik_Metal_State_Penalty>
-0

> <b_epik_Metal_Only>
0

> <s_epik_Chemistry_Notes>
This compound contains an acetal/aminal-like group ( X-CH(R)-Y where X, Y are N, S, or O) that may be acid/base labile, releasing an aldehyde.

> <s_lp_Force_Field>
OPLS_2005

> <r_lp_Energy>
38.6163

> <b_lp_Chiralities_Consistent>
1

> <s_lp_Variant>
AV-unprocessed.smi:140-2

> <Gold.Version>
5.8.1

> <Gold.Id.Protein>
6NUR|6NUR_protein|mol2

> <Gold.PLP.Fitness>
54.8168

> <Gold.PLP.PLP>
-51.2686

> <Gold.PLP.part.hbond>
-3.2816

> <Gold.PLP.part.metal>
0.0000

> <Gold.PLP.part.buried>
-6.3276

> <Gold.PLP.part.nonpolar>
-41.5933

> <Gold.PLP.part.repulsive>
0.0000

> <Gold.PLP.ligand.clash>
0.0000

> <Gold.PLP.ligand.torsion>
1.2490

> <Gold.PLP.Chemscore.Hbond>
1.9920

> <Gold.PLP.Chemscore.CHOScore>
0.0000

> <Gold.PLP.Chemscore.Metal>
0.0000

> <Gold.Chemscore.Hbonds>
donor molecule, donor type, donor heavy atom, donor atom, acceptor molecule, acceptor atom, score
      P1  H  6896  6907       L1     6  1.00
      P1  H  6934  6947       L1    10  0.57

> <Gold.PLP.Chemscore.Internal.Correction>
0.0702

> <Gold.Rescore>
     Score         DG    S(hbond)    S(metal)    S(lipo)     H(rot)  DE(clash)    DE(int)     intcor
     18.98     -21.42       1.95        0.00     121.53       1.87       0.05       2.39       ----

> <Gold.Chemscore.Fitness>
18.9838

> <Gold.Chemscore.DG>
-21.4164

> <Gold.Chemscore.ZeroCoef>
-5.4800

> <Gold.Chemscore.Hbond>
1.9484

> <Gold.Chemscore.Metal>
0.0000

> <Gold.Chemscore.Lipo>
121.5309

> <Gold.Chemscore.Internal_Hbond>
0.0000

> <Gold.Chemscore.DEClash>
0.0456

> <Gold.Chemscore.DEInternal>
2.3870

> <Gold.Chemscore.Rot>
1.8713

> <Gold.Chemscore.Internal.Correction>
   9.000000E+99

> <Gold.Chemscore.Hbonds>
donor molecule, donor type, donor heavy atom, donor atom, acceptor molecule, acceptor atom, score
      P1  H  6896  6907       L1     6  0.92
      P1  H  6934  6947       L1    10  0.56

> <Gold.Chemscore.Hbond.Weighted>
-6.5078

> <Gold.Chemscore.Metal.Weighted>
-0.0000

> <Gold.Chemscore.Lipo.Weighted>
-14.2191

> <Gold.Chemscore.Internal_Hbond.Weighted>
0.0000

> <Gold.Chemscore.DEClash.Weighted>
0.0456

> <Gold.Chemscore.DEInternal.Weighted>
2.3870

> <Gold.Chemscore.Rot.Weighted>
4.7905

> <Gold.Chemscore.Internal.Correction.Weighted>
   9.000000E+99

> <Gold.Protein.RotatedTorsions>
[ 6907 6896 6895 6894 ] final  -45.93 input  -60.11 | X-H torsion
[ 7974 7965 7964 7962 ] final -106.22 input  175.53 | X-H torsion
[ 8008 7997 7996 7995 ] final  150.08 input   59.86 | X-H torsion
[ 10167 10162 10161 10158 ] final  133.24 input  -65.29 | X-H torsion
[ 10718 10713 10712 10709 ] final  -94.43 input   66.30 | X-H torsion
[ 10763 10752 10751 10750 ] final  160.81 input  -60.55 | X-H torsion
[ 11005 11000 10999 10996 ] final  -65.59 input  -57.11 | X-H torsion

> <Gold.Protein.ActiveResidues>
 VAL166  LYS551  ARG553  GLY616  TRP617  ASP618  TYR619  PRO620  LYS621  CYS622 
 ASP623  PHE694  ASN695  SER759  ASP760  ASP761  ALA762  ILE779  LEU786  VAL792 
 PHE793  MET794  SER795  GLU796  ALA797  LYS798  CYS799  TRP800  GLU811  SER814 

> <Gold.Protein.RotatedAtoms>
  150.9167  134.8584  159.7461 H   0  0  0  0  0  0  0  0  0  0  0  0  # atno 6907 bound_to 6896
  152.4972  134.4279  159.9512 H   0  0  0  0  0  0  0  0  0  0  0  0  # atno 6908 bound_to 6896
  151.4316  133.3629  159.2804 H   0  0  0  0  0  0  0  0  0  0  0  0  # atno 6909 bound_to 6896
  145.2206  140.9133  143.3261 H   0  0  0  0  0  0  0  0  0  0  0  0  # atno 7974 bound_to 7965
  156.2730  140.2084  156.5960 H   0  0  0  0  0  0  0  0  0  0  0  0  # atno 8008 bound_to 7997
  154.6944  140.0527  157.0419 H   0  0  0  0  0  0  0  0  0  0  0  0  # atno 8009 bound_to 7997
  155.0821  140.3188  155.4601 H   0  0  0  0  0  0  0  0  0  0  0  0  # atno 8010 bound_to 7997
  139.5305  144.6625  151.4967 H   0  0  0  0  0  0  0  0  0  0  0  0  # atno 10167 bound_to 10162
  156.0027  130.5067  150.5925 H   0  0  0  0  0  0  0  0  0  0  0  0  # atno 10718 bound_to 10713
  154.2531  135.2771  155.2808 H   0  0  0  0  0  0  0  0  0  0  0  0  # atno 10763 bound_to 10752
  154.5448  135.5692  153.6873 H   0  0  0  0  0  0  0  0  0  0  0  0  # atno 10764 bound_to 10752
  152.9976  135.6260  154.2679 H   0  0  0  0  0  0  0  0  0  0  0  0  # atno 10765 bound_to 10752
  141.1458  133.6684  156.6009 H   0  0  0  0  0  0  0  0  0  0  0  0  # atno 11005 bound_to 11000
  144.9769  139.3823  143.6281 LP  0  0  0  0  0  0  0  0  0  0  0  0  # atno 17320 bound_to 7965
  146.3377  139.8892  142.8812 LP  0  0  0  0  0  0  0  0  0  0  0  0  # atno 17321 bound_to 7965
  140.6480  143.8754  150.6757 LP  0  0  0  0  0  0  0  0  0  0  0  0  # atno 17342 bound_to 10162
  140.2110  143.3883  152.1718 LP  0  0  0  0  0  0  0  0  0  0  0  0  # atno 17343 bound_to 10162
  157.3787  131.0777  151.1495 LP  0  0  0  0  0  0  0  0  0  0  0  0  # atno 17370 bound_to 10713
  157.2225  130.6488  149.5817 LP  0  0  0  0  0  0  0  0  0  0  0  0  # atno 17371 bound_to 10713
  140.3689  134.7623  157.4585 LP  0  0  0  0  0  0  0  0  0  0  0  0  # atno 17394 bound_to 11000
  140.0726  134.5841  155.8625 LP  0  0  0  0  0  0  0  0  0  0  0  0  # atno 17395 bound_to 11000

$$$$
