AV-unprocessed.smi:2270|AV-procd|sdf|9154|dock1
  -GOLD-   2272012363D 1   1.00000     0.00000
 Structure written by MMmdl.
 53 54  0  0  0  0  0  0  0  0  2 V2000
  145.0101  132.3588  150.2588 C   0  0  0  0  0  0  0  0  0  0  0  0
  144.6548  133.4840  151.2078 C   0  0  0  0  0  0  0  0  0  0  0  0
  143.3334  133.6579  151.6625 C   0  0  0  0  0  0  0  0  0  0  0  0
  143.0717  134.7186  152.5475 C   0  0  0  0  0  0  0  0  0  0  0  0
  144.1322  135.5606  152.9333 C   0  0  0  0  0  0  0  0  0  0  0  0
  145.4310  135.3264  152.4132 C   0  0  0  0  0  0  0  0  0  0  0  0
  146.5245  136.1414  152.8084 N   0  0  0  0  0  0  0  0  0  0  0  0
  146.5014  137.2549  153.5615 C   0  0  0  0  0  0  0  0  0  0  0  0
  145.4903  137.7652  154.0443 O   0  0  0  0  0  0  0  0  0  0  0  0
  147.7331  137.7603  153.7178 N   0  0  0  0  0  0  0  0  0  0  0  0
  148.0631  138.9433  154.5032 C   0  0  0  0  0  0  0  0  0  0  0  0
  149.5514  139.3805  154.3405 C   0  0  2  0  0  0  0  0  0  0  0  0
  150.5459  138.5257  155.2019 C   0  0  0  0  0  0  0  0  0  0  0  0
  151.9926  139.0518  155.1691 C   0  0  0  0  0  0  0  0  0  0  0  0
  150.4952  137.0164  154.8995 C   0  0  0  0  0  0  0  0  0  0  0  0
  149.7604  140.8187  154.6392 N   0  0  0  0  0  0  0  0  0  0  0  0
  149.0145  141.7470  153.7700 C   0  0  0  0  0  0  0  0  0  0  0  0
  147.5061  141.7874  154.1001 C   0  0  0  0  0  0  0  0  0  0  0  0
  147.2941  142.1658  155.5152 N   0  3  0  0  0  0  0  0  0  0  0  0
  145.8637  142.2628  155.8747 C   0  0  0  0  0  0  0  0  0  0  0  0
  148.0526  141.2619  156.4078 C   0  0  0  0  0  0  0  0  0  0  0  0
  149.5467  141.2733  156.0218 C   0  0  0  0  0  0  0  0  0  0  0  0
  145.6741  134.2892  151.5789 N   0  0  0  0  0  0  0  0  0  0  0  0
  144.1380  131.7469  150.0267 H   0  0  0  0  0  0  0  0  0  0  0  0
  145.7700  131.7144  150.7015 H   0  0  0  0  0  0  0  0  0  0  0  0
  145.4014  132.7611  149.3241 H   0  0  0  0  0  0  0  0  0  0  0  0
  142.5405  132.9951  151.3479 H   0  0  0  0  0  0  0  0  0  0  0  0
  142.0747  134.8818  152.9289 H   0  0  0  0  0  0  0  0  0  0  0  0
  143.9363  136.3626  153.6290 H   0  0  0  0  0  0  0  0  0  0  0  0
  147.4120  135.9034  152.3910 H   0  0  0  0  0  0  0  0  0  0  0  0
  148.5033  137.2768  153.2793 H   0  0  0  0  0  0  0  0  0  0  0  0
  147.3830  139.7143  154.1448 H   0  0  0  0  0  0  0  0  0  0  0  0
  147.8287  138.7912  155.5582 H   0  0  0  0  0  0  0  0  0  0  0  0
  149.7988  139.2293  153.2908 H   0  0  0  0  0  0  0  0  0  0  0  0
  150.2717  138.6065  156.2502 H   0  0  0  0  0  0  0  0  0  0  0  0
  152.4834  138.8760  154.2136 H   0  0  0  0  0  0  0  0  0  0  0  0
  152.5976  138.5563  155.9288 H   0  0  0  0  0  0  0  0  0  0  0  0
  152.0285  140.1219  155.3748 H   0  0  0  0  0  0  0  0  0  0  0  0
  150.8893  136.7822  153.9109 H   0  0  0  0  0  0  0  0  0  0  0  0
  149.4737  136.6385  154.9513 H   0  0  0  0  0  0  0  0  0  0  0  0
  151.0873  136.4552  155.6230 H   0  0  0  0  0  0  0  0  0  0  0  0
  149.4337  142.7458  153.8996 H   0  0  0  0  0  0  0  0  0  0  0  0
  149.1434  141.5196  152.7147 H   0  0  0  0  0  0  0  0  0  0  0  0
  147.0181  142.5232  153.4598 H   0  0  0  0  0  0  0  0  0  0  0  0
  147.0280  140.8302  153.8905 H   0  0  0  0  0  0  0  0  0  0  0  0
  145.3681  141.2957  155.7776 H   0  0  0  0  0  0  0  0  0  0  0  0
  145.3526  142.9757  155.2270 H   0  0  0  0  0  0  0  0  0  0  0  0
  145.7484  142.6053  156.9035 H   0  0  0  0  0  0  0  0  0  0  0  0
  147.9418  141.5997  157.4388 H   0  0  0  0  0  0  0  0  0  0  0  0
  147.6363  140.2551  156.3582 H   0  0  0  0  0  0  0  0  0  0  0  0
  150.1402  140.6932  156.7273 H   0  0  0  0  0  0  0  0  0  0  0  0
  149.9287  142.2915  156.1109 H   0  0  0  0  0  0  0  0  0  0  0  0
  147.6895  143.0878  155.6328 H   0  0  0  0  0  0  0  0  0  0  0  0
  1  2  1  0  0  0  0
  1 24  1  0  0  0  0
  1 25  1  0  0  0  0
  1 26  1  0  0  0  0
  2 23  1  0  0  0  0
  2  3  2  0  0  0  0
  3  4  1  0  0  0  0
  3 27  1  0  0  0  0
  4  5  2  0  0  0  0
  4 28  1  0  0  0  0
  5  6  1  0  0  0  0
  5 29  1  0  0  0  0
  6  7  1  0  0  0  0
  6 23  2  0  0  0  0
  7  8  1  0  0  0  0
  7 30  1  0  0  0  0
  8  9  2  0  0  0  0
  8 10  1  0  0  0  0
 10 11  1  0  0  0  0
 10 31  1  0  0  0  0
 11 12  1  0  0  0  0
 11 32  1  0  0  0  0
 11 33  1  0  0  0  0
 12 13  1  0  0  0  0
 12 16  1  0  0  0  0
 12 34  1  0  0  0  0
 13 14  1  0  0  0  0
 13 15  1  0  0  0  0
 13 35  1  0  0  0  0
 14 36  1  0  0  0  0
 14 37  1  0  0  0  0
 14 38  1  0  0  0  0
 15 39  1  0  0  0  0
 15 40  1  0  0  0  0
 15 41  1  0  0  0  0
 16 22  1  0  0  0  0
 16 17  1  0  0  0  0
 17 18  1  0  0  0  0
 17 42  1  0  0  0  0
 17 43  1  0  0  0  0
 18 19  1  0  0  0  0
 18 44  1  0  0  0  0
 18 45  1  0  0  0  0
 19 20  1  0  0  0  0
 19 21  1  0  0  0  0
 19 53  1  0  0  0  0
 20 46  1  0  0  0  0
 20 47  1  0  0  0  0
 20 48  1  0  0  0  0
 21 22  1  0  0  0  0
 21 49  1  0  0  0  0
 21 50  1  0  0  0  0
 22 51  1  0  0  0  0
 22 52  1  0  0  0  0
M  CHG  1  19   1
M  END
> <s_m_source_file>
AV-unprocessed.smi

> <i_m_source_file_index>
2270

> <i_lp_mmshare_version>
43012

> <i_f3d_flags>
0

> <s_epik_input>
W0NIM11jMVtjSF1bY0hdW2NIXWMobjEpW05IXUMoPU8pW05IXVtDSDJdW0NASF0oW0NIXShbQ0gzXSlbQ0gzXSlOMltDSDJdW0NIMl1OKFtDSDNdKVtDSDJdW0NIMl0y

> <s_epik_cmdline>
J2VwaWtfcHl0aG9uJywgJy1waCcsICc3LjAnLCAnLXRuJywgJzgnLCAnLW1hJywgJzIwMCcsICctbWV0YWxfYmluZGluZycsICctaW1hZScsICc8aW5maWxlLm1hZT4nLCAnLW9tYWUnLCAnPG91dGZpbGUubWFlPic=

> <r_epik_Ionization_Penalty>
0.0278292

> <r_epik_Ionization_Penalty_Charging>
0.0272987

> <r_epik_Ionization_Penalty_Neutral>
0.000530468

> <r_epik_State_Penalty>
0.0776825

> <r_epik_Charging_Adjusted_Penalty>
0.104981

> <i_epik_Tot_Q>
1

> <i_epik_Tot_abs_Q>
1

> <r_epik_Metal_State_Penalty>
0.0776809

> <b_epik_Metal_Only>
0

> <s_lp_Force_Field>
OPLS_2005

> <r_lp_Energy>
34.9975

> <b_lp_Chiralities_Consistent>
1

> <s_lp_Variant>
AV-unprocessed.smi:2270-1

> <Gold.Version>
5.8.1

> <Gold.Id.Protein>
6NUR|6NUR_protein|mol2

> <Gold.PLP.Fitness>
42.9703

> <Gold.PLP.PLP>
-33.1670

> <Gold.PLP.part.hbond>
-4.0000

> <Gold.PLP.part.metal>
0.0000

> <Gold.PLP.part.buried>
0.2051

> <Gold.PLP.part.nonpolar>
-29.2620

> <Gold.PLP.part.repulsive>
0.4339

> <Gold.PLP.ligand.clash>
2.4348

> <Gold.PLP.ligand.torsion>
0.3329

> <Gold.PLP.Chemscore.Hbond>
4.1882

> <Gold.PLP.Chemscore.CHOScore>
0.0000

> <Gold.PLP.Chemscore.Metal>
0.0000

> <Gold.Chemscore.Hbonds>
donor molecule, donor type, donor heavy atom, donor atom, acceptor molecule, acceptor atom, score
      L1  H     7    30       P1  7948  1.00
      L1  H    10    31       P1  7948  0.88
      L1  H    19    53       P1  8028  2.00
      P1  H  7989  7998       L1    16  0.22

> <Gold.PLP.Chemscore.Internal.Correction>
0.3392

> <Gold.Rescore>
     Score         DG    S(hbond)    S(metal)    S(lipo)     H(rot)  DE(clash)    DE(int)     intcor
     15.58     -21.39       2.79        0.00      91.64       1.61       2.03       3.77       ----

> <Gold.Chemscore.Fitness>
15.5847

> <Gold.Chemscore.DG>
-21.3916

> <Gold.Chemscore.ZeroCoef>
-5.4800

> <Gold.Chemscore.Hbond>
2.7854

> <Gold.Chemscore.Metal>
0.0000

> <Gold.Chemscore.Lipo>
91.6422

> <Gold.Chemscore.Internal_Hbond>
0.0000

> <Gold.Chemscore.DEClash>
2.0335

> <Gold.Chemscore.DEInternal>
3.7734

> <Gold.Chemscore.Rot>
1.6070

> <Gold.Chemscore.Internal.Correction>
   9.000000E+99

> <Gold.Chemscore.Hbonds>
donor molecule, donor type, donor heavy atom, donor atom, acceptor molecule, acceptor atom, score
      L1  H     7    30       P1  7948  0.98
      L1  H    10    31       P1  7948  0.87
      L1  H    19    53       P1  8028  0.34

> <Gold.Chemscore.Hbond.Weighted>
-9.3034

> <Gold.Chemscore.Metal.Weighted>
-0.0000

> <Gold.Chemscore.Lipo.Weighted>
-10.7221

> <Gold.Chemscore.Internal_Hbond.Weighted>
0.0000

> <Gold.Chemscore.DEClash.Weighted>
2.0335

> <Gold.Chemscore.DEInternal.Weighted>
3.7734

> <Gold.Chemscore.Rot.Weighted>
4.1140

> <Gold.Chemscore.Internal.Correction.Weighted>
   9.000000E+99

> <Gold.Protein.RotatedTorsions>
[ 6907 6896 6895 6894 ] final   36.99 input  -60.11 | X-H torsion
[ 7974 7965 7964 7962 ] final   26.33 input  175.53 | X-H torsion
[ 8008 7997 7996 7995 ] final   81.82 input   59.86 | X-H torsion
[ 10167 10162 10161 10158 ] final  176.85 input  -65.29 | X-H torsion
[ 10718 10713 10712 10709 ] final  156.91 input   66.30 | X-H torsion
[ 10763 10752 10751 10750 ] final -143.54 input  -60.55 | X-H torsion
[ 11005 11000 10999 10996 ] final   -5.66 input  -57.11 | X-H torsion

> <Gold.Protein.ActiveResidues>
 VAL166  LYS551  ARG553  GLY616  TRP617  ASP618  TYR619  PRO620  LYS621  CYS622 
 ASP623  PHE694  ASN695  SER759  ASP760  ASP761  ALA762  ILE779  LEU786  VAL792 
 PHE793  MET794  SER795  GLU796  ALA797  LYS798  CYS799  TRP800  GLU811  SER814 

> <Gold.Protein.RotatedAtoms>
  152.1371  134.9090  160.0555 H   0  0  0  0  0  0  0  0  0  0  0  0  # atno 6907 bound_to 6896
  152.0173  133.3879  159.4252 H   0  0  0  0  0  0  0  0  0  0  0  0  # atno 6908 bound_to 6896
  150.6861  134.3587  159.4984 H   0  0  0  0  0  0  0  0  0  0  0  0  # atno 6909 bound_to 6896
  146.1843  139.7343  142.8878 H   0  0  0  0  0  0  0  0  0  0  0  0  # atno 7974 bound_to 7965
  155.9023  140.3432  155.6036 H   0  0  0  0  0  0  0  0  0  0  0  0  # atno 8008 bound_to 7997
  155.7485  140.0817  157.2231 H   0  0  0  0  0  0  0  0  0  0  0  0  # atno 8009 bound_to 7997
  154.4045  140.1557  156.2684 H   0  0  0  0  0  0  0  0  0  0  0  0  # atno 8010 bound_to 7997
  139.5230  144.2867  152.0499 H   0  0  0  0  0  0  0  0  0  0  0  0  # atno 10167 bound_to 10162
  157.1986  131.0671  151.2038 H   0  0  0  0  0  0  0  0  0  0  0  0  # atno 10718 bound_to 10713
  154.8465  135.3465  154.6204 H   0  0  0  0  0  0  0  0  0  0  0  0  # atno 10763 bound_to 10752
  153.6813  135.6980  153.5122 H   0  0  0  0  0  0  0  0  0  0  0  0  # atno 10764 bound_to 10752
  153.2666  135.4306  155.0903 H   0  0  0  0  0  0  0  0  0  0  0  0  # atno 10765 bound_to 10752
  140.6935  133.9050  155.8634 H   0  0  0  0  0  0  0  0  0  0  0  0  # atno 11005 bound_to 11000
  145.3985  141.0382  143.3084 LP  0  0  0  0  0  0  0  0  0  0  0  0  # atno 17320 bound_to 7965
  144.8369  139.5535  143.6918 LP  0  0  0  0  0  0  0  0  0  0  0  0  # atno 17321 bound_to 7965
  140.2320  144.4358  150.6296 LP  0  0  0  0  0  0  0  0  0  0  0  0  # atno 17342 bound_to 10162
  140.6349  143.2193  151.6417 LP  0  0  0  0  0  0  0  0  0  0  0  0  # atno 17343 bound_to 10162
  157.3789  130.7221  149.6616 LP  0  0  0  0  0  0  0  0  0  0  0  0  # atno 17370 bound_to 10713
  155.9703  130.4178  150.4296 LP  0  0  0  0  0  0  0  0  0  0  0  0  # atno 17371 bound_to 10713
  141.0222  134.0873  157.4108 LP  0  0  0  0  0  0  0  0  0  0  0  0  # atno 17394 bound_to 11000
  139.8916  135.0120  156.6803 LP  0  0  0  0  0  0  0  0  0  0  0  0  # atno 17395 bound_to 11000

$$$$
