AV-unprocessed.smi:1867|AV-procd|sdf|7580|dock9
  -GOLD-   22720 9293D 1   1.00000     0.00000
 Structure written by MMmdl.
 52 55  0  0  0  0  0  0  0  0  4 V2000
  146.6723  139.9434  154.5329 O   0  0  0  0  0  0  0  0  0  0  0  0
  147.3687  138.9411  154.3834 C   0  0  0  0  0  0  0  0  0  0  0  0
  148.6302  138.9370  154.8815 N   0  0  0  0  0  0  0  0  0  0  0  0
  149.3012  139.9401  155.6307 C   0  0  0  0  0  0  0  0  0  0  0  0
  150.1239  139.5261  156.6985 C   0  0  0  0  0  0  0  0  0  0  0  0
  150.7936  140.4892  157.4804 C   0  0  0  0  0  0  0  0  0  0  0  0
  150.6252  141.8647  157.1936 C   0  0  0  0  0  0  0  0  0  0  0  0
  151.2597  142.8802  157.9337 N   0  0  0  0  0  0  0  0  0  0  0  0
  151.7598  144.0857  157.2915 C   0  0  0  0  0  0  0  0  0  0  0  0
  152.5328  144.8145  158.3893 C   0  0  0  0  0  0  0  0  0  0  0  0
  153.0963  143.6696  159.2317 C   0  0  0  0  0  0  0  0  0  0  0  0
  152.0324  142.5702  159.1289 C   0  0  0  0  0  0  0  0  0  0  0  0
  149.8056  142.2168  156.1744 N   0  3  0  0  0  0  0  0  0  0  0  0
  149.1482  141.3273  155.3993 C   0  0  0  0  0  0  0  0  0  0  0  0
  146.9031  137.8498  153.7032 N   0  5  0  0  0  0  0  0  0  0  0  0
  145.7599  137.7469  152.7831 C   0  0  2  0  0  0  0  0  0  0  0  0
  144.4089  137.7056  153.5126 C   0  0  0  0  0  0  0  0  0  0  0  0
  143.4885  136.8980  152.5806 C   0  0  0  0  0  0  0  0  0  0  0  0
  144.3532  136.3913  151.4903 N   0  3  2  0  0  0  0  0  0  0  0  0
  143.9230  135.1340  150.8261 C   0  0  0  0  0  0  0  0  0  0  0  0
  144.2903  133.8797  151.6349 C   0  0  0  0  0  0  0  0  0  0  0  0
  145.7830  133.8796  151.9779 C   0  0  0  0  0  0  0  0  0  0  0  0
  146.1243  135.1493  152.7653 C   0  0  0  0  0  0  0  0  0  0  0  0
  145.7553  136.4379  151.9686 C   0  0  2  0  0  0  0  0  0  0  0  0
  149.1880  138.1325  154.6369 H   0  0  0  0  0  0  0  0  0  0  0  0
  150.2477  138.4752  156.9167 H   0  0  0  0  0  0  0  0  0  0  0  0
  151.4220  140.1611  158.2950 H   0  0  0  0  0  0  0  0  0  0  0  0
  152.4243  143.8138  156.4700 H   0  0  0  0  0  0  0  0  0  0  0  0
  150.9493  144.6976  156.8941 H   0  0  0  0  0  0  0  0  0  0  0  0
  153.3040  145.4783  157.9975 H   0  0  0  0  0  0  0  0  0  0  0  0
  151.8466  145.4117  158.9919 H   0  0  0  0  0  0  0  0  0  0  0  0
  154.0290  143.3182  158.7882 H   0  0  0  0  0  0  0  0  0  0  0  0
  153.3055  143.9610  160.2614 H   0  0  0  0  0  0  0  0  0  0  0  0
  151.3682  142.5934  159.9936 H   0  0  0  0  0  0  0  0  0  0  0  0
  152.4962  141.5845  159.0785 H   0  0  0  0  0  0  0  0  0  0  0  0
  148.5190  141.7621  154.6369 H   0  0  0  0  0  0  0  0  0  0  0  0
  145.7359  138.5775  152.0749 H   0  0  0  0  0  0  0  0  0  0  0  0
  144.4977  137.1926  154.4717 H   0  0  0  0  0  0  0  0  0  0  0  0
  144.0223  138.7057  153.7109 H   0  0  0  0  0  0  0  0  0  0  0  0
  143.0236  136.0780  153.1299 H   0  0  0  0  0  0  0  0  0  0  0  0
  142.6897  137.5119  152.1621 H   0  0  0  0  0  0  0  0  0  0  0  0
  142.8507  135.1682  150.6305 H   0  0  0  0  0  0  0  0  0  0  0  0
  144.4137  135.0872  149.8532 H   0  0  0  0  0  0  0  0  0  0  0  0
  143.7007  133.8373  152.5513 H   0  0  0  0  0  0  0  0  0  0  0  0
  144.0389  132.9846  151.0653 H   0  0  0  0  0  0  0  0  0  0  0  0
  146.0343  132.9954  152.5645 H   0  0  0  0  0  0  0  0  0  0  0  0
  146.3790  133.8328  151.0656 H   0  0  0  0  0  0  0  0  0  0  0  0
  145.6007  135.1022  153.7230 H   0  0  0  0  0  0  0  0  0  0  0  0
  147.1895  135.1422  153.0032 H   0  0  0  0  0  0  0  0  0  0  0  0
  146.4213  136.5234  151.1088 H   0  0  0  0  0  0  0  0  0  0  0  0
  144.3035  137.1091  150.7817 H   0  0  0  0  0  0  0  0  0  0  0  0
  149.6752  143.2094  155.9792 H   0  0  0  0  0  0  0  0  0  0  0  0
  1  2  2  0  0  0  0
  2  3  1  0  0  0  0
  2 15  1  0  0  0  0
  3  4  1  0  0  0  0
  3 25  1  0  0  0  0
  4 14  1  0  0  0  0
  4  5  2  0  0  0  0
  5  6  1  0  0  0  0
  5 26  1  0  0  0  0
  6  7  2  0  0  0  0
  6 27  1  0  0  0  0
  7  8  1  0  0  0  0
  7 13  1  0  0  0  0
  8 12  1  0  0  0  0
  8  9  1  0  0  0  0
  9 10  1  0  0  0  0
  9 28  1  0  0  0  0
  9 29  1  0  0  0  0
 10 11  1  0  0  0  0
 10 30  1  0  0  0  0
 10 31  1  0  0  0  0
 11 12  1  0  0  0  0
 11 32  1  0  0  0  0
 11 33  1  0  0  0  0
 12 34  1  0  0  0  0
 12 35  1  0  0  0  0
 13 14  2  0  0  0  0
 13 52  1  0  0  0  0
 14 36  1  0  0  0  0
 15 16  1  0  0  0  0
 16 24  1  0  0  0  0
 16 17  1  0  0  0  0
 16 37  1  0  0  0  0
 17 18  1  0  0  0  0
 17 38  1  0  0  0  0
 17 39  1  0  0  0  0
 18 19  1  0  0  0  0
 18 40  1  0  0  0  0
 18 41  1  0  0  0  0
 19 24  1  0  0  0  0
 19 20  1  0  0  0  0
 19 51  1  0  0  0  0
 20 21  1  0  0  0  0
 20 42  1  0  0  0  0
 20 43  1  0  0  0  0
 21 22  1  0  0  0  0
 21 44  1  0  0  0  0
 21 45  1  0  0  0  0
 22 23  1  0  0  0  0
 22 46  1  0  0  0  0
 22 47  1  0  0  0  0
 23 24  1  0  0  0  0
 23 48  1  0  0  0  0
 23 49  1  0  0  0  0
 24 50  1  0  0  0  0
M  CHG  1  13   1
M  CHG  1  15  -1
M  CHG  1  19   1
M  END
> <s_m_source_file>
AV-unprocessed.smi

> <i_m_source_file_index>
1867

> <i_lp_mmshare_version>
43012

> <i_f3d_flags>
0

> <s_epik_input>
W0NIMl0xW0NIMl1bQ0gyXVtDSDJdW0NASF0oTjEyKVtDQEBIXShbQ0gyXVtDSDJdMilbTkhdQyg9TylbTkhdYzNbY0hdW2NIXWMobltjSF0zKU40W0NIMl1bQ0gyXVtDSDJdW0NIMl00

> <s_epik_cmdline>
J2VwaWtfcHl0aG9uJywgJy1waCcsICc3LjAnLCAnLXRuJywgJzgnLCAnLW1hJywgJzIwMCcsICctbWV0YWxfYmluZGluZycsICctaW1hZScsICc8aW5maWxlLm1hZT4nLCAnLW9tYWUnLCAnPG91dGZpbGUubWFlPic=

> <r_lp_tautomer_probability>
0.999994

> <r_epik_Ionization_Penalty>
8.56137

> <r_epik_Ionization_Penalty_Charging>
8.56136

> <r_epik_Ionization_Penalty_Neutral>
3.91889e-06

> <r_epik_State_Penalty>
8.16255

> <r_epik_Charging_Adjusted_Penalty>
16.7239

> <i_epik_Tot_Q>
1

> <i_epik_Tot_abs_Q>
3

> <r_epik_Metal_State_Penalty>
4.14279

> <b_epik_Metal_Only>
1

> <s_lp_Force_Field>
OPLS_2005

> <r_lp_Energy>
70.2226

> <b_lp_Chiralities_Consistent>
1

> <s_lp_Variant>
AV-unprocessed.smi:1867-21

> <Gold.Version>
5.8.1

> <Gold.Id.Protein>
6NUR|6NUR_protein|mol2

> <Gold.PLP.Fitness>
47.1724

> <Gold.PLP.PLP>
-39.6064

> <Gold.PLP.part.hbond>
-2.0000

> <Gold.PLP.part.metal>
0.0000

> <Gold.PLP.part.buried>
-1.4943

> <Gold.PLP.part.nonpolar>
-38.3486

> <Gold.PLP.part.repulsive>
1.1901

> <Gold.PLP.ligand.clash>
0.0000

> <Gold.PLP.ligand.torsion>
0.8441

> <Gold.PLP.Chemscore.Hbond>
3.0000

> <Gold.PLP.Chemscore.CHOScore>
0.0000

> <Gold.PLP.Chemscore.Metal>
0.0000

> <Gold.Chemscore.Hbonds>
donor molecule, donor type, donor heavy atom, donor atom, acceptor molecule, acceptor atom, score
      L1  H    13    52       P1  8028  2.00
      L1  H    19    51       P1 10171  1.00

> <Gold.PLP.Chemscore.Internal.Correction>
0.2542

> <Gold.Rescore>
     Score         DG    S(hbond)    S(metal)    S(lipo)     H(rot)  DE(clash)    DE(int)     intcor
     19.88     -22.24       1.99        0.00     108.26       1.00       0.60       1.76       ----

> <Gold.Chemscore.Fitness>
19.8812

> <Gold.Chemscore.DG>
-22.2413

> <Gold.Chemscore.ZeroCoef>
-5.4800

> <Gold.Chemscore.Hbond>
1.9926

> <Gold.Chemscore.Metal>
0.0000

> <Gold.Chemscore.Lipo>
108.2555

> <Gold.Chemscore.Internal_Hbond>
0.0000

> <Gold.Chemscore.DEClash>
0.5970

> <Gold.Chemscore.DEInternal>
1.7631

> <Gold.Chemscore.Rot>
1.0000

> <Gold.Chemscore.Internal.Correction>
   9.000000E+99

> <Gold.Chemscore.Hbonds>
donor molecule, donor type, donor heavy atom, donor atom, acceptor molecule, acceptor atom, score
      L1  H    13    52       P1  8028  1.00
      L1  H    19    51       P1 10171  1.00

> <Gold.Chemscore.Hbond.Weighted>
-6.6554

> <Gold.Chemscore.Metal.Weighted>
-0.0000

> <Gold.Chemscore.Lipo.Weighted>
-12.6659

> <Gold.Chemscore.Internal_Hbond.Weighted>
0.0000

> <Gold.Chemscore.DEClash.Weighted>
0.5970

> <Gold.Chemscore.DEInternal.Weighted>
1.7631

> <Gold.Chemscore.Rot.Weighted>
2.5600

> <Gold.Chemscore.Internal.Correction.Weighted>
   9.000000E+99

> <Gold.Protein.RotatedTorsions>
[ 6907 6896 6895 6894 ] final  -47.47 input  -60.11 | X-H torsion
[ 7974 7965 7964 7962 ] final  127.42 input  175.53 | X-H torsion
[ 8008 7997 7996 7995 ] final   53.40 input   59.86 | X-H torsion
[ 10167 10162 10161 10158 ] final -155.59 input  -65.29 | X-H torsion
[ 10718 10713 10712 10709 ] final -140.83 input   66.30 | X-H torsion
[ 10763 10752 10751 10750 ] final -113.30 input  -60.55 | X-H torsion
[ 11005 11000 10999 10996 ] final -162.21 input  -57.11 | X-H torsion

> <Gold.Protein.ActiveResidues>
 VAL166  LYS551  ARG553  GLY616  TRP617  ASP618  TYR619  PRO620  LYS621  CYS622 
 ASP623  PHE694  ASN695  SER759  ASP760  ASP761  ALA762  ILE779  LEU786  VAL792 
 PHE793  MET794  SER795  GLU796  ALA797  LYS798  CYS799  TRP800  GLU811  SER814 

> <Gold.Protein.RotatedAtoms>
  150.9004  134.8416  159.7355 H   0  0  0  0  0  0  0  0  0  0  0  0  # atno 6907 bound_to 6896
  152.4889  134.4511  159.9584 H   0  0  0  0  0  0  0  0  0  0  0  0  # atno 6908 bound_to 6896
  151.4563  133.3565  159.2838 H   0  0  0  0  0  0  0  0  0  0  0  0  # atno 6909 bound_to 6896
  145.0508  139.3884  143.5055 H   0  0  0  0  0  0  0  0  0  0  0  0  # atno 7974 bound_to 7965
  155.4676  140.3464  155.4321 H   0  0  0  0  0  0  0  0  0  0  0  0  # atno 8008 bound_to 7997
  156.1121  140.1464  156.9353 H   0  0  0  0  0  0  0  0  0  0  0  0  # atno 8009 bound_to 7997
  154.4763  140.0884  156.7250 H   0  0  0  0  0  0  0  0  0  0  0  0  # atno 8010 bound_to 7997
  139.6918  143.9407  152.2389 H   0  0  0  0  0  0  0  0  0  0  0  0  # atno 10167 bound_to 10162
  156.3269  130.7565  151.1674 H   0  0  0  0  0  0  0  0  0  0  0  0  # atno 10718 bound_to 10713
  154.8390  135.4459  154.1327 H   0  0  0  0  0  0  0  0  0  0  0  0  # atno 10763 bound_to 10752
  153.2533  135.6929  153.7662 H   0  0  0  0  0  0  0  0  0  0  0  0  # atno 10764 bound_to 10752
  153.6966  135.3378  155.3190 H   0  0  0  0  0  0  0  0  0  0  0  0  # atno 10765 bound_to 10752
  140.6118  134.4841  157.5216 H   0  0  0  0  0  0  0  0  0  0  0  0  # atno 11005 bound_to 11000
  146.3518  140.0157  142.8663 LP  0  0  0  0  0  0  0  0  0  0  0  0  # atno 17320 bound_to 7965
  145.1529  140.9633  143.4422 LP  0  0  0  0  0  0  0  0  0  0  0  0  # atno 17321 bound_to 7965
  139.9225  144.6791  150.8446 LP  0  0  0  0  0  0  0  0  0  0  0  0  # atno 17342 bound_to 10162
  140.7685  143.3364  151.2299 LP  0  0  0  0  0  0  0  0  0  0  0  0  # atno 17343 bound_to 10162
  157.7423  131.0492  150.5035 LP  0  0  0  0  0  0  0  0  0  0  0  0  # atno 17370 bound_to 10713
  156.5195  130.4158  149.6258 LP  0  0  0  0  0  0  0  0  0  0  0  0  # atno 17371 bound_to 10713
  139.9189  134.8189  156.1275 LP  0  0  0  0  0  0  0  0  0  0  0  0  # atno 17394 bound_to 11000
  141.0803  133.6757  156.2322 LP  0  0  0  0  0  0  0  0  0  0  0  0  # atno 17395 bound_to 11000

$$$$
