AV-unprocessed.smi:2344|AV-procd|sdf|9358|dock7
  -GOLD-   2272012583D 1   1.00000     0.00000
 Structure written by MMmdl.
 35 36  0  0  0  0  0  0  0  0  1 V2000
  150.9317  141.7840  156.8307 C   0  0  0  0  0  0  0  0  0  0  0  0
  150.1927  140.8003  155.9482 C   0  0  0  0  0  0  0  0  0  0  0  0
  150.7935  139.5934  155.5433 C   0  0  0  0  0  0  0  0  0  0  0  0
  150.0621  138.7133  154.7228 C   0  0  0  0  0  0  0  0  0  0  0  0
  148.7496  139.0580  154.3281 C   0  0  0  0  0  0  0  0  0  0  0  0
  148.1012  138.1036  153.4999 N   0  0  0  0  0  0  0  0  0  0  0  0
  146.7819  137.9187  153.3185 C   0  0  0  0  0  0  0  0  0  0  0  0
  145.8883  138.5688  153.8619 O   0  0  0  0  0  0  0  0  0  0  0  0
  146.5474  136.9174  152.4584 N   0  0  0  0  0  0  0  0  0  0  0  0
  145.2235  136.4538  152.0593 C   0  0  1  0  0  0  0  0  0  0  0  0
  145.1685  136.2331  150.5728 C   0  0  0  0  0  0  0  0  0  0  0  0
  144.8654  134.9780  150.2499 C   0  0  0  0  0  0  0  0  0  0  0  0
  144.6788  134.0913  151.4530 C   0  0  2  0  0  0  0  0  0  0  0  0
  143.3157  133.3804  151.4397 C   0  0  0  0  0  0  0  0  0  0  0  0
  143.1089  132.7429  150.1972 O   0  0  0  0  0  0  0  0  0  0  0  0
  144.8717  135.0622  152.6476 C   0  0  0  0  0  0  0  0  0  0  0  0
  148.1784  140.2220  154.7261 N   0  0  0  0  0  0  0  0  0  0  0  0
  148.8799  141.0650  155.5125 C   0  0  0  0  0  0  0  0  0  0  0  0
  144.4670  137.1928  152.3292 H   0  0  0  0  0  0  0  0  0  0  0  0
  145.4805  133.3518  151.4405 H   0  0  0  0  0  0  0  0  0  0  0  0
  152.0109  141.6560  156.7404 H   0  0  0  0  0  0  0  0  0  0  0  0
  150.6535  141.6356  157.8743 H   0  0  0  0  0  0  0  0  0  0  0  0
  150.6881  142.8096  156.5516 H   0  0  0  0  0  0  0  0  0  0  0  0
  151.7974  139.3431  155.8537 H   0  0  0  0  0  0  0  0  0  0  0  0
  150.5091  137.7836  154.4018 H   0  0  0  0  0  0  0  0  0  0  0  0
  148.7141  137.4889  152.9856 H   0  0  0  0  0  0  0  0  0  0  0  0
  147.3385  136.4348  152.0586 H   0  0  0  0  0  0  0  0  0  0  0  0
  145.3491  137.0296  149.8659 H   0  0  0  0  0  0  0  0  0  0  0  0
  144.7737  134.6026  149.2413 H   0  0  0  0  0  0  0  0  0  0  0  0
  143.2513  132.6430  152.2407 H   0  0  0  0  0  0  0  0  0  0  0  0
  142.5105  134.0991  151.5958 H   0  0  0  0  0  0  0  0  0  0  0  0
  142.5288  133.2781  149.6775 H   0  0  0  0  0  0  0  0  0  0  0  0
  145.6487  134.6901  153.3169 H   0  0  0  0  0  0  0  0  0  0  0  0
  143.9618  135.1380  153.2438 H   0  0  0  0  0  0  0  0  0  0  0  0
  148.3771  141.9763  155.8009 H   0  0  0  0  0  0  0  0  0  0  0  0
  1  2  1  0  0  0  0
  1 21  1  0  0  0  0
  1 22  1  0  0  0  0
  1 23  1  0  0  0  0
  2 18  1  0  0  0  0
  2  3  2  0  0  0  0
  3  4  1  0  0  0  0
  3 24  1  0  0  0  0
  4  5  2  0  0  0  0
  4 25  1  0  0  0  0
  5  6  1  0  0  0  0
  5 17  1  0  0  0  0
  6  7  1  0  0  0  0
  6 26  1  0  0  0  0
  7  8  2  0  0  0  0
  7  9  1  0  0  0  0
  9 10  1  0  0  0  0
  9 27  1  0  0  0  0
 10 19  1  0  0  0  0
 10 16  1  0  0  0  0
 10 11  1  0  0  0  0
 11 12  2  0  0  0  0
 11 28  1  0  0  0  0
 12 13  1  0  0  0  0
 12 29  1  0  0  0  0
 13 20  1  0  0  0  0
 13 14  1  0  0  0  0
 13 16  1  0  0  0  0
 14 15  1  0  0  0  0
 14 30  1  0  0  0  0
 14 31  1  0  0  0  0
 15 32  1  0  0  0  0
 16 33  1  0  0  0  0
 16 34  1  0  0  0  0
 17 18  2  0  0  0  0
 18 35  1  0  0  0  0
M  END
> <s_m_source_file>
AV-unprocessed.smi

> <i_m_source_file_index>
2344

> <i_lp_mmshare_version>
43012

> <i_f3d_flags>
0

> <s_epik_input>
W0NIM11jMVtjSF1bY0hdYyhuW2NIXTEpW05IXUMoPU8pW05IXVtDQEBIXTJbQ0hdPVtDSF1bQ0BASF0oW0NIMl0yKVtDSDJdW09IXQ==

> <s_epik_cmdline>
J2VwaWtfcHl0aG9uJywgJy1waCcsICc3LjAnLCAnLXRuJywgJzgnLCAnLW1hJywgJzIwMCcsICctbWV0YWxfYmluZGluZycsICctaW1hZScsICc8aW5maWxlLm1hZT4nLCAnLW9tYWUnLCAnPG91dGZpbGUubWFlPic=

> <r_lp_tautomer_probability>
1

> <r_epik_Ionization_Penalty>
5.7643e-05

> <r_epik_Ionization_Penalty_Charging>
0

> <r_epik_Ionization_Penalty_Neutral>
5.7643e-05

> <r_epik_State_Penalty>
-0

> <r_epik_Charging_Adjusted_Penalty>
0

> <i_epik_Tot_Q>
0

> <i_epik_Tot_abs_Q>
0

> <r_epik_Metal_State_Penalty>
-0

> <b_epik_Metal_Only>
0

> <s_lp_Force_Field>
OPLS_2005

> <r_lp_Energy>
17.6743

> <b_lp_Chiralities_Consistent>
1

> <s_lp_Variant>
AV-unprocessed.smi:2344-2

> <Gold.Version>
5.8.1

> <Gold.Id.Protein>
6NUR|6NUR_protein|mol2

> <Gold.PLP.Fitness>
41.7542

> <Gold.PLP.PLP>
-30.4025

> <Gold.PLP.part.hbond>
-3.3429

> <Gold.PLP.part.metal>
0.0000

> <Gold.PLP.part.buried>
-0.0684

> <Gold.PLP.part.nonpolar>
-26.8900

> <Gold.PLP.part.repulsive>
0.5874

> <Gold.PLP.ligand.clash>
0.0000

> <Gold.PLP.ligand.torsion>
0.3310

> <Gold.PLP.Chemscore.Hbond>
3.0000

> <Gold.PLP.Chemscore.CHOScore>
1.0000

> <Gold.PLP.Chemscore.Metal>
0.0000

> <Gold.Chemscore.Hbonds>
donor molecule, donor type, donor heavy atom, donor atom, acceptor molecule, acceptor atom, score
      L1  H     6    26       P1  7948  1.00
      L1  H     9    27       P1  7948  1.00
      L1  H    15    32       P1 10186  1.00
      L1  C    18    35       P1  8028  0.37

> <Gold.PLP.Chemscore.Internal.Correction>
0.0137

> <Gold.Rescore>
     Score         DG    S(hbond)    S(metal)    S(lipo)     H(rot)  DE(clash)    DE(int)     intcor
     15.73     -18.73       2.94        0.00      69.21       1.82       1.57       1.43       ----

> <Gold.Chemscore.Fitness>
15.7332

> <Gold.Chemscore.DG>
-18.7305

> <Gold.Chemscore.ZeroCoef>
-5.4800

> <Gold.Chemscore.Hbond>
2.9367

> <Gold.Chemscore.Metal>
0.0000

> <Gold.Chemscore.Lipo>
69.2062

> <Gold.Chemscore.Internal_Hbond>
0.0000

> <Gold.Chemscore.DEClash>
1.5720

> <Gold.Chemscore.DEInternal>
1.4254

> <Gold.Chemscore.Rot>
1.8184

> <Gold.Chemscore.Internal.Correction>
   9.000000E+99

> <Gold.Chemscore.Hbonds>
donor molecule, donor type, donor heavy atom, donor atom, acceptor molecule, acceptor atom, score
      L1  H     6    26       P1  7948  0.96
      L1  H     9    27       P1  7948  0.96
      L1  H    15    32       P1 10186  0.94

> <Gold.Chemscore.Hbond.Weighted>
-9.8085

> <Gold.Chemscore.Metal.Weighted>
-0.0000

> <Gold.Chemscore.Lipo.Weighted>
-8.0971

> <Gold.Chemscore.Internal_Hbond.Weighted>
0.0000

> <Gold.Chemscore.DEClash.Weighted>
1.5720

> <Gold.Chemscore.DEInternal.Weighted>
1.4254

> <Gold.Chemscore.Rot.Weighted>
4.6551

> <Gold.Chemscore.Internal.Correction.Weighted>
   9.000000E+99

> <Gold.Protein.RotatedTorsions>
[ 6907 6896 6895 6894 ] final  -26.01 input  -60.11 | X-H torsion
[ 7974 7965 7964 7962 ] final  -48.13 input  175.53 | X-H torsion
[ 8008 7997 7996 7995 ] final  -93.23 input   59.86 | X-H torsion
[ 10167 10162 10161 10158 ] final   76.28 input  -65.29 | X-H torsion
[ 10718 10713 10712 10709 ] final  164.42 input   66.30 | X-H torsion
[ 10763 10752 10751 10750 ] final   25.63 input  -60.55 | X-H torsion
[ 11005 11000 10999 10996 ] final  -70.02 input  -57.11 | X-H torsion

> <Gold.Protein.ActiveResidues>
 VAL166  LYS551  ARG553  GLY616  TRP617  ASP618  TYR619  PRO620  LYS621  CYS622 
 ASP623  PHE694  ASN695  SER759  ASP760  ASP761  ALA762  ILE779  LEU786  VAL792 
 PHE793  MET794  SER795  GLU796  ALA797  LYS798  CYS799  TRP800  GLU811  SER814 

> <Gold.Protein.RotatedAtoms>
  151.1670  135.0300  159.8734 H   0  0  0  0  0  0  0  0  0  0  0  0  # atno 6907 bound_to 6896
  152.5450  134.1214  159.8410 H   0  0  0  0  0  0  0  0  0  0  0  0  # atno 6908 bound_to 6896
  151.1315  133.4987  159.2631 H   0  0  0  0  0  0  0  0  0  0  0  0  # atno 6909 bound_to 6896
  145.9544  140.7541  142.9488 H   0  0  0  0  0  0  0  0  0  0  0  0  # atno 7974 bound_to 7965
  154.7331  140.0501  157.0744 H   0  0  0  0  0  0  0  0  0  0  0  0  # atno 8008 bound_to 7997
  155.0276  140.3154  155.4751 H   0  0  0  0  0  0  0  0  0  0  0  0  # atno 8009 bound_to 7997
  156.2846  140.2156  156.5396 H   0  0  0  0  0  0  0  0  0  0  0  0  # atno 8010 bound_to 7997
  139.9939  144.5736  150.7794 H   0  0  0  0  0  0  0  0  0  0  0  0  # atno 10167 bound_to 10162
  157.0946  131.0427  151.2523 H   0  0  0  0  0  0  0  0  0  0  0  0  # atno 10718 bound_to 10713
  153.0678  135.6578  154.0315 H   0  0  0  0  0  0  0  0  0  0  0  0  # atno 10763 bound_to 10752
  153.9968  135.2941  155.3408 H   0  0  0  0  0  0  0  0  0  0  0  0  # atno 10764 bound_to 10752
  154.7042  135.5232  153.8640 H   0  0  0  0  0  0  0  0  0  0  0  0  # atno 10765 bound_to 10752
  141.1566  133.6779  156.6689 H   0  0  0  0  0  0  0  0  0  0  0  0  # atno 11005 bound_to 11000
  144.6802  140.2487  143.7334 LP  0  0  0  0  0  0  0  0  0  0  0  0  # atno 17320 bound_to 7965
  145.8127  139.2010  143.1984 LP  0  0  0  0  0  0  0  0  0  0  0  0  # atno 17321 bound_to 7965
  140.7444  143.2860  151.3461 LP  0  0  0  0  0  0  0  0  0  0  0  0  # atno 17342 bound_to 10162
  139.6320  144.0703  152.2484 LP  0  0  0  0  0  0  0  0  0  0  0  0  # atno 17343 bound_to 10162
  157.4692  130.7698  149.7307 LP  0  0  0  0  0  0  0  0  0  0  0  0  # atno 17370 bound_to 10713
  155.9889  130.3956  150.3097 LP  0  0  0  0  0  0  0  0  0  0  0  0  # atno 17371 bound_to 10713
  140.3190  134.8023  157.4237 LP  0  0  0  0  0  0  0  0  0  0  0  0  # atno 17394 bound_to 11000
  140.1113  134.5342  155.8264 LP  0  0  0  0  0  0  0  0  0  0  0  0  # atno 17395 bound_to 11000

$$$$
