AV-unprocessed.smi:2184|AV-procd|sdf|8871|dock3
  -GOLD-   2272012 73D 1   1.00000     0.00000
 Structure written by MMmdl.
 47 48  0  0  0  0  0  0  0  0  1 V2000
  150.0102  132.0265  154.8379 C   0  0  0  0  0  0  0  0  0  0  0  0
  149.5078  133.6019  154.0922 S   0  0  0  0  0  0  0  0  0  0  0  0
  149.5740  134.7078  155.5337 C   0  0  2  0  0  0  0  0  0  0  0  0
  148.2398  135.4535  155.6934 C   0  0  0  0  0  0  0  0  0  0  0  0
  150.7525  135.6863  155.4529 C   0  0  0  0  0  0  0  0  0  0  0  0
  151.6325  135.6779  156.3142 O   0  0  0  0  0  0  0  0  0  0  0  0
  150.7525  136.5339  154.4139 N   0  0  0  0  0  0  0  0  0  0  0  0
  151.7757  137.5423  154.1674 C   0  0  0  0  0  0  0  0  0  0  0  0
  151.7913  138.6748  155.1839 C   0  0  0  0  0  0  0  0  0  0  0  0
  150.8541  139.7306  155.1640 C   0  0  0  0  0  0  0  0  0  0  0  0
  150.9441  140.7434  156.1374 C   0  0  0  0  0  0  0  0  0  0  0  0
  151.9714  140.6798  157.1078 C   0  0  0  0  0  0  0  0  0  0  0  0
  152.0759  141.6852  158.0920 N   0  0  0  0  0  0  0  0  0  0  0  0
  152.3526  141.2803  159.4670 C   0  0  0  0  0  0  0  0  0  0  0  0
  152.7857  142.4970  160.3040 C   0  0  2  0  0  0  0  0  0  0  0  0
  152.9614  142.1398  161.7836 C   0  0  0  0  0  0  0  0  0  0  0  0
  151.7942  143.5196  160.2099 O   0  0  0  0  0  0  0  0  0  0  0  0
  151.5124  143.9610  158.8797 C   0  0  1  0  0  0  0  0  0  0  0  0
  152.6645  144.7905  158.2851 C   0  0  0  0  0  0  0  0  0  0  0  0
  151.0997  142.7666  157.9973 C   0  0  0  0  0  0  0  0  0  0  0  0
  152.8778  139.6721  157.1168 N   0  0  0  0  0  0  0  0  0  0  0  0
  152.7860  138.7027  156.1822 C   0  0  0  0  0  0  0  0  0  0  0  0
  149.9590  131.2301  154.0957 H   0  0  0  0  0  0  0  0  0  0  0  0
  149.3513  131.7682  155.6669 H   0  0  0  0  0  0  0  0  0  0  0  0
  151.0336  132.0819  155.2086 H   0  0  0  0  0  0  0  0  0  0  0  0
  149.7040  134.0791  156.4162 H   0  0  0  0  0  0  0  0  0  0  0  0
  148.2633  136.1333  156.5463 H   0  0  0  0  0  0  0  0  0  0  0  0
  147.4212  134.7524  155.8578 H   0  0  0  0  0  0  0  0  0  0  0  0
  147.9972  136.0391  154.8056 H   0  0  0  0  0  0  0  0  0  0  0  0
  149.9901  136.4815  153.7544 H   0  0  0  0  0  0  0  0  0  0  0  0
  152.7531  137.0574  154.1642 H   0  0  0  0  0  0  0  0  0  0  0  0
  151.6291  137.9745  153.1763 H   0  0  0  0  0  0  0  0  0  0  0  0
  150.0759  139.7800  154.4169 H   0  0  0  0  0  0  0  0  0  0  0  0
  150.2390  141.5610  156.1201 H   0  0  0  0  0  0  0  0  0  0  0  0
  151.4572  140.8264  159.8941 H   0  0  0  0  0  0  0  0  0  0  0  0
  153.1422  140.5280  159.4881 H   0  0  0  0  0  0  0  0  0  0  0  0
  153.7391  142.8740  159.9334 H   0  0  0  0  0  0  0  0  0  0  0  0
  153.7159  141.3634  161.9130 H   0  0  0  0  0  0  0  0  0  0  0  0
  152.0287  141.7760  162.2155 H   0  0  0  0  0  0  0  0  0  0  0  0
  153.2786  143.0095  162.3591 H   0  0  0  0  0  0  0  0  0  0  0  0
  150.6529  144.6274  158.9574 H   0  0  0  0  0  0  0  0  0  0  0  0
  152.3719  145.2267  157.3296 H   0  0  0  0  0  0  0  0  0  0  0  0
  153.5566  144.1911  158.1053 H   0  0  0  0  0  0  0  0  0  0  0  0
  152.9382  145.6092  158.9509 H   0  0  0  0  0  0  0  0  0  0  0  0
  150.9596  143.1044  156.9712 H   0  0  0  0  0  0  0  0  0  0  0  0
  150.1352  142.3821  158.3321 H   0  0  0  0  0  0  0  0  0  0  0  0
  153.5323  137.9238  156.2340 H   0  0  0  0  0  0  0  0  0  0  0  0
  1  2  1  0  0  0  0
  1 23  1  0  0  0  0
  1 24  1  0  0  0  0
  1 25  1  0  0  0  0
  2  3  1  0  0  0  0
  3  4  1  0  0  0  0
  3  5  1  0  0  0  0
  3 26  1  0  0  0  0
  4 27  1  0  0  0  0
  4 28  1  0  0  0  0
  4 29  1  0  0  0  0
  5  6  2  0  0  0  0
  5  7  1  0  0  0  0
  7  8  1  0  0  0  0
  7 30  1  0  0  0  0
  8  9  1  0  0  0  0
  8 31  1  0  0  0  0
  8 32  1  0  0  0  0
  9 22  1  0  0  0  0
  9 10  2  0  0  0  0
 10 11  1  0  0  0  0
 10 33  1  0  0  0  0
 11 12  2  0  0  0  0
 11 34  1  0  0  0  0
 12 13  1  0  0  0  0
 12 21  1  0  0  0  0
 13 20  1  0  0  0  0
 13 14  1  0  0  0  0
 14 15  1  0  0  0  0
 14 35  1  0  0  0  0
 14 36  1  0  0  0  0
 15 16  1  0  0  0  0
 15 17  1  0  0  0  0
 15 37  1  0  0  0  0
 16 38  1  0  0  0  0
 16 39  1  0  0  0  0
 16 40  1  0  0  0  0
 17 18  1  0  0  0  0
 18 19  1  0  0  0  0
 18 20  1  0  0  0  0
 18 41  1  0  0  0  0
 19 42  1  0  0  0  0
 19 43  1  0  0  0  0
 19 44  1  0  0  0  0
 20 45  1  0  0  0  0
 20 46  1  0  0  0  0
 21 22  2  0  0  0  0
 22 47  1  0  0  0  0
M  END
> <s_m_source_file>
AV-unprocessed.smi

> <i_m_source_file_index>
2184

> <i_lp_mmshare_version>
43012

> <i_f3d_flags>
0

> <s_epik_input>
W0NIM11TW0NASF0oW0NIM10pQyg9TylbTkhdW0NIMl1jMVtjSF1bY0hdYyhuW2NIXTEpTjJbQ0gyXVtDQEBIXShbQ0gzXSlPW0NAQEhdKFtDSDNdKVtDSDJdMg==

> <s_epik_cmdline>
J2VwaWtfcHl0aG9uJywgJy1waCcsICc3LjAnLCAnLXRuJywgJzgnLCAnLW1hJywgJzIwMCcsICctbWV0YWxfYmluZGluZycsICctaW1hZScsICc8aW5maWxlLm1hZT4nLCAnLW9tYWUnLCAnPG91dGZpbGUubWFlPic=

> <r_lp_tautomer_probability>
1

> <r_epik_Ionization_Penalty>
0.00551702

> <r_epik_Ionization_Penalty_Charging>
0

> <r_epik_Ionization_Penalty_Neutral>
0.00551702

> <r_epik_State_Penalty>
0.00403758

> <r_epik_Charging_Adjusted_Penalty>
0.00403758

> <i_epik_Tot_Q>
0

> <i_epik_Tot_abs_Q>
0

> <r_epik_Metal_State_Penalty>
-0

> <b_epik_Metal_Only>
0

> <s_lp_Force_Field>
OPLS_2005

> <r_lp_Energy>
19.5459

> <b_lp_Chiralities_Consistent>
1

> <s_lp_Variant>
AV-unprocessed.smi:2184-3

> <Gold.Version>
5.8.1

> <Gold.Id.Protein>
6NUR|6NUR_protein|mol2

> <Gold.PLP.Fitness>
54.3240

> <Gold.PLP.PLP>
-47.4001

> <Gold.PLP.part.hbond>
-4.0000

> <Gold.PLP.part.metal>
0.0000

> <Gold.PLP.part.buried>
-2.8890

> <Gold.PLP.part.nonpolar>
-40.7539

> <Gold.PLP.part.repulsive>
0.1391

> <Gold.PLP.ligand.clash>
0.0000

> <Gold.PLP.ligand.torsion>
1.1992

> <Gold.PLP.Chemscore.Hbond>
2.9750

> <Gold.PLP.Chemscore.CHOScore>
0.0000

> <Gold.PLP.Chemscore.Metal>
0.0000

> <Gold.Chemscore.Hbonds>
donor molecule, donor type, donor heavy atom, donor atom, acceptor molecule, acceptor atom, score
      L1  H     7    30       P1  7948  0.71
      P1  H  7997  8009       L1    21  0.85
      P1  H 10752 10763       L1     6  0.80

> <Gold.PLP.Chemscore.Internal.Correction>
0.3972

> <Gold.Rescore>
     Score         DG    S(hbond)    S(metal)    S(lipo)     H(rot)  DE(clash)    DE(int)     intcor
     21.16     -23.02       2.21        0.00     121.64       1.59       0.93       0.93       ----

> <Gold.Chemscore.Fitness>
21.1607

> <Gold.Chemscore.DG>
-23.0186

> <Gold.Chemscore.ZeroCoef>
-5.4800

> <Gold.Chemscore.Hbond>
2.2121

> <Gold.Chemscore.Metal>
0.0000

> <Gold.Chemscore.Lipo>
121.6449

> <Gold.Chemscore.Internal_Hbond>
0.0000

> <Gold.Chemscore.DEClash>
0.9320

> <Gold.Chemscore.DEInternal>
0.9259

> <Gold.Chemscore.Rot>
1.5947

> <Gold.Chemscore.Internal.Correction>
   9.000000E+99

> <Gold.Chemscore.Hbonds>
donor molecule, donor type, donor heavy atom, donor atom, acceptor molecule, acceptor atom, score
      L1  H     7    30       P1  7948  0.16
      P1  H  7997  8009       L1    21  0.14
      P1  H 10752 10763       L1     6  0.12

> <Gold.Chemscore.Hbond.Weighted>
-7.3885

> <Gold.Chemscore.Metal.Weighted>
-0.0000

> <Gold.Chemscore.Lipo.Weighted>
-14.2324

> <Gold.Chemscore.Internal_Hbond.Weighted>
0.0000

> <Gold.Chemscore.DEClash.Weighted>
0.9320

> <Gold.Chemscore.DEInternal.Weighted>
0.9259

> <Gold.Chemscore.Rot.Weighted>
4.0824

> <Gold.Chemscore.Internal.Correction.Weighted>
   9.000000E+99

> <Gold.Protein.RotatedTorsions>
[ 6907 6896 6895 6894 ] final   27.14 input  -60.11 | X-H torsion
[ 7974 7965 7964 7962 ] final  111.46 input  175.53 | X-H torsion
[ 8008 7997 7996 7995 ] final  165.63 input   59.86 | X-H torsion
[ 10167 10162 10161 10158 ] final   47.54 input  -65.29 | X-H torsion
[ 10718 10713 10712 10709 ] final   47.66 input   66.30 | X-H torsion
[ 10763 10752 10751 10750 ] final   90.51 input  -60.55 | X-H torsion
[ 11005 11000 10999 10996 ] final  -52.78 input  -57.11 | X-H torsion

> <Gold.Protein.ActiveResidues>
 VAL166  LYS551  ARG553  GLY616  TRP617  ASP618  TYR619  PRO620  LYS621  CYS622 
 ASP623  PHE694  ASN695  SER759  ASP760  ASP761  ALA762  ILE779  LEU786  VAL792 
 PHE793  MET794  SER795  GLU796  ALA797  LYS798  CYS799  TRP800  GLU811  SER814 

> <Gold.Protein.RotatedAtoms>
  151.9979  134.9944  160.0563 H   0  0  0  0  0  0  0  0  0  0  0  0  # atno 6907 bound_to 6896
  152.1547  133.4539  159.4839 H   0  0  0  0  0  0  0  0  0  0  0  0  # atno 6908 bound_to 6896
  150.6880  134.2064  159.4385 H   0  0  0  0  0  0  0  0  0  0  0  0  # atno 6909 bound_to 6896
  145.2420  139.2775  143.4113 H   0  0  0  0  0  0  0  0  0  0  0  0  # atno 7974 bound_to 7965
  156.1785  140.1665  156.8319 H   0  0  0  0  0  0  0  0  0  0  0  0  # atno 8008 bound_to 7997
  154.5333  140.0752  156.8417 H   0  0  0  0  0  0  0  0  0  0  0  0  # atno 8009 bound_to 7997
  155.3362  140.3382  155.4241 H   0  0  0  0  0  0  0  0  0  0  0  0  # atno 8010 bound_to 7997
  140.3026  144.2916  150.6216 H   0  0  0  0  0  0  0  0  0  0  0  0  # atno 10167 bound_to 10162
  157.4608  130.8195  149.7884 H   0  0  0  0  0  0  0  0  0  0  0  0  # atno 10718 bound_to 10713
  153.1983  135.4431  155.0235 H   0  0  0  0  0  0  0  0  0  0  0  0  # atno 10763 bound_to 10752
  154.8132  135.3303  154.7251 H   0  0  0  0  0  0  0  0  0  0  0  0  # atno 10764 bound_to 10752
  153.7699  135.6985  153.4964 H   0  0  0  0  0  0  0  0  0  0  0  0  # atno 10765 bound_to 10752
  141.0942  133.6627  156.4075 H   0  0  0  0  0  0  0  0  0  0  0  0  # atno 11005 bound_to 11000
  146.3326  140.2786  142.8609 LP  0  0  0  0  0  0  0  0  0  0  0  0  # atno 17320 bound_to 7965
  144.9581  140.8247  143.5531 LP  0  0  0  0  0  0  0  0  0  0  0  0  # atno 17321 bound_to 7965
  140.5638  143.2189  151.7719 LP  0  0  0  0  0  0  0  0  0  0  0  0  # atno 17342 bound_to 10162
  139.4911  144.4312  151.9870 LP  0  0  0  0  0  0  0  0  0  0  0  0  # atno 17343 bound_to 10162
  156.0027  130.3871  150.2543 LP  0  0  0  0  0  0  0  0  0  0  0  0  # atno 17370 bound_to 10713
  157.0720  131.0119  151.3187 LP  0  0  0  0  0  0  0  0  0  0  0  0  # atno 17371 bound_to 10713
  140.5180  134.6332  157.5308 LP  0  0  0  0  0  0  0  0  0  0  0  0  # atno 17394 bound_to 11000
  139.9775  134.7192  155.9923 LP  0  0  0  0  0  0  0  0  0  0  0  0  # atno 17395 bound_to 11000

$$$$
