AV-unprocessed.smi:1|AV-procd|sdf|17|dock3
  -GOLD-   2262015113D 1   1.00000     0.00000
 Structure written by MMmdl.
 56 61  0  0  0  0  0  0  0  0  2 V2000
  154.5905  140.9896  159.7916 O   0  0  0  0  0  0  0  0  0  0  0  0
  153.3929  141.2236  159.6152 C   0  0  0  0  0  0  0  0  0  0  0  0
  152.4163  140.3497  159.2615 N   0  5  0  0  0  0  0  0  0  0  0  0
  152.1168  140.1751  157.9654 C   0  0  0  0  0  0  0  0  0  0  0  0
  152.8240  139.2975  157.2080 N   0  0  0  0  0  0  0  0  0  0  0  0
  152.5205  139.1203  155.9165 C   0  0  0  0  0  0  0  0  0  0  0  0
  151.5675  139.7104  155.1877 N   0  0  0  0  0  0  0  0  0  0  0  0
  150.8593  140.6039  155.9374 C   0  0  0  0  0  0  0  0  0  0  0  0
  151.0748  140.8916  157.3157 C   0  0  0  0  0  0  0  0  0  0  0  0
  150.1786  141.8518  157.7616 N   0  0  0  0  0  0  0  0  0  0  0  0
  149.4708  142.0928  156.6596 C   0  0  0  0  0  0  0  0  0  0  0  0
  149.7964  141.3984  155.5484 N   0  0  0  0  0  0  0  0  0  0  0  0
  149.1804  141.4330  154.1833 C   0  0  2  0  0  0  0  0  0  0  0  0
  148.4043  142.5878  154.0696 O   0  0  0  0  0  0  0  0  0  0  0  0
  147.0322  142.2726  154.2722 C   0  0  1  0  0  0  0  0  0  0  0  0
  146.1420  143.3392  153.6282 C   0  0  0  0  0  0  0  0  0  0  0  0
  145.1530  143.7461  154.5593 O   0  0  0  0  0  0  0  0  0  0  0  0
  144.3289  144.7686  154.2602 C   0  0  0  0  0  0  0  0  0  0  0  0
  144.3457  145.3643  153.1811 O   0  0  0  0  0  0  0  0  0  0  0  0
  143.3944  145.1073  155.3721 C   0  0  0  0  0  0  0  0  0  0  0  0
  143.5902  144.5190  156.6436 C   0  0  0  0  0  0  0  0  0  0  0  0
  142.7236  144.8167  157.7131 C   0  0  0  0  0  0  0  0  0  0  0  0
  141.6501  145.7062  157.5241 C   0  0  0  0  0  0  0  0  0  0  0  0
  141.4446  146.2983  156.2643 C   0  0  0  0  0  0  0  0  0  0  0  0
  142.3106  146.0024  155.1933 C   0  0  0  0  0  0  0  0  0  0  0  0
  146.9021  140.8978  153.6169 C   0  0  2  0  0  0  0  0  0  0  0  0
  145.8478  140.1403  154.1838 O   0  0  0  0  0  0  0  0  0  0  0  0
  146.4646  139.1911  155.4125 S   0  0  0  0  0  0  0  0  0  0  0  0
  146.1185  139.8185  156.6970 O   0  0  0  0  0  0  0  0  0  0  0  0
  146.1544  137.7862  155.1076 O   0  0  0  0  0  0  0  0  0  0  0  0
  148.0901  139.4441  155.1314 O   0  0  0  0  0  0  0  0  0  0  0  0
  148.2425  140.2294  153.9571 C   0  0  2  0  0  0  0  0  0  0  0  0
  152.9079  142.6439  159.7300 C   0  0  0  0  0  0  0  0  0  0  0  0
  152.5159  143.1503  160.9903 C   0  0  0  0  0  0  0  0  0  0  0  0
  152.0318  144.4672  161.1140 C   0  0  0  0  0  0  0  0  0  0  0  0
  151.9259  145.2894  159.9765 C   0  0  0  0  0  0  0  0  0  0  0  0
  152.3013  144.7923  158.7145 C   0  0  0  0  0  0  0  0  0  0  0  0
  152.7857  143.4755  158.5900 C   0  0  0  0  0  0  0  0  0  0  0  0
  153.1298  138.4004  155.3906 H   0  0  0  0  0  0  0  0  0  0  0  0
  148.6679  142.8143  156.6685 H   0  0  0  0  0  0  0  0  0  0  0  0
  150.0282  141.4703  153.4981 H   0  0  0  0  0  0  0  0  0  0  0  0
  146.8286  142.1966  155.3414 H   0  0  0  0  0  0  0  0  0  0  0  0
  146.7415  144.1908  153.3028 H   0  0  0  0  0  0  0  0  0  0  0  0
  145.6481  142.9268  152.7474 H   0  0  0  0  0  0  0  0  0  0  0  0
  144.4070  143.8318  156.8124 H   0  0  0  0  0  0  0  0  0  0  0  0
  142.8830  144.3611  158.6791 H   0  0  0  0  0  0  0  0  0  0  0  0
  140.9853  145.9337  158.3444 H   0  0  0  0  0  0  0  0  0  0  0  0
  140.6204  146.9811  156.1186 H   0  0  0  0  0  0  0  0  0  0  0  0
  142.1247  146.4747  154.2397 H   0  0  0  0  0  0  0  0  0  0  0  0
  146.7855  140.9879  152.5362 H   0  0  0  0  0  0  0  0  0  0  0  0
  148.6109  139.6080  153.1404 H   0  0  0  0  0  0  0  0  0  0  0  0
  152.5890  142.5310  161.8728 H   0  0  0  0  0  0  0  0  0  0  0  0
  151.7401  144.8450  162.0826 H   0  0  0  0  0  0  0  0  0  0  0  0
  151.5539  146.2987  160.0710 H   0  0  0  0  0  0  0  0  0  0  0  0
  152.2151  145.4196  157.8396 H   0  0  0  0  0  0  0  0  0  0  0  0
  153.0580  143.1094  157.6105 H   0  0  0  0  0  0  0  0  0  0  0  0
  1  2  2  0  0  0  0
  2  3  1  0  0  0  0
  2 33  1  0  0  0  0
  3  4  1  0  0  0  0
  4  9  1  0  0  0  0
  4  5  2  0  0  0  0
  5  6  1  0  0  0  0
  6  7  2  0  0  0  0
  6 39  1  0  0  0  0
  7  8  1  0  0  0  0
  8 12  1  0  0  0  0
  8  9  2  0  0  0  0
  9 10  1  0  0  0  0
 10 11  2  0  0  0  0
 11 12  1  0  0  0  0
 11 40  1  0  0  0  0
 12 13  1  0  0  0  0
 13 32  1  0  0  0  0
 13 14  1  0  0  0  0
 13 41  1  0  0  0  0
 14 15  1  0  0  0  0
 15 16  1  0  0  0  0
 15 26  1  0  0  0  0
 15 42  1  0  0  0  0
 16 17  1  0  0  0  0
 16 43  1  0  0  0  0
 16 44  1  0  0  0  0
 17 18  1  0  0  0  0
 18 19  2  0  0  0  0
 18 20  1  0  0  0  0
 20 25  1  0  0  0  0
 20 21  2  0  0  0  0
 21 22  1  0  0  0  0
 21 45  1  0  0  0  0
 22 23  2  0  0  0  0
 22 46  1  0  0  0  0
 23 24  1  0  0  0  0
 23 47  1  0  0  0  0
 24 25  2  0  0  0  0
 24 48  1  0  0  0  0
 25 49  1  0  0  0  0
 26 32  1  0  0  0  0
 26 27  1  0  0  0  0
 26 50  1  0  0  0  0
 27 28  1  0  0  0  0
 28 29  2  0  0  0  0
 28 30  2  0  0  0  0
 28 31  1  0  0  0  0
 31 32  1  0  0  0  0
 32 51  1  0  0  0  0
 33 38  1  0  0  0  0
 33 34  2  0  0  0  0
 34 35  1  0  0  0  0
 34 52  1  0  0  0  0
 35 36  2  0  0  0  0
 35 53  1  0  0  0  0
 36 37  1  0  0  0  0
 36 54  1  0  0  0  0
 37 38  2  0  0  0  0
 37 55  1  0  0  0  0
 38 56  1  0  0  0  0
M  CHG  1   3  -1
M  END
> <s_m_source_file>
AV-unprocessed.smi

> <i_m_source_file_index>
1

> <i_lp_mmshare_version>
43012

> <i_f3d_flags>
0

> <s_epik_input>
W2NIXTFbY0hdW2NIXVtjSF1bY0hdYzFDKD1PKVtOSF1jKG5bY0hdbjIpYyhjMjMpbltjSF1uM1tDQEBIXShbQ0BIXShbQ0BIXTQ1KU9TKE81KSg9Tyk9TylPW0NASF00W0NIMl1PQyg9TyljNltjSF1bY0hdW2NIXVtjSF1bY0hdNg==

> <s_epik_cmdline>
J2VwaWtfcHl0aG9uJywgJy1waCcsICc3LjAnLCAnLXRuJywgJzgnLCAnLW1hJywgJzIwMCcsICctbWV0YWxfYmluZGluZycsICctaW1hZScsICc8aW5maWxlLm1hZT4nLCAnLW9tYWUnLCAnPG91dGZpbGUubWFlPic=

> <r_lp_tautomer_probability>
1

> <r_epik_Ionization_Penalty>
4.39121

> <r_epik_Ionization_Penalty_Charging>
3.39398

> <r_epik_Ionization_Penalty_Neutral>
0.997232

> <r_epik_State_Penalty>
3.39839

> <r_epik_Charging_Adjusted_Penalty>
6.79237

> <i_epik_Tot_Q>
-1

> <i_epik_Tot_abs_Q>
1

> <r_epik_Metal_State_Penalty>
0.497663

> <b_epik_Metal_Only>
1

> <s_epik_Chemistry_Notes>
This compound has an ester and may undergo hydrolysis at high or low pH. This compound contains an acetal/aminal-like group ( X-CH(R)-Y where X, Y are N, S, or O) that may be acid/base labile, releasing an aldehyde.

> <s_lp_Force_Field>
OPLS_2005

> <r_lp_Energy>
42.9132

> <b_lp_Chiralities_Consistent>
1

> <s_lp_Variant>
AV-unprocessed.smi:1-17

> <Gold.Version>
5.8.1

> <Gold.Id.Protein>
6NUR|6NUR_protein|mol2

> <Gold.PLP.Fitness>
63.7863

> <Gold.PLP.PLP>
-62.4064

> <Gold.PLP.part.hbond>
-4.3197

> <Gold.PLP.part.metal>
0.0000

> <Gold.PLP.part.buried>
-4.2640

> <Gold.PLP.part.nonpolar>
-58.8783

> <Gold.PLP.part.repulsive>
5.6883

> <Gold.PLP.ligand.clash>
0.0000

> <Gold.PLP.ligand.torsion>
4.2202

> <Gold.PLP.Chemscore.Hbond>
2.3310

> <Gold.PLP.Chemscore.CHOScore>
0.7865

> <Gold.PLP.Chemscore.Metal>
0.0000

> <Gold.Chemscore.Hbonds>
donor molecule, donor type, donor heavy atom, donor atom, acceptor molecule, acceptor atom, score
      P1  H  7989  7998       L1     7  0.78
      P1  H  7997  8009       L1     5  0.94
      P1  H  8022  8030       L1    14  0.52
      L1  C    11    40       P1  8028  0.83

> <Gold.PLP.Chemscore.Internal.Correction>
0.4679

> <Gold.Rescore>
     Score         DG    S(hbond)    S(metal)    S(lipo)     H(rot)  DE(clash)    DE(int)     intcor
     11.33     -20.43       1.63        0.00     127.37       2.11       4.98       4.12       ----

> <Gold.Chemscore.Fitness>
11.3268

> <Gold.Chemscore.DG>
-20.4308

> <Gold.Chemscore.ZeroCoef>
-5.4800

> <Gold.Chemscore.Hbond>
1.6345

> <Gold.Chemscore.Metal>
0.0000

> <Gold.Chemscore.Lipo>
127.3687

> <Gold.Chemscore.Internal_Hbond>
0.0000

> <Gold.Chemscore.DEClash>
4.9843

> <Gold.Chemscore.DEInternal>
4.1196

> <Gold.Chemscore.Rot>
2.1136

> <Gold.Chemscore.Internal.Correction>
   9.000000E+99

> <Gold.Chemscore.Hbonds>
donor molecule, donor type, donor heavy atom, donor atom, acceptor molecule, acceptor atom, score
      P1  H  7989  7998       L1     7  0.11
      P1  H  7997  8009       L1     5  0.12
      P1  H  8022  8030       L1    14  0.35

> <Gold.Chemscore.Hbond.Weighted>
-5.4594

> <Gold.Chemscore.Metal.Weighted>
-0.0000

> <Gold.Chemscore.Lipo.Weighted>
-14.9021

> <Gold.Chemscore.Internal_Hbond.Weighted>
0.0000

> <Gold.Chemscore.DEClash.Weighted>
4.9843

> <Gold.Chemscore.DEInternal.Weighted>
4.1196

> <Gold.Chemscore.Rot.Weighted>
5.4107

> <Gold.Chemscore.Internal.Correction.Weighted>
   9.000000E+99

> <Gold.Protein.RotatedTorsions>
[ 6907 6896 6895 6894 ] final   92.87 input  -60.11 | X-H torsion
[ 7974 7965 7964 7962 ] final  164.80 input  175.53 | X-H torsion
[ 8008 7997 7996 7995 ] final  154.16 input   59.86 | X-H torsion
[ 10167 10162 10161 10158 ] final  145.88 input  -65.29 | X-H torsion
[ 10718 10713 10712 10709 ] final  162.81 input   66.30 | X-H torsion
[ 10763 10752 10751 10750 ] final   80.99 input  -60.55 | X-H torsion
[ 11005 11000 10999 10996 ] final   74.92 input  -57.11 | X-H torsion

> <Gold.Protein.ActiveResidues>
 VAL166  LYS551  ARG553  GLY616  TRP617  ASP618  TYR619  PRO620  LYS621  CYS622 
 ASP623  PHE694  ASN695  SER759  ASP760  ASP761  ALA762  ILE779  LEU786  VAL792 
 PHE793  MET794  SER795  GLU796  ALA797  LYS798  CYS799  TRP800  GLU811  SER814 

> <Gold.Protein.RotatedAtoms>
  152.5453  134.1435  159.8488 H   0  0  0  0  0  0  0  0  0  0  0  0  # atno 6907 bound_to 6896
  151.1468  133.4927  159.2603 H   0  0  0  0  0  0  0  0  0  0  0  0  # atno 6908 bound_to 6896
  151.1514  135.0239  159.8725 H   0  0  0  0  0  0  0  0  0  0  0  0  # atno 6909 bound_to 6896
  144.7530  139.8378  143.6360 H   0  0  0  0  0  0  0  0  0  0  0  0  # atno 7974 bound_to 7965
  156.2545  140.1974  156.6603 H   0  0  0  0  0  0  0  0  0  0  0  0  # atno 8008 bound_to 7997
  154.6470  140.0576  156.9937 H   0  0  0  0  0  0  0  0  0  0  0  0  # atno 8009 bound_to 7997
  155.1476  140.3248  155.4441 H   0  0  0  0  0  0  0  0  0  0  0  0  # atno 8010 bound_to 7997
  139.4917  144.5870  151.6758 H   0  0  0  0  0  0  0  0  0  0  0  0  # atno 10167 bound_to 10162
  157.1173  131.0483  151.2430 H   0  0  0  0  0  0  0  0  0  0  0  0  # atno 10718 bound_to 10713
  153.1079  135.4782  154.8984 H   0  0  0  0  0  0  0  0  0  0  0  0  # atno 10763 bound_to 10752
  154.7450  135.3091  154.8663 H   0  0  0  0  0  0  0  0  0  0  0  0  # atno 10764 bound_to 10752
  153.9260  135.6850  153.4800 H   0  0  0  0  0  0  0  0  0  0  0  0  # atno 10765 bound_to 10752
  139.9368  134.7474  156.1207 H   0  0  0  0  0  0  0  0  0  0  0  0  # atno 11005 bound_to 11000
  146.1504  139.4586  143.0052 LP  0  0  0  0  0  0  0  0  0  0  0  0  # atno 17320 bound_to 7965
  145.6878  141.0173  143.1571 LP  0  0  0  0  0  0  0  0  0  0  0  0  # atno 17321 bound_to 7965
  140.5488  144.0459  150.6118 LP  0  0  0  0  0  0  0  0  0  0  0  0  # atno 17342 bound_to 10162
  140.3506  143.2965  152.0491 LP  0  0  0  0  0  0  0  0  0  0  0  0  # atno 17343 bound_to 10162
  157.4507  130.7596  149.7148 LP  0  0  0  0  0  0  0  0  0  0  0  0  # atno 17370 bound_to 10713
  155.9836  130.3998  150.3353 LP  0  0  0  0  0  0  0  0  0  0  0  0  # atno 17371 bound_to 10713
  141.0985  133.6686  156.2700 LP  0  0  0  0  0  0  0  0  0  0  0  0  # atno 17394 bound_to 11000
  140.6055  134.5511  157.5525 LP  0  0  0  0  0  0  0  0  0  0  0  0  # atno 17395 bound_to 11000

$$$$
