AV-unprocessed.smi:2126|AV-procd|sdf|8677|dock5
  -GOLD-   2272011433D 1   1.00000     0.00000
 Structure written by MMmdl.
 41 43  0  0  0  0  0  0  0  0  2 V2000
  149.4807  131.2312  153.6947 C   0  0  0  0  0  0  0  0  0  0  0  0
  149.7705  131.5836  155.0393 O   0  0  0  0  0  0  0  0  0  0  0  0
  150.2361  132.8563  155.2901 C   0  0  0  0  0  0  0  0  0  0  0  0
  151.1075  133.1914  156.3554 C   0  0  0  0  0  0  0  0  0  0  0  0
  151.5328  134.5217  156.5357 C   0  0  0  0  0  0  0  0  0  0  0  0
  151.1054  135.5442  155.6658 C   0  0  0  0  0  0  0  0  0  0  0  0
  151.5718  136.8168  155.9165 O   0  0  0  0  0  0  0  0  0  0  0  0
  151.2147  137.8552  155.0136 C   0  0  0  0  0  0  0  0  0  0  0  0
  151.8746  139.1641  155.4722 C   0  0  2  0  0  0  0  0  0  0  0  0
  153.2771  138.9849  155.4655 O   0  0  0  0  0  0  0  0  0  0  0  0
  151.4033  139.6018  156.8736 C   0  0  0  0  0  0  0  0  0  0  0  0
  151.1714  141.0502  156.9694 N   0  0  0  0  0  0  0  0  0  0  0  0
  150.5049  141.8785  156.1204 C   0  0  0  0  0  0  0  0  0  0  0  0
  150.5619  143.1354  156.6413 N   0  3  0  0  0  0  0  0  0  0  0  0
  151.2755  143.1109  157.8413 C   0  0  0  0  0  0  0  0  0  0  0  0
  151.5969  144.1320  158.7303 C   0  0  0  0  0  0  0  0  0  0  0  0
  152.3440  143.7678  159.8698 C   0  0  0  0  0  0  0  0  0  0  0  0
  152.7452  142.4340  160.0891 C   0  0  0  0  0  0  0  0  0  0  0  0
  152.4151  141.4071  159.1802 C   0  0  0  0  0  0  0  0  0  0  0  0
  151.6722  141.7740  158.0582 C   0  0  0  0  0  0  0  0  0  0  0  0
  150.2334  135.2090  154.6011 C   0  0  0  0  0  0  0  0  0  0  0  0
  149.8075  133.8790  154.4213 C   0  0  0  0  0  0  0  0  0  0  0  0
  149.1269  130.2010  153.6620 H   0  0  0  0  0  0  0  0  0  0  0  0
  150.3694  131.2945  153.0652 H   0  0  0  0  0  0  0  0  0  0  0  0
  148.6958  131.8631  153.2771 H   0  0  0  0  0  0  0  0  0  0  0  0
  151.4649  132.4460  157.0493 H   0  0  0  0  0  0  0  0  0  0  0  0
  152.1970  134.7596  157.3535 H   0  0  0  0  0  0  0  0  0  0  0  0
  151.5307  137.6120  153.9977 H   0  0  0  0  0  0  0  0  0  0  0  0
  150.1296  137.9733  155.0121 H   0  0  0  0  0  0  0  0  0  0  0  0
  151.6435  139.9489  154.7505 H   0  0  0  0  0  0  0  0  0  0  0  0
  153.4614  138.0655  155.3461 H   0  0  0  0  0  0  0  0  0  0  0  0
  150.4593  139.1130  157.1175 H   0  0  0  0  0  0  0  0  0  0  0  0
  152.1105  139.2960  157.6449 H   0  0  0  0  0  0  0  0  0  0  0  0
  150.0181  141.5903  155.1997 H   0  0  0  0  0  0  0  0  0  0  0  0
  151.2935  145.1551  158.5629 H   0  0  0  0  0  0  0  0  0  0  0  0
  152.6164  144.5270  160.5888 H   0  0  0  0  0  0  0  0  0  0  0  0
  153.3196  142.1932  160.9720 H   0  0  0  0  0  0  0  0  0  0  0  0
  152.7340  140.3904  159.3552 H   0  0  0  0  0  0  0  0  0  0  0  0
  149.8750  135.9536  153.9069 H   0  0  0  0  0  0  0  0  0  0  0  0
  149.1421  133.6410  153.6043 H   0  0  0  0  0  0  0  0  0  0  0  0
  150.1429  143.9481  156.2073 H   0  0  0  0  0  0  0  0  0  0  0  0
  1  2  1  0  0  0  0
  1 23  1  0  0  0  0
  1 24  1  0  0  0  0
  1 25  1  0  0  0  0
  2  3  1  0  0  0  0
  3 22  1  0  0  0  0
  3  4  2  0  0  0  0
  4  5  1  0  0  0  0
  4 26  1  0  0  0  0
  5  6  2  0  0  0  0
  5 27  1  0  0  0  0
  6  7  1  0  0  0  0
  6 21  1  0  0  0  0
  7  8  1  0  0  0  0
  8  9  1  0  0  0  0
  8 28  1  0  0  0  0
  8 29  1  0  0  0  0
  9 10  1  0  0  0  0
  9 11  1  0  0  0  0
  9 30  1  0  0  0  0
 10 31  1  0  0  0  0
 11 12  1  0  0  0  0
 11 32  1  0  0  0  0
 11 33  1  0  0  0  0
 12 20  1  0  0  0  0
 12 13  1  0  0  0  0
 13 14  2  0  0  0  0
 13 34  1  0  0  0  0
 14 15  1  0  0  0  0
 14 41  1  0  0  0  0
 15 20  2  0  0  0  0
 15 16  1  0  0  0  0
 16 17  2  0  0  0  0
 16 35  1  0  0  0  0
 17 18  1  0  0  0  0
 17 36  1  0  0  0  0
 18 19  2  0  0  0  0
 18 37  1  0  0  0  0
 19 20  1  0  0  0  0
 19 38  1  0  0  0  0
 21 22  2  0  0  0  0
 21 39  1  0  0  0  0
 22 40  1  0  0  0  0
M  CHG  1  14   1
M  END
> <s_m_source_file>
AV-unprocessed.smi

> <i_m_source_file_index>
2126

> <i_lp_mmshare_version>
43012

> <i_f3d_flags>
0

> <s_epik_input>
W0NIM11PYzFbY0hdW2NIXWMoW2NIXVtjSF0xKU9bQ0gyXVtDQEhdKFtPSF0pW0NIMl1uKFtjSF1uMiljKGMyMylbY0hdW2NIXVtjSF1bY0hdMw==

> <s_epik_cmdline>
J2VwaWtfcHl0aG9uJywgJy1waCcsICc3LjAnLCAnLXRuJywgJzgnLCAnLW1hJywgJzIwMCcsICctbWV0YWxfYmluZGluZycsICctaW1hZScsICc8aW5maWxlLm1hZT4nLCAnLW9tYWUnLCAnPG91dGZpbGUubWFlPic=

> <r_lp_tautomer_probability>
1

> <r_epik_Ionization_Penalty>
1.37822

> <r_epik_Ionization_Penalty_Charging>
1.37822

> <r_epik_Ionization_Penalty_Neutral>
2.3993e-06

> <r_epik_State_Penalty>
1.45852

> <r_epik_Charging_Adjusted_Penalty>
2.83674

> <i_epik_Tot_Q>
1

> <i_epik_Tot_abs_Q>
1

> <r_epik_Metal_State_Penalty>
5.4985

> <b_epik_Metal_Only>
0

> <s_lp_Force_Field>
OPLS_2005

> <r_lp_Energy>
23.2038

> <b_lp_Chiralities_Consistent>
1

> <s_lp_Variant>
AV-unprocessed.smi:2126-3

> <Gold.Version>
5.8.1

> <Gold.Id.Protein>
6NUR|6NUR_protein|mol2

> <Gold.PLP.Fitness>
53.6535

> <Gold.PLP.PLP>
-46.8195

> <Gold.PLP.part.hbond>
-2.4002

> <Gold.PLP.part.metal>
0.0000

> <Gold.PLP.part.buried>
-4.4482

> <Gold.PLP.part.nonpolar>
-39.5363

> <Gold.PLP.part.repulsive>
0.0845

> <Gold.PLP.ligand.clash>
0.0000

> <Gold.PLP.ligand.torsion>
1.1174

> <Gold.PLP.Chemscore.Hbond>
3.0000

> <Gold.PLP.Chemscore.CHOScore>
0.0000

> <Gold.PLP.Chemscore.Metal>
0.0000

> <Gold.Chemscore.Hbonds>
donor molecule, donor type, donor heavy atom, donor atom, acceptor molecule, acceptor atom, score
      L1  H    14    41       P1  8028  2.00
      P1  H  7997  8010       L1    10  1.00

> <Gold.PLP.Chemscore.Internal.Correction>
0.0688

> <Gold.Rescore>
     Score         DG    S(hbond)    S(metal)    S(lipo)     H(rot)  DE(clash)    DE(int)     intcor
     18.47     -19.88       1.95        0.00     124.39       2.60       0.10       1.31       ----

> <Gold.Chemscore.Fitness>
18.4710

> <Gold.Chemscore.DG>
-19.8767

> <Gold.Chemscore.ZeroCoef>
-5.4800

> <Gold.Chemscore.Hbond>
1.9493

> <Gold.Chemscore.Metal>
0.0000

> <Gold.Chemscore.Lipo>
124.3855

> <Gold.Chemscore.Internal_Hbond>
0.0000

> <Gold.Chemscore.DEClash>
0.0979

> <Gold.Chemscore.DEInternal>
1.3077

> <Gold.Chemscore.Rot>
2.6043

> <Gold.Chemscore.Internal.Correction>
   9.000000E+99

> <Gold.Chemscore.Hbonds>
donor molecule, donor type, donor heavy atom, donor atom, acceptor molecule, acceptor atom, score
      L1  H    14    41       P1  8028  0.92
      P1  H  7997  8010       L1    10  0.98

> <Gold.Chemscore.Hbond.Weighted>
-6.5106

> <Gold.Chemscore.Metal.Weighted>
-0.0000

> <Gold.Chemscore.Lipo.Weighted>
-14.5531

> <Gold.Chemscore.Internal_Hbond.Weighted>
0.0000

> <Gold.Chemscore.DEClash.Weighted>
0.0979

> <Gold.Chemscore.DEInternal.Weighted>
1.3077

> <Gold.Chemscore.Rot.Weighted>
6.6670

> <Gold.Chemscore.Internal.Correction.Weighted>
   9.000000E+99

> <Gold.Protein.RotatedTorsions>
[ 6907 6896 6895 6894 ] final  125.44 input  -60.11 | X-H torsion
[ 7974 7965 7964 7962 ] final  -91.11 input  175.53 | X-H torsion
[ 8008 7997 7996 7995 ] final   98.62 input   59.86 | X-H torsion
[ 10167 10162 10161 10158 ] final   10.47 input  -65.29 | X-H torsion
[ 10718 10713 10712 10709 ] final  -75.47 input   66.30 | X-H torsion
[ 10763 10752 10751 10750 ] final  -24.15 input  -60.55 | X-H torsion
[ 11005 11000 10999 10996 ] final -167.95 input  -57.11 | X-H torsion

> <Gold.Protein.ActiveResidues>
 VAL166  LYS551  ARG553  GLY616  TRP617  ASP618  TYR619  PRO620  LYS621  CYS622 
 ASP623  PHE694  ASN695  SER759  ASP760  ASP761  ALA762  ILE779  LEU786  VAL792 
 PHE793  MET794  SER795  GLU796  ALA797  LYS798  CYS799  TRP800  GLU811  SER814 

> <Gold.Protein.RotatedAtoms>
  152.3992  133.6792  159.6301 H   0  0  0  0  0  0  0  0  0  0  0  0  # atno 6907 bound_to 6896
  150.7886  133.8821  159.3298 H   0  0  0  0  0  0  0  0  0  0  0  0  # atno 6908 bound_to 6896
  151.6591  135.0993  160.0227 H   0  0  0  0  0  0  0  0  0  0  0  0  # atno 6909 bound_to 6896
  145.4175  140.9549  143.2200 H   0  0  0  0  0  0  0  0  0  0  0  0  # atno 7974 bound_to 7965
  156.1022  140.3241  155.7958 H   0  0  0  0  0  0  0  0  0  0  0  0  # atno 8008 bound_to 7997
  155.4817  140.0554  157.2983 H   0  0  0  0  0  0  0  0  0  0  0  0  # atno 8009 bound_to 7997
  154.4704  140.2009  156.0024 H   0  0  0  0  0  0  0  0  0  0  0  0  # atno 8010 bound_to 7997
  140.6192  143.8241  150.7155 H   0  0  0  0  0  0  0  0  0  0  0  0  # atno 10167 bound_to 10162
  156.0206  130.4441  150.3048 H   0  0  0  0  0  0  0  0  0  0  0  0  # atno 10718 bound_to 10713
  153.6792  135.6967  153.5123 H   0  0  0  0  0  0  0  0  0  0  0  0  # atno 10763 bound_to 10752
  153.2498  135.4279  155.0784 H   0  0  0  0  0  0  0  0  0  0  0  0  # atno 10764 bound_to 10752
  154.8405  135.3528  154.6336 H   0  0  0  0  0  0  0  0  0  0  0  0  # atno 10765 bound_to 10752
  140.5475  134.5461  157.5114 H   0  0  0  0  0  0  0  0  0  0  0  0  # atno 11005 bound_to 11000
  144.8268  139.5697  143.6962 LP  0  0  0  0  0  0  0  0  0  0  0  0  # atno 17320 bound_to 7965
  146.2674  139.6552  142.9320 LP  0  0  0  0  0  0  0  0  0  0  0  0  # atno 17321 bound_to 7965
  140.1828  143.4101  152.1921 LP  0  0  0  0  0  0  0  0  0  0  0  0  # atno 17342 bound_to 10162
  139.5424  144.7268  151.4691 LP  0  0  0  0  0  0  0  0  0  0  0  0  # atno 17343 bound_to 10162
  157.1150  131.0231  151.3032 LP  0  0  0  0  0  0  0  0  0  0  0  0  # atno 17370 bound_to 10713
  157.4674  130.7688  149.7291 LP  0  0  0  0  0  0  0  0  0  0  0  0  # atno 17371 bound_to 10713
  139.9472  134.7681  156.0534 LP  0  0  0  0  0  0  0  0  0  0  0  0  # atno 17394 bound_to 11000
  141.1191  133.6618  156.3169 LP  0  0  0  0  0  0  0  0  0  0  0  0  # atno 17395 bound_to 11000

$$$$
