AV-unprocessed.smi:36|AV-procd|sdf|299|dock10
  -GOLD-   2262016103D 1   1.00000     0.00000
 Structure written by MMmdl.
 63 66  0  0  0  0  0  0  0  0  2 V2000
  147.5047  135.1308  161.5441 C   0  0  0  0  0  0  0  0  0  0  0  0
  148.7768  134.2964  161.3215 C   0  0  0  0  0  0  0  0  0  0  0  0
  149.6501  134.9636  160.2455 C   0  0  0  0  0  0  0  0  0  0  0  0
  149.5643  134.1815  162.6371 C   0  0  0  0  0  0  0  0  0  0  0  0
  148.2830  132.5502  160.7240 Si  0  0  0  0  0  0  0  0  0  0  0  0
  149.7980  131.4013  160.6738 C   0  0  0  0  0  0  0  0  0  0  0  0
  146.9523  131.7911  161.8469 C   0  0  0  0  0  0  0  0  0  0  0  0
  147.6292  132.7004  159.1677 O   0  0  0  0  0  0  0  0  0  0  0  0
  146.7408  133.7251  158.7665 C   0  0  0  0  0  0  0  0  0  0  0  0
  147.4416  134.6198  157.7329 C   0  0  2  0  0  0  0  0  0  0  0  0
  146.8775  135.9238  157.7023 O   0  0  0  0  0  0  0  0  0  0  0  0
  147.3276  136.5772  156.5551 C   0  0  1  0  0  0  0  0  0  0  0  0
  148.5885  137.3175  156.8923 N   0  0  0  0  0  0  0  0  0  0  0  0
  149.2099  137.4454  158.0847 C   0  0  0  0  0  0  0  0  0  0  0  0
  150.3150  138.1865  158.1267 N   0  0  0  0  0  0  0  0  0  0  0  0
  150.4150  138.6129  156.8108 C   0  0  0  0  0  0  0  0  0  0  0  0
  151.3504  139.4496  156.1429 C   0  0  0  0  0  0  0  0  0  0  0  0
  152.4016  140.0032  156.7662 N   0  5  0  0  0  0  0  0  0  0  0  0
  152.4987  139.9307  158.1181 C   0  0  0  0  0  0  0  0  0  0  0  0
  152.6146  138.9211  158.8162 O   0  0  0  0  0  0  0  0  0  0  0  0
  152.3761  141.2693  158.7951 C   0  0  0  0  0  0  0  0  0  0  0  0
  151.4579  142.2226  158.2988 C   0  0  0  0  0  0  0  0  0  0  0  0
  151.3112  143.4725  158.9312 C   0  0  0  0  0  0  0  0  0  0  0  0
  152.0741  143.7784  160.0735 C   0  0  0  0  0  0  0  0  0  0  0  0
  152.9807  142.8315  160.5858 C   0  0  0  0  0  0  0  0  0  0  0  0
  153.1290  141.5817  159.9531 C   0  0  0  0  0  0  0  0  0  0  0  0
  151.1480  139.6623  154.8172 N   0  0  0  0  0  0  0  0  0  0  0  0
  150.0970  139.1127  154.1968 C   0  0  0  0  0  0  0  0  0  0  0  0
  149.1431  138.3220  154.6986 N   0  0  0  0  0  0  0  0  0  0  0  0
  149.3455  138.0894  156.0281 C   0  0  0  0  0  0  0  0  0  0  0  0
  147.6035  135.4816  155.5075 C   0  0  0  0  0  0  0  0  0  0  0  0
  147.3474  134.1853  156.2676 C   0  0  2  0  0  0  0  0  0  0  0  0
  146.0686  133.6660  155.9544 O   0  0  0  0  0  0  0  0  0  0  0  0
  147.7464  136.1437  161.8679 H   0  0  0  0  0  0  0  0  0  0  0  0
  146.8648  134.6867  162.3067 H   0  0  0  0  0  0  0  0  0  0  0  0
  146.9184  135.2096  160.6279 H   0  0  0  0  0  0  0  0  0  0  0  0
  149.1134  135.0509  159.3003 H   0  0  0  0  0  0  0  0  0  0  0  0
  150.5588  134.3918  160.0557 H   0  0  0  0  0  0  0  0  0  0  0  0
  149.9523  135.9677  160.5450 H   0  0  0  0  0  0  0  0  0  0  0  0
  149.8631  135.1630  163.0068 H   0  0  0  0  0  0  0  0  0  0  0  0
  150.4711  133.5900  162.5075 H   0  0  0  0  0  0  0  0  0  0  0  0
  148.9688  133.7052  163.4163 H   0  0  0  0  0  0  0  0  0  0  0  0
  150.2187  131.2530  161.6679 H   0  0  0  0  0  0  0  0  0  0  0  0
  150.5919  131.8057  160.0461 H   0  0  0  0  0  0  0  0  0  0  0  0
  149.5422  130.4170  160.2827 H   0  0  0  0  0  0  0  0  0  0  0  0
  147.3064  131.6839  162.8719 H   0  0  0  0  0  0  0  0  0  0  0  0
  146.6554  130.8010  161.5014 H   0  0  0  0  0  0  0  0  0  0  0  0
  146.0534  132.4064  161.8756 H   0  0  0  0  0  0  0  0  0  0  0  0
  145.8445  133.2766  158.3363 H   0  0  0  0  0  0  0  0  0  0  0  0
  146.4297  134.2988  159.6398 H   0  0  0  0  0  0  0  0  0  0  0  0
  148.4975  134.7054  157.9865 H   0  0  0  0  0  0  0  0  0  0  0  0
  146.6336  137.3520  156.2278 H   0  0  0  0  0  0  0  0  0  0  0  0
  148.8348  136.9665  158.9768 H   0  0  0  0  0  0  0  0  0  0  0  0
  150.8639  142.0021  157.4235 H   0  0  0  0  0  0  0  0  0  0  0  0
  150.6116  144.1959  158.5392 H   0  0  0  0  0  0  0  0  0  0  0  0
  151.9611  144.7364  160.5587 H   0  0  0  0  0  0  0  0  0  0  0  0
  153.5617  143.0617  161.4667 H   0  0  0  0  0  0  0  0  0  0  0  0
  153.8227  140.8642  160.3676 H   0  0  0  0  0  0  0  0  0  0  0  0
  150.0086  139.3382  153.1445 H   0  0  0  0  0  0  0  0  0  0  0  0
  146.9476  135.6067  154.6448 H   0  0  0  0  0  0  0  0  0  0  0  0
  148.6366  135.5324  155.1615 H   0  0  0  0  0  0  0  0  0  0  0  0
  148.0920  133.4249  156.0298 H   0  0  0  0  0  0  0  0  0  0  0  0
  145.8962  133.8207  155.0383 H   0  0  0  0  0  0  0  0  0  0  0  0
  1  2  1  0  0  0  0
  1 34  1  0  0  0  0
  1 35  1  0  0  0  0
  1 36  1  0  0  0  0
  2  3  1  0  0  0  0
  2  4  1  0  0  0  0
  2  5  1  0  0  0  0
  3 37  1  0  0  0  0
  3 38  1  0  0  0  0
  3 39  1  0  0  0  0
  4 40  1  0  0  0  0
  4 41  1  0  0  0  0
  4 42  1  0  0  0  0
  5  6  1  0  0  0  0
  5  7  1  0  0  0  0
  5  8  1  0  0  0  0
  6 43  1  0  0  0  0
  6 44  1  0  0  0  0
  6 45  1  0  0  0  0
  7 46  1  0  0  0  0
  7 47  1  0  0  0  0
  7 48  1  0  0  0  0
  8  9  1  0  0  0  0
  9 10  1  0  0  0  0
  9 49  1  0  0  0  0
  9 50  1  0  0  0  0
 10 32  1  0  0  0  0
 10 11  1  0  0  0  0
 10 51  1  0  0  0  0
 11 12  1  0  0  0  0
 12 13  1  0  0  0  0
 12 31  1  0  0  0  0
 12 52  1  0  0  0  0
 13 30  1  0  0  0  0
 13 14  1  0  0  0  0
 14 15  2  0  0  0  0
 14 53  1  0  0  0  0
 15 16  1  0  0  0  0
 16 30  2  0  0  0  0
 16 17  1  0  0  0  0
 17 18  1  0  0  0  0
 17 27  2  0  0  0  0
 18 19  1  0  0  0  0
 19 20  2  0  0  0  0
 19 21  1  0  0  0  0
 21 26  1  0  0  0  0
 21 22  2  0  0  0  0
 22 23  1  0  0  0  0
 22 54  1  0  0  0  0
 23 24  2  0  0  0  0
 23 55  1  0  0  0  0
 24 25  1  0  0  0  0
 24 56  1  0  0  0  0
 25 26  2  0  0  0  0
 25 57  1  0  0  0  0
 26 58  1  0  0  0  0
 27 28  1  0  0  0  0
 28 29  2  0  0  0  0
 28 59  1  0  0  0  0
 29 30  1  0  0  0  0
 31 32  1  0  0  0  0
 31 60  1  0  0  0  0
 31 61  1  0  0  0  0
 32 33  1  0  0  0  0
 32 62  1  0  0  0  0
 33 63  1  0  0  0  0
M  CHG  1  18  -1
M  END
> <s_m_source_file>
AV-unprocessed.smi

> <i_m_source_file_index>
36

> <i_lp_mmshare_version>
43012

> <i_f3d_flags>
0

> <s_epik_input>
W0NIM11DKFtDSDNdKShbQ0gzXSlbU2ldKFtDSDNdKShbQ0gzXSlPW0NIMl1bQ0BASF0xT1tDQEhdKFtDSDJdW0NASF0xW09IXSluKFtjSF1uMiljKGMyMyluW2NIXW5jM1tOSF1DKD1PKWM0W2NIXVtjSF1bY0hdW2NIXVtjSF00

> <s_epik_cmdline>
J2VwaWtfcHl0aG9uJywgJy1waCcsICc3LjAnLCAnLXRuJywgJzgnLCAnLW1hJywgJzIwMCcsICctbWV0YWxfYmluZGluZycsICctaW1hZScsICc8aW5maWxlLm1hZT4nLCAnLW9tYWUnLCAnPG91dGZpbGUubWFlPic=

> <r_lp_tautomer_probability>
1

> <r_epik_Ionization_Penalty>
4.75685

> <r_epik_Ionization_Penalty_Charging>
3.55822

> <r_epik_Ionization_Penalty_Neutral>
1.19863

> <r_epik_State_Penalty>
3.564

> <r_epik_Charging_Adjusted_Penalty>
7.12222

> <i_epik_Tot_Q>
-1

> <i_epik_Tot_abs_Q>
1

> <r_epik_Metal_State_Penalty>
0.523258

> <b_epik_Metal_Only>
1

> <s_epik_Chemistry_Notes>
This compound contains an acetal/aminal-like group ( X-CH(R)-Y where X, Y are N, S, or O) that may be acid/base labile, releasing an aldehyde.

> <s_lp_Force_Field>
OPLS_2005

> <r_lp_Energy>
31.8214

> <b_lp_Chiralities_Consistent>
1

> <s_lp_Variant>
AV-unprocessed.smi:36-21

> <Gold.Version>
5.8.1

> <Gold.Id.Protein>
6NUR|6NUR_protein|mol2

> <Gold.PLP.Fitness>
56.2926

> <Gold.PLP.PLP>
-48.8518

> <Gold.PLP.part.hbond>
-2.0000

> <Gold.PLP.part.metal>
0.0000

> <Gold.PLP.part.buried>
-5.5760

> <Gold.PLP.part.nonpolar>
-41.5134

> <Gold.PLP.part.repulsive>
0.2648

> <Gold.PLP.ligand.clash>
0.0000

> <Gold.PLP.ligand.torsion>
2.3047

> <Gold.PLP.Chemscore.Hbond>
2.9000

> <Gold.PLP.Chemscore.CHOScore>
1.0000

> <Gold.PLP.Chemscore.Metal>
0.0000

> <Gold.Chemscore.Hbonds>
donor molecule, donor type, donor heavy atom, donor atom, acceptor molecule, acceptor atom, score
      P1  H  7989  7998       L1    27  0.90
      P1  H  7997  8008       L1    18  1.50
      L1  C    28    59       P1  7957  1.00

> <Gold.PLP.Chemscore.Internal.Correction>
0.3503

> <Gold.Rescore>
     Score         DG    S(hbond)    S(metal)    S(lipo)     H(rot)  DE(clash)    DE(int)     intcor
      9.55     -14.83       0.91        0.00     112.34       2.67       0.02       5.26       ----

> <Gold.Chemscore.Fitness>
9.5513

> <Gold.Chemscore.DG>
-14.8299

> <Gold.Chemscore.ZeroCoef>
-5.4800

> <Gold.Chemscore.Hbond>
0.9106

> <Gold.Chemscore.Metal>
0.0000

> <Gold.Chemscore.Lipo>
112.3446

> <Gold.Chemscore.Internal_Hbond>
0.0000

> <Gold.Chemscore.DEClash>
0.0195

> <Gold.Chemscore.DEInternal>
5.2592

> <Gold.Chemscore.Rot>
2.6702

> <Gold.Chemscore.Internal.Correction>
   9.000000E+99

> <Gold.Chemscore.Hbonds>
donor molecule, donor type, donor heavy atom, donor atom, acceptor molecule, acceptor atom, score
      P1  H  7989  7998       L1    27  0.18
      P1  H  7997  8008       L1    18  0.09

> <Gold.Chemscore.Hbond.Weighted>
-3.0414

> <Gold.Chemscore.Metal.Weighted>
-0.0000

> <Gold.Chemscore.Lipo.Weighted>
-13.1443

> <Gold.Chemscore.Internal_Hbond.Weighted>
0.0000

> <Gold.Chemscore.DEClash.Weighted>
0.0195

> <Gold.Chemscore.DEInternal.Weighted>
5.2592

> <Gold.Chemscore.Rot.Weighted>
6.8358

> <Gold.Chemscore.Internal.Correction.Weighted>
   9.000000E+99

> <Gold.Protein.RotatedTorsions>
[ 6907 6896 6895 6894 ] final  -23.51 input  -60.11 | X-H torsion
[ 7974 7965 7964 7962 ] final   83.96 input  175.53 | X-H torsion
[ 8008 7997 7996 7995 ] final  -48.83 input   59.86 | X-H torsion
[ 10167 10162 10161 10158 ] final -110.57 input  -65.29 | X-H torsion
[ 10718 10713 10712 10709 ] final  -26.26 input   66.30 | X-H torsion
[ 10763 10752 10751 10750 ] final   61.19 input  -60.55 | X-H torsion
[ 11005 11000 10999 10996 ] final -115.25 input  -57.11 | X-H torsion

> <Gold.Protein.ActiveResidues>
 VAL166  LYS551  ARG553  GLY616  TRP617  ASP618  TYR619  PRO620  LYS621  CYS622 
 ASP623  PHE694  ASN695  SER759  ASP760  ASP761  ALA762  ILE779  LEU786  VAL792 
 PHE793  MET794  SER795  GLU796  ALA797  LYS798  CYS799  TRP800  GLU811  SER814 

> <Gold.Protein.RotatedAtoms>
  151.2029  135.0450  159.8879 H   0  0  0  0  0  0  0  0  0  0  0  0  # atno 6907 bound_to 6896
  152.5431  134.0830  159.8254 H   0  0  0  0  0  0  0  0  0  0  0  0  # atno 6908 bound_to 6896
  151.0973  133.5222  159.2643 H   0  0  0  0  0  0  0  0  0  0  0  0  # atno 6909 bound_to 6896
  145.6050  139.2358  143.2224 H   0  0  0  0  0  0  0  0  0  0  0  0  # atno 7974 bound_to 7965
  154.4034  140.1312  156.4403 H   0  0  0  0  0  0  0  0  0  0  0  0  # atno 8008 bound_to 7997
  155.7465  140.3489  155.5109 H   0  0  0  0  0  0  0  0  0  0  0  0  # atno 8009 bound_to 7997
  155.8990  140.1016  157.1354 H   0  0  0  0  0  0  0  0  0  0  0  0  # atno 8010 bound_to 7997
  140.1430  143.4263  152.1549 H   0  0  0  0  0  0  0  0  0  0  0  0  # atno 10167 bound_to 10162
  156.4535  130.4489  149.6974 H   0  0  0  0  0  0  0  0  0  0  0  0  # atno 10718 bound_to 10713
  152.9943  135.5509  154.5994 H   0  0  0  0  0  0  0  0  0  0  0  0  # atno 10763 bound_to 10752
  154.5339  135.2815  155.1158 H   0  0  0  0  0  0  0  0  0  0  0  0  # atno 10764 bound_to 10752
  154.2462  135.6407  153.5277 H   0  0  0  0  0  0  0  0  0  0  0  0  # atno 10765 bound_to 10752
  141.0500  133.9703  157.2853 H   0  0  0  0  0  0  0  0  0  0  0  0  # atno 11005 bound_to 11000
  146.1547  140.6874  142.9305 LP  0  0  0  0  0  0  0  0  0  0  0  0  # atno 17320 bound_to 7965
  144.7294  140.4624  143.6949 LP  0  0  0  0  0  0  0  0  0  0  0  0  # atno 17321 bound_to 7965
  139.5463  144.7301  151.4574 LP  0  0  0  0  0  0  0  0  0  0  0  0  # atno 17342 bound_to 10162
  140.6749  143.8212  150.7045 LP  0  0  0  0  0  0  0  0  0  0  0  0  # atno 17343 bound_to 10162
  156.3791  130.7570  151.2561 LP  0  0  0  0  0  0  0  0  0  0  0  0  # atno 17370 bound_to 10713
  157.7501  131.0301  150.4121 LP  0  0  0  0  0  0  0  0  0  0  0  0  # atno 17371 bound_to 10713
  139.9342  135.0198  156.8502 LP  0  0  0  0  0  0  0  0  0  0  0  0  # atno 17394 bound_to 11000
  140.6074  134.0114  155.7562 LP  0  0  0  0  0  0  0  0  0  0  0  0  # atno 17395 bound_to 11000

$$$$
