AV-unprocessed.smi:1344|AV-procd|sdf|5509|dock9
  -GOLD-   22720 5 93D 1   1.00000     0.00000
 Structure written by MMmdl.
 32 34  0  0  0  0  0  0  0  0  1 V2000
  151.2594  141.3720  157.7193 O   0  0  0  0  0  0  0  0  0  0  0  0
  150.9178  142.4187  157.1685 C   0  0  0  0  0  0  0  0  0  0  0  0
  151.4379  143.7608  157.6866 C   0  0  0  0  0  0  0  0  0  0  0  0
  151.9976  143.6000  159.0705 C   0  0  0  0  0  0  0  0  0  0  0  0
  151.8304  144.4581  160.1299 C   0  0  0  0  0  0  0  0  0  0  0  0
  152.6430  143.8932  161.5641 S   0  0  0  0  0  0  0  0  0  0  0  0
  153.1941  142.4830  160.6552 C   0  0  0  0  0  0  0  0  0  0  0  0
  153.9839  141.4074  161.1582 N   0  0  0  0  0  0  0  0  0  0  0  0
  154.4411  141.3744  162.5438 C   0  0  0  0  0  0  0  0  0  0  0  0
  155.2715  140.0972  162.6246 C   0  0  0  0  0  0  0  0  0  0  0  0
  155.1542  139.5734  161.2841 N   0  0  0  0  0  0  0  0  0  0  0  0
  154.4185  140.3333  160.4696 C   0  0  0  0  0  0  0  0  0  0  0  0
  154.1932  140.0611  159.2919 O   0  0  0  0  0  0  0  0  0  0  0  0
  152.7830  142.4844  159.3828 N   0  0  0  0  0  0  0  0  0  0  0  0
  150.0981  142.4684  156.1075 N   0  0  0  0  0  0  0  0  0  0  0  0
  149.5198  141.3428  155.4492 C   0  0  0  0  0  0  0  0  0  0  0  0
  148.1913  141.5464  154.7534 C   0  0  0  0  0  0  0  0  0  0  0  0
  148.2511  140.7621  156.0351 C   0  0  0  0  0  0  0  0  0  0  0  0
  152.1959  144.1477  157.0039 H   0  0  0  0  0  0  0  0  0  0  0  0
  150.6229  144.4860  157.6826 H   0  0  0  0  0  0  0  0  0  0  0  0
  151.2751  145.3842  160.1542 H   0  0  0  0  0  0  0  0  0  0  0  0
  155.0411  142.2561  162.7741 H   0  0  0  0  0  0  0  0  0  0  0  0
  153.5923  141.3412  163.2285 H   0  0  0  0  0  0  0  0  0  0  0  0
  156.3155  140.3016  162.8650 H   0  0  0  0  0  0  0  0  0  0  0  0
  154.8697  139.3905  163.3514 H   0  0  0  0  0  0  0  0  0  0  0  0
  155.5910  138.7079  161.0014 H   0  0  0  0  0  0  0  0  0  0  0  0
  149.8794  143.3777  155.7263 H   0  0  0  0  0  0  0  0  0  0  0  0
  150.2001  140.6322  154.9818 H   0  0  0  0  0  0  0  0  0  0  0  0
  147.7428  142.5376  154.7919 H   0  0  0  0  0  0  0  0  0  0  0  0
  148.0172  140.9924  153.8331 H   0  0  0  0  0  0  0  0  0  0  0  0
  148.1176  139.6841  155.9714 H   0  0  0  0  0  0  0  0  0  0  0  0
  147.8426  141.2290  156.9295 H   0  0  0  0  0  0  0  0  0  0  0  0
  1  2  2  0  0  0  0
  2  3  1  0  0  0  0
  2 15  1  0  0  0  0
  3  4  1  0  0  0  0
  3 19  1  0  0  0  0
  3 20  1  0  0  0  0
  4 14  1  0  0  0  0
  4  5  2  0  0  0  0
  5  6  1  0  0  0  0
  5 21  1  0  0  0  0
  6  7  1  0  0  0  0
  7  8  1  0  0  0  0
  7 14  2  0  0  0  0
  8 12  1  0  0  0  0
  8  9  1  0  0  0  0
  9 10  1  0  0  0  0
  9 22  1  0  0  0  0
  9 23  1  0  0  0  0
 10 11  1  0  0  0  0
 10 24  1  0  0  0  0
 10 25  1  0  0  0  0
 11 12  1  0  0  0  0
 11 26  1  0  0  0  0
 12 13  2  0  0  0  0
 15 16  1  0  0  0  0
 15 27  1  0  0  0  0
 16 18  1  0  0  0  0
 16 17  1  0  0  0  0
 16 28  1  0  0  0  0
 17 18  1  0  0  0  0
 17 29  1  0  0  0  0
 17 30  1  0  0  0  0
 18 31  1  0  0  0  0
 18 32  1  0  0  0  0
M  END
> <s_m_source_file>
AV-unprocessed.smi

> <i_m_source_file_index>
1344

> <i_lp_mmshare_version>
43012

> <i_f3d_flags>
0

> <s_epik_input>
W0NIMl0xW0NIMl1bQ0hdMVtOSF1DKD1PKVtDSDJdYzJbY0hdc2MobjIpTjNbQ0gyXVtDSDJdW05IXUMzPU8=

> <s_epik_cmdline>
J2VwaWtfcHl0aG9uJywgJy1waCcsICc3LjAnLCAnLXRuJywgJzgnLCAnLW1hJywgJzIwMCcsICctbWV0YWxfYmluZGluZycsICctaW1hZScsICc8aW5maWxlLm1hZT4nLCAnLW9tYWUnLCAnPG91dGZpbGUubWFlPic=

> <r_lp_tautomer_probability>
1

> <r_epik_Ionization_Penalty>
0.000119825

> <r_epik_Ionization_Penalty_Charging>
0

> <r_epik_Ionization_Penalty_Neutral>
0.000119825

> <r_epik_State_Penalty>
-0

> <r_epik_Charging_Adjusted_Penalty>
0

> <i_epik_Tot_Q>
0

> <i_epik_Tot_abs_Q>
0

> <r_epik_Metal_State_Penalty>
-0

> <b_epik_Metal_Only>
0

> <s_lp_Force_Field>
OPLS_2005

> <r_lp_Energy>
42.6691

> <b_lp_Chiralities_Consistent>
1

> <s_lp_Variant>
AV-unprocessed.smi:1344-1

> <Gold.Version>
5.8.1

> <Gold.Id.Protein>
6NUR|6NUR_protein|mol2

> <Gold.PLP.Fitness>
45.8920

> <Gold.PLP.PLP>
-41.8686

> <Gold.PLP.part.hbond>
-2.0000

> <Gold.PLP.part.metal>
0.0000

> <Gold.PLP.part.buried>
-2.8771

> <Gold.PLP.part.nonpolar>
-36.8176

> <Gold.PLP.part.repulsive>
0.1747

> <Gold.PLP.ligand.clash>
0.0000

> <Gold.PLP.ligand.torsion>
0.8161

> <Gold.PLP.Chemscore.Hbond>
1.8720

> <Gold.PLP.Chemscore.CHOScore>
0.0000

> <Gold.PLP.Chemscore.Metal>
0.0000

> <Gold.Chemscore.Hbonds>
donor molecule, donor type, donor heavy atom, donor atom, acceptor molecule, acceptor atom, score
      L1  H    15    27       P1  8028  1.00
      P1  H  7997  8010       L1    13  0.73

> <Gold.PLP.Chemscore.Internal.Correction>
0.0395

> <Gold.Rescore>
     Score         DG    S(hbond)    S(metal)    S(lipo)     H(rot)  DE(clash)    DE(int)     intcor
     13.09     -17.24       1.82        0.00      83.63       1.61       0.35       3.80       ----

> <Gold.Chemscore.Fitness>
13.0924

> <Gold.Chemscore.DG>
-17.2410

> <Gold.Chemscore.ZeroCoef>
-5.4800

> <Gold.Chemscore.Hbond>
1.8231

> <Gold.Chemscore.Metal>
0.0000

> <Gold.Chemscore.Lipo>
83.6319

> <Gold.Chemscore.Internal_Hbond>
0.0000

> <Gold.Chemscore.DEClash>
0.3450

> <Gold.Chemscore.DEInternal>
3.8035

> <Gold.Chemscore.Rot>
1.6067

> <Gold.Chemscore.Internal.Correction>
   9.000000E+99

> <Gold.Chemscore.Hbonds>
donor molecule, donor type, donor heavy atom, donor atom, acceptor molecule, acceptor atom, score
      L1  H    15    27       P1  8028  0.95
      P1  H  7997  8010       L1    13  0.69

> <Gold.Chemscore.Hbond.Weighted>
-6.0892

> <Gold.Chemscore.Metal.Weighted>
-0.0000

> <Gold.Chemscore.Lipo.Weighted>
-9.7849

> <Gold.Chemscore.Internal_Hbond.Weighted>
0.0000

> <Gold.Chemscore.DEClash.Weighted>
0.3450

> <Gold.Chemscore.DEInternal.Weighted>
3.8035

> <Gold.Chemscore.Rot.Weighted>
4.1132

> <Gold.Chemscore.Internal.Correction.Weighted>
   9.000000E+99

> <Gold.Protein.RotatedTorsions>
[ 6907 6896 6895 6894 ] final -110.37 input  -60.11 | X-H torsion
[ 7974 7965 7964 7962 ] final  129.29 input  175.53 | X-H torsion
[ 8008 7997 7996 7995 ] final    7.98 input   59.86 | X-H torsion
[ 10167 10162 10161 10158 ] final  112.50 input  -65.29 | X-H torsion
[ 10718 10713 10712 10709 ] final   14.72 input   66.30 | X-H torsion
[ 10763 10752 10751 10750 ] final  121.39 input  -60.55 | X-H torsion
[ 11005 11000 10999 10996 ] final -134.17 input  -57.11 | X-H torsion

> <Gold.Protein.ActiveResidues>
 VAL166  LYS551  ARG553  GLY616  TRP617  ASP618  TYR619  PRO620  LYS621  CYS622 
 ASP623  PHE694  ASN695  SER759  ASP760  ASP761  ALA762  ILE779  LEU786  VAL792 
 PHE793  MET794  SER795  GLU796  ALA797  LYS798  CYS799  TRP800  GLU811  SER814 

> <Gold.Protein.RotatedAtoms>
  150.7621  133.9391  159.3450 H   0  0  0  0  0  0  0  0  0  0  0  0  # atno 6907 bound_to 6896
  151.7298  135.0875  160.0307 H   0  0  0  0  0  0  0  0  0  0  0  0  # atno 6908 bound_to 6896
  152.3597  133.6244  159.6042 H   0  0  0  0  0  0  0  0  0  0  0  0  # atno 6909 bound_to 6896
  145.0303  139.4052  143.5153 H   0  0  0  0  0  0  0  0  0  0  0  0  # atno 7974 bound_to 7965
  154.7609  140.2784  155.6215 H   0  0  0  0  0  0  0  0  0  0  0  0  # atno 8008 bound_to 7997
  156.2915  140.2660  156.2315 H   0  0  0  0  0  0  0  0  0  0  0  0  # atno 8009 bound_to 7997
  155.0018  140.0372  157.2353 H   0  0  0  0  0  0  0  0  0  0  0  0  # atno 8010 bound_to 7997
  139.6531  144.7128  151.2010 H   0  0  0  0  0  0  0  0  0  0  0  0  # atno 10167 bound_to 10162
  157.0432  130.6239  149.5754 H   0  0  0  0  0  0  0  0  0  0  0  0  # atno 10718 bound_to 10713
  153.6134  135.3426  155.2986 H   0  0  0  0  0  0  0  0  0  0  0  0  # atno 10763 bound_to 10752
  154.8614  135.4255  154.2285 H   0  0  0  0  0  0  0  0  0  0  0  0  # atno 10764 bound_to 10752
  153.3141  135.7033  153.7161 H   0  0  0  0  0  0  0  0  0  0  0  0  # atno 10765 bound_to 10752
  140.9015  134.1685  157.4457 H   0  0  0  0  0  0  0  0  0  0  0  0  # atno 11005 bound_to 11000
  146.3497  139.9849  142.8692 LP  0  0  0  0  0  0  0  0  0  0  0  0  # atno 17320 bound_to 7965
  145.1779  140.9753  143.4283 LP  0  0  0  0  0  0  0  0  0  0  0  0  # atno 17321 bound_to 7965
  140.7547  143.6117  150.8599 LP  0  0  0  0  0  0  0  0  0  0  0  0  # atno 17342 bound_to 10162
  139.9767  143.5996  152.2956 LP  0  0  0  0  0  0  0  0  0  0  0  0  # atno 17343 bound_to 10162
  156.0031  130.5114  150.7735 LP  0  0  0  0  0  0  0  0  0  0  0  0  # atno 17370 bound_to 10713
  157.5088  131.0924  151.0224 LP  0  0  0  0  0  0  0  0  0  0  0  0  # atno 17371 bound_to 10713
  139.8743  134.9900  156.5481 LP  0  0  0  0  0  0  0  0  0  0  0  0  # atno 17394 bound_to 11000
  140.8224  133.8343  155.8908 LP  0  0  0  0  0  0  0  0  0  0  0  0  # atno 17395 bound_to 11000

$$$$
