AV-unprocessed.smi:466|AV-procd|sdf|2642|dock6
  -GOLD-   2262023 53D 1   1.00000     0.00000
 Structure written by MMmdl.
 44 46  0  0  0  0  0  0  0  0  2 V2000
  151.3874  145.2504  160.1392 C   0  0  0  0  0  0  0  0  0  0  0  0
  151.3302  144.0431  159.3942 O   0  0  0  0  0  0  0  0  0  0  0  0
  152.0571  142.9600  159.8456 C   0  0  0  0  0  0  0  0  0  0  0  0
  152.7875  142.9532  161.0606 C   0  0  0  0  0  0  0  0  0  0  0  0
  153.5025  141.8083  161.4567 C   0  0  0  0  0  0  0  0  0  0  0  0
  153.4978  140.6605  160.6456 C   0  0  0  0  0  0  0  0  0  0  0  0
  152.7775  140.6563  159.4372 C   0  0  0  0  0  0  0  0  0  0  0  0
  152.0524  141.8042  159.0314 C   0  0  0  0  0  0  0  0  0  0  0  0
  151.3241  141.8763  157.8648 O   0  0  0  0  0  0  0  0  0  0  0  0
  151.0465  140.6828  157.1473 C   0  0  0  0  0  0  0  0  0  0  0  0
  151.1521  140.9823  155.6444 C   0  0  0  0  0  0  0  0  0  0  0  0
  150.3203  140.0716  154.8401 N   0  0  0  0  0  0  0  0  0  0  0  0
  150.5642  138.7985  154.4088 C   0  0  0  0  0  0  0  0  0  0  0  0
  151.7876  137.9750  154.6772 C   0  0  0  0  0  0  0  0  0  0  0  0
  152.0795  137.8206  156.1778 C   0  0  0  0  0  0  0  0  0  0  0  0
  153.0463  136.8111  156.3724 O   0  0  0  0  0  0  0  0  0  0  0  0
  149.4493  138.3829  153.7410 N   0  3  0  0  0  0  0  0  0  0  0  0
  148.4926  139.3976  153.7324 C   0  0  0  0  0  0  0  0  0  0  0  0
  147.2145  139.4388  153.1835 C   0  0  0  0  0  0  0  0  0  0  0  0
  146.4843  140.6310  153.3690 C   0  0  0  0  0  0  0  0  0  0  0  0
  147.0301  141.7232  154.0737 C   0  0  0  0  0  0  0  0  0  0  0  0
  148.3293  141.6708  154.6199 C   0  0  0  0  0  0  0  0  0  0  0  0
  149.0445  140.4870  154.4354 C   0  0  0  0  0  0  0  0  0  0  0  0
  150.7660  146.0014  159.6514 H   0  0  0  0  0  0  0  0  0  0  0  0
  152.4040  145.6428  160.1852 H   0  0  0  0  0  0  0  0  0  0  0  0
  151.0053  145.1133  161.1516 H   0  0  0  0  0  0  0  0  0  0  0  0
  152.8147  143.8158  161.7086 H   0  0  0  0  0  0  0  0  0  0  0  0
  154.0557  141.8117  162.3843 H   0  0  0  0  0  0  0  0  0  0  0  0
  154.0480  139.7820  160.9501 H   0  0  0  0  0  0  0  0  0  0  0  0
  152.7984  139.7598  158.8367 H   0  0  0  0  0  0  0  0  0  0  0  0
  151.7594  139.9037  157.4205 H   0  0  0  0  0  0  0  0  0  0  0  0
  150.0426  140.3219  157.3780 H   0  0  0  0  0  0  0  0  0  0  0  0
  150.8647  142.0122  155.4318 H   0  0  0  0  0  0  0  0  0  0  0  0
  152.1849  140.8847  155.3118 H   0  0  0  0  0  0  0  0  0  0  0  0
  151.6662  136.9882  154.2314 H   0  0  0  0  0  0  0  0  0  0  0  0
  152.6355  138.4420  154.1750 H   0  0  0  0  0  0  0  0  0  0  0  0
  152.4542  138.7522  156.6029 H   0  0  0  0  0  0  0  0  0  0  0  0
  151.1728  137.5515  156.7206 H   0  0  0  0  0  0  0  0  0  0  0  0
  153.1532  136.6686  157.3007 H   0  0  0  0  0  0  0  0  0  0  0  0
  146.7930  138.6014  152.6470 H   0  0  0  0  0  0  0  0  0  0  0  0
  145.4850  140.7082  152.9657 H   0  0  0  0  0  0  0  0  0  0  0  0
  146.4401  142.6190  154.2013 H   0  0  0  0  0  0  0  0  0  0  0  0
  148.7315  142.5107  155.1666 H   0  0  0  0  0  0  0  0  0  0  0  0
  149.3492  137.4645  153.3284 H   0  0  0  0  0  0  0  0  0  0  0  0
  1  2  1  0  0  0  0
  1 24  1  0  0  0  0
  1 25  1  0  0  0  0
  1 26  1  0  0  0  0
  2  3  1  0  0  0  0
  3  8  1  0  0  0  0
  3  4  2  0  0  0  0
  4  5  1  0  0  0  0
  4 27  1  0  0  0  0
  5  6  2  0  0  0  0
  5 28  1  0  0  0  0
  6  7  1  0  0  0  0
  6 29  1  0  0  0  0
  7  8  2  0  0  0  0
  7 30  1  0  0  0  0
  8  9  1  0  0  0  0
  9 10  1  0  0  0  0
 10 11  1  0  0  0  0
 10 31  1  0  0  0  0
 10 32  1  0  0  0  0
 11 12  1  0  0  0  0
 11 33  1  0  0  0  0
 11 34  1  0  0  0  0
 12 23  1  0  0  0  0
 12 13  1  0  0  0  0
 13 14  1  0  0  0  0
 13 17  2  0  0  0  0
 14 15  1  0  0  0  0
 14 35  1  0  0  0  0
 14 36  1  0  0  0  0
 15 16  1  0  0  0  0
 15 37  1  0  0  0  0
 15 38  1  0  0  0  0
 16 39  1  0  0  0  0
 17 18  1  0  0  0  0
 17 44  1  0  0  0  0
 18 23  2  0  0  0  0
 18 19  1  0  0  0  0
 19 20  2  0  0  0  0
 19 40  1  0  0  0  0
 20 21  1  0  0  0  0
 20 41  1  0  0  0  0
 21 22  2  0  0  0  0
 21 42  1  0  0  0  0
 22 23  1  0  0  0  0
 22 43  1  0  0  0  0
M  CHG  1  17   1
M  END
> <s_m_source_file>
AV-unprocessed.smi

> <i_m_source_file_index>
466

> <i_lp_mmshare_version>
43012

> <i_f3d_flags>
0

> <s_epik_input>
W0NIM11PYzFbY0hdW2NIXVtjSF1bY0hdYzFPW0NIMl1bQ0gyXW4oYyhuMilbQ0gyXVtDSDJdW09IXSljKGMyMylbY0hdW2NIXVtjSF1bY0hdMw==

> <s_epik_cmdline>
J2VwaWtfcHl0aG9uJywgJy1waCcsICc3LjAnLCAnLXRuJywgJzgnLCAnLW1hJywgJzIwMCcsICctbWV0YWxfYmluZGluZycsICctaW1hZScsICc8aW5maWxlLm1hZT4nLCAnLW9tYWUnLCAnPG91dGZpbGUubWFlPic=

> <r_lp_tautomer_probability>
1

> <r_epik_Ionization_Penalty>
0.720978

> <r_epik_Ionization_Penalty_Charging>
0.720978

> <r_epik_Ionization_Penalty_Neutral>
5.89567e-08

> <r_epik_State_Penalty>
0.7454

> <r_epik_Charging_Adjusted_Penalty>
1.46638

> <i_epik_Tot_Q>
1

> <i_epik_Tot_abs_Q>
1

> <r_epik_Metal_State_Penalty>
4.64029

> <b_epik_Metal_Only>
0

> <s_lp_Force_Field>
OPLS_2005

> <r_lp_Energy>
24.0837

> <b_lp_Chiralities_Consistent>
1

> <s_lp_Variant>
AV-unprocessed.smi:466-2

> <Gold.Version>
5.8.1

> <Gold.Id.Protein>
6NUR|6NUR_protein|mol2

> <Gold.PLP.Fitness>
57.8391

> <Gold.PLP.PLP>
-50.6443

> <Gold.PLP.part.hbond>
-2.6473

> <Gold.PLP.part.metal>
0.0000

> <Gold.PLP.part.buried>
0.9929

> <Gold.PLP.part.nonpolar>
-48.3050

> <Gold.PLP.part.repulsive>
0.1086

> <Gold.PLP.ligand.clash>
0.0000

> <Gold.PLP.ligand.torsion>
0.9620

> <Gold.PLP.Chemscore.Hbond>
2.9840

> <Gold.PLP.Chemscore.CHOScore>
0.0000

> <Gold.PLP.Chemscore.Metal>
0.0000

> <Gold.Chemscore.Hbonds>
donor molecule, donor type, donor heavy atom, donor atom, acceptor molecule, acceptor atom, score
      L1  H    17    44       P1  7948  2.00
      P1  H 10752 10765       L1    16  0.85

> <Gold.PLP.Chemscore.Internal.Correction>
0.1667

> <Gold.Rescore>
     Score         DG    S(hbond)    S(metal)    S(lipo)     H(rot)  DE(clash)    DE(int)     intcor
     17.36     -19.98       1.63        0.00     136.08       2.68       1.51       1.12       ----

> <Gold.Chemscore.Fitness>
17.3580

> <Gold.Chemscore.DG>
-19.9811

> <Gold.Chemscore.ZeroCoef>
-5.4800

> <Gold.Chemscore.Hbond>
1.6320

> <Gold.Chemscore.Metal>
0.0000

> <Gold.Chemscore.Lipo>
136.0797

> <Gold.Chemscore.Internal_Hbond>
0.0000

> <Gold.Chemscore.DEClash>
1.5058

> <Gold.Chemscore.DEInternal>
1.1173

> <Gold.Chemscore.Rot>
2.6840

> <Gold.Chemscore.Internal.Correction>
   9.000000E+99

> <Gold.Chemscore.Hbonds>
donor molecule, donor type, donor heavy atom, donor atom, acceptor molecule, acceptor atom, score
      L1  H    17    44       P1  7948  0.93
      P1  H 10752 10765       L1    16  0.78

> <Gold.Chemscore.Hbond.Weighted>
-5.4507

> <Gold.Chemscore.Metal.Weighted>
-0.0000

> <Gold.Chemscore.Lipo.Weighted>
-15.9213

> <Gold.Chemscore.Internal_Hbond.Weighted>
0.0000

> <Gold.Chemscore.DEClash.Weighted>
1.5058

> <Gold.Chemscore.DEInternal.Weighted>
1.1173

> <Gold.Chemscore.Rot.Weighted>
6.8710

> <Gold.Chemscore.Internal.Correction.Weighted>
   9.000000E+99

> <Gold.Protein.RotatedTorsions>
[ 6907 6896 6895 6894 ] final  179.59 input  -60.11 | X-H torsion
[ 7974 7965 7964 7962 ] final -179.38 input  175.53 | X-H torsion
[ 8008 7997 7996 7995 ] final  145.66 input   59.86 | X-H torsion
[ 10167 10162 10161 10158 ] final  -79.39 input  -65.29 | X-H torsion
[ 10718 10713 10712 10709 ] final  -48.67 input   66.30 | X-H torsion
[ 10763 10752 10751 10750 ] final -128.66 input  -60.55 | X-H torsion
[ 11005 11000 10999 10996 ] final    3.84 input  -57.11 | X-H torsion

> <Gold.Protein.ActiveResidues>
 VAL166  LYS551  ARG553  GLY616  TRP617  ASP618  TYR619  PRO620  LYS621  CYS622 
 ASP623  PHE694  ASN695  SER759  ASP760  ASP761  ALA762  ILE779  LEU786  VAL792 
 PHE793  MET794  SER795  GLU796  ALA797  LYS798  CYS799  TRP800  GLU811  SER814 

> <Gold.Protein.RotatedAtoms>
  151.6692  133.3314  159.3192 H   0  0  0  0  0  0  0  0  0  0  0  0  # atno 6907 bound_to 6896
  150.7876  134.6877  159.6488 H   0  0  0  0  0  0  0  0  0  0  0  0  # atno 6908 bound_to 6896
  152.3949  134.6386  160.0145 H   0  0  0  0  0  0  0  0  0  0  0  0  # atno 6909 bound_to 6896
  144.7136  140.0726  143.6429 H   0  0  0  0  0  0  0  0  0  0  0  0  # atno 7974 bound_to 7965
  156.2877  140.2203  156.5251 H   0  0  0  0  0  0  0  0  0  0  0  0  # atno 8008 bound_to 7997
  154.7496  140.0481  157.0903 H   0  0  0  0  0  0  0  0  0  0  0  0  # atno 8009 bound_to 7997
  155.0127  140.3115  155.4826 H   0  0  0  0  0  0  0  0  0  0  0  0  # atno 8010 bound_to 7997
  140.4597  143.2457  151.8367 H   0  0  0  0  0  0  0  0  0  0  0  0  # atno 10167 bound_to 10162
  156.1966  130.4154  149.9298 H   0  0  0  0  0  0  0  0  0  0  0  0  # atno 10718 bound_to 10713
  154.8756  135.3921  154.3792 H   0  0  0  0  0  0  0  0  0  0  0  0  # atno 10763 bound_to 10752
  153.4542  135.7028  153.6095 H   0  0  0  0  0  0  0  0  0  0  0  0  # atno 10764 bound_to 10752
  153.4622  135.3809  155.2313 H   0  0  0  0  0  0  0  0  0  0  0  0  # atno 10765 bound_to 10752
  140.5886  133.9945  155.8079 H   0  0  0  0  0  0  0  0  0  0  0  0  # atno 11005 bound_to 11000
  145.9770  139.2912  143.1064 LP  0  0  0  0  0  0  0  0  0  0  0  0  # atno 17320 bound_to 7965
  145.9053  140.9216  143.0482 LP  0  0  0  0  0  0  0  0  0  0  0  0  # atno 17321 bound_to 7965
  139.4805  144.5022  151.9045 LP  0  0  0  0  0  0  0  0  0  0  0  0  # atno 17342 bound_to 10162
  140.4108  144.2371  150.5889 LP  0  0  0  0  0  0  0  0  0  0  0  0  # atno 17343 bound_to 10162
  156.7022  130.8937  151.3600 LP  0  0  0  0  0  0  0  0  0  0  0  0  # atno 17370 bound_to 10713
  157.6961  130.9283  150.0648 LP  0  0  0  0  0  0  0  0  0  0  0  0  # atno 17371 bound_to 10713
  141.0949  133.9858  157.3176 LP  0  0  0  0  0  0  0  0  0  0  0  0  # atno 17394 bound_to 11000
  139.9284  135.0201  156.8316 LP  0  0  0  0  0  0  0  0  0  0  0  0  # atno 17395 bound_to 11000

$$$$
