AV-unprocessed.smi:176|AV-procd|sdf|1434|dock4
  -GOLD-   2262019213D 1   1.00000     0.00000
 Structure written by MMmdl.
 57 61  0  0  0  0  0  0  0  0  1 V2000
  149.9777  130.9981  156.4894 O   0  0  0  0  0  0  0  0  0  0  0  0
  149.0757  132.0678  156.2923 C   0  0  0  0  0  0  0  0  0  0  0  0
  149.5881  133.0350  155.2129 C   0  0  0  0  0  0  0  0  0  0  0  0
  149.7405  132.2743  153.8803 C   0  0  0  0  0  0  0  0  0  0  0  0
  148.4976  131.7828  153.4203 O   0  0  0  0  0  0  0  0  0  0  0  0
  148.8411  134.3848  155.1197 C   0  0  0  0  0  0  0  0  0  0  0  0
  150.1786  135.1060  154.9407 C   0  0  0  0  0  0  0  0  0  0  0  0
  150.3765  136.4294  155.4540 N   0  0  0  0  0  0  0  0  0  0  0  0
  150.7470  137.5455  154.7377 C   0  0  0  0  0  0  0  0  0  0  0  0
  150.8222  138.6503  155.4279 N   0  0  0  0  0  0  0  0  0  0  0  0
  150.4437  138.2741  156.7111 C   0  0  0  0  0  0  0  0  0  0  0  0
  150.2915  138.9716  157.9419 C   0  0  0  0  0  0  0  0  0  0  0  0
  150.5641  140.2941  158.0676 N   0  0  0  0  0  0  0  0  0  0  0  0
  149.5440  141.1793  157.5103 C   0  0  0  0  0  0  0  0  0  0  0  0
  149.6939  142.6070  158.0630 C   0  0  0  0  0  0  0  0  0  0  0  0
  151.1294  143.1567  157.8824 C   0  0  1  0  0  0  0  0  0  0  0  0
  151.3440  143.3320  156.4930 O   0  0  0  0  0  0  0  0  0  0  0  0
  151.3146  144.5540  158.5201 C   0  0  0  0  0  0  0  0  0  0  0  0
  151.3625  144.5118  160.0563 C   0  0  0  0  0  0  0  0  0  0  0  0
  152.4432  143.5390  160.5466 C   0  0  0  0  0  0  0  0  0  0  0  0
  152.2236  142.1335  159.9688 C   0  0  0  0  0  0  0  0  0  0  0  0
  152.1809  142.1476  158.4242 C   0  0  1  0  0  0  0  0  0  0  0  0
  151.9458  140.7295  157.8601 C   0  0  0  0  0  0  0  0  0  0  0  0
  149.8553  138.2599  159.0156 N   0  0  0  0  0  0  0  0  0  0  0  0
  149.5966  136.9540  158.8985 C   0  0  0  0  0  0  0  0  0  0  0  0
  149.7045  136.1752  157.8203 N   0  0  0  0  0  0  0  0  0  0  0  0
  150.1372  136.8846  156.7388 C   0  0  0  0  0  0  0  0  0  0  0  0
  150.8073  133.8892  155.6236 C   0  0  0  0  0  0  0  0  0  0  0  0
  150.6650  131.2883  157.0695 H   0  0  0  0  0  0  0  0  0  0  0  0
  148.0951  131.6640  156.0396 H   0  0  0  0  0  0  0  0  0  0  0  0
  148.9571  132.5817  157.2466 H   0  0  0  0  0  0  0  0  0  0  0  0
  150.1498  132.9198  153.1030 H   0  0  0  0  0  0  0  0  0  0  0  0
  150.4349  131.4392  153.9750 H   0  0  0  0  0  0  0  0  0  0  0  0
  147.8161  132.3665  153.7167 H   0  0  0  0  0  0  0  0  0  0  0  0
  148.1621  134.4824  154.2722 H   0  0  0  0  0  0  0  0  0  0  0  0
  148.3421  134.6630  156.0500 H   0  0  0  0  0  0  0  0  0  0  0  0
  150.4570  135.1455  153.8862 H   0  0  0  0  0  0  0  0  0  0  0  0
  150.9692  137.5155  153.6808 H   0  0  0  0  0  0  0  0  0  0  0  0
  149.6436  141.1857  156.4241 H   0  0  0  0  0  0  0  0  0  0  0  0
  148.5396  140.8156  157.7255 H   0  0  0  0  0  0  0  0  0  0  0  0
  148.9702  143.2660  157.5815 H   0  0  0  0  0  0  0  0  0  0  0  0
  149.4277  142.5924  159.1196 H   0  0  0  0  0  0  0  0  0  0  0  0
  150.7340  143.9797  156.1749 H   0  0  0  0  0  0  0  0  0  0  0  0
  152.2483  144.9937  158.1651 H   0  0  0  0  0  0  0  0  0  0  0  0
  150.5216  145.2278  158.1930 H   0  0  0  0  0  0  0  0  0  0  0  0
  151.5616  145.5105  160.4455 H   0  0  0  0  0  0  0  0  0  0  0  0
  150.3917  144.2179  160.4558 H   0  0  0  0  0  0  0  0  0  0  0  0
  153.4278  143.9061  160.2540 H   0  0  0  0  0  0  0  0  0  0  0  0
  152.4395  143.4978  161.6361 H   0  0  0  0  0  0  0  0  0  0  0  0
  153.0210  141.4730  160.3107 H   0  0  0  0  0  0  0  0  0  0  0  0
  151.2973  141.7206  160.3698 H   0  0  0  0  0  0  0  0  0  0  0  0
  153.1678  142.4725  158.0903 H   0  0  0  0  0  0  0  0  0  0  0  0
  152.6377  140.0290  158.3303 H   0  0  0  0  0  0  0  0  0  0  0  0
  152.1614  140.7161  156.7907 H   0  0  0  0  0  0  0  0  0  0  0  0
  149.2570  136.4626  159.7981 H   0  0  0  0  0  0  0  0  0  0  0  0
  150.8921  134.0130  156.7051 H   0  0  0  0  0  0  0  0  0  0  0  0
  151.7567  133.5699  155.1926 H   0  0  0  0  0  0  0  0  0  0  0  0
  1  2  1  0  0  0  0
  1 29  1  0  0  0  0
  2  3  1  0  0  0  0
  2 30  1  0  0  0  0
  2 31  1  0  0  0  0
  3 28  1  0  0  0  0
  3  4  1  0  0  0  0
  3  6  1  0  0  0  0
  4  5  1  0  0  0  0
  4 32  1  0  0  0  0
  4 33  1  0  0  0  0
  5 34  1  0  0  0  0
  6  7  1  0  0  0  0
  6 35  1  0  0  0  0
  6 36  1  0  0  0  0
  7  8  1  0  0  0  0
  7 28  1  0  0  0  0
  7 37  1  0  0  0  0
  8 27  1  0  0  0  0
  8  9  1  0  0  0  0
  9 10  2  0  0  0  0
  9 38  1  0  0  0  0
 10 11  1  0  0  0  0
 11 27  2  0  0  0  0
 11 12  1  0  0  0  0
 12 13  1  0  0  0  0
 12 24  2  0  0  0  0
 13 23  1  0  0  0  0
 13 14  1  0  0  0  0
 14 15  1  0  0  0  0
 14 39  1  0  0  0  0
 14 40  1  0  0  0  0
 15 16  1  0  0  0  0
 15 41  1  0  0  0  0
 15 42  1  0  0  0  0
 16 22  1  0  0  0  0
 16 17  1  0  0  0  0
 16 18  1  0  0  0  0
 17 43  1  0  0  0  0
 18 19  1  0  0  0  0
 18 44  1  0  0  0  0
 18 45  1  0  0  0  0
 19 20  1  0  0  0  0
 19 46  1  0  0  0  0
 19 47  1  0  0  0  0
 20 21  1  0  0  0  0
 20 48  1  0  0  0  0
 20 49  1  0  0  0  0
 21 22  1  0  0  0  0
 21 50  1  0  0  0  0
 21 51  1  0  0  0  0
 22 23  1  0  0  0  0
 22 52  1  0  0  0  0
 23 53  1  0  0  0  0
 23 54  1  0  0  0  0
 24 25  1  0  0  0  0
 25 26  2  0  0  0  0
 25 55  1  0  0  0  0
 26 27  1  0  0  0  0
 28 56  1  0  0  0  0
 28 57  1  0  0  0  0
M  END
> <s_m_source_file>
AV-unprocessed.smi

> <i_m_source_file_index>
176

> <i_lp_mmshare_version>
43012

> <i_f3d_flags>
0

> <s_epik_input>
W09IXVtDSDJdQzEoW0NIMl1bT0hdKVtDSDJdW0NIXShbQ0gyXTEpbihbY0hdbjIpYyhjMjMpbltjSF1uYzNOKFtDSDJdW0NIMl00KVtDSDJdW0NAQEhdKFtDQF00NVtPSF0pW0NIMl1bQ0gyXVtDSDJdW0NIMl01

> <s_epik_cmdline>
J2VwaWtfcHl0aG9uJywgJy1waCcsICc3LjAnLCAnLXRuJywgJzgnLCAnLW1hJywgJzIwMCcsICctbWV0YWxfYmluZGluZycsICctaW1hZScsICc8aW5maWxlLm1hZT4nLCAnLW9tYWUnLCAnPG91dGZpbGUubWFlPic=

> <r_lp_tautomer_probability>
1

> <r_epik_Ionization_Penalty>
0.00642876

> <r_epik_Ionization_Penalty_Charging>
0

> <r_epik_Ionization_Penalty_Neutral>
0.00642876

> <r_epik_State_Penalty>
0.00467813

> <r_epik_Charging_Adjusted_Penalty>
0.00467813

> <i_epik_Tot_Q>
0

> <i_epik_Tot_abs_Q>
0

> <r_epik_Metal_State_Penalty>
-0

> <b_epik_Metal_Only>
0

> <s_lp_Force_Field>
OPLS_2005

> <r_lp_Energy>
50.7593

> <b_lp_Chiralities_Consistent>
1

> <s_lp_Variant>
AV-unprocessed.smi:176-2

> <Gold.Version>
5.8.1

> <Gold.Id.Protein>
6NUR|6NUR_protein|mol2

> <Gold.PLP.Fitness>
47.4759

> <Gold.PLP.PLP>
-41.4248

> <Gold.PLP.part.hbond>
-1.7320

> <Gold.PLP.part.metal>
0.0000

> <Gold.PLP.part.buried>
-8.0114

> <Gold.PLP.part.nonpolar>
-32.2286

> <Gold.PLP.part.repulsive>
0.0530

> <Gold.PLP.ligand.clash>
0.0000

> <Gold.PLP.ligand.torsion>
0.4845

> <Gold.PLP.Chemscore.Hbond>
1.0000

> <Gold.PLP.Chemscore.CHOScore>
1.0465

> <Gold.PLP.Chemscore.Metal>
0.0000

> <Gold.Chemscore.Hbonds>
donor molecule, donor type, donor heavy atom, donor atom, acceptor molecule, acceptor atom, score
      L1  H    17    43       P1  8028  0.99
      L1  C     9    38       P1  7949  0.63

> <Gold.PLP.Chemscore.Internal.Correction>
0.8806

> <Gold.Rescore>
     Score         DG    S(hbond)    S(metal)    S(lipo)     H(rot)  DE(clash)    DE(int)     intcor
     12.34     -12.82       0.99        0.00     115.63       3.71       0.04       0.44       ----

> <Gold.Chemscore.Fitness>
12.3384

> <Gold.Chemscore.DG>
-12.8200

> <Gold.Chemscore.ZeroCoef>
-5.4800

> <Gold.Chemscore.Hbond>
0.9915

> <Gold.Chemscore.Metal>
0.0000

> <Gold.Chemscore.Lipo>
115.6285

> <Gold.Chemscore.Internal_Hbond>
0.0000

> <Gold.Chemscore.DEClash>
0.0412

> <Gold.Chemscore.DEInternal>
0.4404

> <Gold.Chemscore.Rot>
3.7109

> <Gold.Chemscore.Internal.Correction>
   9.000000E+99

> <Gold.Chemscore.Hbonds>
donor molecule, donor type, donor heavy atom, donor atom, acceptor molecule, acceptor atom, score
      L1  H    17    43       P1  8028  0.91

> <Gold.Chemscore.Hbond.Weighted>
-3.3115

> <Gold.Chemscore.Metal.Weighted>
-0.0000

> <Gold.Chemscore.Lipo.Weighted>
-13.5285

> <Gold.Chemscore.Internal_Hbond.Weighted>
0.0000

> <Gold.Chemscore.DEClash.Weighted>
0.0412

> <Gold.Chemscore.DEInternal.Weighted>
0.4404

> <Gold.Chemscore.Rot.Weighted>
9.5000

> <Gold.Chemscore.Internal.Correction.Weighted>
   9.000000E+99

> <Gold.Protein.RotatedTorsions>
[ 6907 6896 6895 6894 ] final  149.96 input  -60.11 | X-H torsion
[ 7974 7965 7964 7962 ] final  -83.83 input  175.53 | X-H torsion
[ 8008 7997 7996 7995 ] final  -79.94 input   59.86 | X-H torsion
[ 10167 10162 10161 10158 ] final  124.85 input  -65.29 | X-H torsion
[ 10718 10713 10712 10709 ] final   97.77 input   66.30 | X-H torsion
[ 10763 10752 10751 10750 ] final  -19.39 input  -60.55 | X-H torsion
[ 11005 11000 10999 10996 ] final   97.58 input  -57.11 | X-H torsion

> <Gold.Protein.ActiveResidues>
 VAL166  LYS551  ARG553  GLY616  TRP617  ASP618  TYR619  PRO620  LYS621  CYS622 
 ASP623  PHE694  ASN695  SER759  ASP760  ASP761  ALA762  ILE779  LEU786  VAL792 
 PHE793  MET794  SER795  GLU796  ALA797  LYS798  CYS799  TRP800  GLU811  SER814 

> <Gold.Protein.RotatedAtoms>
  152.1209  133.4352  159.4674 H   0  0  0  0  0  0  0  0  0  0  0  0  # atno 6907 bound_to 6896
  150.6872  134.2536  159.4530 H   0  0  0  0  0  0  0  0  0  0  0  0  # atno 6908 bound_to 6896
  152.0413  134.9709  160.0624 H   0  0  0  0  0  0  0  0  0  0  0  0  # atno 6909 bound_to 6896
  145.5147  140.9537  143.1688 H   0  0  0  0  0  0  0  0  0  0  0  0  # atno 7974 bound_to 7965
  154.5834  140.0670  156.9136 H   0  0  0  0  0  0  0  0  0  0  0  0  # atno 8008 bound_to 7997
  155.2423  140.3345  155.4273 H   0  0  0  0  0  0  0  0  0  0  0  0  # atno 8009 bound_to 7997
  156.2205  140.1797  156.7472 H   0  0  0  0  0  0  0  0  0  0  0  0  # atno 8010 bound_to 7997
  139.5718  144.6943  151.3758 H   0  0  0  0  0  0  0  0  0  0  0  0  # atno 10167 bound_to 10162
  157.6907  131.0619  150.4694 H   0  0  0  0  0  0  0  0  0  0  0  0  # atno 10718 bound_to 10713
  153.6041  135.6998  153.5373 H   0  0  0  0  0  0  0  0  0  0  0  0  # atno 10763 bound_to 10752
  153.3072  135.4111  155.1304 H   0  0  0  0  0  0  0  0  0  0  0  0  # atno 10764 bound_to 10752
  154.8577  135.3663  154.5577 H   0  0  0  0  0  0  0  0  0  0  0  0  # atno 10765 bound_to 10752
  139.8775  134.9008  156.4329 H   0  0  0  0  0  0  0  0  0  0  0  0  # atno 11005 bound_to 11000
  144.7708  139.6739  143.7195 LP  0  0  0  0  0  0  0  0  0  0  0  0  # atno 17320 bound_to 7965
  146.2144  139.5523  142.9660 LP  0  0  0  0  0  0  0  0  0  0  0  0  # atno 17321 bound_to 7965
  140.7002  143.7650  150.7391 LP  0  0  0  0  0  0  0  0  0  0  0  0  # atno 17342 bound_to 10162
  140.1158  143.4657  152.2343 LP  0  0  0  0  0  0  0  0  0  0  0  0  # atno 17343 bound_to 10162
  156.5033  130.4122  149.6341 LP  0  0  0  0  0  0  0  0  0  0  0  0  # atno 17370 bound_to 10713
  156.3308  130.7330  151.2259 LP  0  0  0  0  0  0  0  0  0  0  0  0  # atno 17371 bound_to 10713
  140.9054  133.7749  155.9729 LP  0  0  0  0  0  0  0  0  0  0  0  0  # atno 17394 bound_to 11000
  140.8605  134.2846  157.5236 LP  0  0  0  0  0  0  0  0  0  0  0  0  # atno 17395 bound_to 11000

$$$$
