AV-unprocessed.smi:157|AV-procd|sdf|1292|dock4
  -GOLD-   2262018573D 1   1.00000     0.00000
 Structure written by MMmdl.
 35 37  0  0  0  0  0  0  0  0  1 V2000
  150.5121  137.8621  153.7116 O   0  0  0  0  0  0  0  0  0  0  0  0
  151.6187  138.5302  154.2793 C   0  0  0  0  0  0  0  0  0  0  0  0
  151.4006  138.7467  155.7870 C   0  0  2  0  0  0  0  0  0  0  0  0
  152.5577  139.3165  156.3916 O   0  0  0  0  0  0  0  0  0  0  0  0
  152.6666  138.9005  157.7216 C   0  0  1  0  0  0  0  0  0  0  0  0
  152.6076  140.1067  158.6075 N   0  0  0  0  0  0  0  0  0  0  0  0
  152.9981  140.1719  159.8874 C   0  0  0  0  0  0  0  0  0  0  0  0
  152.8507  141.3606  160.4474 N   0  0  0  0  0  0  0  0  0  0  0  0
  152.3100  142.1459  159.4308 C   0  0  0  0  0  0  0  0  0  0  0  0
  152.1538  141.3874  158.2792 C   0  0  0  0  0  0  0  0  0  0  0  0
  151.7018  141.6138  156.9933 N   0  0  0  0  0  0  0  0  0  0  0  0
  150.9542  142.6518  156.7869 C   0  0  0  0  0  0  0  0  0  0  0  0
  150.5874  143.6748  157.6495 N   0  0  0  0  0  0  0  0  0  0  0  0
  151.5399  144.3976  158.4749 C   0  0  0  0  0  0  0  0  0  0  0  0
  152.0304  143.5987  159.6891 C   0  0  1  0  0  0  0  0  0  0  0  0
  151.0537  143.6561  160.7088 O   0  0  0  0  0  0  0  0  0  0  0  0
  151.4861  137.9696  158.0176 C   0  0  0  0  0  0  0  0  0  0  0  0
  151.0943  137.5016  156.6313 C   0  0  2  0  0  0  0  0  0  0  0  0
  151.8663  136.3812  156.2415 O   0  0  0  0  0  0  0  0  0  0  0  0
  150.5925  139.4664  155.9298 H   0  0  0  0  0  0  0  0  0  0  0  0
  153.6436  138.4450  157.8850 H   0  0  0  0  0  0  0  0  0  0  0  0
  152.9244  144.0834  160.0822 H   0  0  0  0  0  0  0  0  0  0  0  0
  150.0401  137.2276  156.5789 H   0  0  0  0  0  0  0  0  0  0  0  0
  150.8239  137.3061  153.0139 H   0  0  0  0  0  0  0  0  0  0  0  0
  152.5311  137.9671  154.0821 H   0  0  0  0  0  0  0  0  0  0  0  0
  151.7279  139.4932  153.7800 H   0  0  0  0  0  0  0  0  0  0  0  0
  153.4061  139.3274  160.4227 H   0  0  0  0  0  0  0  0  0  0  0  0
  150.5269  142.7934  155.7932 H   0  0  0  0  0  0  0  0  0  0  0  0
  149.8051  144.2604  157.3956 H   0  0  0  0  0  0  0  0  0  0  0  0
  152.3969  144.6369  157.8436 H   0  0  0  0  0  0  0  0  0  0  0  0
  151.1148  145.3530  158.7842 H   0  0  0  0  0  0  0  0  0  0  0  0
  151.4668  143.9814  161.4942 H   0  0  0  0  0  0  0  0  0  0  0  0
  151.7697  137.1699  158.7030 H   0  0  0  0  0  0  0  0  0  0  0  0
  150.6684  138.5397  158.4617 H   0  0  0  0  0  0  0  0  0  0  0  0
  151.8147  135.7314  156.9257 H   0  0  0  0  0  0  0  0  0  0  0  0
  1  2  1  0  0  0  0
  1 24  1  0  0  0  0
  2  3  1  0  0  0  0
  2 25  1  0  0  0  0
  2 26  1  0  0  0  0
  3 20  1  0  0  0  0
  3 18  1  0  0  0  0
  3  4  1  0  0  0  0
  4  5  1  0  0  0  0
  5 21  1  0  0  0  0
  5  6  1  0  0  0  0
  5 17  1  0  0  0  0
  6 10  1  0  0  0  0
  6  7  1  0  0  0  0
  7  8  2  0  0  0  0
  7 27  1  0  0  0  0
  8  9  1  0  0  0  0
  9 15  1  0  0  0  0
  9 10  2  0  0  0  0
 10 11  1  0  0  0  0
 11 12  2  0  0  0  0
 12 13  1  0  0  0  0
 12 28  1  0  0  0  0
 13 14  1  0  0  0  0
 13 29  1  0  0  0  0
 14 15  1  0  0  0  0
 14 30  1  0  0  0  0
 14 31  1  0  0  0  0
 15 22  1  0  0  0  0
 15 16  1  0  0  0  0
 16 32  1  0  0  0  0
 17 18  1  0  0  0  0
 17 33  1  0  0  0  0
 17 34  1  0  0  0  0
 18 23  1  0  0  0  0
 18 19  1  0  0  0  0
 19 35  1  0  0  0  0
M  END
> <s_m_source_file>
AV-unprocessed.smi

> <i_m_source_file_index>
157

> <i_lp_mmshare_version>
43012

> <i_f3d_flags>
0

> <s_epik_input>
W09IXVtDSDJdW0NASF0xT1tDQEhdKFtDSDJdW0NAQEhdMVtPSF0pbihbY0hdbjIpYyhjMjMpTj1bQ0hdW05IXVtDSDJdW0NASF0zW09IXQ==

> <s_epik_cmdline>
J2VwaWtfcHl0aG9uJywgJy1waCcsICc3LjAnLCAnLXRuJywgJzgnLCAnLW1hJywgJzIwMCcsICctbWV0YWxfYmluZGluZycsICctaW1hZScsICc8aW5maWxlLm1hZT4nLCAnLW9tYWUnLCAnPG91dGZpbGUubWFlPic=

> <r_lp_tautomer_probability>
1

> <r_epik_Ionization_Penalty>
0.0357149

> <r_epik_Ionization_Penalty_Charging>
0.0355056

> <r_epik_Ionization_Penalty_Neutral>
0.000209255

> <r_epik_State_Penalty>
0.0296046

> <r_epik_Charging_Adjusted_Penalty>
0.0651102

> <i_epik_Tot_Q>
0

> <i_epik_Tot_abs_Q>
0

> <r_epik_Metal_State_Penalty>
3.03559e-05

> <b_epik_Metal_Only>
0

> <s_epik_Chemistry_Notes>
This compound has an imine and may undergo hydrolysis. This compound contains an acetal/aminal-like group ( X-CH(R)-Y where X, Y are N, S, or O) that may be acid/base labile, releasing an aldehyde.

> <s_lp_Force_Field>
OPLS_2005

> <r_lp_Energy>
45.9661

> <b_lp_Chiralities_Consistent>
1

> <s_lp_Variant>
AV-unprocessed.smi:157-2

> <Gold.Version>
5.8.1

> <Gold.Id.Protein>
6NUR|6NUR_protein|mol2

> <Gold.PLP.Fitness>
44.0821

> <Gold.PLP.PLP>
-32.4413

> <Gold.PLP.part.hbond>
-5.8974

> <Gold.PLP.part.metal>
0.0000

> <Gold.PLP.part.buried>
-2.8814

> <Gold.PLP.part.nonpolar>
-22.8122

> <Gold.PLP.part.repulsive>
0.0331

> <Gold.PLP.ligand.clash>
0.0000

> <Gold.PLP.ligand.torsion>
0.5097

> <Gold.PLP.Chemscore.Hbond>
3.7108

> <Gold.PLP.Chemscore.CHOScore>
0.5075

> <Gold.PLP.Chemscore.Metal>
0.0000

> <Gold.Chemscore.Hbonds>
donor molecule, donor type, donor heavy atom, donor atom, acceptor molecule, acceptor atom, score
      L1  H     1    24       P1  7949  0.78
      L1  H    13    29       P1  8028  0.72
      P1  H  7997  8008       L1     4  1.00
      P1  H 10752 10764       L1    19  0.85
      L1  C    12    28       P1  8028  0.68

> <Gold.PLP.Chemscore.Internal.Correction>
0.0055

> <Gold.Rescore>
     Score         DG    S(hbond)    S(metal)    S(lipo)     H(rot)  DE(clash)    DE(int)     intcor
      9.49     -12.52       2.95        0.00      55.53       3.64       0.77       2.26       ----

> <Gold.Chemscore.Fitness>
9.4875

> <Gold.Chemscore.DG>
-12.5188

> <Gold.Chemscore.ZeroCoef>
-5.4800

> <Gold.Chemscore.Hbond>
2.9492

> <Gold.Chemscore.Metal>
0.0000

> <Gold.Chemscore.Lipo>
55.5311

> <Gold.Chemscore.Internal_Hbond>
0.0000

> <Gold.Chemscore.DEClash>
0.7681

> <Gold.Chemscore.DEInternal>
2.2632

> <Gold.Chemscore.Rot>
3.6362

> <Gold.Chemscore.Internal.Correction>
   9.000000E+99

> <Gold.Chemscore.Hbonds>
donor molecule, donor type, donor heavy atom, donor atom, acceptor molecule, acceptor atom, score
      L1  H     1    24       P1  7949  0.11
      L1  H    13    29       P1  8028  0.24
      P1  H  7997  8008       L1     4  0.28
      P1  H 10752 10764       L1    19  0.14

> <Gold.Chemscore.Hbond.Weighted>
-9.8503

> <Gold.Chemscore.Metal.Weighted>
-0.0000

> <Gold.Chemscore.Lipo.Weighted>
-6.4971

> <Gold.Chemscore.Internal_Hbond.Weighted>
0.0000

> <Gold.Chemscore.DEClash.Weighted>
0.7681

> <Gold.Chemscore.DEInternal.Weighted>
2.2632

> <Gold.Chemscore.Rot.Weighted>
9.3087

> <Gold.Chemscore.Internal.Correction.Weighted>
   9.000000E+99

> <Gold.Protein.RotatedTorsions>
[ 6907 6896 6895 6894 ] final  122.14 input  -60.11 | X-H torsion
[ 7974 7965 7964 7962 ] final  -99.18 input  175.53 | X-H torsion
[ 8008 7997 7996 7995 ] final  -28.34 input   59.86 | X-H torsion
[ 10167 10162 10161 10158 ] final   60.62 input  -65.29 | X-H torsion
[ 10718 10713 10712 10709 ] final  161.10 input   66.30 | X-H torsion
[ 10763 10752 10751 10750 ] final  -21.35 input  -60.55 | X-H torsion
[ 11005 11000 10999 10996 ] final   15.74 input  -57.11 | X-H torsion

> <Gold.Protein.ActiveResidues>
 VAL166  LYS551  ARG553  GLY616  TRP617  ASP618  TYR619  PRO620  LYS621  CYS622 
 ASP623  PHE694  ASN695  SER759  ASP760  ASP761  ALA762  ILE779  LEU786  VAL792 
 PHE793  MET794  SER795  GLU796  ALA797  LYS798  CYS799  TRP800  GLU811  SER814 

> <Gold.Protein.RotatedAtoms>
  152.4267  133.7207  159.6531 H   0  0  0  0  0  0  0  0  0  0  0  0  # atno 6907 bound_to 6896
  150.8144  133.8353  159.3173 H   0  0  0  0  0  0  0  0  0  0  0  0  # atno 6908 bound_to 6896
  151.6054  135.1046  160.0121 H   0  0  0  0  0  0  0  0  0  0  0  0  # atno 6909 bound_to 6896
  145.3109  140.9400  143.2770 H   0  0  0  0  0  0  0  0  0  0  0  0  # atno 7974 bound_to 7965
  154.4336  140.1848  156.1074 H   0  0  0  0  0  0  0  0  0  0  0  0  # atno 8008 bound_to 7997
  156.0244  140.3337  155.7047 H   0  0  0  0  0  0  0  0  0  0  0  0  # atno 8009 bound_to 7997
  155.5929  140.0633  157.2744 H   0  0  0  0  0  0  0  0  0  0  0  0  # atno 8010 bound_to 7997
  140.1637  144.4346  150.6696 H   0  0  0  0  0  0  0  0  0  0  0  0  # atno 10167 bound_to 10162
  157.1412  131.0541  151.2326 H   0  0  0  0  0  0  0  0  0  0  0  0  # atno 10718 bound_to 10713
  153.6347  135.6987  153.5263 H   0  0  0  0  0  0  0  0  0  0  0  0  # atno 10763 bound_to 10752
  153.2831  135.4180  155.1096 H   0  0  0  0  0  0  0  0  0  0  0  0  # atno 10764 bound_to 10752
  154.8514  135.3607  154.5890 H   0  0  0  0  0  0  0  0  0  0  0  0  # atno 10765 bound_to 10752
  140.4550  134.1186  155.7708 H   0  0  0  0  0  0  0  0  0  0  0  0  # atno 11005 bound_to 11000
  144.9016  139.4642  143.6630 LP  0  0  0  0  0  0  0  0  0  0  0  0  # atno 17320 bound_to 7965
  146.3118  139.7773  142.9014 LP  0  0  0  0  0  0  0  0  0  0  0  0  # atno 17321 bound_to 7965
  140.6627  143.2257  151.5818 LP  0  0  0  0  0  0  0  0  0  0  0  0  # atno 17342 bound_to 10162
  139.5369  144.2755  152.1271 LP  0  0  0  0  0  0  0  0  0  0  0  0  # atno 17343 bound_to 10162
  157.4306  130.7488  149.6986 LP  0  0  0  0  0  0  0  0  0  0  0  0  # atno 17370 bound_to 10713
  155.9788  130.4047  150.3625 LP  0  0  0  0  0  0  0  0  0  0  0  0  # atno 17371 bound_to 10713
  141.1647  133.8725  157.1748 LP  0  0  0  0  0  0  0  0  0  0  0  0  # atno 17394 bound_to 11000
  139.9982  135.0038  157.0131 LP  0  0  0  0  0  0  0  0  0  0  0  0  # atno 17395 bound_to 11000

$$$$
