AV-unprocessed.smi:613|AV-procd|sdf|3065|dock7
  -GOLD-   2262023593D 1   1.00000     0.00000
 Structure written by MMmdl.
 38 39  0  0  0  0  0  0  0  0  1 V2000
  151.8999  140.8941  158.2907 C   0  0  0  0  0  0  0  0  0  0  0  0
  151.5870  142.2157  157.7593 N   0  0  0  0  0  0  0  0  0  0  0  0
  150.9504  142.3046  156.4424 C   0  0  0  0  0  0  0  0  0  0  0  0
  150.1445  141.0436  156.0722 C   0  0  1  0  0  0  0  0  0  0  0  0
  148.7367  141.3529  155.5181 C   0  0  0  0  0  0  0  0  0  0  0  0
  148.0365  140.1444  155.0747 N   0  0  0  0  0  0  0  0  0  0  0  0
  146.6903  140.3985  154.5433 C   0  0  0  0  0  0  0  0  0  0  0  0
  145.7654  141.1713  155.4914 C   0  0  0  0  0  0  0  0  0  0  0  0
  144.4880  141.2981  155.1231 N   0  0  0  0  0  0  0  0  0  0  0  0
  146.1991  141.6468  156.5382 O   0  0  0  0  0  0  0  0  0  0  0  0
  148.8651  139.4255  154.1119 C   0  0  0  0  0  0  0  0  0  0  0  0
  150.2648  139.1256  154.6722 C   0  0  0  0  0  0  0  0  0  0  0  0
  150.8851  140.3410  155.0776 O   0  0  0  0  0  0  0  0  0  0  0  0
  151.6342  143.3378  158.6220 C   0  0  0  0  0  0  0  0  0  0  0  0
  152.1451  143.2410  159.9399 C   0  0  0  0  0  0  0  0  0  0  0  0
  152.1463  144.3982  160.7375 C   0  0  0  0  0  0  0  0  0  0  0  0
  151.6386  145.5774  160.1672 C   0  0  0  0  0  0  0  0  0  0  0  0
  151.1658  145.6256  158.9036 N   0  0  0  0  0  0  0  0  0  0  0  0
  151.1688  144.5231  158.1478 N   0  0  0  0  0  0  0  0  0  0  0  0
  152.9303  140.8553  158.6449 H   0  0  0  0  0  0  0  0  0  0  0  0
  151.7846  140.1278  157.5238 H   0  0  0  0  0  0  0  0  0  0  0  0
  151.2329  140.6419  159.1158 H   0  0  0  0  0  0  0  0  0  0  0  0
  150.3304  143.1958  156.3458 H   0  0  0  0  0  0  0  0  0  0  0  0
  151.7466  142.4361  155.7089 H   0  0  0  0  0  0  0  0  0  0  0  0
  150.0590  140.4010  156.9502 H   0  0  0  0  0  0  0  0  0  0  0  0
  148.1653  141.8545  156.2980 H   0  0  0  0  0  0  0  0  0  0  0  0
  148.8176  142.0576  154.6885 H   0  0  0  0  0  0  0  0  0  0  0  0
  146.7600  140.9450  153.6009 H   0  0  0  0  0  0  0  0  0  0  0  0
  146.2020  139.4513  154.3090 H   0  0  0  0  0  0  0  0  0  0  0  0
  143.8431  141.8020  155.7141 H   0  0  0  0  0  0  0  0  0  0  0  0
  144.1738  140.8925  154.2536 H   0  0  0  0  0  0  0  0  0  0  0  0
  148.3836  138.4872  153.8332 H   0  0  0  0  0  0  0  0  0  0  0  0
  148.9631  140.0093  153.1950 H   0  0  0  0  0  0  0  0  0  0  0  0
  150.2054  138.4383  155.5175 H   0  0  0  0  0  0  0  0  0  0  0  0
  150.8829  138.6466  153.9127 H   0  0  0  0  0  0  0  0  0  0  0  0
  152.5269  142.3184  160.3494 H   0  0  0  0  0  0  0  0  0  0  0  0
  152.5217  144.3819  161.7499 H   0  0  0  0  0  0  0  0  0  0  0  0
  151.6125  146.4979  160.7312 H   0  0  0  0  0  0  0  0  0  0  0  0
  1  2  1  0  0  0  0
  1 20  1  0  0  0  0
  1 21  1  0  0  0  0
  1 22  1  0  0  0  0
  2  3  1  0  0  0  0
  2 14  1  0  0  0  0
  3  4  1  0  0  0  0
  3 23  1  0  0  0  0
  3 24  1  0  0  0  0
  4 13  1  0  0  0  0
  4  5  1  0  0  0  0
  4 25  1  0  0  0  0
  5  6  1  0  0  0  0
  5 26  1  0  0  0  0
  5 27  1  0  0  0  0
  6  7  1  0  0  0  0
  6 11  1  0  0  0  0
  7  8  1  0  0  0  0
  7 28  1  0  0  0  0
  7 29  1  0  0  0  0
  8  9  1  0  0  0  0
  8 10  2  0  0  0  0
  9 30  1  0  0  0  0
  9 31  1  0  0  0  0
 11 12  1  0  0  0  0
 11 32  1  0  0  0  0
 11 33  1  0  0  0  0
 12 13  1  0  0  0  0
 12 34  1  0  0  0  0
 12 35  1  0  0  0  0
 14 19  1  0  0  0  0
 14 15  2  0  0  0  0
 15 16  1  0  0  0  0
 15 36  1  0  0  0  0
 16 17  2  0  0  0  0
 16 37  1  0  0  0  0
 17 18  1  0  0  0  0
 17 38  1  0  0  0  0
 18 19  2  0  0  0  0
M  END
> <s_m_source_file>
AV-unprocessed.smi

> <i_m_source_file_index>
613

> <i_lp_mmshare_version>
43012

> <i_f3d_flags>
0

> <s_epik_input>
bjFuW2NIXVtjSF1bY0hdYzFOKFtDSDNdKVtDSDJdW0NAQEhdMltDSDJdTihbQ0gyXVtDSDJdTzIpW0NIMl1DKD1PKVtOSDJd

> <s_epik_cmdline>
J2VwaWtfcHl0aG9uJywgJy1waCcsICc3LjAnLCAnLXRuJywgJzgnLCAnLW1hJywgJzIwMCcsICctbWV0YWxfYmluZGluZycsICctaW1hZScsICc8aW5maWxlLm1hZT4nLCAnLW9tYWUnLCAnPG91dGZpbGUubWFlPic=

> <r_lp_tautomer_probability>
1

> <r_epik_Ionization_Penalty>
0.0398875

> <r_epik_Ionization_Penalty_Charging>
0

> <r_epik_Ionization_Penalty_Neutral>
0.0398875

> <r_epik_State_Penalty>
0.0543012

> <r_epik_Charging_Adjusted_Penalty>
0.0543012

> <i_epik_Tot_Q>
0

> <i_epik_Tot_abs_Q>
0

> <r_epik_Metal_State_Penalty>
0.0489294

> <b_epik_Metal_Only>
0

> <s_lp_Force_Field>
OPLS_2005

> <r_lp_Energy>
25.1321

> <b_lp_Chiralities_Consistent>
1

> <s_lp_Variant>
AV-unprocessed.smi:613-2

> <Gold.Version>
5.8.1

> <Gold.Id.Protein>
6NUR|6NUR_protein|mol2

> <Gold.PLP.Fitness>
39.9936

> <Gold.PLP.PLP>
-35.9656

> <Gold.PLP.part.hbond>
-3.0000

> <Gold.PLP.part.metal>
0.0000

> <Gold.PLP.part.buried>
-4.8230

> <Gold.PLP.part.nonpolar>
-27.6748

> <Gold.PLP.part.repulsive>
0.4895

> <Gold.PLP.ligand.clash>
0.0000

> <Gold.PLP.ligand.torsion>
1.0729

> <Gold.PLP.Chemscore.Hbond>
2.0000

> <Gold.PLP.Chemscore.CHOScore>
0.0000

> <Gold.PLP.Chemscore.Metal>
0.0000

> <Gold.Chemscore.Hbonds>
donor molecule, donor type, donor heavy atom, donor atom, acceptor molecule, acceptor atom, score
      L1  H     9    31       P1 10175  1.00
      P1  H  7989  7998       L1    13  1.00

> <Gold.PLP.Chemscore.Internal.Correction>
0.1739

> <Gold.Rescore>
     Score         DG    S(hbond)    S(metal)    S(lipo)     H(rot)  DE(clash)    DE(int)     intcor
     12.67     -15.08       1.80        0.00      78.52       2.18       0.02       2.39       ----

> <Gold.Chemscore.Fitness>
12.6708

> <Gold.Chemscore.DG>
-15.0775

> <Gold.Chemscore.ZeroCoef>
-5.4800

> <Gold.Chemscore.Hbond>
1.7956

> <Gold.Chemscore.Metal>
0.0000

> <Gold.Chemscore.Lipo>
78.5218

> <Gold.Chemscore.Internal_Hbond>
0.0000

> <Gold.Chemscore.DEClash>
0.0163

> <Gold.Chemscore.DEInternal>
2.3904

> <Gold.Chemscore.Rot>
2.1823

> <Gold.Chemscore.Internal.Correction>
   9.000000E+99

> <Gold.Chemscore.Hbonds>
donor molecule, donor type, donor heavy atom, donor atom, acceptor molecule, acceptor atom, score
      L1  H     9    31       P1 10175  0.94
      P1  H  7989  7998       L1    13  0.29

> <Gold.Chemscore.Hbond.Weighted>
-5.9972

> <Gold.Chemscore.Metal.Weighted>
-0.0000

> <Gold.Chemscore.Lipo.Weighted>
-9.1871

> <Gold.Chemscore.Internal_Hbond.Weighted>
0.0000

> <Gold.Chemscore.DEClash.Weighted>
0.0163

> <Gold.Chemscore.DEInternal.Weighted>
2.3904

> <Gold.Chemscore.Rot.Weighted>
5.5867

> <Gold.Chemscore.Internal.Correction.Weighted>
   9.000000E+99

> <Gold.Protein.RotatedTorsions>
[ 6907 6896 6895 6894 ] final  100.47 input  -60.11 | X-H torsion
[ 7974 7965 7964 7962 ] final   69.78 input  175.53 | X-H torsion
[ 8008 7997 7996 7995 ] final -109.70 input   59.86 | X-H torsion
[ 10167 10162 10161 10158 ] final  164.85 input  -65.29 | X-H torsion
[ 10718 10713 10712 10709 ] final   12.03 input   66.30 | X-H torsion
[ 10763 10752 10751 10750 ] final  111.46 input  -60.55 | X-H torsion
[ 11005 11000 10999 10996 ] final  -32.88 input  -57.11 | X-H torsion

> <Gold.Protein.ActiveResidues>
 VAL166  LYS551  ARG553  GLY616  TRP617  ASP618  TYR619  PRO620  LYS621  CYS622 
 ASP623  PHE694  ASN695  SER759  ASP760  ASP761  ALA762  ILE779  LEU786  VAL792 
 PHE793  MET794  SER795  GLU796  ALA797  LYS798  CYS799  TRP800  GLU811  SER814 

> <Gold.Protein.RotatedAtoms>
  152.5371  134.0272  159.8007 H   0  0  0  0  0  0  0  0  0  0  0  0  # atno 6907 bound_to 6896
  151.0448  133.5667  159.2655 H   0  0  0  0  0  0  0  0  0  0  0  0  # atno 6908 bound_to 6896
  151.2623  135.0665  159.9156 H   0  0  0  0  0  0  0  0  0  0  0  0  # atno 6909 bound_to 6896
  145.7862  139.2911  143.1237 H   0  0  0  0  0  0  0  0  0  0  0  0  # atno 7974 bound_to 7965
  154.9634  140.0398  157.2200 H   0  0  0  0  0  0  0  0  0  0  0  0  # atno 8008 bound_to 7997
  154.7868  140.2828  155.5999 H   0  0  0  0  0  0  0  0  0  0  0  0  # atno 8009 bound_to 7997
  156.2944  140.2581  156.2706 H   0  0  0  0  0  0  0  0  0  0  0  0  # atno 8010 bound_to 7997
  139.4895  144.4193  151.9205 H   0  0  0  0  0  0  0  0  0  0  0  0  # atno 10167 bound_to 10162
  157.0041  130.6091  149.5700 H   0  0  0  0  0  0  0  0  0  0  0  0  # atno 10718 bound_to 10713
  153.4636  135.3716  155.2352 H   0  0  0  0  0  0  0  0  0  0  0  0  # atno 10763 bound_to 10752
  154.8757  135.3914  154.3895 H   0  0  0  0  0  0  0  0  0  0  0  0  # atno 10764 bound_to 10752
  153.4472  135.7085  153.6196 H   0  0  0  0  0  0  0  0  0  0  0  0  # atno 10765 bound_to 10752
  140.9589  133.7176  156.1337 H   0  0  0  0  0  0  0  0  0  0  0  0  # atno 11005 bound_to 11000
  146.0023  140.8509  143.0012 LP  0  0  0  0  0  0  0  0  0  0  0  0  # atno 17320 bound_to 7965
  144.6788  140.2370  143.7348 LP  0  0  0  0  0  0  0  0  0  0  0  0  # atno 17321 bound_to 7965
  140.3637  144.2941  150.5930 LP  0  0  0  0  0  0  0  0  0  0  0  0  # atno 17342 bound_to 10162
  140.5380  143.2229  151.8131 LP  0  0  0  0  0  0  0  0  0  0  0  0  # atno 17343 bound_to 10162
  156.0160  130.5254  150.8135 LP  0  0  0  0  0  0  0  0  0  0  0  0  # atno 17370 bound_to 10713
  157.5368  131.0939  150.9881 LP  0  0  0  0  0  0  0  0  0  0  0  0  # atno 17371 bound_to 10713
  140.7496  134.4059  157.5543 LP  0  0  0  0  0  0  0  0  0  0  0  0  # atno 17394 bound_to 11000
  139.8871  134.8891  156.2546 LP  0  0  0  0  0  0  0  0  0  0  0  0  # atno 17395 bound_to 11000

$$$$
