AV-unprocessed.smi:157|AV-procd|sdf|1295|dock6
  -GOLD-   2262018583D 1   1.00000     0.00000
 Structure written by MMmdl.
 35 37  0  0  0  0  0  0  0  0  1 V2000
  147.4230  142.2872  155.3125 O   0  0  0  0  0  0  0  0  0  0  0  0
  147.6391  141.3021  154.3245 C   0  0  0  0  0  0  0  0  0  0  0  0
  149.1132  140.8695  154.3216 C   0  0  1  0  0  0  0  0  0  0  0  0
  149.7675  141.4179  155.4576 O   0  0  0  0  0  0  0  0  0  0  0  0
  150.8753  140.6277  155.7169 C   0  0  1  0  0  0  0  0  0  0  0  0
  151.3140  140.8603  157.1297 N   0  0  0  0  0  0  0  0  0  0  0  0
  151.6180  139.8985  158.0093 C   0  0  0  0  0  0  0  0  0  0  0  0
  151.9827  140.3378  159.2015 N   0  0  0  0  0  0  0  0  0  0  0  0
  151.9204  141.7249  159.0821 C   0  0  0  0  0  0  0  0  0  0  0  0
  151.5148  142.0734  157.8014 C   0  0  0  0  0  0  0  0  0  0  0  0
  151.2775  143.2541  157.1221 N   0  0  0  0  0  0  0  0  0  0  0  0
  151.7769  144.3485  157.6028 C   0  0  0  0  0  0  0  0  0  0  0  0
  152.4625  144.5761  158.7871 N   0  0  0  0  0  0  0  0  0  0  0  0
  152.0116  144.0845  160.0776 C   0  0  0  0  0  0  0  0  0  0  0  0
  152.2421  142.5813  160.2730 C   0  0  2  0  0  0  0  0  0  0  0  0
  153.6005  142.3561  160.5901 O   0  0  0  0  0  0  0  0  0  0  0  0
  150.4310  139.1851  155.4893 C   0  0  0  0  0  0  0  0  0  0  0  0
  149.3059  139.3464  154.4721 C   0  0  2  0  0  0  0  0  0  0  0  0
  149.6668  138.7603  153.2375 O   0  0  0  0  0  0  0  0  0  0  0  0
  149.6238  141.2229  153.4228 H   0  0  0  0  0  0  0  0  0  0  0  0
  151.7139  140.9259  155.0849 H   0  0  0  0  0  0  0  0  0  0  0  0
  151.6586  142.2519  161.1334 H   0  0  0  0  0  0  0  0  0  0  0  0
  148.4025  138.8642  154.8479 H   0  0  0  0  0  0  0  0  0  0  0  0
  148.0682  142.9688  155.2033 H   0  0  0  0  0  0  0  0  0  0  0  0
  146.9773  140.4500  154.4841 H   0  0  0  0  0  0  0  0  0  0  0  0
  147.3760  141.7429  153.3626 H   0  0  0  0  0  0  0  0  0  0  0  0
  151.5642  138.8465  157.7707 H   0  0  0  0  0  0  0  0  0  0  0  0
  151.6604  145.2672  157.0262 H   0  0  0  0  0  0  0  0  0  0  0  0
  152.9838  145.4355  158.8838 H   0  0  0  0  0  0  0  0  0  0  0  0
  152.4827  144.6563  160.8777 H   0  0  0  0  0  0  0  0  0  0  0  0
  150.9419  144.2880  160.1469 H   0  0  0  0  0  0  0  0  0  0  0  0
  153.6421  141.6779  161.2472 H   0  0  0  0  0  0  0  0  0  0  0  0
  151.2700  138.5775  155.1479 H   0  0  0  0  0  0  0  0  0  0  0  0
  150.0442  138.7542  156.4130 H   0  0  0  0  0  0  0  0  0  0  0  0
  149.5289  139.3958  152.5518 H   0  0  0  0  0  0  0  0  0  0  0  0
  1  2  1  0  0  0  0
  1 24  1  0  0  0  0
  2  3  1  0  0  0  0
  2 25  1  0  0  0  0
  2 26  1  0  0  0  0
  3 20  1  0  0  0  0
  3 18  1  0  0  0  0
  3  4  1  0  0  0  0
  4  5  1  0  0  0  0
  5 21  1  0  0  0  0
  5  6  1  0  0  0  0
  5 17  1  0  0  0  0
  6 10  1  0  0  0  0
  6  7  1  0  0  0  0
  7  8  2  0  0  0  0
  7 27  1  0  0  0  0
  8  9  1  0  0  0  0
  9 15  1  0  0  0  0
  9 10  2  0  0  0  0
 10 11  1  0  0  0  0
 11 12  2  0  0  0  0
 12 13  1  0  0  0  0
 12 28  1  0  0  0  0
 13 14  1  0  0  0  0
 13 29  1  0  0  0  0
 14 15  1  0  0  0  0
 14 30  1  0  0  0  0
 14 31  1  0  0  0  0
 15 22  1  0  0  0  0
 15 16  1  0  0  0  0
 16 32  1  0  0  0  0
 17 18  1  0  0  0  0
 17 33  1  0  0  0  0
 17 34  1  0  0  0  0
 18 23  1  0  0  0  0
 18 19  1  0  0  0  0
 19 35  1  0  0  0  0
M  END
> <s_m_source_file>
AV-unprocessed.smi

> <i_m_source_file_index>
157

> <i_lp_mmshare_version>
43012

> <i_f3d_flags>
0

> <s_epik_input>
W09IXVtDSDJdW0NASF0xT1tDQEhdKFtDSDJdW0NAQEhdMVtPSF0pbihbY0hdbjIpYyhjMjMpTj1bQ0hdW05IXVtDSDJdW0NASF0zW09IXQ==

> <s_epik_cmdline>
J2VwaWtfcHl0aG9uJywgJy1waCcsICc3LjAnLCAnLXRuJywgJzgnLCAnLW1hJywgJzIwMCcsICctbWV0YWxfYmluZGluZycsICctaW1hZScsICc8aW5maWxlLm1hZT4nLCAnLW9tYWUnLCAnPG91dGZpbGUubWFlPic=

> <r_lp_tautomer_probability>
1

> <r_epik_Ionization_Penalty>
0.0357149

> <r_epik_Ionization_Penalty_Charging>
0.0355056

> <r_epik_Ionization_Penalty_Neutral>
0.000209255

> <r_epik_State_Penalty>
0.0296046

> <r_epik_Charging_Adjusted_Penalty>
0.0651102

> <i_epik_Tot_Q>
0

> <i_epik_Tot_abs_Q>
0

> <r_epik_Metal_State_Penalty>
3.03559e-05

> <b_epik_Metal_Only>
0

> <s_epik_Chemistry_Notes>
This compound has an imine and may undergo hydrolysis. This compound contains an acetal/aminal-like group ( X-CH(R)-Y where X, Y are N, S, or O) that may be acid/base labile, releasing an aldehyde.

> <s_lp_Force_Field>
OPLS_2005

> <r_lp_Energy>
44.773

> <b_lp_Chiralities_Consistent>
1

> <s_lp_Variant>
AV-unprocessed.smi:157-5

> <Gold.Version>
5.8.1

> <Gold.Id.Protein>
6NUR|6NUR_protein|mol2

> <Gold.PLP.Fitness>
41.9301

> <Gold.PLP.PLP>
-38.0207

> <Gold.PLP.part.hbond>
-2.6844

> <Gold.PLP.part.metal>
0.0000

> <Gold.PLP.part.buried>
-6.2491

> <Gold.PLP.part.nonpolar>
-29.4238

> <Gold.PLP.part.repulsive>
0.2816

> <Gold.PLP.ligand.clash>
0.0000

> <Gold.PLP.ligand.torsion>
1.0529

> <Gold.PLP.Chemscore.Hbond>
2.0000

> <Gold.PLP.Chemscore.CHOScore>
0.0000

> <Gold.PLP.Chemscore.Metal>
0.0000

> <Gold.Chemscore.Hbonds>
donor molecule, donor type, donor heavy atom, donor atom, acceptor molecule, acceptor atom, score
      L1  H     1    24       P1  8028  1.00
      L1  H    19    35       P1  7957  0.99

> <Gold.PLP.Chemscore.Internal.Correction>
0.0153

> <Gold.Rescore>
     Score         DG    S(hbond)    S(metal)    S(lipo)     H(rot)  DE(clash)    DE(int)     intcor
      7.01      -9.33       1.90        0.00      58.15       3.64       0.03       2.30       ----

> <Gold.Chemscore.Fitness>
7.0065

> <Gold.Chemscore.DG>
-9.3307

> <Gold.Chemscore.ZeroCoef>
-5.4800

> <Gold.Chemscore.Hbond>
1.9028

> <Gold.Chemscore.Metal>
0.0000

> <Gold.Chemscore.Lipo>
58.1529

> <Gold.Chemscore.Internal_Hbond>
0.0000

> <Gold.Chemscore.DEClash>
0.0256

> <Gold.Chemscore.DEInternal>
2.2986

> <Gold.Chemscore.Rot>
3.6362

> <Gold.Chemscore.Internal.Correction>
   9.000000E+99

> <Gold.Chemscore.Hbonds>
donor molecule, donor type, donor heavy atom, donor atom, acceptor molecule, acceptor atom, score
      L1  H     1    24       P1  8028  0.89
      L1  H    19    35       P1  7957  0.91

> <Gold.Chemscore.Hbond.Weighted>
-6.3555

> <Gold.Chemscore.Metal.Weighted>
-0.0000

> <Gold.Chemscore.Lipo.Weighted>
-6.8039

> <Gold.Chemscore.Internal_Hbond.Weighted>
0.0000

> <Gold.Chemscore.DEClash.Weighted>
0.0256

> <Gold.Chemscore.DEInternal.Weighted>
2.2986

> <Gold.Chemscore.Rot.Weighted>
9.3087

> <Gold.Chemscore.Internal.Correction.Weighted>
   9.000000E+99

> <Gold.Protein.RotatedTorsions>
[ 6907 6896 6895 6894 ] final  -28.84 input  -60.11 | X-H torsion
[ 7974 7965 7964 7962 ] final  165.98 input  175.53 | X-H torsion
[ 8008 7997 7996 7995 ] final  -92.59 input   59.86 | X-H torsion
[ 10167 10162 10161 10158 ] final   61.56 input  -65.29 | X-H torsion
[ 10718 10713 10712 10709 ] final -149.09 input   66.30 | X-H torsion
[ 10763 10752 10751 10750 ] final  -17.04 input  -60.55 | X-H torsion
[ 11005 11000 10999 10996 ] final    4.19 input  -57.11 | X-H torsion

> <Gold.Protein.ActiveResidues>
 VAL166  LYS551  ARG553  GLY616  TRP617  ASP618  TYR619  PRO620  LYS621  CYS622 
 ASP623  PHE694  ASN695  SER759  ASP760  ASP761  ALA762  ILE779  LEU786  VAL792 
 PHE793  MET794  SER795  GLU796  ALA797  LYS798  CYS799  TRP800  GLU811  SER814 

> <Gold.Protein.RotatedAtoms>
  151.1275  135.0112  159.8566 H   0  0  0  0  0  0  0  0  0  0  0  0  # atno 6907 bound_to 6896
  152.5450  134.1650  159.8583 H   0  0  0  0  0  0  0  0  0  0  0  0  # atno 6908 bound_to 6896
  151.1714  133.4737  159.2627 H   0  0  0  0  0  0  0  0  0  0  0  0  # atno 6909 bound_to 6896
  144.7480  139.8549  143.6375 H   0  0  0  0  0  0  0  0  0  0  0  0  # atno 7974 bound_to 7965
  154.7250  140.0507  157.0674 H   0  0  0  0  0  0  0  0  0  0  0  0  # atno 8008 bound_to 7997
  155.0377  140.3165  155.4716 H   0  0  0  0  0  0  0  0  0  0  0  0  # atno 8009 bound_to 7997
  156.2826  140.2138  156.5500 H   0  0  0  0  0  0  0  0  0  0  0  0  # atno 8010 bound_to 7997
  140.1534  144.4440  150.6747 H   0  0  0  0  0  0  0  0  0  0  0  0  # atno 10167 bound_to 10162
  156.4286  130.8064  151.2290 H   0  0  0  0  0  0  0  0  0  0  0  0  # atno 10718 bound_to 10713
  153.5677  135.7008  153.5519 H   0  0  0  0  0  0  0  0  0  0  0  0  # atno 10763 bound_to 10752
  153.3372  135.4031  155.1543 H   0  0  0  0  0  0  0  0  0  0  0  0  # atno 10764 bound_to 10752
  154.8638  135.3733  154.5198 H   0  0  0  0  0  0  0  0  0  0  0  0  # atno 10765 bound_to 10752
  140.5846  133.9980  155.8062 H   0  0  0  0  0  0  0  0  0  0  0  0  # atno 11005 bound_to 11000
  146.1389  139.4441  143.0121 LP  0  0  0  0  0  0  0  0  0  0  0  0  # atno 17320 bound_to 7965
  145.7048  141.0124  143.1485 LP  0  0  0  0  0  0  0  0  0  0  0  0  # atno 17321 bound_to 7965
  140.6688  143.2278  151.5676 LP  0  0  0  0  0  0  0  0  0  0  0  0  # atno 17342 bound_to 10162
  139.5415  144.2635  152.1359 LP  0  0  0  0  0  0  0  0  0  0  0  0  # atno 17343 bound_to 10162
  157.7508  131.0205  150.3713 LP  0  0  0  0  0  0  0  0  0  0  0  0  # atno 17370 bound_to 10713
  156.4045  130.3922  149.6936 LP  0  0  0  0  0  0  0  0  0  0  0  0  # atno 17371 bound_to 10713
  141.0974  133.9822  157.3137 LP  0  0  0  0  0  0  0  0  0  0  0  0  # atno 17394 bound_to 11000
  139.9301  135.0200  156.8372 LP  0  0  0  0  0  0  0  0  0  0  0  0  # atno 17395 bound_to 11000

$$$$
