AV-unprocessed.smi:2769|AV-procd|sdf|10657|dock9
  -GOLD-   2272015103D 1   1.00000     0.00000
 Structure written by MMmdl.
 19 20  0  0  0  0  0  0  0  0  1 V2000
  152.2625  138.4410  155.0233 C   0  0  0  0  0  0  0  0  0  0  0  0
  151.8238  139.7202  155.6504 C   0  0  0  0  0  0  0  0  0  0  0  0
  150.8834  140.4732  155.0943 N   0  0  0  0  0  0  0  0  0  0  0  0
  150.7791  141.5607  155.9734 O   0  0  0  0  0  0  0  0  0  0  0  0
  151.6458  141.3062  156.9835 C   0  0  0  0  0  0  0  0  0  0  0  0
  151.8359  142.3394  158.0444 C   0  0  0  0  0  0  0  0  0  0  0  0
  152.4967  142.0066  159.3787 C   0  0  0  0  0  0  0  0  0  0  0  0
  151.6550  143.0542  159.9402 N   0  0  0  0  0  0  0  0  0  0  0  0
  150.6747  142.8765  158.8778 C   0  0  0  0  0  0  0  0  0  0  0  0
  152.3536  140.1914  156.8121 N   0  0  0  0  0  0  0  0  0  0  0  0
  152.0881  138.4584  153.9469 H   0  0  0  0  0  0  0  0  0  0  0  0
  151.7097  137.6044  155.4510 H   0  0  0  0  0  0  0  0  0  0  0  0
  153.3267  138.2779  155.1951 H   0  0  0  0  0  0  0  0  0  0  0  0
  152.3603  143.1789  157.5796 H   0  0  0  0  0  0  0  0  0  0  0  0
  152.2512  141.0190  159.7724 H   0  0  0  0  0  0  0  0  0  0  0  0
  153.5647  142.2223  159.4165 H   0  0  0  0  0  0  0  0  0  0  0  0
  151.2865  142.8043  160.8470 H   0  0  0  0  0  0  0  0  0  0  0  0
  150.2466  143.8069  158.5041 H   0  0  0  0  0  0  0  0  0  0  0  0
  149.9154  142.1352  159.1326 H   0  0  0  0  0  0  0  0  0  0  0  0
  1  2  1  0  0  0  0
  1 11  1  0  0  0  0
  1 12  1  0  0  0  0
  1 13  1  0  0  0  0
  2 10  1  0  0  0  0
  2  3  2  0  0  0  0
  3  4  1  0  0  0  0
  4  5  1  0  0  0  0
  5  6  1  0  0  0  0
  5 10  2  0  0  0  0
  6  9  1  0  0  0  0
  6  7  1  0  0  0  0
  6 14  1  0  0  0  0
  7  8  1  0  0  0  0
  7 15  1  0  0  0  0
  7 16  1  0  0  0  0
  8  9  1  0  0  0  0
  8 17  1  0  0  0  0
  9 18  1  0  0  0  0
  9 19  1  0  0  0  0
M  END
> <s_m_source_file>
AV-unprocessed.smi

> <i_m_source_file_index>
2769

> <i_lp_mmshare_version>
43012

> <i_f3d_flags>
0

> <s_epik_input>
W0NIM11jMW5vYyhuMSlbQ0hdMltDSDJdW05IXVtDSDJdMg==

> <s_epik_cmdline>
J2VwaWtfcHl0aG9uJywgJy1waCcsICc3LjAnLCAnLXRuJywgJzgnLCAnLW1hJywgJzIwMCcsICctbWV0YWxfYmluZGluZycsICctaW1hZScsICc8aW5maWxlLm1hZT4nLCAnLW9tYWUnLCAnPG91dGZpbGUubWFlPic=

> <r_lp_tautomer_probability>
1

> <r_epik_Ionization_Penalty>
2.39489

> <r_epik_Ionization_Penalty_Charging>
0

> <r_epik_Ionization_Penalty_Neutral>
2.39489

> <r_epik_State_Penalty>
2.55237

> <r_epik_Charging_Adjusted_Penalty>
2.55237

> <i_epik_Tot_Q>
0

> <i_epik_Tot_abs_Q>
0

> <r_epik_Metal_State_Penalty>
2.55237

> <b_epik_Metal_Only>
0

> <s_lp_Force_Field>
OPLS_2005

> <r_lp_Energy>
11.1519

> <b_lp_Chiralities_Consistent>
1

> <s_lp_Variant>
AV-unprocessed.smi:2769-2

> <Gold.Version>
5.8.1

> <Gold.Id.Protein>
6NUR|6NUR_protein|mol2

> <Gold.PLP.Fitness>
22.8131

> <Gold.PLP.PLP>
-17.2709

> <Gold.PLP.part.hbond>
-2.0000

> <Gold.PLP.part.metal>
0.0000

> <Gold.PLP.part.buried>
-2.9772

> <Gold.PLP.part.nonpolar>
-11.0540

> <Gold.PLP.part.repulsive>
0.1239

> <Gold.PLP.ligand.clash>
0.0000

> <Gold.PLP.ligand.torsion>
0.3419

> <Gold.PLP.Chemscore.Hbond>
2.0000

> <Gold.PLP.Chemscore.CHOScore>
0.0000

> <Gold.PLP.Chemscore.Metal>
0.0000

> <Gold.Chemscore.Hbonds>
donor molecule, donor type, donor heavy atom, donor atom, acceptor molecule, acceptor atom, score
      P1  H  7989  7998       L1     3  1.00
      P1  H  7997  8008       L1    10  1.00

> <Gold.PLP.Chemscore.Internal.Correction>
0.2259

> <Gold.Rescore>
     Score         DG    S(hbond)    S(metal)    S(lipo)     H(rot)  DE(clash)    DE(int)     intcor
      9.92     -10.37       0.94        0.00      36.82       1.00       0.16       0.28       ----

> <Gold.Chemscore.Fitness>
9.9237

> <Gold.Chemscore.DG>
-10.3678

> <Gold.Chemscore.ZeroCoef>
-5.4800

> <Gold.Chemscore.Hbond>
0.9399

> <Gold.Chemscore.Metal>
0.0000

> <Gold.Chemscore.Lipo>
36.8247

> <Gold.Chemscore.Internal_Hbond>
0.0000

> <Gold.Chemscore.DEClash>
0.1607

> <Gold.Chemscore.DEInternal>
0.2834

> <Gold.Chemscore.Rot>
1.0000

> <Gold.Chemscore.Internal.Correction>
   9.000000E+99

> <Gold.Chemscore.Hbonds>
donor molecule, donor type, donor heavy atom, donor atom, acceptor molecule, acceptor atom, score
      P1  H  7989  7998       L1     3  0.29
      P1  H  7997  8008       L1    10  0.32

> <Gold.Chemscore.Hbond.Weighted>
-3.1393

> <Gold.Chemscore.Metal.Weighted>
-0.0000

> <Gold.Chemscore.Lipo.Weighted>
-4.3085

> <Gold.Chemscore.Internal_Hbond.Weighted>
0.0000

> <Gold.Chemscore.DEClash.Weighted>
0.1607

> <Gold.Chemscore.DEInternal.Weighted>
0.2834

> <Gold.Chemscore.Rot.Weighted>
2.5600

> <Gold.Chemscore.Internal.Correction.Weighted>
   9.000000E+99

> <Gold.Protein.RotatedTorsions>
[ 6907 6896 6895 6894 ] final  -66.27 input  -60.11 | X-H torsion
[ 7974 7965 7964 7962 ] final   11.16 input  175.53 | X-H torsion
[ 8008 7997 7996 7995 ] final  -46.10 input   59.86 | X-H torsion
[ 10167 10162 10161 10158 ] final   76.89 input  -65.29 | X-H torsion
[ 10718 10713 10712 10709 ] final -122.05 input   66.30 | X-H torsion
[ 10763 10752 10751 10750 ] final   58.80 input  -60.55 | X-H torsion
[ 11005 11000 10999 10996 ] final -176.71 input  -57.11 | X-H torsion

> <Gold.Protein.ActiveResidues>
 VAL166  LYS551  ARG553  GLY616  TRP617  ASP618  TYR619  PRO620  LYS621  CYS622 
 ASP623  PHE694  ASN695  SER759  ASP760  ASP761  ALA762  ILE779  LEU786  VAL792 
 PHE793  MET794  SER795  GLU796  ALA797  LYS798  CYS799  TRP800  GLU811  SER814 

> <Gold.Protein.RotatedAtoms>
  150.7475  134.6045  159.6053 H   0  0  0  0  0  0  0  0  0  0  0  0  # atno 6907 bound_to 6896
  152.3397  134.7148  160.0276 H   0  0  0  0  0  0  0  0  0  0  0  0  # atno 6908 bound_to 6896
  151.7605  133.3297  159.3453 H   0  0  0  0  0  0  0  0  0  0  0  0  # atno 6909 bound_to 6896
  146.2376  139.9527  142.8468 H   0  0  0  0  0  0  0  0  0  0  0  0  # atno 7974 bound_to 7965
  154.4005  140.1380  156.3955 H   0  0  0  0  0  0  0  0  0  0  0  0  # atno 8008 bound_to 7997
  155.7874  140.3480  155.5310 H   0  0  0  0  0  0  0  0  0  0  0  0  # atno 8009 bound_to 7997
  155.8614  140.0957  157.1601 H   0  0  0  0  0  0  0  0  0  0  0  0  # atno 8010 bound_to 7997
  139.9874  144.5782  150.7848 H   0  0  0  0  0  0  0  0  0  0  0  0  # atno 10167 bound_to 10162
  156.1387  130.6449  150.9736 H   0  0  0  0  0  0  0  0  0  0  0  0  # atno 10718 bound_to 10713
  152.9879  135.5594  154.5611 H   0  0  0  0  0  0  0  0  0  0  0  0  # atno 10763 bound_to 10752
  154.5030  135.2798  155.1407 H   0  0  0  0  0  0  0  0  0  0  0  0  # atno 10764 bound_to 10752
  154.2830  135.6341  153.5407 H   0  0  0  0  0  0  0  0  0  0  0  0  # atno 10765 bound_to 10752
  140.4491  134.6360  157.4793 H   0  0  0  0  0  0  0  0  0  0  0  0  # atno 11005 bound_to 11000
  145.1846  140.9783  143.4246 LP  0  0  0  0  0  0  0  0  0  0  0  0  # atno 17320 bound_to 7965
  144.9912  139.3688  143.6214 LP  0  0  0  0  0  0  0  0  0  0  0  0  # atno 17321 bound_to 7965
  140.7467  143.2895  151.3370 LP  0  0  0  0  0  0  0  0  0  0  0  0  # atno 17342 bound_to 10162
  139.6365  144.0620  152.2520 LP  0  0  0  0  0  0  0  0  0  0  0  0  # atno 17343 bound_to 10162
  157.6556  131.0890  150.7955 LP  0  0  0  0  0  0  0  0  0  0  0  0  # atno 17370 bound_to 10713
  156.8033  130.4928  149.5366 LP  0  0  0  0  0  0  0  0  0  0  0  0  # atno 17371 bound_to 10713
  140.0019  134.6823  155.9517 LP  0  0  0  0  0  0  0  0  0  0  0  0  # atno 17394 bound_to 11000
  141.1672  133.6537  156.4522 LP  0  0  0  0  0  0  0  0  0  0  0  0  # atno 17395 bound_to 11000

$$$$
