AV-unprocessed.smi:2296|AV-procd|sdf|9220|dock5
  -GOLD-   2272012443D 1   1.00000     0.00000
 Structure written by MMmdl.
 24 24  0  0  0  0  0  0  0  0  2 V2000
  144.2142  137.4415  152.4147 N   0  3  0  0  0  0  0  0  0  0  0  0
  145.6184  137.1641  152.0550 C   0  0  2  0  0  0  0  0  0  0  0  0
  146.3833  138.4815  151.8417 C   0  0  0  0  0  0  0  0  0  0  0  0
  147.6275  138.2291  151.2232 O   0  0  0  0  0  0  0  0  0  0  0  0
  145.6908  136.2645  150.8058 C   0  0  0  0  0  0  0  0  0  0  0  0
  145.4157  134.8013  151.1067 C   0  0  0  0  0  0  0  0  0  0  0  0
  146.2874  133.7926  150.6463 C   0  0  0  0  0  0  0  0  0  0  0  0
  145.9818  132.4503  150.9502 C   0  0  0  0  0  0  0  0  0  0  0  0
  144.8933  132.0801  151.6580 N   0  0  0  0  0  0  0  0  0  0  0  0
  144.0641  133.0509  152.0978 C   0  0  0  0  0  0  0  0  0  0  0  0
  144.2786  134.4217  151.8494 C   0  0  0  0  0  0  0  0  0  0  0  0
  144.1412  138.3701  152.8047 H   0  0  0  0  0  0  0  0  0  0  0  0
  143.9080  136.7643  153.0989 H   0  0  0  0  0  0  0  0  0  0  0  0
  146.0755  136.6302  152.8897 H   0  0  0  0  0  0  0  0  0  0  0  0
  145.8155  139.1504  151.1940 H   0  0  0  0  0  0  0  0  0  0  0  0
  146.5420  139.0049  152.7855 H   0  0  0  0  0  0  0  0  0  0  0  0
  147.9833  137.4269  151.5758 H   0  0  0  0  0  0  0  0  0  0  0  0
  144.9915  136.6176  150.0464 H   0  0  0  0  0  0  0  0  0  0  0  0
  146.6831  136.3339  150.3577 H   0  0  0  0  0  0  0  0  0  0  0  0
  147.1718  134.0353  150.0755 H   0  0  0  0  0  0  0  0  0  0  0  0
  146.6277  131.6534  150.6130 H   0  0  0  0  0  0  0  0  0  0  0  0
  143.2031  132.7259  152.6629 H   0  0  0  0  0  0  0  0  0  0  0  0
  143.5843  135.1608  152.2223 H   0  0  0  0  0  0  0  0  0  0  0  0
  143.6348  137.3741  151.5900 H   0  0  0  0  0  0  0  0  0  0  0  0
  1  2  1  0  0  0  0
  1 12  1  0  0  0  0
  1 13  1  0  0  0  0
  1 24  1  0  0  0  0
  2  3  1  0  0  0  0
  2  5  1  0  0  0  0
  2 14  1  0  0  0  0
  3  4  1  0  0  0  0
  3 15  1  0  0  0  0
  3 16  1  0  0  0  0
  4 17  1  0  0  0  0
  5  6  1  0  0  0  0
  5 18  1  0  0  0  0
  5 19  1  0  0  0  0
  6 11  1  0  0  0  0
  6  7  2  0  0  0  0
  7  8  1  0  0  0  0
  7 20  1  0  0  0  0
  8  9  2  0  0  0  0
  8 21  1  0  0  0  0
  9 10  1  0  0  0  0
 10 11  2  0  0  0  0
 10 22  1  0  0  0  0
 11 23  1  0  0  0  0
M  CHG  1   1   1
M  END
> <s_m_source_file>
AV-unprocessed.smi

> <i_m_source_file_index>
2296

> <i_lp_mmshare_version>
43012

> <i_f3d_flags>
0

> <s_epik_input>
W09IXVtDSDJdW0NAQEhdKFtOSDJdKVtDSDJdYzFbY0hdW2NIXW5bY0hdW2NIXTE=

> <s_epik_cmdline>
J2VwaWtfcHl0aG9uJywgJy1waCcsICc3LjAnLCAnLXRuJywgJzgnLCAnLW1hJywgJzIwMCcsICctbWV0YWxfYmluZGluZycsICctaW1hZScsICc8aW5maWxlLm1hZT4nLCAnLW9tYWUnLCAnPG91dGZpbGUubWFlPic=

> <r_epik_Ionization_Penalty>
0.0199414

> <r_epik_Ionization_Penalty_Charging>
0.0188044

> <r_epik_Ionization_Penalty_Neutral>
0.00113699

> <r_epik_State_Penalty>
0.00788343

> <r_epik_Charging_Adjusted_Penalty>
0.0266878

> <i_epik_Tot_Q>
1

> <i_epik_Tot_abs_Q>
1

> <r_epik_Metal_State_Penalty>
-0

> <b_epik_Metal_Only>
0

> <s_lp_Force_Field>
OPLS_2005

> <r_lp_Energy>
8.03463

> <b_lp_Chiralities_Consistent>
1

> <s_lp_Variant>
AV-unprocessed.smi:2296-1

> <Gold.Version>
5.8.1

> <Gold.Id.Protein>
6NUR|6NUR_protein|mol2

> <Gold.PLP.Fitness>
39.7263

> <Gold.PLP.PLP>
-22.7800

> <Gold.PLP.part.hbond>
-4.4529

> <Gold.PLP.part.metal>
0.0000

> <Gold.PLP.part.buried>
-0.7804

> <Gold.PLP.part.nonpolar>
-17.7504

> <Gold.PLP.part.repulsive>
0.1545

> <Gold.PLP.ligand.clash>
0.0000

> <Gold.PLP.ligand.torsion>
0.3751

> <Gold.PLP.Chemscore.Hbond>
4.3880

> <Gold.PLP.Chemscore.CHOScore>
1.5088

> <Gold.PLP.Chemscore.Metal>
0.0000

> <Gold.Chemscore.Hbonds>
donor molecule, donor type, donor heavy atom, donor atom, acceptor molecule, acceptor atom, score
      L1  H     1    12       P1 10175  1.30
      L1  H     1    24       P1 10171  0.35
      L1  H     4    17       P1  7948  0.99
      P1  H  7954  7966       L1     4  0.38
      L1  C     8    21       P1 10747  1.00
      L1  C    10    22       P1 10957  0.79

> <Gold.PLP.Chemscore.Internal.Correction>
0.0060

> <Gold.Rescore>
     Score         DG    S(hbond)    S(metal)    S(lipo)     H(rot)  DE(clash)    DE(int)     intcor
     14.16     -15.00       2.57        0.00      54.82       2.14       0.33       0.51       ----

> <Gold.Chemscore.Fitness>
14.1592

> <Gold.Chemscore.DG>
-14.9990

> <Gold.Chemscore.ZeroCoef>
-5.4800

> <Gold.Chemscore.Hbond>
2.5703

> <Gold.Chemscore.Metal>
0.0000

> <Gold.Chemscore.Lipo>
54.8194

> <Gold.Chemscore.Internal_Hbond>
0.0000

> <Gold.Chemscore.DEClash>
0.3262

> <Gold.Chemscore.DEInternal>
0.5136

> <Gold.Chemscore.Rot>
2.1405

> <Gold.Chemscore.Internal.Correction>
   9.000000E+99

> <Gold.Chemscore.Hbonds>
donor molecule, donor type, donor heavy atom, donor atom, acceptor molecule, acceptor atom, score
      L1  H     1    12       P1 10175  0.63
      L1  H     1    24       P1 10171  0.36
      L1  H     4    17       P1  7948  0.92
      P1  H  7954  7966       L1     4  0.01

> <Gold.Chemscore.Hbond.Weighted>
-8.5848

> <Gold.Chemscore.Metal.Weighted>
-0.0000

> <Gold.Chemscore.Lipo.Weighted>
-6.4139

> <Gold.Chemscore.Internal_Hbond.Weighted>
0.0000

> <Gold.Chemscore.DEClash.Weighted>
0.3262

> <Gold.Chemscore.DEInternal.Weighted>
0.5136

> <Gold.Chemscore.Rot.Weighted>
5.4797

> <Gold.Chemscore.Internal.Correction.Weighted>
   9.000000E+99

> <Gold.Protein.RotatedTorsions>
[ 6907 6896 6895 6894 ] final  -80.33 input  -60.11 | X-H torsion
[ 7974 7965 7964 7962 ] final  145.80 input  175.53 | X-H torsion
[ 8008 7997 7996 7995 ] final  154.74 input   59.86 | X-H torsion
[ 10167 10162 10161 10158 ] final  -18.58 input  -65.29 | X-H torsion
[ 10718 10713 10712 10709 ] final  -88.22 input   66.30 | X-H torsion
[ 10763 10752 10751 10750 ] final -133.65 input  -60.55 | X-H torsion
[ 11005 11000 10999 10996 ] final  -30.75 input  -57.11 | X-H torsion

> <Gold.Protein.ActiveResidues>
 VAL166  LYS551  ARG553  GLY616  TRP617  ASP618  TYR619  PRO620  LYS621  CYS622 
 ASP623  PHE694  ASN695  SER759  ASP760  ASP761  ALA762  ILE779  LEU786  VAL792 
 PHE793  MET794  SER795  GLU796  ALA797  LYS798  CYS799  TRP800  GLU811  SER814 

> <Gold.Protein.RotatedAtoms>
  150.6931  134.3986  159.5108 H   0  0  0  0  0  0  0  0  0  0  0  0  # atno 6907 bound_to 6896
  152.1763  134.8789  160.0539 H   0  0  0  0  0  0  0  0  0  0  0  0  # atno 6908 bound_to 6896
  151.9796  133.3718  159.4139 H   0  0  0  0  0  0  0  0  0  0  0  0  # atno 6909 bound_to 6896
  144.8722  139.5828  143.5881 H   0  0  0  0  0  0  0  0  0  0  0  0  # atno 7974 bound_to 7965
  156.2515  140.1958  156.6694 H   0  0  0  0  0  0  0  0  0  0  0  0  # atno 8008 bound_to 7997
  154.6404  140.0584  156.9865 H   0  0  0  0  0  0  0  0  0  0  0  0  # atno 8009 bound_to 7997
  155.1571  140.3256  155.4422 H   0  0  0  0  0  0  0  0  0  0  0  0  # atno 8010 bound_to 7997
  140.7260  143.4903  151.0001 H   0  0  0  0  0  0  0  0  0  0  0  0  # atno 10167 bound_to 10162
  155.9984  130.4828  150.4986 H   0  0  0  0  0  0  0  0  0  0  0  0  # atno 10718 bound_to 10713
  154.8730  135.3759  154.4608 H   0  0  0  0  0  0  0  0  0  0  0  0  # atno 10763 bound_to 10752
  153.5276  135.7028  153.5704 H   0  0  0  0  0  0  0  0  0  0  0  0  # atno 10764 bound_to 10752
  153.3923  135.3969  155.1897 H   0  0  0  0  0  0  0  0  0  0  0  0  # atno 10765 bound_to 10752
  140.9409  133.7279  156.1075 H   0  0  0  0  0  0  0  0  0  0  0  0  # atno 11005 bound_to 11000
  146.2938  139.7218  142.9141 LP  0  0  0  0  0  0  0  0  0  0  0  0  # atno 17320 bound_to 7965
  145.4108  141.0396  143.3018 LP  0  0  0  0  0  0  0  0  0  0  0  0  # atno 17321 bound_to 7965
  139.8607  143.7319  152.3173 LP  0  0  0  0  0  0  0  0  0  0  0  0  # atno 17342 bound_to 10162
  139.7533  144.7528  151.0473 LP  0  0  0  0  0  0  0  0  0  0  0  0  # atno 17343 bound_to 10162
  157.2973  131.0638  151.2093 LP  0  0  0  0  0  0  0  0  0  0  0  0  # atno 17370 bound_to 10713
  157.3084  130.6878  149.6202 LP  0  0  0  0  0  0  0  0  0  0  0  0  # atno 17371 bound_to 10713
  140.7735  134.3806  157.5503 LP  0  0  0  0  0  0  0  0  0  0  0  0  # atno 17394 bound_to 11000
  139.8820  134.9037  156.2860 LP  0  0  0  0  0  0  0  0  0  0  0  0  # atno 17395 bound_to 11000

$$$$
