AV-unprocessed.smi:557|AV-procd|sdf|2915|dock8
  -GOLD-   2262023403D 1   1.00000     0.00000
 Structure written by MMmdl.
 47 49  0  0  0  0  0  0  0  0  2 V2000
  152.5443  138.3833  154.7901 C   0  0  0  0  0  0  0  0  0  0  0  0
  151.2855  139.0916  154.7019 N   0  0  0  0  0  0  0  0  0  0  0  0
  150.1079  138.6846  154.1125 C   0  0  0  0  0  0  0  0  0  0  0  0
  149.1964  139.6883  154.2830 C   0  0  0  0  0  0  0  0  0  0  0  0
  147.7654  139.7490  153.8273 C   0  0  0  0  0  0  0  0  0  0  0  0
  146.9387  138.5984  154.4165 C   0  0  0  0  0  0  0  0  0  0  0  0
  146.9213  137.4583  153.5039 N   0  0  0  0  0  0  0  0  0  0  0  0
  145.9100  136.5983  153.2962 C   0  0  0  0  0  0  0  0  0  0  0  0
  144.8405  136.6938  153.8948 O   0  0  0  0  0  0  0  0  0  0  0  0
  146.1706  135.6370  152.3940 N   0  0  0  0  0  0  0  0  0  0  0  0
  145.2420  134.5847  151.9928 C   0  0  1  0  0  0  0  0  0  0  0  0
  144.6220  134.8319  150.6062 C   0  0  0  0  0  0  0  0  0  0  0  0
  144.5279  133.4423  149.9463 C   0  0  0  0  0  0  0  0  0  0  0  0
  144.9814  132.4886  150.9763 N   0  3  1  0  0  0  0  0  0  0  0  0
  145.5166  131.1926  150.5055 C   0  0  0  0  0  0  0  0  0  0  0  0
  145.8514  130.3086  151.7236 C   0  0  0  0  0  0  0  0  0  0  0  0
  146.7796  131.0346  152.7187 C   0  0  0  0  0  0  0  0  0  0  0  0
  146.2169  132.4179  153.0982 C   0  0  0  0  0  0  0  0  0  0  0  0
  145.9310  133.2279  151.8220 C   0  0  2  0  0  0  0  0  0  0  0  0
  149.9258  140.6785  155.0010 C   0  0  0  0  0  0  0  0  0  0  0  0
  151.1747  140.3195  155.2485 N   0  0  0  0  0  0  0  0  0  0  0  0
  152.4671  137.4182  154.2889 H   0  0  0  0  0  0  0  0  0  0  0  0
  152.8020  138.2194  155.8369 H   0  0  0  0  0  0  0  0  0  0  0  0
  153.3319  138.9684  154.3143 H   0  0  0  0  0  0  0  0  0  0  0  0
  150.0164  137.7252  153.6250 H   0  0  0  0  0  0  0  0  0  0  0  0
  147.3146  140.7006  154.1119 H   0  0  0  0  0  0  0  0  0  0  0  0
  147.7132  139.7103  152.7386 H   0  0  0  0  0  0  0  0  0  0  0  0
  147.3617  138.2893  155.3740 H   0  0  0  0  0  0  0  0  0  0  0  0
  145.9170  138.9338  154.6028 H   0  0  0  0  0  0  0  0  0  0  0  0
  147.7692  137.2990  152.9785 H   0  0  0  0  0  0  0  0  0  0  0  0
  147.0781  135.6397  151.9512 H   0  0  0  0  0  0  0  0  0  0  0  0
  144.4315  134.4926  152.7192 H   0  0  0  0  0  0  0  0  0  0  0  0
  143.6442  135.3072  150.6927 H   0  0  0  0  0  0  0  0  0  0  0  0
  145.2500  135.4850  149.9985 H   0  0  0  0  0  0  0  0  0  0  0  0
  143.5155  133.2042  149.6186 H   0  0  0  0  0  0  0  0  0  0  0  0
  145.1856  133.3962  149.0768 H   0  0  0  0  0  0  0  0  0  0  0  0
  144.7780  130.6988  149.8730 H   0  0  0  0  0  0  0  0  0  0  0  0
  146.4064  131.3569  149.8957 H   0  0  0  0  0  0  0  0  0  0  0  0
  144.9271  130.0316  152.2326 H   0  0  0  0  0  0  0  0  0  0  0  0
  146.3118  129.3764  151.3947 H   0  0  0  0  0  0  0  0  0  0  0  0
  146.9194  130.4276  153.6136 H   0  0  0  0  0  0  0  0  0  0  0  0
  147.7666  131.1558  152.2701 H   0  0  0  0  0  0  0  0  0  0  0  0
  145.3030  132.3011  153.6822 H   0  0  0  0  0  0  0  0  0  0  0  0
  146.9297  132.9449  153.7328 H   0  0  0  0  0  0  0  0  0  0  0  0
  146.8598  133.3657  151.2635 H   0  0  0  0  0  0  0  0  0  0  0  0
  149.5855  141.6436  155.3460 H   0  0  0  0  0  0  0  0  0  0  0  0
  144.1792  132.2901  151.5572 H   0  0  0  0  0  0  0  0  0  0  0  0
  1  2  1  0  0  0  0
  1 22  1  0  0  0  0
  1 23  1  0  0  0  0
  1 24  1  0  0  0  0
  2 21  1  0  0  0  0
  2  3  1  0  0  0  0
  3  4  2  0  0  0  0
  3 25  1  0  0  0  0
  4  5  1  0  0  0  0
  4 20  1  0  0  0  0
  5  6  1  0  0  0  0
  5 26  1  0  0  0  0
  5 27  1  0  0  0  0
  6  7  1  0  0  0  0
  6 28  1  0  0  0  0
  6 29  1  0  0  0  0
  7  8  1  0  0  0  0
  7 30  1  0  0  0  0
  8  9  2  0  0  0  0
  8 10  1  0  0  0  0
 10 11  1  0  0  0  0
 10 31  1  0  0  0  0
 11 19  1  0  0  0  0
 11 12  1  0  0  0  0
 11 32  1  0  0  0  0
 12 13  1  0  0  0  0
 12 33  1  0  0  0  0
 12 34  1  0  0  0  0
 13 14  1  0  0  0  0
 13 35  1  0  0  0  0
 13 36  1  0  0  0  0
 14 19  1  0  0  0  0
 14 15  1  0  0  0  0
 14 47  1  0  0  0  0
 15 16  1  0  0  0  0
 15 37  1  0  0  0  0
 15 38  1  0  0  0  0
 16 17  1  0  0  0  0
 16 39  1  0  0  0  0
 16 40  1  0  0  0  0
 17 18  1  0  0  0  0
 17 41  1  0  0  0  0
 17 42  1  0  0  0  0
 18 19  1  0  0  0  0
 18 43  1  0  0  0  0
 18 44  1  0  0  0  0
 19 45  1  0  0  0  0
 20 21  2  0  0  0  0
 20 46  1  0  0  0  0
M  CHG  1  14   1
M  END
> <s_m_source_file>
AV-unprocessed.smi

> <i_m_source_file_index>
557

> <i_lp_mmshare_version>
43012

> <i_f3d_flags>
0

> <s_epik_input>
W0NIM11uMVtjSF1jKFtjSF1uMSlbQ0gyXVtDSDJdW05IXUMoPU8pW05IXVtDQEhdKFtDSDJdW0NIMl0yKVtDQEhdKE4yMylbQ0gyXVtDSDJdW0NIMl1bQ0gyXTM=

> <s_epik_cmdline>
J2VwaWtfcHl0aG9uJywgJy1waCcsICc3LjAnLCAnLXRuJywgJzgnLCAnLW1hJywgJzIwMCcsICctbWV0YWxfYmluZGluZycsICctaW1hZScsICc8aW5maWxlLm1hZT4nLCAnLW9tYWUnLCAnPG91dGZpbGUubWFlPic=

> <r_lp_tautomer_probability>
1

> <r_epik_Ionization_Penalty>
0.000956547

> <r_epik_Ionization_Penalty_Charging>
0.000435796

> <r_epik_Ionization_Penalty_Neutral>
0.000520752

> <r_epik_State_Penalty>
-0

> <r_epik_Charging_Adjusted_Penalty>
0.000435796

> <i_epik_Tot_Q>
1

> <i_epik_Tot_abs_Q>
1

> <r_epik_Metal_State_Penalty>
-0

> <b_epik_Metal_Only>
0

> <s_lp_Force_Field>
OPLS_2005

> <r_lp_Energy>
39.7592

> <b_lp_Chiralities_Consistent>
1

> <s_lp_Variant>
AV-unprocessed.smi:557-2

> <Gold.Version>
5.8.1

> <Gold.Id.Protein>
6NUR|6NUR_protein|mol2

> <Gold.PLP.Fitness>
44.9145

> <Gold.PLP.PLP>
-36.9324

> <Gold.PLP.part.hbond>
-3.0000

> <Gold.PLP.part.metal>
0.0000

> <Gold.PLP.part.buried>
-2.6453

> <Gold.PLP.part.nonpolar>
-30.6805

> <Gold.PLP.part.repulsive>
0.1522

> <Gold.PLP.ligand.clash>
0.0000

> <Gold.PLP.ligand.torsion>
0.6275

> <Gold.PLP.Chemscore.Hbond>
2.0750

> <Gold.PLP.Chemscore.CHOScore>
1.0000

> <Gold.PLP.Chemscore.Metal>
0.0000

> <Gold.Chemscore.Hbonds>
donor molecule, donor type, donor heavy atom, donor atom, acceptor molecule, acceptor atom, score
      L1  H     7    30       P1  7948  1.00
      L1  H    10    31       P1  7948  1.00
      P1  H  7989  7998       L1    21  0.07
      L1  C     3    25       P1  7948  1.00

> <Gold.PLP.Chemscore.Internal.Correction>
0.0121

> <Gold.Rescore>
     Score         DG    S(hbond)    S(metal)    S(lipo)     H(rot)  DE(clash)    DE(int)     intcor
     18.05     -18.68       1.93        0.00      92.68       1.60       0.01       0.63       ----

> <Gold.Chemscore.Fitness>
18.0500

> <Gold.Chemscore.DG>
-18.6808

> <Gold.Chemscore.ZeroCoef>
-5.4800

> <Gold.Chemscore.Hbond>
1.9335

> <Gold.Chemscore.Metal>
0.0000

> <Gold.Chemscore.Lipo>
92.6805

> <Gold.Chemscore.Internal_Hbond>
0.0000

> <Gold.Chemscore.DEClash>
0.0052

> <Gold.Chemscore.DEInternal>
0.6256

> <Gold.Chemscore.Rot>
1.6018

> <Gold.Chemscore.Internal.Correction>
   9.000000E+99

> <Gold.Chemscore.Hbonds>
donor molecule, donor type, donor heavy atom, donor atom, acceptor molecule, acceptor atom, score
      L1  H     7    30       P1  7948  0.97
      L1  H    10    31       P1  7948  0.96

> <Gold.Chemscore.Hbond.Weighted>
-6.4578

> <Gold.Chemscore.Metal.Weighted>
-0.0000

> <Gold.Chemscore.Lipo.Weighted>
-10.8436

> <Gold.Chemscore.Internal_Hbond.Weighted>
0.0000

> <Gold.Chemscore.DEClash.Weighted>
0.0052

> <Gold.Chemscore.DEInternal.Weighted>
0.6256

> <Gold.Chemscore.Rot.Weighted>
4.1006

> <Gold.Chemscore.Internal.Correction.Weighted>
   9.000000E+99

> <Gold.Protein.RotatedTorsions>
[ 6907 6896 6895 6894 ] final  -40.20 input  -60.11 | X-H torsion
[ 7974 7965 7964 7962 ] final  -91.50 input  175.53 | X-H torsion
[ 8008 7997 7996 7995 ] final  -90.94 input   59.86 | X-H torsion
[ 10167 10162 10161 10158 ] final  -54.62 input  -65.29 | X-H torsion
[ 10718 10713 10712 10709 ] final  133.42 input   66.30 | X-H torsion
[ 10763 10752 10751 10750 ] final  -35.25 input  -60.55 | X-H torsion
[ 11005 11000 10999 10996 ] final -149.80 input  -57.11 | X-H torsion

> <Gold.Protein.ActiveResidues>
 VAL166  LYS551  ARG553  GLY616  TRP617  ASP618  TYR619  PRO620  LYS621  CYS622 
 ASP623  PHE694  ASN695  SER759  ASP760  ASP761  ALA762  ILE779  LEU786  VAL792 
 PHE793  MET794  SER795  GLU796  ALA797  LYS798  CYS799  TRP800  GLU811  SER814 

> <Gold.Protein.RotatedAtoms>
  150.9812  134.9167  159.7845 H   0  0  0  0  0  0  0  0  0  0  0  0  # atno 6907 bound_to 6896
  152.5222  134.3407  159.9226 H   0  0  0  0  0  0  0  0  0  0  0  0  # atno 6908 bound_to 6896
  151.3414  133.3920  159.2706 H   0  0  0  0  0  0  0  0  0  0  0  0  # atno 6909 bound_to 6896
  145.4123  140.9546  143.2227 H   0  0  0  0  0  0  0  0  0  0  0  0  # atno 7974 bound_to 7965
  154.7047  140.0525  157.0492 H   0  0  0  0  0  0  0  0  0  0  0  0  # atno 8008 bound_to 7997
  155.0636  140.3192  155.4634 H   0  0  0  0  0  0  0  0  0  0  0  0  # atno 8009 bound_to 7997
  156.2771  140.2094  156.5763 H   0  0  0  0  0  0  0  0  0  0  0  0  # atno 8010 bound_to 7997
  140.6420  143.2513  151.4962 H   0  0  0  0  0  0  0  0  0  0  0  0  # atno 10167 bound_to 10162
  157.4775  131.1084  150.9725 H   0  0  0  0  0  0  0  0  0  0  0  0  # atno 10718 bound_to 10713
  153.8601  135.6841  153.4783 H   0  0  0  0  0  0  0  0  0  0  0  0  # atno 10763 bound_to 10752
  153.1347  135.4683  154.9401 H   0  0  0  0  0  0  0  0  0  0  0  0  # atno 10764 bound_to 10752
  154.7762  135.3254  154.8035 H   0  0  0  0  0  0  0  0  0  0  0  0  # atno 10765 bound_to 10752
  140.7469  134.3451  157.5135 H   0  0  0  0  0  0  0  0  0  0  0  0  # atno 11005 bound_to 11000
  144.8301  139.5643  143.6948 LP  0  0  0  0  0  0  0  0  0  0  0  0  # atno 17320 bound_to 7965
  146.2699  139.6609  142.9303 LP  0  0  0  0  0  0  0  0  0  0  0  0  # atno 17321 bound_to 7965
  139.5630  144.2111  152.1720 LP  0  0  0  0  0  0  0  0  0  0  0  0  # atno 17342 bound_to 10162
  140.1384  144.5224  150.6759 LP  0  0  0  0  0  0  0  0  0  0  0  0  # atno 17343 bound_to 10162
  157.0469  130.5771  149.5364 LP  0  0  0  0  0  0  0  0  0  0  0  0  # atno 17370 bound_to 10713
  156.0104  130.5195  150.7970 LP  0  0  0  0  0  0  0  0  0  0  0  0  # atno 17371 bound_to 10713
  139.8795  134.9117  156.3043 LP  0  0  0  0  0  0  0  0  0  0  0  0  # atno 17394 bound_to 11000
  140.9786  133.7282  156.0639 LP  0  0  0  0  0  0  0  0  0  0  0  0  # atno 17395 bound_to 11000

$$$$
