AV-unprocessed.smi:1795|AV-procd|sdf|7247|dock2
  -GOLD-   22720 8493D 1   1.00000     0.00000
 Structure written by MMmdl.
 48 49  0  0  0  0  0  0  0  0  2 V2000
  144.3268  132.7702  149.9565 C   0  0  0  0  0  0  0  0  0  0  0  0
  144.5398  132.2116  151.3681 C   0  0  2  0  0  0  0  0  0  0  0  0
  145.1322  133.2645  152.3246 C   0  0  0  0  0  0  0  0  0  0  0  0
  145.4211  132.6884  153.6680 N   0  3  2  0  0  0  0  0  0  0  0  0
  145.9986  133.6617  154.6551 C   0  0  2  0  0  0  0  0  0  0  0  0
  147.5337  133.7765  154.4887 C   0  0  0  0  0  0  0  0  0  0  0  0
  145.6455  133.3164  156.1311 C   0  0  0  0  0  0  0  0  0  0  0  0
  146.1538  134.2930  157.0910 N   0  0  0  0  0  0  0  0  0  0  0  0
  147.4231  134.3606  157.5211 C   0  0  0  0  0  0  0  0  0  0  0  0
  148.3002  133.5790  157.1512 O   0  0  0  0  0  0  0  0  0  0  0  0
  147.7332  135.4661  158.5403 C   0  0  0  0  0  0  0  0  0  0  0  0
  147.5781  135.0264  159.9370 N   0  0  0  0  0  0  0  0  0  0  0  0
  147.3425  133.6544  160.1575 C   0  0  0  0  0  0  0  0  0  0  0  0
  147.1899  133.1497  161.3921 C   0  0  0  0  0  0  0  0  0  0  0  0
  147.2723  134.0544  162.5144 C   0  0  0  0  0  0  0  0  0  0  0  0
  147.5000  135.3679  162.3148 C   0  0  0  0  0  0  0  0  0  0  0  0
  147.6699  135.9235  160.9672 C   0  0  0  0  0  0  0  0  0  0  0  0
  147.8825  137.1214  160.7753 O   0  0  0  0  0  0  0  0  0  0  0  0
  146.2489  131.4597  153.5124 C   0  0  0  0  0  0  0  0  0  0  0  0
  145.6088  130.4646  152.5271 C   0  0  2  0  0  0  0  0  0  0  0  0
  146.4865  129.2278  152.3038 C   0  0  0  0  0  0  0  0  0  0  0  0
  145.4278  131.1078  151.2744 O   0  0  0  0  0  0  0  0  0  0  0  0
  143.6406  133.6175  149.9680 H   0  0  0  0  0  0  0  0  0  0  0  0
  143.9054  132.0114  149.2966 H   0  0  0  0  0  0  0  0  0  0  0  0
  145.2669  133.1066  149.5185 H   0  0  0  0  0  0  0  0  0  0  0  0
  143.5770  131.8682  151.7510 H   0  0  0  0  0  0  0  0  0  0  0  0
  146.0478  133.6863  151.9064 H   0  0  0  0  0  0  0  0  0  0  0  0
  144.4022  134.0690  152.3985 H   0  0  0  0  0  0  0  0  0  0  0  0
  145.5625  134.6376  154.4348 H   0  0  0  0  0  0  0  0  0  0  0  0
  147.9780  134.4415  155.2288 H   0  0  0  0  0  0  0  0  0  0  0  0
  147.8218  134.1930  153.5253 H   0  0  0  0  0  0  0  0  0  0  0  0
  148.0153  132.8038  154.5936 H   0  0  0  0  0  0  0  0  0  0  0  0
  144.5681  133.2602  156.2863 H   0  0  0  0  0  0  0  0  0  0  0  0
  146.0522  132.3394  156.3950 H   0  0  0  0  0  0  0  0  0  0  0  0
  145.4953  134.9712  157.4467 H   0  0  0  0  0  0  0  0  0  0  0  0
  148.7460  135.8399  158.3780 H   0  0  0  0  0  0  0  0  0  0  0  0
  147.0793  136.3136  158.3297 H   0  0  0  0  0  0  0  0  0  0  0  0
  147.3020  133.0443  159.2668 H   0  0  0  0  0  0  0  0  0  0  0  0
  147.0144  132.0945  161.5423 H   0  0  0  0  0  0  0  0  0  0  0  0
  147.1523  133.6759  163.5189 H   0  0  0  0  0  0  0  0  0  0  0  0
  147.5601  136.0297  163.1667 H   0  0  0  0  0  0  0  0  0  0  0  0
  147.2470  131.7369  153.1688 H   0  0  0  0  0  0  0  0  0  0  0  0
  146.3693  130.9466  154.4641 H   0  0  0  0  0  0  0  0  0  0  0  0
  144.6409  130.1363  152.9104 H   0  0  0  0  0  0  0  0  0  0  0  0
  146.6508  128.6892  153.2372 H   0  0  0  0  0  0  0  0  0  0  0  0
  147.4614  129.5023  151.8995 H   0  0  0  0  0  0  0  0  0  0  0  0
  146.0174  128.5384  151.6014 H   0  0  0  0  0  0  0  0  0  0  0  0
  144.5305  132.3939  154.0427 H   0  0  0  0  0  0  0  0  0  0  0  0
  1  2  1  0  0  0  0
  1 23  1  0  0  0  0
  1 24  1  0  0  0  0
  1 25  1  0  0  0  0
  2 22  1  0  0  0  0
  2  3  1  0  0  0  0
  2 26  1  0  0  0  0
  3  4  1  0  0  0  0
  3 27  1  0  0  0  0
  3 28  1  0  0  0  0
  4  5  1  0  0  0  0
  4 19  1  0  0  0  0
  4 48  1  0  0  0  0
  5  6  1  0  0  0  0
  5  7  1  0  0  0  0
  5 29  1  0  0  0  0
  6 30  1  0  0  0  0
  6 31  1  0  0  0  0
  6 32  1  0  0  0  0
  7  8  1  0  0  0  0
  7 33  1  0  0  0  0
  7 34  1  0  0  0  0
  8  9  1  0  0  0  0
  8 35  1  0  0  0  0
  9 10  2  0  0  0  0
  9 11  1  0  0  0  0
 11 12  1  0  0  0  0
 11 36  1  0  0  0  0
 11 37  1  0  0  0  0
 12 17  1  0  0  0  0
 12 13  1  0  0  0  0
 13 14  2  0  0  0  0
 13 38  1  0  0  0  0
 14 15  1  0  0  0  0
 14 39  1  0  0  0  0
 15 16  2  0  0  0  0
 15 40  1  0  0  0  0
 16 17  1  0  0  0  0
 16 41  1  0  0  0  0
 17 18  2  0  0  0  0
 19 20  1  0  0  0  0
 19 42  1  0  0  0  0
 19 43  1  0  0  0  0
 20 21  1  0  0  0  0
 20 22  1  0  0  0  0
 20 44  1  0  0  0  0
 21 45  1  0  0  0  0
 21 46  1  0  0  0  0
 21 47  1  0  0  0  0
M  CHG  1   4   1
M  END
> <s_m_source_file>
AV-unprocessed.smi

> <i_m_source_file_index>
1795

> <i_lp_mmshare_version>
43012

> <i_f3d_flags>
0

> <s_epik_input>
W0NIM11bQ0BASF0xW0NIMl1OKFtDSDJdW0NASF0oTzEpW0NIM10pW0NASF0oW0NIM10pW0NIMl1bTkhdQyg9TylbQ0gyXW4yW2NIXVtjSF1bY0hdW2NIXWMyPU8=

> <s_epik_cmdline>
J2VwaWtfcHl0aG9uJywgJy1waCcsICc3LjAnLCAnLXRuJywgJzgnLCAnLW1hJywgJzIwMCcsICctbWV0YWxfYmluZGluZycsICctaW1hZScsICc8aW5maWxlLm1hZT4nLCAnLW9tYWUnLCAnPG91dGZpbGUubWFlPic=

> <r_lp_tautomer_probability>
1

> <r_epik_Ionization_Penalty>
0.656654

> <r_epik_Ionization_Penalty_Charging>
0.656654

> <r_epik_Ionization_Penalty_Neutral>
8.90321e-08

> <r_epik_State_Penalty>
0.675641

> <r_epik_Charging_Adjusted_Penalty>
1.33229

> <i_epik_Tot_Q>
1

> <i_epik_Tot_abs_Q>
1

> <r_epik_Metal_State_Penalty>
0.675691

> <b_epik_Metal_Only>
0

> <s_lp_Force_Field>
OPLS_2005

> <r_lp_Energy>
28.0815

> <b_lp_Chiralities_Consistent>
1

> <s_lp_Variant>
AV-unprocessed.smi:1795-11

> <Gold.Version>
5.8.1

> <Gold.Id.Protein>
6NUR|6NUR_protein|mol2

> <Gold.PLP.Fitness>
43.2366

> <Gold.PLP.PLP>
-34.6334

> <Gold.PLP.part.hbond>
-2.9765

> <Gold.PLP.part.metal>
0.0000

> <Gold.PLP.part.buried>
-5.7106

> <Gold.PLP.part.nonpolar>
-26.3503

> <Gold.PLP.part.repulsive>
0.1224

> <Gold.PLP.ligand.clash>
0.7042

> <Gold.PLP.ligand.torsion>
1.0570

> <Gold.PLP.Chemscore.Hbond>
3.7686

> <Gold.PLP.Chemscore.CHOScore>
0.0000

> <Gold.PLP.Chemscore.Metal>
0.0000

> <Gold.Chemscore.Hbonds>
donor molecule, donor type, donor heavy atom, donor atom, acceptor molecule, acceptor atom, score
      L1  H     4    48       P1 10957  1.72
      P1  H  6931  6943       L1    18  0.88
      P1  H  6934  6947       L1    18  0.83

> <Gold.PLP.Chemscore.Internal.Correction>
0.1157

> <Gold.Rescore>
     Score         DG    S(hbond)    S(metal)    S(lipo)     H(rot)  DE(clash)    DE(int)     intcor
     17.19     -18.14       2.56        0.00      76.28       1.89       0.00       0.95       ----

> <Gold.Chemscore.Fitness>
17.1889

> <Gold.Chemscore.DG>
-18.1354

> <Gold.Chemscore.ZeroCoef>
-5.4800

> <Gold.Chemscore.Hbond>
2.5632

> <Gold.Chemscore.Metal>
0.0000

> <Gold.Chemscore.Lipo>
76.2818

> <Gold.Chemscore.Internal_Hbond>
0.0000

> <Gold.Chemscore.DEClash>
0.0000

> <Gold.Chemscore.DEInternal>
0.9465

> <Gold.Chemscore.Rot>
1.8870

> <Gold.Chemscore.Internal.Correction>
   9.000000E+99

> <Gold.Chemscore.Hbonds>
donor molecule, donor type, donor heavy atom, donor atom, acceptor molecule, acceptor atom, score
      L1  H     4    48       P1 10957  0.38
      P1  H  6931  6943       L1    18  0.85
      P1  H  6934  6947       L1    18  0.76

> <Gold.Chemscore.Hbond.Weighted>
-8.5612

> <Gold.Chemscore.Metal.Weighted>
-0.0000

> <Gold.Chemscore.Lipo.Weighted>
-8.9250

> <Gold.Chemscore.Internal_Hbond.Weighted>
0.0000

> <Gold.Chemscore.DEClash.Weighted>
0.0000

> <Gold.Chemscore.DEInternal.Weighted>
0.9465

> <Gold.Chemscore.Rot.Weighted>
4.8308

> <Gold.Chemscore.Internal.Correction.Weighted>
   9.000000E+99

> <Gold.Protein.RotatedTorsions>
[ 6907 6896 6895 6894 ] final  131.62 input  -60.11 | X-H torsion
[ 7974 7965 7964 7962 ] final  112.71 input  175.53 | X-H torsion
[ 8008 7997 7996 7995 ] final  102.18 input   59.86 | X-H torsion
[ 10167 10162 10161 10158 ] final  154.87 input  -65.29 | X-H torsion
[ 10718 10713 10712 10709 ] final   72.43 input   66.30 | X-H torsion
[ 10763 10752 10751 10750 ] final  107.39 input  -60.55 | X-H torsion
[ 11005 11000 10999 10996 ] final   17.40 input  -57.11 | X-H torsion

> <Gold.Protein.ActiveResidues>
 VAL166  LYS551  ARG553  GLY616  TRP617  ASP618  TYR619  PRO620  LYS621  CYS622 
 ASP623  PHE694  ASN695  SER759  ASP760  ASP761  ALA762  ILE779  LEU786  VAL792 
 PHE793  MET794  SER795  GLU796  ALA797  LYS798  CYS799  TRP800  GLU811  SER814 

> <Gold.Protein.RotatedAtoms>
  152.3408  133.6064  159.5874 H   0  0  0  0  0  0  0  0  0  0  0  0  # atno 6907 bound_to 6896
  150.7477  133.9725  159.3559 H   0  0  0  0  0  0  0  0  0  0  0  0  # atno 6908 bound_to 6896
  151.7589  135.0815  160.0393 H   0  0  0  0  0  0  0  0  0  0  0  0  # atno 6909 bound_to 6896
  145.2262  139.2840  143.4192 H   0  0  0  0  0  0  0  0  0  0  0  0  # atno 7974 bound_to 7965
  156.1369  140.3185  155.8434 H   0  0  0  0  0  0  0  0  0  0  0  0  # atno 8008 bound_to 7997
  155.4228  140.0513  157.3041 H   0  0  0  0  0  0  0  0  0  0  0  0  # atno 8009 bound_to 7997
  154.4944  140.2105  155.9491 H   0  0  0  0  0  0  0  0  0  0  0  0  # atno 8010 bound_to 7997
  139.4822  144.5149  151.7967 H   0  0  0  0  0  0  0  0  0  0  0  0  # atno 10167 bound_to 10162
  157.6500  130.9578  150.0927 H   0  0  0  0  0  0  0  0  0  0  0  0  # atno 10718 bound_to 10713
  153.4060  135.3846  155.2019 H   0  0  0  0  0  0  0  0  0  0  0  0  # atno 10763 bound_to 10752
  154.8733  135.3783  154.4559 H   0  0  0  0  0  0  0  0  0  0  0  0  # atno 10764 bound_to 10752
  153.5062  135.7088  153.5867 H   0  0  0  0  0  0  0  0  0  0  0  0  # atno 10765 bound_to 10752
  140.4363  134.1367  155.7685 H   0  0  0  0  0  0  0  0  0  0  0  0  # atno 11005 bound_to 11000
  146.3364  140.2582  142.8601 LP  0  0  0  0  0  0  0  0  0  0  0  0  # atno 17320 bound_to 7965
  144.9719  140.8377  143.5450 LP  0  0  0  0  0  0  0  0  0  0  0  0  # atno 17321 bound_to 7965
  140.4656  144.1660  150.5911 LP  0  0  0  0  0  0  0  0  0  0  0  0  # atno 17342 bound_to 10162
  140.4437  143.2515  151.9439 LP  0  0  0  0  0  0  0  0  0  0  0  0  # atno 17343 bound_to 10162
  156.1872  130.3653  149.8957 LP  0  0  0  0  0  0  0  0  0  0  0  0  # atno 17370 bound_to 10713
  156.6895  130.8890  151.3586 LP  0  0  0  0  0  0  0  0  0  0  0  0  # atno 17371 bound_to 10713
  141.1724  133.8582  157.1528 LP  0  0  0  0  0  0  0  0  0  0  0  0  # atno 17394 bound_to 11000
  140.0100  134.9992  157.0374 LP  0  0  0  0  0  0  0  0  0  0  0  0  # atno 17395 bound_to 11000

$$$$
