AV-unprocessed.smi:2276|AV-procd|sdf|9173|dock9
  -GOLD-   2272012393D 1   1.00000     0.00000
 Structure written by MMmdl.
 53 54  0  0  0  0  0  0  0  0  2 V2000
  151.8144  145.8789  160.0603 C   0  0  0  0  0  0  0  0  0  0  0  0
  151.9762  144.4636  159.5467 C   0  0  0  0  0  0  0  0  0  0  0  0
  151.3403  144.0612  158.3571 C   0  0  0  0  0  0  0  0  0  0  0  0
  151.5237  142.7352  157.9199 C   0  0  0  0  0  0  0  0  0  0  0  0
  150.8640  142.2333  156.6530 C   0  0  0  0  0  0  0  0  0  0  0  0
  152.2737  141.8365  158.5917 N   0  0  0  0  0  0  0  0  0  0  0  0
  152.8930  142.2124  159.7385 C   0  0  0  0  0  0  0  0  0  0  0  0
  153.6665  141.3283  160.5364 N   0  0  0  0  0  0  0  0  0  0  0  0
  154.2714  140.1949  160.1422 C   0  0  0  0  0  0  0  0  0  0  0  0
  154.2205  139.7257  159.0051 O   0  0  0  0  0  0  0  0  0  0  0  0
  154.9173  139.6102  161.1623 N   0  0  0  0  0  0  0  0  0  0  0  0
  155.4923  138.2644  161.1596 C   0  0  0  0  0  0  0  0  0  0  0  0
  154.4504  137.1295  161.3396 C   0  0  1  0  0  0  0  0  0  0  0  0
  153.6317  136.9477  160.0519 C   0  0  0  0  0  0  0  0  0  0  0  0
  155.0963  135.7929  161.7900 C   0  0  0  0  0  0  0  0  0  0  0  0
  155.9158  135.8909  163.0049 N   0  0  0  0  0  0  0  0  0  0  0  0
  155.1714  136.5100  164.1065 C   0  0  0  0  0  0  0  0  0  0  0  0
  154.0559  135.5884  164.6567 C   0  0  0  0  0  0  0  0  0  0  0  0
  154.6111  134.2838  165.0898 N   0  3  0  0  0  0  0  0  0  0  0  0
  153.5780  133.3736  165.6290 C   0  0  0  0  0  0  0  0  0  0  0  0
  155.4005  133.6592  164.0046 C   0  0  0  0  0  0  0  0  0  0  0  0
  156.4860  134.6305  163.4999 C   0  0  0  0  0  0  0  0  0  0  0  0
  152.7617  143.5244  160.2460 C   0  0  0  0  0  0  0  0  0  0  0  0
  152.3501  146.5764  159.4161 H   0  0  0  0  0  0  0  0  0  0  0  0
  152.2040  145.9800  161.0737 H   0  0  0  0  0  0  0  0  0  0  0  0
  150.7613  146.1614  160.0718 H   0  0  0  0  0  0  0  0  0  0  0  0
  150.7300  144.7529  157.7949 H   0  0  0  0  0  0  0  0  0  0  0  0
  150.4783  143.0600  156.0558 H   0  0  0  0  0  0  0  0  0  0  0  0
  150.0338  141.5705  156.8977 H   0  0  0  0  0  0  0  0  0  0  0  0
  151.5780  141.6793  156.0427 H   0  0  0  0  0  0  0  0  0  0  0  0
  153.6137  141.4878  161.5316 H   0  0  0  0  0  0  0  0  0  0  0  0
  154.9270  140.0950  162.0478 H   0  0  0  0  0  0  0  0  0  0  0  0
  156.0520  138.1200  160.2344 H   0  0  0  0  0  0  0  0  0  0  0  0
  156.2211  138.2237  161.9697 H   0  0  0  0  0  0  0  0  0  0  0  0
  153.7594  137.4777  162.1032 H   0  0  0  0  0  0  0  0  0  0  0  0
  154.2597  136.6113  159.2264 H   0  0  0  0  0  0  0  0  0  0  0  0
  153.1604  137.8837  159.7510 H   0  0  0  0  0  0  0  0  0  0  0  0
  152.8385  136.2123  160.1877 H   0  0  0  0  0  0  0  0  0  0  0  0
  154.3023  135.0644  161.9598 H   0  0  0  0  0  0  0  0  0  0  0  0
  155.7031  135.3808  160.9882 H   0  0  0  0  0  0  0  0  0  0  0  0
  155.8716  136.7514  164.9075 H   0  0  0  0  0  0  0  0  0  0  0  0
  154.7483  137.4594  163.7764 H   0  0  0  0  0  0  0  0  0  0  0  0
  153.5801  136.0719  165.5104 H   0  0  0  0  0  0  0  0  0  0  0  0
  153.2695  135.4337  163.9173 H   0  0  0  0  0  0  0  0  0  0  0  0
  152.8515  133.1056  164.8604 H   0  0  0  0  0  0  0  0  0  0  0  0
  153.0455  133.8431  166.4565 H   0  0  0  0  0  0  0  0  0  0  0  0
  154.0325  132.4554  166.0025 H   0  0  0  0  0  0  0  0  0  0  0  0
  155.8729  132.7513  164.3814 H   0  0  0  0  0  0  0  0  0  0  0  0
  154.7423  133.3510  163.1942 H   0  0  0  0  0  0  0  0  0  0  0  0
  157.1026  134.1500  162.7429 H   0  0  0  0  0  0  0  0  0  0  0  0
  157.1684  134.8621  164.3191 H   0  0  0  0  0  0  0  0  0  0  0  0
  153.2559  143.8076  161.1644 H   0  0  0  0  0  0  0  0  0  0  0  0
  155.2567  134.4788  165.8415 H   0  0  0  0  0  0  0  0  0  0  0  0
  1  2  1  0  0  0  0
  1 24  1  0  0  0  0
  1 25  1  0  0  0  0
  1 26  1  0  0  0  0
  2 23  1  0  0  0  0
  2  3  2  0  0  0  0
  3  4  1  0  0  0  0
  3 27  1  0  0  0  0
  4  5  1  0  0  0  0
  4  6  2  0  0  0  0
  5 28  1  0  0  0  0
  5 29  1  0  0  0  0
  5 30  1  0  0  0  0
  6  7  1  0  0  0  0
  7  8  1  0  0  0  0
  7 23  2  0  0  0  0
  8  9  1  0  0  0  0
  8 31  1  0  0  0  0
  9 10  2  0  0  0  0
  9 11  1  0  0  0  0
 11 12  1  0  0  0  0
 11 32  1  0  0  0  0
 12 13  1  0  0  0  0
 12 33  1  0  0  0  0
 12 34  1  0  0  0  0
 13 14  1  0  0  0  0
 13 15  1  0  0  0  0
 13 35  1  0  0  0  0
 14 36  1  0  0  0  0
 14 37  1  0  0  0  0
 14 38  1  0  0  0  0
 15 16  1  0  0  0  0
 15 39  1  0  0  0  0
 15 40  1  0  0  0  0
 16 22  1  0  0  0  0
 16 17  1  0  0  0  0
 17 18  1  0  0  0  0
 17 41  1  0  0  0  0
 17 42  1  0  0  0  0
 18 19  1  0  0  0  0
 18 43  1  0  0  0  0
 18 44  1  0  0  0  0
 19 20  1  0  0  0  0
 19 21  1  0  0  0  0
 19 53  1  0  0  0  0
 20 45  1  0  0  0  0
 20 46  1  0  0  0  0
 20 47  1  0  0  0  0
 21 22  1  0  0  0  0
 21 48  1  0  0  0  0
 21 49  1  0  0  0  0
 22 50  1  0  0  0  0
 22 51  1  0  0  0  0
 23 52  1  0  0  0  0
M  CHG  1  19   1
M  END
> <s_m_source_file>
AV-unprocessed.smi

> <i_m_source_file_index>
2276

> <i_lp_mmshare_version>
43012

> <i_f3d_flags>
0

> <s_epik_input>
W0NIM11jMVtjSF1jKFtDSDNdKW5jKFtjSF0xKVtOSF1DKD1PKVtOSF1bQ0gyXVtDQEhdKFtDSDNdKVtDSDJdTjJbQ0gyXVtDSDJdTihbQ0gzXSlbQ0gyXVtDSDJdMg==

> <s_epik_cmdline>
J2VwaWtfcHl0aG9uJywgJy1waCcsICc3LjAnLCAnLXRuJywgJzgnLCAnLW1hJywgJzIwMCcsICctbWV0YWxfYmluZGluZycsICctaW1hZScsICc8aW5maWxlLm1hZT4nLCAnLW9tYWUnLCAnPG91dGZpbGUubWFlPic=

> <r_epik_Ionization_Penalty>
0.0247364

> <r_epik_Ionization_Penalty_Charging>
0.0230248

> <r_epik_Ionization_Penalty_Neutral>
0.00171164

> <r_epik_State_Penalty>
0.239056

> <r_epik_Charging_Adjusted_Penalty>
0.262081

> <i_epik_Tot_Q>
1

> <i_epik_Tot_abs_Q>
1

> <r_epik_Metal_State_Penalty>
0.239048

> <b_epik_Metal_Only>
0

> <s_lp_Force_Field>
OPLS_2005

> <r_lp_Energy>
20.5392

> <b_lp_Chiralities_Consistent>
1

> <s_lp_Variant>
AV-unprocessed.smi:2276-2

> <Gold.Version>
5.8.1

> <Gold.Id.Protein>
6NUR|6NUR_protein|mol2

> <Gold.PLP.Fitness>
47.5520

> <Gold.PLP.PLP>
-45.2422

> <Gold.PLP.part.hbond>
-1.8174

> <Gold.PLP.part.metal>
0.0000

> <Gold.PLP.part.buried>
-4.7417

> <Gold.PLP.part.nonpolar>
-38.3087

> <Gold.PLP.part.repulsive>
0.0764

> <Gold.PLP.ligand.clash>
0.0000

> <Gold.PLP.ligand.torsion>
0.3786

> <Gold.PLP.Chemscore.Hbond>
1.0000

> <Gold.PLP.Chemscore.CHOScore>
0.0000

> <Gold.PLP.Chemscore.Metal>
0.0000

> <Gold.Chemscore.Hbonds>
donor molecule, donor type, donor heavy atom, donor atom, acceptor molecule, acceptor atom, score
      P1  H  7997  8009       L1    10  1.00

> <Gold.PLP.Chemscore.Internal.Correction>
0.0669

> <Gold.Rescore>
     Score         DG    S(hbond)    S(metal)    S(lipo)     H(rot)  DE(clash)    DE(int)     intcor
     17.19     -18.92       0.98        0.00     122.66       1.63       0.06       1.67       ----

> <Gold.Chemscore.Fitness>
17.1944

> <Gold.Chemscore.DG>
-18.9209

> <Gold.Chemscore.ZeroCoef>
-5.4800

> <Gold.Chemscore.Hbond>
0.9755

> <Gold.Chemscore.Metal>
0.0000

> <Gold.Chemscore.Lipo>
122.6583

> <Gold.Chemscore.Internal_Hbond>
0.0000

> <Gold.Chemscore.DEClash>
0.0560

> <Gold.Chemscore.DEInternal>
1.6706

> <Gold.Chemscore.Rot>
1.6282

> <Gold.Chemscore.Internal.Correction>
   9.000000E+99

> <Gold.Chemscore.Hbonds>
donor molecule, donor type, donor heavy atom, donor atom, acceptor molecule, acceptor atom, score
      P1  H  7997  8009       L1    10  0.98

> <Gold.Chemscore.Hbond.Weighted>
-3.2581

> <Gold.Chemscore.Metal.Weighted>
-0.0000

> <Gold.Chemscore.Lipo.Weighted>
-14.3510

> <Gold.Chemscore.Internal_Hbond.Weighted>
0.0000

> <Gold.Chemscore.DEClash.Weighted>
0.0560

> <Gold.Chemscore.DEInternal.Weighted>
1.6706

> <Gold.Chemscore.Rot.Weighted>
4.1682

> <Gold.Chemscore.Internal.Correction.Weighted>
   9.000000E+99

> <Gold.Protein.RotatedTorsions>
[ 6907 6896 6895 6894 ] final   84.31 input  -60.11 | X-H torsion
[ 7974 7965 7964 7962 ] final  104.89 input  175.53 | X-H torsion
[ 8008 7997 7996 7995 ] final  118.37 input   59.86 | X-H torsion
[ 10167 10162 10161 10158 ] final -107.56 input  -65.29 | X-H torsion
[ 10718 10713 10712 10709 ] final  114.68 input   66.30 | X-H torsion
[ 10763 10752 10751 10750 ] final  -87.50 input  -60.55 | X-H torsion
[ 11005 11000 10999 10996 ] final   91.88 input  -57.11 | X-H torsion

> <Gold.Protein.ActiveResidues>
 VAL166  LYS551  ARG553  GLY616  TRP617  ASP618  TYR619  PRO620  LYS621  CYS622 
 ASP623  PHE694  ASN695  SER759  ASP760  ASP761  ALA762  ILE779  LEU786  VAL792 
 PHE793  MET794  SER795  GLU796  ALA797  LYS798  CYS799  TRP800  GLU811  SER814 

> <Gold.Protein.RotatedAtoms>
  152.5349  134.2761  159.8989 H   0  0  0  0  0  0  0  0  0  0  0  0  # atno 6907 bound_to 6896
  151.2717  133.4245  159.2629 H   0  0  0  0  0  0  0  0  0  0  0  0  # atno 6908 bound_to 6896
  151.0362  134.9590  159.8194 H   0  0  0  0  0  0  0  0  0  0  0  0  # atno 6909 bound_to 6896
  145.3268  139.2497  143.3682 H   0  0  0  0  0  0  0  0  0  0  0  0  # atno 7974 bound_to 7965
  156.2542  140.2876  156.0823 H   0  0  0  0  0  0  0  0  0  0  0  0  # atno 8008 bound_to 7997
  155.1553  140.0398  157.2847 H   0  0  0  0  0  0  0  0  0  0  0  0  # atno 8009 bound_to 7997
  154.6432  140.2527  155.7305 H   0  0  0  0  0  0  0  0  0  0  0  0  # atno 8010 bound_to 7997
  140.1756  143.4007  152.1321 H   0  0  0  0  0  0  0  0  0  0  0  0  # atno 10167 bound_to 10162
  157.6267  131.1002  150.7220 H   0  0  0  0  0  0  0  0  0  0  0  0  # atno 10718 bound_to 10713
  154.6343  135.5411  153.7716 H   0  0  0  0  0  0  0  0  0  0  0  0  # atno 10763 bound_to 10752
  153.0300  135.6443  154.1255 H   0  0  0  0  0  0  0  0  0  0  0  0  # atno 10764 bound_to 10752
  154.1183  135.2922  155.3194 H   0  0  0  0  0  0  0  0  0  0  0  0  # atno 10765 bound_to 10752
  139.8832  134.8700  156.3491 H   0  0  0  0  0  0  0  0  0  0  0  0  # atno 11005 bound_to 11000
  146.3061  140.3838  142.8687 LP  0  0  0  0  0  0  0  0  0  0  0  0  # atno 17320 bound_to 7965
  144.8895  140.7506  143.5935 LP  0  0  0  0  0  0  0  0  0  0  0  0  # atno 17321 bound_to 7965
  139.5318  144.7167  151.5028 LP  0  0  0  0  0  0  0  0  0  0  0  0  # atno 17342 bound_to 10162
  140.6553  143.8612  150.6829 LP  0  0  0  0  0  0  0  0  0  0  0  0  # atno 17343 bound_to 10162
  156.7567  130.4785  149.5445 LP  0  0  0  0  0  0  0  0  0  0  0  0  # atno 17370 bound_to 10713
  156.1444  130.6267  151.0511 LP  0  0  0  0  0  0  0  0  0  0  0  0  # atno 17371 bound_to 10713
  140.9606  133.7391  156.0396 LP  0  0  0  0  0  0  0  0  0  0  0  0  # atno 17394 bound_to 11000
  140.7994  134.3526  157.5443 LP  0  0  0  0  0  0  0  0  0  0  0  0  # atno 17395 bound_to 11000

$$$$
