AV-unprocessed.smi:1601|AV-procd|sdf|6436|dock8
  -GOLD-   22720 7 83D 1   1.00000     0.00000
 Structure written by MMmdl.
 42 43  0  0  0  0  0  0  0  0  2 V2000
  149.0179  132.9084  153.8723 C   0  0  0  0  0  0  0  0  0  0  0  0
  147.6890  133.7015  153.9503 C   0  0  1  0  0  0  0  0  0  0  0  0
  147.8457  134.9157  154.9047 C   0  0  0  0  0  0  0  0  0  0  0  0
  148.6501  135.9825  154.3210 N   0  0  0  0  0  0  0  0  0  0  0  0
  149.1246  137.0388  154.9980 C   0  0  0  0  0  0  0  0  0  0  0  0
  148.9445  137.1962  156.2062 O   0  0  0  0  0  0  0  0  0  0  0  0
  149.9153  138.0684  154.1752 C   0  0  2  0  0  0  0  0  0  0  0  0
  151.3453  138.2928  154.7023 C   0  0  0  0  0  0  0  0  0  0  0  0
  149.1795  139.3244  154.1007 N   0  0  0  0  0  0  0  0  0  0  0  0
  147.9085  139.5566  153.6111 C   0  0  0  0  0  0  0  0  0  0  0  0
  147.6593  140.8930  153.7370 C   0  0  0  0  0  0  0  0  0  0  0  0
  148.8526  141.4056  154.3173 C   0  0  0  0  0  0  0  0  0  0  0  0
  149.7607  140.4669  154.5292 N   0  0  0  0  0  0  0  0  0  0  0  0
  147.2075  134.1099  152.5873 N   0  3  0  0  0  0  0  0  0  0  0  0
  147.0469  132.9667  151.6444 C   0  0  0  0  0  0  0  0  0  0  0  0
  146.5686  133.4369  150.2606 C   0  0  0  0  0  0  0  0  0  0  0  0
  145.3478  134.1464  150.3924 O   0  0  0  0  0  0  0  0  0  0  0  0
  145.5167  135.3126  151.1814 C   0  0  0  0  0  0  0  0  0  0  0  0
  145.9577  134.9224  152.6024 C   0  0  0  0  0  0  0  0  0  0  0  0
  149.4150  132.6663  154.8579 H   0  0  0  0  0  0  0  0  0  0  0  0
  149.7853  133.4741  153.3433 H   0  0  0  0  0  0  0  0  0  0  0  0
  148.8992  131.9478  153.3733 H   0  0  0  0  0  0  0  0  0  0  0  0
  146.9334  133.0412  154.3796 H   0  0  0  0  0  0  0  0  0  0  0  0
  146.8609  135.2990  155.1788 H   0  0  0  0  0  0  0  0  0  0  0  0
  148.3554  134.6366  155.8259 H   0  0  0  0  0  0  0  0  0  0  0  0
  148.8415  135.9284  153.3305 H   0  0  0  0  0  0  0  0  0  0  0  0
  150.0034  137.6664  153.1637 H   0  0  0  0  0  0  0  0  0  0  0  0
  151.9071  137.3585  154.7315 H   0  0  0  0  0  0  0  0  0  0  0  0
  151.3465  138.7136  155.7087 H   0  0  0  0  0  0  0  0  0  0  0  0
  151.8923  138.9808  154.0570 H   0  0  0  0  0  0  0  0  0  0  0  0
  147.2947  138.7595  153.2177 H   0  0  0  0  0  0  0  0  0  0  0  0
  146.7619  141.4238  153.4563 H   0  0  0  0  0  0  0  0  0  0  0  0
  149.0853  142.4254  154.5864 H   0  0  0  0  0  0  0  0  0  0  0  0
  147.9891  132.4425  151.4965 H   0  0  0  0  0  0  0  0  0  0  0  0
  146.3376  132.2488  152.0591 H   0  0  0  0  0  0  0  0  0  0  0  0
  147.3213  134.0628  149.7780 H   0  0  0  0  0  0  0  0  0  0  0  0
  146.4064  132.5783  149.6090 H   0  0  0  0  0  0  0  0  0  0  0  0
  146.2429  135.9816  150.7169 H   0  0  0  0  0  0  0  0  0  0  0  0
  144.5695  135.8514  151.2187 H   0  0  0  0  0  0  0  0  0  0  0  0
  145.1636  134.3635  153.1001 H   0  0  0  0  0  0  0  0  0  0  0  0
  146.0984  135.8503  153.1532 H   0  0  0  0  0  0  0  0  0  0  0  0
  147.9259  134.7031  152.1968 H   0  0  0  0  0  0  0  0  0  0  0  0
  1  2  1  0  0  0  0
  1 20  1  0  0  0  0
  1 21  1  0  0  0  0
  1 22  1  0  0  0  0
  2  3  1  0  0  0  0
  2 14  1  0  0  0  0
  2 23  1  0  0  0  0
  3  4  1  0  0  0  0
  3 24  1  0  0  0  0
  3 25  1  0  0  0  0
  4  5  1  0  0  0  0
  4 26  1  0  0  0  0
  5  6  2  0  0  0  0
  5  7  1  0  0  0  0
  7  8  1  0  0  0  0
  7  9  1  0  0  0  0
  7 27  1  0  0  0  0
  8 28  1  0  0  0  0
  8 29  1  0  0  0  0
  8 30  1  0  0  0  0
  9 13  1  0  0  0  0
  9 10  1  0  0  0  0
 10 11  2  0  0  0  0
 10 31  1  0  0  0  0
 11 12  1  0  0  0  0
 11 32  1  0  0  0  0
 12 13  2  0  0  0  0
 12 33  1  0  0  0  0
 14 19  1  0  0  0  0
 14 15  1  0  0  0  0
 14 42  1  0  0  0  0
 15 16  1  0  0  0  0
 15 34  1  0  0  0  0
 15 35  1  0  0  0  0
 16 17  1  0  0  0  0
 16 36  1  0  0  0  0
 16 37  1  0  0  0  0
 17 18  1  0  0  0  0
 18 19  1  0  0  0  0
 18 38  1  0  0  0  0
 18 39  1  0  0  0  0
 19 40  1  0  0  0  0
 19 41  1  0  0  0  0
M  CHG  1  14   1
M  END
> <s_m_source_file>
AV-unprocessed.smi

> <i_m_source_file_index>
1601

> <i_lp_mmshare_version>
43012

> <i_f3d_flags>
0

> <s_epik_input>
W0NIMl0xW0NIMl1PW0NIMl1bQ0gyXU4xW0NASF0oW0NIM10pW0NIMl1bTkhdQyg9TylbQ0BIXShbQ0gzXSluMltjSF1bY0hdW2NIXW4y

> <s_epik_cmdline>
J2VwaWtfcHl0aG9uJywgJy1waCcsICc3LjAnLCAnLXRuJywgJzgnLCAnLW1hJywgJzIwMCcsICctbWV0YWxfYmluZGluZycsICctaW1hZScsICc8aW5maWxlLm1hZT4nLCAnLW9tYWUnLCAnPG91dGZpbGUubWFlPic=

> <r_lp_tautomer_probability>
1

> <r_epik_Ionization_Penalty>
0.732551

> <r_epik_Ionization_Penalty_Charging>
0.732531

> <r_epik_Ionization_Penalty_Neutral>
2.04647e-05

> <r_epik_State_Penalty>
0.757939

> <r_epik_Charging_Adjusted_Penalty>
1.49047

> <i_epik_Tot_Q>
1

> <i_epik_Tot_abs_Q>
1

> <r_epik_Metal_State_Penalty>
0.757952

> <b_epik_Metal_Only>
0

> <s_lp_Force_Field>
OPLS_2005

> <r_lp_Energy>
25.0975

> <b_lp_Chiralities_Consistent>
1

> <s_lp_Variant>
AV-unprocessed.smi:1601-6

> <Gold.Version>
5.8.1

> <Gold.Id.Protein>
6NUR|6NUR_protein|mol2

> <Gold.PLP.Fitness>
48.6158

> <Gold.PLP.PLP>
-33.8992

> <Gold.PLP.part.hbond>
-3.0000

> <Gold.PLP.part.metal>
0.0000

> <Gold.PLP.part.buried>
-3.8412

> <Gold.PLP.part.nonpolar>
-27.4286

> <Gold.PLP.part.repulsive>
0.2679

> <Gold.PLP.ligand.clash>
0.0000

> <Gold.PLP.ligand.torsion>
0.2156

> <Gold.PLP.Chemscore.Hbond>
4.0000

> <Gold.PLP.Chemscore.CHOScore>
1.0000

> <Gold.PLP.Chemscore.Metal>
0.0000

> <Gold.Chemscore.Hbonds>
donor molecule, donor type, donor heavy atom, donor atom, acceptor molecule, acceptor atom, score
      L1  H     4    26       P1  7948  0.89
      L1  H    14    42       P1  7948  2.00
      P1  H  7989  7998       L1    13  0.55
      L1  C    12    33       P1  8028  1.00

> <Gold.PLP.Chemscore.Internal.Correction>
0.1477

> <Gold.Rescore>
     Score         DG    S(hbond)    S(metal)    S(lipo)     H(rot)  DE(clash)    DE(int)     intcor
     17.44     -17.82       2.76        0.00      67.30       1.86       0.01       0.36       ----

> <Gold.Chemscore.Fitness>
17.4426

> <Gold.Chemscore.DG>
-17.8154

> <Gold.Chemscore.ZeroCoef>
-5.4800

> <Gold.Chemscore.Hbond>
2.7637

> <Gold.Chemscore.Metal>
0.0000

> <Gold.Chemscore.Lipo>
67.3026

> <Gold.Chemscore.Internal_Hbond>
0.0000

> <Gold.Chemscore.DEClash>
0.0106

> <Gold.Chemscore.DEInternal>
0.3622

> <Gold.Chemscore.Rot>
1.8631

> <Gold.Chemscore.Internal.Correction>
   9.000000E+99

> <Gold.Chemscore.Hbonds>
donor molecule, donor type, donor heavy atom, donor atom, acceptor molecule, acceptor atom, score
      L1  H     4    26       P1  7948  0.84
      L1  H    14    42       P1  7948  0.50
      P1  H  7989  7998       L1    13  0.37

> <Gold.Chemscore.Hbond.Weighted>
-9.2306

> <Gold.Chemscore.Metal.Weighted>
-0.0000

> <Gold.Chemscore.Lipo.Weighted>
-7.8744

> <Gold.Chemscore.Internal_Hbond.Weighted>
0.0000

> <Gold.Chemscore.DEClash.Weighted>
0.0106

> <Gold.Chemscore.DEInternal.Weighted>
0.3622

> <Gold.Chemscore.Rot.Weighted>
4.7697

> <Gold.Chemscore.Internal.Correction.Weighted>
   9.000000E+99

> <Gold.Protein.RotatedTorsions>
[ 6907 6896 6895 6894 ] final  -89.98 input  -60.11 | X-H torsion
[ 7974 7965 7964 7962 ] final   77.22 input  175.53 | X-H torsion
[ 8008 7997 7996 7995 ] final -146.62 input   59.86 | X-H torsion
[ 10167 10162 10161 10158 ] final  166.82 input  -65.29 | X-H torsion
[ 10718 10713 10712 10709 ] final   -6.13 input   66.30 | X-H torsion
[ 10763 10752 10751 10750 ] final   51.52 input  -60.55 | X-H torsion
[ 11005 11000 10999 10996 ] final  123.11 input  -57.11 | X-H torsion

> <Gold.Protein.ActiveResidues>
 VAL166  LYS551  ARG553  GLY616  TRP617  ASP618  TYR619  PRO620  LYS621  CYS622 
 ASP623  PHE694  ASN695  SER759  ASP760  ASP761  ALA762  ILE779  LEU786  VAL792 
 PHE793  MET794  SER795  GLU796  ALA797  LYS798  CYS799  TRP800  GLU811  SER814 

> <Gold.Protein.RotatedAtoms>
  150.6878  134.2503  159.4507 H   0  0  0  0  0  0  0  0  0  0  0  0  # atno 6907 bound_to 6896
  152.0441  134.9691  160.0583 H   0  0  0  0  0  0  0  0  0  0  0  0  # atno 6908 bound_to 6896
  152.1181  133.4303  159.4699 H   0  0  0  0  0  0  0  0  0  0  0  0  # atno 6909 bound_to 6896
  145.6928  139.2558  143.1750 H   0  0  0  0  0  0  0  0  0  0  0  0  # atno 7974 bound_to 7965
  155.5623  140.0626  157.2826 H   0  0  0  0  0  0  0  0  0  0  0  0  # atno 8008 bound_to 7997
  154.4386  140.1883  156.0841 H   0  0  0  0  0  0  0  0  0  0  0  0  # atno 8009 bound_to 7997
  156.0437  140.3292  155.7276 H   0  0  0  0  0  0  0  0  0  0  0  0  # atno 8010 bound_to 7997
  139.4932  144.3987  151.9435 H   0  0  0  0  0  0  0  0  0  0  0  0  # atno 10167 bound_to 10162
  156.7364  130.5196  149.5834 H   0  0  0  0  0  0  0  0  0  0  0  0  # atno 10718 bound_to 10713
  152.9785  135.5843  154.4429 H   0  0  0  0  0  0  0  0  0  0  0  0  # atno 10763 bound_to 10752
  154.4028  135.2769  155.2088 H   0  0  0  0  0  0  0  0  0  0  0  0  # atno 10764 bound_to 10752
  154.3912  135.6125  153.5898 H   0  0  0  0  0  0  0  0  0  0  0  0  # atno 10765 bound_to 10752
  139.9298  134.9641  156.8210 H   0  0  0  0  0  0  0  0  0  0  0  0  # atno 11005 bound_to 11000
  146.0866  140.7703  142.9615 LP  0  0  0  0  0  0  0  0  0  0  0  0  # atno 17320 bound_to 7965
  144.6991  140.3572  143.7170 LP  0  0  0  0  0  0  0  0  0  0  0  0  # atno 17321 bound_to 7965
  140.3425  144.3186  150.5964 LP  0  0  0  0  0  0  0  0  0  0  0  0  # atno 17342 bound_to 10162
  140.5553  143.2200  151.7857 LP  0  0  0  0  0  0  0  0  0  0  0  0  # atno 17343 bound_to 10162
  156.1494  130.6299  151.0575 LP  0  0  0  0  0  0  0  0  0  0  0  0  # atno 17370 bound_to 10713
  157.6837  131.0831  150.7301 LP  0  0  0  0  0  0  0  0  0  0  0  0  # atno 17371 bound_to 10713
  140.6234  133.9973  155.7628 LP  0  0  0  0  0  0  0  0  0  0  0  0  # atno 17394 bound_to 11000
  141.0879  133.9961  157.3283 LP  0  0  0  0  0  0  0  0  0  0  0  0  # atno 17395 bound_to 11000

$$$$
