AV-unprocessed.smi:2668|AV-procd|sdf|10339|dock4
  -GOLD-   2272014363D 1   1.00000     0.00000
 Structure written by MMmdl.
 54 55  0  0  0  0  0  0  0  0  3 V2000
  147.7838  137.0790  154.6013 C   0  0  0  0  0  0  0  0  0  0  0  0
  146.8726  136.3266  153.7030 N   0  3  0  0  0  0  0  0  0  0  0  0
  146.4627  135.0517  154.3431 C   0  0  0  0  0  0  0  0  0  0  0  0
  145.7206  137.1414  153.1935 C   0  0  2  0  0  0  0  0  0  0  0  0
  146.1280  138.1865  152.1314 C   0  0  0  0  0  0  0  0  0  0  0  0
  146.9835  139.3209  152.7263 C   0  0  0  0  0  0  0  0  0  0  0  0
  146.2727  140.0191  153.8404 N   0  3  2  0  0  0  0  0  0  0  0  0
  146.9430  141.2666  154.3638 C   0  0  0  0  0  0  0  0  0  0  0  0
  146.8784  142.4211  153.3365 C   0  0  0  0  0  0  0  0  0  0  0  0
  146.2524  141.7561  155.6611 C   0  0  0  0  0  0  0  0  0  0  0  0
  148.4402  140.9961  154.7037 C   0  0  0  0  0  0  0  0  0  0  0  0
  149.0362  141.9923  155.5957 N   0  0  0  0  0  0  0  0  0  0  0  0
  149.9360  141.7390  156.5570 C   0  0  0  0  0  0  0  0  0  0  0  0
  150.3915  140.6185  156.7807 O   0  0  0  0  0  0  0  0  0  0  0  0
  150.2488  142.8560  157.2358 N   0  0  0  0  0  0  0  0  0  0  0  0
  151.1703  143.0085  158.3068 C   0  0  0  0  0  0  0  0  0  0  0  0
  151.8370  141.8570  158.7748 C   0  0  0  0  0  0  0  0  0  0  0  0
  152.7421  141.9753  159.8466 C   0  0  0  0  0  0  0  0  0  0  0  0
  152.9399  143.2469  160.4184 C   0  0  0  0  0  0  0  0  0  0  0  0
  152.2990  144.3563  159.9941 N   0  0  0  0  0  0  0  0  0  0  0  0
  151.4342  144.2364  158.9639 C   0  0  0  0  0  0  0  0  0  0  0  0
  145.8487  139.0452  154.8911 C   0  0  0  0  0  0  0  0  0  0  0  0
  144.9784  137.9213  154.3013 C   0  0  0  0  0  0  0  0  0  0  0  0
  147.2373  137.5174  155.4373 H   0  0  0  0  0  0  0  0  0  0  0  0
  148.3088  137.8727  154.0720 H   0  0  0  0  0  0  0  0  0  0  0  0
  148.5567  136.4273  155.0105 H   0  0  0  0  0  0  0  0  0  0  0  0
  145.7498  135.2289  155.1494 H   0  0  0  0  0  0  0  0  0  0  0  0
  147.3235  134.5309  154.7641 H   0  0  0  0  0  0  0  0  0  0  0  0
  146.0160  134.3642  153.6265 H   0  0  0  0  0  0  0  0  0  0  0  0
  145.0153  136.4460  152.7356 H   0  0  0  0  0  0  0  0  0  0  0  0
  146.6333  137.7315  151.2811 H   0  0  0  0  0  0  0  0  0  0  0  0
  145.2232  138.6254  151.7079 H   0  0  0  0  0  0  0  0  0  0  0  0
  147.9361  138.9240  153.0773 H   0  0  0  0  0  0  0  0  0  0  0  0
  147.2071  140.0054  151.9105 H   0  0  0  0  0  0  0  0  0  0  0  0
  147.3383  143.3242  153.7400 H   0  0  0  0  0  0  0  0  0  0  0  0
  145.8532  142.6802  153.0723 H   0  0  0  0  0  0  0  0  0  0  0  0
  147.4095  142.1870  152.4142 H   0  0  0  0  0  0  0  0  0  0  0  0
  146.8394  142.5324  156.1538 H   0  0  0  0  0  0  0  0  0  0  0  0
  146.1161  140.9472  156.3794 H   0  0  0  0  0  0  0  0  0  0  0  0
  145.2750  142.1989  155.4690 H   0  0  0  0  0  0  0  0  0  0  0  0
  148.5531  140.0266  155.1887 H   0  0  0  0  0  0  0  0  0  0  0  0
  149.0298  140.9065  153.7893 H   0  0  0  0  0  0  0  0  0  0  0  0
  148.7054  142.9415  155.5022 H   0  0  0  0  0  0  0  0  0  0  0  0
  149.7247  143.6850  156.9973 H   0  0  0  0  0  0  0  0  0  0  0  0
  151.6628  140.8941  158.3171 H   0  0  0  0  0  0  0  0  0  0  0  0
  153.2719  141.1122  160.2218 H   0  0  0  0  0  0  0  0  0  0  0  0
  153.6264  143.3751  161.2421 H   0  0  0  0  0  0  0  0  0  0  0  0
  150.9354  145.1523  158.6881 H   0  0  0  0  0  0  0  0  0  0  0  0
  146.7226  138.6118  155.3776 H   0  0  0  0  0  0  0  0  0  0  0  0
  145.2677  139.5348  155.6697 H   0  0  0  0  0  0  0  0  0  0  0  0
  144.0778  138.3677  153.8764 H   0  0  0  0  0  0  0  0  0  0  0  0
  144.6129  137.2653  155.0898 H   0  0  0  0  0  0  0  0  0  0  0  0
  147.4277  136.0674  152.9001 H   0  0  0  0  0  0  0  0  0  0  0  0
  145.4143  140.3561  153.4277 H   0  0  0  0  0  0  0  0  0  0  0  0
  1  2  1  0  0  0  0
  1 24  1  0  0  0  0
  1 25  1  0  0  0  0
  1 26  1  0  0  0  0
  2  3  1  0  0  0  0
  2  4  1  0  0  0  0
  2 53  1  0  0  0  0
  3 27  1  0  0  0  0
  3 28  1  0  0  0  0
  3 29  1  0  0  0  0
  4 23  1  0  0  0  0
  4  5  1  0  0  0  0
  4 30  1  0  0  0  0
  5  6  1  0  0  0  0
  5 31  1  0  0  0  0
  5 32  1  0  0  0  0
  6  7  1  0  0  0  0
  6 33  1  0  0  0  0
  6 34  1  0  0  0  0
  7  8  1  0  0  0  0
  7 22  1  0  0  0  0
  7 54  1  0  0  0  0
  8  9  1  0  0  0  0
  8 10  1  0  0  0  0
  8 11  1  0  0  0  0
  9 35  1  0  0  0  0
  9 36  1  0  0  0  0
  9 37  1  0  0  0  0
 10 38  1  0  0  0  0
 10 39  1  0  0  0  0
 10 40  1  0  0  0  0
 11 12  1  0  0  0  0
 11 41  1  0  0  0  0
 11 42  1  0  0  0  0
 12 13  1  0  0  0  0
 12 43  1  0  0  0  0
 13 14  2  0  0  0  0
 13 15  1  0  0  0  0
 15 16  1  0  0  0  0
 15 44  1  0  0  0  0
 16 21  1  0  0  0  0
 16 17  2  0  0  0  0
 17 18  1  0  0  0  0
 17 45  1  0  0  0  0
 18 19  2  0  0  0  0
 18 46  1  0  0  0  0
 19 20  1  0  0  0  0
 19 47  1  0  0  0  0
 20 21  2  0  0  0  0
 21 48  1  0  0  0  0
 22 23  1  0  0  0  0
 22 49  1  0  0  0  0
 22 50  1  0  0  0  0
 23 51  1  0  0  0  0
 23 52  1  0  0  0  0
M  CHG  1   2   1
M  CHG  1   7   1
M  END
> <s_m_source_file>
AV-unprocessed.smi

> <i_m_source_file_index>
2668

> <i_lp_mmshare_version>
43012

> <i_f3d_flags>
0

> <s_epik_input>
W0NIM11OKFtDSDNdKVtDSF0xW0NIMl1bQ0gyXU4oW0NIMl1bQ0gyXTEpQyhbQ0gzXSkoW0NIM10pW0NIMl1bTkhdQyg9TylbTkhdYzJbY0hdW2NIXVtjSF1uW2NIXTI=

> <s_epik_cmdline>
J2VwaWtfcHl0aG9uJywgJy1waCcsICc3LjAnLCAnLXRuJywgJzgnLCAnLW1hJywgJzIwMCcsICctbWV0YWxfYmluZGluZycsICctaW1hZScsICc8aW5maWxlLm1hZT4nLCAnLW9tYWUnLCAnPG91dGZpbGUubWFlPic=

> <r_epik_Ionization_Penalty>
0.210461

> <r_epik_Ionization_Penalty_Charging>
0.206231

> <r_epik_Ionization_Penalty_Neutral>
0.00422959

> <r_epik_State_Penalty>
0.176025

> <r_epik_Charging_Adjusted_Penalty>
0.382256

> <i_epik_Tot_Q>
2

> <i_epik_Tot_abs_Q>
2

> <r_epik_Metal_State_Penalty>
0.176152

> <b_epik_Metal_Only>
0

> <s_lp_Force_Field>
OPLS_2005

> <r_lp_Energy>
56.664

> <b_lp_Chiralities_Consistent>
1

> <s_lp_Variant>
AV-unprocessed.smi:2668-2

> <Gold.Version>
5.8.1

> <Gold.Id.Protein>
6NUR|6NUR_protein|mol2

> <Gold.PLP.Fitness>
45.1115

> <Gold.PLP.PLP>
-36.2945

> <Gold.PLP.part.hbond>
-4.0000

> <Gold.PLP.part.metal>
0.0000

> <Gold.PLP.part.buried>
-4.8373

> <Gold.PLP.part.nonpolar>
-27.1750

> <Gold.PLP.part.repulsive>
0.2118

> <Gold.PLP.ligand.clash>
7.2535

> <Gold.PLP.ligand.torsion>
1.0188

> <Gold.PLP.Chemscore.Hbond>
5.9840

> <Gold.PLP.Chemscore.CHOScore>
0.0000

> <Gold.PLP.Chemscore.Metal>
0.0000

> <Gold.Chemscore.Hbonds>
donor molecule, donor type, donor heavy atom, donor atom, acceptor molecule, acceptor atom, score
      L1  H     2    53       P1  7948  2.00
      L1  H     7    54       P1 10175  2.00
      L1  H    12    43       P1  8028  1.00
      L1  H    15    44       P1  8028  0.98

> <Gold.PLP.Chemscore.Internal.Correction>
0.1560

> <Gold.Rescore>
     Score         DG    S(hbond)    S(metal)    S(lipo)     H(rot)  DE(clash)    DE(int)     intcor
     20.82     -26.70       3.87        0.00     107.68       1.69       1.94       3.94       ----

> <Gold.Chemscore.Fitness>
20.8163

> <Gold.Chemscore.DG>
-26.6992

> <Gold.Chemscore.ZeroCoef>
-5.4800

> <Gold.Chemscore.Hbond>
3.8747

> <Gold.Chemscore.Metal>
0.0000

> <Gold.Chemscore.Lipo>
107.6776

> <Gold.Chemscore.Internal_Hbond>
0.0000

> <Gold.Chemscore.DEClash>
1.9413

> <Gold.Chemscore.DEInternal>
3.9416

> <Gold.Chemscore.Rot>
1.6877

> <Gold.Chemscore.Internal.Correction>
   9.000000E+99

> <Gold.Chemscore.Hbonds>
donor molecule, donor type, donor heavy atom, donor atom, acceptor molecule, acceptor atom, score
      L1  H     2    53       P1  7948  0.96
      L1  H     7    54       P1 10175  0.97
      L1  H    12    43       P1  8028  0.98
      L1  H    15    44       P1  8028  0.89

> <Gold.Chemscore.Hbond.Weighted>
-12.9414

> <Gold.Chemscore.Metal.Weighted>
-0.0000

> <Gold.Chemscore.Lipo.Weighted>
-12.5983

> <Gold.Chemscore.Internal_Hbond.Weighted>
0.0000

> <Gold.Chemscore.DEClash.Weighted>
1.9413

> <Gold.Chemscore.DEInternal.Weighted>
3.9416

> <Gold.Chemscore.Rot.Weighted>
4.3205

> <Gold.Chemscore.Internal.Correction.Weighted>
   9.000000E+99

> <Gold.Protein.RotatedTorsions>
[ 6907 6896 6895 6894 ] final -147.21 input  -60.11 | X-H torsion
[ 7974 7965 7964 7962 ] final  -86.93 input  175.53 | X-H torsion
[ 8008 7997 7996 7995 ] final -128.26 input   59.86 | X-H torsion
[ 10167 10162 10161 10158 ] final    0.87 input  -65.29 | X-H torsion
[ 10718 10713 10712 10709 ] final -102.98 input   66.30 | X-H torsion
[ 10763 10752 10751 10750 ] final -128.12 input  -60.55 | X-H torsion
[ 11005 11000 10999 10996 ] final   41.33 input  -57.11 | X-H torsion

> <Gold.Protein.ActiveResidues>
 VAL166  LYS551  ARG553  GLY616  TRP617  ASP618  TYR619  PRO620  LYS621  CYS622 
 ASP623  PHE694  ASN695  SER759  ASP760  ASP761  ALA762  ILE779  LEU786  VAL792 
 PHE793  MET794  SER795  GLU796  ALA797  LYS798  CYS799  TRP800  GLU811  SER814 

> <Gold.Protein.RotatedAtoms>
  151.1524  133.4898  159.2594 H   0  0  0  0  0  0  0  0  0  0  0  0  # atno 6907 bound_to 6896
  151.1539  135.0240  159.8690 H   0  0  0  0  0  0  0  0  0  0  0  0  # atno 6908 bound_to 6896
  152.5463  134.1405  159.8530 H   0  0  0  0  0  0  0  0  0  0  0  0  # atno 6909 bound_to 6896
  145.4734  140.9559  143.1904 H   0  0  0  0  0  0  0  0  0  0  0  0  # atno 7974 bound_to 7965
  155.2597  140.0435  157.2996 H   0  0  0  0  0  0  0  0  0  0  0  0  # atno 8008 bound_to 7997
  154.5718  140.2376  155.8150 H   0  0  0  0  0  0  0  0  0  0  0  0  # atno 8009 bound_to 7997
  156.2128  140.2993  155.9779 H   0  0  0  0  0  0  0  0  0  0  0  0  # atno 8010 bound_to 7997
  140.6709  143.7052  150.7921 H   0  0  0  0  0  0  0  0  0  0  0  0  # atno 10167 bound_to 10162
  156.0248  130.5446  150.7187 H   0  0  0  0  0  0  0  0  0  0  0  0  # atno 10718 bound_to 10713
  154.8755  135.3939  154.3706 H   0  0  0  0  0  0  0  0  0  0  0  0  # atno 10763 bound_to 10752
  153.4466  135.7027  153.6140 H   0  0  0  0  0  0  0  0  0  0  0  0  # atno 10764 bound_to 10752
  153.4698  135.3793  155.2354 H   0  0  0  0  0  0  0  0  0  0  0  0  # atno 10765 bound_to 10752
  140.1844  134.4063  155.8181 H   0  0  0  0  0  0  0  0  0  0  0  0  # atno 11005 bound_to 11000
  144.7932  139.6287  143.7104 LP  0  0  0  0  0  0  0  0  0  0  0  0  # atno 17320 bound_to 7965
  146.2383  139.5950  142.9508 LP  0  0  0  0  0  0  0  0  0  0  0  0  # atno 17321 bound_to 7965
  140.0737  143.5036  152.2567 LP  0  0  0  0  0  0  0  0  0  0  0  0  # atno 17342 bound_to 10162
  139.5977  144.7572  151.3247 LP  0  0  0  0  0  0  0  0  0  0  0  0  # atno 17343 bound_to 10162
  157.4808  131.0902  151.0539 LP  0  0  0  0  0  0  0  0  0  0  0  0  # atno 17370 bound_to 10713
  157.0972  130.5967  149.5452 LP  0  0  0  0  0  0  0  0  0  0  0  0  # atno 17371 bound_to 10713
  141.2224  133.7016  156.7987 LP  0  0  0  0  0  0  0  0  0  0  0  0  # atno 17394 bound_to 11000
  140.2230  134.8743  157.3397 LP  0  0  0  0  0  0  0  0  0  0  0  0  # atno 17395 bound_to 11000

$$$$
