AV-unprocessed.smi:2078|AV-procd|sdf|8471|dock10
  -GOLD-   2272011173D 1   1.00000     0.00000
 Structure written by MMmdl.
 41 42  0  0  0  0  0  0  0  0  3 V2000
  153.7808  141.2478  161.8516 C   0  0  0  0  0  0  0  0  0  0  0  0
  153.3950  140.8720  160.4621 C   0  0  0  0  0  0  0  0  0  0  0  0
  152.4188  141.3163  159.6157 C   0  0  0  0  0  0  0  0  0  0  0  0
  152.6175  140.5257  158.4526 C   0  0  0  0  0  0  0  0  0  0  0  0
  151.7832  140.6905  157.3155 N   0  0  0  0  0  0  0  0  0  0  0  0
  151.9705  140.2455  156.0595 C   0  0  0  0  0  0  0  0  0  0  0  0
  152.9782  139.5877  155.7736 O   0  0  0  0  0  0  0  0  0  0  0  0
  150.9539  140.6077  155.2296 N   0  5  0  0  0  0  0  0  0  0  0  0
  149.8581  141.4985  155.6018 C   0  0  0  0  0  0  0  0  0  0  0  0
  148.6525  141.2494  154.6755 C   0  0  0  0  0  0  0  0  0  0  0  0
  147.5107  142.1492  154.9910 N   0  3  1  0  0  0  0  0  0  0  0  0
  146.5635  142.2928  153.8547 C   0  0  0  0  0  0  0  0  0  0  0  0
  145.4890  143.3489  154.1597 C   0  0  0  0  0  0  0  0  0  0  0  0
  144.7415  143.0177  155.4580 C   0  0  0  0  0  0  0  0  0  0  0  0
  145.7369  142.8434  156.6173 C   0  0  1  0  0  0  0  0  0  0  0  0
  145.0191  142.4875  157.9268 C   0  0  0  0  0  0  0  0  0  0  0  0
  146.7988  141.7881  156.2499 C   0  0  0  0  0  0  0  0  0  0  0  0
  153.6262  139.6760  158.5786 N   0  0  0  0  0  0  0  0  0  0  0  0
  154.1292  139.8936  159.8668 O   0  0  0  0  0  0  0  0  0  0  0  0
  153.1255  142.0275  162.2401 H   0  0  0  0  0  0  0  0  0  0  0  0
  154.8046  141.6208  161.8803 H   0  0  0  0  0  0  0  0  0  0  0  0
  153.7142  140.3871  162.5171 H   0  0  0  0  0  0  0  0  0  0  0  0
  151.6813  142.0830  159.8005 H   0  0  0  0  0  0  0  0  0  0  0  0
  150.9336  141.2122  157.4714 H   0  0  0  0  0  0  0  0  0  0  0  0
  149.5448  141.3475  156.6356 H   0  0  0  0  0  0  0  0  0  0  0  0
  150.1488  142.5472  155.5283 H   0  0  0  0  0  0  0  0  0  0  0  0
  148.9804  141.4160  153.6479 H   0  0  0  0  0  0  0  0  0  0  0  0
  148.3305  140.2077  154.7219 H   0  0  0  0  0  0  0  0  0  0  0  0
  147.1065  142.5892  152.9563 H   0  0  0  0  0  0  0  0  0  0  0  0
  146.0985  141.3286  153.6428 H   0  0  0  0  0  0  0  0  0  0  0  0
  145.9556  144.3312  154.2454 H   0  0  0  0  0  0  0  0  0  0  0  0
  144.7838  143.4129  153.3306 H   0  0  0  0  0  0  0  0  0  0  0  0
  144.0273  143.8093  155.6870 H   0  0  0  0  0  0  0  0  0  0  0  0
  144.1619  142.1033  155.3236 H   0  0  0  0  0  0  0  0  0  0  0  0
  146.2479  143.7953  156.7719 H   0  0  0  0  0  0  0  0  0  0  0  0
  144.4786  141.5446  157.8401 H   0  0  0  0  0  0  0  0  0  0  0  0
  144.3002  143.2595  158.2027 H   0  0  0  0  0  0  0  0  0  0  0  0
  145.7280  142.3895  158.7494 H   0  0  0  0  0  0  0  0  0  0  0  0
  146.3333  140.8076  156.1345 H   0  0  0  0  0  0  0  0  0  0  0  0
  147.5132  141.6997  157.0692 H   0  0  0  0  0  0  0  0  0  0  0  0
  147.9163  143.0632  155.1333 H   0  0  0  0  0  0  0  0  0  0  0  0
  1  2  1  0  0  0  0
  1 20  1  0  0  0  0
  1 21  1  0  0  0  0
  1 22  1  0  0  0  0
  2 19  1  0  0  0  0
  2  3  2  0  0  0  0
  3  4  1  0  0  0  0
  3 23  1  0  0  0  0
  4  5  1  0  0  0  0
  4 18  2  0  0  0  0
  5  6  1  0  0  0  0
  5 24  1  0  0  0  0
  6  7  2  0  0  0  0
  6  8  1  0  0  0  0
  8  9  1  0  0  0  0
  9 10  1  0  0  0  0
  9 25  1  0  0  0  0
  9 26  1  0  0  0  0
 10 11  1  0  0  0  0
 10 27  1  0  0  0  0
 10 28  1  0  0  0  0
 11 17  1  0  0  0  0
 11 12  1  0  0  0  0
 11 41  1  0  0  0  0
 12 13  1  0  0  0  0
 12 29  1  0  0  0  0
 12 30  1  0  0  0  0
 13 14  1  0  0  0  0
 13 31  1  0  0  0  0
 13 32  1  0  0  0  0
 14 15  1  0  0  0  0
 14 33  1  0  0  0  0
 14 34  1  0  0  0  0
 15 16  1  0  0  0  0
 15 17  1  0  0  0  0
 15 35  1  0  0  0  0
 16 36  1  0  0  0  0
 16 37  1  0  0  0  0
 16 38  1  0  0  0  0
 17 39  1  0  0  0  0
 17 40  1  0  0  0  0
 18 19  1  0  0  0  0
M  CHG  1   8  -1
M  CHG  1  11   1
M  END
> <s_m_source_file>
AV-unprocessed.smi

> <i_m_source_file_index>
2078

> <i_lp_mmshare_version>
43012

> <i_f3d_flags>
0

> <s_epik_input>
W0NIM11jMVtjSF1jKG5vMSlbTkhdQyg9TylbTkhdW0NIMl1bQ0gyXU4yW0NIMl1bQ0gyXVtDSDJdW0NAQEhdKFtDSDNdKVtDSDJdMg==

> <s_epik_cmdline>
J2VwaWtfcHl0aG9uJywgJy1waCcsICc3LjAnLCAnLXRuJywgJzgnLCAnLW1hJywgJzIwMCcsICctbWV0YWxfYmluZGluZycsICctaW1hZScsICc8aW5maWxlLm1hZT4nLCAnLW9tYWUnLCAnPG91dGZpbGUubWFlPic=

> <r_epik_Ionization_Penalty>
6.76934

> <r_epik_Ionization_Penalty_Charging>
6.76934

> <r_epik_Ionization_Penalty_Neutral>
5.77849e-06

> <r_epik_State_Penalty>
6.79457

> <r_epik_Charging_Adjusted_Penalty>
13.5639

> <i_epik_Tot_Q>
0

> <i_epik_Tot_abs_Q>
2

> <r_epik_Metal_State_Penalty>
2.72837

> <b_epik_Metal_Only>
1

> <s_lp_Force_Field>
OPLS_2005

> <r_lp_Energy>
13.3019

> <b_lp_Chiralities_Consistent>
1

> <s_lp_Variant>
AV-unprocessed.smi:2078-9

> <Gold.Version>
5.8.1

> <Gold.Id.Protein>
6NUR|6NUR_protein|mol2

> <Gold.PLP.Fitness>
47.7115

> <Gold.PLP.PLP>
-36.7092

> <Gold.PLP.part.hbond>
-4.0000

> <Gold.PLP.part.metal>
0.0000

> <Gold.PLP.part.buried>
-7.0603

> <Gold.PLP.part.nonpolar>
-25.8740

> <Gold.PLP.part.repulsive>
0.2634

> <Gold.PLP.ligand.clash>
1.7646

> <Gold.PLP.ligand.torsion>
0.3624

> <Gold.PLP.Chemscore.Hbond>
4.4880

> <Gold.PLP.Chemscore.CHOScore>
0.0000

> <Gold.PLP.Chemscore.Metal>
0.0000

> <Gold.Chemscore.Hbonds>
donor molecule, donor type, donor heavy atom, donor atom, acceptor molecule, acceptor atom, score
      L1  H    11    41       P1  8028  2.00
      P1  H  7989  7998       L1     8  0.93
      P1  H  7997  8009       L1    18  0.88
      P1  H  7997  8010       L1     7  0.62

> <Gold.PLP.Chemscore.Internal.Correction>
0.0278

> <Gold.Rescore>
     Score         DG    S(hbond)    S(metal)    S(lipo)     H(rot)  DE(clash)    DE(int)     intcor
     16.93     -18.61       2.87        0.00      64.03       1.54       0.10       1.57       ----

> <Gold.Chemscore.Fitness>
16.9319

> <Gold.Chemscore.DG>
-18.6080

> <Gold.Chemscore.ZeroCoef>
-5.4800

> <Gold.Chemscore.Hbond>
2.8686

> <Gold.Chemscore.Metal>
0.0000

> <Gold.Chemscore.Lipo>
64.0296

> <Gold.Chemscore.Internal_Hbond>
0.0000

> <Gold.Chemscore.DEClash>
0.1021

> <Gold.Chemscore.DEInternal>
1.5740

> <Gold.Chemscore.Rot>
1.5409

> <Gold.Chemscore.Internal.Correction>
   9.000000E+99

> <Gold.Chemscore.Hbonds>
donor molecule, donor type, donor heavy atom, donor atom, acceptor molecule, acceptor atom, score
      L1  H    11    41       P1  8028  0.81
      P1  H  7989  7998       L1     8  0.57
      P1  H  7997  8009       L1    18  0.46
      P1  H  7997  8010       L1     7  0.62

> <Gold.Chemscore.Hbond.Weighted>
-9.5811

> <Gold.Chemscore.Metal.Weighted>
-0.0000

> <Gold.Chemscore.Lipo.Weighted>
-7.4915

> <Gold.Chemscore.Internal_Hbond.Weighted>
0.0000

> <Gold.Chemscore.DEClash.Weighted>
0.1021

> <Gold.Chemscore.DEInternal.Weighted>
1.5740

> <Gold.Chemscore.Rot.Weighted>
3.9446

> <Gold.Chemscore.Internal.Correction.Weighted>
   9.000000E+99

> <Gold.Protein.RotatedTorsions>
[ 6907 6896 6895 6894 ] final -160.03 input  -60.11 | X-H torsion
[ 7974 7965 7964 7962 ] final -114.46 input  175.53 | X-H torsion
[ 8008 7997 7996 7995 ] final  122.16 input   59.86 | X-H torsion
[ 10167 10162 10161 10158 ] final -163.56 input  -65.29 | X-H torsion
[ 10718 10713 10712 10709 ] final -132.87 input   66.30 | X-H torsion
[ 10763 10752 10751 10750 ] final    2.69 input  -60.55 | X-H torsion
[ 11005 11000 10999 10996 ] final  160.89 input  -57.11 | X-H torsion

> <Gold.Protein.ActiveResidues>
 VAL166  LYS551  ARG553  GLY616  TRP617  ASP618  TYR619  PRO620  LYS621  CYS622 
 ASP623  PHE694  ASN695  SER759  ASP760  ASP761  ALA762  ILE779  LEU786  VAL792 
 PHE793  MET794  SER795  GLU796  ALA797  LYS798  CYS799  TRP800  GLU811  SER814 

> <Gold.Protein.RotatedAtoms>
  151.3428  133.3956  159.2672 H   0  0  0  0  0  0  0  0  0  0  0  0  # atno 6907 bound_to 6896
  150.9864  134.9209  159.7885 H   0  0  0  0  0  0  0  0  0  0  0  0  # atno 6908 bound_to 6896
  152.5233  134.3392  159.9263 H   0  0  0  0  0  0  0  0  0  0  0  0  # atno 6909 bound_to 6896
  145.1198  140.8662  143.3820 H   0  0  0  0  0  0  0  0  0  0  0  0  # atno 7974 bound_to 7965
  156.2716  140.2792  156.1423 H   0  0  0  0  0  0  0  0  0  0  0  0  # atno 8008 bound_to 7997
  155.0941  140.0389  157.2695 H   0  0  0  0  0  0  0  0  0  0  0  0  # atno 8009 bound_to 7997
  154.6866  140.2620  155.6860 H   0  0  0  0  0  0  0  0  0  0  0  0  # atno 8010 bound_to 7997
  139.6312  144.0435  152.2017 H   0  0  0  0  0  0  0  0  0  0  0  0  # atno 10167 bound_to 10162
  156.2390  130.7084  151.0937 H   0  0  0  0  0  0  0  0  0  0  0  0  # atno 10718 bound_to 10713
  153.2925  135.6949  153.7279 H   0  0  0  0  0  0  0  0  0  0  0  0  # atno 10763 bound_to 10752
  153.6225  135.3424  155.3016 H   0  0  0  0  0  0  0  0  0  0  0  0  # atno 10764 bound_to 10752
  154.8528  135.4389  154.2012 H   0  0  0  0  0  0  0  0  0  0  0  0  # atno 10765 bound_to 10752
  140.2104  134.8272  157.3114 H   0  0  0  0  0  0  0  0  0  0  0  0  # atno 11005 bound_to 11000
  145.0753  139.3001  143.5811 LP  0  0  0  0  0  0  0  0  0  0  0  0  # atno 17320 bound_to 7965
  146.3521  140.0241  142.8656 LP  0  0  0  0  0  0  0  0  0  0  0  0  # atno 17321 bound_to 7965
  140.0101  144.6230  150.7654 LP  0  0  0  0  0  0  0  0  0  0  0  0  # atno 17342 bound_to 10162
  140.7440  143.2854  151.3477 LP  0  0  0  0  0  0  0  0  0  0  0  0  # atno 17343 bound_to 10162
  157.7167  131.0706  150.6299 LP  0  0  0  0  0  0  0  0  0  0  0  0  # atno 17370 bound_to 10713
  156.6371  130.4448  149.5765 LP  0  0  0  0  0  0  0  0  0  0  0  0  # atno 17371 bound_to 10713
  140.1957  134.4316  155.7690 LP  0  0  0  0  0  0  0  0  0  0  0  0  # atno 17394 bound_to 11000
  141.2226  133.7048  156.8101 LP  0  0  0  0  0  0  0  0  0  0  0  0  # atno 17395 bound_to 11000

$$$$
