AV-unprocessed.smi:590|AV-procd|sdf|3008|dock10
  -GOLD-   2262023513D 1   1.00000     0.00000
 Structure written by MMmdl.
 41 42  0  0  0  0  0  0  0  0  1 V2000
  150.6754  135.7491  155.4740 C   0  0  0  0  0  0  0  0  0  0  0  0
  149.7278  136.8473  155.0853 C   0  0  0  0  0  0  0  0  0  0  0  0
  148.4359  136.5876  154.9728 N   0  0  0  0  0  0  0  0  0  0  0  0
  147.8348  137.7923  154.5954 O   0  0  0  0  0  0  0  0  0  0  0  0
  148.8008  138.7403  154.4918 C   0  0  0  0  0  0  0  0  0  0  0  0
  148.3601  140.1065  154.0881 C   0  0  0  0  0  0  0  0  0  0  0  0
  150.0246  138.2093  154.7923 C   0  0  0  0  0  0  0  0  0  0  0  0
  151.3676  138.8917  154.8055 C   0  0  0  0  0  0  0  0  0  0  0  0
  151.4828  139.7753  156.0476 C   0  0  0  0  0  0  0  0  0  0  0  0
  152.4926  139.7187  156.7491 O   0  0  0  0  0  0  0  0  0  0  0  0
  150.4415  140.5821  156.3071 N   0  0  0  0  0  0  0  0  0  0  0  0
  150.3383  141.5014  157.4372 C   0  0  0  0  0  0  0  0  0  0  0  0
  151.4787  142.5387  157.4536 C   0  0  0  0  0  0  0  0  0  0  0  0
  151.7868  143.1041  158.8324 C   0  0  0  0  0  0  0  0  0  0  0  0
  151.5600  144.3968  159.1380 C   0  0  0  0  0  0  0  0  0  0  0  0
  151.8245  145.0113  160.5012 C   0  0  0  0  0  0  0  0  0  0  0  0
  152.0366  143.9483  161.5918 C   0  0  0  0  0  0  0  0  0  0  0  0
  152.9399  142.8149  161.0912 C   0  0  0  0  0  0  0  0  0  0  0  0
  152.3360  142.1189  159.8586 C   0  0  0  0  0  0  0  0  0  0  0  0
  151.3625  136.0831  156.2515 H   0  0  0  0  0  0  0  0  0  0  0  0
  151.2718  135.4307  154.6189 H   0  0  0  0  0  0  0  0  0  0  0  0
  150.1470  134.8744  155.8545 H   0  0  0  0  0  0  0  0  0  0  0  0
  149.0845  140.5627  153.4133 H   0  0  0  0  0  0  0  0  0  0  0  0
  148.2574  140.7513  154.9607 H   0  0  0  0  0  0  0  0  0  0  0  0
  147.3985  140.0735  153.5755 H   0  0  0  0  0  0  0  0  0  0  0  0
  152.1825  138.1672  154.8218 H   0  0  0  0  0  0  0  0  0  0  0  0
  151.5163  139.4907  153.9060 H   0  0  0  0  0  0  0  0  0  0  0  0
  149.6572  140.5566  155.6716 H   0  0  0  0  0  0  0  0  0  0  0  0
  149.3849  142.0227  157.3490 H   0  0  0  0  0  0  0  0  0  0  0  0
  150.2906  140.9574  158.3813 H   0  0  0  0  0  0  0  0  0  0  0  0
  152.3803  142.0827  157.0423 H   0  0  0  0  0  0  0  0  0  0  0  0
  151.2315  143.3678  156.7899 H   0  0  0  0  0  0  0  0  0  0  0  0
  151.1803  145.0684  158.3821 H   0  0  0  0  0  0  0  0  0  0  0  0
  152.7073  145.6460  160.4173 H   0  0  0  0  0  0  0  0  0  0  0  0
  150.9911  145.6599  160.7720 H   0  0  0  0  0  0  0  0  0  0  0  0
  152.4622  144.4086  162.4839 H   0  0  0  0  0  0  0  0  0  0  0  0
  151.0725  143.5327  161.8880 H   0  0  0  0  0  0  0  0  0  0  0  0
  153.9179  143.2244  160.8335 H   0  0  0  0  0  0  0  0  0  0  0  0
  153.1100  142.0860  161.8840 H   0  0  0  0  0  0  0  0  0  0  0  0
  151.5202  141.4630  160.1636 H   0  0  0  0  0  0  0  0  0  0  0  0
  153.0943  141.4831  159.4030 H   0  0  0  0  0  0  0  0  0  0  0  0
  1  2  1  0  0  0  0
  1 20  1  0  0  0  0
  1 21  1  0  0  0  0
  1 22  1  0  0  0  0
  2  7  1  0  0  0  0
  2  3  2  0  0  0  0
  3  4  1  0  0  0  0
  4  5  1  0  0  0  0
  5  6  1  0  0  0  0
  5  7  2  0  0  0  0
  6 23  1  0  0  0  0
  6 24  1  0  0  0  0
  6 25  1  0  0  0  0
  7  8  1  0  0  0  0
  8  9  1  0  0  0  0
  8 26  1  0  0  0  0
  8 27  1  0  0  0  0
  9 10  2  0  0  0  0
  9 11  1  0  0  0  0
 11 12  1  0  0  0  0
 11 28  1  0  0  0  0
 12 13  1  0  0  0  0
 12 29  1  0  0  0  0
 12 30  1  0  0  0  0
 13 14  1  0  0  0  0
 13 31  1  0  0  0  0
 13 32  1  0  0  0  0
 14 19  1  0  0  0  0
 14 15  2  0  0  0  0
 15 16  1  0  0  0  0
 15 33  1  0  0  0  0
 16 17  1  0  0  0  0
 16 34  1  0  0  0  0
 16 35  1  0  0  0  0
 17 18  1  0  0  0  0
 17 36  1  0  0  0  0
 17 37  1  0  0  0  0
 18 19  1  0  0  0  0
 18 38  1  0  0  0  0
 18 39  1  0  0  0  0
 19 40  1  0  0  0  0
 19 41  1  0  0  0  0
M  END
> <s_m_source_file>
AV-unprocessed.smi

> <i_m_source_file_index>
590

> <i_lp_mmshare_version>
43012

> <i_f3d_flags>
0

> <s_epik_input>
W0NIM11jMW5vYyhbQ0gzXSljMVtDSDJdQyg9TylbTkhdW0NIMl1bQ0gyXUMyPVtDSF1bQ0gyXVtDSDJdW0NIMl1bQ0gyXTI=

> <s_epik_cmdline>
J2VwaWtfcHl0aG9uJywgJy1waCcsICc3LjAnLCAnLXRuJywgJzgnLCAnLW1hJywgJzIwMCcsICctbWV0YWxfYmluZGluZycsICctaW1hZScsICc8aW5maWxlLm1hZT4nLCAnLW9tYWUnLCAnPG91dGZpbGUubWFlPic=

> <r_lp_tautomer_probability>
1

> <r_epik_Ionization_Penalty>
1.93189e-08

> <r_epik_Ionization_Penalty_Charging>
0

> <r_epik_Ionization_Penalty_Neutral>
1.93189e-08

> <r_epik_State_Penalty>
-0

> <r_epik_Charging_Adjusted_Penalty>
0

> <i_epik_Tot_Q>
0

> <i_epik_Tot_abs_Q>
0

> <r_epik_Metal_State_Penalty>
-0

> <b_epik_Metal_Only>
0

> <s_lp_Force_Field>
OPLS_2005

> <r_lp_Energy>
2.22272

> <b_lp_Chiralities_Consistent>
1

> <s_lp_Variant>
AV-unprocessed.smi:590-1

> <Gold.Version>
5.8.1

> <Gold.Id.Protein>
6NUR|6NUR_protein|mol2

> <Gold.PLP.Fitness>
43.6402

> <Gold.PLP.PLP>
-41.6048

> <Gold.PLP.part.hbond>
-1.0000

> <Gold.PLP.part.metal>
0.0000

> <Gold.PLP.part.buried>
-5.0085

> <Gold.PLP.part.nonpolar>
-34.9297

> <Gold.PLP.part.repulsive>
0.2981

> <Gold.PLP.ligand.clash>
0.0000

> <Gold.PLP.ligand.torsion>
0.4960

> <Gold.PLP.Chemscore.Hbond>
1.0000

> <Gold.PLP.Chemscore.CHOScore>
0.0000

> <Gold.PLP.Chemscore.Metal>
0.0000

> <Gold.Chemscore.Hbonds>
donor molecule, donor type, donor heavy atom, donor atom, acceptor molecule, acceptor atom, score
      P1  H  7997  8008       L1    10  0.96

> <Gold.PLP.Chemscore.Internal.Correction>
0.0274

> <Gold.Rescore>
     Score         DG    S(hbond)    S(metal)    S(lipo)     H(rot)  DE(clash)    DE(int)     intcor
     16.75     -18.56       0.99        0.00     117.52       1.55       0.26       1.55       ----

> <Gold.Chemscore.Fitness>
16.7477

> <Gold.Chemscore.DG>
-18.5574

> <Gold.Chemscore.ZeroCoef>
-5.4800

> <Gold.Chemscore.Hbond>
0.9863

> <Gold.Chemscore.Metal>
0.0000

> <Gold.Chemscore.Lipo>
117.5160

> <Gold.Chemscore.Internal_Hbond>
0.0000

> <Gold.Chemscore.DEClash>
0.2645

> <Gold.Chemscore.DEInternal>
1.5452

> <Gold.Chemscore.Rot>
1.5493

> <Gold.Chemscore.Internal.Correction>
   9.000000E+99

> <Gold.Chemscore.Hbonds>
donor molecule, donor type, donor heavy atom, donor atom, acceptor molecule, acceptor atom, score
      P1  H  7997  8008       L1    10  0.88

> <Gold.Chemscore.Hbond.Weighted>
-3.2943

> <Gold.Chemscore.Metal.Weighted>
-0.0000

> <Gold.Chemscore.Lipo.Weighted>
-13.7494

> <Gold.Chemscore.Internal_Hbond.Weighted>
0.0000

> <Gold.Chemscore.DEClash.Weighted>
0.2645

> <Gold.Chemscore.DEInternal.Weighted>
1.5452

> <Gold.Chemscore.Rot.Weighted>
3.9663

> <Gold.Chemscore.Internal.Correction.Weighted>
   9.000000E+99

> <Gold.Protein.RotatedTorsions>
[ 6907 6896 6895 6894 ] final  -95.52 input  -60.11 | X-H torsion
[ 7974 7965 7964 7962 ] final   30.95 input  175.53 | X-H torsion
[ 8008 7997 7996 7995 ] final  -31.64 input   59.86 | X-H torsion
[ 10167 10162 10161 10158 ] final  129.35 input  -65.29 | X-H torsion
[ 10718 10713 10712 10709 ] final -119.21 input   66.30 | X-H torsion
[ 10763 10752 10751 10750 ] final  109.01 input  -60.55 | X-H torsion
[ 11005 11000 10999 10996 ] final  -18.96 input  -57.11 | X-H torsion

> <Gold.Protein.ActiveResidues>
 VAL166  LYS551  ARG553  GLY616  TRP617  ASP618  TYR619  PRO620  LYS621  CYS622 
 ASP623  PHE694  ASN695  SER759  ASP760  ASP761  ALA762  ILE779  LEU786  VAL792 
 PHE793  MET794  SER795  GLU796  ALA797  LYS798  CYS799  TRP800  GLU811  SER814 

> <Gold.Protein.RotatedAtoms>
  150.6966  134.1645  159.4188 H   0  0  0  0  0  0  0  0  0  0  0  0  # atno 6907 bound_to 6896
  151.9625  135.0114  160.0557 H   0  0  0  0  0  0  0  0  0  0  0  0  # atno 6908 bound_to 6896
  152.1914  133.4741  159.5047 H   0  0  0  0  0  0  0  0  0  0  0  0  # atno 6909 bound_to 6896
  146.1580  139.6721  142.9053 H   0  0  0  0  0  0  0  0  0  0  0  0  # atno 7974 bound_to 7965
  154.4207  140.1759  156.1599 H   0  0  0  0  0  0  0  0  0  0  0  0  # atno 8008 bound_to 7997
  155.9846  140.3374  155.6671 H   0  0  0  0  0  0  0  0  0  0  0  0  # atno 8009 bound_to 7997
  155.6454  140.0684  157.2595 H   0  0  0  0  0  0  0  0  0  0  0  0  # atno 8010 bound_to 7997
  139.5482  144.6791  151.4407 H   0  0  0  0  0  0  0  0  0  0  0  0  # atno 10167 bound_to 10162
  156.1164  130.6289  150.9388 H   0  0  0  0  0  0  0  0  0  0  0  0  # atno 10718 bound_to 10713
  153.4287  135.3794  155.2157 H   0  0  0  0  0  0  0  0  0  0  0  0  # atno 10763 bound_to 10752
  154.8749  135.3834  154.4295 H   0  0  0  0  0  0  0  0  0  0  0  0  # atno 10764 bound_to 10752
  153.4825  135.7088  153.5993 H   0  0  0  0  0  0  0  0  0  0  0  0  # atno 10765 bound_to 10752
  140.8320  133.7990  155.9768 H   0  0  0  0  0  0  0  0  0  0  0  0  # atno 11005 bound_to 11000
  145.4659  141.0434  143.2726 LP  0  0  0  0  0  0  0  0  0  0  0  0  # atno 17320 bound_to 7965
  144.7989  139.6179  143.7080 LP  0  0  0  0  0  0  0  0  0  0  0  0  # atno 17321 bound_to 7965
  140.6737  143.8238  150.7031 LP  0  0  0  0  0  0  0  0  0  0  0  0  # atno 17342 bound_to 10162
  140.1670  143.4227  152.2027 LP  0  0  0  0  0  0  0  0  0  0  0  0  # atno 17343 bound_to 10162
  157.6347  131.0917  150.8371 LP  0  0  0  0  0  0  0  0  0  0  0  0  # atno 17370 bound_to 10713
  156.8474  130.5069  149.5315 LP  0  0  0  0  0  0  0  0  0  0  0  0  # atno 17371 bound_to 10713
  140.8988  134.2404  157.5053 LP  0  0  0  0  0  0  0  0  0  0  0  0  # atno 17394 bound_to 11000
  139.8705  134.9697  156.4674 LP  0  0  0  0  0  0  0  0  0  0  0  0  # atno 17395 bound_to 11000

$$$$
