AV-unprocessed.smi:618|AV-procd|sdf|3082|dock2
  -GOLD-   22720 0 03D 1   1.00000     0.00000
 Structure written by MMmdl.
 40 42  0  0  0  0  0  0  0  0  1 V2000
  150.9113  134.8789  155.7450 O   0  0  0  0  0  0  0  0  0  0  0  0
  150.2026  135.2032  154.7924 C   0  0  0  0  0  0  0  0  0  0  0  0
  149.4486  134.3370  154.1010 N   0  0  0  0  0  0  0  0  0  0  0  0
  149.3785  132.9003  154.3467 C   0  0  0  0  0  0  0  0  0  0  0  0
  148.5451  132.1833  153.2713 C   0  0  2  0  0  0  0  0  0  0  0  0
  147.4279  133.0928  152.7096 C   0  0  0  0  0  0  0  0  0  0  0  0
  146.6026  132.3440  151.7816 N   0  0  0  0  0  0  0  0  0  0  0  0
  145.4624  133.0295  151.2196 C   0  0  0  0  0  0  0  0  0  0  0  0
  144.5888  131.9014  150.6428 C   0  0  0  0  0  0  0  0  0  0  0  0
  145.0629  130.6300  151.3816 C   0  0  0  0  0  0  0  0  0  0  0  0
  146.0365  131.1873  152.4215 C   0  0  1  0  0  0  0  0  0  0  0  0
  147.1427  130.2558  152.9364 C   0  0  0  0  0  0  0  0  0  0  0  0
  147.9600  131.0042  153.8392 O   0  0  0  0  0  0  0  0  0  0  0  0
  150.0935  136.4458  154.2922 N   0  0  0  0  0  0  0  0  0  0  0  0
  150.7364  137.6343  154.7317 C   0  0  0  0  0  0  0  0  0  0  0  0
  151.7915  137.5115  155.6594 C   0  0  0  0  0  0  0  0  0  0  0  0
  152.4578  138.6710  156.0986 C   0  0  0  0  0  0  0  0  0  0  0  0
  152.0462  139.9152  155.5834 C   0  0  0  0  0  0  0  0  0  0  0  0
  151.0489  140.0502  154.6841 N   0  0  0  0  0  0  0  0  0  0  0  0
  150.4130  138.9336  154.2677 C   0  0  0  0  0  0  0  0  0  0  0  0
  148.8998  134.6928  153.3324 H   0  0  0  0  0  0  0  0  0  0  0  0
  150.3765  132.4638  154.4155 H   0  0  0  0  0  0  0  0  0  0  0  0
  148.9137  132.7587  155.3228 H   0  0  0  0  0  0  0  0  0  0  0  0
  149.2027  131.8839  152.4530 H   0  0  0  0  0  0  0  0  0  0  0  0
  146.8153  133.4755  153.5274 H   0  0  0  0  0  0  0  0  0  0  0  0
  147.8620  133.9569  152.2058 H   0  0  0  0  0  0  0  0  0  0  0  0
  144.9167  133.5581  152.0030 H   0  0  0  0  0  0  0  0  0  0  0  0
  145.7612  133.7577  150.4652 H   0  0  0  0  0  0  0  0  0  0  0  0
  143.5300  132.1011  150.8092 H   0  0  0  0  0  0  0  0  0  0  0  0
  144.7459  131.7968  149.5687 H   0  0  0  0  0  0  0  0  0  0  0  0
  144.2421  130.0787  151.8409 H   0  0  0  0  0  0  0  0  0  0  0  0
  145.5768  129.9621  150.6889 H   0  0  0  0  0  0  0  0  0  0  0  0
  145.4479  131.5142  153.2816 H   0  0  0  0  0  0  0  0  0  0  0  0
  146.7161  129.4001  153.4596 H   0  0  0  0  0  0  0  0  0  0  0  0
  147.7502  129.8695  152.1166 H   0  0  0  0  0  0  0  0  0  0  0  0
  149.5345  136.5395  153.4571 H   0  0  0  0  0  0  0  0  0  0  0  0
  152.0862  136.5425  156.0353 H   0  0  0  0  0  0  0  0  0  0  0  0
  153.2652  138.6084  156.8130 H   0  0  0  0  0  0  0  0  0  0  0  0
  152.5346  140.8254  155.8981 H   0  0  0  0  0  0  0  0  0  0  0  0
  149.6446  139.1030  153.5299 H   0  0  0  0  0  0  0  0  0  0  0  0
  1  2  2  0  0  0  0
  2  3  1  0  0  0  0
  2 14  1  0  0  0  0
  3  4  1  0  0  0  0
  3 21  1  0  0  0  0
  4  5  1  0  0  0  0
  4 22  1  0  0  0  0
  4 23  1  0  0  0  0
  5 13  1  0  0  0  0
  5  6  1  0  0  0  0
  5 24  1  0  0  0  0
  6  7  1  0  0  0  0
  6 25  1  0  0  0  0
  6 26  1  0  0  0  0
  7 11  1  0  0  0  0
  7  8  1  0  0  0  0
  8  9  1  0  0  0  0
  8 27  1  0  0  0  0
  8 28  1  0  0  0  0
  9 10  1  0  0  0  0
  9 29  1  0  0  0  0
  9 30  1  0  0  0  0
 10 11  1  0  0  0  0
 10 31  1  0  0  0  0
 10 32  1  0  0  0  0
 11 12  1  0  0  0  0
 11 33  1  0  0  0  0
 12 13  1  0  0  0  0
 12 34  1  0  0  0  0
 12 35  1  0  0  0  0
 14 15  1  0  0  0  0
 14 36  1  0  0  0  0
 15 20  1  0  0  0  0
 15 16  2  0  0  0  0
 16 17  1  0  0  0  0
 16 37  1  0  0  0  0
 17 18  2  0  0  0  0
 17 38  1  0  0  0  0
 18 19  1  0  0  0  0
 18 39  1  0  0  0  0
 19 20  2  0  0  0  0
 20 40  1  0  0  0  0
M  END
> <s_m_source_file>
AV-unprocessed.smi

> <i_m_source_file_index>
618

> <i_lp_mmshare_version>
43012

> <i_f3d_flags>
0

> <s_epik_input>
W2NIXTFuW2NIXVtjSF1bY0hdYzFbTkhdQyg9TylbTkhdW0NIMl1bQ0BIXShbQ0gyXTIpT1tDSDJdW0NAQEhdKE4yMylbQ0gyXVtDSDJdW0NIMl0z

> <s_epik_cmdline>
J2VwaWtfcHl0aG9uJywgJy1waCcsICc3LjAnLCAnLXRuJywgJzgnLCAnLW1hJywgJzIwMCcsICctbWV0YWxfYmluZGluZycsICctaW1hZScsICc8aW5maWxlLm1hZT4nLCAnLW9tYWUnLCAnPG91dGZpbGUubWFlPic=

> <r_epik_Ionization_Penalty>
1.07277

> <r_epik_Ionization_Penalty_Charging>
0

> <r_epik_Ionization_Penalty_Neutral>
1.07277

> <r_epik_State_Penalty>
1.13623

> <r_epik_Charging_Adjusted_Penalty>
1.13623

> <i_epik_Tot_Q>
0

> <i_epik_Tot_abs_Q>
0

> <r_epik_Metal_State_Penalty>
1.13277

> <b_epik_Metal_Only>
0

> <s_lp_Force_Field>
OPLS_2005

> <r_lp_Energy>
50.2081

> <b_lp_Chiralities_Consistent>
1

> <s_lp_Variant>
AV-unprocessed.smi:618-9

> <Gold.Version>
5.8.1

> <Gold.Id.Protein>
6NUR|6NUR_protein|mol2

> <Gold.PLP.Fitness>
48.8582

> <Gold.PLP.PLP>
-38.1066

> <Gold.PLP.part.hbond>
-4.3884

> <Gold.PLP.part.metal>
0.0000

> <Gold.PLP.part.buried>
-3.8986

> <Gold.PLP.part.nonpolar>
-30.7718

> <Gold.PLP.part.repulsive>
0.4148

> <Gold.PLP.ligand.clash>
0.0000

> <Gold.PLP.ligand.torsion>
0.3967

> <Gold.PLP.Chemscore.Hbond>
2.8502

> <Gold.PLP.Chemscore.CHOScore>
0.9972

> <Gold.PLP.Chemscore.Metal>
0.0000

> <Gold.Chemscore.Hbonds>
donor molecule, donor type, donor heavy atom, donor atom, acceptor molecule, acceptor atom, score
      L1  H     3    21       P1  7948  0.62
      L1  H    14    36       P1  7948  1.00
      P1  H  7989  7998       L1    19  1.00
      P1  H 10752 10763       L1     1  0.16
      L1  C    20    40       P1  7957  0.97

> <Gold.PLP.Chemscore.Internal.Correction>
0.0026

> <Gold.Rescore>
     Score         DG    S(hbond)    S(metal)    S(lipo)     H(rot)  DE(clash)    DE(int)     intcor
     17.58     -19.49       1.96        0.00      90.99       1.25       0.00       1.91       ----

> <Gold.Chemscore.Fitness>
17.5799

> <Gold.Chemscore.DG>
-19.4897

> <Gold.Chemscore.ZeroCoef>
-5.4800

> <Gold.Chemscore.Hbond>
1.9624

> <Gold.Chemscore.Metal>
0.0000

> <Gold.Chemscore.Lipo>
90.9863

> <Gold.Chemscore.Internal_Hbond>
0.0000

> <Gold.Chemscore.DEClash>
0.0019

> <Gold.Chemscore.DEInternal>
1.9079

> <Gold.Chemscore.Rot>
1.2461

> <Gold.Chemscore.Internal.Correction>
   9.000000E+99

> <Gold.Chemscore.Hbonds>
donor molecule, donor type, donor heavy atom, donor atom, acceptor molecule, acceptor atom, score
      L1  H     3    21       P1  7948  0.12
      L1  H    14    36       P1  7948  0.65
      P1  H  7989  7998       L1    19  0.43
      P1  H 10752 10763       L1     1  0.04

> <Gold.Chemscore.Hbond.Weighted>
-6.5544

> <Gold.Chemscore.Metal.Weighted>
-0.0000

> <Gold.Chemscore.Lipo.Weighted>
-10.6454

> <Gold.Chemscore.Internal_Hbond.Weighted>
0.0000

> <Gold.Chemscore.DEClash.Weighted>
0.0019

> <Gold.Chemscore.DEInternal.Weighted>
1.9079

> <Gold.Chemscore.Rot.Weighted>
3.1901

> <Gold.Chemscore.Internal.Correction.Weighted>
   9.000000E+99

> <Gold.Protein.RotatedTorsions>
[ 6907 6896 6895 6894 ] final -163.07 input  -60.11 | X-H torsion
[ 7974 7965 7964 7962 ] final   94.23 input  175.53 | X-H torsion
[ 8008 7997 7996 7995 ] final   18.85 input   59.86 | X-H torsion
[ 10167 10162 10161 10158 ] final  171.67 input  -65.29 | X-H torsion
[ 10718 10713 10712 10709 ] final   50.75 input   66.30 | X-H torsion
[ 10763 10752 10751 10750 ] final   78.56 input  -60.55 | X-H torsion
[ 11005 11000 10999 10996 ] final -177.40 input  -57.11 | X-H torsion

> <Gold.Protein.ActiveResidues>
 VAL166  LYS551  ARG553  GLY616  TRP617  ASP618  TYR619  PRO620  LYS621  CYS622 
 ASP623  PHE694  ASN695  SER759  ASP760  ASP761  ALA762  ILE779  LEU786  VAL792 
 PHE793  MET794  SER795  GLU796  ALA797  LYS798  CYS799  TRP800  GLU811  SER814 

> <Gold.Protein.RotatedAtoms>
  151.3903  133.3791  159.2719 H   0  0  0  0  0  0  0  0  0  0  0  0  # atno 6907 bound_to 6896
  150.9510  134.8911  159.7682 H   0  0  0  0  0  0  0  0  0  0  0  0  # atno 6908 bound_to 6896
  152.5112  134.3858  159.9419 H   0  0  0  0  0  0  0  0  0  0  0  0  # atno 6909 bound_to 6896
  145.4684  139.2283  143.2949 H   0  0  0  0  0  0  0  0  0  0  0  0  # atno 7974 bound_to 7965
  154.9121  140.3015  155.5261 H   0  0  0  0  0  0  0  0  0  0  0  0  # atno 8008 bound_to 7997
  156.3014  140.2387  156.4097 H   0  0  0  0  0  0  0  0  0  0  0  0  # atno 8009 bound_to 7997
  154.8415  140.0413  157.1533 H   0  0  0  0  0  0  0  0  0  0  0  0  # atno 8010 bound_to 7997
  139.5053  144.3459  151.9971 H   0  0  0  0  0  0  0  0  0  0  0  0  # atno 10167 bound_to 10162
  157.4914  130.8379  149.8208 H   0  0  0  0  0  0  0  0  0  0  0  0  # atno 10718 bound_to 10713
  153.0883  135.4872  154.8641 H   0  0  0  0  0  0  0  0  0  0  0  0  # atno 10763 bound_to 10752
  154.7238  135.3045  154.9006 H   0  0  0  0  0  0  0  0  0  0  0  0  # atno 10764 bound_to 10752
  153.9662  135.6806  153.4799 H   0  0  0  0  0  0  0  0  0  0  0  0  # atno 10765 bound_to 10752
  140.4413  134.6428  157.4759 H   0  0  0  0  0  0  0  0  0  0  0  0  # atno 11005 bound_to 11000
  146.2411  140.5460  142.8934 LP  0  0  0  0  0  0  0  0  0  0  0  0  # atno 17320 bound_to 7965
  144.7960  140.6123  143.6510 LP  0  0  0  0  0  0  0  0  0  0  0  0  # atno 17321 bound_to 7965
  140.2897  144.3768  150.6092 LP  0  0  0  0  0  0  0  0  0  0  0  0  # atno 17342 bound_to 10162
  140.5956  143.2167  151.7170 LP  0  0  0  0  0  0  0  0  0  0  0  0  # atno 17343 bound_to 10162
  156.0176  130.3808  150.2062 LP  0  0  0  0  0  0  0  0  0  0  0  0  # atno 17370 bound_to 10713
  157.0251  130.9991  151.3328 LP  0  0  0  0  0  0  0  0  0  0  0  0  # atno 17371 bound_to 10713
  140.0068  134.6752  155.9443 LP  0  0  0  0  0  0  0  0  0  0  0  0  # atno 17394 bound_to 11000
  141.1704  133.6537  156.4631 LP  0  0  0  0  0  0  0  0  0  0  0  0  # atno 17395 bound_to 11000

$$$$
