AV-unprocessed.smi:2510|AV-procd|sdf|9883|dock9
  -GOLD-   2272013523D 1   1.00000     0.00000
 Structure written by MMmdl.
 48 49  0  0  0  0  0  0  0  0  1 V2000
  141.8174  134.8967  153.4105 C   0  0  0  0  0  0  0  0  0  0  0  0
  143.3027  135.0237  153.7902 C   0  0  0  0  0  0  0  0  0  0  0  0
  144.3360  134.8537  152.6498 C   0  0  0  0  0  0  0  0  0  0  0  0
  143.7922  135.6464  151.4264 C   0  0  0  0  0  0  0  0  0  0  0  0
  144.4605  135.3539  150.0691 C   0  0  0  0  0  0  0  0  0  0  0  0
  145.8318  135.1101  153.0048 C   0  0  2  0  0  0  0  0  0  0  0  0
  146.3427  136.4009  152.5520 N   0  0  0  0  0  0  0  0  0  0  0  0
  145.7225  137.5761  152.7297 C   0  0  0  0  0  0  0  0  0  0  0  0
  144.6322  137.6821  153.2936 O   0  0  0  0  0  0  0  0  0  0  0  0
  146.4624  138.8050  152.1877 C   0  0  0  0  0  0  0  0  0  0  0  0
  147.4649  139.3592  153.1521 C   0  0  0  0  0  0  0  0  0  0  0  0
  147.5164  140.5535  153.8155 C   0  0  0  0  0  0  0  0  0  0  0  0
  148.7198  140.4829  154.5770 C   0  0  0  0  0  0  0  0  0  0  0  0
  149.2931  141.5148  155.5027 C   0  0  0  0  0  0  0  0  0  0  0  0
  149.3644  139.3394  154.3994 N   0  0  0  0  0  0  0  0  0  0  0  0
  148.5912  138.6634  153.5296 N   0  0  0  0  0  0  0  0  0  0  0  0
  146.2397  133.9452  152.0931 C   0  0  1  0  0  0  0  0  0  0  0  0
  147.4594  133.1112  152.4676 C   0  0  0  0  0  0  0  0  0  0  0  0
  144.8286  133.4039  152.3748 C   0  0  2  0  0  0  0  0  0  0  0  0
  144.1967  132.7915  151.2612 O   0  0  0  0  0  0  0  0  0  0  0  0
  144.7297  131.5205  150.9338 C   0  0  0  0  0  0  0  0  0  0  0  0
  148.8390  137.7380  153.2091 H   0  0  0  0  0  0  0  0  0  0  0  0
  141.1880  135.1319  154.2689 H   0  0  0  0  0  0  0  0  0  0  0  0
  141.5647  133.8819  153.1034 H   0  0  0  0  0  0  0  0  0  0  0  0
  141.5369  135.5793  152.6093 H   0  0  0  0  0  0  0  0  0  0  0  0
  143.4310  136.0057  154.2464 H   0  0  0  0  0  0  0  0  0  0  0  0
  143.4987  134.3019  154.5843 H   0  0  0  0  0  0  0  0  0  0  0  0
  142.7235  135.4609  151.3122 H   0  0  0  0  0  0  0  0  0  0  0  0
  143.8751  136.7184  151.6052 H   0  0  0  0  0  0  0  0  0  0  0  0
  144.0644  136.0200  149.3025 H   0  0  0  0  0  0  0  0  0  0  0  0
  144.2681  134.3359  149.7313 H   0  0  0  0  0  0  0  0  0  0  0  0
  145.5391  135.4990  150.0954 H   0  0  0  0  0  0  0  0  0  0  0  0
  146.0854  134.8848  154.0416 H   0  0  0  0  0  0  0  0  0  0  0  0
  147.2331  136.3985  152.0761 H   0  0  0  0  0  0  0  0  0  0  0  0
  146.9577  138.5331  151.2546 H   0  0  0  0  0  0  0  0  0  0  0  0
  145.7308  139.5747  151.9391 H   0  0  0  0  0  0  0  0  0  0  0  0
  146.7987  141.3591  153.7655 H   0  0  0  0  0  0  0  0  0  0  0  0
  148.6539  142.3965  155.5549 H   0  0  0  0  0  0  0  0  0  0  0  0
  150.2784  141.8393  155.1673 H   0  0  0  0  0  0  0  0  0  0  0  0
  149.3972  141.1209  156.5140 H   0  0  0  0  0  0  0  0  0  0  0  0
  146.3065  134.2796  151.0562 H   0  0  0  0  0  0  0  0  0  0  0  0
  147.3820  132.7275  153.4850 H   0  0  0  0  0  0  0  0  0  0  0  0
  148.3728  133.7029  152.4084 H   0  0  0  0  0  0  0  0  0  0  0  0
  147.5823  132.2582  151.8016 H   0  0  0  0  0  0  0  0  0  0  0  0
  144.7953  132.7749  153.2664 H   0  0  0  0  0  0  0  0  0  0  0  0
  144.1506  131.0837  150.1206 H   0  0  0  0  0  0  0  0  0  0  0  0
  144.6834  130.8383  151.7834 H   0  0  0  0  0  0  0  0  0  0  0  0
  145.7633  131.5971  150.5985 H   0  0  0  0  0  0  0  0  0  0  0  0
  1  2  1  0  0  0  0
  1 23  1  0  0  0  0
  1 24  1  0  0  0  0
  1 25  1  0  0  0  0
  2  3  1  0  0  0  0
  2 26  1  0  0  0  0
  2 27  1  0  0  0  0
  3 19  1  0  0  0  0
  3  4  1  0  0  0  0
  3  6  1  0  0  0  0
  4  5  1  0  0  0  0
  4 28  1  0  0  0  0
  4 29  1  0  0  0  0
  5 30  1  0  0  0  0
  5 31  1  0  0  0  0
  5 32  1  0  0  0  0
  6  7  1  0  0  0  0
  6 17  1  0  0  0  0
  6 33  1  0  0  0  0
  7  8  1  0  0  0  0
  7 34  1  0  0  0  0
  8  9  2  0  0  0  0
  8 10  1  0  0  0  0
 10 35  1  0  0  0  0
 10 36  1  0  0  0  0
 10 11  1  0  0  0  0
 11 16  1  0  0  0  0
 11 12  2  0  0  0  0
 12 13  1  0  0  0  0
 12 37  1  0  0  0  0
 13 14  1  0  0  0  0
 13 15  2  0  0  0  0
 14 38  1  0  0  0  0
 14 39  1  0  0  0  0
 14 40  1  0  0  0  0
 15 16  1  0  0  0  0
 16 22  1  0  0  0  0
 17 18  1  0  0  0  0
 17 19  1  0  0  0  0
 17 41  1  0  0  0  0
 18 42  1  0  0  0  0
 18 43  1  0  0  0  0
 18 44  1  0  0  0  0
 19 20  1  0  0  0  0
 19 45  1  0  0  0  0
 20 21  1  0  0  0  0
 21 46  1  0  0  0  0
 21 47  1  0  0  0  0
 21 48  1  0  0  0  0
M  END
> <s_m_source_file>
AV-unprocessed.smi

> <i_m_source_file_index>
2510

> <i_lp_mmshare_version>
43012

> <i_f3d_flags>
0

> <s_epik_input>
W0NIM11PW0NAQEhdMVtDQEhdKFtDSDNdKVtDQEBIXShDMShbQ0gyXVtDSDNdKVtDSDJdW0NIM10pW05IXUMoPU8pW0NIMl1jMltjSF1jKFtDSDNdKVtuSF1uMg==

> <s_epik_cmdline>
J2VwaWtfcHl0aG9uJywgJy1waCcsICc3LjAnLCAnLXRuJywgJzgnLCAnLW1hJywgJzIwMCcsICctbWV0YWxfYmluZGluZycsICctaW1hZScsICc8aW5maWxlLm1hZT4nLCAnLW9tYWUnLCAnPG91dGZpbGUubWFlPic=

> <r_lp_tautomer_probability>
0.5

> <r_epik_Ionization_Penalty>
0.000134763

> <r_epik_Ionization_Penalty_Charging>
0

> <r_epik_Ionization_Penalty_Neutral>
0.000134763

> <r_epik_State_Penalty>
0.41068

> <r_epik_Charging_Adjusted_Penalty>
0.41068

> <i_epik_Tot_Q>
0

> <i_epik_Tot_abs_Q>
0

> <r_epik_Metal_State_Penalty>
0.410661

> <b_epik_Metal_Only>
0

> <s_lp_Force_Field>
OPLS_2005

> <r_lp_Energy>
25.9976

> <b_lp_Chiralities_Consistent>
1

> <s_lp_Variant>
AV-unprocessed.smi:2510-14

> <Gold.Version>
5.8.1

> <Gold.Id.Protein>
6NUR|6NUR_protein|mol2

> <Gold.PLP.Fitness>
41.5043

> <Gold.PLP.PLP>
-37.2401

> <Gold.PLP.part.hbond>
-3.0000

> <Gold.PLP.part.metal>
0.0000

> <Gold.PLP.part.buried>
-2.0602

> <Gold.PLP.part.nonpolar>
-33.3861

> <Gold.PLP.part.repulsive>
1.1017

> <Gold.PLP.ligand.clash>
0.0000

> <Gold.PLP.ligand.torsion>
1.1466

> <Gold.PLP.Chemscore.Hbond>
2.0000

> <Gold.PLP.Chemscore.CHOScore>
0.0000

> <Gold.PLP.Chemscore.Metal>
0.0000

> <Gold.Chemscore.Hbonds>
donor molecule, donor type, donor heavy atom, donor atom, acceptor molecule, acceptor atom, score
      L1  H     7    34       P1  7948  1.00
      L1  H    16    22       P1  7948  1.00

> <Gold.PLP.Chemscore.Internal.Correction>
0.5573

> <Gold.Rescore>
     Score         DG    S(hbond)    S(metal)    S(lipo)     H(rot)  DE(clash)    DE(int)     intcor
     13.39     -17.04       1.85        0.00      85.74       1.81       0.70       2.96       ----

> <Gold.Chemscore.Fitness>
13.3874

> <Gold.Chemscore.DG>
-17.0447

> <Gold.Chemscore.ZeroCoef>
-5.4800

> <Gold.Chemscore.Hbond>
1.8465

> <Gold.Chemscore.Metal>
0.0000

> <Gold.Chemscore.Lipo>
85.7378

> <Gold.Chemscore.Internal_Hbond>
0.0000

> <Gold.Chemscore.DEClash>
0.7006

> <Gold.Chemscore.DEInternal>
2.9567

> <Gold.Chemscore.Rot>
1.8102

> <Gold.Chemscore.Internal.Correction>
   9.000000E+99

> <Gold.Chemscore.Hbonds>
donor molecule, donor type, donor heavy atom, donor atom, acceptor molecule, acceptor atom, score
      L1  H     7    34       P1  7948  1.00
      L1  H    16    22       P1  7948  0.94

> <Gold.Chemscore.Hbond.Weighted>
-6.1674

> <Gold.Chemscore.Metal.Weighted>
-0.0000

> <Gold.Chemscore.Lipo.Weighted>
-10.0313

> <Gold.Chemscore.Internal_Hbond.Weighted>
0.0000

> <Gold.Chemscore.DEClash.Weighted>
0.7006

> <Gold.Chemscore.DEInternal.Weighted>
2.9567

> <Gold.Chemscore.Rot.Weighted>
4.6341

> <Gold.Chemscore.Internal.Correction.Weighted>
   9.000000E+99

> <Gold.Protein.RotatedTorsions>
[ 6907 6896 6895 6894 ] final -171.11 input  -60.11 | X-H torsion
[ 7974 7965 7964 7962 ] final   37.00 input  175.53 | X-H torsion
[ 8008 7997 7996 7995 ] final  -57.32 input   59.86 | X-H torsion
[ 10167 10162 10161 10158 ] final -175.14 input  -65.29 | X-H torsion
[ 10718 10713 10712 10709 ] final  -95.54 input   66.30 | X-H torsion
[ 10763 10752 10751 10750 ] final  129.69 input  -60.55 | X-H torsion
[ 11005 11000 10999 10996 ] final  114.71 input  -57.11 | X-H torsion

> <Gold.Protein.ActiveResidues>
 VAL166  LYS551  ARG553  GLY616  TRP617  ASP618  TYR619  PRO620  LYS621  CYS622 
 ASP623  PHE694  ASN695  SER759  ASP760  ASP761  ALA762  ILE779  LEU786  VAL792 
 PHE793  MET794  SER795  GLU796  ALA797  LYS798  CYS799  TRP800  GLU811  SER814 

> <Gold.Protein.RotatedAtoms>
  151.5186  133.3471  159.2897 H   0  0  0  0  0  0  0  0  0  0  0  0  # atno 6907 bound_to 6896
  150.8666  134.8034  159.7134 H   0  0  0  0  0  0  0  0  0  0  0  0  # atno 6908 bound_to 6896
  152.4669  134.5064  159.9792 H   0  0  0  0  0  0  0  0  0  0  0  0  # atno 6909 bound_to 6896
  146.1170  139.5948  142.9315 H   0  0  0  0  0  0  0  0  0  0  0  0  # atno 7974 bound_to 7965
  154.4263  140.1109  156.5778 H   0  0  0  0  0  0  0  0  0  0  0  0  # atno 8008 bound_to 7997
  155.6144  140.3494  155.4613 H   0  0  0  0  0  0  0  0  0  0  0  0  # atno 8009 bound_to 7997
  156.0073  140.1212  157.0478 H   0  0  0  0  0  0  0  0  0  0  0  0  # atno 8010 bound_to 7997
  139.5596  144.1902  152.1217 H   0  0  0  0  0  0  0  0  0  0  0  0  # atno 10167 bound_to 10162
  156.0045  130.5113  150.6091 H   0  0  0  0  0  0  0  0  0  0  0  0  # atno 10718 bound_to 10713
  153.7459  135.3217  155.3312 H   0  0  0  0  0  0  0  0  0  0  0  0  # atno 10763 bound_to 10752
  154.8279  135.4556  154.0980 H   0  0  0  0  0  0  0  0  0  0  0  0  # atno 10764 bound_to 10752
  153.2168  135.6943  153.8129 H   0  0  0  0  0  0  0  0  0  0  0  0  # atno 10765 bound_to 10752
  139.8988  134.9572  156.6934 H   0  0  0  0  0  0  0  0  0  0  0  0  # atno 11005 bound_to 11000
  145.5546  141.0410  143.2259 LP  0  0  0  0  0  0  0  0  0  0  0  0  # atno 17320 bound_to 7965
  144.7562  139.7069  143.7253 LP  0  0  0  0  0  0  0  0  0  0  0  0  # atno 17321 bound_to 7965
  140.1413  144.5199  150.6742 LP  0  0  0  0  0  0  0  0  0  0  0  0  # atno 17342 bound_to 10162
  140.6874  143.2357  151.5223 LP  0  0  0  0  0  0  0  0  0  0  0  0  # atno 17343 bound_to 10162
  157.3927  131.0798  151.1379 LP  0  0  0  0  0  0  0  0  0  0  0  0  # atno 17370 bound_to 10713
  157.2066  130.6419  149.5758 LP  0  0  0  0  0  0  0  0  0  0  0  0  # atno 17371 bound_to 10713
  140.7207  133.9143  155.8145 LP  0  0  0  0  0  0  0  0  0  0  0  0  # atno 17394 bound_to 11000
  141.0230  134.0863  157.4100 LP  0  0  0  0  0  0  0  0  0  0  0  0  # atno 17395 bound_to 11000

$$$$
