AV-unprocessed.smi:2532|AV-procd|sdf|9969|dock10
  -GOLD-   2272014 13D 1   1.00000     0.00000
 Structure written by MMmdl.
 36 38  0  0  0  0  0  0  0  0  1 V2000
  148.9315  143.5239  158.2570 O   0  0  0  0  0  0  0  0  0  0  0  0
  149.9806  142.5800  158.3540 C   0  0  1  0  0  0  0  0  0  0  0  0
  150.3168  142.0758  156.9414 C   0  0  0  0  0  0  0  0  0  0  0  0
  149.6530  140.8432  156.7168 O   0  0  0  0  0  0  0  0  0  0  0  0
  149.8961  140.3188  155.4213 C   0  0  0  0  0  0  0  0  0  0  0  0
  148.7372  140.6908  154.5526 C   0  0  0  0  0  0  0  0  0  0  0  0
  148.2784  141.9562  154.2872 C   0  0  0  0  0  0  0  0  0  0  0  0
  147.1629  141.9772  153.3994 C   0  0  0  0  0  0  0  0  0  0  0  0
  146.7868  140.7259  152.9897 C   0  0  0  0  0  0  0  0  0  0  0  0
  147.8009  139.4929  153.6881 S   0  0  0  0  0  0  0  0  0  0  0  0
  151.1944  143.2490  159.0279 C   0  0  0  0  0  0  0  0  0  0  0  0
  152.2372  142.2981  159.3722 N   0  0  0  0  0  0  0  0  0  0  0  0
  152.7819  141.3681  158.5644 C   0  0  0  0  0  0  0  0  0  0  0  0
  153.7331  140.5945  159.0798 N   0  0  0  0  0  0  0  0  0  0  0  0
  153.8174  141.0797  160.3736 C   0  0  0  0  0  0  0  0  0  0  0  0
  154.6457  140.6854  161.4488 C   0  0  0  0  0  0  0  0  0  0  0  0
  154.5533  141.3351  162.6973 C   0  0  0  0  0  0  0  0  0  0  0  0
  153.6325  142.3853  162.8905 C   0  0  0  0  0  0  0  0  0  0  0  0
  152.7963  142.7954  161.8343 C   0  0  0  0  0  0  0  0  0  0  0  0
  152.8931  142.1464  160.5893 C   0  0  0  0  0  0  0  0  0  0  0  0
  148.8950  143.8405  157.3673 H   0  0  0  0  0  0  0  0  0  0  0  0
  149.6487  141.7440  158.9715 H   0  0  0  0  0  0  0  0  0  0  0  0
  150.0531  142.8169  156.1846 H   0  0  0  0  0  0  0  0  0  0  0  0
  151.3908  141.9007  156.8599 H   0  0  0  0  0  0  0  0  0  0  0  0
  150.8221  140.7280  155.0143 H   0  0  0  0  0  0  0  0  0  0  0  0
  149.9968  139.2334  155.4604 H   0  0  0  0  0  0  0  0  0  0  0  0
  148.7011  142.8612  154.6981 H   0  0  0  0  0  0  0  0  0  0  0  0
  146.6839  142.8964  153.0954 H   0  0  0  0  0  0  0  0  0  0  0  0
  145.9827  140.4539  152.3221 H   0  0  0  0  0  0  0  0  0  0  0  0
  151.6272  143.9983  158.3637 H   0  0  0  0  0  0  0  0  0  0  0  0
  150.8871  143.7768  159.9317 H   0  0  0  0  0  0  0  0  0  0  0  0
  152.4601  141.2520  157.5396 H   0  0  0  0  0  0  0  0  0  0  0  0
  155.3536  139.8813  161.3125 H   0  0  0  0  0  0  0  0  0  0  0  0
  155.1923  141.0255  163.5113 H   0  0  0  0  0  0  0  0  0  0  0  0
  153.5682  142.8761  163.8507 H   0  0  0  0  0  0  0  0  0  0  0  0
  152.0883  143.5979  161.9799 H   0  0  0  0  0  0  0  0  0  0  0  0
  1  2  1  0  0  0  0
  1 21  1  0  0  0  0
  2  3  1  0  0  0  0
  2 11  1  0  0  0  0
  2 22  1  0  0  0  0
  3  4  1  0  0  0  0
  3 23  1  0  0  0  0
  3 24  1  0  0  0  0
  4  5  1  0  0  0  0
  5  6  1  0  0  0  0
  5 25  1  0  0  0  0
  5 26  1  0  0  0  0
  6 10  1  0  0  0  0
  6  7  2  0  0  0  0
  7  8  1  0  0  0  0
  7 27  1  0  0  0  0
  8  9  2  0  0  0  0
  8 28  1  0  0  0  0
  9 10  1  0  0  0  0
  9 29  1  0  0  0  0
 11 12  1  0  0  0  0
 11 30  1  0  0  0  0
 11 31  1  0  0  0  0
 12 20  1  0  0  0  0
 12 13  1  0  0  0  0
 13 14  2  0  0  0  0
 13 32  1  0  0  0  0
 14 15  1  0  0  0  0
 15 20  2  0  0  0  0
 15 16  1  0  0  0  0
 16 17  2  0  0  0  0
 16 33  1  0  0  0  0
 17 18  1  0  0  0  0
 17 34  1  0  0  0  0
 18 19  2  0  0  0  0
 18 35  1  0  0  0  0
 19 20  1  0  0  0  0
 19 36  1  0  0  0  0
M  END
> <s_m_source_file>
AV-unprocessed.smi

> <i_m_source_file_index>
2532

> <i_lp_mmshare_version>
43012

> <i_f3d_flags>
0

> <s_epik_input>
W2NIXTFbY0hdW2NIXVtjSF1jKGMxMiluKFtjSF1uMilbQ0gyXVtDQEhdKFtPSF0pW0NIMl1PW0NIMl1jM1tjSF1bY0hdW2NIXXMz

> <s_epik_cmdline>
J2VwaWtfcHl0aG9uJywgJy1waCcsICc3LjAnLCAnLXRuJywgJzgnLCAnLW1hJywgJzIwMCcsICctbWV0YWxfYmluZGluZycsICctaW1hZScsICc8aW5maWxlLm1hZT4nLCAnLW9tYWUnLCAnPG91dGZpbGUubWFlPic=

> <r_epik_Ionization_Penalty>
0.0678455

> <r_epik_Ionization_Penalty_Charging>
0

> <r_epik_Ionization_Penalty_Neutral>
0.0678455

> <r_epik_State_Penalty>
0.0593261

> <r_epik_Charging_Adjusted_Penalty>
0.0593261

> <i_epik_Tot_Q>
0

> <i_epik_Tot_abs_Q>
0

> <r_epik_Metal_State_Penalty>
6.23947e-05

> <b_epik_Metal_Only>
0

> <s_lp_Force_Field>
OPLS_2005

> <r_lp_Energy>
10.0551

> <b_lp_Chiralities_Consistent>
1

> <s_lp_Variant>
AV-unprocessed.smi:2532-2

> <Gold.Version>
5.8.1

> <Gold.Id.Protein>
6NUR|6NUR_protein|mol2

> <Gold.PLP.Fitness>
48.3063

> <Gold.PLP.PLP>
-43.7320

> <Gold.PLP.part.hbond>
-2.5945

> <Gold.PLP.part.metal>
0.0000

> <Gold.PLP.part.buried>
1.5598

> <Gold.PLP.part.nonpolar>
-40.0544

> <Gold.PLP.part.repulsive>
0.0369

> <Gold.PLP.ligand.clash>
0.0000

> <Gold.PLP.ligand.torsion>
0.9416

> <Gold.PLP.Chemscore.Hbond>
1.1369

> <Gold.PLP.Chemscore.CHOScore>
0.9956

> <Gold.PLP.Chemscore.Metal>
0.0000

> <Gold.Chemscore.Hbonds>
donor molecule, donor type, donor heavy atom, donor atom, acceptor molecule, acceptor atom, score
      L1  H     1    21       P1  8028  0.70
      P1  H  7997  8010       L1    14  0.29
      L1  C     9    29       P1 10175  1.00

> <Gold.PLP.Chemscore.Internal.Correction>
0.0600

> <Gold.Rescore>
     Score         DG    S(hbond)    S(metal)    S(lipo)     H(rot)  DE(clash)    DE(int)     intcor
     15.15     -16.27       0.81        0.00     120.73       2.36       0.22       0.90       ----

> <Gold.Chemscore.Fitness>
15.1518

> <Gold.Chemscore.DG>
-16.2684

> <Gold.Chemscore.ZeroCoef>
-5.4800

> <Gold.Chemscore.Hbond>
0.8114

> <Gold.Chemscore.Metal>
0.0000

> <Gold.Chemscore.Lipo>
120.7257

> <Gold.Chemscore.Internal_Hbond>
0.0000

> <Gold.Chemscore.DEClash>
0.2186

> <Gold.Chemscore.DEInternal>
0.8980

> <Gold.Chemscore.Rot>
2.3620

> <Gold.Chemscore.Internal.Correction>
   9.000000E+99

> <Gold.Chemscore.Hbonds>
donor molecule, donor type, donor heavy atom, donor atom, acceptor molecule, acceptor atom, score
      L1  H     1    21       P1  8028  0.07
      P1  H  7997  8010       L1    14  0.13

> <Gold.Chemscore.Hbond.Weighted>
-2.7102

> <Gold.Chemscore.Metal.Weighted>
-0.0000

> <Gold.Chemscore.Lipo.Weighted>
-14.1249

> <Gold.Chemscore.Internal_Hbond.Weighted>
0.0000

> <Gold.Chemscore.DEClash.Weighted>
0.2186

> <Gold.Chemscore.DEInternal.Weighted>
0.8980

> <Gold.Chemscore.Rot.Weighted>
6.0468

> <Gold.Chemscore.Internal.Correction.Weighted>
   9.000000E+99

> <Gold.Protein.RotatedTorsions>
[ 6907 6896 6895 6894 ] final  -57.62 input  -60.11 | X-H torsion
[ 7974 7965 7964 7962 ] final  163.02 input  175.53 | X-H torsion
[ 8008 7997 7996 7995 ] final    3.99 input   59.86 | X-H torsion
[ 10167 10162 10161 10158 ] final    1.66 input  -65.29 | X-H torsion
[ 10718 10713 10712 10709 ] final -125.79 input   66.30 | X-H torsion
[ 10763 10752 10751 10750 ] final  -66.05 input  -60.55 | X-H torsion
[ 11005 11000 10999 10996 ] final   47.53 input  -57.11 | X-H torsion

> <Gold.Protein.ActiveResidues>
 VAL166  LYS551  ARG553  GLY616  TRP617  ASP618  TYR619  PRO620  LYS621  CYS622 
 ASP623  PHE694  ASN695  SER759  ASP760  ASP761  ALA762  ILE779  LEU786  VAL792 
 PHE793  MET794  SER795  GLU796  ALA797  LYS798  CYS799  TRP800  GLU811  SER814 

> <Gold.Protein.RotatedAtoms>
  150.8071  134.7203  159.6654 H   0  0  0  0  0  0  0  0  0  0  0  0  # atno 6907 bound_to 6896
  152.4191  134.5985  160.0003 H   0  0  0  0  0  0  0  0  0  0  0  0  # atno 6908 bound_to 6896
  151.6205  133.3302  159.3123 H   0  0  0  0  0  0  0  0  0  0  0  0  # atno 6909 bound_to 6896
  144.7609  139.8123  143.6333 H   0  0  0  0  0  0  0  0  0  0  0  0  # atno 7974 bound_to 7965
  154.7104  140.2691  155.6634 H   0  0  0  0  0  0  0  0  0  0  0  0  # atno 8008 bound_to 7997
  156.2793  140.2754  156.1669 H   0  0  0  0  0  0  0  0  0  0  0  0  # atno 8009 bound_to 7997
  155.0642  140.0371  157.2577 H   0  0  0  0  0  0  0  0  0  0  0  0  # atno 8010 bound_to 7997
  140.6672  143.7147  150.7851 H   0  0  0  0  0  0  0  0  0  0  0  0  # atno 10167 bound_to 10162
  156.1707  130.6665  151.0176 H   0  0  0  0  0  0  0  0  0  0  0  0  # atno 10718 bound_to 10713
  154.3541  135.6130  153.5657 H   0  0  0  0  0  0  0  0  0  0  0  0  # atno 10763 bound_to 10752
  152.9796  135.5799  154.4709 H   0  0  0  0  0  0  0  0  0  0  0  0  # atno 10764 bound_to 10752
  154.4435  135.2851  155.1808 H   0  0  0  0  0  0  0  0  0  0  0  0  # atno 10765 bound_to 10752
  140.1271  134.4754  155.8550 H   0  0  0  0  0  0  0  0  0  0  0  0  # atno 11005 bound_to 11000
  146.1671  139.4806  142.9951 LP  0  0  0  0  0  0  0  0  0  0  0  0  # atno 17320 bound_to 7965
  145.6623  141.0237  143.1702 LP  0  0  0  0  0  0  0  0  0  0  0  0  # atno 17321 bound_to 7965
  140.0826  143.4954  152.2522 LP  0  0  0  0  0  0  0  0  0  0  0  0  # atno 17342 bound_to 10162
  139.5926  144.7555  151.3364 LP  0  0  0  0  0  0  0  0  0  0  0  0  # atno 17343 bound_to 10162
  157.6801  131.0840  150.7393 LP  0  0  0  0  0  0  0  0  0  0  0  0  # atno 17370 bound_to 10713
  156.7452  130.4751  149.5468 LP  0  0  0  0  0  0  0  0  0  0  0  0  # atno 17371 bound_to 10713
  141.2163  133.6782  156.6999 LP  0  0  0  0  0  0  0  0  0  0  0  0  # atno 17394 bound_to 11000
  140.2890  134.8256  157.4000 LP  0  0  0  0  0  0  0  0  0  0  0  0  # atno 17395 bound_to 11000

$$$$
