AV-unprocessed.smi:634|AV-procd|sdf|3133|dock9
  -GOLD-   22720 0 53D 1   1.00000     0.00000
 Structure written by MMmdl.
 33 34  0  0  0  0  0  0  0  0  1 V2000
  143.7134  132.4149  149.2032 C   0  0  0  0  0  0  0  0  0  0  0  0
  144.5437  133.1910  150.1673 C   0  0  0  0  0  0  0  0  0  0  0  0
  145.7658  132.9644  150.7352 C   0  0  0  0  0  0  0  0  0  0  0  0
  145.9563  134.1106  151.5520 C   0  0  0  0  0  0  0  0  0  0  0  0
  147.1364  134.2660  152.3229 N   0  0  0  0  0  0  0  0  0  0  0  0
  147.6101  133.4407  153.2716 C   0  0  0  0  0  0  0  0  0  0  0  0
  147.0811  132.3839  153.6164 O   0  0  0  0  0  0  0  0  0  0  0  0
  148.7450  133.9222  153.8059 N   0  0  0  0  0  0  0  0  0  0  0  0
  149.5628  133.3435  154.8812 C   0  0  1  0  0  0  0  0  0  0  0  0
  150.1514  131.9860  154.4416 C   0  0  0  0  0  0  0  0  0  0  0  0
  150.7067  134.3441  155.1745 C   0  0  0  0  0  0  0  0  0  0  0  0
  150.1615  135.5364  155.9709 C   0  0  0  0  0  0  0  0  0  0  0  0
  148.8102  134.8647  157.0055 S   0  0  0  0  0  0  0  0  0  0  0  0
  149.2802  134.7032  158.3896 O   0  0  0  0  0  0  0  0  0  0  0  0
  147.5727  135.6011  156.7061 O   0  0  0  0  0  0  0  0  0  0  0  0
  148.7545  133.2211  156.1946 C   0  0  0  0  0  0  0  0  0  0  0  0
  144.9403  134.9578  151.4921 N   0  0  0  0  0  0  0  0  0  0  0  0
  144.0296  134.3725  150.6047 O   0  0  0  0  0  0  0  0  0  0  0  0
  144.2924  131.6098  148.7504 H   0  0  0  0  0  0  0  0  0  0  0  0
  143.3471  133.0575  148.4025 H   0  0  0  0  0  0  0  0  0  0  0  0
  142.8525  131.9729  149.7045 H   0  0  0  0  0  0  0  0  0  0  0  0
  146.4169  132.1161  150.5856 H   0  0  0  0  0  0  0  0  0  0  0  0
  147.6697  135.1032  152.1416 H   0  0  0  0  0  0  0  0  0  0  0  0
  149.0793  134.8003  153.4367 H   0  0  0  0  0  0  0  0  0  0  0  0
  150.8395  131.5926  155.1903 H   0  0  0  0  0  0  0  0  0  0  0  0
  150.7041  132.0789  153.5061 H   0  0  0  0  0  0  0  0  0  0  0  0
  149.3775  131.2327  154.2956 H   0  0  0  0  0  0  0  0  0  0  0  0
  151.4629  133.8499  155.7860 H   0  0  0  0  0  0  0  0  0  0  0  0
  151.2128  134.6706  154.2649 H   0  0  0  0  0  0  0  0  0  0  0  0
  150.9163  136.0115  156.5975 H   0  0  0  0  0  0  0  0  0  0  0  0
  149.7358  136.2882  155.3060 H   0  0  0  0  0  0  0  0  0  0  0  0
  147.7203  132.9026  156.0676 H   0  0  0  0  0  0  0  0  0  0  0  0
  149.2335  132.5137  156.8721 H   0  0  0  0  0  0  0  0  0  0  0  0
  1  2  1  0  0  0  0
  1 19  1  0  0  0  0
  1 20  1  0  0  0  0
  1 21  1  0  0  0  0
  2 18  1  0  0  0  0
  2  3  2  0  0  0  0
  3  4  1  0  0  0  0
  3 22  1  0  0  0  0
  4  5  1  0  0  0  0
  4 17  2  0  0  0  0
  5  6  1  0  0  0  0
  5 23  1  0  0  0  0
  6  7  2  0  0  0  0
  6  8  1  0  0  0  0
  8  9  1  0  0  0  0
  8 24  1  0  0  0  0
  9 16  1  0  0  0  0
  9 10  1  0  0  0  0
  9 11  1  0  0  0  0
 10 25  1  0  0  0  0
 10 26  1  0  0  0  0
 10 27  1  0  0  0  0
 11 12  1  0  0  0  0
 11 28  1  0  0  0  0
 11 29  1  0  0  0  0
 12 13  1  0  0  0  0
 12 30  1  0  0  0  0
 12 31  1  0  0  0  0
 13 14  2  0  0  0  0
 13 15  2  0  0  0  0
 13 16  1  0  0  0  0
 16 32  1  0  0  0  0
 16 33  1  0  0  0  0
 17 18  1  0  0  0  0
M  END
> <s_m_source_file>
AV-unprocessed.smi

> <i_m_source_file_index>
634

> <i_lp_mmshare_version>
43012

> <i_f3d_flags>
0

> <s_epik_input>
W0NIM11jMVtjSF1jKG5vMSlbTkhdQyg9TylbTkhdW0NAQF0yKFtDSDNdKVtDSDJdW0NIMl1TKD1PKSg9TylbQ0gyXTI=

> <s_epik_cmdline>
J2VwaWtfcHl0aG9uJywgJy1waCcsICc3LjAnLCAnLXRuJywgJzgnLCAnLW1hJywgJzIwMCcsICctbWV0YWxfYmluZGluZycsICctaW1hZScsICc8aW5maWxlLm1hZT4nLCAnLW9tYWUnLCAnPG91dGZpbGUubWFlPic=

> <r_lp_tautomer_probability>
1

> <r_epik_Ionization_Penalty>
3.87281e-05

> <r_epik_Ionization_Penalty_Charging>
0

> <r_epik_Ionization_Penalty_Neutral>
3.87281e-05

> <r_epik_State_Penalty>
-0

> <r_epik_Charging_Adjusted_Penalty>
0

> <i_epik_Tot_Q>
0

> <i_epik_Tot_abs_Q>
0

> <r_epik_Metal_State_Penalty>
0.0249287

> <b_epik_Metal_Only>
0

> <s_lp_Force_Field>
OPLS_2005

> <r_lp_Energy>
3.17223

> <b_lp_Chiralities_Consistent>
1

> <s_lp_Variant>
AV-unprocessed.smi:634-1

> <Gold.Version>
5.8.1

> <Gold.Id.Protein>
6NUR|6NUR_protein|mol2

> <Gold.PLP.Fitness>
31.8278

> <Gold.PLP.PLP>
-24.2430

> <Gold.PLP.part.hbond>
-3.0000

> <Gold.PLP.part.metal>
0.0000

> <Gold.PLP.part.buried>
-4.5486

> <Gold.PLP.part.nonpolar>
-16.6053

> <Gold.PLP.part.repulsive>
0.4780

> <Gold.PLP.ligand.clash>
0.0000

> <Gold.PLP.ligand.torsion>
0.5591

> <Gold.PLP.Chemscore.Hbond>
2.8960

> <Gold.PLP.Chemscore.CHOScore>
0.0000

> <Gold.PLP.Chemscore.Metal>
0.0000

> <Gold.Chemscore.Hbonds>
donor molecule, donor type, donor heavy atom, donor atom, acceptor molecule, acceptor atom, score
      L1  H     5    23       P1  7948  1.00
      L1  H     8    24       P1  7948  0.67
      P1  H  6896  6909       L1    14  1.00

> <Gold.PLP.Chemscore.Internal.Correction>
0.0151

> <Gold.Rescore>
     Score         DG    S(hbond)    S(metal)    S(lipo)     H(rot)  DE(clash)    DE(int)     intcor
     16.05     -16.63       2.32        0.00      50.95       1.00       0.05       0.52       ----

> <Gold.Chemscore.Fitness>
16.0547

> <Gold.Chemscore.DG>
-16.6259

> <Gold.Chemscore.ZeroCoef>
-5.4800

> <Gold.Chemscore.Hbond>
2.3189

> <Gold.Chemscore.Metal>
0.0000

> <Gold.Chemscore.Lipo>
50.9479

> <Gold.Chemscore.Internal_Hbond>
0.0000

> <Gold.Chemscore.DEClash>
0.0488

> <Gold.Chemscore.DEInternal>
0.5225

> <Gold.Chemscore.Rot>
1.0000

> <Gold.Chemscore.Internal.Correction>
   9.000000E+99

> <Gold.Chemscore.Hbonds>
donor molecule, donor type, donor heavy atom, donor atom, acceptor molecule, acceptor atom, score
      L1  H     5    23       P1  7948  0.94
      L1  H     8    24       P1  7948  0.11
      P1  H  6896  6909       L1    14  1.00

> <Gold.Chemscore.Hbond.Weighted>
-7.7450

> <Gold.Chemscore.Metal.Weighted>
-0.0000

> <Gold.Chemscore.Lipo.Weighted>
-5.9609

> <Gold.Chemscore.Internal_Hbond.Weighted>
0.0000

> <Gold.Chemscore.DEClash.Weighted>
0.0488

> <Gold.Chemscore.DEInternal.Weighted>
0.5225

> <Gold.Chemscore.Rot.Weighted>
2.5600

> <Gold.Chemscore.Internal.Correction.Weighted>
   9.000000E+99

> <Gold.Protein.RotatedTorsions>
[ 6907 6896 6895 6894 ] final   32.18 input  -60.11 | X-H torsion
[ 7974 7965 7964 7962 ] final   84.14 input  175.53 | X-H torsion
[ 8008 7997 7996 7995 ] final  -41.57 input   59.86 | X-H torsion
[ 10167 10162 10161 10158 ] final  -93.68 input  -65.29 | X-H torsion
[ 10718 10713 10712 10709 ] final  102.44 input   66.30 | X-H torsion
[ 10763 10752 10751 10750 ] final -116.10 input  -60.55 | X-H torsion
[ 11005 11000 10999 10996 ] final  176.88 input  -57.11 | X-H torsion

> <Gold.Protein.ActiveResidues>
 VAL166  LYS551  ARG553  GLY616  TRP617  ASP618  TYR619  PRO620  LYS621  CYS622 
 ASP623  PHE694  ASN695  SER759  ASP760  ASP761  ALA762  ILE779  LEU786  VAL792 
 PHE793  MET794  SER795  GLU796  ALA797  LYS798  CYS799  TRP800  GLU811  SER814 

> <Gold.Protein.RotatedAtoms>
  152.0708  134.9534  160.0574 H   0  0  0  0  0  0  0  0  0  0  0  0  # atno 6907 bound_to 6896
  152.0861  133.4172  159.4531 H   0  0  0  0  0  0  0  0  0  0  0  0  # atno 6908 bound_to 6896
  150.6836  134.2845  159.4684 H   0  0  0  0  0  0  0  0  0  0  0  0  # atno 6909 bound_to 6896
  145.6026  139.2355  143.2237 H   0  0  0  0  0  0  0  0  0  0  0  0  # atno 7974 bound_to 7965
  154.4003  140.1496  156.3213 H   0  0  0  0  0  0  0  0  0  0  0  0  # atno 8008 bound_to 7997
  155.8527  140.3457  155.5683 H   0  0  0  0  0  0  0  0  0  0  0  0  # atno 8009 bound_to 7997
  155.7966  140.0864  157.1970 H   0  0  0  0  0  0  0  0  0  0  0  0  # atno 8010 bound_to 7997
  140.3222  143.3042  152.0034 H   0  0  0  0  0  0  0  0  0  0  0  0  # atno 10167 bound_to 10162
  157.6802  131.0753  150.5404 H   0  0  0  0  0  0  0  0  0  0  0  0  # atno 10718 bound_to 10713
  154.8506  135.4358  154.1767 H   0  0  0  0  0  0  0  0  0  0  0  0  # atno 10763 bound_to 10752
  153.2868  135.6958  153.7338 H   0  0  0  0  0  0  0  0  0  0  0  0  # atno 10764 bound_to 10752
  153.6521  135.3449  155.3077 H   0  0  0  0  0  0  0  0  0  0  0  0  # atno 10765 bound_to 10752
  140.3780  134.6971  157.4433 H   0  0  0  0  0  0  0  0  0  0  0  0  # atno 11005 bound_to 11000
  146.1565  140.6851  142.9297 LP  0  0  0  0  0  0  0  0  0  0  0  0  # atno 17320 bound_to 7965
  144.7303  140.4652  143.6942 LP  0  0  0  0  0  0  0  0  0  0  0  0  # atno 17321 bound_to 7965
  139.4872  144.6302  151.7085 LP  0  0  0  0  0  0  0  0  0  0  0  0  # atno 17342 bound_to 10162
  140.5473  144.0482  150.6112 LP  0  0  0  0  0  0  0  0  0  0  0  0  # atno 17343 bound_to 10162
  156.5711  130.4280  149.6019 LP  0  0  0  0  0  0  0  0  0  0  0  0  # atno 17370 bound_to 10713
  156.2740  130.7033  151.1838 LP  0  0  0  0  0  0  0  0  0  0  0  0  # atno 17371 bound_to 10713
  140.0500  134.6144  155.8873 LP  0  0  0  0  0  0  0  0  0  0  0  0  # atno 17394 bound_to 11000
  141.1933  133.6578  156.5541 LP  0  0  0  0  0  0  0  0  0  0  0  0  # atno 17395 bound_to 11000

$$$$
