AV-unprocessed.smi:1748|AV-procd|sdf|7039|dock8
  -GOLD-   22720 8253D 1   1.00000     0.00000
 Structure written by MMmdl.
 40 41  0  0  0  0  0  0  0  0  2 V2000
  145.5692  131.3251  151.2247 C   0  0  0  0  0  0  0  0  0  0  0  0
  145.0535  132.5517  151.8699 N   0  3  2  0  0  0  0  0  0  0  0  0
  143.8289  133.0660  151.2070 C   0  0  0  0  0  0  0  0  0  0  0  0
  143.2490  134.2669  151.9729 C   0  0  0  0  0  0  0  0  0  0  0  0
  144.2979  135.3756  152.1368 C   0  0  0  0  0  0  0  0  0  0  0  0
  145.5639  134.8111  152.8014 C   0  0  2  0  0  0  0  0  0  0  0  0
  146.5804  135.8541  152.9035 N   0  0  0  0  0  0  0  0  0  0  0  0
  146.4020  137.0499  153.4834 C   0  0  0  0  0  0  0  0  0  0  0  0
  145.3430  137.3900  154.0105 O   0  0  0  0  0  0  0  0  0  0  0  0
  147.5258  137.7876  153.4237 N   0  0  0  0  0  0  0  0  0  0  0  0
  147.7532  139.0951  153.8852 C   0  0  0  0  0  0  0  0  0  0  0  0
  146.7816  140.0176  154.1118 C   0  0  0  0  0  0  0  0  0  0  0  0
  147.0859  141.3609  154.5745 C   0  0  0  0  0  0  0  0  0  0  0  0
  145.9815  142.3564  154.8939 C   0  0  0  0  0  0  0  0  0  0  0  0
  146.1686  142.9283  156.0842 F   0  0  0  0  0  0  0  0  0  0  0  0
  145.9569  143.3164  153.9701 F   0  0  0  0  0  0  0  0  0  0  0  0
  144.7906  141.7571  154.8993 F   0  0  0  0  0  0  0  0  0  0  0  0
  148.3856  141.6462  154.7771 C   0  0  0  0  0  0  0  0  0  0  0  0
  149.3921  140.7105  154.5264 N   0  0  0  0  0  0  0  0  0  0  0  0
  149.1671  139.4508  154.0902 C   0  0  0  0  0  0  0  0  0  0  0  0
  150.1089  138.6839  153.8917 O   0  0  0  0  0  0  0  0  0  0  0  0
  146.0955  133.6001  152.0054 C   0  0  0  0  0  0  0  0  0  0  0  0
  150.3441  141.0063  154.6872 H   0  0  0  0  0  0  0  0  0  0  0  0
  145.8831  131.5246  150.1992 H   0  0  0  0  0  0  0  0  0  0  0  0
  144.8029  130.5496  151.2034 H   0  0  0  0  0  0  0  0  0  0  0  0
  146.4247  130.9309  151.7742 H   0  0  0  0  0  0  0  0  0  0  0  0
  144.0616  133.3521  150.1800 H   0  0  0  0  0  0  0  0  0  0  0  0
  143.0815  132.2733  151.1537 H   0  0  0  0  0  0  0  0  0  0  0  0
  142.3745  134.6556  151.4503 H   0  0  0  0  0  0  0  0  0  0  0  0
  142.9032  133.9425  152.9553 H   0  0  0  0  0  0  0  0  0  0  0  0
  144.5427  135.7945  151.1594 H   0  0  0  0  0  0  0  0  0  0  0  0
  143.8867  136.1912  152.7329 H   0  0  0  0  0  0  0  0  0  0  0  0
  145.2985  134.4825  153.8086 H   0  0  0  0  0  0  0  0  0  0  0  0
  147.4835  135.6526  152.4984 H   0  0  0  0  0  0  0  0  0  0  0  0
  148.3378  137.3391  153.0248 H   0  0  0  0  0  0  0  0  0  0  0  0
  145.7441  139.7879  153.9310 H   0  0  0  0  0  0  0  0  0  0  0  0
  148.7518  142.5938  155.1439 H   0  0  0  0  0  0  0  0  0  0  0  0
  146.9634  133.1755  152.5120 H   0  0  0  0  0  0  0  0  0  0  0  0
  146.4289  133.9126  151.0141 H   0  0  0  0  0  0  0  0  0  0  0  0
  144.7860  132.2905  152.8083 H   0  0  0  0  0  0  0  0  0  0  0  0
  1  2  1  0  0  0  0
  1 24  1  0  0  0  0
  1 25  1  0  0  0  0
  1 26  1  0  0  0  0
  2 22  1  0  0  0  0
  2  3  1  0  0  0  0
  2 40  1  0  0  0  0
  3  4  1  0  0  0  0
  3 27  1  0  0  0  0
  3 28  1  0  0  0  0
  4  5  1  0  0  0  0
  4 29  1  0  0  0  0
  4 30  1  0  0  0  0
  5  6  1  0  0  0  0
  5 31  1  0  0  0  0
  5 32  1  0  0  0  0
  6  7  1  0  0  0  0
  6 22  1  0  0  0  0
  6 33  1  0  0  0  0
  7  8  1  0  0  0  0
  7 34  1  0  0  0  0
  8  9  2  0  0  0  0
  8 10  1  0  0  0  0
 10 11  1  0  0  0  0
 10 35  1  0  0  0  0
 11 20  1  0  0  0  0
 11 12  2  0  0  0  0
 12 13  1  0  0  0  0
 12 36  1  0  0  0  0
 13 14  1  0  0  0  0
 13 18  2  0  0  0  0
 14 15  1  0  0  0  0
 14 16  1  0  0  0  0
 14 17  1  0  0  0  0
 18 19  1  0  0  0  0
 18 37  1  0  0  0  0
 19 23  1  0  0  0  0
 19 20  1  0  0  0  0
 20 21  2  0  0  0  0
 22 38  1  0  0  0  0
 22 39  1  0  0  0  0
M  CHG  1   2   1
M  END
> <s_m_source_file>
AV-unprocessed.smi

> <i_m_source_file_index>
1748

> <i_lp_mmshare_version>
43012

> <i_f3d_flags>
0

> <s_epik_input>
W0NIM11OMVtDSDJdW0NIMl1bQ0gyXVtDQEhdKFtDSDJdMSlbTkhdQyg9TylbTkhdYzJbY0hdYyhDKEYpKEYpRilbY0hdW25IXWMyPU8=

> <s_epik_cmdline>
J2VwaWtfcHl0aG9uJywgJy1waCcsICc3LjAnLCAnLXRuJywgJzgnLCAnLW1hJywgJzIwMCcsICctbWV0YWxfYmluZGluZycsICctaW1hZScsICc8aW5maWxlLm1hZT4nLCAnLW9tYWUnLCAnPG91dGZpbGUubWFlPic=

> <r_lp_tautomer_probability>
1

> <r_epik_Ionization_Penalty>
0.00746315

> <r_epik_Ionization_Penalty_Charging>
0.00744398

> <r_epik_Ionization_Penalty_Neutral>
1.91704e-05

> <r_epik_State_Penalty>
-0

> <r_epik_Charging_Adjusted_Penalty>
0.00744398

> <i_epik_Tot_Q>
1

> <i_epik_Tot_abs_Q>
1

> <r_epik_Metal_State_Penalty>
0.379332

> <b_epik_Metal_Only>
0

> <s_lp_Force_Field>
OPLS_2005

> <r_lp_Energy>
25.4307

> <b_lp_Chiralities_Consistent>
1

> <s_lp_Variant>
AV-unprocessed.smi:1748-4

> <Gold.Version>
5.8.1

> <Gold.Id.Protein>
6NUR|6NUR_protein|mol2

> <Gold.PLP.Fitness>
37.8231

> <Gold.PLP.PLP>
-29.8824

> <Gold.PLP.part.hbond>
-2.0000

> <Gold.PLP.part.metal>
0.0000

> <Gold.PLP.part.buried>
-2.0862

> <Gold.PLP.part.nonpolar>
-26.3370

> <Gold.PLP.part.repulsive>
1.3997

> <Gold.PLP.ligand.clash>
0.0000

> <Gold.PLP.ligand.torsion>
0.5326

> <Gold.PLP.Chemscore.Hbond>
1.9920

> <Gold.PLP.Chemscore.CHOScore>
1.0000

> <Gold.PLP.Chemscore.Metal>
0.0000

> <Gold.Chemscore.Hbonds>
donor molecule, donor type, donor heavy atom, donor atom, acceptor molecule, acceptor atom, score
      L1  H     7    34       P1  7948  0.99
      L1  H    10    35       P1  7948  0.96
      L1  C    18    37       P1  8028  1.00

> <Gold.PLP.Chemscore.Internal.Correction>
0.0298

> <Gold.Rescore>
     Score         DG    S(hbond)    S(metal)    S(lipo)     H(rot)  DE(clash)    DE(int)     intcor
     13.34     -16.21       1.92        0.00      58.73       1.00       0.12       2.75       ----

> <Gold.Chemscore.Fitness>
13.3386

> <Gold.Chemscore.DG>
-16.2143

> <Gold.Chemscore.ZeroCoef>
-5.4800

> <Gold.Chemscore.Hbond>
1.9230

> <Gold.Chemscore.Metal>
0.0000

> <Gold.Chemscore.Lipo>
58.7306

> <Gold.Chemscore.Internal_Hbond>
0.0000

> <Gold.Chemscore.DEClash>
0.1228

> <Gold.Chemscore.DEInternal>
2.7528

> <Gold.Chemscore.Rot>
1.0000

> <Gold.Chemscore.Internal.Correction>
   9.000000E+99

> <Gold.Chemscore.Hbonds>
donor molecule, donor type, donor heavy atom, donor atom, acceptor molecule, acceptor atom, score
      L1  H     7    34       P1  7948  0.94
      L1  H    10    35       P1  7948  0.92

> <Gold.Chemscore.Hbond.Weighted>
-6.4228

> <Gold.Chemscore.Metal.Weighted>
-0.0000

> <Gold.Chemscore.Lipo.Weighted>
-6.8715

> <Gold.Chemscore.Internal_Hbond.Weighted>
0.0000

> <Gold.Chemscore.DEClash.Weighted>
0.1228

> <Gold.Chemscore.DEInternal.Weighted>
2.7528

> <Gold.Chemscore.Rot.Weighted>
2.5600

> <Gold.Chemscore.Internal.Correction.Weighted>
   9.000000E+99

> <Gold.Protein.RotatedTorsions>
[ 6907 6896 6895 6894 ] final -123.41 input  -60.11 | X-H torsion
[ 7974 7965 7964 7962 ] final -170.73 input  175.53 | X-H torsion
[ 8008 7997 7996 7995 ] final  -33.48 input   59.86 | X-H torsion
[ 10167 10162 10161 10158 ] final   51.17 input  -65.29 | X-H torsion
[ 10718 10713 10712 10709 ] final  172.96 input   66.30 | X-H torsion
[ 10763 10752 10751 10750 ] final   29.35 input  -60.55 | X-H torsion
[ 11005 11000 10999 10996 ] final -121.54 input  -57.11 | X-H torsion

> <Gold.Protein.ActiveResidues>
 VAL166  LYS551  ARG553  GLY616  TRP617  ASP618  TYR619  PRO620  LYS621  CYS622 
 ASP623  PHE694  ASN695  SER759  ASP760  ASP761  ALA762  ILE779  LEU786  VAL792 
 PHE793  MET794  SER795  GLU796  ALA797  LYS798  CYS799  TRP800  GLU811  SER814 

> <Gold.Protein.RotatedAtoms>
  150.8668  133.7563  159.2973 H   0  0  0  0  0  0  0  0  0  0  0  0  # atno 6907 bound_to 6896
  151.5187  135.1065  159.9882 H   0  0  0  0  0  0  0  0  0  0  0  0  # atno 6908 bound_to 6896
  152.4667  133.7893  159.6949 H   0  0  0  0  0  0  0  0  0  0  0  0  # atno 6909 bound_to 6896
  144.7166  140.2028  143.6336 H   0  0  0  0  0  0  0  0  0  0  0  0  # atno 7974 bound_to 7965
  154.4148  140.1709  156.1895 H   0  0  0  0  0  0  0  0  0  0  0  0  # atno 8008 bound_to 7997
  155.9615  140.3393  155.6471 H   0  0  0  0  0  0  0  0  0  0  0  0  # atno 8009 bound_to 7997
  155.6742  140.0715  157.2499 H   0  0  0  0  0  0  0  0  0  0  0  0  # atno 8010 bound_to 7997
  140.2648  144.3332  150.6307 H   0  0  0  0  0  0  0  0  0  0  0  0  # atno 10167 bound_to 10162
  156.9714  131.0091  151.2904 H   0  0  0  0  0  0  0  0  0  0  0  0  # atno 10718 bound_to 10713
  153.0435  135.6491  154.0878 H   0  0  0  0  0  0  0  0  0  0  0  0  # atno 10763 bound_to 10752
  154.0580  135.2890  155.3331 H   0  0  0  0  0  0  0  0  0  0  0  0  # atno 10764 bound_to 10752
  154.6676  135.5368  153.8163 H   0  0  0  0  0  0  0  0  0  0  0  0  # atno 10765 bound_to 10752
  141.0062  134.0330  157.3473 H   0  0  0  0  0  0  0  0  0  0  0  0  # atno 11005 bound_to 11000
  145.8664  139.2249  143.1686 LP  0  0  0  0  0  0  0  0  0  0  0  0  # atno 17320 bound_to 7965
  146.0126  140.8422  142.9963 LP  0  0  0  0  0  0  0  0  0  0  0  0  # atno 17321 bound_to 7965
  140.5937  143.2167  151.7204 LP  0  0  0  0  0  0  0  0  0  0  0  0  # atno 17342 bound_to 10162
  139.5006  144.3900  152.0290 LP  0  0  0  0  0  0  0  0  0  0  0  0  # atno 17343 bound_to 10162
  157.5590  130.8233  149.8241 LP  0  0  0  0  0  0  0  0  0  0  0  0  # atno 17370 bound_to 10713
  156.0281  130.3773  150.1764 LP  0  0  0  0  0  0  0  0  0  0  0  0  # atno 17371 bound_to 10713
  139.9065  135.0180  156.7507 LP  0  0  0  0  0  0  0  0  0  0  0  0  # atno 17394 bound_to 11000
  140.6808  133.9476  155.7909 LP  0  0  0  0  0  0  0  0  0  0  0  0  # atno 17395 bound_to 11000

$$$$
