AV-unprocessed.smi:2061|AV-procd|sdf|8390|dock6
  -GOLD-   2272011 73D 1   1.00000     0.00000
 Structure written by MMmdl.
 45 46  0  0  0  0  0  0  0  0  3 V2000
  152.0080  145.3430  159.5505 C   0  0  0  0  0  0  0  0  0  0  0  0
  151.7843  144.0420  158.8596 C   0  0  0  0  0  0  0  0  0  0  0  0
  151.3340  143.7173  157.6111 C   0  0  0  0  0  0  0  0  0  0  0  0
  151.3676  142.2973  157.6163 C   0  0  0  0  0  0  0  0  0  0  0  0
  150.9695  141.5602  156.4700 N   0  0  0  0  0  0  0  0  0  0  0  0
  151.5127  140.4412  155.9570 C   0  0  0  0  0  0  0  0  0  0  0  0
  152.4740  139.9008  156.5165 O   0  0  0  0  0  0  0  0  0  0  0  0
  150.8810  140.0375  154.8209 N   0  5  0  0  0  0  0  0  0  0  0  0
  150.0793  138.8198  154.7017 C   0  0  0  0  0  0  0  0  0  0  0  0
  148.6959  139.1386  154.0755 C   0  0  2  0  0  0  0  0  0  0  0  0
  147.9449  140.3135  154.7517 C   0  0  0  0  0  0  0  0  0  0  0  0
  147.8679  137.8965  153.9814 N   0  3  1  0  0  0  0  0  0  0  0  0
  147.5589  137.2011  155.2614 C   0  0  0  0  0  0  0  0  0  0  0  0
  146.8792  135.8461  154.9906 C   0  0  2  0  0  0  0  0  0  0  0  0
  147.8374  134.7807  154.4290 C   0  0  0  0  0  0  0  0  0  0  0  0
  145.7289  136.0342  154.1650 O   0  0  0  0  0  0  0  0  0  0  0  0
  145.9788  136.6915  152.9243 C   0  0  1  0  0  0  0  0  0  0  0  0
  144.6444  136.8206  152.1816 C   0  0  0  0  0  0  0  0  0  0  0  0
  146.6300  138.0624  153.1826 C   0  0  0  0  0  0  0  0  0  0  0  0
  151.8019  141.8011  158.7656 N   0  0  0  0  0  0  0  0  0  0  0  0
  152.0712  142.9162  159.5677 O   0  0  0  0  0  0  0  0  0  0  0  0
  151.5890  146.1674  158.9732 H   0  0  0  0  0  0  0  0  0  0  0  0
  153.0735  145.5306  159.6844 H   0  0  0  0  0  0  0  0  0  0  0  0
  151.5364  145.3453  160.5334 H   0  0  0  0  0  0  0  0  0  0  0  0
  151.0295  144.3885  156.8219 H   0  0  0  0  0  0  0  0  0  0  0  0
  150.1762  141.9305  155.9684 H   0  0  0  0  0  0  0  0  0  0  0  0
  150.5723  138.0755  154.0739 H   0  0  0  0  0  0  0  0  0  0  0  0
  149.9338  138.3355  155.6676 H   0  0  0  0  0  0  0  0  0  0  0  0
  148.9044  139.4499  153.0504 H   0  0  0  0  0  0  0  0  0  0  0  0
  148.5027  141.2487  154.6757 H   0  0  0  0  0  0  0  0  0  0  0  0
  147.7516  140.1381  155.8113 H   0  0  0  0  0  0  0  0  0  0  0  0
  146.9834  140.4879  154.2683 H   0  0  0  0  0  0  0  0  0  0  0  0
  148.4621  137.0484  155.8529 H   0  0  0  0  0  0  0  0  0  0  0  0
  146.8889  137.8184  155.8614 H   0  0  0  0  0  0  0  0  0  0  0  0
  146.5076  135.4654  155.9424 H   0  0  0  0  0  0  0  0  0  0  0  0
  148.6355  134.5671  155.1404 H   0  0  0  0  0  0  0  0  0  0  0  0
  148.3112  135.0963  153.4998 H   0  0  0  0  0  0  0  0  0  0  0  0
  147.3099  133.8465  154.2359 H   0  0  0  0  0  0  0  0  0  0  0  0
  146.6453  136.0810  152.3148 H   0  0  0  0  0  0  0  0  0  0  0  0
  144.7773  137.3110  151.2170 H   0  0  0  0  0  0  0  0  0  0  0  0
  143.9261  137.4045  152.7579 H   0  0  0  0  0  0  0  0  0  0  0  0
  144.2049  135.8402  151.9972 H   0  0  0  0  0  0  0  0  0  0  0  0
  145.9395  138.7239  153.7080 H   0  0  0  0  0  0  0  0  0  0  0  0
  146.8610  138.5329  152.2259 H   0  0  0  0  0  0  0  0  0  0  0  0
  148.4402  137.2571  153.4484 H   0  0  0  0  0  0  0  0  0  0  0  0
  1  2  1  0  0  0  0
  1 22  1  0  0  0  0
  1 23  1  0  0  0  0
  1 24  1  0  0  0  0
  2 21  1  0  0  0  0
  2  3  2  0  0  0  0
  3  4  1  0  0  0  0
  3 25  1  0  0  0  0
  4  5  1  0  0  0  0
  4 20  2  0  0  0  0
  5  6  1  0  0  0  0
  5 26  1  0  0  0  0
  6  7  2  0  0  0  0
  6  8  1  0  0  0  0
  8  9  1  0  0  0  0
  9 10  1  0  0  0  0
  9 27  1  0  0  0  0
  9 28  1  0  0  0  0
 10 11  1  0  0  0  0
 10 12  1  0  0  0  0
 10 29  1  0  0  0  0
 11 30  1  0  0  0  0
 11 31  1  0  0  0  0
 11 32  1  0  0  0  0
 12 19  1  0  0  0  0
 12 13  1  0  0  0  0
 12 45  1  0  0  0  0
 13 14  1  0  0  0  0
 13 33  1  0  0  0  0
 13 34  1  0  0  0  0
 14 15  1  0  0  0  0
 14 16  1  0  0  0  0
 14 35  1  0  0  0  0
 15 36  1  0  0  0  0
 15 37  1  0  0  0  0
 15 38  1  0  0  0  0
 16 17  1  0  0  0  0
 17 18  1  0  0  0  0
 17 19  1  0  0  0  0
 17 39  1  0  0  0  0
 18 40  1  0  0  0  0
 18 41  1  0  0  0  0
 18 42  1  0  0  0  0
 19 43  1  0  0  0  0
 19 44  1  0  0  0  0
 20 21  1  0  0  0  0
M  CHG  1   8  -1
M  CHG  1  12   1
M  END
> <s_m_source_file>
AV-unprocessed.smi

> <i_m_source_file_index>
2061

> <i_lp_mmshare_version>
43012

> <i_f3d_flags>
0

> <s_epik_input>
W0NIM11jMVtjSF1jKG5vMSlbTkhdQyg9TylbTkhdW0NIMl1bQ0BIXShbQ0gzXSlOMltDSDJdW0NAQEhdKFtDSDNdKU9bQ0BASF0oW0NIM10pW0NIMl0y

> <s_epik_cmdline>
J2VwaWtfcHl0aG9uJywgJy1waCcsICc3LjAnLCAnLXRuJywgJzgnLCAnLW1hJywgJzIwMCcsICctbWV0YWxfYmluZGluZycsICctaW1hZScsICc8aW5maWxlLm1hZT4nLCAnLW9tYWUnLCAnPG91dGZpbGUubWFlPic=

> <r_epik_Ionization_Penalty>
6.8073

> <r_epik_Ionization_Penalty_Charging>
6.80729

> <r_epik_Ionization_Penalty_Neutral>
5.65391e-06

> <r_epik_State_Penalty>
7.47323

> <r_epik_Charging_Adjusted_Penalty>
14.2805

> <i_epik_Tot_Q>
0

> <i_epik_Tot_abs_Q>
2

> <r_epik_Metal_State_Penalty>
3.40035

> <b_epik_Metal_Only>
1

> <s_lp_Force_Field>
OPLS_2005

> <r_lp_Energy>
19.801

> <b_lp_Chiralities_Consistent>
1

> <s_lp_Variant>
AV-unprocessed.smi:2061-31

> <Gold.Version>
5.8.1

> <Gold.Id.Protein>
6NUR|6NUR_protein|mol2

> <Gold.PLP.Fitness>
41.3820

> <Gold.PLP.PLP>
-31.3280

> <Gold.PLP.part.hbond>
-3.0000

> <Gold.PLP.part.metal>
0.0000

> <Gold.PLP.part.buried>
-3.5250

> <Gold.PLP.part.nonpolar>
-24.2556

> <Gold.PLP.part.repulsive>
0.2206

> <Gold.PLP.ligand.clash>
0.0000

> <Gold.PLP.ligand.torsion>
1.0519

> <Gold.PLP.Chemscore.Hbond>
4.0000

> <Gold.PLP.Chemscore.CHOScore>
0.0000

> <Gold.PLP.Chemscore.Metal>
0.0000

> <Gold.Chemscore.Hbonds>
donor molecule, donor type, donor heavy atom, donor atom, acceptor molecule, acceptor atom, score
      L1  H    12    45       P1  7948  2.00
      P1  H  7989  7998       L1     8  1.00
      P1  H  7997  8008       L1     7  1.00

> <Gold.PLP.Chemscore.Internal.Correction>
0.1578

> <Gold.Rescore>
     Score         DG    S(hbond)    S(metal)    S(lipo)     H(rot)  DE(clash)    DE(int)     intcor
     15.81     -20.08       2.73        0.00      80.91       1.56       2.14       2.13       ----

> <Gold.Chemscore.Fitness>
15.8083

> <Gold.Chemscore.DG>
-20.0783

> <Gold.Chemscore.ZeroCoef>
-5.4800

> <Gold.Chemscore.Hbond>
2.7285

> <Gold.Chemscore.Metal>
0.0000

> <Gold.Chemscore.Lipo>
80.9060

> <Gold.Chemscore.Internal_Hbond>
0.0000

> <Gold.Chemscore.DEClash>
2.1424

> <Gold.Chemscore.DEInternal>
2.1275

> <Gold.Chemscore.Rot>
1.5550

> <Gold.Chemscore.Internal.Correction>
   9.000000E+99

> <Gold.Chemscore.Hbonds>
donor molecule, donor type, donor heavy atom, donor atom, acceptor molecule, acceptor atom, score
      L1  H    12    45       P1  7948  0.97
      P1  H  7989  7998       L1     8  0.60
      P1  H  7997  8008       L1     7  0.99

> <Gold.Chemscore.Hbond.Weighted>
-9.1132

> <Gold.Chemscore.Metal.Weighted>
-0.0000

> <Gold.Chemscore.Lipo.Weighted>
-9.4660

> <Gold.Chemscore.Internal_Hbond.Weighted>
0.0000

> <Gold.Chemscore.DEClash.Weighted>
2.1424

> <Gold.Chemscore.DEInternal.Weighted>
2.1275

> <Gold.Chemscore.Rot.Weighted>
3.9809

> <Gold.Chemscore.Internal.Correction.Weighted>
   9.000000E+99

> <Gold.Protein.RotatedTorsions>
[ 6907 6896 6895 6894 ] final   37.16 input  -60.11 | X-H torsion
[ 7974 7965 7964 7962 ] final  128.05 input  175.53 | X-H torsion
[ 8008 7997 7996 7995 ] final  -39.67 input   59.86 | X-H torsion
[ 10167 10162 10161 10158 ] final  134.77 input  -65.29 | X-H torsion
[ 10718 10713 10712 10709 ] final   74.79 input   66.30 | X-H torsion
[ 10763 10752 10751 10750 ] final -158.97 input  -60.55 | X-H torsion
[ 11005 11000 10999 10996 ] final  -67.29 input  -57.11 | X-H torsion

> <Gold.Protein.ActiveResidues>
 VAL166  LYS551  ARG553  GLY616  TRP617  ASP618  TYR619  PRO620  LYS621  CYS622 
 ASP623  PHE694  ASN695  SER759  ASP760  ASP761  ALA762  ILE779  LEU786  VAL792 
 PHE793  MET794  SER795  GLU796  ALA797  LYS798  CYS799  TRP800  GLU811  SER814 

> <Gold.Protein.RotatedAtoms>
  152.1395  134.9074  160.0554 H   0  0  0  0  0  0  0  0  0  0  0  0  # atno 6907 bound_to 6896
  152.0147  133.3870  159.4242 H   0  0  0  0  0  0  0  0  0  0  0  0  # atno 6908 bound_to 6896
  150.6863  134.3613  159.4995 H   0  0  0  0  0  0  0  0  0  0  0  0  # atno 6909 bound_to 6896
  145.0438  139.3940  143.5088 H   0  0  0  0  0  0  0  0  0  0  0  0  # atno 7974 bound_to 7965
  154.4020  140.1545  156.2901 H   0  0  0  0  0  0  0  0  0  0  0  0  # atno 8008 bound_to 7997
  155.8793  140.3444  155.5854 H   0  0  0  0  0  0  0  0  0  0  0  0  # atno 8009 bound_to 7997
  155.7686  140.0827  157.2110 H   0  0  0  0  0  0  0  0  0  0  0  0  # atno 8010 bound_to 7997
  139.5243  144.6550  151.5188 H   0  0  0  0  0  0  0  0  0  0  0  0  # atno 10167 bound_to 10162
  157.6607  130.9695  150.1261 H   0  0  0  0  0  0  0  0  0  0  0  0  # atno 10718 bound_to 10713
  154.7513  135.3093  154.8552 H   0  0  0  0  0  0  0  0  0  0  0  0  # atno 10763 bound_to 10752
  153.9338  135.6782  153.4749 H   0  0  0  0  0  0  0  0  0  0  0  0  # atno 10764 bound_to 10752
  153.1109  135.4867  154.8962 H   0  0  0  0  0  0  0  0  0  0  0  0  # atno 10765 bound_to 10752
  141.1504  133.6716  156.6270 H   0  0  0  0  0  0  0  0  0  0  0  0  # atno 11005 bound_to 11000
  146.3512  140.0053  142.8672 LP  0  0  0  0  0  0  0  0  0  0  0  0  # atno 17320 bound_to 7965
  145.1614  140.9674  143.4375 LP  0  0  0  0  0  0  0  0  0  0  0  0  # atno 17321 bound_to 7965
  140.6372  143.8960  150.6658 LP  0  0  0  0  0  0  0  0  0  0  0  0  # atno 17342 bound_to 10162
  140.2283  143.3755  152.1586 LP  0  0  0  0  0  0  0  0  0  0  0  0  # atno 17343 bound_to 10162
  156.2120  130.3667  149.8659 LP  0  0  0  0  0  0  0  0  0  0  0  0  # atno 17370 bound_to 10713
  156.6535  130.8753  151.3535 LP  0  0  0  0  0  0  0  0  0  0  0  0  # atno 17371 bound_to 10713
  140.3496  134.7780  157.4457 LP  0  0  0  0  0  0  0  0  0  0  0  0  # atno 17394 bound_to 11000
  140.0871  134.5651  155.8481 LP  0  0  0  0  0  0  0  0  0  0  0  0  # atno 17395 bound_to 11000

$$$$
