AV-unprocessed.smi:2663|AV-procd|sdf|10324|dock4
  -GOLD-   2272014343D 1   1.00000     0.00000
 Structure written by MMmdl.
 38 39  0  0  0  0  0  0  0  0  2 V2000
  153.0293  137.6922  158.8830 C   0  0  0  0  0  0  0  0  0  0  0  0
  152.0360  138.6178  158.1335 C   0  0  1  0  0  0  0  0  0  0  0  0
  152.0353  138.2286  156.6260 C   0  0  0  0  0  0  0  0  0  0  0  0
  153.1847  138.7000  155.9507 O   0  0  0  0  0  0  0  0  0  0  0  0
  150.6796  138.4463  158.6781 N   0  0  0  0  0  0  0  0  0  0  0  0
  149.9199  137.3420  158.7693 C   0  0  0  0  0  0  0  0  0  0  0  0
  150.3345  136.2571  158.3568 O   0  0  0  0  0  0  0  0  0  0  0  0
  148.7160  137.5681  159.3426 N   0  5  0  0  0  0  0  0  0  0  0  0
  148.2478  136.7249  160.2775 C   0  0  0  0  0  0  0  0  0  0  0  0
  147.7517  137.1531  161.4494 N   0  0  0  0  0  0  0  0  0  0  0  0
  147.3246  136.1190  162.2717 N   0  0  0  0  0  0  0  0  0  0  0  0
  147.5191  134.9312  161.6991 C   0  0  0  0  0  0  0  0  0  0  0  0
  148.2455  134.9675  160.1066 S   0  0  0  0  0  0  0  0  0  0  0  0
  152.4362  140.1221  158.3442 C   0  0  0  0  0  0  0  0  0  0  0  0
  152.8380  140.4569  159.8072 C   0  0  0  0  0  0  0  0  0  0  0  0
  153.2749  141.9212  159.9738 C   0  0  0  0  0  0  0  0  0  0  0  0
  152.1806  142.8862  159.5018 C   0  0  0  0  0  0  0  0  0  0  0  0
  151.7878  142.5877  158.0500 C   0  0  0  0  0  0  0  0  0  0  0  0
  151.3457  141.1253  157.8799 C   0  0  0  0  0  0  0  0  0  0  0  0
  154.0629  137.9505  158.6514 H   0  0  0  0  0  0  0  0  0  0  0  0
  152.8983  136.6452  158.6100 H   0  0  0  0  0  0  0  0  0  0  0  0
  152.9082  137.7497  159.9644 H   0  0  0  0  0  0  0  0  0  0  0  0
  152.0044  137.1469  156.4983 H   0  0  0  0  0  0  0  0  0  0  0  0
  151.1503  138.6118  156.1181 H   0  0  0  0  0  0  0  0  0  0  0  0
  152.9275  138.9746  155.0839 H   0  0  0  0  0  0  0  0  0  0  0  0
  150.2581  139.2888  159.0406 H   0  0  0  0  0  0  0  0  0  0  0  0
  147.2362  134.0280  162.2188 H   0  0  0  0  0  0  0  0  0  0  0  0
  153.3196  140.3140  157.7336 H   0  0  0  0  0  0  0  0  0  0  0  0
  152.0058  140.2578  160.4836 H   0  0  0  0  0  0  0  0  0  0  0  0
  153.6601  139.8239  160.1377 H   0  0  0  0  0  0  0  0  0  0  0  0
  153.5172  142.1190  161.0183 H   0  0  0  0  0  0  0  0  0  0  0  0
  154.1891  142.0975  159.4055 H   0  0  0  0  0  0  0  0  0  0  0  0
  151.3053  142.7943  160.1462 H   0  0  0  0  0  0  0  0  0  0  0  0
  152.5266  143.9163  159.5916 H   0  0  0  0  0  0  0  0  0  0  0  0
  150.9846  143.2560  157.7382 H   0  0  0  0  0  0  0  0  0  0  0  0
  152.6332  142.7926  157.3921 H   0  0  0  0  0  0  0  0  0  0  0  0
  151.1016  140.9729  156.8297 H   0  0  0  0  0  0  0  0  0  0  0  0
  150.4222  140.9633  158.4372 H   0  0  0  0  0  0  0  0  0  0  0  0
  1  2  1  0  0  0  0
  1 20  1  0  0  0  0
  1 21  1  0  0  0  0
  1 22  1  0  0  0  0
  2  3  1  0  0  0  0
  2  5  1  0  0  0  0
  2 14  1  0  0  0  0
  3  4  1  0  0  0  0
  3 23  1  0  0  0  0
  3 24  1  0  0  0  0
  4 25  1  0  0  0  0
  5  6  1  0  0  0  0
  5 26  1  0  0  0  0
  6  7  2  0  0  0  0
  6  8  1  0  0  0  0
  8  9  1  0  0  0  0
  9 13  1  0  0  0  0
  9 10  2  0  0  0  0
 10 11  1  0  0  0  0
 11 12  2  0  0  0  0
 12 13  1  0  0  0  0
 12 27  1  0  0  0  0
 14 19  1  0  0  0  0
 14 15  1  0  0  0  0
 14 28  1  0  0  0  0
 15 16  1  0  0  0  0
 15 29  1  0  0  0  0
 15 30  1  0  0  0  0
 16 17  1  0  0  0  0
 16 31  1  0  0  0  0
 16 32  1  0  0  0  0
 17 18  1  0  0  0  0
 17 33  1  0  0  0  0
 17 34  1  0  0  0  0
 18 19  1  0  0  0  0
 18 35  1  0  0  0  0
 18 36  1  0  0  0  0
 19 37  1  0  0  0  0
 19 38  1  0  0  0  0
M  CHG  1   8  -1
M  END
> <s_m_source_file>
AV-unprocessed.smi

> <i_m_source_file_index>
2663

> <i_lp_mmshare_version>
43012

> <i_f3d_flags>
0

> <s_epik_input>
W0NIMl0xW0NIMl1bQ0gyXVtDSDJdW0NIMl1bQ0hdMVtDQF0oW0NIM10pKFtDSDJdW09IXSlbTkhdQyg9TylbTkhdYzJubltjSF1zMg==

> <s_epik_cmdline>
J2VwaWtfcHl0aG9uJywgJy1waCcsICc3LjAnLCAnLXRuJywgJzgnLCAnLW1hJywgJzIwMCcsICctbWV0YWxfYmluZGluZycsICctaW1hZScsICc8aW5maWxlLm1hZT4nLCAnLW9tYWUnLCAnPG91dGZpbGUubWFlPic=

> <r_lp_tautomer_probability>
1

> <r_epik_Ionization_Penalty>
4.39194

> <r_epik_Ionization_Penalty_Charging>
4.34423

> <r_epik_Ionization_Penalty_Neutral>
0.047714

> <r_epik_State_Penalty>
4.34384

> <r_epik_Charging_Adjusted_Penalty>
8.68806

> <i_epik_Tot_Q>
-1

> <i_epik_Tot_abs_Q>
1

> <r_epik_Metal_State_Penalty>
0.746645

> <b_epik_Metal_Only>
1

> <s_lp_Force_Field>
OPLS_2005

> <r_lp_Energy>
17.2717

> <b_lp_Chiralities_Consistent>
1

> <s_lp_Variant>
AV-unprocessed.smi:2663-3

> <Gold.Version>
5.8.1

> <Gold.Id.Protein>
6NUR|6NUR_protein|mol2

> <Gold.PLP.Fitness>
41.1510

> <Gold.PLP.PLP>
-32.4931

> <Gold.PLP.part.hbond>
-5.1429

> <Gold.PLP.part.metal>
0.0000

> <Gold.PLP.part.buried>
-4.5983

> <Gold.PLP.part.nonpolar>
-22.5670

> <Gold.PLP.part.repulsive>
0.1551

> <Gold.PLP.ligand.clash>
0.0000

> <Gold.PLP.ligand.torsion>
1.2634

> <Gold.PLP.Chemscore.Hbond>
3.7120

> <Gold.PLP.Chemscore.CHOScore>
0.0000

> <Gold.PLP.Chemscore.Metal>
0.0000

> <Gold.Chemscore.Hbonds>
donor molecule, donor type, donor heavy atom, donor atom, acceptor molecule, acceptor atom, score
      P1  H  6896  6908       L1     7  0.93
      P1  H  6931  6943       L1    10  0.95
      P1  H  6934  6947       L1    10  0.77
      P1  H  7997  8009       L1     4  0.99

> <Gold.PLP.Chemscore.Internal.Correction>
0.0486

> <Gold.Rescore>
     Score         DG    S(hbond)    S(metal)    S(lipo)     H(rot)  DE(clash)    DE(int)     intcor
     14.34     -15.74       1.99        0.00      78.49       2.18       0.03       1.37       ----

> <Gold.Chemscore.Fitness>
14.3445

> <Gold.Chemscore.DG>
-15.7426

> <Gold.Chemscore.ZeroCoef>
-5.4800

> <Gold.Chemscore.Hbond>
1.9927

> <Gold.Chemscore.Metal>
0.0000

> <Gold.Chemscore.Lipo>
78.4923

> <Gold.Chemscore.Internal_Hbond>
0.0000

> <Gold.Chemscore.DEClash>
0.0324

> <Gold.Chemscore.DEInternal>
1.3656

> <Gold.Chemscore.Rot>
2.1783

> <Gold.Chemscore.Internal.Correction>
   9.000000E+99

> <Gold.Chemscore.Hbonds>
donor molecule, donor type, donor heavy atom, donor atom, acceptor molecule, acceptor atom, score
      P1  H  6896  6908       L1     7  0.86
      P1  H  6931  6943       L1    10  0.21
      P1  H  6934  6947       L1    10  0.18
      P1  H  7997  8009       L1     4  0.28

> <Gold.Chemscore.Hbond.Weighted>
-6.6555

> <Gold.Chemscore.Metal.Weighted>
-0.0000

> <Gold.Chemscore.Lipo.Weighted>
-9.1836

> <Gold.Chemscore.Internal_Hbond.Weighted>
0.0000

> <Gold.Chemscore.DEClash.Weighted>
0.0324

> <Gold.Chemscore.DEInternal.Weighted>
1.3656

> <Gold.Chemscore.Rot.Weighted>
5.5765

> <Gold.Chemscore.Internal.Correction.Weighted>
   9.000000E+99

> <Gold.Protein.RotatedTorsions>
[ 6907 6896 6895 6894 ] final -169.30 input  -60.11 | X-H torsion
[ 7974 7965 7964 7962 ] final  -17.85 input  175.53 | X-H torsion
[ 8008 7997 7996 7995 ] final -167.92 input   59.86 | X-H torsion
[ 10167 10162 10161 10158 ] final  127.14 input  -65.29 | X-H torsion
[ 10718 10713 10712 10709 ] final  167.34 input   66.30 | X-H torsion
[ 10763 10752 10751 10750 ] final -168.87 input  -60.55 | X-H torsion
[ 11005 11000 10999 10996 ] final   54.94 input  -57.11 | X-H torsion

> <Gold.Protein.ActiveResidues>
 VAL166  LYS551  ARG553  GLY616  TRP617  ASP618  TYR619  PRO620  LYS621  CYS622 
 ASP623  PHE694  ASN695  SER759  ASP760  ASP761  ALA762  ILE779  LEU786  VAL792 
 PHE793  MET794  SER795  GLU796  ALA797  LYS798  CYS799  TRP800  GLU811  SER814 

> <Gold.Protein.RotatedAtoms>
  151.4894  133.3528  159.2850 H   0  0  0  0  0  0  0  0  0  0  0  0  # atno 6907 bound_to 6896
  150.8844  134.8242  159.7259 H   0  0  0  0  0  0  0  0  0  0  0  0  # atno 6908 bound_to 6896
  152.4784  134.4796  159.9713 H   0  0  0  0  0  0  0  0  0  0  0  0  # atno 6909 bound_to 6896
  146.1921  140.3838  142.8454 H   0  0  0  0  0  0  0  0  0  0  0  0  # atno 7974 bound_to 7965
  155.8843  140.1014  157.1463 H   0  0  0  0  0  0  0  0  0  0  0  0  # atno 8008 bound_to 7997
  154.4008  140.1323  156.4300 H   0  0  0  0  0  0  0  0  0  0  0  0  # atno 8009 bound_to 7997
  155.7607  140.3463  155.5199 H   0  0  0  0  0  0  0  0  0  0  0  0  # atno 8010 bound_to 7997
  139.5594  144.6871  151.4088 H   0  0  0  0  0  0  0  0  0  0  0  0  # atno 10167 bound_to 10162
  157.0529  131.0318  151.2674 H   0  0  0  0  0  0  0  0  0  0  0  0  # atno 10718 bound_to 10713
  154.6583  135.2921  154.9900 H   0  0  0  0  0  0  0  0  0  0  0  0  # atno 10763 bound_to 10752
  154.0969  135.6582  153.4865 H   0  0  0  0  0  0  0  0  0  0  0  0  # atno 10764 bound_to 10752
  153.0415  135.5233  154.7522 H   0  0  0  0  0  0  0  0  0  0  0  0  # atno 10765 bound_to 10752
  140.0646  134.5554  155.9113 H   0  0  0  0  0  0  0  0  0  0  0  0  # atno 11005 bound_to 11000
  144.8507  140.6996  143.6170 LP  0  0  0  0  0  0  0  0  0  0  0  0  # atno 17320 bound_to 7965
  145.3760  139.1647  143.4306 LP  0  0  0  0  0  0  0  0  0  0  0  0  # atno 17321 bound_to 7965
  140.6871  143.7947  150.7202 LP  0  0  0  0  0  0  0  0  0  0  0  0  # atno 17342 bound_to 10162
  140.1418  143.4434  152.2188 LP  0  0  0  0  0  0  0  0  0  0  0  0  # atno 17343 bound_to 10162
  157.5016  130.7883  149.7610 LP  0  0  0  0  0  0  0  0  0  0  0  0  # atno 17370 bound_to 10713
  156.0002  130.3884  150.2636 LP  0  0  0  0  0  0  0  0  0  0  0  0  # atno 17371 bound_to 10713
  141.1987  133.6603  156.5808 LP  0  0  0  0  0  0  0  0  0  0  0  0  # atno 17394 bound_to 11000
  140.3718  134.7599  157.4604 LP  0  0  0  0  0  0  0  0  0  0  0  0  # atno 17395 bound_to 11000

$$$$
