AV-unprocessed.smi:2600|AV-procd|sdf|10181|dock5
  -GOLD-   2272014193D 1   1.00000     0.00000
 Structure written by MMmdl.
 44 45  0  0  0  0  0  0  0  0  1 V2000
  146.4910  138.4140  152.0046 C   0  0  0  0  0  0  0  0  0  0  0  0
  147.0621  139.8053  152.3242 C   0  0  0  0  0  0  0  0  0  0  0  0
  147.6303  139.9811  153.7527 C   0  0  1  0  0  0  0  0  0  0  0  0
  148.2618  138.6385  154.1897 C   0  0  0  0  0  0  0  0  0  0  0  0
  148.6539  141.1459  153.8251 C   0  0  0  0  0  0  0  0  0  0  0  0
  149.0141  141.4000  155.2276 N   0  0  0  0  0  0  0  0  0  0  0  0
  150.2107  141.1639  155.8207 C   0  0  0  0  0  0  0  0  0  0  0  0
  151.0953  140.4774  155.3070 O   0  0  0  0  0  0  0  0  0  0  0  0
  150.3628  141.7413  157.0245 N   0  0  0  0  0  0  0  0  0  0  0  0
  151.5686  141.6767  157.8410 C   0  0  0  0  0  0  0  0  0  0  0  0
  152.0180  143.0777  158.2885 C   0  0  0  0  0  0  0  0  0  0  0  0
  152.2543  143.1802  159.7618 C   0  0  0  0  0  0  0  0  0  0  0  0
  152.8082  142.2763  160.6244 C   0  0  0  0  0  0  0  0  0  0  0  0
  152.7725  142.9329  161.8851 C   0  0  0  0  0  0  0  0  0  0  0  0
  152.2423  144.1415  161.8128 N   0  0  0  0  0  0  0  0  0  0  0  0
  151.9199  144.2960  160.5109 N   0  0  0  0  0  0  0  0  0  0  0  0
  151.3085  145.5404  160.0829 C   0  0  0  0  0  0  0  0  0  0  0  0
  147.8250  141.8059  155.9784 C   0  0  0  0  0  0  0  0  0  0  0  0
  146.8173  140.6451  155.9484 C   0  0  0  0  0  0  0  0  0  0  0  0
  146.5125  140.2840  154.5990 O   0  0  0  0  0  0  0  0  0  0  0  0
  146.2104  138.3504  150.9532 H   0  0  0  0  0  0  0  0  0  0  0  0
  145.5963  138.1970  152.5869 H   0  0  0  0  0  0  0  0  0  0  0  0
  147.2204  137.6268  152.1967 H   0  0  0  0  0  0  0  0  0  0  0  0
  147.8521  140.0166  151.6020 H   0  0  0  0  0  0  0  0  0  0  0  0
  146.2872  140.5516  152.1441 H   0  0  0  0  0  0  0  0  0  0  0  0
  149.0697  138.3509  153.5163 H   0  0  0  0  0  0  0  0  0  0  0  0
  147.5239  137.8362  154.1786 H   0  0  0  0  0  0  0  0  0  0  0  0
  148.6845  138.6734  155.1930 H   0  0  0  0  0  0  0  0  0  0  0  0
  149.5061  140.9314  153.1800 H   0  0  0  0  0  0  0  0  0  0  0  0
  148.2242  142.0663  153.4304 H   0  0  0  0  0  0  0  0  0  0  0  0
  149.5927  142.2828  157.3892 H   0  0  0  0  0  0  0  0  0  0  0  0
  151.3546  141.0596  158.7140 H   0  0  0  0  0  0  0  0  0  0  0  0
  152.3626  141.1699  157.2910 H   0  0  0  0  0  0  0  0  0  0  0  0
  152.9237  143.3693  157.7559 H   0  0  0  0  0  0  0  0  0  0  0  0
  151.2603  143.8065  157.9983 H   0  0  0  0  0  0  0  0  0  0  0  0
  153.1844  141.2918  160.3885 H   0  0  0  0  0  0  0  0  0  0  0  0
  153.1139  142.5700  162.8432 H   0  0  0  0  0  0  0  0  0  0  0  0
  150.5789  145.3523  159.2955 H   0  0  0  0  0  0  0  0  0  0  0  0
  152.0773  146.2138  159.7037 H   0  0  0  0  0  0  0  0  0  0  0  0
  150.7984  146.0205  160.9191 H   0  0  0  0  0  0  0  0  0  0  0  0
  148.0467  142.0789  157.0109 H   0  0  0  0  0  0  0  0  0  0  0  0
  147.3891  142.6948  155.5199 H   0  0  0  0  0  0  0  0  0  0  0  0
  147.1993  139.7853  156.4987 H   0  0  0  0  0  0  0  0  0  0  0  0
  145.8925  140.9412  156.4435 H   0  0  0  0  0  0  0  0  0  0  0  0
  1  2  1  0  0  0  0
  1 21  1  0  0  0  0
  1 22  1  0  0  0  0
  1 23  1  0  0  0  0
  2  3  1  0  0  0  0
  2 24  1  0  0  0  0
  2 25  1  0  0  0  0
  3 20  1  0  0  0  0
  3  4  1  0  0  0  0
  3  5  1  0  0  0  0
  4 26  1  0  0  0  0
  4 27  1  0  0  0  0
  4 28  1  0  0  0  0
  5  6  1  0  0  0  0
  5 29  1  0  0  0  0
  5 30  1  0  0  0  0
  6  7  1  0  0  0  0
  6 18  1  0  0  0  0
  7  8  2  0  0  0  0
  7  9  1  0  0  0  0
  9 10  1  0  0  0  0
  9 31  1  0  0  0  0
 10 11  1  0  0  0  0
 10 32  1  0  0  0  0
 10 33  1  0  0  0  0
 11 12  1  0  0  0  0
 11 34  1  0  0  0  0
 11 35  1  0  0  0  0
 12 16  1  0  0  0  0
 12 13  2  0  0  0  0
 13 14  1  0  0  0  0
 13 36  1  0  0  0  0
 14 15  2  0  0  0  0
 14 37  1  0  0  0  0
 15 16  1  0  0  0  0
 16 17  1  0  0  0  0
 17 38  1  0  0  0  0
 17 39  1  0  0  0  0
 17 40  1  0  0  0  0
 18 19  1  0  0  0  0
 18 41  1  0  0  0  0
 18 42  1  0  0  0  0
 19 20  1  0  0  0  0
 19 43  1  0  0  0  0
 19 44  1  0  0  0  0
M  END
> <s_m_source_file>
AV-unprocessed.smi

> <i_m_source_file_index>
2600

> <i_lp_mmshare_version>
43012

> <i_f3d_flags>
0

> <s_epik_input>
W0NIM11bQ0gyXVtDQEBdMShbQ0gzXSlbQ0gyXU4oW0NIMl1bQ0gyXU8xKUMoPU8pW05IXVtDSDJdW0NIMl1jMltjSF1bY0hdbm4yW0NIM10=

> <s_epik_cmdline>
J2VwaWtfcHl0aG9uJywgJy1waCcsICc3LjAnLCAnLXRuJywgJzgnLCAnLW1hJywgJzIwMCcsICctbWV0YWxfYmluZGluZycsICctaW1hZScsICc8aW5maWxlLm1hZT4nLCAnLW9tYWUnLCAnPG91dGZpbGUubWFlPic=

> <r_lp_tautomer_probability>
1

> <r_epik_Ionization_Penalty>
0.00252014

> <r_epik_Ionization_Penalty_Charging>
0

> <r_epik_Ionization_Penalty_Neutral>
0.00252014

> <r_epik_State_Penalty>
0.00172506

> <r_epik_Charging_Adjusted_Penalty>
0.00172506

> <i_epik_Tot_Q>
0

> <i_epik_Tot_abs_Q>
0

> <r_epik_Metal_State_Penalty>
-0

> <b_epik_Metal_Only>
0

> <s_lp_Force_Field>
OPLS_2005

> <r_lp_Energy>
28.913

> <b_lp_Chiralities_Consistent>
1

> <s_lp_Variant>
AV-unprocessed.smi:2600-1

> <Gold.Version>
5.8.1

> <Gold.Id.Protein>
6NUR|6NUR_protein|mol2

> <Gold.PLP.Fitness>
44.0636

> <Gold.PLP.PLP>
-43.7298

> <Gold.PLP.part.hbond>
-1.0000

> <Gold.PLP.part.metal>
0.0000

> <Gold.PLP.part.buried>
-0.0904

> <Gold.PLP.part.nonpolar>
-42.5553

> <Gold.PLP.part.repulsive>
0.3369

> <Gold.PLP.ligand.clash>
0.1545

> <Gold.PLP.ligand.torsion>
1.2295

> <Gold.PLP.Chemscore.Hbond>
0.9600

> <Gold.PLP.Chemscore.CHOScore>
0.0000

> <Gold.PLP.Chemscore.Metal>
0.0000

> <Gold.Chemscore.Hbonds>
donor molecule, donor type, donor heavy atom, donor atom, acceptor molecule, acceptor atom, score
      P1  H  7989  7998       L1     8  0.96

> <Gold.PLP.Chemscore.Internal.Correction>
0.0672

> <Gold.Rescore>
     Score         DG    S(hbond)    S(metal)    S(lipo)     H(rot)  DE(clash)    DE(int)     intcor
     15.48     -17.18       0.93        0.00     105.60       1.47       0.63       1.07       ----

> <Gold.Chemscore.Fitness>
15.4807

> <Gold.Chemscore.DG>
-17.1827

> <Gold.Chemscore.ZeroCoef>
-5.4800

> <Gold.Chemscore.Hbond>
0.9342

> <Gold.Chemscore.Metal>
0.0000

> <Gold.Chemscore.Lipo>
105.5951

> <Gold.Chemscore.Internal_Hbond>
0.0000

> <Gold.Chemscore.DEClash>
0.6345

> <Gold.Chemscore.DEInternal>
1.0675

> <Gold.Chemscore.Rot>
1.4735

> <Gold.Chemscore.Internal.Correction>
   9.000000E+99

> <Gold.Chemscore.Hbonds>
donor molecule, donor type, donor heavy atom, donor atom, acceptor molecule, acceptor atom, score
      P1  H  7989  7998       L1     8  0.88

> <Gold.Chemscore.Hbond.Weighted>
-3.1201

> <Gold.Chemscore.Metal.Weighted>
-0.0000

> <Gold.Chemscore.Lipo.Weighted>
-12.3546

> <Gold.Chemscore.Internal_Hbond.Weighted>
0.0000

> <Gold.Chemscore.DEClash.Weighted>
0.6345

> <Gold.Chemscore.DEInternal.Weighted>
1.0675

> <Gold.Chemscore.Rot.Weighted>
3.7721

> <Gold.Chemscore.Internal.Correction.Weighted>
   9.000000E+99

> <Gold.Protein.RotatedTorsions>
[ 6907 6896 6895 6894 ] final   74.68 input  -60.11 | X-H torsion
[ 7974 7965 7964 7962 ] final  130.50 input  175.53 | X-H torsion
[ 8008 7997 7996 7995 ] final  114.90 input   59.86 | X-H torsion
[ 10167 10162 10161 10158 ] final   14.79 input  -65.29 | X-H torsion
[ 10718 10713 10712 10709 ] final  -46.08 input   66.30 | X-H torsion
[ 10763 10752 10751 10750 ] final   74.57 input  -60.55 | X-H torsion
[ 11005 11000 10999 10996 ] final   50.00 input  -57.11 | X-H torsion

> <Gold.Protein.ActiveResidues>
 VAL166  LYS551  ARG553  GLY616  TRP617  ASP618  TYR619  PRO620  LYS621  CYS622 
 ASP623  PHE694  ASN695  SER759  ASP760  ASP761  ALA762  ILE779  LEU786  VAL792 
 PHE793  MET794  SER795  GLU796  ALA797  LYS798  CYS799  TRP800  GLU811  SER814 

> <Gold.Protein.RotatedAtoms>
  152.4988  134.4235  159.9488 H   0  0  0  0  0  0  0  0  0  0  0  0  # atno 6907 bound_to 6896
  151.4210  133.3692  159.2764 H   0  0  0  0  0  0  0  0  0  0  0  0  # atno 6908 bound_to 6896
  150.9223  134.8663  159.7556 H   0  0  0  0  0  0  0  0  0  0  0  0  # atno 6909 bound_to 6896
  145.0172  139.4165  143.5215 H   0  0  0  0  0  0  0  0  0  0  0  0  # atno 7974 bound_to 7965
  156.2349  140.2949  156.0286 H   0  0  0  0  0  0  0  0  0  0  0  0  # atno 8008 bound_to 7997
  155.2119  140.0413  157.2952 H   0  0  0  0  0  0  0  0  0  0  0  0  # atno 8009 bound_to 7997
  154.6061  140.2439  155.7736 H   0  0  0  0  0  0  0  0  0  0  0  0  # atno 8010 bound_to 7997
  140.5912  143.8792  150.6875 H   0  0  0  0  0  0  0  0  0  0  0  0  # atno 10167 bound_to 10162
  156.2219  130.4166  149.8982 H   0  0  0  0  0  0  0  0  0  0  0  0  # atno 10718 bound_to 10713
  153.0596  135.5020  154.8062 H   0  0  0  0  0  0  0  0  0  0  0  0  # atno 10763 bound_to 10752
  154.6862  135.2976  154.9547 H   0  0  0  0  0  0  0  0  0  0  0  0  # atno 10764 bound_to 10752
  154.0317  135.6729  153.4834 H   0  0  0  0  0  0  0  0  0  0  0  0  # atno 10765 bound_to 10752
  140.1055  134.5024  155.8724 H   0  0  0  0  0  0  0  0  0  0  0  0  # atno 11005 bound_to 11000
  146.3480  139.9650  142.8713 LP  0  0  0  0  0  0  0  0  0  0  0  0  # atno 17320 bound_to 7965
  145.1944  140.9826  143.4192 LP  0  0  0  0  0  0  0  0  0  0  0  0  # atno 17321 bound_to 7965
  140.2315  143.3732  152.1561 LP  0  0  0  0  0  0  0  0  0  0  0  0  # atno 17342 bound_to 10162
  139.5228  144.7064  151.5341 LP  0  0  0  0  0  0  0  0  0  0  0  0  # atno 17343 bound_to 10162
  156.6626  130.8788  151.3550 LP  0  0  0  0  0  0  0  0  0  0  0  0  # atno 17370 bound_to 10713
  157.7091  130.9420  150.1030 LP  0  0  0  0  0  0  0  0  0  0  0  0  # atno 17371 bound_to 10713
  141.2117  133.6710  156.6602 LP  0  0  0  0  0  0  0  0  0  0  0  0  # atno 17394 bound_to 11000
  140.3162  134.8046  157.4216 LP  0  0  0  0  0  0  0  0  0  0  0  0  # atno 17395 bound_to 11000

$$$$
