AV-unprocessed.smi:560|AV-procd|sdf|2931|dock4
  -GOLD-   2262023423D 1   1.00000     0.00000
 Structure written by MMmdl.
 42 43  0  0  0  0  0  0  0  0  2 V2000
  149.8712  139.8937  157.9960 C   0  0  0  0  0  0  0  0  0  0  0  0
  150.7868  140.6011  156.9761 C   0  0  1  0  0  0  0  0  0  0  0  0
  150.1369  140.7470  155.5904 C   0  0  0  0  0  0  0  0  0  0  0  0
  150.7234  140.3711  154.5749 O   0  0  0  0  0  0  0  0  0  0  0  0
  148.9154  141.3043  155.5644 N   0  0  0  0  0  0  0  0  0  0  0  0
  148.1058  141.5152  154.3652 C   0  0  2  0  0  0  0  0  0  0  0  0
  146.7808  142.2363  154.6836 C   0  0  0  0  0  0  0  0  0  0  0  0
  145.8088  141.3339  155.4628 C   0  0  0  0  0  0  0  0  0  0  0  0
  145.5487  140.0682  154.7264 N   0  3  2  0  0  0  0  0  0  0  0  0
  144.5063  139.2252  155.3670 C   0  0  0  0  0  0  0  0  0  0  0  0
  144.2569  137.9105  154.6204 C   0  0  0  0  0  0  0  0  0  0  0  0
  143.7399  138.0029  153.3931 N   0  0  0  0  0  0  0  0  0  0  0  0
  144.5117  136.8277  155.1443 O   0  0  0  0  0  0  0  0  0  0  0  0
  146.8048  139.3188  154.4677 C   0  0  0  0  0  0  0  0  0  0  0  0
  147.8119  140.1722  153.6742 C   0  0  0  0  0  0  0  0  0  0  0  0
  151.2491  141.8973  157.4599 N   0  0  0  0  0  0  0  0  0  0  0  0
  150.9910  143.1439  156.9265 C   0  0  0  0  0  0  0  0  0  0  0  0
  151.5951  144.0680  157.7297 C   0  0  0  0  0  0  0  0  0  0  0  0
  152.2000  143.2840  158.7507 C   0  0  0  0  0  0  0  0  0  0  0  0
  151.9846  141.9886  158.5923 N   0  0  0  0  0  0  0  0  0  0  0  0
  149.5842  138.9019  157.6450 H   0  0  0  0  0  0  0  0  0  0  0  0
  148.9546  140.4548  158.1836 H   0  0  0  0  0  0  0  0  0  0  0  0
  150.3803  139.7663  158.9515 H   0  0  0  0  0  0  0  0  0  0  0  0
  151.6698  139.9725  156.8503 H   0  0  0  0  0  0  0  0  0  0  0  0
  148.5053  141.5753  156.4461 H   0  0  0  0  0  0  0  0  0  0  0  0
  148.6854  142.1311  153.6749 H   0  0  0  0  0  0  0  0  0  0  0  0
  146.9646  143.1560  155.2398 H   0  0  0  0  0  0  0  0  0  0  0  0
  146.3080  142.5418  153.7492 H   0  0  0  0  0  0  0  0  0  0  0  0
  146.2129  141.1073  156.4507 H   0  0  0  0  0  0  0  0  0  0  0  0
  144.8756  141.8742  155.6238 H   0  0  0  0  0  0  0  0  0  0  0  0
  144.8213  138.9546  156.3757 H   0  0  0  0  0  0  0  0  0  0  0  0
  143.5786  139.7906  155.4691 H   0  0  0  0  0  0  0  0  0  0  0  0
  143.5582  137.1696  152.8525 H   0  0  0  0  0  0  0  0  0  0  0  0
  143.5343  138.9126  153.0043 H   0  0  0  0  0  0  0  0  0  0  0  0
  147.2396  138.9973  155.4154 H   0  0  0  0  0  0  0  0  0  0  0  0
  146.5825  138.4147  153.9000 H   0  0  0  0  0  0  0  0  0  0  0  0
  147.4064  140.3650  152.6798 H   0  0  0  0  0  0  0  0  0  0  0  0
  148.7371  139.6153  153.5200 H   0  0  0  0  0  0  0  0  0  0  0  0
  150.4047  143.2692  156.0283 H   0  0  0  0  0  0  0  0  0  0  0  0
  151.6013  145.1410  157.6088 H   0  0  0  0  0  0  0  0  0  0  0  0
  152.7809  143.6150  159.5989 H   0  0  0  0  0  0  0  0  0  0  0  0
  145.1802  140.3253  153.8212 H   0  0  0  0  0  0  0  0  0  0  0  0
  1  2  1  0  0  0  0
  1 21  1  0  0  0  0
  1 22  1  0  0  0  0
  1 23  1  0  0  0  0
  2  3  1  0  0  0  0
  2 16  1  0  0  0  0
  2 24  1  0  0  0  0
  3  4  2  0  0  0  0
  3  5  1  0  0  0  0
  5  6  1  0  0  0  0
  5 25  1  0  0  0  0
  6 15  1  0  0  0  0
  6  7  1  0  0  0  0
  6 26  1  0  0  0  0
  7  8  1  0  0  0  0
  7 27  1  0  0  0  0
  7 28  1  0  0  0  0
  8  9  1  0  0  0  0
  8 29  1  0  0  0  0
  8 30  1  0  0  0  0
  9 10  1  0  0  0  0
  9 14  1  0  0  0  0
  9 42  1  0  0  0  0
 10 11  1  0  0  0  0
 10 31  1  0  0  0  0
 10 32  1  0  0  0  0
 11 12  1  0  0  0  0
 11 13  2  0  0  0  0
 12 33  1  0  0  0  0
 12 34  1  0  0  0  0
 14 15  1  0  0  0  0
 14 35  1  0  0  0  0
 14 36  1  0  0  0  0
 15 37  1  0  0  0  0
 15 38  1  0  0  0  0
 16 20  1  0  0  0  0
 16 17  1  0  0  0  0
 17 18  2  0  0  0  0
 17 39  1  0  0  0  0
 18 19  1  0  0  0  0
 18 40  1  0  0  0  0
 19 20  2  0  0  0  0
 19 41  1  0  0  0  0
M  CHG  1   9   1
M  END
> <s_m_source_file>
AV-unprocessed.smi

> <i_m_source_file_index>
560

> <i_lp_mmshare_version>
43012

> <i_f3d_flags>
0

> <s_epik_input>
bjFbY0hdW2NIXVtjSF1uMVtDQEhdKFtDSDNdKUMoPU8pW05IXVtDSF0yW0NIMl1bQ0gyXU4oW0NIMl1bQ0gyXTIpW0NIMl1DKD1PKVtOSDJd

> <s_epik_cmdline>
J2VwaWtfcHl0aG9uJywgJy1waCcsICc3LjAnLCAnLXRuJywgJzgnLCAnLW1hJywgJzIwMCcsICctbWV0YWxfYmluZGluZycsICctaW1hZScsICc8aW5maWxlLm1hZT4nLCAnLW9tYWUnLCAnPG91dGZpbGUubWFlPic=

> <r_lp_tautomer_probability>
1

> <r_epik_Ionization_Penalty>
1.02943

> <r_epik_Ionization_Penalty_Charging>
1.02936

> <r_epik_Ionization_Penalty_Neutral>
7.4537e-05

> <r_epik_State_Penalty>
1.08036

> <r_epik_Charging_Adjusted_Penalty>
2.10972

> <i_epik_Tot_Q>
1

> <i_epik_Tot_abs_Q>
1

> <r_epik_Metal_State_Penalty>
1.09347

> <b_epik_Metal_Only>
0

> <s_lp_Force_Field>
OPLS_2005

> <r_lp_Energy>
15.8217

> <b_lp_Chiralities_Consistent>
1

> <s_lp_Variant>
AV-unprocessed.smi:560-6

> <Gold.Version>
5.8.1

> <Gold.Id.Protein>
6NUR|6NUR_protein|mol2

> <Gold.PLP.Fitness>
43.9685

> <Gold.PLP.PLP>
-29.8000

> <Gold.PLP.part.hbond>
-2.8880

> <Gold.PLP.part.metal>
0.0000

> <Gold.PLP.part.buried>
-1.6635

> <Gold.PLP.part.nonpolar>
-26.4188

> <Gold.PLP.part.repulsive>
0.1997

> <Gold.PLP.ligand.clash>
0.0000

> <Gold.PLP.ligand.torsion>
0.3628

> <Gold.PLP.Chemscore.Hbond>
3.9913

> <Gold.PLP.Chemscore.CHOScore>
0.9307

> <Gold.PLP.Chemscore.Metal>
0.0000

> <Gold.Chemscore.Hbonds>
donor molecule, donor type, donor heavy atom, donor atom, acceptor molecule, acceptor atom, score
      L1  H     9    42       P1 10175  2.00
      L1  H    12    34       P1 10175  1.00
      P1  H  7989  7998       L1     4  0.91
      L1  C    17    39       P1  8028  0.95

> <Gold.PLP.Chemscore.Internal.Correction>
0.1282

> <Gold.Rescore>
     Score         DG    S(hbond)    S(metal)    S(lipo)     H(rot)  DE(clash)    DE(int)     intcor
     15.45     -16.85       2.94        0.00      68.55       2.52       0.36       1.04       ----

> <Gold.Chemscore.Fitness>
15.4545

> <Gold.Chemscore.DG>
-16.8470

> <Gold.Chemscore.ZeroCoef>
-5.4800

> <Gold.Chemscore.Hbond>
2.9367

> <Gold.Chemscore.Metal>
0.0000

> <Gold.Chemscore.Lipo>
68.5526

> <Gold.Chemscore.Internal_Hbond>
0.0000

> <Gold.Chemscore.DEClash>
0.3569

> <Gold.Chemscore.DEInternal>
1.0356

> <Gold.Chemscore.Rot>
2.5243

> <Gold.Chemscore.Internal.Correction>
   9.000000E+99

> <Gold.Chemscore.Hbonds>
donor molecule, donor type, donor heavy atom, donor atom, acceptor molecule, acceptor atom, score
      L1  H     9    42       P1 10175  0.91
      L1  H    12    34       P1 10175  0.99
      P1  H  7989  7998       L1     4  0.86

> <Gold.Chemscore.Hbond.Weighted>
-9.8085

> <Gold.Chemscore.Metal.Weighted>
-0.0000

> <Gold.Chemscore.Lipo.Weighted>
-8.0206

> <Gold.Chemscore.Internal_Hbond.Weighted>
0.0000

> <Gold.Chemscore.DEClash.Weighted>
0.3569

> <Gold.Chemscore.DEInternal.Weighted>
1.0356

> <Gold.Chemscore.Rot.Weighted>
6.4622

> <Gold.Chemscore.Internal.Correction.Weighted>
   9.000000E+99

> <Gold.Protein.RotatedTorsions>
[ 6907 6896 6895 6894 ] final   80.34 input  -60.11 | X-H torsion
[ 7974 7965 7964 7962 ] final  119.03 input  175.53 | X-H torsion
[ 8008 7997 7996 7995 ] final  -57.20 input   59.86 | X-H torsion
[ 10167 10162 10161 10158 ] final  -37.45 input  -65.29 | X-H torsion
[ 10718 10713 10712 10709 ] final -102.11 input   66.30 | X-H torsion
[ 10763 10752 10751 10750 ] final  -41.83 input  -60.55 | X-H torsion
[ 11005 11000 10999 10996 ] final -108.65 input  -57.11 | X-H torsion

> <Gold.Protein.ActiveResidues>
 VAL166  LYS551  ARG553  GLY616  TRP617  ASP618  TYR619  PRO620  LYS621  CYS622 
 ASP623  PHE694  ASN695  SER759  ASP760  ASP761  ALA762  ILE779  LEU786  VAL792 
 PHE793  MET794  SER795  GLU796  ALA797  LYS798  CYS799  TRP800  GLU811  SER814 

> <Gold.Protein.RotatedAtoms>
  152.5231  134.3372  159.9203 H   0  0  0  0  0  0  0  0  0  0  0  0  # atno 6907 bound_to 6896
  151.3322  133.3990  159.2671 H   0  0  0  0  0  0  0  0  0  0  0  0  # atno 6908 bound_to 6896
  150.9871  134.9232  159.7936 H   0  0  0  0  0  0  0  0  0  0  0  0  # atno 6909 bound_to 6896
  145.1481  139.3227  143.4581 H   0  0  0  0  0  0  0  0  0  0  0  0  # atno 7974 bound_to 7965
  154.4259  140.1112  156.5759 H   0  0  0  0  0  0  0  0  0  0  0  0  # atno 8008 bound_to 7997
  155.6164  140.3494  155.4619 H   0  0  0  0  0  0  0  0  0  0  0  0  # atno 8009 bound_to 7997
  156.0059  140.1209  157.0491 H   0  0  0  0  0  0  0  0  0  0  0  0  # atno 8010 bound_to 7997
  140.7118  143.3341  151.2502 H   0  0  0  0  0  0  0  0  0  0  0  0  # atno 10167 bound_to 10162
  156.0217  130.5404  150.7060 H   0  0  0  0  0  0  0  0  0  0  0  0  # atno 10718 bound_to 10713
  153.9691  135.6730  153.4746 H   0  0  0  0  0  0  0  0  0  0  0  0  # atno 10763 bound_to 10752
  153.0801  135.4927  154.8483 H   0  0  0  0  0  0  0  0  0  0  0  0  # atno 10764 bound_to 10752
  154.7229  135.3121  154.8978 H   0  0  0  0  0  0  0  0  0  0  0  0  # atno 10765 bound_to 10752
  141.0890  133.9088  157.2120 H   0  0  0  0  0  0  0  0  0  0  0  0  # atno 11005 bound_to 11000
  146.3498  140.1544  142.8592 LP  0  0  0  0  0  0  0  0  0  0  0  0  # atno 17320 bound_to 7965
  145.0460  140.8982  143.5024 LP  0  0  0  0  0  0  0  0  0  0  0  0  # atno 17321 bound_to 7965
  139.6831  143.9820  152.2819 LP  0  0  0  0  0  0  0  0  0  0  0  0  # atno 17342 bound_to 10162
  139.9456  144.6653  150.8222 LP  0  0  0  0  0  0  0  0  0  0  0  0  # atno 17343 bound_to 10162
  157.4709  131.0893  151.0643 LP  0  0  0  0  0  0  0  0  0  0  0  0  # atno 17370 bound_to 10713
  157.1103  130.6019  149.5480 LP  0  0  0  0  0  0  0  0  0  0  0  0  # atno 17371 bound_to 10713
  139.9712  135.0127  156.9518 LP  0  0  0  0  0  0  0  0  0  0  0  0  # atno 17394 bound_to 11000
  140.5296  134.0826  155.7312 LP  0  0  0  0  0  0  0  0  0  0  0  0  # atno 17395 bound_to 11000

$$$$
