AV-unprocessed.smi:215|AV-procd|sdf|1656|dock3
  -GOLD-   2262020 43D 1   1.00000     0.00000
 Structure written by MMmdl.
 59 62  0  0  0  0  0  0  0  0  2 V2000
  155.5870  137.7507  164.1637 C   0  0  0  0  0  0  0  0  0  0  0  0
  156.7864  138.0097  163.2370 C   0  0  2  0  0  0  0  0  0  0  0  0
  158.1454  137.7518  163.8987 C   0  0  1  0  0  0  0  0  0  0  0  0
  158.4846  136.3193  164.1491 N   0  3  1  0  0  0  0  0  0  0  0  0
  159.9359  135.9991  164.1772 C   0  0  0  0  0  0  0  0  0  0  0  0
  157.7525  135.7630  165.3176 C   0  0  0  0  0  0  0  0  0  0  0  0
  158.4652  136.0497  166.6501 C   0  0  0  0  0  0  0  0  0  0  0  0
  157.6958  135.5536  167.7249 O   0  0  0  0  0  0  0  0  0  0  0  0
  159.0994  138.5118  162.9731 C   0  0  0  0  0  0  0  0  0  0  0  0
  158.2723  139.7352  162.5587 C   0  0  0  0  0  0  0  0  0  0  0  0
  156.8679  139.4011  162.8017 N   0  0  0  0  0  0  0  0  0  0  0  0
  155.9958  139.7382  161.8242 C   0  0  0  0  0  0  0  0  0  0  0  0
  156.0220  139.0870  160.6314 N   0  0  0  0  0  0  0  0  0  0  0  0
  155.1456  139.4124  159.6764 C   0  0  0  0  0  0  0  0  0  0  0  0
  154.1785  140.3317  159.7097 N   0  0  0  0  0  0  0  0  0  0  0  0
  154.1461  140.9819  160.9091 C   0  0  0  0  0  0  0  0  0  0  0  0
  155.0141  140.7459  162.0115 C   0  0  0  0  0  0  0  0  0  0  0  0
  154.6894  141.5878  163.0664 N   0  0  0  0  0  0  0  0  0  0  0  0
  153.6838  142.2858  162.6134 C   0  0  0  0  0  0  0  0  0  0  0  0
  153.2892  141.9885  161.3270 N   0  0  0  0  0  0  0  0  0  0  0  0
  152.2150  142.6078  160.6012 C   0  0  0  0  0  0  0  0  0  0  0  0
  152.0264  142.3754  159.0993 C   0  0  0  0  0  0  0  0  0  0  0  0
  151.4839  143.8172  158.9571 C   0  0  0  0  0  0  0  0  0  0  0  0
  151.9381  144.6021  157.7103 C   0  0  0  0  0  0  0  0  0  0  0  0
  151.2807  144.1798  156.5321 O   0  0  0  0  0  0  0  0  0  0  0  0
  149.9482  143.9169  159.0243 C   0  0  0  0  0  0  0  0  0  0  0  0
  149.3338  143.2470  157.9419 O   0  0  0  0  0  0  0  0  0  0  0  0
  152.2249  144.1056  160.2846 C   0  0  0  0  0  0  0  0  0  0  0  0
  156.6784  137.3936  162.3450 H   0  0  0  0  0  0  0  0  0  0  0  0
  158.1334  138.2638  164.8633 H   0  0  0  0  0  0  0  0  0  0  0  0
  155.5721  136.7149  164.5033 H   0  0  0  0  0  0  0  0  0  0  0  0
  154.6425  137.9396  163.6529 H   0  0  0  0  0  0  0  0  0  0  0  0
  155.6219  138.3909  165.0460 H   0  0  0  0  0  0  0  0  0  0  0  0
  160.4379  136.4633  165.0258 H   0  0  0  0  0  0  0  0  0  0  0  0
  160.4412  136.3099  163.2648 H   0  0  0  0  0  0  0  0  0  0  0  0
  160.0935  134.9245  164.2573 H   0  0  0  0  0  0  0  0  0  0  0  0
  156.7387  136.1658  165.3353 H   0  0  0  0  0  0  0  0  0  0  0  0
  157.6433  134.6818  165.2196 H   0  0  0  0  0  0  0  0  0  0  0  0
  159.4664  135.6218  166.6851 H   0  0  0  0  0  0  0  0  0  0  0  0
  158.5788  137.1261  166.7819 H   0  0  0  0  0  0  0  0  0  0  0  0
  156.7827  135.5793  167.4801 H   0  0  0  0  0  0  0  0  0  0  0  0
  160.0377  138.7845  163.4567 H   0  0  0  0  0  0  0  0  0  0  0  0
  159.3364  137.9337  162.0808 H   0  0  0  0  0  0  0  0  0  0  0  0
  158.5245  140.5862  163.1920 H   0  0  0  0  0  0  0  0  0  0  0  0
  158.4857  140.0271  161.5296 H   0  0  0  0  0  0  0  0  0  0  0  0
  155.2289  138.8563  158.7542 H   0  0  0  0  0  0  0  0  0  0  0  0
  153.1987  143.0426  163.2128 H   0  0  0  0  0  0  0  0  0  0  0  0
  151.2963  142.3505  161.1318 H   0  0  0  0  0  0  0  0  0  0  0  0
  152.9682  142.2058  158.5767 H   0  0  0  0  0  0  0  0  0  0  0  0
  151.3083  141.5919  158.8555 H   0  0  0  0  0  0  0  0  0  0  0  0
  151.7491  145.6688  157.8338 H   0  0  0  0  0  0  0  0  0  0  0  0
  153.0096  144.4893  157.5441 H   0  0  0  0  0  0  0  0  0  0  0  0
  150.5057  144.7074  156.4144 H   0  0  0  0  0  0  0  0  0  0  0  0
  149.5687  143.4974  159.9567 H   0  0  0  0  0  0  0  0  0  0  0  0
  149.6183  144.9558  159.0025 H   0  0  0  0  0  0  0  0  0  0  0  0
  149.0894  143.8876  157.2914 H   0  0  0  0  0  0  0  0  0  0  0  0
  151.6704  144.7154  160.9983 H   0  0  0  0  0  0  0  0  0  0  0  0
  153.2312  144.5016  160.1442 H   0  0  0  0  0  0  0  0  0  0  0  0
  158.1091  135.8273  163.3504 H   0  0  0  0  0  0  0  0  0  0  0  0
  1  2  1  0  0  0  0
  1 31  1  0  0  0  0
  1 32  1  0  0  0  0
  1 33  1  0  0  0  0
  2 29  1  0  0  0  0
  2 11  1  0  0  0  0
  2  3  1  0  0  0  0
  3 30  1  0  0  0  0
  3  4  1  0  0  0  0
  3  9  1  0  0  0  0
  4  5  1  0  0  0  0
  4  6  1  0  0  0  0
  4 59  1  0  0  0  0
  5 34  1  0  0  0  0
  5 35  1  0  0  0  0
  5 36  1  0  0  0  0
  6  7  1  0  0  0  0
  6 37  1  0  0  0  0
  6 38  1  0  0  0  0
  7  8  1  0  0  0  0
  7 39  1  0  0  0  0
  7 40  1  0  0  0  0
  8 41  1  0  0  0  0
  9 10  1  0  0  0  0
  9 42  1  0  0  0  0
  9 43  1  0  0  0  0
 10 11  1  0  0  0  0
 10 44  1  0  0  0  0
 10 45  1  0  0  0  0
 11 12  1  0  0  0  0
 12 17  1  0  0  0  0
 12 13  2  0  0  0  0
 13 14  1  0  0  0  0
 14 15  2  0  0  0  0
 14 46  1  0  0  0  0
 15 16  1  0  0  0  0
 16 20  1  0  0  0  0
 16 17  2  0  0  0  0
 17 18  1  0  0  0  0
 18 19  2  0  0  0  0
 19 20  1  0  0  0  0
 19 47  1  0  0  0  0
 20 21  1  0  0  0  0
 21 28  1  0  0  0  0
 21 22  1  0  0  0  0
 21 48  1  0  0  0  0
 22 23  1  0  0  0  0
 22 49  1  0  0  0  0
 22 50  1  0  0  0  0
 23 24  1  0  0  0  0
 23 26  1  0  0  0  0
 23 28  1  0  0  0  0
 24 25  1  0  0  0  0
 24 51  1  0  0  0  0
 24 52  1  0  0  0  0
 25 53  1  0  0  0  0
 26 27  1  0  0  0  0
 26 54  1  0  0  0  0
 26 55  1  0  0  0  0
 27 56  1  0  0  0  0
 28 57  1  0  0  0  0
 28 58  1  0  0  0  0
M  CHG  1   4   1
M  END
> <s_m_source_file>
AV-unprocessed.smi

> <i_m_source_file_index>
215

> <i_lp_mmshare_version>
43012

> <i_f3d_flags>
0

> <s_epik_input>
W09IXVtDSDJdW0NIMl1OKFtDSDNdKVtDQEBIXShbQ0BIXTFbQ0gzXSlbQ0gyXVtDSDJdTjFjKG5bY0hdbjIpYyhjMjMpbltjSF1uM1tDSF0oW0NIMl00KVtDSDJdQzQoW0NIMl1bT0hdKVtDSDJdW09IXQ==

> <s_epik_cmdline>
J2VwaWtfcHl0aG9uJywgJy1waCcsICc3LjAnLCAnLXRuJywgJzgnLCAnLW1hJywgJzIwMCcsICctbWV0YWxfYmluZGluZycsICctaW1hZScsICc8aW5maWxlLm1hZT4nLCAnLW9tYWUnLCAnPG91dGZpbGUubWFlPic=

> <r_lp_tautomer_probability>
1

> <r_epik_Ionization_Penalty>
0.0036237

> <r_epik_Ionization_Penalty_Charging>
0.0032725

> <r_epik_Ionization_Penalty_Neutral>
0.000351196

> <r_epik_State_Penalty>
-0

> <r_epik_Charging_Adjusted_Penalty>
0.0032725

> <i_epik_Tot_Q>
1

> <i_epik_Tot_abs_Q>
1

> <r_epik_Metal_State_Penalty>
-0

> <b_epik_Metal_Only>
0

> <s_lp_Force_Field>
OPLS_2005

> <r_lp_Energy>
69.5021

> <b_lp_Chiralities_Consistent>
1

> <s_lp_Variant>
AV-unprocessed.smi:215-7

> <Gold.Version>
5.8.1

> <Gold.Id.Protein>
6NUR|6NUR_protein|mol2

> <Gold.PLP.Fitness>
47.5508

> <Gold.PLP.PLP>
-42.9238

> <Gold.PLP.part.hbond>
-5.2576

> <Gold.PLP.part.metal>
0.0000

> <Gold.PLP.part.buried>
-3.4319

> <Gold.PLP.part.nonpolar>
-34.1050

> <Gold.PLP.part.repulsive>
0.0000

> <Gold.PLP.ligand.clash>
0.0000

> <Gold.PLP.ligand.torsion>
0.9772

> <Gold.PLP.Chemscore.Hbond>
1.9760

> <Gold.PLP.Chemscore.CHOScore>
0.0000

> <Gold.PLP.Chemscore.Metal>
0.0000

> <Gold.Chemscore.Hbonds>
donor molecule, donor type, donor heavy atom, donor atom, acceptor molecule, acceptor atom, score
      L1  H    25    53       P1  8028  0.90
      L1  H    27    56       P1  8028  0.90

> <Gold.PLP.Chemscore.Internal.Correction>
0.6533

> <Gold.Rescore>
     Score         DG    S(hbond)    S(metal)    S(lipo)     H(rot)  DE(clash)    DE(int)     intcor
      5.87      -9.26       1.93        0.00      82.51       4.81       1.57       1.82       ----

> <Gold.Chemscore.Fitness>
5.8674

> <Gold.Chemscore.DG>
-9.2585

> <Gold.Chemscore.ZeroCoef>
-5.4800

> <Gold.Chemscore.Hbond>
1.9274

> <Gold.Chemscore.Metal>
0.0000

> <Gold.Chemscore.Lipo>
82.5135

> <Gold.Chemscore.Internal_Hbond>
0.0000

> <Gold.Chemscore.DEClash>
1.5665

> <Gold.Chemscore.DEInternal>
1.8246

> <Gold.Chemscore.Rot>
4.8098

> <Gold.Chemscore.Internal.Correction>
   9.000000E+99

> <Gold.Chemscore.Hbonds>
donor molecule, donor type, donor heavy atom, donor atom, acceptor molecule, acceptor atom, score
      L1  H    25    53       P1  8028  0.85
      L1  H    27    56       P1  8028  0.18

> <Gold.Chemscore.Hbond.Weighted>
-6.4375

> <Gold.Chemscore.Metal.Weighted>
-0.0000

> <Gold.Chemscore.Lipo.Weighted>
-9.6541

> <Gold.Chemscore.Internal_Hbond.Weighted>
0.0000

> <Gold.Chemscore.DEClash.Weighted>
1.5665

> <Gold.Chemscore.DEInternal.Weighted>
1.8246

> <Gold.Chemscore.Rot.Weighted>
12.3130

> <Gold.Chemscore.Internal.Correction.Weighted>
   9.000000E+99

> <Gold.Protein.RotatedTorsions>
[ 6907 6896 6895 6894 ] final  153.62 input  -60.11 | X-H torsion
[ 7974 7965 7964 7962 ] final  -65.37 input  175.53 | X-H torsion
[ 8008 7997 7996 7995 ] final -118.05 input   59.86 | X-H torsion
[ 10167 10162 10161 10158 ] final   22.54 input  -65.29 | X-H torsion
[ 10718 10713 10712 10709 ] final   -3.27 input   66.30 | X-H torsion
[ 10763 10752 10751 10750 ] final  -18.07 input  -60.55 | X-H torsion
[ 11005 11000 10999 10996 ] final  128.97 input  -57.11 | X-H torsion

> <Gold.Protein.ActiveResidues>
 VAL166  LYS551  ARG553  GLY616  TRP617  ASP618  TYR619  PRO620  LYS621  CYS622 
 ASP623  PHE694  ASN695  SER759  ASP760  ASP761  ALA762  ILE779  LEU786  VAL792 
 PHE793  MET794  SER795  GLU796  ALA797  LYS798  CYS799  TRP800  GLU811  SER814 

> <Gold.Protein.RotatedAtoms>
  152.0700  133.4102  159.4454 H   0  0  0  0  0  0  0  0  0  0  0  0  # atno 6907 bound_to 6896
  150.6864  134.3102  159.4752 H   0  0  0  0  0  0  0  0  0  0  0  0  # atno 6908 bound_to 6896
  152.0933  134.9392  160.0622 H   0  0  0  0  0  0  0  0  0  0  0  0  # atno 6909 bound_to 6896
  145.7551  140.8889  143.0459 H   0  0  0  0  0  0  0  0  0  0  0  0  # atno 7974 bound_to 7965
  155.0934  140.0395  157.2675 H   0  0  0  0  0  0  0  0  0  0  0  0  # atno 8008 bound_to 7997
  154.6814  140.2634  155.6880 H   0  0  0  0  0  0  0  0  0  0  0  0  # atno 8009 bound_to 7997
  156.2696  140.2778  156.1359 H   0  0  0  0  0  0  0  0  0  0  0  0  # atno 8010 bound_to 7997
  140.5341  143.9791  150.6481 H   0  0  0  0  0  0  0  0  0  0  0  0  # atno 10167 bound_to 10162
  156.7785  130.5323  149.5755 H   0  0  0  0  0  0  0  0  0  0  0  0  # atno 10718 bound_to 10713
  153.5836  135.7004  153.5452 H   0  0  0  0  0  0  0  0  0  0  0  0  # atno 10763 bound_to 10752
  153.3239  135.4066  155.1439 H   0  0  0  0  0  0  0  0  0  0  0  0  # atno 10764 bound_to 10752
  154.8613  135.3702  154.5365 H   0  0  0  0  0  0  0  0  0  0  0  0  # atno 10765 bound_to 10752
  139.9589  134.9607  156.9080 H   0  0  0  0  0  0  0  0  0  0  0  0  # atno 11005 bound_to 11000
  144.6841  139.9645  143.7481 LP  0  0  0  0  0  0  0  0  0  0  0  0  # atno 17320 bound_to 7965
  146.0319  139.3342  143.0750 LP  0  0  0  0  0  0  0  0  0  0  0  0  # atno 17321 bound_to 7965
  140.3174  143.3159  152.0818 LP  0  0  0  0  0  0  0  0  0  0  0  0  # atno 17342 bound_to 10162
  139.4964  144.6596  151.6494 LP  0  0  0  0  0  0  0  0  0  0  0  0  # atno 17343 bound_to 10162
  156.1233  130.6125  151.0226 LP  0  0  0  0  0  0  0  0  0  0  0  0  # atno 17370 bound_to 10713
  157.6658  131.0872  150.7732 LP  0  0  0  0  0  0  0  0  0  0  0  0  # atno 17371 bound_to 10713
  140.5544  134.0595  155.7379 LP  0  0  0  0  0  0  0  0  0  0  0  0  # atno 17394 bound_to 11000
  141.1264  133.9375  157.2625 LP  0  0  0  0  0  0  0  0  0  0  0  0  # atno 17395 bound_to 11000

$$$$
