AV-unprocessed.smi:1427|AV-procd|sdf|5811|dock4
  -GOLD-   22720 5463D 1   1.00000     0.00000
 Structure written by MMmdl.
 33 34  0  0  0  0  0  0  0  0  1 V2000
  150.5492  141.2106  158.4991 C   0  0  0  0  0  0  0  0  0  0  0  0
  150.8768  142.1183  157.3059 C   0  0  2  0  0  0  0  0  0  0  0  0
  151.5126  143.4462  157.7674 C   0  0  0  0  0  0  0  0  0  0  0  0
  152.2193  143.3177  159.0300 N   0  0  0  0  0  0  0  0  0  0  0  0
  153.2227  142.4319  159.3622 C   0  0  0  0  0  0  0  0  0  0  0  0
  153.5851  142.6940  160.6522 C   0  0  0  0  0  0  0  0  0  0  0  0
  152.7338  143.7697  161.0304 C   0  0  0  0  0  0  0  0  0  0  0  0
  151.9155  144.1393  160.0584 N   0  0  0  0  0  0  0  0  0  0  0  0
  149.6510  142.3666  156.5488 N   0  0  0  0  0  0  0  0  0  0  0  0
  149.1445  141.5800  155.5825 C   0  0  0  0  0  0  0  0  0  0  0  0
  149.6763  140.5271  155.2311 O   0  0  0  0  0  0  0  0  0  0  0  0
  147.8554  142.0378  154.8761 C   0  0  1  0  0  0  0  0  0  0  0  0
  146.8064  140.9042  154.8088 C   0  0  0  0  0  0  0  0  0  0  0  0
  145.4788  141.5083  155.2873 C   0  0  0  0  0  0  0  0  0  0  0  0
  145.8798  142.8744  155.8122 C   0  0  0  0  0  0  0  0  0  0  0  0
  145.1023  143.6367  156.3813 O   0  0  0  0  0  0  0  0  0  0  0  0
  147.1656  143.1180  155.5674 N   0  0  0  0  0  0  0  0  0  0  0  0
  151.4450  140.9873  159.0792 H   0  0  0  0  0  0  0  0  0  0  0  0
  150.1286  140.2610  158.1665 H   0  0  0  0  0  0  0  0  0  0  0  0
  149.8270  141.6789  159.1691 H   0  0  0  0  0  0  0  0  0  0  0  0
  151.5978  141.5837  156.6847 H   0  0  0  0  0  0  0  0  0  0  0  0
  152.1966  143.8293  157.0079 H   0  0  0  0  0  0  0  0  0  0  0  0
  150.7396  144.2041  157.8980 H   0  0  0  0  0  0  0  0  0  0  0  0
  153.5940  141.7014  158.6586 H   0  0  0  0  0  0  0  0  0  0  0  0
  154.3439  142.1944  161.2361 H   0  0  0  0  0  0  0  0  0  0  0  0
  152.6859  144.2890  161.9762 H   0  0  0  0  0  0  0  0  0  0  0  0
  149.1482  143.2139  156.7703 H   0  0  0  0  0  0  0  0  0  0  0  0
  148.1047  142.3831  153.8718 H   0  0  0  0  0  0  0  0  0  0  0  0
  146.7176  140.5163  153.7934 H   0  0  0  0  0  0  0  0  0  0  0  0
  147.0727  140.0604  155.4483 H   0  0  0  0  0  0  0  0  0  0  0  0
  144.7714  141.6232  154.4654 H   0  0  0  0  0  0  0  0  0  0  0  0
  145.0138  140.9082  156.0702 H   0  0  0  0  0  0  0  0  0  0  0  0
  147.6332  143.9749  155.8263 H   0  0  0  0  0  0  0  0  0  0  0  0
  1  2  1  0  0  0  0
  1 18  1  0  0  0  0
  1 19  1  0  0  0  0
  1 20  1  0  0  0  0
  2  3  1  0  0  0  0
  2  9  1  0  0  0  0
  2 21  1  0  0  0  0
  3  4  1  0  0  0  0
  3 22  1  0  0  0  0
  3 23  1  0  0  0  0
  4  8  1  0  0  0  0
  4  5  1  0  0  0  0
  5  6  2  0  0  0  0
  5 24  1  0  0  0  0
  6  7  1  0  0  0  0
  6 25  1  0  0  0  0
  7  8  2  0  0  0  0
  7 26  1  0  0  0  0
  9 10  1  0  0  0  0
  9 27  1  0  0  0  0
 10 11  2  0  0  0  0
 10 12  1  0  0  0  0
 12 17  1  0  0  0  0
 12 13  1  0  0  0  0
 12 28  1  0  0  0  0
 13 14  1  0  0  0  0
 13 29  1  0  0  0  0
 13 30  1  0  0  0  0
 14 15  1  0  0  0  0
 14 31  1  0  0  0  0
 14 32  1  0  0  0  0
 15 16  2  0  0  0  0
 15 17  1  0  0  0  0
 17 33  1  0  0  0  0
M  END
> <s_m_source_file>
AV-unprocessed.smi

> <i_m_source_file_index>
1427

> <i_lp_mmshare_version>
43012

> <i_f3d_flags>
0

> <s_epik_input>
bjFbY0hdW2NIXVtjSF1uMVtDSDJdW0NAQEhdKFtDSDNdKVtOSF1DKD1PKVtDQEBIXTJbQ0gyXVtDSDJdQyg9TylbTkhdMg==

> <s_epik_cmdline>
J2VwaWtfcHl0aG9uJywgJy1waCcsICc3LjAnLCAnLXRuJywgJzgnLCAnLW1hJywgJzIwMCcsICctbWV0YWxfYmluZGluZycsICctaW1hZScsICc8aW5maWxlLm1hZT4nLCAnLW9tYWUnLCAnPG91dGZpbGUubWFlPic=

> <r_lp_tautomer_probability>
1

> <r_epik_Ionization_Penalty>
0.000310707

> <r_epik_Ionization_Penalty_Charging>
0

> <r_epik_Ionization_Penalty_Neutral>
0.000310707

> <r_epik_State_Penalty>
-0

> <r_epik_Charging_Adjusted_Penalty>
0

> <i_epik_Tot_Q>
0

> <i_epik_Tot_abs_Q>
0

> <r_epik_Metal_State_Penalty>
-0

> <b_epik_Metal_Only>
0

> <s_lp_Force_Field>
OPLS_2005

> <r_lp_Energy>
14.9883

> <b_lp_Chiralities_Consistent>
1

> <s_lp_Variant>
AV-unprocessed.smi:1427-3

> <Gold.Version>
5.8.1

> <Gold.Id.Protein>
6NUR|6NUR_protein|mol2

> <Gold.PLP.Fitness>
44.2550

> <Gold.PLP.PLP>
-37.5212

> <Gold.PLP.part.hbond>
-3.0000

> <Gold.PLP.part.metal>
0.0000

> <Gold.PLP.part.buried>
-3.5842

> <Gold.PLP.part.nonpolar>
-31.3682

> <Gold.PLP.part.repulsive>
0.6021

> <Gold.PLP.ligand.clash>
0.0000

> <Gold.PLP.ligand.torsion>
1.0820

> <Gold.PLP.Chemscore.Hbond>
2.9600

> <Gold.PLP.Chemscore.CHOScore>
0.0000

> <Gold.PLP.Chemscore.Metal>
0.0000

> <Gold.Chemscore.Hbonds>
donor molecule, donor type, donor heavy atom, donor atom, acceptor molecule, acceptor atom, score
      L1  H     9    27       P1  8028  0.56

> <Gold.PLP.Chemscore.Internal.Correction>
0.0178

> <Gold.Rescore>
     Score         DG    S(hbond)    S(metal)    S(lipo)     H(rot)  DE(clash)    DE(int)     intcor
     16.29     -17.64       2.24        0.00      81.22       1.88       0.41       0.94       ----

> <Gold.Chemscore.Fitness>
16.2902

> <Gold.Chemscore.DG>
-17.6422

> <Gold.Chemscore.ZeroCoef>
-5.4800

> <Gold.Chemscore.Hbond>
2.2389

> <Gold.Chemscore.Metal>
0.0000

> <Gold.Chemscore.Lipo>
81.2169

> <Gold.Chemscore.Internal_Hbond>
0.0000

> <Gold.Chemscore.DEClash>
0.4130

> <Gold.Chemscore.DEInternal>
0.9390

> <Gold.Chemscore.Rot>
1.8821

> <Gold.Chemscore.Internal.Correction>
   9.000000E+99

> <Gold.Chemscore.Hbonds>
donor molecule, donor type, donor heavy atom, donor atom, acceptor molecule, acceptor atom, score
      L1  H     9    27       P1  8028  0.54

> <Gold.Chemscore.Hbond.Weighted>
-7.4779

> <Gold.Chemscore.Metal.Weighted>
-0.0000

> <Gold.Chemscore.Lipo.Weighted>
-9.5024

> <Gold.Chemscore.Internal_Hbond.Weighted>
0.0000

> <Gold.Chemscore.DEClash.Weighted>
0.4130

> <Gold.Chemscore.DEInternal.Weighted>
0.9390

> <Gold.Chemscore.Rot.Weighted>
4.8181

> <Gold.Chemscore.Internal.Correction.Weighted>
   9.000000E+99

> <Gold.Protein.RotatedTorsions>
[ 6907 6896 6895 6894 ] final -154.51 input  -60.11 | X-H torsion
[ 7974 7965 7964 7962 ] final -145.19 input  175.53 | X-H torsion
[ 8008 7997 7996 7995 ] final -139.45 input   59.86 | X-H torsion
[ 10167 10162 10161 10158 ] final   66.21 input  -65.29 | X-H torsion
[ 10718 10713 10712 10709 ] final  -61.41 input   66.30 | X-H torsion
[ 10763 10752 10751 10750 ] final  -84.86 input  -60.55 | X-H torsion
[ 11005 11000 10999 10996 ] final  172.32 input  -57.11 | X-H torsion

> <Gold.Protein.ActiveResidues>
 VAL166  LYS551  ARG553  GLY616  TRP617  ASP618  TYR619  PRO620  LYS621  CYS622 
 ASP623  PHE694  ASN695  SER759  ASP760  ASP761  ALA762  ILE779  LEU786  VAL792 
 PHE793  MET794  SER795  GLU796  ALA797  LYS798  CYS799  TRP800  GLU811  SER814 

> <Gold.Protein.RotatedAtoms>
  151.2586  133.4313  159.2614 H   0  0  0  0  0  0  0  0  0  0  0  0  # atno 6907 bound_to 6896
  151.0551  134.9699  159.8242 H   0  0  0  0  0  0  0  0  0  0  0  0  # atno 6908 bound_to 6896
  152.5389  134.2539  159.8962 H   0  0  0  0  0  0  0  0  0  0  0  0  # atno 6909 bound_to 6896
  144.8244  140.5615  143.5556 H   0  0  0  0  0  0  0  0  0  0  0  0  # atno 7974 bound_to 7965
  155.4451  140.0534  157.3007 H   0  0  0  0  0  0  0  0  0  0  0  0  # atno 8008 bound_to 7997
  154.4801  140.2078  155.9740 H   0  0  0  0  0  0  0  0  0  0  0  0  # atno 8009 bound_to 7997
  156.1193  140.3191  155.8189 H   0  0  0  0  0  0  0  0  0  0  0  0  # atno 8010 bound_to 7997
  140.1029  144.4887  150.7026 H   0  0  0  0  0  0  0  0  0  0  0  0  # atno 10167 bound_to 10162
  156.0924  130.4198  150.0990 H   0  0  0  0  0  0  0  0  0  0  0  0  # atno 10718 bound_to 10713
  154.6044  135.5505  153.7408 H   0  0  0  0  0  0  0  0  0  0  0  0  # atno 10763 bound_to 10752
  153.0168  135.6374  154.1668 H   0  0  0  0  0  0  0  0  0  0  0  0  # atno 10764 bound_to 10752
  154.1607  135.2897  155.3089 H   0  0  0  0  0  0  0  0  0  0  0  0  # atno 10765 bound_to 10752
  140.3284  134.7378  157.4116 H   0  0  0  0  0  0  0  0  0  0  0  0  # atno 11005 bound_to 11000
  145.5032  139.1482  143.3646 LP  0  0  0  0  0  0  0  0  0  0  0  0  # atno 17320 bound_to 7965
  146.2550  140.5172  142.8877 LP  0  0  0  0  0  0  0  0  0  0  0  0  # atno 17321 bound_to 7965
  140.6968  143.2409  151.4979 LP  0  0  0  0  0  0  0  0  0  0  0  0  # atno 17342 bound_to 10162
  139.5661  144.2039  152.1767 LP  0  0  0  0  0  0  0  0  0  0  0  0  # atno 17343 bound_to 10162
  156.8997  130.9616  151.3578 LP  0  0  0  0  0  0  0  0  0  0  0  0  # atno 17370 bound_to 10713
  157.6076  130.8559  149.8900 LP  0  0  0  0  0  0  0  0  0  0  0  0  # atno 17371 bound_to 10713
  140.0882  134.5638  155.8471 LP  0  0  0  0  0  0  0  0  0  0  0  0  # atno 17394 bound_to 11000
  141.2069  133.6660  156.6274 LP  0  0  0  0  0  0  0  0  0  0  0  0  # atno 17395 bound_to 11000

$$$$
