AV-unprocessed.smi:298|AV-procd|sdf|2262|dock3
  -GOLD-   2262022153D 1   1.00000     0.00000
 Structure written by MMmdl.
 38 40  0  0  0  0  0  0  0  0  1 V2000
  152.1613  144.0419  159.8482 C   0  0  0  0  0  0  0  0  0  0  0  0
  151.9845  142.8673  158.9023 C   0  0  0  0  0  0  0  0  0  0  0  0
  151.1189  143.0022  157.7933 C   0  0  0  0  0  0  0  0  0  0  0  0
  150.9303  141.9356  156.8874 C   0  0  0  0  0  0  0  0  0  0  0  0
  150.1463  141.8492  155.7494 N   0  0  0  0  0  0  0  0  0  0  0  0
  150.4005  140.6090  155.3416 C   0  0  0  0  0  0  0  0  0  0  0  0
  151.2585  139.8812  156.0818 N   0  0  0  0  0  0  0  0  0  0  0  0
  151.6913  138.5179  155.8342 C   0  0  0  0  0  0  0  0  0  0  0  0
  150.9537  137.8721  154.6418 C   0  0  1  0  0  0  0  0  0  0  0  0
  151.8283  137.0004  153.9506 O   0  0  0  0  0  0  0  0  0  0  0  0
  149.6750  137.1071  155.0479 C   0  0  0  0  0  0  0  0  0  0  0  0
  149.8784  135.6789  155.2310 N   0  0  0  0  0  0  0  0  0  0  0  0
  149.4239  134.6404  154.5219 C   0  0  0  0  0  0  0  0  0  0  0  0
  149.8099  133.4584  154.9859 N   0  0  0  0  0  0  0  0  0  0  0  0
  150.5527  133.8818  156.0496 C   0  0  0  0  0  0  0  0  0  0  0  0
  151.2232  132.9404  156.9305 C   0  0  0  0  0  0  0  0  0  0  0  0
  151.7575  132.1910  157.6321 N   0  0  0  0  0  0  0  0  0  0  0  0
  150.6368  135.1958  156.2453 N   0  0  0  0  0  0  0  0  0  0  0  0
  151.6369  140.7205  157.1239 C   0  0  0  0  0  0  0  0  0  0  0  0
  152.4996  140.5730  158.2243 C   0  0  0  0  0  0  0  0  0  0  0  0
  152.6770  141.6488  159.1192 C   0  0  0  0  0  0  0  0  0  0  0  0
  153.6133  141.4805  160.3028 C   0  0  0  0  0  0  0  0  0  0  0  0
  151.5479  144.8914  159.5468 H   0  0  0  0  0  0  0  0  0  0  0  0
  153.2013  144.3686  159.8610 H   0  0  0  0  0  0  0  0  0  0  0  0
  151.8722  143.7642  160.8621 H   0  0  0  0  0  0  0  0  0  0  0  0
  150.5925  143.9307  157.6271 H   0  0  0  0  0  0  0  0  0  0  0  0
  149.9399  140.2068  154.4512 H   0  0  0  0  0  0  0  0  0  0  0  0
  152.7690  138.5294  155.6687 H   0  0  0  0  0  0  0  0  0  0  0  0
  151.5225  137.9344  156.7404 H   0  0  0  0  0  0  0  0  0  0  0  0
  150.6700  138.6571  153.9398 H   0  0  0  0  0  0  0  0  0  0  0  0
  151.5083  136.8909  153.0681 H   0  0  0  0  0  0  0  0  0  0  0  0
  149.2893  137.5129  155.9839 H   0  0  0  0  0  0  0  0  0  0  0  0
  148.8903  137.2563  154.3046 H   0  0  0  0  0  0  0  0  0  0  0  0
  148.7927  134.7522  153.6524 H   0  0  0  0  0  0  0  0  0  0  0  0
  153.0233  139.6404  158.3751 H   0  0  0  0  0  0  0  0  0  0  0  0
  154.0765  140.4933  160.3071 H   0  0  0  0  0  0  0  0  0  0  0  0
  153.0691  141.5990  161.2401 H   0  0  0  0  0  0  0  0  0  0  0  0
  154.4109  142.2231  160.2684 H   0  0  0  0  0  0  0  0  0  0  0  0
  1  2  1  0  0  0  0
  1 23  1  0  0  0  0
  1 24  1  0  0  0  0
  1 25  1  0  0  0  0
  2 21  1  0  0  0  0
  2  3  2  0  0  0  0
  3  4  1  0  0  0  0
  3 26  1  0  0  0  0
  4 19  2  0  0  0  0
  4  5  1  0  0  0  0
  5  6  2  0  0  0  0
  6  7  1  0  0  0  0
  6 27  1  0  0  0  0
  7  8  1  0  0  0  0
  7 19  1  0  0  0  0
  8  9  1  0  0  0  0
  8 28  1  0  0  0  0
  8 29  1  0  0  0  0
  9 10  1  0  0  0  0
  9 11  1  0  0  0  0
  9 30  1  0  0  0  0
 10 31  1  0  0  0  0
 11 12  1  0  0  0  0
 11 32  1  0  0  0  0
 11 33  1  0  0  0  0
 12 18  1  0  0  0  0
 12 13  1  0  0  0  0
 13 14  2  0  0  0  0
 13 34  1  0  0  0  0
 14 15  1  0  0  0  0
 15 16  1  0  0  0  0
 15 18  2  0  0  0  0
 16 17  3  0  0  0  0
 19 20  1  0  0  0  0
 20 21  2  0  0  0  0
 20 35  1  0  0  0  0
 21 22  1  0  0  0  0
 22 36  1  0  0  0  0
 22 37  1  0  0  0  0
 22 38  1  0  0  0  0
M  END
> <s_m_source_file>
AV-unprocessed.smi

> <i_m_source_file_index>
298

> <i_lp_mmshare_version>
43012

> <i_f3d_flags>
0

> <s_epik_input>
W0NIM11jKFtjSF0xKWMoW0NIM10pW2NIXWMoYzEyKW4oW2NIXW4yKVtDSDJdW0NASF0oW09IXSlbQ0gyXW4zW2NIXW5jKG4zKUMjTg==

> <s_epik_cmdline>
J2VwaWtfcHl0aG9uJywgJy1waCcsICc3LjAnLCAnLXRuJywgJzgnLCAnLW1hJywgJzIwMCcsICctbWV0YWxfYmluZGluZycsICctaW1hZScsICc8aW5maWxlLm1hZT4nLCAnLW9tYWUnLCAnPG91dGZpbGUubWFlPic=

> <r_epik_Ionization_Penalty>
0.0968684

> <r_epik_Ionization_Penalty_Charging>
0

> <r_epik_Ionization_Penalty_Neutral>
0.0968684

> <r_epik_State_Penalty>
0.0870047

> <r_epik_Charging_Adjusted_Penalty>
0.0870047

> <i_epik_Tot_Q>
0

> <i_epik_Tot_abs_Q>
0

> <r_epik_Metal_State_Penalty>
0.0746849

> <b_epik_Metal_Only>
0

> <s_lp_Force_Field>
OPLS_2005

> <r_lp_Energy>
12.6861

> <b_lp_Chiralities_Consistent>
1

> <s_lp_Variant>
AV-unprocessed.smi:298-2

> <Gold.Version>
5.8.1

> <Gold.Id.Protein>
6NUR|6NUR_protein|mol2

> <Gold.PLP.Fitness>
50.4838

> <Gold.PLP.PLP>
-41.1821

> <Gold.PLP.part.hbond>
-3.0000

> <Gold.PLP.part.metal>
0.0000

> <Gold.PLP.part.buried>
-3.1793

> <Gold.PLP.part.nonpolar>
-35.9734

> <Gold.PLP.part.repulsive>
0.3536

> <Gold.PLP.ligand.clash>
0.0000

> <Gold.PLP.ligand.torsion>
0.9707

> <Gold.PLP.Chemscore.Hbond>
2.7434

> <Gold.PLP.Chemscore.CHOScore>
1.0000

> <Gold.PLP.Chemscore.Metal>
0.0000

> <Gold.Chemscore.Hbonds>
donor molecule, donor type, donor heavy atom, donor atom, acceptor molecule, acceptor atom, score
      L1  H    10    31       P1  7949  1.00
      P1  H  6896  6909       L1    17  0.65
      P1  H 10752 10763       L1    10  1.00
      L1  C    13    34       P1  7948  1.00

> <Gold.PLP.Chemscore.Internal.Correction>
0.0128

> <Gold.Rescore>
     Score         DG    S(hbond)    S(metal)    S(lipo)     H(rot)  DE(clash)    DE(int)     intcor
     15.09     -16.13       2.40        0.00      89.00       3.03       0.41       0.63       ----

> <Gold.Chemscore.Fitness>
15.0899

> <Gold.Chemscore.DG>
-16.1348

> <Gold.Chemscore.ZeroCoef>
-5.4800

> <Gold.Chemscore.Hbond>
2.3959

> <Gold.Chemscore.Metal>
0.0000

> <Gold.Chemscore.Lipo>
89.0016

> <Gold.Chemscore.Internal_Hbond>
0.0000

> <Gold.Chemscore.DEClash>
0.4126

> <Gold.Chemscore.DEInternal>
0.6323

> <Gold.Chemscore.Rot>
3.0316

> <Gold.Chemscore.Internal.Correction>
   9.000000E+99

> <Gold.Chemscore.Hbonds>
donor molecule, donor type, donor heavy atom, donor atom, acceptor molecule, acceptor atom, score
      L1  H    10    31       P1  7949  0.89
      P1  H  6896  6909       L1    17  0.05
      P1  H 10752 10763       L1    10  0.39

> <Gold.Chemscore.Hbond.Weighted>
-8.0024

> <Gold.Chemscore.Metal.Weighted>
-0.0000

> <Gold.Chemscore.Lipo.Weighted>
-10.4132

> <Gold.Chemscore.Internal_Hbond.Weighted>
0.0000

> <Gold.Chemscore.DEClash.Weighted>
0.4126

> <Gold.Chemscore.DEInternal.Weighted>
0.6323

> <Gold.Chemscore.Rot.Weighted>
7.7609

> <Gold.Chemscore.Internal.Correction.Weighted>
   9.000000E+99

> <Gold.Protein.RotatedTorsions>
[ 6907 6896 6895 6894 ] final  -48.10 input  -60.11 | X-H torsion
[ 7974 7965 7964 7962 ] final -126.71 input  175.53 | X-H torsion
[ 8008 7997 7996 7995 ] final  120.03 input   59.86 | X-H torsion
[ 10167 10162 10161 10158 ] final  159.11 input  -65.29 | X-H torsion
[ 10718 10713 10712 10709 ] final  138.76 input   66.30 | X-H torsion
[ 10763 10752 10751 10750 ] final   32.48 input  -60.55 | X-H torsion
[ 11005 11000 10999 10996 ] final -114.13 input  -57.11 | X-H torsion

> <Gold.Protein.ActiveResidues>
 VAL166  LYS551  ARG553  GLY616  TRP617  ASP618  TYR619  PRO620  LYS621  CYS622 
 ASP623  PHE694  ASN695  SER759  ASP760  ASP761  ALA762  ILE779  LEU786  VAL792 
 PHE793  MET794  SER795  GLU796  ALA797  LYS798  CYS799  TRP800  GLU811  SER814 

> <Gold.Protein.RotatedAtoms>
  150.8940  134.8347  159.7313 H   0  0  0  0  0  0  0  0  0  0  0  0  # atno 6907 bound_to 6896
  152.4854  134.4604  159.9613 H   0  0  0  0  0  0  0  0  0  0  0  0  # atno 6908 bound_to 6896
  151.4663  133.3541  159.2852 H   0  0  0  0  0  0  0  0  0  0  0  0  # atno 6909 bound_to 6896
  144.9845  140.7673  143.4592 H   0  0  0  0  0  0  0  0  0  0  0  0  # atno 7974 bound_to 7965
  156.2624  140.2840  156.1085 H   0  0  0  0  0  0  0  0  0  0  0  0  # atno 8008 bound_to 7997
  155.1282  140.0393  157.2785 H   0  0  0  0  0  0  0  0  0  0  0  0  # atno 8009 bound_to 7997
  154.6619  140.2568  155.7106 H   0  0  0  0  0  0  0  0  0  0  0  0  # atno 8010 bound_to 7997
  139.4830  144.4761  151.8509 H   0  0  0  0  0  0  0  0  0  0  0  0  # atno 10167 bound_to 10162
  157.4218  131.1039  151.0345 H   0  0  0  0  0  0  0  0  0  0  0  0  # atno 10718 bound_to 10713
  153.0260  135.6412  154.1361 H   0  0  0  0  0  0  0  0  0  0  0  0  # atno 10763 bound_to 10752
  154.1090  135.2854  155.3236 H   0  0  0  0  0  0  0  0  0  0  0  0  # atno 10764 bound_to 10752
  154.6345  135.5481  153.7781 H   0  0  0  0  0  0  0  0  0  0  0  0  # atno 10765 bound_to 10752
  141.0571  133.9595  157.2735 H   0  0  0  0  0  0  0  0  0  0  0  0  # atno 11005 bound_to 11000
  145.2373  139.2088  143.5011 LP  0  0  0  0  0  0  0  0  0  0  0  0  # atno 17320 bound_to 7965
  146.3416  140.2261  142.8592 LP  0  0  0  0  0  0  0  0  0  0  0  0  # atno 17321 bound_to 7965
  140.4234  144.2213  150.5887 LP  0  0  0  0  0  0  0  0  0  0  0  0  # atno 17342 bound_to 10162
  140.4851  143.2366  151.8899 LP  0  0  0  0  0  0  0  0  0  0  0  0  # atno 17343 bound_to 10162
  157.1273  130.6087  149.5520 LP  0  0  0  0  0  0  0  0  0  0  0  0  # atno 17370 bound_to 10713
  155.9883  130.4926  150.7164 LP  0  0  0  0  0  0  0  0  0  0  0  0  # atno 17371 bound_to 10713
  139.9399  135.0192  156.8676 LP  0  0  0  0  0  0  0  0  0  0  0  0  # atno 17394 bound_to 11000
  140.5943  134.0232  155.7512 LP  0  0  0  0  0  0  0  0  0  0  0  0  # atno 17395 bound_to 11000

$$$$
