AV-unprocessed.smi:2768|AV-procd|sdf|10649|dock4
  -GOLD-   2272015103D 1   1.00000     0.00000
 Structure written by MMmdl.
 35 36  0  0  0  0  0  0  0  0  1 V2000
  150.6956  140.7796  155.2915 O   0  0  0  0  0  0  0  0  0  0  0  0
  150.2311  140.3138  156.3328 C   0  0  0  0  0  0  0  0  0  0  0  0
  148.9658  139.8754  156.4388 N   0  0  0  0  0  0  0  0  0  0  0  0
  147.9557  139.9376  155.3853 C   0  0  1  0  0  0  0  0  0  0  0  0
  147.9282  141.3408  154.7488 C   0  0  0  0  0  0  0  0  0  0  0  0
  146.8746  141.4243  153.6325 C   0  0  0  0  0  0  0  0  0  0  0  0
  147.1051  140.3436  152.5646 C   0  0  0  0  0  0  0  0  0  0  0  0
  147.1444  138.9358  153.1866 C   0  0  0  0  0  0  0  0  0  0  0  0
  148.1772  138.8303  154.3255 C   0  0  1  0  0  0  0  0  0  0  0  0
  149.4804  138.9096  153.7767 O   0  0  0  0  0  0  0  0  0  0  0  0
  151.0924  140.2374  157.6017 C   0  0  0  0  0  0  0  0  0  0  0  0
  150.3822  139.6500  158.5680 F   0  0  0  0  0  0  0  0  0  0  0  0
  152.1647  139.4785  157.3627 F   0  0  0  0  0  0  0  0  0  0  0  0
  151.5286  141.6381  158.0246 C   0  0  0  0  0  0  0  0  0  0  0  0
  152.3592  141.8358  159.1516 C   0  0  0  0  0  0  0  0  0  0  0  0
  152.7147  143.1515  159.5059 C   0  0  0  0  0  0  0  0  0  0  0  0
  152.2290  144.2193  158.7280 C   0  0  0  0  0  0  0  0  0  0  0  0
  151.4047  143.9228  157.6252 C   0  0  0  0  0  0  0  0  0  0  0  0
  151.0575  142.6653  157.2778 N   0  0  0  0  0  0  0  0  0  0  0  0
  146.9778  139.7753  155.8433 H   0  0  0  0  0  0  0  0  0  0  0  0
  148.0841  137.8499  154.7942 H   0  0  0  0  0  0  0  0  0  0  0  0
  148.6687  139.5029  157.3291 H   0  0  0  0  0  0  0  0  0  0  0  0
  147.7128  142.0915  155.5101 H   0  0  0  0  0  0  0  0  0  0  0  0
  148.9099  141.5874  154.3419 H   0  0  0  0  0  0  0  0  0  0  0  0
  145.8783  141.3076  154.0610 H   0  0  0  0  0  0  0  0  0  0  0  0
  146.8985  142.4125  153.1721 H   0  0  0  0  0  0  0  0  0  0  0  0
  146.3180  140.3935  151.8117 H   0  0  0  0  0  0  0  0  0  0  0  0
  148.0416  140.5417  152.0420 H   0  0  0  0  0  0  0  0  0  0  0  0
  146.1561  138.6946  153.5797 H   0  0  0  0  0  0  0  0  0  0  0  0
  147.3538  138.1918  152.4170 H   0  0  0  0  0  0  0  0  0  0  0  0
  149.4035  139.0474  152.8450 H   0  0  0  0  0  0  0  0  0  0  0  0
  152.7160  141.0022  159.7383 H   0  0  0  0  0  0  0  0  0  0  0  0
  153.3475  143.3384  160.3607 H   0  0  0  0  0  0  0  0  0  0  0  0
  152.4812  145.2410  158.9707 H   0  0  0  0  0  0  0  0  0  0  0  0
  151.0128  144.7163  157.0063 H   0  0  0  0  0  0  0  0  0  0  0  0
  1  2  2  0  0  0  0
  2  3  1  0  0  0  0
  2 11  1  0  0  0  0
  3  4  1  0  0  0  0
  3 22  1  0  0  0  0
  4 20  1  0  0  0  0
  4  9  1  0  0  0  0
  4  5  1  0  0  0  0
  5  6  1  0  0  0  0
  5 23  1  0  0  0  0
  5 24  1  0  0  0  0
  6  7  1  0  0  0  0
  6 25  1  0  0  0  0
  6 26  1  0  0  0  0
  7  8  1  0  0  0  0
  7 27  1  0  0  0  0
  7 28  1  0  0  0  0
  8  9  1  0  0  0  0
  8 29  1  0  0  0  0
  8 30  1  0  0  0  0
  9 21  1  0  0  0  0
  9 10  1  0  0  0  0
 10 31  1  0  0  0  0
 11 12  1  0  0  0  0
 11 13  1  0  0  0  0
 11 14  1  0  0  0  0
 14 19  1  0  0  0  0
 14 15  2  0  0  0  0
 15 16  1  0  0  0  0
 15 32  1  0  0  0  0
 16 17  2  0  0  0  0
 16 33  1  0  0  0  0
 17 18  1  0  0  0  0
 17 34  1  0  0  0  0
 18 19  2  0  0  0  0
 18 35  1  0  0  0  0
M  END
> <s_m_source_file>
AV-unprocessed.smi

> <i_m_source_file_index>
2768

> <i_lp_mmshare_version>
43012

> <i_f3d_flags>
0

> <s_epik_input>
bjFbY0hdW2NIXVtjSF1bY0hdYzFDKEYpKEYpQyg9TylbTkhdW0NAQEhdMltDSDJdW0NIMl1bQ0gyXVtDSDJdW0NASF0yW09IXQ==

> <s_epik_cmdline>
J2VwaWtfcHl0aG9uJywgJy1waCcsICc3LjAnLCAnLXRuJywgJzgnLCAnLW1hJywgJzIwMCcsICctbWV0YWxfYmluZGluZycsICctaW1hZScsICc8aW5maWxlLm1hZT4nLCAnLW9tYWUnLCAnPG91dGZpbGUubWFlPic=

> <r_lp_tautomer_probability>
1

> <r_epik_Ionization_Penalty>
4.19456e-05

> <r_epik_Ionization_Penalty_Charging>
0

> <r_epik_Ionization_Penalty_Neutral>
4.19456e-05

> <r_epik_State_Penalty>
-0

> <r_epik_Charging_Adjusted_Penalty>
0

> <i_epik_Tot_Q>
0

> <i_epik_Tot_abs_Q>
0

> <r_epik_Metal_State_Penalty>
0.0354684

> <b_epik_Metal_Only>
0

> <s_lp_Force_Field>
OPLS_2005

> <r_lp_Energy>
19.7139

> <b_lp_Chiralities_Consistent>
1

> <s_lp_Variant>
AV-unprocessed.smi:2768-2

> <Gold.Version>
5.8.1

> <Gold.Id.Protein>
6NUR|6NUR_protein|mol2

> <Gold.PLP.Fitness>
42.6982

> <Gold.PLP.PLP>
-34.6913

> <Gold.PLP.part.hbond>
-2.0519

> <Gold.PLP.part.metal>
0.0000

> <Gold.PLP.part.buried>
-3.2283

> <Gold.PLP.part.nonpolar>
-30.5196

> <Gold.PLP.part.repulsive>
0.1774

> <Gold.PLP.ligand.clash>
0.0000

> <Gold.PLP.ligand.torsion>
0.2114

> <Gold.PLP.Chemscore.Hbond>
1.8320

> <Gold.PLP.Chemscore.CHOScore>
0.9695

> <Gold.PLP.Chemscore.Metal>
0.0000

> <Gold.Chemscore.Hbonds>
donor molecule, donor type, donor heavy atom, donor atom, acceptor molecule, acceptor atom, score
      L1  H    10    31       P1  7957  1.00
      P1  H  7989  7998       L1     1  0.83
      L1  C    18    35       P1  8028  0.98

> <Gold.PLP.Chemscore.Internal.Correction>
0.0251

> <Gold.Rescore>
     Score         DG    S(hbond)    S(metal)    S(lipo)     H(rot)  DE(clash)    DE(int)     intcor
     13.62     -17.73       1.84        0.00      95.82       2.00       0.17       3.94       ----

> <Gold.Chemscore.Fitness>
13.6191

> <Gold.Chemscore.DG>
-17.7271

> <Gold.Chemscore.ZeroCoef>
-5.4800

> <Gold.Chemscore.Hbond>
1.8408

> <Gold.Chemscore.Metal>
0.0000

> <Gold.Chemscore.Lipo>
95.8189

> <Gold.Chemscore.Internal_Hbond>
0.0000

> <Gold.Chemscore.DEClash>
0.1692

> <Gold.Chemscore.DEInternal>
3.9387

> <Gold.Chemscore.Rot>
1.9969

> <Gold.Chemscore.Internal.Correction>
   9.000000E+99

> <Gold.Chemscore.Hbonds>
donor molecule, donor type, donor heavy atom, donor atom, acceptor molecule, acceptor atom, score
      L1  H    10    31       P1  7957  0.96
      P1  H  7989  7998       L1     1  0.79

> <Gold.Chemscore.Hbond.Weighted>
-6.1484

> <Gold.Chemscore.Metal.Weighted>
-0.0000

> <Gold.Chemscore.Lipo.Weighted>
-11.2108

> <Gold.Chemscore.Internal_Hbond.Weighted>
0.0000

> <Gold.Chemscore.DEClash.Weighted>
0.1692

> <Gold.Chemscore.DEInternal.Weighted>
3.9387

> <Gold.Chemscore.Rot.Weighted>
5.1122

> <Gold.Chemscore.Internal.Correction.Weighted>
   9.000000E+99

> <Gold.Protein.RotatedTorsions>
[ 6907 6896 6895 6894 ] final  117.35 input  -60.11 | X-H torsion
[ 7974 7965 7964 7962 ] final   22.04 input  175.53 | X-H torsion
[ 8008 7997 7996 7995 ] final -166.97 input   59.86 | X-H torsion
[ 10167 10162 10161 10158 ] final -151.03 input  -65.29 | X-H torsion
[ 10718 10713 10712 10709 ] final   31.62 input   66.30 | X-H torsion
[ 10763 10752 10751 10750 ] final   -1.61 input  -60.55 | X-H torsion
[ 11005 11000 10999 10996 ] final  -63.91 input  -57.11 | X-H torsion

> <Gold.Protein.ActiveResidues>
 VAL166  LYS551  ARG553  GLY616  TRP617  ASP618  TYR619  PRO620  LYS621  CYS622 
 ASP623  PHE694  ASN695  SER759  ASP760  ASP761  ALA762  ILE779  LEU786  VAL792 
 PHE793  MET794  SER795  GLU796  ALA797  LYS798  CYS799  TRP800  GLU811  SER814 

> <Gold.Protein.RotatedAtoms>
  152.4618  133.7838  159.6864 H   0  0  0  0  0  0  0  0  0  0  0  0  # atno 6907 bound_to 6896
  150.8565  133.7698  159.3013 H   0  0  0  0  0  0  0  0  0  0  0  0  # atno 6908 bound_to 6896
  151.5277  135.1071  159.9946 H   0  0  0  0  0  0  0  0  0  0  0  0  # atno 6909 bound_to 6896
  146.2046  139.7941  142.8736 H   0  0  0  0  0  0  0  0  0  0  0  0  # atno 7974 bound_to 7965
  155.8712  140.0994  157.1548 H   0  0  0  0  0  0  0  0  0  0  0  0  # atno 8008 bound_to 7997
  154.3997  140.1346  156.4144 H   0  0  0  0  0  0  0  0  0  0  0  0  # atno 8009 bound_to 7997
  155.7748  140.3460  155.5268 H   0  0  0  0  0  0  0  0  0  0  0  0  # atno 8010 bound_to 7997
  139.7303  143.8819  152.2532 H   0  0  0  0  0  0  0  0  0  0  0  0  # atno 10167 bound_to 10162
  157.2748  130.7225  149.6524 H   0  0  0  0  0  0  0  0  0  0  0  0  # atno 10718 bound_to 10713
  153.3471  135.6983  153.6819 H   0  0  0  0  0  0  0  0  0  0  0  0  # atno 10763 bound_to 10752
  153.5561  135.3544  155.2780 H   0  0  0  0  0  0  0  0  0  0  0  0  # atno 10764 bound_to 10752
  154.8647  135.4238  154.2697 H   0  0  0  0  0  0  0  0  0  0  0  0  # atno 10765 bound_to 10752
  141.1408  133.6658  156.5752 H   0  0  0  0  0  0  0  0  0  0  0  0  # atno 11005 bound_to 11000
  145.3366  141.0278  143.3416 LP  0  0  0  0  0  0  0  0  0  0  0  0  # atno 17320 bound_to 7965
  144.8761  139.4969  143.6745 LP  0  0  0  0  0  0  0  0  0  0  0  0  # atno 17321 bound_to 7965
  139.8740  144.7053  150.8954 LP  0  0  0  0  0  0  0  0  0  0  0  0  # atno 17342 bound_to 10162
  140.7770  143.3715  151.1641 LP  0  0  0  0  0  0  0  0  0  0  0  0  # atno 17343 bound_to 10162
  155.9663  130.4356  150.5100 LP  0  0  0  0  0  0  0  0  0  0  0  0  # atno 17370 bound_to 10713
  157.3032  131.0649  151.2054 LP  0  0  0  0  0  0  0  0  0  0  0  0  # atno 17371 bound_to 10713
  140.3881  134.7464  157.4704 LP  0  0  0  0  0  0  0  0  0  0  0  0  # atno 17394 bound_to 11000
  140.0586  134.6027  155.8775 LP  0  0  0  0  0  0  0  0  0  0  0  0  # atno 17395 bound_to 11000

$$$$
