AV-unprocessed.smi:1392|AV-procd|sdf|5661|dock1
  -GOLD-   22720 5283D 1   1.00000     0.00000
 Structure written by MMmdl.
 39 40  0  0  0  0  0  0  0  0  1 V2000
  154.6016  140.8194  160.9202 C   0  0  0  0  0  0  0  0  0  0  0  0
  153.5623  141.8328  161.0534 N   0  0  0  0  0  0  0  0  0  0  0  0
  153.4003  142.5473  162.3155 C   0  0  0  0  0  0  0  0  0  0  0  0
  152.6965  142.1109  159.9707 C   0  0  0  0  0  0  0  0  0  0  0  0
  152.1807  143.4123  159.7510 C   0  0  0  0  0  0  0  0  0  0  0  0
  151.3240  143.6409  158.6572 C   0  0  0  0  0  0  0  0  0  0  0  0
  151.0049  142.5642  157.7986 C   0  0  0  0  0  0  0  0  0  0  0  0
  150.1401  142.6619  156.6751 N   0  0  0  0  0  0  0  0  0  0  0  0
  149.7813  141.6992  155.8086 C   0  0  0  0  0  0  0  0  0  0  0  0
  150.1339  140.5213  155.8651 O   0  0  0  0  0  0  0  0  0  0  0  0
  148.9610  142.1794  154.8635 N   0  0  0  0  0  0  0  0  0  0  0  0
  148.3844  141.3942  153.7772 C   0  0  0  0  0  0  0  0  0  0  0  0
  147.6555  140.1386  154.2925 C   0  0  2  0  0  0  0  0  0  0  0  0
  147.1692  139.1956  153.2096 C   0  0  0  0  0  0  0  0  0  0  0  0
  146.1217  138.3758  153.9564 C   0  0  0  0  0  0  0  0  0  0  0  0
  145.5697  139.2499  154.9369 O   0  0  0  0  0  0  0  0  0  0  0  0
  146.3511  140.4376  155.0303 C   0  0  0  0  0  0  0  0  0  0  0  0
  151.5525  141.3034  158.1051 C   0  0  0  0  0  0  0  0  0  0  0  0
  152.3744  141.0802  159.1513 N   0  0  0  0  0  0  0  0  0  0  0  0
  155.2987  141.0876  160.1258 H   0  0  0  0  0  0  0  0  0  0  0  0
  154.1629  139.8484  160.6885 H   0  0  0  0  0  0  0  0  0  0  0  0
  155.1740  140.7134  161.8417 H   0  0  0  0  0  0  0  0  0  0  0  0
  153.5187  143.6208  162.1661 H   0  0  0  0  0  0  0  0  0  0  0  0
  154.1395  142.2300  163.0507 H   0  0  0  0  0  0  0  0  0  0  0  0
  152.4113  142.3625  162.7358 H   0  0  0  0  0  0  0  0  0  0  0  0
  152.4200  144.2401  160.4010 H   0  0  0  0  0  0  0  0  0  0  0  0
  150.9212  144.6309  158.5107 H   0  0  0  0  0  0  0  0  0  0  0  0
  149.7020  143.5619  156.5450 H   0  0  0  0  0  0  0  0  0  0  0  0
  148.7181  143.1586  154.8957 H   0  0  0  0  0  0  0  0  0  0  0  0
  147.7012  142.0133  153.1933 H   0  0  0  0  0  0  0  0  0  0  0  0
  149.1922  141.1091  153.1024 H   0  0  0  0  0  0  0  0  0  0  0  0
  148.3108  139.5848  154.9670 H   0  0  0  0  0  0  0  0  0  0  0  0
  146.6991  139.7551  152.3998 H   0  0  0  0  0  0  0  0  0  0  0  0
  147.9637  138.5809  152.7854 H   0  0  0  0  0  0  0  0  0  0  0  0
  145.3512  137.9816  153.2937 H   0  0  0  0  0  0  0  0  0  0  0  0
  146.5916  137.5350  154.4681 H   0  0  0  0  0  0  0  0  0  0  0  0
  146.5164  140.7245  156.0690 H   0  0  0  0  0  0  0  0  0  0  0  0
  145.8050  141.2446  154.5402 H   0  0  0  0  0  0  0  0  0  0  0  0
  151.3297  140.4444  157.4893 H   0  0  0  0  0  0  0  0  0  0  0  0
  1  2  1  0  0  0  0
  1 20  1  0  0  0  0
  1 21  1  0  0  0  0
  1 22  1  0  0  0  0
  2  3  1  0  0  0  0
  2  4  1  0  0  0  0
  3 23  1  0  0  0  0
  3 24  1  0  0  0  0
  3 25  1  0  0  0  0
  4 19  1  0  0  0  0
  4  5  2  0  0  0  0
  5  6  1  0  0  0  0
  5 26  1  0  0  0  0
  6  7  2  0  0  0  0
  6 27  1  0  0  0  0
  7  8  1  0  0  0  0
  7 18  1  0  0  0  0
  8  9  1  0  0  0  0
  8 28  1  0  0  0  0
  9 10  2  0  0  0  0
  9 11  1  0  0  0  0
 11 12  1  0  0  0  0
 11 29  1  0  0  0  0
 12 13  1  0  0  0  0
 12 30  1  0  0  0  0
 12 31  1  0  0  0  0
 13 17  1  0  0  0  0
 13 14  1  0  0  0  0
 13 32  1  0  0  0  0
 14 15  1  0  0  0  0
 14 33  1  0  0  0  0
 14 34  1  0  0  0  0
 15 16  1  0  0  0  0
 15 35  1  0  0  0  0
 15 36  1  0  0  0  0
 16 17  1  0  0  0  0
 17 37  1  0  0  0  0
 17 38  1  0  0  0  0
 18 19  2  0  0  0  0
 18 39  1  0  0  0  0
M  END
> <s_m_source_file>
AV-unprocessed.smi

> <i_m_source_file_index>
1392

> <i_lp_mmshare_version>
43012

> <i_f3d_flags>
0

> <s_epik_input>
W0NIM11OKFtDSDNdKWMxW2NIXVtjSF1jKFtjSF1uMSlbTkhdQyg9TylbTkhdW0NIMl1bQ0BASF0yW0NIMl1bQ0gyXU9bQ0gyXTI=

> <s_epik_cmdline>
J2VwaWtfcHl0aG9uJywgJy1waCcsICc3LjAnLCAnLXRuJywgJzgnLCAnLW1hJywgJzIwMCcsICctbWV0YWxfYmluZGluZycsICctaW1hZScsICc8aW5maWxlLm1hZT4nLCAnLW9tYWUnLCAnPG91dGZpbGUubWFlPic=

> <r_lp_tautomer_probability>
1

> <r_epik_Ionization_Penalty>
0.612298

> <r_epik_Ionization_Penalty_Charging>
0

> <r_epik_Ionization_Penalty_Neutral>
0.612298

> <r_epik_State_Penalty>
0.626495

> <r_epik_Charging_Adjusted_Penalty>
0.626495

> <i_epik_Tot_Q>
0

> <i_epik_Tot_abs_Q>
0

> <r_epik_Metal_State_Penalty>
0.304101

> <b_epik_Metal_Only>
0

> <s_lp_Force_Field>
OPLS_2005

> <r_lp_Energy>
22.6053

> <b_lp_Chiralities_Consistent>
1

> <s_lp_Variant>
AV-unprocessed.smi:1392-3

> <Gold.Version>
5.8.1

> <Gold.Id.Protein>
6NUR|6NUR_protein|mol2

> <Gold.PLP.Fitness>
43.2637

> <Gold.PLP.PLP>
-38.2737

> <Gold.PLP.part.hbond>
-2.0000

> <Gold.PLP.part.metal>
0.0000

> <Gold.PLP.part.buried>
-3.8688

> <Gold.PLP.part.nonpolar>
-32.1923

> <Gold.PLP.part.repulsive>
0.3978

> <Gold.PLP.ligand.clash>
0.0000

> <Gold.PLP.ligand.torsion>
0.5147

> <Gold.PLP.Chemscore.Hbond>
2.0000

> <Gold.PLP.Chemscore.CHOScore>
0.0000

> <Gold.PLP.Chemscore.Metal>
0.0000

> <Gold.Chemscore.Hbonds>
donor molecule, donor type, donor heavy atom, donor atom, acceptor molecule, acceptor atom, score
      L1  H     8    28       P1  8028  1.00
      L1  H    11    29       P1  8028  1.00

> <Gold.PLP.Chemscore.Internal.Correction>
0.0194

> <Gold.Rescore>
     Score         DG    S(hbond)    S(metal)    S(lipo)     H(rot)  DE(clash)    DE(int)     intcor
     15.60     -18.52       1.91        0.00      83.47       1.21       0.05       2.87       ----

> <Gold.Chemscore.Fitness>
15.6043

> <Gold.Chemscore.DG>
-18.5214

> <Gold.Chemscore.ZeroCoef>
-5.4800

> <Gold.Chemscore.Hbond>
1.9118

> <Gold.Chemscore.Metal>
0.0000

> <Gold.Chemscore.Lipo>
83.4650

> <Gold.Chemscore.Internal_Hbond>
0.0000

> <Gold.Chemscore.DEClash>
0.0499

> <Gold.Chemscore.DEInternal>
2.8673

> <Gold.Chemscore.Rot>
1.2146

> <Gold.Chemscore.Internal.Correction>
   9.000000E+99

> <Gold.Chemscore.Hbonds>
donor molecule, donor type, donor heavy atom, donor atom, acceptor molecule, acceptor atom, score
      L1  H     8    28       P1  8028  0.98
      L1  H    11    29       P1  8028  0.95

> <Gold.Chemscore.Hbond.Weighted>
-6.3853

> <Gold.Chemscore.Metal.Weighted>
-0.0000

> <Gold.Chemscore.Lipo.Weighted>
-9.7654

> <Gold.Chemscore.Internal_Hbond.Weighted>
0.0000

> <Gold.Chemscore.DEClash.Weighted>
0.0499

> <Gold.Chemscore.DEInternal.Weighted>
2.8673

> <Gold.Chemscore.Rot.Weighted>
3.1093

> <Gold.Chemscore.Internal.Correction.Weighted>
   9.000000E+99

> <Gold.Protein.RotatedTorsions>
[ 6907 6896 6895 6894 ] final  -93.24 input  -60.11 | X-H torsion
[ 7974 7965 7964 7962 ] final  -23.49 input  175.53 | X-H torsion
[ 8008 7997 7996 7995 ] final  -73.44 input   59.86 | X-H torsion
[ 10167 10162 10161 10158 ] final -144.79 input  -65.29 | X-H torsion
[ 10718 10713 10712 10709 ] final -107.18 input   66.30 | X-H torsion
[ 10763 10752 10751 10750 ] final  141.01 input  -60.55 | X-H torsion
[ 11005 11000 10999 10996 ] final    2.52 input  -57.11 | X-H torsion

> <Gold.Protein.ActiveResidues>
 VAL166  LYS551  ARG553  GLY616  TRP617  ASP618  TYR619  PRO620  LYS621  CYS622 
 ASP623  PHE694  ASN695  SER759  ASP760  ASP761  ALA762  ILE779  LEU786  VAL792 
 PHE793  MET794  SER795  GLU796  ALA797  LYS798  CYS799  TRP800  GLU811  SER814 

> <Gold.Protein.RotatedAtoms>
  150.6919  134.1998  159.4317 H   0  0  0  0  0  0  0  0  0  0  0  0  # atno 6907 bound_to 6896
  151.9965  134.9949  160.0573 H   0  0  0  0  0  0  0  0  0  0  0  0  # atno 6908 bound_to 6896
  152.1619  133.4552  159.4902 H   0  0  0  0  0  0  0  0  0  0  0  0  # atno 6909 bound_to 6896
  146.1613  140.4623  142.8570 H   0  0  0  0  0  0  0  0  0  0  0  0  # atno 7974 bound_to 7965
  154.5247  140.0779  156.8237 H   0  0  0  0  0  0  0  0  0  0  0  0  # atno 8008 bound_to 7997
  155.3500  140.3412  155.4221 H   0  0  0  0  0  0  0  0  0  0  0  0  # atno 8009 bound_to 7997
  156.1719  140.1622  156.8418 H   0  0  0  0  0  0  0  0  0  0  0  0  # atno 8010 bound_to 7997
  139.7866  143.8026  152.2645 H   0  0  0  0  0  0  0  0  0  0  0  0  # atno 10167 bound_to 10162
  156.0425  130.5650  150.7786 H   0  0  0  0  0  0  0  0  0  0  0  0  # atno 10718 bound_to 10713
  153.9322  135.2989  155.3445 H   0  0  0  0  0  0  0  0  0  0  0  0  # atno 10763 bound_to 10752
  154.7521  135.4975  153.9311 H   0  0  0  0  0  0  0  0  0  0  0  0  # atno 10764 bound_to 10752
  153.1086  135.6753  153.9647 H   0  0  0  0  0  0  0  0  0  0  0  0  # atno 10765 bound_to 10752
  140.6034  133.9815  155.8142 H   0  0  0  0  0  0  0  0  0  0  0  0  # atno 11005 bound_to 11000
  144.8031  140.6249  143.6465 LP  0  0  0  0  0  0  0  0  0  0  0  0  # atno 17320 bound_to 7965
  145.4581  139.1516  143.3881 LP  0  0  0  0  0  0  0  0  0  0  0  0  # atno 17321 bound_to 7965
  139.8104  144.7338  150.9704 LP  0  0  0  0  0  0  0  0  0  0  0  0  # atno 17342 bound_to 10162
  140.7819  143.4256  151.0773 LP  0  0  0  0  0  0  0  0  0  0  0  0  # atno 17343 bound_to 10162
  157.5260  131.0934  151.0017 LP  0  0  0  0  0  0  0  0  0  0  0  0  # atno 17370 bound_to 10713
  157.0336  130.5721  149.5346 LP  0  0  0  0  0  0  0  0  0  0  0  0  # atno 17371 bound_to 10713
  141.0857  133.9994  157.3317 LP  0  0  0  0  0  0  0  0  0  0  0  0  # atno 17394 bound_to 11000
  139.9223  135.0201  156.8108 LP  0  0  0  0  0  0  0  0  0  0  0  0  # atno 17395 bound_to 11000

$$$$
