AV-unprocessed.smi:862|AV-procd|sdf|3981|dock1
  -GOLD-   22720 1453D 1   1.00000     0.00000
 Structure written by MMmdl.
 45 47  0  0  0  0  0  0  0  0  3 V2000
  149.3029  137.1606  154.3908 N   0  0  0  0  0  0  0  0  0  0  0  0
  148.8424  138.4093  154.5133 C   0  0  0  0  0  0  0  0  0  0  0  0
  147.6477  138.6279  154.7053 O   0  0  0  0  0  0  0  0  0  0  0  0
  149.7866  139.3822  154.4581 N   0  0  0  0  0  0  0  0  0  0  0  0
  149.5353  140.8317  154.4074 C   0  0  0  0  0  0  0  0  0  0  0  0
  149.8326  141.4322  155.7935 C   0  0  0  0  0  0  0  0  0  0  0  0
  151.2786  141.1270  156.2394 C   0  0  0  0  0  0  0  0  0  0  0  0
  151.4862  141.6070  157.6250 N   0  3  0  0  0  0  0  0  0  0  0  0
  151.3618  143.0694  157.8399 C   0  0  1  0  0  0  0  0  0  0  0  0
  150.0974  143.4785  158.6035 C   0  0  0  0  0  0  0  0  0  0  0  0
  150.4169  144.8598  159.1917 C   0  0  0  0  0  0  0  0  0  0  0  0
  151.9462  145.0228  159.1352 C   0  0  0  0  0  0  0  0  0  0  0  0
  152.5183  143.6774  158.6567 C   0  0  1  0  0  0  0  0  0  0  0  0
  152.9672  142.8333  159.7851 N   0  0  0  0  0  0  0  0  0  0  0  0
  153.6501  141.6405  159.7471 C   0  0  0  0  0  0  0  0  0  0  0  0
  153.8506  141.2578  161.0480 C   0  0  0  0  0  0  0  0  0  0  0  0
  153.2889  142.2308  161.8285 N   0  3  0  0  0  0  0  0  0  0  0  0
  152.7563  143.1872  161.0613 C   0  0  0  0  0  0  0  0  0  0  0  0
  151.5876  139.6176  156.1020 C   0  0  0  0  0  0  0  0  0  0  0  0
  151.2052  139.0979  154.7043 C   0  0  0  0  0  0  0  0  0  0  0  0
  148.6578  136.3849  154.4348 H   0  0  0  0  0  0  0  0  0  0  0  0
  150.2909  136.9947  154.2675 H   0  0  0  0  0  0  0  0  0  0  0  0
  150.1870  141.2825  153.6574 H   0  0  0  0  0  0  0  0  0  0  0  0
  148.5216  141.0929  154.1036 H   0  0  0  0  0  0  0  0  0  0  0  0
  149.6683  142.5102  155.7715 H   0  0  0  0  0  0  0  0  0  0  0  0
  149.1253  141.0263  156.5186 H   0  0  0  0  0  0  0  0  0  0  0  0
  151.9434  141.6788  155.5739 H   0  0  0  0  0  0  0  0  0  0  0  0
  150.8046  141.1531  158.2159 H   0  0  0  0  0  0  0  0  0  0  0  0
  151.3561  143.5714  156.8720 H   0  0  0  0  0  0  0  0  0  0  0  0
  149.2144  143.5042  157.9640 H   0  0  0  0  0  0  0  0  0  0  0  0
  149.8944  142.7721  159.4093 H   0  0  0  0  0  0  0  0  0  0  0  0
  149.9368  145.6463  158.6080 H   0  0  0  0  0  0  0  0  0  0  0  0
  150.0423  144.9431  160.2126 H   0  0  0  0  0  0  0  0  0  0  0  0
  152.1932  145.7976  158.4080 H   0  0  0  0  0  0  0  0  0  0  0  0
  152.3636  145.3460  160.0898 H   0  0  0  0  0  0  0  0  0  0  0  0
  153.3858  143.8488  158.0165 H   0  0  0  0  0  0  0  0  0  0  0  0
  153.9322  141.1545  158.8245 H   0  0  0  0  0  0  0  0  0  0  0  0
  154.3370  140.3879  161.4657 H   0  0  0  0  0  0  0  0  0  0  0  0
  152.2499  144.0705  161.4088 H   0  0  0  0  0  0  0  0  0  0  0  0
  152.6453  139.4219  156.2763 H   0  0  0  0  0  0  0  0  0  0  0  0
  151.0386  139.0549  156.8586 H   0  0  0  0  0  0  0  0  0  0  0  0
  151.4389  138.0352  154.6235 H   0  0  0  0  0  0  0  0  0  0  0  0
  151.8100  139.5901  153.9415 H   0  0  0  0  0  0  0  0  0  0  0  0
  152.4076  141.3136  157.9162 H   0  0  0  0  0  0  0  0  0  0  0  0
  153.2711  142.2252  162.8411 H   0  0  0  0  0  0  0  0  0  0  0  0
  1  2  1  0  0  0  0
  1 21  1  0  0  0  0
  1 22  1  0  0  0  0
  2  3  2  0  0  0  0
  2  4  1  0  0  0  0
  4 20  1  0  0  0  0
  4  5  1  0  0  0  0
  5  6  1  0  0  0  0
  5 23  1  0  0  0  0
  5 24  1  0  0  0  0
  6  7  1  0  0  0  0
  6 25  1  0  0  0  0
  6 26  1  0  0  0  0
  7  8  1  0  0  0  0
  7 19  1  0  0  0  0
  7 27  1  0  0  0  0
  8  9  1  0  0  0  0
  8 28  1  0  0  0  0
  8 44  1  0  0  0  0
  9 13  1  0  0  0  0
  9 10  1  0  0  0  0
  9 29  1  0  0  0  0
 10 11  1  0  0  0  0
 10 30  1  0  0  0  0
 10 31  1  0  0  0  0
 11 12  1  0  0  0  0
 11 32  1  0  0  0  0
 11 33  1  0  0  0  0
 12 13  1  0  0  0  0
 12 34  1  0  0  0  0
 12 35  1  0  0  0  0
 13 14  1  0  0  0  0
 13 36  1  0  0  0  0
 14 18  1  0  0  0  0
 14 15  1  0  0  0  0
 15 16  2  0  0  0  0
 15 37  1  0  0  0  0
 16 17  1  0  0  0  0
 16 38  1  0  0  0  0
 17 18  2  0  0  0  0
 17 45  1  0  0  0  0
 18 39  1  0  0  0  0
 19 20  1  0  0  0  0
 19 40  1  0  0  0  0
 19 41  1  0  0  0  0
 20 42  1  0  0  0  0
 20 43  1  0  0  0  0
M  CHG  1   8   1
M  CHG  1  17   1
M  END
> <s_m_source_file>
AV-unprocessed.smi

> <i_m_source_file_index>
862

> <i_lp_mmshare_version>
43012

> <i_f3d_flags>
0

> <s_epik_input>
W05IMl1DKD1PKU4xW0NIMl1bQ0gyXVtDSF0oW0NIMl1bQ0gyXTEpW05IXVtDQEBIXTJbQ0gyXVtDSDJdW0NIMl1bQ0BIXTJuM1tjSF1bY0hdbltjSF0z

> <s_epik_cmdline>
J2VwaWtfcHl0aG9uJywgJy1waCcsICc3LjAnLCAnLXRuJywgJzgnLCAnLW1hJywgJzIwMCcsICctbWV0YWxfYmluZGluZycsICctaW1hZScsICc8aW5maWxlLm1hZT4nLCAnLW9tYWUnLCAnPG91dGZpbGUubWFlPic=

> <r_lp_tautomer_probability>
1

> <r_epik_Ionization_Penalty>
1.30217

> <r_epik_Ionization_Penalty_Charging>
0.00439521

> <r_epik_Ionization_Penalty_Neutral>
1.29777

> <r_epik_State_Penalty>
0.977606

> <r_epik_Charging_Adjusted_Penalty>
0.982001

> <i_epik_Tot_Q>
2

> <i_epik_Tot_abs_Q>
2

> <r_epik_Metal_State_Penalty>
1.03289

> <b_epik_Metal_Only>
0

> <s_lp_Force_Field>
OPLS_2005

> <r_lp_Energy>
67.0187

> <b_lp_Chiralities_Consistent>
1

> <s_lp_Variant>
AV-unprocessed.smi:862-6

> <Gold.Version>
5.8.1

> <Gold.Id.Protein>
6NUR|6NUR_protein|mol2

> <Gold.PLP.Fitness>
47.2869

> <Gold.PLP.PLP>
-49.6136

> <Gold.PLP.part.hbond>
-1.0000

> <Gold.PLP.part.metal>
0.0000

> <Gold.PLP.part.buried>
-4.7010

> <Gold.PLP.part.nonpolar>
-43.7151

> <Gold.PLP.part.repulsive>
0.2012

> <Gold.PLP.ligand.clash>
0.6117

> <Gold.PLP.ligand.torsion>
0.9398

> <Gold.PLP.Chemscore.Hbond>
0.0000

> <Gold.PLP.Chemscore.CHOScore>
0.0000

> <Gold.PLP.Chemscore.Metal>
0.0000

> <Gold.PLP.Chemscore.Internal.Correction>
0.1645

> <Gold.Rescore>
     Score         DG    S(hbond)    S(metal)    S(lipo)     H(rot)  DE(clash)    DE(int)     intcor
     13.25     -14.39       0.00        0.00     112.96       1.68       0.06       1.09       ----

> <Gold.Chemscore.Fitness>
13.2473

> <Gold.Chemscore.DG>
-14.3922

> <Gold.Chemscore.ZeroCoef>
-5.4800

> <Gold.Chemscore.Hbond>
0.0000

> <Gold.Chemscore.Metal>
0.0000

> <Gold.Chemscore.Lipo>
112.9619

> <Gold.Chemscore.Internal_Hbond>
0.0000

> <Gold.Chemscore.DEClash>
0.0580

> <Gold.Chemscore.DEInternal>
1.0869

> <Gold.Chemscore.Rot>
1.6814

> <Gold.Chemscore.Internal.Correction>
   9.000000E+99

> <Gold.Chemscore.Hbond.Weighted>
-0.0000

> <Gold.Chemscore.Metal.Weighted>
-0.0000

> <Gold.Chemscore.Lipo.Weighted>
-13.2165

> <Gold.Chemscore.Internal_Hbond.Weighted>
0.0000

> <Gold.Chemscore.DEClash.Weighted>
0.0580

> <Gold.Chemscore.DEInternal.Weighted>
1.0869

> <Gold.Chemscore.Rot.Weighted>
4.3043

> <Gold.Chemscore.Internal.Correction.Weighted>
   9.000000E+99

> <Gold.Protein.RotatedTorsions>
[ 6907 6896 6895 6894 ] final -125.47 input  -60.11 | X-H torsion
[ 7974 7965 7964 7962 ] final  -31.84 input  175.53 | X-H torsion
[ 8008 7997 7996 7995 ] final   93.73 input   59.86 | X-H torsion
[ 10167 10162 10161 10158 ] final   87.12 input  -65.29 | X-H torsion
[ 10718 10713 10712 10709 ] final -134.97 input   66.30 | X-H torsion
[ 10763 10752 10751 10750 ] final   89.00 input  -60.55 | X-H torsion
[ 11005 11000 10999 10996 ] final  -36.07 input  -57.11 | X-H torsion

> <Gold.Protein.ActiveResidues>
 VAL166  LYS551  ARG553  GLY616  TRP617  ASP618  TYR619  PRO620  LYS621  CYS622 
 ASP623  PHE694  ASN695  SER759  ASP760  ASP761  ALA762  ILE779  LEU786  VAL792 
 PHE793  MET794  SER795  GLU796  ALA797  LYS798  CYS799  TRP800  GLU811  SER814 

> <Gold.Protein.RotatedAtoms>
  150.8871  133.7293  159.2915 H   0  0  0  0  0  0  0  0  0  0  0  0  # atno 6907 bound_to 6896
  151.4856  135.1053  159.9799 H   0  0  0  0  0  0  0  0  0  0  0  0  # atno 6908 bound_to 6896
  152.4797  133.8177  159.7092 H   0  0  0  0  0  0  0  0  0  0  0  0  # atno 6909 bound_to 6896
  146.1036  140.5717  142.8809 H   0  0  0  0  0  0  0  0  0  0  0  0  # atno 7974 bound_to 7965
  156.0501  140.3309  155.7341 H   0  0  0  0  0  0  0  0  0  0  0  0  # atno 8008 bound_to 7997
  155.5615  140.0619  157.2845 H   0  0  0  0  0  0  0  0  0  0  0  0  # atno 8009 bound_to 7997
  154.4431  140.1876  156.0775 H   0  0  0  0  0  0  0  0  0  0  0  0  # atno 8010 bound_to 7997
  139.8805  144.6442  150.8848 H   0  0  0  0  0  0  0  0  0  0  0  0  # atno 10167 bound_to 10162
  156.2612  130.7211  151.1145 H   0  0  0  0  0  0  0  0  0  0  0  0  # atno 10718 bound_to 10713
  153.1826  135.4486  155.0047 H   0  0  0  0  0  0  0  0  0  0  0  0  # atno 10763 bound_to 10752
  154.8039  135.3267  154.7482 H   0  0  0  0  0  0  0  0  0  0  0  0  # atno 10764 bound_to 10752
  153.7945  135.6967  153.4921 H   0  0  0  0  0  0  0  0  0  0  0  0  # atno 10765 bound_to 10752
  140.9846  133.7038  156.1742 H   0  0  0  0  0  0  0  0  0  0  0  0  # atno 11005 bound_to 11000
  144.7453  140.5051  143.6840 LP  0  0  0  0  0  0  0  0  0  0  0  0  # atno 17320 bound_to 7965
  145.5805  139.1488  143.3238 LP  0  0  0  0  0  0  0  0  0  0  0  0  # atno 17321 bound_to 7965
  140.7745  143.3589  151.1866 LP  0  0  0  0  0  0  0  0  0  0  0  0  # atno 17342 bound_to 10162
  139.7200  143.9239  152.2981 LP  0  0  0  0  0  0  0  0  0  0  0  0  # atno 17343 bound_to 10162
  157.7251  131.0655  150.5967 LP  0  0  0  0  0  0  0  0  0  0  0  0  # atno 17370 bound_to 10713
  156.6055  130.4366  149.5880 LP  0  0  0  0  0  0  0  0  0  0  0  0  # atno 17371 bound_to 10713
  140.7135  134.4436  157.5580 LP  0  0  0  0  0  0  0  0  0  0  0  0  # atno 17394 bound_to 11000
  139.8965  134.8659  156.2086 LP  0  0  0  0  0  0  0  0  0  0  0  0  # atno 17395 bound_to 11000

$$$$
