AV-unprocessed.smi:287|AV-procd|sdf|2181|dock7
  -GOLD-   2262021553D 1   1.00000     0.00000
 Structure written by MMmdl.
 55 58  0  0  0  0  0  0  0  0  1 V2000
  154.4094  140.6016  161.2051 C   0  0  0  0  0  0  0  0  0  0  0  0
  153.3962  141.3003  160.3648 C   0  0  0  0  0  0  0  0  0  0  0  0
  153.1347  142.6123  160.0962 C   0  0  0  0  0  0  0  0  0  0  0  0
  152.0178  142.6517  159.2091 C   0  0  0  0  0  0  0  0  0  0  0  0
  151.3738  143.9118  158.6470 C   0  0  1  0  0  0  0  0  0  0  0  0
  152.1905  145.1480  159.0610 C   0  0  0  0  0  0  0  0  0  0  0  0
  151.3526  143.9388  157.2328 O   0  0  0  0  0  0  0  0  0  0  0  0
  149.9060  144.0671  159.1039 C   0  0  0  0  0  0  0  0  0  0  0  0
  148.9646  143.3761  158.2320 N   0  0  0  0  0  0  0  0  0  0  0  0
  147.6465  143.3406  158.5191 C   0  0  0  0  0  0  0  0  0  0  0  0
  146.8374  142.9773  157.4952 N   0  0  0  0  0  0  0  0  0  0  0  0
  145.5153  142.9090  157.6743 C   0  0  0  0  0  0  0  0  0  0  0  0
  144.8093  143.1551  158.7793 N   0  0  0  0  0  0  0  0  0  0  0  0
  145.6176  143.5206  159.8158 C   0  0  0  0  0  0  0  0  0  0  0  0
  147.0361  143.6418  159.7734 C   0  0  0  0  0  0  0  0  0  0  0  0
  147.4955  144.0438  161.0235 N   0  0  0  0  0  0  0  0  0  0  0  0
  146.4162  144.1507  161.7501 C   0  0  0  0  0  0  0  0  0  0  0  0
  145.2405  143.8380  161.1024 N   0  0  0  0  0  0  0  0  0  0  0  0
  143.8333  143.8569  161.6157 C   0  0  2  0  0  0  0  0  0  0  0  0
  143.2872  142.5835  161.4427 O   0  0  0  0  0  0  0  0  0  0  0  0
  142.5503  142.5449  160.2248 C   0  0  1  0  0  0  0  0  0  0  0  0
  141.6009  141.3348  160.1803 C   0  0  0  0  0  0  0  0  0  0  0  0
  140.6822  141.4016  161.2503 O   0  0  0  0  0  0  0  0  0  0  0  0
  141.8748  143.9215  160.2264 C   0  0  1  0  0  0  0  0  0  0  0  0
  140.7199  143.9086  161.0504 O   0  0  0  0  0  0  0  0  0  0  0  0
  142.9794  144.8253  160.7739 C   0  0  1  0  0  0  0  0  0  0  0  0
  142.4763  145.9203  161.5163 O   0  0  0  0  0  0  0  0  0  0  0  0
  151.6880  141.3333  159.0020 C   0  0  0  0  0  0  0  0  0  0  0  0
  150.6389  140.6379  158.1982 C   0  0  0  0  0  0  0  0  0  0  0  0
  152.5187  140.5086  159.6990 O   0  0  0  0  0  0  0  0  0  0  0  0
  143.9224  144.1152  162.6717 H   0  0  0  0  0  0  0  0  0  0  0  0
  143.2443  142.5055  159.3829 H   0  0  0  0  0  0  0  0  0  0  0  0
  141.5715  144.2241  159.2236 H   0  0  0  0  0  0  0  0  0  0  0  0
  143.5744  145.2076  159.9427 H   0  0  0  0  0  0  0  0  0  0  0  0
  154.8964  141.2987  161.8874 H   0  0  0  0  0  0  0  0  0  0  0  0
  155.1784  140.1449  160.5819 H   0  0  0  0  0  0  0  0  0  0  0  0
  153.9446  139.8157  161.8007 H   0  0  0  0  0  0  0  0  0  0  0  0
  153.6812  143.4538  160.4952 H   0  0  0  0  0  0  0  0  0  0  0  0
  152.2320  145.2513  160.1459 H   0  0  0  0  0  0  0  0  0  0  0  0
  151.7568  146.0665  158.6632 H   0  0  0  0  0  0  0  0  0  0  0  0
  153.2176  145.0837  158.6988 H   0  0  0  0  0  0  0  0  0  0  0  0
  150.5939  144.4283  156.9541 H   0  0  0  0  0  0  0  0  0  0  0  0
  149.8070  143.6250  160.0962 H   0  0  0  0  0  0  0  0  0  0  0  0
  149.6374  145.1205  159.1961 H   0  0  0  0  0  0  0  0  0  0  0  0
  149.3687  142.9252  157.4235 H   0  0  0  0  0  0  0  0  0  0  0  0
  144.9415  142.6155  156.8076 H   0  0  0  0  0  0  0  0  0  0  0  0
  146.4567  144.4610  162.7842 H   0  0  0  0  0  0  0  0  0  0  0  0
  141.0693  141.2787  159.2297 H   0  0  0  0  0  0  0  0  0  0  0  0
  142.1671  140.4099  160.2933 H   0  0  0  0  0  0  0  0  0  0  0  0
  139.8074  141.4238  160.8933 H   0  0  0  0  0  0  0  0  0  0  0  0
  140.9475  144.2910  161.8845 H   0  0  0  0  0  0  0  0  0  0  0  0
  141.5466  145.9844  161.3575 H   0  0  0  0  0  0  0  0  0  0  0  0
  150.7229  140.9002  157.1436 H   0  0  0  0  0  0  0  0  0  0  0  0
  149.6425  140.9180  158.5404 H   0  0  0  0  0  0  0  0  0  0  0  0
  150.7297  139.5545  158.2821 H   0  0  0  0  0  0  0  0  0  0  0  0
  1  2  1  0  0  0  0
  1 35  1  0  0  0  0
  1 36  1  0  0  0  0
  1 37  1  0  0  0  0
  2 30  1  0  0  0  0
  2  3  2  0  0  0  0
  3  4  1  0  0  0  0
  3 38  1  0  0  0  0
  4  5  1  0  0  0  0
  4 28  2  0  0  0  0
  5  6  1  0  0  0  0
  5  7  1  0  0  0  0
  5  8  1  0  0  0  0
  6 39  1  0  0  0  0
  6 40  1  0  0  0  0
  6 41  1  0  0  0  0
  7 42  1  0  0  0  0
  8  9  1  0  0  0  0
  8 43  1  0  0  0  0
  8 44  1  0  0  0  0
  9 10  1  0  0  0  0
  9 45  1  0  0  0  0
 10 15  1  0  0  0  0
 10 11  2  0  0  0  0
 11 12  1  0  0  0  0
 12 13  2  0  0  0  0
 12 46  1  0  0  0  0
 13 14  1  0  0  0  0
 14 18  1  0  0  0  0
 14 15  2  0  0  0  0
 15 16  1  0  0  0  0
 16 17  2  0  0  0  0
 17 18  1  0  0  0  0
 17 47  1  0  0  0  0
 18 19  1  0  0  0  0
 19 31  1  0  0  0  0
 19 26  1  0  0  0  0
 19 20  1  0  0  0  0
 20 21  1  0  0  0  0
 21 32  1  0  0  0  0
 21 22  1  0  0  0  0
 21 24  1  0  0  0  0
 22 23  1  0  0  0  0
 22 48  1  0  0  0  0
 22 49  1  0  0  0  0
 23 50  1  0  0  0  0
 24 33  1  0  0  0  0
 24 25  1  0  0  0  0
 24 26  1  0  0  0  0
 25 51  1  0  0  0  0
 26 34  1  0  0  0  0
 26 27  1  0  0  0  0
 27 52  1  0  0  0  0
 28 29  1  0  0  0  0
 28 30  1  0  0  0  0
 29 53  1  0  0  0  0
 29 54  1  0  0  0  0
 29 55  1  0  0  0  0
M  END
> <s_m_source_file>
AV-unprocessed.smi

> <i_m_source_file_index>
287

> <i_lp_mmshare_version>
43012

> <i_f3d_flags>
0

> <s_epik_input>
W0NIM11jMVtjSF1jKGMobzEpW0NIM10pW0NAQF0oW0NIM10pKFtPSF0pW0NIMl1bTkhdYyhuW2NIXW4yKWMoYzIzKW5bY0hdbjNbQ0BASF00T1tDQEhdKFtDSDJdW09IXSlbQ0BASF0oW09IXSlbQ0BIXTRbT0hd

> <s_epik_cmdline>
J2VwaWtfcHl0aG9uJywgJy1waCcsICc3LjAnLCAnLXRuJywgJzgnLCAnLW1hJywgJzIwMCcsICctbWV0YWxfYmluZGluZycsICctaW1hZScsICc8aW5maWxlLm1hZT4nLCAnLW9tYWUnLCAnPG91dGZpbGUubWFlPic=

> <r_lp_tautomer_probability>
1

> <r_epik_Ionization_Penalty>
0.000992612

> <r_epik_Ionization_Penalty_Charging>
0

> <r_epik_Ionization_Penalty_Neutral>
0.000992612

> <r_epik_State_Penalty>
-0

> <r_epik_Charging_Adjusted_Penalty>
0

> <i_epik_Tot_Q>
0

> <i_epik_Tot_abs_Q>
0

> <r_epik_Metal_State_Penalty>
-0

> <b_epik_Metal_Only>
0

> <s_epik_Chemistry_Notes>
This compound contains an acetal/aminal-like group ( X-CH(R)-Y where X, Y are N, S, or O) that may be acid/base labile, releasing an aldehyde.

> <s_lp_Force_Field>
OPLS_2005

> <r_lp_Energy>
45.0467

> <b_lp_Chiralities_Consistent>
1

> <s_lp_Variant>
AV-unprocessed.smi:287-5

> <Gold.Version>
5.8.1

> <Gold.Id.Protein>
6NUR|6NUR_protein|mol2

> <Gold.PLP.Fitness>
55.8354

> <Gold.PLP.PLP>
-51.5121

> <Gold.PLP.part.hbond>
-7.5698

> <Gold.PLP.part.metal>
0.0000

> <Gold.PLP.part.buried>
-7.2449

> <Gold.PLP.part.nonpolar>
-36.7999

> <Gold.PLP.part.repulsive>
0.3979

> <Gold.PLP.ligand.clash>
0.0000

> <Gold.PLP.ligand.torsion>
0.5909

> <Gold.PLP.Chemscore.Hbond>
1.8000

> <Gold.PLP.Chemscore.CHOScore>
0.0000

> <Gold.PLP.Chemscore.Metal>
0.0000

> <Gold.Chemscore.Hbonds>
donor molecule, donor type, donor heavy atom, donor atom, acceptor molecule, acceptor atom, score
      L1  H     7    42       P1  8028  0.75
      P1  H  6933  6944       L1    16  0.85

> <Gold.PLP.Chemscore.Internal.Correction>
0.1052

> <Gold.Rescore>
     Score         DG    S(hbond)    S(metal)    S(lipo)     H(rot)  DE(clash)    DE(int)     intcor
      2.92      -7.25       1.23        0.00      95.12       5.27       2.22       2.11       ----

> <Gold.Chemscore.Fitness>
2.9206

> <Gold.Chemscore.DG>
-7.2473

> <Gold.Chemscore.ZeroCoef>
-5.4800

> <Gold.Chemscore.Hbond>
1.2341

> <Gold.Chemscore.Metal>
0.0000

> <Gold.Chemscore.Lipo>
95.1215

> <Gold.Chemscore.Internal_Hbond>
0.0000

> <Gold.Chemscore.DEClash>
2.2209

> <Gold.Chemscore.DEInternal>
2.1057

> <Gold.Chemscore.Rot>
5.2672

> <Gold.Chemscore.Internal.Correction>
   9.000000E+99

> <Gold.Chemscore.Hbonds>
donor molecule, donor type, donor heavy atom, donor atom, acceptor molecule, acceptor atom, score
      L1  H     7    42       P1  8028  0.67
      P1  H  6933  6944       L1    16  0.11

> <Gold.Chemscore.Hbond.Weighted>
-4.1220

> <Gold.Chemscore.Metal.Weighted>
-0.0000

> <Gold.Chemscore.Lipo.Weighted>
-11.1292

> <Gold.Chemscore.Internal_Hbond.Weighted>
0.0000

> <Gold.Chemscore.DEClash.Weighted>
2.2209

> <Gold.Chemscore.DEInternal.Weighted>
2.1057

> <Gold.Chemscore.Rot.Weighted>
13.4839

> <Gold.Chemscore.Internal.Correction.Weighted>
   9.000000E+99

> <Gold.Protein.RotatedTorsions>
[ 6907 6896 6895 6894 ] final   77.98 input  -60.11 | X-H torsion
[ 7974 7965 7964 7962 ] final   92.28 input  175.53 | X-H torsion
[ 8008 7997 7996 7995 ] final   25.90 input   59.86 | X-H torsion
[ 10167 10162 10161 10158 ] final  -75.96 input  -65.29 | X-H torsion
[ 10718 10713 10712 10709 ] final  108.66 input   66.30 | X-H torsion
[ 10763 10752 10751 10750 ] final  -28.87 input  -60.55 | X-H torsion
[ 11005 11000 10999 10996 ] final  -62.85 input  -57.11 | X-H torsion

> <Gold.Protein.ActiveResidues>
 VAL166  LYS551  ARG553  GLY616  TRP617  ASP618  TYR619  PRO620  LYS621  CYS622 
 ASP623  PHE694  ASN695  SER759  ASP760  ASP761  ALA762  ILE779  LEU786  VAL792 
 PHE793  MET794  SER795  GLU796  ALA797  LYS798  CYS799  TRP800  GLU811  SER814 

> <Gold.Protein.RotatedAtoms>
  152.5141  134.3733  159.9325 H   0  0  0  0  0  0  0  0  0  0  0  0  # atno 6907 bound_to 6896
  151.3688  133.3856  159.2705 H   0  0  0  0  0  0  0  0  0  0  0  0  # atno 6908 bound_to 6896
  150.9594  134.9003  159.7779 H   0  0  0  0  0  0  0  0  0  0  0  0  # atno 6909 bound_to 6896
  145.4944  139.2276  143.2812 H   0  0  0  0  0  0  0  0  0  0  0  0  # atno 7974 bound_to 7965
  155.0189  140.3145  155.4801 H   0  0  0  0  0  0  0  0  0  0  0  0  # atno 8008 bound_to 7997
  156.2896  140.2201  156.5248 H   0  0  0  0  0  0  0  0  0  0  0  0  # atno 8009 bound_to 7997
  154.7469  140.0469  157.0848 H   0  0  0  0  0  0  0  0  0  0  0  0  # atno 8010 bound_to 7997
  140.4898  143.2383  151.7926 H   0  0  0  0  0  0  0  0  0  0  0  0  # atno 10167 bound_to 10162
  157.6576  131.0898  150.6338 H   0  0  0  0  0  0  0  0  0  0  0  0  # atno 10718 bound_to 10713
  153.7554  135.6923  153.4937 H   0  0  0  0  0  0  0  0  0  0  0  0  # atno 10763 bound_to 10752
  153.1975  135.4448  155.0224 H   0  0  0  0  0  0  0  0  0  0  0  0  # atno 10764 bound_to 10752
  154.8172  135.3404  154.7072 H   0  0  0  0  0  0  0  0  0  0  0  0  # atno 10765 bound_to 10752
  141.1374  133.6645  156.5591 H   0  0  0  0  0  0  0  0  0  0  0  0  # atno 11005 bound_to 11000
  146.2264  140.5740  142.8994 LP  0  0  0  0  0  0  0  0  0  0  0  0  # atno 17320 bound_to 7965
  144.7815  140.5851  143.6602 LP  0  0  0  0  0  0  0  0  0  0  0  0  # atno 17321 bound_to 7965
  139.4849  144.4664  151.9478 LP  0  0  0  0  0  0  0  0  0  0  0  0  # atno 17342 bound_to 10162
  140.3751  144.2807  150.5915 LP  0  0  0  0  0  0  0  0  0  0  0  0  # atno 17343 bound_to 10162
  156.6643  130.4521  149.5677 LP  0  0  0  0  0  0  0  0  0  0  0  0  # atno 17370 bound_to 10713
  156.2044  130.6640  151.1202 LP  0  0  0  0  0  0  0  0  0  0  0  0  # atno 17371 bound_to 10713
  140.4003  134.7363  157.4775 LP  0  0  0  0  0  0  0  0  0  0  0  0  # atno 17394 bound_to 11000
  140.0501  134.6143  155.8872 LP  0  0  0  0  0  0  0  0  0  0  0  0  # atno 17395 bound_to 11000

$$$$
