AV-unprocessed.smi:2581|AV-procd|sdf|10131|dock2
  -GOLD-   2272014143D 1   1.00000     0.00000
 Structure written by MMmdl.
 40 42  0  0  0  0  0  0  0  0  2 V2000
  152.0455  140.1306  154.8589 O   0  0  0  0  0  0  0  0  0  0  0  0
  151.4948  140.8981  155.6477 C   0  0  0  0  0  0  0  0  0  0  0  0
  152.1814  141.4661  156.8104 C   0  0  0  0  0  0  0  0  0  0  0  0
  151.5987  142.3367  157.6751 C   0  0  0  0  0  0  0  0  0  0  0  0
  152.2882  142.8631  158.7701 N   0  0  0  0  0  0  0  0  0  0  0  0
  151.9173  144.1028  159.4486 C   0  0  0  0  0  0  0  0  0  0  0  0
  151.4755  143.8006  160.8927 C   0  0  0  0  0  0  0  0  0  0  0  0
  152.5167  143.1159  161.5831 O   0  0  0  0  0  0  0  0  0  0  0  0
  152.8608  141.8860  160.9529 C   0  0  0  0  0  0  0  0  0  0  0  0
  153.3351  142.1703  159.5180 C   0  0  0  0  0  0  0  0  0  0  0  0
  150.2187  142.6876  157.3730 C   0  0  0  0  0  0  0  0  0  0  0  0
  149.5755  142.2044  156.3659 N   0  0  0  0  0  0  0  0  0  0  0  0
  150.1958  141.3048  155.5146 N   0  0  0  0  0  0  0  0  0  0  0  0
  149.3666  140.8517  154.3797 C   0  0  2  0  0  0  0  0  0  0  0  0
  147.8940  141.2631  154.5810 C   0  0  0  0  0  0  0  0  0  0  0  0
  147.0405  140.7937  153.3926 C   0  0  0  0  0  0  0  0  0  0  0  0
  147.2063  139.2830  153.1553 C   0  0  0  0  0  0  0  0  0  0  0  0
  148.6326  138.9334  152.9735 N   0  3  0  0  0  0  0  0  0  0  0  0
  149.4735  139.3287  154.1245 C   0  0  0  0  0  0  0  0  0  0  0  0
  153.2005  141.1505  156.9770 H   0  0  0  0  0  0  0  0  0  0  0  0
  152.7721  144.7798  159.4480 H   0  0  0  0  0  0  0  0  0  0  0  0
  151.1080  144.6177  158.9324 H   0  0  0  0  0  0  0  0  0  0  0  0
  151.2511  144.7276  161.4200 H   0  0  0  0  0  0  0  0  0  0  0  0
  150.5651  143.1991  160.9009 H   0  0  0  0  0  0  0  0  0  0  0  0
  153.6547  141.4047  161.5241 H   0  0  0  0  0  0  0  0  0  0  0  0
  152.0064  141.2073  160.9548 H   0  0  0  0  0  0  0  0  0  0  0  0
  153.6435  141.2488  159.0258 H   0  0  0  0  0  0  0  0  0  0  0  0
  154.2213  142.8056  159.5436 H   0  0  0  0  0  0  0  0  0  0  0  0
  149.7462  143.4003  158.0478 H   0  0  0  0  0  0  0  0  0  0  0  0
  149.7115  141.3255  153.4588 H   0  0  0  0  0  0  0  0  0  0  0  0
  147.5043  140.8298  155.5032 H   0  0  0  0  0  0  0  0  0  0  0  0
  147.8157  142.3457  154.6880 H   0  0  0  0  0  0  0  0  0  0  0  0
  145.9912  141.0312  153.5705 H   0  0  0  0  0  0  0  0  0  0  0  0
  147.3326  141.3397  152.4946 H   0  0  0  0  0  0  0  0  0  0  0  0
  146.8027  138.7198  153.9977 H   0  0  0  0  0  0  0  0  0  0  0  0
  146.6489  138.9759  152.2703 H   0  0  0  0  0  0  0  0  0  0  0  0
  148.7115  137.9355  152.8378 H   0  0  0  0  0  0  0  0  0  0  0  0
  150.5074  139.0500  153.9187 H   0  0  0  0  0  0  0  0  0  0  0  0
  149.1517  138.7507  154.9919 H   0  0  0  0  0  0  0  0  0  0  0  0
  148.9768  139.4036  152.1484 H   0  0  0  0  0  0  0  0  0  0  0  0
  1  2  2  0  0  0  0
  2 13  1  0  0  0  0
  2  3  1  0  0  0  0
  3  4  2  0  0  0  0
  3 20  1  0  0  0  0
  4  5  1  0  0  0  0
  4 11  1  0  0  0  0
  5 10  1  0  0  0  0
  5  6  1  0  0  0  0
  6  7  1  0  0  0  0
  6 21  1  0  0  0  0
  6 22  1  0  0  0  0
  7  8  1  0  0  0  0
  7 23  1  0  0  0  0
  7 24  1  0  0  0  0
  8  9  1  0  0  0  0
  9 10  1  0  0  0  0
  9 25  1  0  0  0  0
  9 26  1  0  0  0  0
 10 27  1  0  0  0  0
 10 28  1  0  0  0  0
 11 12  2  0  0  0  0
 11 29  1  0  0  0  0
 12 13  1  0  0  0  0
 13 14  1  0  0  0  0
 14 19  1  0  0  0  0
 14 15  1  0  0  0  0
 14 30  1  0  0  0  0
 15 16  1  0  0  0  0
 15 31  1  0  0  0  0
 15 32  1  0  0  0  0
 16 17  1  0  0  0  0
 16 33  1  0  0  0  0
 16 34  1  0  0  0  0
 17 18  1  0  0  0  0
 17 35  1  0  0  0  0
 17 36  1  0  0  0  0
 18 19  1  0  0  0  0
 18 37  1  0  0  0  0
 18 40  1  0  0  0  0
 19 38  1  0  0  0  0
 19 39  1  0  0  0  0
M  CHG  1  18   1
M  END
> <s_m_source_file>
AV-unprocessed.smi

> <i_m_source_file_index>
2581

> <i_lp_mmshare_version>
43012

> <i_f3d_flags>
0

> <s_epik_input>
W0NIMl0xW0NIMl1PW0NIMl1bQ0gyXU4xYyhbY0hdYzI9TylbY0hdbm4yW0NAQEhdM1tDSDJdW0NIMl1bQ0gyXVtOSF1bQ0gyXTM=

> <s_epik_cmdline>
J2VwaWtfcHl0aG9uJywgJy1waCcsICc3LjAnLCAnLXRuJywgJzgnLCAnLW1hJywgJzIwMCcsICctbWV0YWxfYmluZGluZycsICctaW1hZScsICc8aW5maWxlLm1hZT4nLCAnLW9tYWUnLCAnPG91dGZpbGUubWFlPic=

> <r_lp_tautomer_probability>
1

> <r_epik_Ionization_Penalty>
0.00140529

> <r_epik_Ionization_Penalty_Charging>
0.00140528

> <r_epik_Ionization_Penalty_Neutral>
1.0684e-08

> <r_epik_State_Penalty>
0.000937322

> <r_epik_Charging_Adjusted_Penalty>
0.00234261

> <i_epik_Tot_Q>
1

> <i_epik_Tot_abs_Q>
1

> <r_epik_Metal_State_Penalty>
-0

> <b_epik_Metal_Only>
0

> <s_lp_Force_Field>
OPLS_2005

> <r_lp_Energy>
43.5577

> <b_lp_Chiralities_Consistent>
1

> <s_lp_Variant>
AV-unprocessed.smi:2581-1

> <Gold.Version>
5.8.1

> <Gold.Id.Protein>
6NUR|6NUR_protein|mol2

> <Gold.PLP.Fitness>
46.2742

> <Gold.PLP.PLP>
-37.9513

> <Gold.PLP.part.hbond>
-3.0000

> <Gold.PLP.part.metal>
0.0000

> <Gold.PLP.part.buried>
-3.3712

> <Gold.PLP.part.nonpolar>
-33.6144

> <Gold.PLP.part.repulsive>
3.1884

> <Gold.PLP.ligand.clash>
0.0000

> <Gold.PLP.ligand.torsion>
0.6037

> <Gold.PLP.Chemscore.Hbond>
2.9680

> <Gold.PLP.Chemscore.CHOScore>
0.1915

> <Gold.PLP.Chemscore.Metal>
0.0000

> <Gold.Chemscore.Hbonds>
donor molecule, donor type, donor heavy atom, donor atom, acceptor molecule, acceptor atom, score
      L1  H    18    37       P1  7948  2.00
      L1  H    18    40       P1  7957  0.49
      P1  H  7989  7998       L1     1  0.74
      L1  C    11    29       P1  8028  0.03

> <Gold.PLP.Chemscore.Internal.Correction>
0.0520

> <Gold.Rescore>
     Score         DG    S(hbond)    S(metal)    S(lipo)     H(rot)  DE(clash)    DE(int)     intcor
     15.58     -20.89       1.77        0.00     103.07       1.00       3.44       1.87       ----

> <Gold.Chemscore.Fitness>
15.5764

> <Gold.Chemscore.DG>
-20.8890

> <Gold.Chemscore.ZeroCoef>
-5.4800

> <Gold.Chemscore.Hbond>
1.7694

> <Gold.Chemscore.Metal>
0.0000

> <Gold.Chemscore.Lipo>
103.0714

> <Gold.Chemscore.Internal_Hbond>
0.0000

> <Gold.Chemscore.DEClash>
3.4428

> <Gold.Chemscore.DEInternal>
1.8698

> <Gold.Chemscore.Rot>
1.0000

> <Gold.Chemscore.Internal.Correction>
   9.000000E+99

> <Gold.Chemscore.Hbonds>
donor molecule, donor type, donor heavy atom, donor atom, acceptor molecule, acceptor atom, score
      L1  H    18    37       P1  7948  0.98
      L1  H    18    40       P1  7957  0.48
      P1  H  7989  7998       L1     1  0.16

> <Gold.Chemscore.Hbond.Weighted>
-5.9097

> <Gold.Chemscore.Metal.Weighted>
-0.0000

> <Gold.Chemscore.Lipo.Weighted>
-12.0594

> <Gold.Chemscore.Internal_Hbond.Weighted>
0.0000

> <Gold.Chemscore.DEClash.Weighted>
3.4428

> <Gold.Chemscore.DEInternal.Weighted>
1.8698

> <Gold.Chemscore.Rot.Weighted>
2.5600

> <Gold.Chemscore.Internal.Correction.Weighted>
   9.000000E+99

> <Gold.Protein.RotatedTorsions>
[ 6907 6896 6895 6894 ] final  148.80 input  -60.11 | X-H torsion
[ 7974 7965 7964 7962 ] final   98.78 input  175.53 | X-H torsion
[ 8008 7997 7996 7995 ] final   27.48 input   59.86 | X-H torsion
[ 10167 10162 10161 10158 ] final   28.90 input  -65.29 | X-H torsion
[ 10718 10713 10712 10709 ] final -104.42 input   66.30 | X-H torsion
[ 10763 10752 10751 10750 ] final  108.59 input  -60.55 | X-H torsion
[ 11005 11000 10999 10996 ] final -169.03 input  -57.11 | X-H torsion

> <Gold.Protein.ActiveResidues>
 VAL166  LYS551  ARG553  GLY616  TRP617  ASP618  TYR619  PRO620  LYS621  CYS622 
 ASP623  PHE694  ASN695  SER759  ASP760  ASP761  ALA762  ILE779  LEU786  VAL792 
 PHE793  MET794  SER795  GLU796  ALA797  LYS798  CYS799  TRP800  GLU811  SER814 

> <Gold.Protein.RotatedAtoms>
  152.1367  133.4439  159.4746 H   0  0  0  0  0  0  0  0  0  0  0  0  # atno 6907 bound_to 6896
  150.6882  134.2355  159.4461 H   0  0  0  0  0  0  0  0  0  0  0  0  # atno 6908 bound_to 6896
  152.0243  134.9804  160.0622 H   0  0  0  0  0  0  0  0  0  0  0  0  # atno 6909 bound_to 6896
  145.4075  139.2338  143.3266 H   0  0  0  0  0  0  0  0  0  0  0  0  # atno 7974 bound_to 7965
  155.0436  140.3172  155.4716 H   0  0  0  0  0  0  0  0  0  0  0  0  # atno 8008 bound_to 7997
  156.2849  140.2158  156.5504 H   0  0  0  0  0  0  0  0  0  0  0  0  # atno 8009 bound_to 7997
  154.7269  140.0484  157.0679 H   0  0  0  0  0  0  0  0  0  0  0  0  # atno 8010 bound_to 7997
  140.4812  144.0613  150.6266 H   0  0  0  0  0  0  0  0  0  0  0  0  # atno 10167 bound_to 10162
  156.0304  130.5514  150.7394 H   0  0  0  0  0  0  0  0  0  0  0  0  # atno 10718 bound_to 10713
  153.4228  135.3807  155.2122 H   0  0  0  0  0  0  0  0  0  0  0  0  # atno 10763 bound_to 10752
  154.8745  135.3821  154.4363 H   0  0  0  0  0  0  0  0  0  0  0  0  # atno 10764 bound_to 10752
  153.4885  135.7088  153.5960 H   0  0  0  0  0  0  0  0  0  0  0  0  # atno 10765 bound_to 10752
  140.5353  134.5576  157.5086 H   0  0  0  0  0  0  0  0  0  0  0  0  # atno 11005 bound_to 11000
  146.2721  140.4782  142.8810 LP  0  0  0  0  0  0  0  0  0  0  0  0  # atno 17320 bound_to 7965
  144.8331  140.6739  143.6278 LP  0  0  0  0  0  0  0  0  0  0  0  0  # atno 17321 bound_to 7965
  140.3855  143.2780  152.0121 LP  0  0  0  0  0  0  0  0  0  0  0  0  # atno 17342 bound_to 10162
  139.4834  144.6120  151.7416 LP  0  0  0  0  0  0  0  0  0  0  0  0  # atno 17343 bound_to 10162
  157.4967  131.0915  151.0363 LP  0  0  0  0  0  0  0  0  0  0  0  0  # atno 17370 bound_to 10713
  157.0755  130.5882  149.5410 LP  0  0  0  0  0  0  0  0  0  0  0  0  # atno 17371 bound_to 10713
  139.9532  134.7580  156.0400 LP  0  0  0  0  0  0  0  0  0  0  0  0  # atno 17394 bound_to 11000
  141.1258  133.6600  156.3333 LP  0  0  0  0  0  0  0  0  0  0  0  0  # atno 17395 bound_to 11000

$$$$
