AV-unprocessed.smi:1633|AV-procd|sdf|6532|dock8
  -GOLD-   22720 7213D 1   1.00000     0.00000
 Structure written by MMmdl.
 51 53  0  0  0  0  0  0  0  0  2 V2000
  145.5274  130.1661  151.7000 C   0  0  0  0  0  0  0  0  0  0  0  0
  146.0563  131.1576  152.7386 C   0  0  0  0  0  0  0  0  0  0  0  0
  145.9199  130.8761  153.9288 O   0  0  0  0  0  0  0  0  0  0  0  0
  146.6516  132.3009  152.3220 N   0  0  0  0  0  0  0  0  0  0  0  0
  147.1461  133.3220  153.2497 C   0  0  0  0  0  0  0  0  0  0  0  0
  146.2982  134.5972  153.0944 C   0  0  0  0  0  0  0  0  0  0  0  0
  146.2888  135.0744  151.6858 N   0  3  0  0  0  0  0  0  0  0  0  0
  145.5041  136.3247  151.5194 C   0  0  0  0  0  0  0  0  0  0  0  0
  145.8194  137.3735  152.6041 C   0  0  2  0  0  0  0  0  0  0  0  0
  144.6196  138.0402  152.9478 O   0  0  0  0  0  0  0  0  0  0  0  0
  146.8567  138.4049  152.1198 C   0  0  0  0  0  0  0  0  0  0  0  0
  147.2600  139.3177  153.1747 N   0  0  0  0  0  0  0  0  0  0  0  0
  146.5489  140.3498  153.6679 C   0  0  0  0  0  0  0  0  0  0  0  0
  147.1128  141.0725  154.6309 N   0  0  0  0  0  0  0  0  0  0  0  0
  148.3310  140.4330  154.7837 C   0  0  0  0  0  0  0  0  0  0  0  0
  149.4105  140.7111  155.6501 C   0  0  0  0  0  0  0  0  0  0  0  0
  150.5786  139.9159  155.6312 C   0  0  0  0  0  0  0  0  0  0  0  0
  151.7172  140.2535  156.5774 C   0  0  0  0  0  0  0  0  0  0  0  0
  150.6776  138.8196  154.7369 C   0  0  0  0  0  0  0  0  0  0  0  0
  151.9217  137.9496  154.7009 C   0  0  0  0  0  0  0  0  0  0  0  0
  149.6086  138.5283  153.8640 C   0  0  0  0  0  0  0  0  0  0  0  0
  148.4530  139.3290  153.8900 C   0  0  0  0  0  0  0  0  0  0  0  0
  145.9190  134.0029  150.7198 C   0  0  0  0  0  0  0  0  0  0  0  0
  146.7736  132.7391  150.9280 C   0  0  0  0  0  0  0  0  0  0  0  0
  144.7584  130.6270  151.0794 H   0  0  0  0  0  0  0  0  0  0  0  0
  145.0843  129.2980  152.1892 H   0  0  0  0  0  0  0  0  0  0  0  0
  146.3348  129.8094  151.0598 H   0  0  0  0  0  0  0  0  0  0  0  0
  147.1315  132.9950  154.2903 H   0  0  0  0  0  0  0  0  0  0  0  0
  148.1913  133.5360  153.0211 H   0  0  0  0  0  0  0  0  0  0  0  0
  145.2739  134.4032  153.4172 H   0  0  0  0  0  0  0  0  0  0  0  0
  146.6953  135.3779  153.7448 H   0  0  0  0  0  0  0  0  0  0  0  0
  145.6847  136.7345  150.5245 H   0  0  0  0  0  0  0  0  0  0  0  0
  144.4382  136.0944  151.5643 H   0  0  0  0  0  0  0  0  0  0  0  0
  146.2096  136.8900  153.4991 H   0  0  0  0  0  0  0  0  0  0  0  0
  144.5059  138.7752  152.3636 H   0  0  0  0  0  0  0  0  0  0  0  0
  147.7486  137.8970  151.7500 H   0  0  0  0  0  0  0  0  0  0  0  0
  146.4626  138.9866  151.2853 H   0  0  0  0  0  0  0  0  0  0  0  0
  145.5634  140.5874  153.2949 H   0  0  0  0  0  0  0  0  0  0  0  0
  149.3342  141.5457  156.3316 H   0  0  0  0  0  0  0  0  0  0  0  0
  151.9002  139.4269  157.2639 H   0  0  0  0  0  0  0  0  0  0  0  0
  151.4920  141.1392  157.1720 H   0  0  0  0  0  0  0  0  0  0  0  0
  152.6329  140.4505  156.0195 H   0  0  0  0  0  0  0  0  0  0  0  0
  151.8202  137.1396  153.9778 H   0  0  0  0  0  0  0  0  0  0  0  0
  152.1053  137.5032  155.6784 H   0  0  0  0  0  0  0  0  0  0  0  0
  152.7933  138.5415  154.4207 H   0  0  0  0  0  0  0  0  0  0  0  0
  149.6729  137.6983  153.1758 H   0  0  0  0  0  0  0  0  0  0  0  0
  144.8628  133.7559  150.8394 H   0  0  0  0  0  0  0  0  0  0  0  0
  146.0485  134.3523  149.6965 H   0  0  0  0  0  0  0  0  0  0  0  0
  147.8210  132.9602  150.7175 H   0  0  0  0  0  0  0  0  0  0  0  0
  146.4855  131.9801  150.2024 H   0  0  0  0  0  0  0  0  0  0  0  0
  147.2465  135.3233  151.4808 H   0  0  0  0  0  0  0  0  0  0  0  0
  1  2  1  0  0  0  0
  1 25  1  0  0  0  0
  1 26  1  0  0  0  0
  1 27  1  0  0  0  0
  2  3  2  0  0  0  0
  2  4  1  0  0  0  0
  4 24  1  0  0  0  0
  4  5  1  0  0  0  0
  5  6  1  0  0  0  0
  5 28  1  0  0  0  0
  5 29  1  0  0  0  0
  6  7  1  0  0  0  0
  6 30  1  0  0  0  0
  6 31  1  0  0  0  0
  7  8  1  0  0  0  0
  7 23  1  0  0  0  0
  7 51  1  0  0  0  0
  8  9  1  0  0  0  0
  8 32  1  0  0  0  0
  8 33  1  0  0  0  0
  9 10  1  0  0  0  0
  9 11  1  0  0  0  0
  9 34  1  0  0  0  0
 10 35  1  0  0  0  0
 11 12  1  0  0  0  0
 11 36  1  0  0  0  0
 11 37  1  0  0  0  0
 12 22  1  0  0  0  0
 12 13  1  0  0  0  0
 13 14  2  0  0  0  0
 13 38  1  0  0  0  0
 14 15  1  0  0  0  0
 15 22  2  0  0  0  0
 15 16  1  0  0  0  0
 16 17  2  0  0  0  0
 16 39  1  0  0  0  0
 17 18  1  0  0  0  0
 17 19  1  0  0  0  0
 18 40  1  0  0  0  0
 18 41  1  0  0  0  0
 18 42  1  0  0  0  0
 19 20  1  0  0  0  0
 19 21  2  0  0  0  0
 20 43  1  0  0  0  0
 20 44  1  0  0  0  0
 20 45  1  0  0  0  0
 21 22  1  0  0  0  0
 21 46  1  0  0  0  0
 23 24  1  0  0  0  0
 23 47  1  0  0  0  0
 23 48  1  0  0  0  0
 24 49  1  0  0  0  0
 24 50  1  0  0  0  0
M  CHG  1   7   1
M  END
> <s_m_source_file>
AV-unprocessed.smi

> <i_m_source_file_index>
1633

> <i_lp_mmshare_version>
43012

> <i_f3d_flags>
0

> <s_epik_input>
W0NIM11DKD1PKU4xW0NIMl1bQ0gyXU4oW0NIMl1bQ0gyXTEpW0NIMl1bQ0BIXShbT0hdKVtDSDJdbihbY0hdbjIpYyhjMjMpW2NIXWMoW0NIM10pYyhbY0hdMylbQ0gzXQ==

> <s_epik_cmdline>
J2VwaWtfcHl0aG9uJywgJy1waCcsICc3LjAnLCAnLXRuJywgJzgnLCAnLW1hJywgJzIwMCcsICctbWV0YWxfYmluZGluZycsICctaW1hZScsICc8aW5maWxlLm1hZT4nLCAnLW9tYWUnLCAnPG91dGZpbGUubWFlPic=

> <r_epik_Ionization_Penalty>
0.0939669

> <r_epik_Ionization_Penalty_Charging>
0.00645254

> <r_epik_Ionization_Penalty_Neutral>
0.0875144

> <r_epik_State_Penalty>
0.0777239

> <r_epik_Charging_Adjusted_Penalty>
0.0841764

> <i_epik_Tot_Q>
1

> <i_epik_Tot_abs_Q>
1

> <r_epik_Metal_State_Penalty>
7.71307e-05

> <b_epik_Metal_Only>
0

> <s_lp_Force_Field>
OPLS_2005

> <r_lp_Energy>
43.6945

> <b_lp_Chiralities_Consistent>
1

> <s_lp_Variant>
AV-unprocessed.smi:1633-1

> <Gold.Version>
5.8.1

> <Gold.Id.Protein>
6NUR|6NUR_protein|mol2

> <Gold.PLP.Fitness>
52.1801

> <Gold.PLP.PLP>
-41.6697

> <Gold.PLP.part.hbond>
-1.9069

> <Gold.PLP.part.metal>
0.0000

> <Gold.PLP.part.buried>
-0.8321

> <Gold.PLP.part.nonpolar>
-38.3480

> <Gold.PLP.part.repulsive>
0.3297

> <Gold.PLP.ligand.clash>
0.0000

> <Gold.PLP.ligand.torsion>
0.7815

> <Gold.PLP.Chemscore.Hbond>
3.0000

> <Gold.PLP.Chemscore.CHOScore>
1.0000

> <Gold.PLP.Chemscore.Metal>
0.0000

> <Gold.Chemscore.Hbonds>
donor molecule, donor type, donor heavy atom, donor atom, acceptor molecule, acceptor atom, score
      L1  H     7    51       P1  7948  2.00
      L1  H    10    35       P1 10175  0.72
      L1  C    13    38       P1 10175  1.00

> <Gold.PLP.Chemscore.Internal.Correction>
0.0733

> <Gold.Rescore>
     Score         DG    S(hbond)    S(metal)    S(lipo)     H(rot)  DE(clash)    DE(int)     intcor
     17.42     -18.57       1.98        0.00     102.67       2.16       0.26       0.89       ----

> <Gold.Chemscore.Fitness>
17.4219

> <Gold.Chemscore.DG>
-18.5705

> <Gold.Chemscore.ZeroCoef>
-5.4800

> <Gold.Chemscore.Hbond>
1.9790

> <Gold.Chemscore.Metal>
0.0000

> <Gold.Chemscore.Lipo>
102.6681

> <Gold.Chemscore.Internal_Hbond>
0.0000

> <Gold.Chemscore.DEClash>
0.2590

> <Gold.Chemscore.DEInternal>
0.8896

> <Gold.Chemscore.Rot>
2.1608

> <Gold.Chemscore.Internal.Correction>
   9.000000E+99

> <Gold.Chemscore.Hbonds>
donor molecule, donor type, donor heavy atom, donor atom, acceptor molecule, acceptor atom, score
      L1  H     7    51       P1  7948  0.90
      L1  H    10    35       P1 10175  0.72

> <Gold.Chemscore.Hbond.Weighted>
-6.6100

> <Gold.Chemscore.Metal.Weighted>
-0.0000

> <Gold.Chemscore.Lipo.Weighted>
-12.0122

> <Gold.Chemscore.Internal_Hbond.Weighted>
0.0000

> <Gold.Chemscore.DEClash.Weighted>
0.2590

> <Gold.Chemscore.DEInternal.Weighted>
0.8896

> <Gold.Chemscore.Rot.Weighted>
5.5317

> <Gold.Chemscore.Internal.Correction.Weighted>
   9.000000E+99

> <Gold.Protein.RotatedTorsions>
[ 6907 6896 6895 6894 ] final  -77.13 input  -60.11 | X-H torsion
[ 7974 7965 7964 7962 ] final  132.50 input  175.53 | X-H torsion
[ 8008 7997 7996 7995 ] final  -87.07 input   59.86 | X-H torsion
[ 10167 10162 10161 10158 ] final  -68.64 input  -65.29 | X-H torsion
[ 10718 10713 10712 10709 ] final   -4.50 input   66.30 | X-H torsion
[ 10763 10752 10751 10750 ] final  107.50 input  -60.55 | X-H torsion
[ 11005 11000 10999 10996 ] final   73.29 input  -57.11 | X-H torsion

> <Gold.Protein.ActiveResidues>
 VAL166  LYS551  ARG553  GLY616  TRP617  ASP618  TYR619  PRO620  LYS621  CYS622 
 ASP623  PHE694  ASN695  SER759  ASP760  ASP761  ALA762  ILE779  LEU786  VAL792 
 PHE793  MET794  SER795  GLU796  ALA797  LYS798  CYS799  TRP800  GLU811  SER814 

> <Gold.Protein.RotatedAtoms>
  150.7007  134.4468  159.5317 H   0  0  0  0  0  0  0  0  0  0  0  0  # atno 6907 bound_to 6896
  152.2168  134.8448  160.0500 H   0  0  0  0  0  0  0  0  0  0  0  0  # atno 6908 bound_to 6896
  151.9313  133.3577  159.3968 H   0  0  0  0  0  0  0  0  0  0  0  0  # atno 6909 bound_to 6896
  144.9962  139.4357  143.5315 H   0  0  0  0  0  0  0  0  0  0  0  0  # atno 7974 bound_to 7965
  154.6590  140.0570  157.0041 H   0  0  0  0  0  0  0  0  0  0  0  0  # atno 8008 bound_to 7997
  155.1257  140.3252  155.4468 H   0  0  0  0  0  0  0  0  0  0  0  0  # atno 8009 bound_to 7997
  156.2610  140.1989  156.6378 H   0  0  0  0  0  0  0  0  0  0  0  0  # atno 8010 bound_to 7997
  140.5492  143.2312  151.6944 H   0  0  0  0  0  0  0  0  0  0  0  0  # atno 10167 bound_to 10162
  156.7603  130.5267  149.5786 H   0  0  0  0  0  0  0  0  0  0  0  0  # atno 10718 bound_to 10713
  153.4076  135.3842  155.2029 H   0  0  0  0  0  0  0  0  0  0  0  0  # atno 10763 bound_to 10752
  154.8735  135.3786  154.4541 H   0  0  0  0  0  0  0  0  0  0  0  0  # atno 10764 bound_to 10752
  153.5046  135.7088  153.5875 H   0  0  0  0  0  0  0  0  0  0  0  0  # atno 10765 bound_to 10752
  139.9447  134.7334  156.1009 H   0  0  0  0  0  0  0  0  0  0  0  0  # atno 11005 bound_to 11000
  146.3442  139.9323  142.8752 LP  0  0  0  0  0  0  0  0  0  0  0  0  # atno 17320 bound_to 7965
  145.2217  140.9937  143.4042 LP  0  0  0  0  0  0  0  0  0  0  0  0  # atno 17321 bound_to 7965
  139.5020  144.3845  152.0342 LP  0  0  0  0  0  0  0  0  0  0  0  0  # atno 17342 bound_to 10162
  140.2961  144.3699  150.6074 LP  0  0  0  0  0  0  0  0  0  0  0  0  # atno 17343 bound_to 10162
  156.1343  130.6200  151.0378 LP  0  0  0  0  0  0  0  0  0  0  0  0  # atno 17370 bound_to 10713
  157.6737  131.0855  150.7548 LP  0  0  0  0  0  0  0  0  0  0  0  0  # atno 17371 bound_to 10713
  141.1094  133.6648  156.2941 LP  0  0  0  0  0  0  0  0  0  0  0  0  # atno 17394 bound_to 11000
  140.5864  134.5695  157.5490 LP  0  0  0  0  0  0  0  0  0  0  0  0  # atno 17395 bound_to 11000

$$$$
