AV-unprocessed.smi:701|AV-procd|sdf|3410|dock9
  -GOLD-   22720 0393D 1   1.00000     0.00000
 Structure written by MMmdl.
 49 51  0  0  0  0  0  0  0  0  1 V2000
  141.1558  135.8118  153.6043 C   0  0  0  0  0  0  0  0  0  0  0  0
  141.7398  134.4798  153.1288 C   0  0  0  0  0  0  0  0  0  0  0  0
  143.0414  134.7104  152.6172 O   0  0  0  0  0  0  0  0  0  0  0  0
  144.0014  134.9598  153.6303 C   0  0  2  0  0  0  0  0  0  0  0  0
  144.2248  136.4464  153.9227 C   0  0  0  0  0  0  0  0  0  0  0  0
  145.6945  136.0740  154.1093 C   0  0  2  0  0  0  0  0  0  0  0  0
  146.6028  137.1000  153.6097 N   0  0  0  0  0  0  0  0  0  0  0  0
  146.5607  138.3893  153.9752 C   0  0  0  0  0  0  0  0  0  0  0  0
  145.7502  138.8320  154.7902 O   0  0  0  0  0  0  0  0  0  0  0  0
  147.6118  139.3113  153.3428 C   0  0  0  0  0  0  0  0  0  0  0  0
  148.8386  139.4000  154.1475 N   0  0  0  0  0  0  0  0  0  0  0  0
  149.5061  138.2488  154.5413 C   0  0  0  0  0  0  0  0  0  0  0  0
  150.6311  138.2604  155.2952 C   0  0  0  0  0  0  0  0  0  0  0  0
  151.2089  139.5239  155.7407 C   0  0  0  0  0  0  0  0  0  0  0  0
  152.2240  139.6381  156.4240 O   0  0  0  0  0  0  0  0  0  0  0  0
  150.5075  140.6590  155.3257 N   0  0  0  0  0  0  0  0  0  0  0  0
  149.3469  140.6541  154.5508 C   0  0  0  0  0  0  0  0  0  0  0  0
  148.8039  141.7148  154.2440 O   0  0  0  0  0  0  0  0  0  0  0  0
  145.4771  134.8683  153.1534 C   0  0  0  0  0  0  0  0  0  0  0  0
  145.7476  135.1167  151.6462 C   0  0  0  0  0  0  0  0  0  0  0  0
  145.4044  133.9161  150.7433 C   0  0  0  0  0  0  0  0  0  0  0  0
  146.1102  132.6381  151.2109 C   0  0  0  0  0  0  0  0  0  0  0  0
  145.8448  132.3736  152.6973 C   0  0  0  0  0  0  0  0  0  0  0  0
  146.2345  133.5908  153.5500 C   0  0  0  0  0  0  0  0  0  0  0  0
  150.8690  141.5572  155.6120 H   0  0  0  0  0  0  0  0  0  0  0  0
  140.1511  135.6760  154.0052 H   0  0  0  0  0  0  0  0  0  0  0  0
  141.0955  136.5276  152.7842 H   0  0  0  0  0  0  0  0  0  0  0  0
  141.7731  136.2511  154.3883 H   0  0  0  0  0  0  0  0  0  0  0  0
  141.7762  133.7734  153.9591 H   0  0  0  0  0  0  0  0  0  0  0  0
  141.1032  134.0483  152.3551 H   0  0  0  0  0  0  0  0  0  0  0  0
  143.8256  134.3755  154.5368 H   0  0  0  0  0  0  0  0  0  0  0  0
  144.0343  137.0898  153.0618 H   0  0  0  0  0  0  0  0  0  0  0  0
  143.7288  136.8134  154.8215 H   0  0  0  0  0  0  0  0  0  0  0  0
  145.8960  135.7660  155.1385 H   0  0  0  0  0  0  0  0  0  0  0  0
  147.3029  136.8120  152.9416 H   0  0  0  0  0  0  0  0  0  0  0  0
  147.8378  138.9299  152.3460 H   0  0  0  0  0  0  0  0  0  0  0  0
  147.1947  140.3077  153.1816 H   0  0  0  0  0  0  0  0  0  0  0  0
  149.1111  137.2895  154.2384 H   0  0  0  0  0  0  0  0  0  0  0  0
  151.1054  137.3300  155.5719 H   0  0  0  0  0  0  0  0  0  0  0  0
  145.1956  135.9873  151.2917 H   0  0  0  0  0  0  0  0  0  0  0  0
  146.8004  135.3590  151.4964 H   0  0  0  0  0  0  0  0  0  0  0  0
  144.3280  133.7488  150.7280 H   0  0  0  0  0  0  0  0  0  0  0  0
  145.6873  134.1368  149.7138 H   0  0  0  0  0  0  0  0  0  0  0  0
  145.7806  131.7878  150.6133 H   0  0  0  0  0  0  0  0  0  0  0  0
  147.1840  132.7355  151.0462 H   0  0  0  0  0  0  0  0  0  0  0  0
  144.7897  132.1423  152.8486 H   0  0  0  0  0  0  0  0  0  0  0  0
  146.4047  131.4964  153.0227 H   0  0  0  0  0  0  0  0  0  0  0  0
  147.3094  133.7562  153.4664 H   0  0  0  0  0  0  0  0  0  0  0  0
  146.0573  133.3563  154.6001 H   0  0  0  0  0  0  0  0  0  0  0  0
  1  2  1  0  0  0  0
  1 26  1  0  0  0  0
  1 27  1  0  0  0  0
  1 28  1  0  0  0  0
  2  3  1  0  0  0  0
  2 29  1  0  0  0  0
  2 30  1  0  0  0  0
  3  4  1  0  0  0  0
  4 19  1  0  0  0  0
  4  5  1  0  0  0  0
  4 31  1  0  0  0  0
  5  6  1  0  0  0  0
  5 32  1  0  0  0  0
  5 33  1  0  0  0  0
  6  7  1  0  0  0  0
  6 19  1  0  0  0  0
  6 34  1  0  0  0  0
  7  8  1  0  0  0  0
  7 35  1  0  0  0  0
  8  9  2  0  0  0  0
  8 10  1  0  0  0  0
 10 11  1  0  0  0  0
 10 36  1  0  0  0  0
 10 37  1  0  0  0  0
 11 17  1  0  0  0  0
 11 12  1  0  0  0  0
 12 13  2  0  0  0  0
 12 38  1  0  0  0  0
 13 14  1  0  0  0  0
 13 39  1  0  0  0  0
 14 15  2  0  0  0  0
 14 16  1  0  0  0  0
 16 25  1  0  0  0  0
 16 17  1  0  0  0  0
 17 18  2  0  0  0  0
 19 24  1  0  0  0  0
 19 20  1  0  0  0  0
 20 21  1  0  0  0  0
 20 40  1  0  0  0  0
 20 41  1  0  0  0  0
 21 22  1  0  0  0  0
 21 42  1  0  0  0  0
 21 43  1  0  0  0  0
 22 23  1  0  0  0  0
 22 44  1  0  0  0  0
 22 45  1  0  0  0  0
 23 24  1  0  0  0  0
 23 46  1  0  0  0  0
 23 47  1  0  0  0  0
 24 48  1  0  0  0  0
 24 49  1  0  0  0  0
M  END
> <s_m_source_file>
AV-unprocessed.smi

> <i_m_source_file_index>
701

> <i_lp_mmshare_version>
43012

> <i_f3d_flags>
0

> <s_epik_input>
W0NIMl0xW0NIMl1bQ0gyXVtDSDJdW0NIMl1DMTJbQ0BIXShPW0NIMl1bQ0gzXSlbQ0gyXVtDQEhdMltOSF1DKD1PKVtDSDJdbjNbY0hdW2NIXWMoPU8pW25IXWMzPU8=

> <s_epik_cmdline>
J2VwaWtfcHl0aG9uJywgJy1waCcsICc3LjAnLCAnLXRuJywgJzgnLCAnLW1hJywgJzIwMCcsICctbWV0YWxfYmluZGluZycsICctaW1hZScsICc8aW5maWxlLm1hZT4nLCAnLW9tYWUnLCAnPG91dGZpbGUubWFlPic=

> <r_lp_tautomer_probability>
0.999537

> <r_epik_Ionization_Penalty>
0.00304597

> <r_epik_Ionization_Penalty_Charging>
0.00304595

> <r_epik_Ionization_Penalty_Neutral>
1.88422e-08

> <r_epik_State_Penalty>
0.00214084

> <r_epik_Charging_Adjusted_Penalty>
0.00518679

> <i_epik_Tot_Q>
0

> <i_epik_Tot_abs_Q>
0

> <r_epik_Metal_State_Penalty>
0.361872

> <b_epik_Metal_Only>
0

> <s_lp_Force_Field>
OPLS_2005

> <r_lp_Energy>
27.3359

> <b_lp_Chiralities_Consistent>
1

> <s_lp_Variant>
AV-unprocessed.smi:701-3

> <Gold.Version>
5.8.1

> <Gold.Id.Protein>
6NUR|6NUR_protein|mol2

> <Gold.PLP.Fitness>
41.1873

> <Gold.PLP.PLP>
-32.1883

> <Gold.PLP.part.hbond>
-3.1255

> <Gold.PLP.part.metal>
0.0000

> <Gold.PLP.part.buried>
-2.1734

> <Gold.PLP.part.nonpolar>
-28.4279

> <Gold.PLP.part.repulsive>
2.5110

> <Gold.PLP.ligand.clash>
0.0000

> <Gold.PLP.ligand.torsion>
0.9409

> <Gold.PLP.Chemscore.Hbond>
2.5187

> <Gold.PLP.Chemscore.CHOScore>
1.0000

> <Gold.PLP.Chemscore.Metal>
0.0000

> <Gold.Chemscore.Hbonds>
donor molecule, donor type, donor heavy atom, donor atom, acceptor molecule, acceptor atom, score
      L1  H     7    35       P1  7948  0.94
      P1  H  7997  8008       L1    15  0.65
      P1  H  8011  8017       L1    18  0.22
      L1  C    12    38       P1  7948  0.84

> <Gold.PLP.Chemscore.Internal.Correction>
0.3246

> <Gold.Rescore>
     Score         DG    S(hbond)    S(metal)    S(lipo)     H(rot)  DE(clash)    DE(int)     intcor
     11.45     -14.13       1.96        0.00      63.82       2.09       0.79       1.89       ----

> <Gold.Chemscore.Fitness>
11.4542

> <Gold.Chemscore.DG>
-14.1343

> <Gold.Chemscore.ZeroCoef>
-5.4800

> <Gold.Chemscore.Hbond>
1.9598

> <Gold.Chemscore.Metal>
0.0000

> <Gold.Chemscore.Lipo>
63.8225

> <Gold.Chemscore.Internal_Hbond>
0.0000

> <Gold.Chemscore.DEClash>
0.7934

> <Gold.Chemscore.DEInternal>
1.8866

> <Gold.Chemscore.Rot>
2.0933

> <Gold.Chemscore.Internal.Correction>
   9.000000E+99

> <Gold.Chemscore.Hbonds>
donor molecule, donor type, donor heavy atom, donor atom, acceptor molecule, acceptor atom, score
      L1  H     7    35       P1  7948  0.90
      P1  H  7997  8008       L1    15  0.65
      P1  H  8011  8017       L1    18  0.14

> <Gold.Chemscore.Hbond.Weighted>
-6.5458

> <Gold.Chemscore.Metal.Weighted>
-0.0000

> <Gold.Chemscore.Lipo.Weighted>
-7.4672

> <Gold.Chemscore.Internal_Hbond.Weighted>
0.0000

> <Gold.Chemscore.DEClash.Weighted>
0.7934

> <Gold.Chemscore.DEInternal.Weighted>
1.8866

> <Gold.Chemscore.Rot.Weighted>
5.3588

> <Gold.Chemscore.Internal.Correction.Weighted>
   9.000000E+99

> <Gold.Protein.RotatedTorsions>
[ 6907 6896 6895 6894 ] final  -50.84 input  -60.11 | X-H torsion
[ 7974 7965 7964 7962 ] final  -69.31 input  175.53 | X-H torsion
[ 8008 7997 7996 7995 ] final  -41.11 input   59.86 | X-H torsion
[ 10167 10162 10161 10158 ] final  -77.21 input  -65.29 | X-H torsion
[ 10718 10713 10712 10709 ] final   30.46 input   66.30 | X-H torsion
[ 10763 10752 10751 10750 ] final   -9.36 input  -60.55 | X-H torsion
[ 11005 11000 10999 10996 ] final -156.98 input  -57.11 | X-H torsion

> <Gold.Protein.ActiveResidues>
 VAL166  LYS551  ARG553  GLY616  TRP617  ASP618  TYR619  PRO620  LYS621  CYS622 
 ASP623  PHE694  ASN695  SER759  ASP760  ASP761  ALA762  ILE779  LEU786  VAL792 
 PHE793  MET794  SER795  GLU796  ALA797  LYS798  CYS799  TRP800  GLU811  SER814 

> <Gold.Protein.RotatedAtoms>
  150.8668  134.8033  159.7124 H   0  0  0  0  0  0  0  0  0  0  0  0  # atno 6907 bound_to 6896
  152.4687  134.5010  159.9734 H   0  0  0  0  0  0  0  0  0  0  0  0  # atno 6908 bound_to 6896
  151.5105  133.3447  159.2920 H   0  0  0  0  0  0  0  0  0  0  0  0  # atno 6909 bound_to 6896
  145.7054  140.9100  143.0709 H   0  0  0  0  0  0  0  0  0  0  0  0  # atno 7974 bound_to 7965
  154.4006  140.1508  156.3137 H   0  0  0  0  0  0  0  0  0  0  0  0  # atno 8008 bound_to 7997
  155.8592  140.3454  155.5724 H   0  0  0  0  0  0  0  0  0  0  0  0  # atno 8009 bound_to 7997
  155.7898  140.0855  157.2005 H   0  0  0  0  0  0  0  0  0  0  0  0  # atno 8010 bound_to 7997
  140.4790  143.2407  151.8087 H   0  0  0  0  0  0  0  0  0  0  0  0  # atno 10167 bound_to 10162
  157.2599  130.7156  149.6448 H   0  0  0  0  0  0  0  0  0  0  0  0  # atno 10718 bound_to 10713
  153.4537  135.7015  153.6093 H   0  0  0  0  0  0  0  0  0  0  0  0  # atno 10763 bound_to 10752
  153.4416  135.3779  155.2232 H   0  0  0  0  0  0  0  0  0  0  0  0  # atno 10764 bound_to 10752
  154.8728  135.3975  154.3953 H   0  0  0  0  0  0  0  0  0  0  0  0  # atno 10765 bound_to 10752
  140.6696  134.4261  157.5232 H   0  0  0  0  0  0  0  0  0  0  0  0  # atno 11005 bound_to 11000
  144.6957  139.9003  143.7458 LP  0  0  0  0  0  0  0  0  0  0  0  0  # atno 17320 bound_to 7965
  146.0761  139.3749  143.0493 LP  0  0  0  0  0  0  0  0  0  0  0  0  # atno 17321 bound_to 7965
  139.4830  144.4796  151.9323 LP  0  0  0  0  0  0  0  0  0  0  0  0  # atno 17342 bound_to 10162
  140.3882  144.2650  150.5902 LP  0  0  0  0  0  0  0  0  0  0  0  0  # atno 17343 bound_to 10162
  155.9664  130.4401  150.5285 LP  0  0  0  0  0  0  0  0  0  0  0  0  # atno 17370 bound_to 10713
  157.3187  131.0677  151.1948 LP  0  0  0  0  0  0  0  0  0  0  0  0  # atno 17371 bound_to 10713
  139.8986  134.8610  156.1996 LP  0  0  0  0  0  0  0  0  0  0  0  0  # atno 17394 bound_to 11000
  141.0402  133.6942  156.1584 LP  0  0  0  0  0  0  0  0  0  0  0  0  # atno 17395 bound_to 11000

$$$$
