AV-unprocessed.smi:2786|AV-procd|sdf|10755|dock1
  -GOLD-   2272015183D 1   1.00000     0.00000
 Structure written by MMmdl.
 26 27  0  0  0  0  0  0  0  0  1 V2000
  151.6275  144.3740  157.4322 C   0  0  0  0  0  0  0  0  0  0  0  0
  151.8304  143.1230  158.1368 N   0  0  0  0  0  0  0  0  0  0  0  0
  152.2915  142.9904  159.4400 C   0  0  0  0  0  0  0  0  0  0  0  0
  152.3434  141.6436  159.7045 C   0  0  0  0  0  0  0  0  0  0  0  0
  151.9220  140.9379  158.5832 N   0  0  0  0  0  0  0  0  0  0  0  0
  151.6205  141.8713  157.6827 C   0  0  0  0  0  0  0  0  0  0  0  0
  151.1342  141.5787  156.2915 C   0  0  1  0  0  0  0  0  0  0  0  0
  151.2988  140.0817  155.9503 C   0  0  0  0  0  0  0  0  0  0  0  0
  150.8321  139.7973  154.5914 N   0  0  0  0  0  0  0  0  0  0  0  0
  149.4378  140.2079  154.4195 C   0  0  0  0  0  0  0  0  0  0  0  0
  149.2687  141.7021  154.7491 C   0  0  0  0  0  0  0  0  0  0  0  0
  149.7360  141.9885  156.1070 N   0  0  0  0  0  0  0  0  0  0  0  0
  152.0011  145.2066  158.0288 H   0  0  0  0  0  0  0  0  0  0  0  0
  150.5638  144.5228  157.2454 H   0  0  0  0  0  0  0  0  0  0  0  0
  152.1620  144.3555  156.4819 H   0  0  0  0  0  0  0  0  0  0  0  0
  152.5413  143.8430  160.0545 H   0  0  0  0  0  0  0  0  0  0  0  0
  152.6506  141.1325  160.6049 H   0  0  0  0  0  0  0  0  0  0  0  0
  151.7473  142.1525  155.5960 H   0  0  0  0  0  0  0  0  0  0  0  0
  152.3460  139.7938  156.0458 H   0  0  0  0  0  0  0  0  0  0  0  0
  150.7442  139.4750  156.6678 H   0  0  0  0  0  0  0  0  0  0  0  0
  150.9155  138.8026  154.4082 H   0  0  0  0  0  0  0  0  0  0  0  0
  149.1171  140.0163  153.3955 H   0  0  0  0  0  0  0  0  0  0  0  0
  148.7912  139.6117  155.0649 H   0  0  0  0  0  0  0  0  0  0  0  0
  149.8238  142.3046  154.0287 H   0  0  0  0  0  0  0  0  0  0  0  0
  148.2210  141.9862  154.6503 H   0  0  0  0  0  0  0  0  0  0  0  0
  149.6522  142.9834  156.2889 H   0  0  0  0  0  0  0  0  0  0  0  0
  1  2  1  0  0  0  0
  1 13  1  0  0  0  0
  1 14  1  0  0  0  0
  1 15  1  0  0  0  0
  2  6  1  0  0  0  0
  2  3  1  0  0  0  0
  3  4  2  0  0  0  0
  3 16  1  0  0  0  0
  4  5  1  0  0  0  0
  4 17  1  0  0  0  0
  5  6  2  0  0  0  0
  6  7  1  0  0  0  0
  7 12  1  0  0  0  0
  7  8  1  0  0  0  0
  7 18  1  0  0  0  0
  8  9  1  0  0  0  0
  8 19  1  0  0  0  0
  8 20  1  0  0  0  0
  9 10  1  0  0  0  0
  9 21  1  0  0  0  0
 10 11  1  0  0  0  0
 10 22  1  0  0  0  0
 10 23  1  0  0  0  0
 11 12  1  0  0  0  0
 11 24  1  0  0  0  0
 11 25  1  0  0  0  0
 12 26  1  0  0  0  0
M  END
> <s_m_source_file>
AV-unprocessed.smi

> <i_m_source_file_index>
2786

> <i_lp_mmshare_version>
43012

> <i_f3d_flags>
0

> <s_epik_input>
W0NIM11uMVtjSF1bY0hdbmMxW0NAQEhdMltDSDJdW05IXVtDSDJdW0NIMl1bTkhdMg==

> <s_epik_cmdline>
J2VwaWtfcHl0aG9uJywgJy1waCcsICc3LjAnLCAnLXRuJywgJzgnLCAnLW1hJywgJzIwMCcsICctbWV0YWxfYmluZGluZycsICctaW1hZScsICc8aW5maWxlLm1hZT4nLCAnLW9tYWUnLCAnPG91dGZpbGUubWFlPic=

> <r_lp_tautomer_probability>
1

> <r_epik_Ionization_Penalty>
3.5722

> <r_epik_Ionization_Penalty_Charging>
1.66148

> <r_epik_Ionization_Penalty_Neutral>
1.91072

> <r_epik_State_Penalty>
2.63328

> <r_epik_Charging_Adjusted_Penalty>
4.29476

> <i_epik_Tot_Q>
0

> <i_epik_Tot_abs_Q>
0

> <r_epik_Metal_State_Penalty>
0.942173

> <b_epik_Metal_Only>
0

> <s_lp_Force_Field>
OPLS_2005

> <r_lp_Energy>
22.0451

> <b_lp_Chiralities_Consistent>
1

> <s_lp_Variant>
AV-unprocessed.smi:2786-8

> <Gold.Version>
5.8.1

> <Gold.Id.Protein>
6NUR|6NUR_protein|mol2

> <Gold.PLP.Fitness>
33.9046

> <Gold.PLP.PLP>
-28.5207

> <Gold.PLP.part.hbond>
-2.0000

> <Gold.PLP.part.metal>
0.0000

> <Gold.PLP.part.buried>
-1.9212

> <Gold.PLP.part.nonpolar>
-23.2488

> <Gold.PLP.part.repulsive>
0.0000

> <Gold.PLP.ligand.clash>
0.0000

> <Gold.PLP.ligand.torsion>
0.2076

> <Gold.PLP.Chemscore.Hbond>
1.9280

> <Gold.PLP.Chemscore.CHOScore>
0.0000

> <Gold.PLP.Chemscore.Metal>
0.0000

> <Gold.Chemscore.Hbonds>
donor molecule, donor type, donor heavy atom, donor atom, acceptor molecule, acceptor atom, score
      L1  H    12    26       P1  8028  0.91
      P1  H  7989  7998       L1     9  1.00

> <Gold.PLP.Chemscore.Internal.Correction>
0.0151

> <Gold.Rescore>
     Score         DG    S(hbond)    S(metal)    S(lipo)     H(rot)  DE(clash)    DE(int)     intcor
     14.08     -14.31       1.21        0.00      62.78       1.00       0.01       0.22       ----

> <Gold.Chemscore.Fitness>
14.0772

> <Gold.Chemscore.DG>
-14.3099

> <Gold.Chemscore.ZeroCoef>
-5.4800

> <Gold.Chemscore.Hbond>
1.2110

> <Gold.Chemscore.Metal>
0.0000

> <Gold.Chemscore.Lipo>
62.7800

> <Gold.Chemscore.Internal_Hbond>
0.0000

> <Gold.Chemscore.DEClash>
0.0148

> <Gold.Chemscore.DEInternal>
0.2179

> <Gold.Chemscore.Rot>
1.0000

> <Gold.Chemscore.Internal.Correction>
   9.000000E+99

> <Gold.Chemscore.Hbonds>
donor molecule, donor type, donor heavy atom, donor atom, acceptor molecule, acceptor atom, score
      L1  H    12    26       P1  8028  0.86
      P1  H  7989  7998       L1     9  0.20

> <Gold.Chemscore.Hbond.Weighted>
-4.0447

> <Gold.Chemscore.Metal.Weighted>
-0.0000

> <Gold.Chemscore.Lipo.Weighted>
-7.3453

> <Gold.Chemscore.Internal_Hbond.Weighted>
0.0000

> <Gold.Chemscore.DEClash.Weighted>
0.0148

> <Gold.Chemscore.DEInternal.Weighted>
0.2179

> <Gold.Chemscore.Rot.Weighted>
2.5600

> <Gold.Chemscore.Internal.Correction.Weighted>
   9.000000E+99

> <Gold.Protein.RotatedTorsions>
[ 6907 6896 6895 6894 ] final  -24.03 input  -60.11 | X-H torsion
[ 7974 7965 7964 7962 ] final  -85.51 input  175.53 | X-H torsion
[ 8008 7997 7996 7995 ] final -144.58 input   59.86 | X-H torsion
[ 10167 10162 10161 10158 ] final   79.81 input  -65.29 | X-H torsion
[ 10718 10713 10712 10709 ] final  -17.73 input   66.30 | X-H torsion
[ 10763 10752 10751 10750 ] final   34.14 input  -60.55 | X-H torsion
[ 11005 11000 10999 10996 ] final -167.56 input  -57.11 | X-H torsion

> <Gold.Protein.ActiveResidues>
 VAL166  LYS551  ARG553  GLY616  TRP617  ASP618  TYR619  PRO620  LYS621  CYS622 
 ASP623  PHE694  ASN695  SER759  ASP760  ASP761  ALA762  ILE779  LEU786  VAL792 
 PHE793  MET794  SER795  GLU796  ALA797  LYS798  CYS799  TRP800  GLU811  SER814 

> <Gold.Protein.RotatedAtoms>
  151.1954  135.0420  159.8849 H   0  0  0  0  0  0  0  0  0  0  0  0  # atno 6907 bound_to 6896
  152.5436  134.0910  159.8287 H   0  0  0  0  0  0  0  0  0  0  0  0  # atno 6908 bound_to 6896
  151.1044  133.5172  159.2640 H   0  0  0  0  0  0  0  0  0  0  0  0  # atno 6909 bound_to 6896
  145.4923  140.9552  143.1805 H   0  0  0  0  0  0  0  0  0  0  0  0  # atno 7974 bound_to 7965
  155.5293  140.0598  157.2892 H   0  0  0  0  0  0  0  0  0  0  0  0  # atno 8008 bound_to 7997
  154.4490  140.1939  156.0522 H   0  0  0  0  0  0  0  0  0  0  0  0  # atno 8009 bound_to 7997
  156.0664  140.3266  155.7526 H   0  0  0  0  0  0  0  0  0  0  0  0  # atno 8010 bound_to 7997
  139.9564  144.5991  150.8113 H   0  0  0  0  0  0  0  0  0  0  0  0  # atno 10167 bound_to 10162
  156.5695  130.4746  149.6369 H   0  0  0  0  0  0  0  0  0  0  0  0  # atno 10718 bound_to 10713
  153.0178  135.6368  154.1622 H   0  0  0  0  0  0  0  0  0  0  0  0  # atno 10763 bound_to 10752
  154.1359  135.2837  155.3175 H   0  0  0  0  0  0  0  0  0  0  0  0  # atno 10764 bound_to 10752
  154.6160  135.5540  153.7585 H   0  0  0  0  0  0  0  0  0  0  0  0  # atno 10765 bound_to 10752
  140.5519  134.5419  157.5124 H   0  0  0  0  0  0  0  0  0  0  0  0  # atno 11005 bound_to 11000
  144.7827  139.6492  143.7147 LP  0  0  0  0  0  0  0  0  0  0  0  0  # atno 17320 bound_to 7965
  146.2277  139.5753  142.9576 LP  0  0  0  0  0  0  0  0  0  0  0  0  # atno 17321 bound_to 7965
  140.7567  143.3071  151.2935 LP  0  0  0  0  0  0  0  0  0  0  0  0  # atno 17342 bound_to 10162
  139.6588  144.0227  152.2678 LP  0  0  0  0  0  0  0  0  0  0  0  0  # atno 17343 bound_to 10162
  156.2727  130.7026  151.1828 LP  0  0  0  0  0  0  0  0  0  0  0  0  # atno 17370 bound_to 10713
  157.7351  131.0575  150.5487 LP  0  0  0  0  0  0  0  0  0  0  0  0  # atno 17371 bound_to 10713
  139.9451  134.7717  156.0583 LP  0  0  0  0  0  0  0  0  0  0  0  0  # atno 17394 bound_to 11000
  141.1166  133.6626  156.3110 LP  0  0  0  0  0  0  0  0  0  0  0  0  # atno 17395 bound_to 11000

$$$$
