AV-unprocessed.smi:2724|AV-procd|sdf|10508|dock10
  -GOLD-   2272014553D 1   1.00000     0.00000
 Structure written by MMmdl.
 25 26  0  0  0  0  0  0  0  0  1 V2000
  149.3083  142.9144  159.1575 O   0  0  0  0  0  0  0  0  0  0  0  0
  150.1651  144.0039  158.8759 C   0  0  1  0  0  0  0  0  0  0  0  0
  151.0881  144.3442  160.0460 C   0  0  0  0  0  0  0  0  0  0  0  0
  152.1947  145.1674  159.3912 C   0  0  0  0  0  0  0  0  0  0  0  0
  152.4313  144.4827  158.0413 C   0  0  0  0  0  0  0  0  0  0  0  0
  151.0908  143.8237  157.6485 C   0  0  1  0  0  0  0  0  0  0  0  0
  151.2625  142.3846  157.1655 C   0  0  0  0  0  0  0  0  0  0  0  0
  151.8731  141.3986  157.9724 C   0  0  0  0  0  0  0  0  0  0  0  0
  151.9985  140.0883  157.4731 C   0  0  0  0  0  0  0  0  0  0  0  0
  151.5087  139.8143  156.1811 C   0  0  0  0  0  0  0  0  0  0  0  0
  150.9256  140.7460  155.3971 N   0  0  0  0  0  0  0  0  0  0  0  0
  150.8086  141.9998  155.8847 C   0  0  0  0  0  0  0  0  0  0  0  0
  149.0368  142.5272  158.3393 H   0  0  0  0  0  0  0  0  0  0  0  0
  149.5327  144.8744  158.6954 H   0  0  0  0  0  0  0  0  0  0  0  0
  150.5762  144.8838  160.8435 H   0  0  0  0  0  0  0  0  0  0  0  0
  151.5114  143.4350  160.4755 H   0  0  0  0  0  0  0  0  0  0  0  0
  151.8448  146.1880  159.2305 H   0  0  0  0  0  0  0  0  0  0  0  0
  153.0980  145.2171  159.9997 H   0  0  0  0  0  0  0  0  0  0  0  0
  152.7858  145.1800  157.2815 H   0  0  0  0  0  0  0  0  0  0  0  0
  153.2119  143.7318  158.1675 H   0  0  0  0  0  0  0  0  0  0  0  0
  150.6557  144.3948  156.8267 H   0  0  0  0  0  0  0  0  0  0  0  0
  152.2380  141.6388  158.9601 H   0  0  0  0  0  0  0  0  0  0  0  0
  152.4578  139.3118  158.0666 H   0  0  0  0  0  0  0  0  0  0  0  0
  151.5877  138.8203  155.7663 H   0  0  0  0  0  0  0  0  0  0  0  0
  150.3370  142.7167  155.2289 H   0  0  0  0  0  0  0  0  0  0  0  0
  1  2  1  0  0  0  0
  1 13  1  0  0  0  0
  2  6  1  0  0  0  0
  2  3  1  0  0  0  0
  2 14  1  0  0  0  0
  3  4  1  0  0  0  0
  3 15  1  0  0  0  0
  3 16  1  0  0  0  0
  4  5  1  0  0  0  0
  4 17  1  0  0  0  0
  4 18  1  0  0  0  0
  5  6  1  0  0  0  0
  5 19  1  0  0  0  0
  5 20  1  0  0  0  0
  6  7  1  0  0  0  0
  6 21  1  0  0  0  0
  7 12  1  0  0  0  0
  7  8  2  0  0  0  0
  8  9  1  0  0  0  0
  8 22  1  0  0  0  0
  9 10  2  0  0  0  0
  9 23  1  0  0  0  0
 10 11  1  0  0  0  0
 10 24  1  0  0  0  0
 11 12  2  0  0  0  0
 12 25  1  0  0  0  0
M  END
> <s_m_source_file>
AV-unprocessed.smi

> <i_m_source_file_index>
2724

> <i_lp_mmshare_version>
43012

> <i_f3d_flags>
0

> <s_epik_input>
W09IXVtDQEBIXTFbQ0gyXVtDSDJdW0NIMl1bQ0BIXTFjMltjSF1bY0hdW2NIXW5bY0hdMg==

> <s_epik_cmdline>
J2VwaWtfcHl0aG9uJywgJy1waCcsICc3LjAnLCAnLXRuJywgJzgnLCAnLW1hJywgJzIwMCcsICctbWV0YWxfYmluZGluZycsICctaW1hZScsICc8aW5maWxlLm1hZT4nLCAnLW9tYWUnLCAnPG91dGZpbGUubWFlPic=

> <r_epik_Ionization_Penalty>
0.0175299

> <r_epik_Ionization_Penalty_Charging>
0

> <r_epik_Ionization_Penalty_Neutral>
0.0175299

> <r_epik_State_Penalty>
0.0138989

> <r_epik_Charging_Adjusted_Penalty>
0.0138989

> <i_epik_Tot_Q>
0

> <i_epik_Tot_abs_Q>
0

> <r_epik_Metal_State_Penalty>
1.40631e-05

> <b_epik_Metal_Only>
0

> <s_lp_Force_Field>
OPLS_2005

> <r_lp_Energy>
23.8775

> <b_lp_Chiralities_Consistent>
1

> <s_lp_Variant>
AV-unprocessed.smi:2724-2

> <Gold.Version>
5.8.1

> <Gold.Id.Protein>
6NUR|6NUR_protein|mol2

> <Gold.PLP.Fitness>
34.2217

> <Gold.PLP.PLP>
-28.8036

> <Gold.PLP.part.hbond>
-2.0000

> <Gold.PLP.part.metal>
0.0000

> <Gold.PLP.part.buried>
-2.4519

> <Gold.PLP.part.nonpolar>
-23.3985

> <Gold.PLP.part.repulsive>
0.0508

> <Gold.PLP.ligand.clash>
0.0000

> <Gold.PLP.ligand.torsion>
0.0237

> <Gold.PLP.Chemscore.Hbond>
0.8213

> <Gold.PLP.Chemscore.CHOScore>
1.0000

> <Gold.PLP.Chemscore.Metal>
0.0000

> <Gold.Chemscore.Hbonds>
donor molecule, donor type, donor heavy atom, donor atom, acceptor molecule, acceptor atom, score
      P1  H  7989  7998       L1    11  0.83
      L1  C    12    25       P1  8028  1.00

> <Gold.PLP.Chemscore.Internal.Correction>
0.0015

> <Gold.Rescore>
     Score         DG    S(hbond)    S(metal)    S(lipo)     H(rot)  DE(clash)    DE(int)     intcor
     14.85     -15.20       0.61        0.00      94.45       1.32       0.35       0.01       ----

> <Gold.Chemscore.Fitness>
14.8491

> <Gold.Chemscore.DG>
-15.2013

> <Gold.Chemscore.ZeroCoef>
-5.4800

> <Gold.Chemscore.Hbond>
0.6131

> <Gold.Chemscore.Metal>
0.0000

> <Gold.Chemscore.Lipo>
94.4503

> <Gold.Chemscore.Internal_Hbond>
0.0000

> <Gold.Chemscore.DEClash>
0.3466

> <Gold.Chemscore.DEInternal>
0.0056

> <Gold.Chemscore.Rot>
1.3192

> <Gold.Chemscore.Internal.Correction>
   9.000000E+99

> <Gold.Chemscore.Hbonds>
donor molecule, donor type, donor heavy atom, donor atom, acceptor molecule, acceptor atom, score
      P1  H  6933  6944       L1     1  0.01
      P1  H  7989  7998       L1    11  0.44

> <Gold.Chemscore.Hbond.Weighted>
-2.0477

> <Gold.Chemscore.Metal.Weighted>
-0.0000

> <Gold.Chemscore.Lipo.Weighted>
-11.0507

> <Gold.Chemscore.Internal_Hbond.Weighted>
0.0000

> <Gold.Chemscore.DEClash.Weighted>
0.3466

> <Gold.Chemscore.DEInternal.Weighted>
0.0056

> <Gold.Chemscore.Rot.Weighted>
3.3772

> <Gold.Chemscore.Internal.Correction.Weighted>
   9.000000E+99

> <Gold.Protein.RotatedTorsions>
[ 6907 6896 6895 6894 ] final  149.84 input  -60.11 | X-H torsion
[ 7974 7965 7964 7962 ] final -111.16 input  175.53 | X-H torsion
[ 8008 7997 7996 7995 ] final  -50.33 input   59.86 | X-H torsion
[ 10167 10162 10161 10158 ] final   44.89 input  -65.29 | X-H torsion
[ 10718 10713 10712 10709 ] final   79.08 input   66.30 | X-H torsion
[ 10763 10752 10751 10750 ] final  -35.15 input  -60.55 | X-H torsion
[ 11005 11000 10999 10996 ] final   -8.95 input  -57.11 | X-H torsion

> <Gold.Protein.ActiveResidues>
 VAL166  LYS551  ARG553  GLY616  TRP617  ASP618  TYR619  PRO620  LYS621  CYS622 
 ASP623  PHE694  ASN695  SER759  ASP760  ASP761  ALA762  ILE779  LEU786  VAL792 
 PHE793  MET794  SER795  GLU796  ALA797  LYS798  CYS799  TRP800  GLU811  SER814 

> <Gold.Protein.RotatedAtoms>
  152.1225  133.4361  159.4681 H   0  0  0  0  0  0  0  0  0  0  0  0  # atno 6907 bound_to 6896
  150.6873  134.2518  159.4523 H   0  0  0  0  0  0  0  0  0  0  0  0  # atno 6908 bound_to 6896
  152.0395  134.9719  160.0624 H   0  0  0  0  0  0  0  0  0  0  0  0  # atno 6909 bound_to 6896
  145.1594  140.8871  143.3599 H   0  0  0  0  0  0  0  0  0  0  0  0  # atno 7974 bound_to 7965
  154.4060  140.1275  156.4648 H   0  0  0  0  0  0  0  0  0  0  0  0  # atno 8008 bound_to 7997
  155.7237  140.3492  155.5008 H   0  0  0  0  0  0  0  0  0  0  0  0  # atno 8009 bound_to 7997
  155.9191  140.1049  157.1211 H   0  0  0  0  0  0  0  0  0  0  0  0  # atno 8010 bound_to 7997
  140.3297  144.2603  150.6170 H   0  0  0  0  0  0  0  0  0  0  0  0  # atno 10167 bound_to 10162
  157.6765  130.9898  150.1880 H   0  0  0  0  0  0  0  0  0  0  0  0  # atno 10718 bound_to 10713
  153.8585  135.6842  153.4785 H   0  0  0  0  0  0  0  0  0  0  0  0  # atno 10763 bound_to 10752
  153.1356  135.4679  154.9414 H   0  0  0  0  0  0  0  0  0  0  0  0  # atno 10764 bound_to 10752
  154.7770  135.3256  154.8021 H   0  0  0  0  0  0  0  0  0  0  0  0  # atno 10765 bound_to 10752
  140.7289  133.8765  155.8878 H   0  0  0  0  0  0  0  0  0  0  0  0  # atno 11005 bound_to 11000
  145.0346  139.3311  143.6007 LP  0  0  0  0  0  0  0  0  0  0  0  0  # atno 17320 bound_to 7965
  146.3484  139.9697  142.8707 LP  0  0  0  0  0  0  0  0  0  0  0  0  # atno 17321 bound_to 7965
  140.5408  143.2224  151.8088 LP  0  0  0  0  0  0  0  0  0  0  0  0  # atno 17342 bound_to 10162
  139.4858  144.4602  151.9549 LP  0  0  0  0  0  0  0  0  0  0  0  0  # atno 17343 bound_to 10162
  156.2598  130.3709  149.8143 LP  0  0  0  0  0  0  0  0  0  0  0  0  # atno 17370 bound_to 10713
  156.5892  130.8499  151.3403 LP  0  0  0  0  0  0  0  0  0  0  0  0  # atno 17371 bound_to 10713
  140.9938  134.1243  157.4383 LP  0  0  0  0  0  0  0  0  0  0  0  0  # atno 17394 bound_to 11000
  139.8831  135.0048  156.6274 LP  0  0  0  0  0  0  0  0  0  0  0  0  # atno 17395 bound_to 11000

$$$$
