AV-unprocessed.smi:2881|AV-procd|sdf|11055|dock8
  -GOLD-   2272015523D 1   1.00000     0.00000
 Structure written by MMmdl.
 40 42  0  0  0  0  0  0  0  0  1 V2000
  143.9772  132.3382  150.9486 C   0  0  0  0  0  0  0  0  0  0  0  0
  143.9281  133.6308  151.6898 C   0  0  0  0  0  0  0  0  0  0  0  0
  144.1188  134.9188  151.2759 C   0  0  0  0  0  0  0  0  0  0  0  0
  143.9366  135.7006  152.4560 C   0  0  0  0  0  0  0  0  0  0  0  0
  144.0354  137.1954  152.6052 C   0  0  0  0  0  0  0  0  0  0  0  0
  145.1346  137.5575  153.6044 C   0  0  0  0  0  0  0  0  0  0  0  0
  145.6796  136.6744  154.2660 O   0  0  0  0  0  0  0  0  0  0  0  0
  145.4488  138.8589  153.7005 N   0  0  0  0  0  0  0  0  0  0  0  0
  146.4854  139.4183  154.5646 C   0  0  2  0  0  0  0  0  0  0  0  0
  146.2439  140.9274  154.7899 C   0  0  1  0  0  0  0  0  0  0  0  0
  147.0966  141.3924  155.9842 C   0  0  0  0  0  0  0  0  0  0  0  0
  148.5230  141.3693  155.4035 C   0  0  0  0  0  0  0  0  0  0  0  0
  148.2990  140.8870  153.9537 C   0  0  2  0  0  0  0  0  0  0  0  0
  146.9800  141.5712  153.6181 C   0  0  0  0  0  0  0  0  0  0  0  0
  147.8860  139.3965  153.8980 C   0  0  1  0  0  0  0  0  0  0  0  0
  148.8940  138.4197  154.5342 C   0  0  0  0  0  0  0  0  0  0  0  0
  150.0163  138.2604  153.6937 O   0  0  0  0  0  0  0  0  0  0  0  0
  143.6618  134.9536  153.5164 N   0  0  0  0  0  0  0  0  0  0  0  0
  143.6568  133.6965  153.0367 N   0  0  0  0  0  0  0  0  0  0  0  0
  143.4709  132.9029  153.6335 H   0  0  0  0  0  0  0  0  0  0  0  0
  144.0098  132.5078  149.8723 H   0  0  0  0  0  0  0  0  0  0  0  0
  143.0986  131.7306  151.1672 H   0  0  0  0  0  0  0  0  0  0  0  0
  144.8628  131.7663  151.2269 H   0  0  0  0  0  0  0  0  0  0  0  0
  144.3523  135.2565  150.2769 H   0  0  0  0  0  0  0  0  0  0  0  0
  144.2573  137.6712  151.6487 H   0  0  0  0  0  0  0  0  0  0  0  0
  143.0811  137.6056  152.9383 H   0  0  0  0  0  0  0  0  0  0  0  0
  144.9427  139.5111  153.1192 H   0  0  0  0  0  0  0  0  0  0  0  0
  146.4852  138.8976  155.5243 H   0  0  0  0  0  0  0  0  0  0  0  0
  145.1919  141.2009  154.8825 H   0  0  0  0  0  0  0  0  0  0  0  0
  146.8233  142.4040  156.2868 H   0  0  0  0  0  0  0  0  0  0  0  0
  146.9886  140.7435  156.8541 H   0  0  0  0  0  0  0  0  0  0  0  0
  148.9467  142.3745  155.4082 H   0  0  0  0  0  0  0  0  0  0  0  0
  149.1996  140.7319  155.9715 H   0  0  0  0  0  0  0  0  0  0  0  0
  149.1212  141.1341  153.2816 H   0  0  0  0  0  0  0  0  0  0  0  0
  146.5783  141.2882  152.6436 H   0  0  0  0  0  0  0  0  0  0  0  0
  147.0265  142.6599  153.6811 H   0  0  0  0  0  0  0  0  0  0  0  0
  147.7880  139.1357  152.8419 H   0  0  0  0  0  0  0  0  0  0  0  0
  149.2382  138.8028  155.4950 H   0  0  0  0  0  0  0  0  0  0  0  0
  148.4475  137.4416  154.7131 H   0  0  0  0  0  0  0  0  0  0  0  0
  149.9560  138.8855  152.9875 H   0  0  0  0  0  0  0  0  0  0  0  0
  1  2  1  0  0  0  0
  1 21  1  0  0  0  0
  1 22  1  0  0  0  0
  1 23  1  0  0  0  0
  2 19  1  0  0  0  0
  2  3  2  0  0  0  0
  3  4  1  0  0  0  0
  3 24  1  0  0  0  0
  4  5  1  0  0  0  0
  4 18  2  0  0  0  0
  5  6  1  0  0  0  0
  5 25  1  0  0  0  0
  5 26  1  0  0  0  0
  6  7  2  0  0  0  0
  6  8  1  0  0  0  0
  8  9  1  0  0  0  0
  8 27  1  0  0  0  0
  9 15  1  0  0  0  0
  9 10  1  0  0  0  0
  9 28  1  0  0  0  0
 10 14  1  0  0  0  0
 10 11  1  0  0  0  0
 10 29  1  0  0  0  0
 11 12  1  0  0  0  0
 11 30  1  0  0  0  0
 11 31  1  0  0  0  0
 12 13  1  0  0  0  0
 12 32  1  0  0  0  0
 12 33  1  0  0  0  0
 13 14  1  0  0  0  0
 13 15  1  0  0  0  0
 13 34  1  0  0  0  0
 14 35  1  0  0  0  0
 14 36  1  0  0  0  0
 15 16  1  0  0  0  0
 15 37  1  0  0  0  0
 16 17  1  0  0  0  0
 16 38  1  0  0  0  0
 16 39  1  0  0  0  0
 17 40  1  0  0  0  0
 18 19  1  0  0  0  0
 19 20  1  0  0  0  0
M  END
> <s_m_source_file>
AV-unprocessed.smi

> <i_m_source_file_index>
2881

> <i_lp_mmshare_version>
43012

> <i_f3d_flags>
0

> <s_epik_input>
W0NIM11jMVtjSF1jKG5bbkhdMSlbQ0gyXUMoPU8pW05IXVtDQEhdKFtDQEBIXTIzKVtDQEhdKFtDSDJdW09IXSlbQ0BASF0oW0NIMl0zKVtDSDJdW0NIMl0y

> <s_epik_cmdline>
J2VwaWtfcHl0aG9uJywgJy1waCcsICc3LjAnLCAnLXRuJywgJzgnLCAnLW1hJywgJzIwMCcsICctbWV0YWxfYmluZGluZycsICctaW1hZScsICc8aW5maWxlLm1hZT4nLCAnLW9tYWUnLCAnPG91dGZpbGUubWFlPic=

> <r_lp_tautomer_probability>
0.5

> <r_epik_Ionization_Penalty>
9.4349e-05

> <r_epik_Ionization_Penalty_Charging>
0

> <r_epik_Ionization_Penalty_Neutral>
9.4349e-05

> <r_epik_State_Penalty>
0.41068

> <r_epik_Charging_Adjusted_Penalty>
0.41068

> <i_epik_Tot_Q>
0

> <i_epik_Tot_abs_Q>
0

> <r_epik_Metal_State_Penalty>
0.4107

> <b_epik_Metal_Only>
0

> <s_lp_Force_Field>
OPLS_2005

> <r_lp_Energy>
47.7549

> <b_lp_Chiralities_Consistent>
1

> <s_lp_Variant>
AV-unprocessed.smi:2881-1

> <Gold.Version>
5.8.1

> <Gold.Id.Protein>
6NUR|6NUR_protein|mol2

> <Gold.PLP.Fitness>
37.6425

> <Gold.PLP.PLP>
-29.5698

> <Gold.PLP.part.hbond>
-4.0315

> <Gold.PLP.part.metal>
0.0000

> <Gold.PLP.part.buried>
-3.4400

> <Gold.PLP.part.nonpolar>
-22.1051

> <Gold.PLP.part.repulsive>
0.1542

> <Gold.PLP.ligand.clash>
0.0000

> <Gold.PLP.ligand.torsion>
0.4781

> <Gold.PLP.Chemscore.Hbond>
3.0000

> <Gold.PLP.Chemscore.CHOScore>
0.0000

> <Gold.PLP.Chemscore.Metal>
0.0000

> <Gold.Chemscore.Hbonds>
donor molecule, donor type, donor heavy atom, donor atom, acceptor molecule, acceptor atom, score
      L1  H     8    27       P1 10175  1.00
      L1  H    17    40       P1  7957  0.63
      L1  H    19    20       P1 10957  1.00

> <Gold.PLP.Chemscore.Internal.Correction>
0.0289

> <Gold.Rescore>
     Score         DG    S(hbond)    S(metal)    S(lipo)     H(rot)  DE(clash)    DE(int)     intcor
     15.50     -17.54       2.93        0.00      69.18       2.28       0.25       1.80       ----

> <Gold.Chemscore.Fitness>
15.4970

> <Gold.Chemscore.DG>
-17.5428

> <Gold.Chemscore.ZeroCoef>
-5.4800

> <Gold.Chemscore.Hbond>
2.9323

> <Gold.Chemscore.Metal>
0.0000

> <Gold.Chemscore.Lipo>
69.1801

> <Gold.Chemscore.Internal_Hbond>
0.0000

> <Gold.Chemscore.DEClash>
0.2460

> <Gold.Chemscore.DEInternal>
1.7998

> <Gold.Chemscore.Rot>
2.2755

> <Gold.Chemscore.Internal.Correction>
   9.000000E+99

> <Gold.Chemscore.Hbonds>
donor molecule, donor type, donor heavy atom, donor atom, acceptor molecule, acceptor atom, score
      L1  H     8    27       P1 10175  1.00
      L1  H    17    40       P1  7957  0.53
      L1  H    19    20       P1 10957  0.88

> <Gold.Chemscore.Hbond.Weighted>
-9.7940

> <Gold.Chemscore.Metal.Weighted>
-0.0000

> <Gold.Chemscore.Lipo.Weighted>
-8.0941

> <Gold.Chemscore.Internal_Hbond.Weighted>
0.0000

> <Gold.Chemscore.DEClash.Weighted>
0.2460

> <Gold.Chemscore.DEInternal.Weighted>
1.7998

> <Gold.Chemscore.Rot.Weighted>
5.8252

> <Gold.Chemscore.Internal.Correction.Weighted>
   9.000000E+99

> <Gold.Protein.RotatedTorsions>
[ 6907 6896 6895 6894 ] final  108.33 input  -60.11 | X-H torsion
[ 7974 7965 7964 7962 ] final   76.96 input  175.53 | X-H torsion
[ 8008 7997 7996 7995 ] final  -42.87 input   59.86 | X-H torsion
[ 10167 10162 10161 10158 ] final  -68.59 input  -65.29 | X-H torsion
[ 10718 10713 10712 10709 ] final -168.96 input   66.30 | X-H torsion
[ 10763 10752 10751 10750 ] final -137.06 input  -60.55 | X-H torsion
[ 11005 11000 10999 10996 ] final  111.83 input  -57.11 | X-H torsion

> <Gold.Protein.ActiveResidues>
 VAL166  LYS551  ARG553  GLY616  TRP617  ASP618  TYR619  PRO620  LYS621  CYS622 
 ASP623  PHE694  ASN695  SER759  ASP760  ASP761  ALA762  ILE779  LEU786  VAL792 
 PHE793  MET794  SER795  GLU796  ALA797  LYS798  CYS799  TRP800  GLU811  SER814 

> <Gold.Protein.RotatedAtoms>
  152.5117  133.9104  159.7484 H   0  0  0  0  0  0  0  0  0  0  0  0  # atno 6907 bound_to 6896
  150.9499  133.6552  159.2781 H   0  0  0  0  0  0  0  0  0  0  0  0  # atno 6908 bound_to 6896
  151.3834  135.0949  159.9556 H   0  0  0  0  0  0  0  0  0  0  0  0  # atno 6909 bound_to 6896
  145.6961  139.2567  143.1732 H   0  0  0  0  0  0  0  0  0  0  0  0  # atno 7974 bound_to 7965
  154.3998  140.1462  156.3425 H   0  0  0  0  0  0  0  0  0  0  0  0  # atno 8008 bound_to 7997
  155.8343  140.3464  155.5571 H   0  0  0  0  0  0  0  0  0  0  0  0  # atno 8009 bound_to 7997
  155.8155  140.0890  157.1870 H   0  0  0  0  0  0  0  0  0  0  0  0  # atno 8010 bound_to 7997
  140.5496  143.2312  151.6937 H   0  0  0  0  0  0  0  0  0  0  0  0  # atno 10167 bound_to 10162
  156.7046  130.9210  151.3083 H   0  0  0  0  0  0  0  0  0  0  0  0  # atno 10718 bound_to 10713
  154.8670  135.3653  154.5161 H   0  0  0  0  0  0  0  0  0  0  0  0  # atno 10763 bound_to 10752
  153.5794  135.7018  153.5475 H   0  0  0  0  0  0  0  0  0  0  0  0  # atno 10764 bound_to 10752
  153.3471  135.4082  155.1579 H   0  0  0  0  0  0  0  0  0  0  0  0  # atno 10765 bound_to 10752
  139.8913  134.9516  156.6492 H   0  0  0  0  0  0  0  0  0  0  0  0  # atno 11005 bound_to 11000
  146.0839  140.7733  142.9628 LP  0  0  0  0  0  0  0  0  0  0  0  0  # atno 17320 bound_to 7965
  144.6982  140.3532  143.7178 LP  0  0  0  0  0  0  0  0  0  0  0  0  # atno 17321 bound_to 7965
  139.5021  144.3840  152.0348 LP  0  0  0  0  0  0  0  0  0  0  0  0  # atno 17342 bound_to 10162
  140.2955  144.3705  150.6075 LP  0  0  0  0  0  0  0  0  0  0  0  0  # atno 17343 bound_to 10162
  157.6960  130.9282  150.0645 LP  0  0  0  0  0  0  0  0  0  0  0  0  # atno 17370 bound_to 10713
  156.1704  130.3646  149.9173 LP  0  0  0  0  0  0  0  0  0  0  0  0  # atno 17371 bound_to 10713
  140.7534  133.8878  155.8364 LP  0  0  0  0  0  0  0  0  0  0  0  0  # atno 17394 bound_to 11000
  140.9982  134.1186  157.4343 LP  0  0  0  0  0  0  0  0  0  0  0  0  # atno 17395 bound_to 11000

$$$$
