AV-unprocessed.smi:748|AV-procd|sdf|3582|dock5
  -GOLD-   22720 0573D 1   1.00000     0.00000
 Structure written by MMmdl.
 50 51  0  0  0  0  0  0  0  0  1 V2000
  144.9169  133.5083  153.6702 C   0  0  0  0  0  0  0  0  0  0  0  0
  145.4435  134.0391  152.3268 C   0  0  0  0  0  0  0  0  0  0  0  0
  146.4171  133.0499  151.6721 C   0  0  0  0  0  0  0  0  0  0  0  0
  146.1091  135.3263  152.5059 N   0  0  0  0  0  0  0  0  0  0  0  0
  145.6018  136.3823  153.1615 C   0  0  0  0  0  0  0  0  0  0  0  0
  144.4937  136.3780  153.6975 O   0  0  0  0  0  0  0  0  0  0  0  0
  146.4781  137.6357  153.2165 C   0  0  0  0  0  0  0  0  0  0  0  0
  146.4531  138.3055  154.6026 C   0  0  0  0  0  0  0  0  0  0  0  0
  147.7999  138.6327  155.0549 N   0  0  0  0  0  0  0  0  0  0  0  0
  148.1911  139.8338  155.5106 C   0  0  0  0  0  0  0  0  0  0  0  0
  147.4425  140.8090  155.5822 O   0  0  0  0  0  0  0  0  0  0  0  0
  149.6452  139.9486  155.8733 C   0  0  0  0  0  0  0  0  0  0  0  0
  150.6373  139.2108  155.1897 C   0  0  0  0  0  0  0  0  0  0  0  0
  151.9761  139.3481  155.5987 C   0  0  0  0  0  0  0  0  0  0  0  0
  152.3621  140.1460  156.6151 N   0  0  0  0  0  0  0  0  0  0  0  0
  151.4223  140.8560  157.2864 C   0  0  0  0  0  0  0  0  0  0  0  0
  151.8433  141.6780  158.3549 N   0  0  0  0  0  0  0  0  0  0  0  0
  153.1512  141.4152  158.9523 C   0  0  0  0  0  0  0  0  0  0  0  0
  153.2977  142.1818  160.2768 C   0  0  0  0  0  0  0  0  0  0  0  0
  153.0580  143.5680  160.0574 O   0  0  0  0  0  0  0  0  0  0  0  0
  151.7377  143.8150  159.5816 C   0  0  1  0  0  0  0  0  0  0  0  0
  151.5432  145.3303  159.4665 C   0  0  0  0  0  0  0  0  0  0  0  0
  151.5420  143.1020  158.2294 C   0  0  0  0  0  0  0  0  0  0  0  0
  150.0508  140.7752  156.9448 C   0  0  0  0  0  0  0  0  0  0  0  0
  144.4216  132.5454  153.5426 H   0  0  0  0  0  0  0  0  0  0  0  0
  144.1905  134.1918  154.1112 H   0  0  0  0  0  0  0  0  0  0  0  0
  145.7259  133.3734  154.3888 H   0  0  0  0  0  0  0  0  0  0  0  0
  144.5978  134.1719  151.6496 H   0  0  0  0  0  0  0  0  0  0  0  0
  145.9376  132.0866  151.4966 H   0  0  0  0  0  0  0  0  0  0  0  0
  147.2909  132.8761  152.3015 H   0  0  0  0  0  0  0  0  0  0  0  0
  146.7685  133.4218  150.7090 H   0  0  0  0  0  0  0  0  0  0  0  0
  147.0263  135.4222  152.0946 H   0  0  0  0  0  0  0  0  0  0  0  0
  147.5047  137.3783  152.9504 H   0  0  0  0  0  0  0  0  0  0  0  0
  146.1244  138.3327  152.4558 H   0  0  0  0  0  0  0  0  0  0  0  0
  145.8325  139.2039  154.5922 H   0  0  0  0  0  0  0  0  0  0  0  0
  146.0090  137.6314  155.3359 H   0  0  0  0  0  0  0  0  0  0  0  0
  148.4896  137.8965  155.0114 H   0  0  0  0  0  0  0  0  0  0  0  0
  150.3915  138.5462  154.3745 H   0  0  0  0  0  0  0  0  0  0  0  0
  152.7592  138.7983  155.0982 H   0  0  0  0  0  0  0  0  0  0  0  0
  153.2770  140.3477  159.1389 H   0  0  0  0  0  0  0  0  0  0  0  0
  153.9333  141.7202  158.2557 H   0  0  0  0  0  0  0  0  0  0  0  0
  152.6067  141.7961  161.0282 H   0  0  0  0  0  0  0  0  0  0  0  0
  154.3042  142.0537  160.6752 H   0  0  0  0  0  0  0  0  0  0  0  0
  151.0189  143.4282  160.3064 H   0  0  0  0  0  0  0  0  0  0  0  0
  150.5409  145.5714  159.1119 H   0  0  0  0  0  0  0  0  0  0  0  0
  152.2594  145.7686  158.7707 H   0  0  0  0  0  0  0  0  0  0  0  0
  151.6789  145.8145  160.4338 H   0  0  0  0  0  0  0  0  0  0  0  0
  152.2040  143.5336  157.4775 H   0  0  0  0  0  0  0  0  0  0  0  0
  150.5228  143.2710  157.8858 H   0  0  0  0  0  0  0  0  0  0  0  0
  149.3099  141.3265  157.5049 H   0  0  0  0  0  0  0  0  0  0  0  0
  1  2  1  0  0  0  0
  1 25  1  0  0  0  0
  1 26  1  0  0  0  0
  1 27  1  0  0  0  0
  2  3  1  0  0  0  0
  2  4  1  0  0  0  0
  2 28  1  0  0  0  0
  3 29  1  0  0  0  0
  3 30  1  0  0  0  0
  3 31  1  0  0  0  0
  4  5  1  0  0  0  0
  4 32  1  0  0  0  0
  5  6  2  0  0  0  0
  5  7  1  0  0  0  0
  7  8  1  0  0  0  0
  7 33  1  0  0  0  0
  7 34  1  0  0  0  0
  8  9  1  0  0  0  0
  8 35  1  0  0  0  0
  8 36  1  0  0  0  0
  9 10  1  0  0  0  0
  9 37  1  0  0  0  0
 10 11  2  0  0  0  0
 10 12  1  0  0  0  0
 12 24  1  0  0  0  0
 12 13  2  0  0  0  0
 13 14  1  0  0  0  0
 13 38  1  0  0  0  0
 14 15  2  0  0  0  0
 14 39  1  0  0  0  0
 15 16  1  0  0  0  0
 16 17  1  0  0  0  0
 16 24  2  0  0  0  0
 17 23  1  0  0  0  0
 17 18  1  0  0  0  0
 18 19  1  0  0  0  0
 18 40  1  0  0  0  0
 18 41  1  0  0  0  0
 19 20  1  0  0  0  0
 19 42  1  0  0  0  0
 19 43  1  0  0  0  0
 20 21  1  0  0  0  0
 21 22  1  0  0  0  0
 21 23  1  0  0  0  0
 21 44  1  0  0  0  0
 22 45  1  0  0  0  0
 22 46  1  0  0  0  0
 22 47  1  0  0  0  0
 23 48  1  0  0  0  0
 23 49  1  0  0  0  0
 24 50  1  0  0  0  0
M  END
> <s_m_source_file>
AV-unprocessed.smi

> <i_m_source_file_index>
748

> <i_lp_mmshare_version>
43012

> <i_f3d_flags>
0

> <s_epik_input>
W0NIM11bQ0hdKFtDSDNdKVtOSF1DKD1PKVtDSDJdW0NIMl1bTkhdQyg9TyljMVtjSF1bY0hdbmMoW2NIXTEpTjJbQ0gyXVtDSDJdT1tDQEBIXShbQ0gzXSlbQ0gyXTI=

> <s_epik_cmdline>
J2VwaWtfcHl0aG9uJywgJy1waCcsICc3LjAnLCAnLXRuJywgJzgnLCAnLW1hJywgJzIwMCcsICctbWV0YWxfYmluZGluZycsICctaW1hZScsICc8aW5maWxlLm1hZT4nLCAnLW9tYWUnLCAnPG91dGZpbGUubWFlPic=

> <r_lp_tautomer_probability>
1

> <r_epik_Ionization_Penalty>
1.38678e-05

> <r_epik_Ionization_Penalty_Charging>
0

> <r_epik_Ionization_Penalty_Neutral>
1.38678e-05

> <r_epik_State_Penalty>
-0

> <r_epik_Charging_Adjusted_Penalty>
0

> <i_epik_Tot_Q>
0

> <i_epik_Tot_abs_Q>
0

> <r_epik_Metal_State_Penalty>
-0

> <b_epik_Metal_Only>
0

> <s_lp_Force_Field>
OPLS_2005

> <r_lp_Energy>
16.8499

> <b_lp_Chiralities_Consistent>
1

> <s_lp_Variant>
AV-unprocessed.smi:748-1

> <Gold.Version>
5.8.1

> <Gold.Id.Protein>
6NUR|6NUR_protein|mol2

> <Gold.PLP.Fitness>
47.6156

> <Gold.PLP.PLP>
-44.0610

> <Gold.PLP.part.hbond>
-2.0000

> <Gold.PLP.part.metal>
0.0000

> <Gold.PLP.part.buried>
-4.7122

> <Gold.PLP.part.nonpolar>
-38.4077

> <Gold.PLP.part.repulsive>
1.0927

> <Gold.PLP.ligand.clash>
0.0000

> <Gold.PLP.ligand.torsion>
1.4436

> <Gold.PLP.Chemscore.Hbond>
1.9920

> <Gold.PLP.Chemscore.CHOScore>
0.0000

> <Gold.PLP.Chemscore.Metal>
0.0000

> <Gold.Chemscore.Hbonds>
donor molecule, donor type, donor heavy atom, donor atom, acceptor molecule, acceptor atom, score
      L1  H     4    32       P1  7948  0.89
      P1  H  7997  8010       L1    15  1.00

> <Gold.PLP.Chemscore.Internal.Correction>
0.4658

> <Gold.Rescore>
     Score         DG    S(hbond)    S(metal)    S(lipo)     H(rot)  DE(clash)    DE(int)     intcor
     16.60     -18.06       1.57        0.00     103.57       1.87       0.13       1.34       ----

> <Gold.Chemscore.Fitness>
16.5981

> <Gold.Chemscore.DG>
-18.0638

> <Gold.Chemscore.ZeroCoef>
-5.4800

> <Gold.Chemscore.Hbond>
1.5721

> <Gold.Chemscore.Metal>
0.0000

> <Gold.Chemscore.Lipo>
103.5739

> <Gold.Chemscore.Internal_Hbond>
0.0000

> <Gold.Chemscore.DEClash>
0.1290

> <Gold.Chemscore.DEInternal>
1.3367

> <Gold.Chemscore.Rot>
1.8692

> <Gold.Chemscore.Internal.Correction>
   9.000000E+99

> <Gold.Chemscore.Hbonds>
donor molecule, donor type, donor heavy atom, donor atom, acceptor molecule, acceptor atom, score
      L1  H     4    32       P1  7948  0.86
      P1  H  7997  8010       L1    15  0.47

> <Gold.Chemscore.Hbond.Weighted>
-5.2508

> <Gold.Chemscore.Metal.Weighted>
-0.0000

> <Gold.Chemscore.Lipo.Weighted>
-12.1181

> <Gold.Chemscore.Internal_Hbond.Weighted>
0.0000

> <Gold.Chemscore.DEClash.Weighted>
0.1290

> <Gold.Chemscore.DEInternal.Weighted>
1.3367

> <Gold.Chemscore.Rot.Weighted>
4.7852

> <Gold.Chemscore.Internal.Correction.Weighted>
   9.000000E+99

> <Gold.Protein.RotatedTorsions>
[ 6907 6896 6895 6894 ] final   29.98 input  -60.11 | X-H torsion
[ 7974 7965 7964 7962 ] final -151.73 input  175.53 | X-H torsion
[ 8008 7997 7996 7995 ] final   62.79 input   59.86 | X-H torsion
[ 10167 10162 10161 10158 ] final  133.41 input  -65.29 | X-H torsion
[ 10718 10713 10712 10709 ] final   30.89 input   66.30 | X-H torsion
[ 10763 10752 10751 10750 ] final   74.69 input  -60.55 | X-H torsion
[ 11005 11000 10999 10996 ] final -174.62 input  -57.11 | X-H torsion

> <Gold.Protein.ActiveResidues>
 VAL166  LYS551  ARG553  GLY616  TRP617  ASP618  TYR619  PRO620  LYS621  CYS622 
 ASP623  PHE694  ASN695  SER759  ASP760  ASP761  ALA762  ILE779  LEU786  VAL792 
 PHE793  MET794  SER795  GLU796  ALA797  LYS798  CYS799  TRP800  GLU811  SER814 

> <Gold.Protein.RotatedAtoms>
  152.0393  134.9721  160.0573 H   0  0  0  0  0  0  0  0  0  0  0  0  # atno 6907 bound_to 6896
  152.1166  133.4325  159.4664 H   0  0  0  0  0  0  0  0  0  0  0  0  # atno 6908 bound_to 6896
  150.6846  134.2504  159.4551 H   0  0  0  0  0  0  0  0  0  0  0  0  # atno 6909 bound_to 6896
  144.7833  140.4758  143.5824 H   0  0  0  0  0  0  0  0  0  0  0  0  # atno 7974 bound_to 7965
  155.6200  140.3495  155.4649 H   0  0  0  0  0  0  0  0  0  0  0  0  # atno 8008 bound_to 7997
  156.0087  140.1228  157.0500 H   0  0  0  0  0  0  0  0  0  0  0  0  # atno 8009 bound_to 7997
  154.4273  140.1086  156.5784 H   0  0  0  0  0  0  0  0  0  0  0  0  # atno 8010 bound_to 7997
  139.5298  144.6617  151.4992 H   0  0  0  0  0  0  0  0  0  0  0  0  # atno 10167 bound_to 10162
  157.2654  130.7182  149.6476 H   0  0  0  0  0  0  0  0  0  0  0  0  # atno 10718 bound_to 10713
  153.0604  135.5016  154.8079 H   0  0  0  0  0  0  0  0  0  0  0  0  # atno 10763 bound_to 10752
  154.6873  135.2978  154.9531 H   0  0  0  0  0  0  0  0  0  0  0  0  # atno 10764 bound_to 10752
  154.0298  135.6731  153.4832 H   0  0  0  0  0  0  0  0  0  0  0  0  # atno 10765 bound_to 10752
  140.4725  134.6152  157.4887 H   0  0  0  0  0  0  0  0  0  0  0  0  # atno 11005 bound_to 11000
  145.5990  139.1502  143.3140 LP  0  0  0  0  0  0  0  0  0  0  0  0  # atno 17320 bound_to 7965
  146.2053  140.6112  142.9084 LP  0  0  0  0  0  0  0  0  0  0  0  0  # atno 17321 bound_to 7965
  140.6468  143.8778  150.6745 LP  0  0  0  0  0  0  0  0  0  0  0  0  # atno 17342 bound_to 10162
  140.2130  143.3868  152.1703 LP  0  0  0  0  0  0  0  0  0  0  0  0  # atno 17343 bound_to 10162
  155.9663  130.4384  150.5216 LP  0  0  0  0  0  0  0  0  0  0  0  0  # atno 17370 bound_to 10713
  157.3129  131.0667  151.1987 LP  0  0  0  0  0  0  0  0  0  0  0  0  # atno 17371 bound_to 10713
  139.9876  134.7036  155.9745 LP  0  0  0  0  0  0  0  0  0  0  0  0  # atno 17394 bound_to 11000
  141.1570  133.6542  156.4194 LP  0  0  0  0  0  0  0  0  0  0  0  0  # atno 17395 bound_to 11000

$$$$
