AV-unprocessed.smi:1376|AV-procd|sdf|5592|dock9
  -GOLD-   22720 5193D 1   1.00000     0.00000
 Structure written by MMmdl.
 42 43  0  0  0  0  0  0  0  0  1 V2000
  150.8314  141.3368  157.9841 O   0  0  0  0  0  0  0  0  0  0  0  0
  150.7014  142.4029  157.3806 C   0  0  0  0  0  0  0  0  0  0  0  0
  151.5814  143.6147  157.7199 C   0  0  0  0  0  0  0  0  0  0  0  0
  151.7095  143.8561  159.1667 N   0  0  0  0  0  0  0  0  0  0  0  0
  151.2260  145.0861  159.6557 C   0  0  0  0  0  0  0  0  0  0  0  0
  151.2987  145.4111  160.9560 C   0  0  0  0  0  0  0  0  0  0  0  0
  151.8922  144.4596  161.8651 C   0  0  0  0  0  0  0  0  0  0  0  0
  152.3620  143.2821  161.4072 C   0  0  0  0  0  0  0  0  0  0  0  0
  152.2883  142.9245  159.9857 C   0  0  0  0  0  0  0  0  0  0  0  0
  152.7205  141.8537  159.5579 O   0  0  0  0  0  0  0  0  0  0  0  0
  149.8159  142.5809  156.3885 N   0  0  0  0  0  0  0  0  0  0  0  0
  148.8889  141.5668  155.8953 C   0  0  2  0  0  0  0  0  0  0  0  0
  149.1618  141.2590  154.4094 C   0  0  0  0  0  0  0  0  0  0  0  0
  148.1494  140.2453  153.8543 C   0  0  0  0  0  0  0  0  0  0  0  0
  146.7060  140.7266  154.0672 C   0  0  0  0  0  0  0  0  0  0  0  0
  146.4249  141.0193  155.5509 C   0  0  2  0  0  0  0  0  0  0  0  0
  145.0946  141.5132  155.6396 O   0  0  0  0  0  0  0  0  0  0  0  0
  144.8212  142.6340  154.8093 C   0  0  0  0  0  0  0  0  0  0  0  0
  143.5934  143.3769  155.3497 C   0  0  0  0  0  0  0  0  0  0  0  0
  143.8689  143.8585  156.5613 F   0  0  0  0  0  0  0  0  0  0  0  0
  143.2785  144.3931  154.5469 F   0  0  0  0  0  0  0  0  0  0  0  0
  142.5570  142.5444  155.4460 F   0  0  0  0  0  0  0  0  0  0  0  0
  147.4391  142.0448  156.0996 C   0  0  0  0  0  0  0  0  0  0  0  0
  152.5638  143.4567  157.2730 H   0  0  0  0  0  0  0  0  0  0  0  0
  151.1822  144.5011  157.2233 H   0  0  0  0  0  0  0  0  0  0  0  0
  150.8047  145.7443  158.9096 H   0  0  0  0  0  0  0  0  0  0  0  0
  150.9280  146.3613  161.3114 H   0  0  0  0  0  0  0  0  0  0  0  0
  151.9614  144.6937  162.9171 H   0  0  0  0  0  0  0  0  0  0  0  0
  152.8040  142.5829  162.1021 H   0  0  0  0  0  0  0  0  0  0  0  0
  149.7807  143.4859  155.9420 H   0  0  0  0  0  0  0  0  0  0  0  0
  149.0231  140.6510  156.4744 H   0  0  0  0  0  0  0  0  0  0  0  0
  149.1099  142.1790  153.8254 H   0  0  0  0  0  0  0  0  0  0  0  0
  150.1731  140.8703  154.2836 H   0  0  0  0  0  0  0  0  0  0  0  0
  148.3332  140.0803  152.7926 H   0  0  0  0  0  0  0  0  0  0  0  0
  148.2898  139.2819  154.3460 H   0  0  0  0  0  0  0  0  0  0  0  0
  146.5313  141.6260  153.4752 H   0  0  0  0  0  0  0  0  0  0  0  0
  146.0082  139.9741  153.6981 H   0  0  0  0  0  0  0  0  0  0  0  0
  146.5101  140.0827  156.1053 H   0  0  0  0  0  0  0  0  0  0  0  0
  145.6794  143.3076  154.7928 H   0  0  0  0  0  0  0  0  0  0  0  0
  144.6345  142.3179  153.7829 H   0  0  0  0  0  0  0  0  0  0  0  0
  147.2671  142.2203  157.1612 H   0  0  0  0  0  0  0  0  0  0  0  0
  147.2915  143.0032  155.5993 H   0  0  0  0  0  0  0  0  0  0  0  0
  1  2  2  0  0  0  0
  2  3  1  0  0  0  0
  2 11  1  0  0  0  0
  3  4  1  0  0  0  0
  3 24  1  0  0  0  0
  3 25  1  0  0  0  0
  4  9  1  0  0  0  0
  4  5  1  0  0  0  0
  5  6  2  0  0  0  0
  5 26  1  0  0  0  0
  6  7  1  0  0  0  0
  6 27  1  0  0  0  0
  7  8  2  0  0  0  0
  7 28  1  0  0  0  0
  8  9  1  0  0  0  0
  8 29  1  0  0  0  0
  9 10  2  0  0  0  0
 11 12  1  0  0  0  0
 11 30  1  0  0  0  0
 12 23  1  0  0  0  0
 12 13  1  0  0  0  0
 12 31  1  0  0  0  0
 13 14  1  0  0  0  0
 13 32  1  0  0  0  0
 13 33  1  0  0  0  0
 14 15  1  0  0  0  0
 14 34  1  0  0  0  0
 14 35  1  0  0  0  0
 15 16  1  0  0  0  0
 15 36  1  0  0  0  0
 15 37  1  0  0  0  0
 16 17  1  0  0  0  0
 16 23  1  0  0  0  0
 16 38  1  0  0  0  0
 17 18  1  0  0  0  0
 18 19  1  0  0  0  0
 18 39  1  0  0  0  0
 18 40  1  0  0  0  0
 19 20  1  0  0  0  0
 19 21  1  0  0  0  0
 19 22  1  0  0  0  0
 23 41  1  0  0  0  0
 23 42  1  0  0  0  0
M  END
> <s_m_source_file>
AV-unprocessed.smi

> <i_m_source_file_index>
1376

> <i_lp_mmshare_version>
43012

> <i_f3d_flags>
0

> <s_epik_input>
Tz1jMVtjSF1bY0hdW2NIXVtjSF1uMVtDSDJdQyg9TylbTkhdW0NAQEhdMltDSDJdW0NIMl1bQ0gyXVtDQEhdKFtDSDJdMilPW0NIMl1DKEYpKEYpRg==

> <s_epik_cmdline>
J2VwaWtfcHl0aG9uJywgJy1waCcsICc3LjAnLCAnLXRuJywgJzgnLCAnLW1hJywgJzIwMCcsICctbWV0YWxfYmluZGluZycsICctaW1hZScsICc8aW5maWxlLm1hZT4nLCAnLW9tYWUnLCAnPG91dGZpbGUubWFlPic=

> <r_lp_tautomer_probability>
1

> <r_epik_Ionization_Penalty>
4.08567e-07

> <r_epik_Ionization_Penalty_Charging>
3.90028e-07

> <r_epik_Ionization_Penalty_Neutral>
1.85393e-08

> <r_epik_State_Penalty>
-0

> <r_epik_Charging_Adjusted_Penalty>
3.90028e-07

> <i_epik_Tot_Q>
0

> <i_epik_Tot_abs_Q>
0

> <r_epik_Metal_State_Penalty>
-0

> <b_epik_Metal_Only>
0

> <s_lp_Force_Field>
OPLS_2005

> <r_lp_Energy>
18.479

> <b_lp_Chiralities_Consistent>
1

> <s_lp_Variant>
AV-unprocessed.smi:1376-3

> <Gold.Version>
5.8.1

> <Gold.Id.Protein>
6NUR|6NUR_protein|mol2

> <Gold.PLP.Fitness>
45.2882

> <Gold.PLP.PLP>
-43.3411

> <Gold.PLP.part.hbond>
-1.0000

> <Gold.PLP.part.metal>
0.0000

> <Gold.PLP.part.buried>
-3.6687

> <Gold.PLP.part.nonpolar>
-38.7218

> <Gold.PLP.part.repulsive>
0.1766

> <Gold.PLP.ligand.clash>
0.0000

> <Gold.PLP.ligand.torsion>
0.3223

> <Gold.PLP.Chemscore.Hbond>
0.8480

> <Gold.PLP.Chemscore.CHOScore>
0.0000

> <Gold.PLP.Chemscore.Metal>
0.0000

> <Gold.Chemscore.Hbonds>
donor molecule, donor type, donor heavy atom, donor atom, acceptor molecule, acceptor atom, score
      L1  H    11    30       P1  8028  0.90

> <Gold.PLP.Chemscore.Internal.Correction>
0.0476

> <Gold.Rescore>
     Score         DG    S(hbond)    S(metal)    S(lipo)     H(rot)  DE(clash)    DE(int)     intcor
     11.48     -12.81       0.50        0.00      96.07       2.18       0.45       0.88       ----

> <Gold.Chemscore.Fitness>
11.4814

> <Gold.Chemscore.DG>
-12.8105

> <Gold.Chemscore.ZeroCoef>
-5.4800

> <Gold.Chemscore.Hbond>
0.5000

> <Gold.Chemscore.Metal>
0.0000

> <Gold.Chemscore.Lipo>
96.0747

> <Gold.Chemscore.Internal_Hbond>
0.0000

> <Gold.Chemscore.DEClash>
0.4483

> <Gold.Chemscore.DEInternal>
0.8809

> <Gold.Chemscore.Rot>
2.1797

> <Gold.Chemscore.Internal.Correction>
   9.000000E+99

> <Gold.Chemscore.Hbonds>
donor molecule, donor type, donor heavy atom, donor atom, acceptor molecule, acceptor atom, score
      L1  H    11    30       P1  8028  0.84

> <Gold.Chemscore.Hbond.Weighted>
-1.6700

> <Gold.Chemscore.Metal.Weighted>
-0.0000

> <Gold.Chemscore.Lipo.Weighted>
-11.2407

> <Gold.Chemscore.Internal_Hbond.Weighted>
0.0000

> <Gold.Chemscore.DEClash.Weighted>
0.4483

> <Gold.Chemscore.DEInternal.Weighted>
0.8809

> <Gold.Chemscore.Rot.Weighted>
5.5802

> <Gold.Chemscore.Internal.Correction.Weighted>
   9.000000E+99

> <Gold.Protein.RotatedTorsions>
[ 6907 6896 6895 6894 ] final  -53.38 input  -60.11 | X-H torsion
[ 7974 7965 7964 7962 ] final -161.35 input  175.53 | X-H torsion
[ 8008 7997 7996 7995 ] final -154.27 input   59.86 | X-H torsion
[ 10167 10162 10161 10158 ] final   24.55 input  -65.29 | X-H torsion
[ 10718 10713 10712 10709 ] final   19.76 input   66.30 | X-H torsion
[ 10763 10752 10751 10750 ] final   95.08 input  -60.55 | X-H torsion
[ 11005 11000 10999 10996 ] final -176.22 input  -57.11 | X-H torsion

> <Gold.Protein.ActiveResidues>
 VAL166  LYS551  ARG553  GLY616  TRP617  ASP618  TYR619  PRO620  LYS621  CYS622 
 ASP623  PHE694  ASN695  SER759  ASP760  ASP761  ALA762  ILE779  LEU786  VAL792 
 PHE793  MET794  SER795  GLU796  ALA797  LYS798  CYS799  TRP800  GLU811  SER814 

> <Gold.Protein.RotatedAtoms>
  150.8432  134.7731  159.6948 H   0  0  0  0  0  0  0  0  0  0  0  0  # atno 6907 bound_to 6896
  152.4515  134.5381  159.9840 H   0  0  0  0  0  0  0  0  0  0  0  0  # atno 6908 bound_to 6896
  151.5517  133.3378  159.2990 H   0  0  0  0  0  0  0  0  0  0  0  0  # atno 6909 bound_to 6896
  144.7394  140.3411  143.6134 H   0  0  0  0  0  0  0  0  0  0  0  0  # atno 7974 bound_to 7965
  155.6838  140.0747  157.2475 H   0  0  0  0  0  0  0  0  0  0  0  0  # atno 8008 bound_to 7997
  154.4101  140.1677  156.2063 H   0  0  0  0  0  0  0  0  0  0  0  0  # atno 8009 bound_to 7997
  155.9512  140.3377  155.6412 H   0  0  0  0  0  0  0  0  0  0  0  0  # atno 8010 bound_to 7997
  140.5179  144.0052  150.6402 H   0  0  0  0  0  0  0  0  0  0  0  0  # atno 10167 bound_to 10162
  157.1149  130.6525  149.5907 H   0  0  0  0  0  0  0  0  0  0  0  0  # atno 10718 bound_to 10713
  153.2490  135.4267  155.0778 H   0  0  0  0  0  0  0  0  0  0  0  0  # atno 10763 bound_to 10752
  154.8374  135.3421  154.6539 H   0  0  0  0  0  0  0  0  0  0  0  0  # atno 10764 bound_to 10752
  153.6961  135.7031  153.5133 H   0  0  0  0  0  0  0  0  0  0  0  0  # atno 10765 bound_to 10752
  140.4545  134.6312  157.4816 H   0  0  0  0  0  0  0  0  0  0  0  0  # atno 11005 bound_to 11000
  145.7373  139.1754  143.2396 LP  0  0  0  0  0  0  0  0  0  0  0  0  # atno 17320 bound_to 7965
  146.1160  140.7368  142.9480 LP  0  0  0  0  0  0  0  0  0  0  0  0  # atno 17321 bound_to 7965
  140.3393  143.3030  152.0605 LP  0  0  0  0  0  0  0  0  0  0  0  0  # atno 17342 bound_to 10162
  139.4914  144.6454  151.6789 LP  0  0  0  0  0  0  0  0  0  0  0  0  # atno 17343 bound_to 10162
  155.9842  130.4865  150.6969 LP  0  0  0  0  0  0  0  0  0  0  0  0  # atno 17370 bound_to 10713
  157.4527  131.0874  151.0829 LP  0  0  0  0  0  0  0  0  0  0  0  0  # atno 17371 bound_to 10713
  139.9985  134.6874  155.9569 LP  0  0  0  0  0  0  0  0  0  0  0  0  # atno 17394 bound_to 11000
  141.1649  133.6537  156.4445 LP  0  0  0  0  0  0  0  0  0  0  0  0  # atno 17395 bound_to 11000

$$$$
