AV-unprocessed.smi:1151|AV-procd|sdf|4895|dock3
  -GOLD-   22720 3473D 1   1.00000     0.00000
 Structure written by MMmdl.
 35 36  0  0  0  0  0  0  0  0  1 V2000
  152.4013  143.5361  161.8881 C   0  0  0  0  0  0  0  0  0  0  0  0
  151.9277  143.6186  160.4777 C   0  0  0  0  0  0  0  0  0  0  0  0
  151.4371  142.5761  159.8022 N   0  0  0  0  0  0  0  0  0  0  0  0
  151.0649  142.9090  158.4962 C   0  0  0  0  0  0  0  0  0  0  0  0
  150.4765  141.8643  157.5923 C   0  0  0  0  0  0  0  0  0  0  0  0
  151.5255  140.9031  156.9961 C   0  0  0  0  0  0  0  0  0  0  0  0
  150.9757  139.5930  156.6590 N   0  0  0  0  0  0  0  0  0  0  0  0
  150.7370  139.1496  155.4152 C   0  0  0  0  0  0  0  0  0  0  0  0
  150.9931  139.8120  154.4094 O   0  0  0  0  0  0  0  0  0  0  0  0
  150.0854  137.7580  155.3011 C   0  0  2  0  0  0  0  0  0  0  0  0
  148.6854  137.6975  155.9413 C   0  0  0  0  0  0  0  0  0  0  0  0
  148.7089  137.7485  157.4815 C   0  0  0  0  0  0  0  0  0  0  0  0
  149.8303  136.9129  158.1175 C   0  0  0  0  0  0  0  0  0  0  0  0
  149.7854  136.6592  159.3189 O   0  0  0  0  0  0  0  0  0  0  0  0
  150.8622  136.5119  157.3546 N   0  0  0  0  0  0  0  0  0  0  0  0
  150.9703  136.6437  155.9010 C   0  0  0  0  0  0  0  0  0  0  0  0
  151.2869  144.2286  158.1894 C   0  0  0  0  0  0  0  0  0  0  0  0
  151.9648  145.1032  159.5339 S   0  0  0  0  0  0  0  0  0  0  0  0
  151.9392  142.6901  162.3978 H   0  0  0  0  0  0  0  0  0  0  0  0
  152.1430  144.4491  162.4249 H   0  0  0  0  0  0  0  0  0  0  0  0
  153.4839  143.4105  161.9099 H   0  0  0  0  0  0  0  0  0  0  0  0
  149.7332  141.2853  158.1412 H   0  0  0  0  0  0  0  0  0  0  0  0
  149.9273  142.3405  156.7795 H   0  0  0  0  0  0  0  0  0  0  0  0
  151.9994  141.3500  156.1209 H   0  0  0  0  0  0  0  0  0  0  0  0
  152.3187  140.7400  157.7260 H   0  0  0  0  0  0  0  0  0  0  0  0
  150.7323  138.9904  157.4319 H   0  0  0  0  0  0  0  0  0  0  0  0
  149.9723  137.5455  154.2365 H   0  0  0  0  0  0  0  0  0  0  0  0
  148.0620  138.5066  155.5587 H   0  0  0  0  0  0  0  0  0  0  0  0
  148.1954  136.7748  155.6274 H   0  0  0  0  0  0  0  0  0  0  0  0
  148.8379  138.7790  157.8135 H   0  0  0  0  0  0  0  0  0  0  0  0
  147.7468  137.4208  157.8763 H   0  0  0  0  0  0  0  0  0  0  0  0
  151.6046  136.0045  157.8143 H   0  0  0  0  0  0  0  0  0  0  0  0
  150.6908  135.6851  155.4626 H   0  0  0  0  0  0  0  0  0  0  0  0
  152.0181  136.7999  155.6406 H   0  0  0  0  0  0  0  0  0  0  0  0
  151.0855  144.7373  157.2582 H   0  0  0  0  0  0  0  0  0  0  0  0
  1  2  1  0  0  0  0
  1 19  1  0  0  0  0
  1 20  1  0  0  0  0
  1 21  1  0  0  0  0
  2 18  1  0  0  0  0
  2  3  2  0  0  0  0
  3  4  1  0  0  0  0
  4  5  1  0  0  0  0
  4 17  2  0  0  0  0
  5  6  1  0  0  0  0
  5 22  1  0  0  0  0
  5 23  1  0  0  0  0
  6  7  1  0  0  0  0
  6 24  1  0  0  0  0
  6 25  1  0  0  0  0
  7  8  1  0  0  0  0
  7 26  1  0  0  0  0
  8  9  2  0  0  0  0
  8 10  1  0  0  0  0
 10 16  1  0  0  0  0
 10 11  1  0  0  0  0
 10 27  1  0  0  0  0
 11 12  1  0  0  0  0
 11 28  1  0  0  0  0
 11 29  1  0  0  0  0
 12 13  1  0  0  0  0
 12 30  1  0  0  0  0
 12 31  1  0  0  0  0
 13 14  2  0  0  0  0
 13 15  1  0  0  0  0
 15 16  1  0  0  0  0
 15 32  1  0  0  0  0
 16 33  1  0  0  0  0
 16 34  1  0  0  0  0
 17 18  1  0  0  0  0
 17 35  1  0  0  0  0
M  END
> <s_m_source_file>
AV-unprocessed.smi

> <i_m_source_file_index>
1151

> <i_lp_mmshare_version>
43012

> <i_f3d_flags>
0

> <s_epik_input>
W0NIM11jMW5jKFtjSF1zMSlbQ0gyXVtDSDJdW05IXUMoPU8pW0NAQEhdMltDSDJdW0NIMl1DKD1PKVtOSF1bQ0gyXTI=

> <s_epik_cmdline>
J2VwaWtfcHl0aG9uJywgJy1waCcsICc3LjAnLCAnLXRuJywgJzgnLCAnLW1hJywgJzIwMCcsICctbWV0YWxfYmluZGluZycsICctaW1hZScsICc8aW5maWxlLm1hZT4nLCAnLW9tYWUnLCAnPG91dGZpbGUubWFlPic=

> <r_epik_Ionization_Penalty>
0.00105008

> <r_epik_Ionization_Penalty_Charging>
0

> <r_epik_Ionization_Penalty_Neutral>
0.00105008

> <r_epik_State_Penalty>
0.000686749

> <r_epik_Charging_Adjusted_Penalty>
0.000686749

> <i_epik_Tot_Q>
0

> <i_epik_Tot_abs_Q>
0

> <r_epik_Metal_State_Penalty>
-0

> <b_epik_Metal_Only>
0

> <s_lp_Force_Field>
OPLS_2005

> <r_lp_Energy>
5.23985

> <b_lp_Chiralities_Consistent>
1

> <s_lp_Variant>
AV-unprocessed.smi:1151-1

> <Gold.Version>
5.8.1

> <Gold.Id.Protein>
6NUR|6NUR_protein|mol2

> <Gold.PLP.Fitness>
39.9345

> <Gold.PLP.PLP>
-31.8520

> <Gold.PLP.part.hbond>
-2.1222

> <Gold.PLP.part.metal>
0.0000

> <Gold.PLP.part.buried>
-6.1358

> <Gold.PLP.part.nonpolar>
-23.2571

> <Gold.PLP.part.repulsive>
0.2944

> <Gold.PLP.ligand.clash>
0.0000

> <Gold.PLP.ligand.torsion>
0.4763

> <Gold.PLP.Chemscore.Hbond>
2.0000

> <Gold.PLP.Chemscore.CHOScore>
0.9995

> <Gold.PLP.Chemscore.Metal>
0.0000

> <Gold.Chemscore.Hbonds>
donor molecule, donor type, donor heavy atom, donor atom, acceptor molecule, acceptor atom, score
      P1  H  6896  6907       L1    14  0.83
      P1  H  7989  7998       L1     9  1.00
      L1  C    17    35       P1  8028  0.63

> <Gold.PLP.Chemscore.Internal.Correction>
0.0365

> <Gold.Rescore>
     Score         DG    S(hbond)    S(metal)    S(lipo)     H(rot)  DE(clash)    DE(int)     intcor
     15.62     -17.02       1.98        0.00      79.27       1.70       0.01       1.40       ----

> <Gold.Chemscore.Fitness>
15.6205

> <Gold.Chemscore.DG>
-17.0222

> <Gold.Chemscore.ZeroCoef>
-5.4800

> <Gold.Chemscore.Hbond>
1.9802

> <Gold.Chemscore.Metal>
0.0000

> <Gold.Chemscore.Lipo>
79.2723

> <Gold.Chemscore.Internal_Hbond>
0.0000

> <Gold.Chemscore.DEClash>
0.0067

> <Gold.Chemscore.DEInternal>
1.3950

> <Gold.Chemscore.Rot>
1.6978

> <Gold.Chemscore.Internal.Correction>
   9.000000E+99

> <Gold.Chemscore.Hbonds>
donor molecule, donor type, donor heavy atom, donor atom, acceptor molecule, acceptor atom, score
      P1  H  6896  6907       L1    14  0.61
      P1  H  7989  7998       L1     9  0.93

> <Gold.Chemscore.Hbond.Weighted>
-6.6137

> <Gold.Chemscore.Metal.Weighted>
-0.0000

> <Gold.Chemscore.Lipo.Weighted>
-9.2749

> <Gold.Chemscore.Internal_Hbond.Weighted>
0.0000

> <Gold.Chemscore.DEClash.Weighted>
0.0067

> <Gold.Chemscore.DEInternal.Weighted>
1.3950

> <Gold.Chemscore.Rot.Weighted>
4.3463

> <Gold.Chemscore.Internal.Correction.Weighted>
   9.000000E+99

> <Gold.Protein.RotatedTorsions>
[ 6907 6896 6895 6894 ] final  -44.42 input  -60.11 | X-H torsion
[ 7974 7965 7964 7962 ] final -148.02 input  175.53 | X-H torsion
[ 8008 7997 7996 7995 ] final  -20.06 input   59.86 | X-H torsion
[ 10167 10162 10161 10158 ] final  140.67 input  -65.29 | X-H torsion
[ 10718 10713 10712 10709 ] final  -79.94 input   66.30 | X-H torsion
[ 10763 10752 10751 10750 ] final   12.55 input  -60.55 | X-H torsion
[ 11005 11000 10999 10996 ] final  132.79 input  -57.11 | X-H torsion

> <Gold.Protein.ActiveResidues>
 VAL166  LYS551  ARG553  GLY616  TRP617  ASP618  TYR619  PRO620  LYS621  CYS622 
 ASP623  PHE694  ASN695  SER759  ASP760  ASP761  ALA762  ILE779  LEU786  VAL792 
 PHE793  MET794  SER795  GLU796  ALA797  LYS798  CYS799  TRP800  GLU811  SER814 

> <Gold.Protein.RotatedAtoms>
  150.9331  134.8745  159.7563 H   0  0  0  0  0  0  0  0  0  0  0  0  # atno 6907 bound_to 6896
  152.5047  134.4050  159.9439 H   0  0  0  0  0  0  0  0  0  0  0  0  # atno 6908 bound_to 6896
  151.4076  133.3697  159.2775 H   0  0  0  0  0  0  0  0  0  0  0  0  # atno 6909 bound_to 6896
  144.8056  140.5250  143.5677 H   0  0  0  0  0  0  0  0  0  0  0  0  # atno 7974 bound_to 7965
  154.4795  140.2072  155.9798 H   0  0  0  0  0  0  0  0  0  0  0  0  # atno 8008 bound_to 7997
  156.1142  140.3224  155.8085 H   0  0  0  0  0  0  0  0  0  0  0  0  # atno 8009 bound_to 7997
  155.4582  140.0522  157.2984 H   0  0  0  0  0  0  0  0  0  0  0  0  # atno 8010 bound_to 7997
  139.5042  144.6219  151.6029 H   0  0  0  0  0  0  0  0  0  0  0  0  # atno 10167 bound_to 10162
  156.0081  130.4560  150.3725 H   0  0  0  0  0  0  0  0  0  0  0  0  # atno 10718 bound_to 10713
  153.1811  135.6828  153.8477 H   0  0  0  0  0  0  0  0  0  0  0  0  # atno 10763 bound_to 10752
  153.7809  135.3182  155.3366 H   0  0  0  0  0  0  0  0  0  0  0  0  # atno 10764 bound_to 10752
  154.8060  135.4748  154.0488 H   0  0  0  0  0  0  0  0  0  0  0  0  # atno 10765 bound_to 10752
  139.9811  134.9547  156.9632 H   0  0  0  0  0  0  0  0  0  0  0  0  # atno 11005 bound_to 11000
  145.5447  139.1476  143.3427 LP  0  0  0  0  0  0  0  0  0  0  0  0  # atno 17320 bound_to 7965
  146.2346  140.5587  142.8960 LP  0  0  0  0  0  0  0  0  0  0  0  0  # atno 17321 bound_to 7965
  140.5924  143.9755  150.6333 LP  0  0  0  0  0  0  0  0  0  0  0  0  # atno 17342 bound_to 10162
  140.2940  143.3305  152.1035 LP  0  0  0  0  0  0  0  0  0  0  0  0  # atno 17343 bound_to 10162
  157.1809  131.0392  151.2749 LP  0  0  0  0  0  0  0  0  0  0  0  0  # atno 17370 bound_to 10713
  157.4147  130.7404  149.6866 LP  0  0  0  0  0  0  0  0  0  0  0  0  # atno 17371 bound_to 10713
  140.5094  134.1017  155.7267 LP  0  0  0  0  0  0  0  0  0  0  0  0  # atno 17394 bound_to 11000
  141.1483  133.9015  157.2161 LP  0  0  0  0  0  0  0  0  0  0  0  0  # atno 17395 bound_to 11000

$$$$
