AV-unprocessed.smi:166|AV-procd|sdf|1388|dock4
  -GOLD-   2262019123D 1   1.00000     0.00000
 Structure written by MMmdl.
 54 58  0  0  0  0  0  0  0  0  1 V2000
  152.5614  142.4257  158.9776 O   0  0  0  0  0  0  0  0  0  0  0  0
  151.8544  143.4470  158.2942 C   0  0  1  0  0  0  0  0  0  0  0  0
  151.4830  142.9426  156.8792 C   0  0  0  0  0  0  0  0  0  0  0  0
  150.7619  141.6781  156.8799 N   0  0  0  0  0  0  0  0  0  0  0  0
  149.4326  141.4844  156.5776 C   0  0  0  0  0  0  0  0  0  0  0  0
  149.0183  140.2493  156.6521 N   0  0  0  0  0  0  0  0  0  0  0  0
  150.1509  139.5318  157.0183 C   0  0  0  0  0  0  0  0  0  0  0  0
  150.4127  138.1566  157.2774 C   0  0  0  0  0  0  0  0  0  0  0  0
  149.4582  137.1966  157.1781 N   0  0  0  0  0  0  0  0  0  0  0  0
  149.7077  136.1908  156.1459 C   0  0  0  0  0  0  0  0  0  0  0  0
  148.4260  135.4045  155.8270 C   0  0  0  0  0  0  0  0  0  0  0  0
  147.8178  134.8069  157.1043 C   0  0  0  0  0  0  0  0  0  0  0  0
  147.5734  135.9096  158.1473 C   0  0  1  0  0  0  0  0  0  0  0  0
  147.0968  135.2819  159.3297 O   0  0  0  0  0  0  0  0  0  0  0  0
  147.1298  136.1052  160.4880 C   0  0  0  0  0  0  0  0  0  0  0  0
  147.5952  135.3238  161.7032 C   0  0  0  0  0  0  0  0  0  0  0  0
  146.6078  134.5622  162.5635 C   0  0  0  0  0  0  0  0  0  0  0  0
  147.2756  135.7964  163.1068 C   0  0  0  0  0  0  0  0  0  0  0  0
  148.8793  136.6841  158.4217 C   0  0  0  0  0  0  0  0  0  0  0  0
  151.6802  137.8194  157.6383 N   0  0  0  0  0  0  0  0  0  0  0  0
  152.6284  138.7562  157.7310 C   0  0  0  0  0  0  0  0  0  0  0  0
  152.5279  140.0689  157.5157 N   0  0  0  0  0  0  0  0  0  0  0  0
  151.2570  140.4167  157.1636 C   0  0  0  0  0  0  0  0  0  0  0  0
  150.6349  143.8214  159.1290 C   0  0  0  0  0  0  0  0  0  0  0  0
  151.1725  144.9149  160.0421 C   0  0  0  0  0  0  0  0  0  0  0  0
  152.0238  145.6494  159.1803 O   0  0  0  0  0  0  0  0  0  0  0  0
  152.7040  144.7361  158.3247 C   0  0  0  0  0  0  0  0  0  0  0  0
  152.9899  142.8075  159.7283 H   0  0  0  0  0  0  0  0  0  0  0  0
  150.8731  143.6833  156.3602 H   0  0  0  0  0  0  0  0  0  0  0  0
  152.3854  142.8183  156.2795 H   0  0  0  0  0  0  0  0  0  0  0  0
  148.7726  142.2948  156.3044 H   0  0  0  0  0  0  0  0  0  0  0  0
  150.0889  136.6425  155.2309 H   0  0  0  0  0  0  0  0  0  0  0  0
  150.4814  135.5097  156.5028 H   0  0  0  0  0  0  0  0  0  0  0  0
  147.7008  136.0662  155.3513 H   0  0  0  0  0  0  0  0  0  0  0  0
  148.6421  134.6129  155.1092 H   0  0  0  0  0  0  0  0  0  0  0  0
  146.8835  134.2953  156.8716 H   0  0  0  0  0  0  0  0  0  0  0  0
  148.4933  134.0541  157.5132 H   0  0  0  0  0  0  0  0  0  0  0  0
  146.8147  136.5901  157.7556 H   0  0  0  0  0  0  0  0  0  0  0  0
  147.8032  136.9500  160.3455 H   0  0  0  0  0  0  0  0  0  0  0  0
  146.1357  136.5050  160.6922 H   0  0  0  0  0  0  0  0  0  0  0  0
  148.5677  134.8536  161.5705 H   0  0  0  0  0  0  0  0  0  0  0  0
  145.5506  134.6320  162.3146 H   0  0  0  0  0  0  0  0  0  0  0  0
  146.9278  133.6017  162.9621 H   0  0  0  0  0  0  0  0  0  0  0  0
  148.0407  135.6588  163.8681 H   0  0  0  0  0  0  0  0  0  0  0  0
  146.6638  136.6890  163.2210 H   0  0  0  0  0  0  0  0  0  0  0  0
  149.6030  136.0305  158.9108 H   0  0  0  0  0  0  0  0  0  0  0  0
  148.6840  137.5151  159.1000 H   0  0  0  0  0  0  0  0  0  0  0  0
  153.6076  138.4036  158.0196 H   0  0  0  0  0  0  0  0  0  0  0  0
  149.8556  144.2447  158.4938 H   0  0  0  0  0  0  0  0  0  0  0  0
  150.1986  142.9835  159.6742 H   0  0  0  0  0  0  0  0  0  0  0  0
  150.3856  145.5416  160.4621 H   0  0  0  0  0  0  0  0  0  0  0  0
  151.7544  144.4917  160.8625 H   0  0  0  0  0  0  0  0  0  0  0  0
  153.7128  144.5561  158.6999 H   0  0  0  0  0  0  0  0  0  0  0  0
  152.7996  145.1985  157.3431 H   0  0  0  0  0  0  0  0  0  0  0  0
  1  2  1  0  0  0  0
  1 28  1  0  0  0  0
  2 27  1  0  0  0  0
  2  3  1  0  0  0  0
  2 24  1  0  0  0  0
  3  4  1  0  0  0  0
  3 29  1  0  0  0  0
  3 30  1  0  0  0  0
  4 23  1  0  0  0  0
  4  5  1  0  0  0  0
  5  6  2  0  0  0  0
  5 31  1  0  0  0  0
  6  7  1  0  0  0  0
  7 23  2  0  0  0  0
  7  8  1  0  0  0  0
  8  9  1  0  0  0  0
  8 20  2  0  0  0  0
  9 19  1  0  0  0  0
  9 10  1  0  0  0  0
 10 11  1  0  0  0  0
 10 32  1  0  0  0  0
 10 33  1  0  0  0  0
 11 12  1  0  0  0  0
 11 34  1  0  0  0  0
 11 35  1  0  0  0  0
 12 13  1  0  0  0  0
 12 36  1  0  0  0  0
 12 37  1  0  0  0  0
 13 14  1  0  0  0  0
 13 19  1  0  0  0  0
 13 38  1  0  0  0  0
 14 15  1  0  0  0  0
 15 16  1  0  0  0  0
 15 39  1  0  0  0  0
 15 40  1  0  0  0  0
 16 18  1  0  0  0  0
 16 17  1  0  0  0  0
 16 41  1  0  0  0  0
 17 18  1  0  0  0  0
 17 42  1  0  0  0  0
 17 43  1  0  0  0  0
 18 44  1  0  0  0  0
 18 45  1  0  0  0  0
 19 46  1  0  0  0  0
 19 47  1  0  0  0  0
 20 21  1  0  0  0  0
 21 22  2  0  0  0  0
 21 48  1  0  0  0  0
 22 23  1  0  0  0  0
 24 25  1  0  0  0  0
 24 49  1  0  0  0  0
 24 50  1  0  0  0  0
 25 26  1  0  0  0  0
 25 51  1  0  0  0  0
 25 52  1  0  0  0  0
 26 27  1  0  0  0  0
 27 53  1  0  0  0  0
 27 54  1  0  0  0  0
M  END
> <s_m_source_file>
AV-unprocessed.smi

> <i_m_source_file_index>
166

> <i_lp_mmshare_version>
43012

> <i_f3d_flags>
0

> <s_epik_input>
W0NIMl0xT1tDSDJdW0NIMl1bQ0BAXTEoW09IXSlbQ0gyXW4oW2NIXW4yKWMoYzIzKW5bY0hdbmMzTjRbQ0gyXVtDSDJdW0NIMl1bQ0BIXShbQ0gyXTQpT1tDSDJdW0NIXTVbQ0gyXVtDSDJdNQ==

> <s_epik_cmdline>
J2VwaWtfcHl0aG9uJywgJy1waCcsICc3LjAnLCAnLXRuJywgJzgnLCAnLW1hJywgJzIwMCcsICctbWV0YWxfYmluZGluZycsICctaW1hZScsICc8aW5maWxlLm1hZT4nLCAnLW9tYWUnLCAnPG91dGZpbGUubWFlPic=

> <r_lp_tautomer_probability>
1

> <r_epik_Ionization_Penalty>
0.00342552

> <r_epik_Ionization_Penalty_Charging>
0

> <r_epik_Ionization_Penalty_Neutral>
0.00342552

> <r_epik_State_Penalty>
0.0022204

> <r_epik_Charging_Adjusted_Penalty>
0.0022204

> <i_epik_Tot_Q>
0

> <i_epik_Tot_abs_Q>
0

> <r_epik_Metal_State_Penalty>
-0

> <b_epik_Metal_Only>
0

> <s_lp_Force_Field>
OPLS_2005

> <r_lp_Energy>
44.5811

> <b_lp_Chiralities_Consistent>
1

> <s_lp_Variant>
AV-unprocessed.smi:166-1

> <Gold.Version>
5.8.1

> <Gold.Id.Protein>
6NUR|6NUR_protein|mol2

> <Gold.PLP.Fitness>
44.4690

> <Gold.PLP.PLP>
-40.9186

> <Gold.PLP.part.hbond>
-1.8119

> <Gold.PLP.part.metal>
0.0000

> <Gold.PLP.part.buried>
-8.1780

> <Gold.PLP.part.nonpolar>
-32.7709

> <Gold.PLP.part.repulsive>
0.1203

> <Gold.PLP.ligand.clash>
0.0000

> <Gold.PLP.ligand.torsion>
1.0501

> <Gold.PLP.Chemscore.Hbond>
0.5456

> <Gold.PLP.Chemscore.CHOScore>
1.0000

> <Gold.PLP.Chemscore.Metal>
0.0000

> <Gold.Chemscore.Hbonds>
donor molecule, donor type, donor heavy atom, donor atom, acceptor molecule, acceptor atom, score
      P1  H  7997  8008       L1    22  0.53
      L1  C     5    31       P1  8028  1.00

> <Gold.PLP.Chemscore.Internal.Correction>
1.0138

> <Gold.Rescore>
     Score         DG    S(hbond)    S(metal)    S(lipo)     H(rot)  DE(clash)    DE(int)     intcor
      7.37     -11.26       0.00        0.00     108.04       2.68       0.35       3.54       ----

> <Gold.Chemscore.Fitness>
7.3703

> <Gold.Chemscore.DG>
-11.2575

> <Gold.Chemscore.ZeroCoef>
-5.4800

> <Gold.Chemscore.Hbond>
0.0005

> <Gold.Chemscore.Metal>
0.0000

> <Gold.Chemscore.Lipo>
108.0426

> <Gold.Chemscore.Internal_Hbond>
0.0000

> <Gold.Chemscore.DEClash>
0.3491

> <Gold.Chemscore.DEInternal>
3.5381

> <Gold.Chemscore.Rot>
2.6817

> <Gold.Chemscore.Internal.Correction>
   9.000000E+99

> <Gold.Chemscore.Hbonds>
donor molecule, donor type, donor heavy atom, donor atom, acceptor molecule, acceptor atom, score
      P1  H  7997  8008       L1    22  0.03

> <Gold.Chemscore.Hbond.Weighted>
-0.0016

> <Gold.Chemscore.Metal.Weighted>
-0.0000

> <Gold.Chemscore.Lipo.Weighted>
-12.6410

> <Gold.Chemscore.Internal_Hbond.Weighted>
0.0000

> <Gold.Chemscore.DEClash.Weighted>
0.3491

> <Gold.Chemscore.DEInternal.Weighted>
3.5381

> <Gold.Chemscore.Rot.Weighted>
6.8651

> <Gold.Chemscore.Internal.Correction.Weighted>
   9.000000E+99

> <Gold.Protein.RotatedTorsions>
[ 6907 6896 6895 6894 ] final   91.70 input  -60.11 | X-H torsion
[ 7974 7965 7964 7962 ] final -120.48 input  175.53 | X-H torsion
[ 8008 7997 7996 7995 ] final  -53.11 input   59.86 | X-H torsion
[ 10167 10162 10161 10158 ] final   52.65 input  -65.29 | X-H torsion
[ 10718 10713 10712 10709 ] final   39.19 input   66.30 | X-H torsion
[ 10763 10752 10751 10750 ] final   92.49 input  -60.55 | X-H torsion
[ 11005 11000 10999 10996 ] final  102.33 input  -57.11 | X-H torsion

> <Gold.Protein.ActiveResidues>
 VAL166  LYS551  ARG553  GLY616  TRP617  ASP618  TYR619  PRO620  LYS621  CYS622 
 ASP623  PHE694  ASN695  SER759  ASP760  ASP761  ALA762  ILE779  LEU786  VAL792 
 PHE793  MET794  SER795  GLU796  ALA797  LYS798  CYS799  TRP800  GLU811  SER814 

> <Gold.Protein.RotatedAtoms>
  152.5451  134.1617  159.8560 H   0  0  0  0  0  0  0  0  0  0  0  0  # atno 6907 bound_to 6896
  151.1635  133.4823  159.2601 H   0  0  0  0  0  0  0  0  0  0  0  0  # atno 6908 bound_to 6896
  151.1349  135.0160  159.8654 H   0  0  0  0  0  0  0  0  0  0  0  0  # atno 6909 bound_to 6896
  145.0509  140.8218  143.4209 H   0  0  0  0  0  0  0  0  0  0  0  0  # atno 7974 bound_to 7965
  154.4124  140.1208  156.5101 H   0  0  0  0  0  0  0  0  0  0  0  0  # atno 8008 bound_to 7997
  155.6808  140.3496  155.4835 H   0  0  0  0  0  0  0  0  0  0  0  0  # atno 8009 bound_to 7997
  155.9553  140.1112  157.0932 H   0  0  0  0  0  0  0  0  0  0  0  0  # atno 8010 bound_to 7997
  140.2491  144.3499  150.6354 H   0  0  0  0  0  0  0  0  0  0  0  0  # atno 10167 bound_to 10162
  157.3676  130.7684  149.7095 H   0  0  0  0  0  0  0  0  0  0  0  0  # atno 10718 bound_to 10713
  153.2198  135.4359  155.0476 H   0  0  0  0  0  0  0  0  0  0  0  0  # atno 10763 bound_to 10752
  154.8244  135.3353  154.6945 H   0  0  0  0  0  0  0  0  0  0  0  0  # atno 10764 bound_to 10752
  153.7377  135.7007  153.5030 H   0  0  0  0  0  0  0  0  0  0  0  0  # atno 10765 bound_to 10752
  139.8777  134.9219  156.5041 H   0  0  0  0  0  0  0  0  0  0  0  0  # atno 11005 bound_to 11000
  145.1528  139.2504  143.5432 LP  0  0  0  0  0  0  0  0  0  0  0  0  # atno 17320 bound_to 7965
  146.3518  140.1235  142.8599 LP  0  0  0  0  0  0  0  0  0  0  0  0  # atno 17321 bound_to 7965
  140.6055  143.2167  151.6990 LP  0  0  0  0  0  0  0  0  0  0  0  0  # atno 17342 bound_to 10162
  139.5052  144.3726  152.0455 LP  0  0  0  0  0  0  0  0  0  0  0  0  # atno 17343 bound_to 10162
  155.9749  130.4096  150.3887 LP  0  0  0  0  0  0  0  0  0  0  0  0  # atno 17370 bound_to 10713
  157.1974  131.0430  151.2668 LP  0  0  0  0  0  0  0  0  0  0  0  0  # atno 17371 bound_to 10713
  140.8568  133.8090  155.9224 LP  0  0  0  0  0  0  0  0  0  0  0  0  # atno 17394 bound_to 11000
  140.9090  134.2284  157.4997 LP  0  0  0  0  0  0  0  0  0  0  0  0  # atno 17395 bound_to 11000

$$$$
