AV-unprocessed.smi:266|AV-procd|sdf|2031|dock4
  -GOLD-   2262021233D 1   1.00000     0.00000
 Structure written by MMmdl.
 52 55  0  0  0  0  0  0  0  0  1 V2000
  153.0797  142.7820  159.5879 C   0  0  0  0  0  0  0  0  0  0  0  0
  151.9163  143.6706  159.1211 C   0  0  2  0  0  0  0  0  0  0  0  0
  150.8861  143.5871  160.1023 O   0  0  0  0  0  0  0  0  0  0  0  0
  149.6333  143.7693  159.4665 C   0  0  0  0  0  0  0  0  0  0  0  0
  149.8047  142.9812  158.1774 C   0  0  0  0  0  0  0  0  0  0  0  0
  151.2426  143.2951  157.7702 C   0  0  1  0  0  0  0  0  0  0  0  0
  151.2176  144.4621  156.9647 O   0  0  0  0  0  0  0  0  0  0  0  0
  151.9176  142.1644  156.9491 C   0  0  0  0  0  0  0  0  0  0  0  0
  151.3337  140.8537  157.1915 N   0  0  0  0  0  0  0  0  0  0  0  0
  151.1539  140.2425  158.4107 C   0  0  0  0  0  0  0  0  0  0  0  0
  150.6229  139.0523  158.3611 N   0  0  0  0  0  0  0  0  0  0  0  0
  150.4176  138.8202  157.0053 C   0  0  0  0  0  0  0  0  0  0  0  0
  149.8965  137.7316  156.2444 C   0  0  0  0  0  0  0  0  0  0  0  0
  149.5051  136.5440  156.7829 N   0  0  0  0  0  0  0  0  0  0  0  0
  149.4011  135.3888  155.8948 C   0  0  0  0  0  0  0  0  0  0  0  0
  149.8219  136.2817  158.1882 C   0  0  0  0  0  0  0  0  0  0  0  0
  148.5824  135.9800  159.0587 C   0  0  2  0  0  0  0  0  0  0  0  0
  147.5019  137.0682  158.9032 C   0  0  0  0  0  0  0  0  0  0  0  0
  146.4332  136.8594  159.9799 C   0  0  0  0  0  0  0  0  0  0  0  0
  147.3363  136.2503  161.4500 S   0  0  0  0  0  0  0  0  0  0  0  0
  147.5872  137.3698  162.3701 O   0  0  0  0  0  0  0  0  0  0  0  0
  146.7049  135.0084  161.9212 O   0  0  0  0  0  0  0  0  0  0  0  0
  148.8895  135.8530  160.5630 C   0  0  0  0  0  0  0  0  0  0  0  0
  149.8190  137.9013  154.8965 N   0  0  0  0  0  0  0  0  0  0  0  0
  150.2413  139.0326  154.3264 C   0  0  0  0  0  0  0  0  0  0  0  0
  150.7708  140.1098  154.9062 N   0  0  0  0  0  0  0  0  0  0  0  0
  150.8384  139.9589  156.2592 C   0  0  0  0  0  0  0  0  0  0  0  0
  153.9081  142.8053  158.8797 H   0  0  0  0  0  0  0  0  0  0  0  0
  152.7666  141.7456  159.7154 H   0  0  0  0  0  0  0  0  0  0  0  0
  153.4632  143.1255  160.5489 H   0  0  0  0  0  0  0  0  0  0  0  0
  152.2634  144.7054  159.0982 H   0  0  0  0  0  0  0  0  0  0  0  0
  148.8114  143.4021  160.0813 H   0  0  0  0  0  0  0  0  0  0  0  0
  149.4702  144.8289  159.2633 H   0  0  0  0  0  0  0  0  0  0  0  0
  149.7020  141.9194  158.4041 H   0  0  0  0  0  0  0  0  0  0  0  0
  149.0635  143.2317  157.4166 H   0  0  0  0  0  0  0  0  0  0  0  0
  150.3572  144.5444  156.5828 H   0  0  0  0  0  0  0  0  0  0  0  0
  151.8546  142.3752  155.8806 H   0  0  0  0  0  0  0  0  0  0  0  0
  152.9789  142.0998  157.1886 H   0  0  0  0  0  0  0  0  0  0  0  0
  151.4404  140.7057  159.3437 H   0  0  0  0  0  0  0  0  0  0  0  0
  148.8155  135.6315  155.0073 H   0  0  0  0  0  0  0  0  0  0  0  0
  148.9063  134.5590  156.3998 H   0  0  0  0  0  0  0  0  0  0  0  0
  150.3884  135.0511  155.5778 H   0  0  0  0  0  0  0  0  0  0  0  0
  150.5594  135.4900  158.2964 H   0  0  0  0  0  0  0  0  0  0  0  0
  150.3127  137.1741  158.5778 H   0  0  0  0  0  0  0  0  0  0  0  0
  148.1342  135.0421  158.7279 H   0  0  0  0  0  0  0  0  0  0  0  0
  147.9582  138.0488  159.0462 H   0  0  0  0  0  0  0  0  0  0  0  0
  147.0644  137.0630  157.9045 H   0  0  0  0  0  0  0  0  0  0  0  0
  145.8833  137.7690  160.2224 H   0  0  0  0  0  0  0  0  0  0  0  0
  145.7233  136.0899  159.6764 H   0  0  0  0  0  0  0  0  0  0  0  0
  149.2320  134.8574  160.8452 H   0  0  0  0  0  0  0  0  0  0  0  0
  149.6407  136.5790  160.8749 H   0  0  0  0  0  0  0  0  0  0  0  0
  150.1483  139.0778  153.2513 H   0  0  0  0  0  0  0  0  0  0  0  0
  1  2  1  0  0  0  0
  1 28  1  0  0  0  0
  1 29  1  0  0  0  0
  1 30  1  0  0  0  0
  2  6  1  0  0  0  0
  2  3  1  0  0  0  0
  2 31  1  0  0  0  0
  3  4  1  0  0  0  0
  4  5  1  0  0  0  0
  4 32  1  0  0  0  0
  4 33  1  0  0  0  0
  5  6  1  0  0  0  0
  5 34  1  0  0  0  0
  5 35  1  0  0  0  0
  6  7  1  0  0  0  0
  6  8  1  0  0  0  0
  7 36  1  0  0  0  0
  8  9  1  0  0  0  0
  8 37  1  0  0  0  0
  8 38  1  0  0  0  0
  9 27  1  0  0  0  0
  9 10  1  0  0  0  0
 10 11  2  0  0  0  0
 10 39  1  0  0  0  0
 11 12  1  0  0  0  0
 12 27  2  0  0  0  0
 12 13  1  0  0  0  0
 13 14  1  0  0  0  0
 13 24  2  0  0  0  0
 14 15  1  0  0  0  0
 14 16  1  0  0  0  0
 15 40  1  0  0  0  0
 15 41  1  0  0  0  0
 15 42  1  0  0  0  0
 16 17  1  0  0  0  0
 16 43  1  0  0  0  0
 16 44  1  0  0  0  0
 17 23  1  0  0  0  0
 17 18  1  0  0  0  0
 17 45  1  0  0  0  0
 18 19  1  0  0  0  0
 18 46  1  0  0  0  0
 18 47  1  0  0  0  0
 19 20  1  0  0  0  0
 19 48  1  0  0  0  0
 19 49  1  0  0  0  0
 20 21  2  0  0  0  0
 20 22  2  0  0  0  0
 20 23  1  0  0  0  0
 23 50  1  0  0  0  0
 23 51  1  0  0  0  0
 24 25  1  0  0  0  0
 25 26  2  0  0  0  0
 25 52  1  0  0  0  0
 26 27  1  0  0  0  0
M  END
> <s_m_source_file>
AV-unprocessed.smi

> <i_m_source_file_index>
266

> <i_lp_mmshare_version>
43012

> <i_f3d_flags>
0

> <s_epik_input>
W0NIMl0xW0NIMl1PW0NAQEhdKFtDSDNdKVtDQEBdMShbT0hdKVtDSDJdbihbY0hdbjIpYyhjMjMpbltjSF1uYzNOKFtDSDNdKVtDSDJdW0NAQEhdKFtDSDJdNClbQ0gyXVtDSDJdUzQoPU8pPU8=

> <s_epik_cmdline>
J2VwaWtfcHl0aG9uJywgJy1waCcsICc3LjAnLCAnLXRuJywgJzgnLCAnLW1hJywgJzIwMCcsICctbWV0YWxfYmluZGluZycsICctaW1hZScsICc8aW5maWxlLm1hZT4nLCAnLW9tYWUnLCAnPG91dGZpbGUubWFlPic=

> <r_lp_tautomer_probability>
1

> <r_epik_Ionization_Penalty>
0.00155497

> <r_epik_Ionization_Penalty_Charging>
0

> <r_epik_Ionization_Penalty_Neutral>
0.00155497

> <r_epik_State_Penalty>
-0

> <r_epik_Charging_Adjusted_Penalty>
0

> <i_epik_Tot_Q>
0

> <i_epik_Tot_abs_Q>
0

> <r_epik_Metal_State_Penalty>
-0

> <b_epik_Metal_Only>
0

> <s_lp_Force_Field>
OPLS_2005

> <r_lp_Energy>
29.5809

> <b_lp_Chiralities_Consistent>
1

> <s_lp_Variant>
AV-unprocessed.smi:266-1

> <Gold.Version>
5.8.1

> <Gold.Id.Protein>
6NUR|6NUR_protein|mol2

> <Gold.PLP.Fitness>
43.9457

> <Gold.PLP.PLP>
-32.6600

> <Gold.PLP.part.hbond>
-4.8407

> <Gold.PLP.part.metal>
0.0000

> <Gold.PLP.part.buried>
-4.9129

> <Gold.PLP.part.nonpolar>
-23.0197

> <Gold.PLP.part.repulsive>
0.3009

> <Gold.PLP.ligand.clash>
0.0000

> <Gold.PLP.ligand.torsion>
1.0716

> <Gold.PLP.Chemscore.Hbond>
3.2743

> <Gold.PLP.Chemscore.CHOScore>
1.0000

> <Gold.PLP.Chemscore.Metal>
0.0000

> <Gold.Chemscore.Hbonds>
donor molecule, donor type, donor heavy atom, donor atom, acceptor molecule, acceptor atom, score
      L1  H     7    36       P1  8028  1.00
      P1  H  6931  6943       L1    21  0.78
      P1  H  6934  6947       L1    21  0.26
      P1  H  7989  7998       L1    26  1.00
      L1  C    25    52       P1  7957  1.00

> <Gold.PLP.Chemscore.Internal.Correction>
0.6063

> <Gold.Rescore>
     Score         DG    S(hbond)    S(metal)    S(lipo)     H(rot)  DE(clash)    DE(int)     intcor
     12.98     -18.23       2.99        0.00      77.07       2.45       1.81       3.44       ----

> <Gold.Chemscore.Fitness>
12.9807

> <Gold.Chemscore.DG>
-18.2287

> <Gold.Chemscore.ZeroCoef>
-5.4800

> <Gold.Chemscore.Hbond>
2.9930

> <Gold.Chemscore.Metal>
0.0000

> <Gold.Chemscore.Lipo>
77.0665

> <Gold.Chemscore.Internal_Hbond>
0.0000

> <Gold.Chemscore.DEClash>
1.8130

> <Gold.Chemscore.DEInternal>
3.4351

> <Gold.Chemscore.Rot>
2.4471

> <Gold.Chemscore.Internal.Correction>
   9.000000E+99

> <Gold.Chemscore.Hbonds>
donor molecule, donor type, donor heavy atom, donor atom, acceptor molecule, acceptor atom, score
      L1  H     7    36       P1  8028  0.96
      P1  H  6931  6943       L1    21  0.64
      P1  H  6934  6947       L1    21  0.06
      P1  H  7989  7998       L1    26  0.30

> <Gold.Chemscore.Hbond.Weighted>
-9.9965

> <Gold.Chemscore.Metal.Weighted>
-0.0000

> <Gold.Chemscore.Lipo.Weighted>
-9.0168

> <Gold.Chemscore.Internal_Hbond.Weighted>
0.0000

> <Gold.Chemscore.DEClash.Weighted>
1.8130

> <Gold.Chemscore.DEInternal.Weighted>
3.4351

> <Gold.Chemscore.Rot.Weighted>
6.2645

> <Gold.Chemscore.Internal.Correction.Weighted>
   9.000000E+99

> <Gold.Protein.RotatedTorsions>
[ 6907 6896 6895 6894 ] final   38.77 input  -60.11 | X-H torsion
[ 7974 7965 7964 7962 ] final  113.33 input  175.53 | X-H torsion
[ 8008 7997 7996 7995 ] final -123.87 input   59.86 | X-H torsion
[ 10167 10162 10161 10158 ] final   32.56 input  -65.29 | X-H torsion
[ 10718 10713 10712 10709 ] final   86.89 input   66.30 | X-H torsion
[ 10763 10752 10751 10750 ] final  128.70 input  -60.55 | X-H torsion
[ 11005 11000 10999 10996 ] final -118.18 input  -57.11 | X-H torsion

> <Gold.Protein.ActiveResidues>
 VAL166  LYS551  ARG553  GLY616  TRP617  ASP618  TYR619  PRO620  LYS621  CYS622 
 ASP623  PHE694  ASN695  SER759  ASP760  ASP761  ALA762  ILE779  LEU786  VAL792 
 PHE793  MET794  SER795  GLU796  ALA797  LYS798  CYS799  TRP800  GLU811  SER814 

> <Gold.Protein.RotatedAtoms>
  152.1608  134.8913  160.0541 H   0  0  0  0  0  0  0  0  0  0  0  0  # atno 6907 bound_to 6896
  151.9910  133.3786  159.4152 H   0  0  0  0  0  0  0  0  0  0  0  0  # atno 6908 bound_to 6896
  150.6887  134.3859  159.5099 H   0  0  0  0  0  0  0  0  0  0  0  0  # atno 6909 bound_to 6896
  145.2183  139.2874  143.4231 H   0  0  0  0  0  0  0  0  0  0  0  0  # atno 7974 bound_to 7965
  155.1876  140.0412  157.2894 H   0  0  0  0  0  0  0  0  0  0  0  0  # atno 8008 bound_to 7997
  154.6161  140.2489  155.7580 H   0  0  0  0  0  0  0  0  0  0  0  0  # atno 8009 bound_to 7997
  156.2407  140.2904  156.0446 H   0  0  0  0  0  0  0  0  0  0  0  0  # atno 8010 bound_to 7997
  140.4487  144.1080  150.6187 H   0  0  0  0  0  0  0  0  0  0  0  0  # atno 10167 bound_to 10162
  157.6934  131.0233  150.3041 H   0  0  0  0  0  0  0  0  0  0  0  0  # atno 10718 bound_to 10713
  153.7299  135.3240  155.3283 H   0  0  0  0  0  0  0  0  0  0  0  0  # atno 10763 bound_to 10752
  154.8329  135.4519  154.1133 H   0  0  0  0  0  0  0  0  0  0  0  0  # atno 10764 bound_to 10752
  153.2277  135.6956  153.8007 H   0  0  0  0  0  0  0  0  0  0  0  0  # atno 10765 bound_to 10752
  141.0303  133.9991  157.3152 H   0  0  0  0  0  0  0  0  0  0  0  0  # atno 11005 bound_to 11000
  146.3382  140.2481  142.8597 LP  0  0  0  0  0  0  0  0  0  0  0  0  # atno 17320 bound_to 7965
  144.9789  140.8441  143.5409 LP  0  0  0  0  0  0  0  0  0  0  0  0  # atno 17321 bound_to 7965
  140.4233  143.2601  151.9688 LP  0  0  0  0  0  0  0  0  0  0  0  0  # atno 17342 bound_to 10162
  139.4795  144.5811  151.7931 LP  0  0  0  0  0  0  0  0  0  0  0  0  # atno 17343 bound_to 10162
  156.3552  130.3837  149.7296 LP  0  0  0  0  0  0  0  0  0  0  0  0  # atno 17370 bound_to 10713
  156.4761  130.8019  151.3035 LP  0  0  0  0  0  0  0  0  0  0  0  0  # atno 17371 bound_to 10713
  139.9203  135.0200  156.8041 LP  0  0  0  0  0  0  0  0  0  0  0  0  # atno 17394 bound_to 11000
  140.6418  133.9811  155.7711 LP  0  0  0  0  0  0  0  0  0  0  0  0  # atno 17395 bound_to 11000

$$$$
