AV-unprocessed.smi:1410|AV-procd|sdf|5729|dock5
  -GOLD-   22720 5363D 1   1.00000     0.00000
 Structure written by MMmdl.
 39 40  0  0  0  0  0  0  0  0  1 V2000
  143.9395  137.4406  152.3309 N   0  0  0  0  0  0  0  0  0  0  0  0
  145.1589  137.3630  152.8695 C   0  0  0  0  0  0  0  0  0  0  0  0
  145.4198  136.5989  153.7963 O   0  0  0  0  0  0  0  0  0  0  0  0
  146.2463  138.2681  152.2774 C   0  0  0  0  0  0  0  0  0  0  0  0
  146.8485  139.2148  153.2437 N   0  0  0  0  0  0  0  0  0  0  0  0
  147.0817  140.5015  152.5793 C   0  0  0  0  0  0  0  0  0  0  0  0
  147.5826  141.5499  153.5882 C   0  0  0  0  0  0  0  0  0  0  0  0
  148.8765  141.0854  154.2705 C   0  0  0  0  0  0  0  0  0  0  0  0
  149.2681  142.0425  155.3010 N   0  0  0  0  0  0  0  0  0  0  0  0
  150.1871  141.8206  156.2519 C   0  0  0  0  0  0  0  0  0  0  0  0
  150.8108  140.7645  156.3577 O   0  0  0  0  0  0  0  0  0  0  0  0
  150.3096  142.8841  157.0654 N   0  0  0  0  0  0  0  0  0  0  0  0
  151.1716  143.0566  158.1827 C   0  0  0  0  0  0  0  0  0  0  0  0
  151.3296  144.3617  158.6934 C   0  0  0  0  0  0  0  0  0  0  0  0
  152.1912  144.5629  159.7903 C   0  0  0  0  0  0  0  0  0  0  0  0
  152.8871  143.5678  160.3790 N   0  0  0  0  0  0  0  0  0  0  0  0
  152.7461  142.3214  159.8803 C   0  0  0  0  0  0  0  0  0  0  0  0
  151.9109  142.0117  158.7881 C   0  0  0  0  0  0  0  0  0  0  0  0
  148.6476  139.6906  154.8753 C   0  0  0  0  0  0  0  0  0  0  0  0
  148.1005  138.7080  153.8250 C   0  0  0  0  0  0  0  0  0  0  0  0
  143.1968  136.8586  152.6900 H   0  0  0  0  0  0  0  0  0  0  0  0
  143.7644  138.0762  151.5662 H   0  0  0  0  0  0  0  0  0  0  0  0
  147.0297  137.6568  151.8246 H   0  0  0  0  0  0  0  0  0  0  0  0
  145.7835  138.8281  151.4633 H   0  0  0  0  0  0  0  0  0  0  0  0
  147.8007  140.3853  151.7662 H   0  0  0  0  0  0  0  0  0  0  0  0
  146.1535  140.8603  152.1326 H   0  0  0  0  0  0  0  0  0  0  0  0
  147.7489  142.5002  153.0797 H   0  0  0  0  0  0  0  0  0  0  0  0
  146.8084  141.7301  154.3361 H   0  0  0  0  0  0  0  0  0  0  0  0
  149.6622  141.0247  153.5146 H   0  0  0  0  0  0  0  0  0  0  0  0
  148.7990  142.9365  155.2910 H   0  0  0  0  0  0  0  0  0  0  0  0
  149.6697  143.6460  156.8948 H   0  0  0  0  0  0  0  0  0  0  0  0
  150.7985  145.1963  158.2593 H   0  0  0  0  0  0  0  0  0  0  0  0
  152.3264  145.5512  160.2041 H   0  0  0  0  0  0  0  0  0  0  0  0
  153.3222  141.5458  160.3629 H   0  0  0  0  0  0  0  0  0  0  0  0
  151.8663  140.9929  158.4355 H   0  0  0  0  0  0  0  0  0  0  0  0
  149.5794  139.3018  155.2875 H   0  0  0  0  0  0  0  0  0  0  0  0
  147.9458  139.7562  155.7082 H   0  0  0  0  0  0  0  0  0  0  0  0
  147.9427  137.7475  154.3153 H   0  0  0  0  0  0  0  0  0  0  0  0
  148.8403  138.5434  153.0397 H   0  0  0  0  0  0  0  0  0  0  0  0
  1  2  1  0  0  0  0
  1 21  1  0  0  0  0
  1 22  1  0  0  0  0
  2  3  2  0  0  0  0
  2  4  1  0  0  0  0
  4  5  1  0  0  0  0
  4 23  1  0  0  0  0
  4 24  1  0  0  0  0
  5 20  1  0  0  0  0
  5  6  1  0  0  0  0
  6  7  1  0  0  0  0
  6 25  1  0  0  0  0
  6 26  1  0  0  0  0
  7  8  1  0  0  0  0
  7 27  1  0  0  0  0
  7 28  1  0  0  0  0
  8  9  1  0  0  0  0
  8 19  1  0  0  0  0
  8 29  1  0  0  0  0
  9 10  1  0  0  0  0
  9 30  1  0  0  0  0
 10 11  2  0  0  0  0
 10 12  1  0  0  0  0
 12 13  1  0  0  0  0
 12 31  1  0  0  0  0
 13 18  1  0  0  0  0
 13 14  2  0  0  0  0
 14 15  1  0  0  0  0
 14 32  1  0  0  0  0
 15 16  2  0  0  0  0
 15 33  1  0  0  0  0
 16 17  1  0  0  0  0
 17 18  2  0  0  0  0
 17 34  1  0  0  0  0
 18 35  1  0  0  0  0
 19 20  1  0  0  0  0
 19 36  1  0  0  0  0
 19 37  1  0  0  0  0
 20 38  1  0  0  0  0
 20 39  1  0  0  0  0
M  END
> <s_m_source_file>
AV-unprocessed.smi

> <i_m_source_file_index>
1410

> <i_lp_mmshare_version>
43012

> <i_f3d_flags>
0

> <s_epik_input>
W05IMl1DKD1PKVtDSDJdTjFbQ0gyXVtDSDJdW0NIXShbQ0gyXVtDSDJdMSlbTkhdQyg9TylbTkhdYzJbY0hdW2NIXW5bY0hdW2NIXTI=

> <s_epik_cmdline>
J2VwaWtfcHl0aG9uJywgJy1waCcsICc3LjAnLCAnLXRuJywgJzgnLCAnLW1hJywgJzIwMCcsICctbWV0YWxfYmluZGluZycsICctaW1hZScsICc8aW5maWxlLm1hZT4nLCAnLW9tYWUnLCAnPG91dGZpbGUubWFlPic=

> <r_epik_Ionization_Penalty>
0.286942

> <r_epik_Ionization_Penalty_Charging>
0

> <r_epik_Ionization_Penalty_Neutral>
0.286942

> <r_epik_State_Penalty>
0.264061

> <r_epik_Charging_Adjusted_Penalty>
0.264061

> <i_epik_Tot_Q>
0

> <i_epik_Tot_abs_Q>
0

> <r_epik_Metal_State_Penalty>
0.256326

> <b_epik_Metal_Only>
0

> <s_lp_Force_Field>
OPLS_2005

> <r_lp_Energy>
16.89

> <b_lp_Chiralities_Consistent>
1

> <s_lp_Variant>
AV-unprocessed.smi:1410-1

> <Gold.Version>
5.8.1

> <Gold.Id.Protein>
6NUR|6NUR_protein|mol2

> <Gold.PLP.Fitness>
45.0639

> <Gold.PLP.PLP>
-37.4980

> <Gold.PLP.part.hbond>
-4.0000

> <Gold.PLP.part.metal>
0.0000

> <Gold.PLP.part.buried>
-5.0278

> <Gold.PLP.part.nonpolar>
-30.2320

> <Gold.PLP.part.repulsive>
0.6019

> <Gold.PLP.ligand.clash>
0.0000

> <Gold.PLP.ligand.torsion>
0.7245

> <Gold.PLP.Chemscore.Hbond>
3.0000

> <Gold.PLP.Chemscore.CHOScore>
0.0000

> <Gold.PLP.Chemscore.Metal>
0.0000

> <Gold.Chemscore.Hbonds>
donor molecule, donor type, donor heavy atom, donor atom, acceptor molecule, acceptor atom, score
      L1  H     1    22       P1 10171  1.00
      L1  H     9    30       P1  8028  0.96
      L1  H    12    31       P1  8028  0.94

> <Gold.PLP.Chemscore.Internal.Correction>
0.0148

> <Gold.Rescore>
     Score         DG    S(hbond)    S(metal)    S(lipo)     H(rot)  DE(clash)    DE(int)     intcor
     17.19     -21.06       2.74        0.00      97.26       1.94       0.89       2.98       ----

> <Gold.Chemscore.Fitness>
17.1926

> <Gold.Chemscore.DG>
-21.0614

> <Gold.Chemscore.ZeroCoef>
-5.4800

> <Gold.Chemscore.Hbond>
2.7442

> <Gold.Chemscore.Metal>
0.0000

> <Gold.Chemscore.Lipo>
97.2586

> <Gold.Chemscore.Internal_Hbond>
0.0000

> <Gold.Chemscore.DEClash>
0.8920

> <Gold.Chemscore.DEInternal>
2.9768

> <Gold.Chemscore.Rot>
1.9389

> <Gold.Chemscore.Internal.Correction>
   9.000000E+99

> <Gold.Chemscore.Hbonds>
donor molecule, donor type, donor heavy atom, donor atom, acceptor molecule, acceptor atom, score
      L1  H     1    22       P1 10171  0.96
      L1  H     9    30       P1  8028  0.92
      L1  H    12    31       P1  8028  0.90

> <Gold.Chemscore.Hbond.Weighted>
-9.1658

> <Gold.Chemscore.Metal.Weighted>
-0.0000

> <Gold.Chemscore.Lipo.Weighted>
-11.3793

> <Gold.Chemscore.Internal_Hbond.Weighted>
0.0000

> <Gold.Chemscore.DEClash.Weighted>
0.8920

> <Gold.Chemscore.DEInternal.Weighted>
2.9768

> <Gold.Chemscore.Rot.Weighted>
4.9636

> <Gold.Chemscore.Internal.Correction.Weighted>
   9.000000E+99

> <Gold.Protein.RotatedTorsions>
[ 6907 6896 6895 6894 ] final  -38.63 input  -60.11 | X-H torsion
[ 7974 7965 7964 7962 ] final  -64.55 input  175.53 | X-H torsion
[ 8008 7997 7996 7995 ] final  -76.54 input   59.86 | X-H torsion
[ 10167 10162 10161 10158 ] final -140.43 input  -65.29 | X-H torsion
[ 10718 10713 10712 10709 ] final  -14.10 input   66.30 | X-H torsion
[ 10763 10752 10751 10750 ] final  120.29 input  -60.55 | X-H torsion
[ 11005 11000 10999 10996 ] final   99.25 input  -57.11 | X-H torsion

> <Gold.Protein.ActiveResidues>
 VAL166  LYS551  ARG553  GLY616  TRP617  ASP618  TYR619  PRO620  LYS621  CYS622 
 ASP623  PHE694  ASN695  SER759  ASP760  ASP761  ALA762  ILE779  LEU786  VAL792 
 PHE793  MET794  SER795  GLU796  ALA797  LYS798  CYS799  TRP800  GLU811  SER814 

> <Gold.Protein.RotatedAtoms>
  151.0001  134.9315  159.7948 H   0  0  0  0  0  0  0  0  0  0  0  0  # atno 6907 bound_to 6896
  152.5275  134.3166  159.9143 H   0  0  0  0  0  0  0  0  0  0  0  0  # atno 6908 bound_to 6896
  151.3172  133.4014  159.2686 H   0  0  0  0  0  0  0  0  0  0  0  0  # atno 6909 bound_to 6896
  145.7654  140.8840  143.0408 H   0  0  0  0  0  0  0  0  0  0  0  0  # atno 7974 bound_to 7965
  154.5514  140.0725  156.8674 H   0  0  0  0  0  0  0  0  0  0  0  0  # atno 8008 bound_to 7997
  155.2986  140.3382  155.4230 H   0  0  0  0  0  0  0  0  0  0  0  0  # atno 8009 bound_to 7997
  156.1964  140.1705  156.7974 H   0  0  0  0  0  0  0  0  0  0  0  0  # atno 8010 bound_to 7997
  139.8282  143.7482  152.2666 H   0  0  0  0  0  0  0  0  0  0  0  0  # atno 10167 bound_to 10162
  156.6207  130.4875  149.6165 H   0  0  0  0  0  0  0  0  0  0  0  0  # atno 10718 bound_to 10713
  153.5963  135.3456  155.2929 H   0  0  0  0  0  0  0  0  0  0  0  0  # atno 10763 bound_to 10752
  154.8644  135.4217  154.2461 H   0  0  0  0  0  0  0  0  0  0  0  0  # atno 10764 bound_to 10752
  153.3280  135.7042  153.7044 H   0  0  0  0  0  0  0  0  0  0  0  0  # atno 10765 bound_to 10752
  139.8771  134.9087  156.4578 H   0  0  0  0  0  0  0  0  0  0  0  0  # atno 11005 bound_to 11000
  144.6822  139.9780  143.7483 LP  0  0  0  0  0  0  0  0  0  0  0  0  # atno 17320 bound_to 7965
  146.0223  139.3262  143.0805 LP  0  0  0  0  0  0  0  0  0  0  0  0  # atno 17321 bound_to 7965
  139.7682  144.7485  151.0264 LP  0  0  0  0  0  0  0  0  0  0  0  0  # atno 17342 bound_to 10162
  140.7808  143.4675  151.0192 LP  0  0  0  0  0  0  0  0  0  0  0  0  # atno 17343 bound_to 10162
  156.2314  130.6796  151.1467 LP  0  0  0  0  0  0  0  0  0  0  0  0  # atno 17370 bound_to 10713
  157.7228  131.0670  150.6062 LP  0  0  0  0  0  0  0  0  0  0  0  0  # atno 17371 bound_to 10713
  140.8886  133.7865  155.9546 LP  0  0  0  0  0  0  0  0  0  0  0  0  # atno 17394 bound_to 11000
  140.8778  134.2648  157.5159 LP  0  0  0  0  0  0  0  0  0  0  0  0  # atno 17395 bound_to 11000

$$$$
