AV-unprocessed.smi:148|AV-procd|sdf|1210|dock3
  -GOLD-   2262018383D 1   1.00000     0.00000
 Structure written by MMmdl.
 63 67  0  0  0  0  0  0  0  0  1 V2000
  153.4718  140.0162  158.4981 O   0  0  0  0  0  0  0  0  0  0  0  0
  152.7206  140.3478  159.6486 C   0  0  0  0  0  0  0  0  0  0  0  0
  151.2766  140.7679  159.2879 C   0  0  2  0  0  0  0  0  0  0  0  0
  150.7523  139.8579  158.1458 C   0  0  0  0  0  0  0  0  0  0  0  0
  150.5189  138.4833  158.5462 N   0  0  0  0  0  0  0  0  0  0  0  0
  151.0901  137.8300  159.6154 C   0  0  0  0  0  0  0  0  0  0  0  0
  150.6881  136.6018  159.7954 N   0  0  0  0  0  0  0  0  0  0  0  0
  149.7883  136.3900  158.7591 C   0  0  0  0  0  0  0  0  0  0  0  0
  148.9571  135.3044  158.3837 C   0  0  0  0  0  0  0  0  0  0  0  0
  148.8860  134.1763  159.1244 N   0  0  0  0  0  0  0  0  0  0  0  0
  149.5452  133.0615  158.4450 C   0  0  0  0  0  0  0  0  0  0  0  0
  149.7000  131.8549  159.3792 C   0  0  0  0  0  0  0  0  0  0  0  0
  148.3382  131.4501  159.9526 C   0  0  0  0  0  0  0  0  0  0  0  0
  147.6875  132.6482  160.6573 C   0  0  0  0  0  0  0  0  0  0  0  0
  147.5680  133.8786  159.7176 C   0  0  1  0  0  0  0  0  0  0  0  0
  146.9052  135.1248  160.4029 C   0  0  2  0  0  0  0  0  0  0  0  0
  147.8301  135.8665  161.3970 C   0  0  0  0  0  0  0  0  0  0  0  0
  147.0935  135.9277  162.7422 C   0  0  0  0  0  0  0  0  0  0  0  0
  146.0146  134.8491  162.6670 C   0  0  0  0  0  0  0  0  0  0  0  0
  145.6038  134.8706  161.1960 C   0  0  2  0  0  0  0  0  0  0  0  0
  144.8674  133.7301  160.8035 O   0  0  0  0  0  0  0  0  0  0  0  0
  148.1841  135.4423  157.2741 N   0  0  0  0  0  0  0  0  0  0  0  0
  148.2121  136.5870  156.5844 C   0  0  0  0  0  0  0  0  0  0  0  0
  148.9135  137.6957  156.8339 N   0  0  0  0  0  0  0  0  0  0  0  0
  149.6941  137.5502  157.9434 C   0  0  0  0  0  0  0  0  0  0  0  0
  151.1492  142.2968  159.0093 C   0  0  2  0  0  0  0  0  0  0  0  0
  151.4900  142.7133  157.5862 C   0  0  0  0  0  0  0  0  0  0  0  0
  151.7314  144.2077  157.7367 C   0  0  0  0  0  0  0  0  0  0  0  0
  152.4210  144.3233  158.9707 O   0  0  0  0  0  0  0  0  0  0  0  0
  152.0987  143.2132  159.8034 C   0  0  0  0  0  0  0  0  0  0  0  0
  153.0862  140.4483  157.7511 H   0  0  0  0  0  0  0  0  0  0  0  0
  152.7100  139.4856  160.3160 H   0  0  0  0  0  0  0  0  0  0  0  0
  153.2382  141.1400  160.1892 H   0  0  0  0  0  0  0  0  0  0  0  0
  150.6763  140.5519  160.1726 H   0  0  0  0  0  0  0  0  0  0  0  0
  149.8275  140.2637  157.7352 H   0  0  0  0  0  0  0  0  0  0  0  0
  151.4685  139.8388  157.3235 H   0  0  0  0  0  0  0  0  0  0  0  0
  151.7987  138.3056  160.2780 H   0  0  0  0  0  0  0  0  0  0  0  0
  148.9626  132.7747  157.5683 H   0  0  0  0  0  0  0  0  0  0  0  0
  150.5277  133.3734  158.0871 H   0  0  0  0  0  0  0  0  0  0  0  0
  150.1453  131.0184  158.8402 H   0  0  0  0  0  0  0  0  0  0  0  0
  150.3839  132.1040  160.1916 H   0  0  0  0  0  0  0  0  0  0  0  0
  147.6894  131.0963  159.1506 H   0  0  0  0  0  0  0  0  0  0  0  0
  148.4549  130.6209  160.6507 H   0  0  0  0  0  0  0  0  0  0  0  0
  146.7097  132.3391  161.0221 H   0  0  0  0  0  0  0  0  0  0  0  0
  148.2766  132.8969  161.5397 H   0  0  0  0  0  0  0  0  0  0  0  0
  146.9227  133.5851  158.8882 H   0  0  0  0  0  0  0  0  0  0  0  0
  146.6219  135.8268  159.6182 H   0  0  0  0  0  0  0  0  0  0  0  0
  148.7866  135.3581  161.5142 H   0  0  0  0  0  0  0  0  0  0  0  0
  148.0597  136.8720  161.0430 H   0  0  0  0  0  0  0  0  0  0  0  0
  147.7628  135.7876  163.5912 H   0  0  0  0  0  0  0  0  0  0  0  0
  146.6228  136.9055  162.8528 H   0  0  0  0  0  0  0  0  0  0  0  0
  146.4374  133.8820  162.9395 H   0  0  0  0  0  0  0  0  0  0  0  0
  145.1786  135.0474  163.3385 H   0  0  0  0  0  0  0  0  0  0  0  0
  144.9483  135.7312  161.0527 H   0  0  0  0  0  0  0  0  0  0  0  0
  144.0022  134.0069  160.5429 H   0  0  0  0  0  0  0  0  0  0  0  0
  147.5730  136.6241  155.7145 H   0  0  0  0  0  0  0  0  0  0  0  0
  150.1237  142.6111  159.2107 H   0  0  0  0  0  0  0  0  0  0  0  0
  152.4038  142.2214  157.2497 H   0  0  0  0  0  0  0  0  0  0  0  0
  150.6967  142.4925  156.8714 H   0  0  0  0  0  0  0  0  0  0  0  0
  152.3076  144.6292  156.9127 H   0  0  0  0  0  0  0  0  0  0  0  0
  150.7843  144.7446  157.8050 H   0  0  0  0  0  0  0  0  0  0  0  0
  151.6460  143.5693  160.7280 H   0  0  0  0  0  0  0  0  0  0  0  0
  153.0293  142.7042  160.0553 H   0  0  0  0  0  0  0  0  0  0  0  0
  1  2  1  0  0  0  0
  1 31  1  0  0  0  0
  2  3  1  0  0  0  0
  2 32  1  0  0  0  0
  2 33  1  0  0  0  0
  3  4  1  0  0  0  0
  3 26  1  0  0  0  0
  3 34  1  0  0  0  0
  4  5  1  0  0  0  0
  4 35  1  0  0  0  0
  4 36  1  0  0  0  0
  5 25  1  0  0  0  0
  5  6  1  0  0  0  0
  6  7  2  0  0  0  0
  6 37  1  0  0  0  0
  7  8  1  0  0  0  0
  8 25  2  0  0  0  0
  8  9  1  0  0  0  0
  9 10  1  0  0  0  0
  9 22  2  0  0  0  0
 10 15  1  0  0  0  0
 10 11  1  0  0  0  0
 11 12  1  0  0  0  0
 11 38  1  0  0  0  0
 11 39  1  0  0  0  0
 12 13  1  0  0  0  0
 12 40  1  0  0  0  0
 12 41  1  0  0  0  0
 13 14  1  0  0  0  0
 13 42  1  0  0  0  0
 13 43  1  0  0  0  0
 14 15  1  0  0  0  0
 14 44  1  0  0  0  0
 14 45  1  0  0  0  0
 15 16  1  0  0  0  0
 15 46  1  0  0  0  0
 16 20  1  0  0  0  0
 16 17  1  0  0  0  0
 16 47  1  0  0  0  0
 17 18  1  0  0  0  0
 17 48  1  0  0  0  0
 17 49  1  0  0  0  0
 18 19  1  0  0  0  0
 18 50  1  0  0  0  0
 18 51  1  0  0  0  0
 19 20  1  0  0  0  0
 19 52  1  0  0  0  0
 19 53  1  0  0  0  0
 20 21  1  0  0  0  0
 20 54  1  0  0  0  0
 21 55  1  0  0  0  0
 22 23  1  0  0  0  0
 23 24  2  0  0  0  0
 23 56  1  0  0  0  0
 24 25  1  0  0  0  0
 26 30  1  0  0  0  0
 26 27  1  0  0  0  0
 26 57  1  0  0  0  0
 27 28  1  0  0  0  0
 27 58  1  0  0  0  0
 27 59  1  0  0  0  0
 28 29  1  0  0  0  0
 28 60  1  0  0  0  0
 28 61  1  0  0  0  0
 29 30  1  0  0  0  0
 30 62  1  0  0  0  0
 30 63  1  0  0  0  0
M  END
> <s_m_source_file>
AV-unprocessed.smi

> <i_m_source_file_index>
148

> <i_lp_mmshare_version>
43012

> <i_f3d_flags>
0

> <s_epik_input>
W0NIMl0xT1tDSDJdW0NIMl1bQ0BIXTFbQ0BIXShbQ0gyXVtPSF0pW0NIMl1uKFtjSF1uMiljKGMyMyluW2NIXW5jM040W0NIMl1bQ0gyXVtDSDJdW0NIMl1bQ0BIXTRbQ0BASF01W0NIMl1bQ0gyXVtDSDJdW0NASF01W09IXQ==

> <s_epik_cmdline>
J2VwaWtfcHl0aG9uJywgJy1waCcsICc3LjAnLCAnLXRuJywgJzgnLCAnLW1hJywgJzIwMCcsICctbWV0YWxfYmluZGluZycsICctaW1hZScsICc8aW5maWxlLm1hZT4nLCAnLW9tYWUnLCAnPG91dGZpbGUubWFlPic=

> <r_lp_tautomer_probability>
1

> <r_epik_Ionization_Penalty>
0.00556303

> <r_epik_Ionization_Penalty_Charging>
0

> <r_epik_Ionization_Penalty_Neutral>
0.00556303

> <r_epik_State_Penalty>
0.00401767

> <r_epik_Charging_Adjusted_Penalty>
0.00401767

> <i_epik_Tot_Q>
0

> <i_epik_Tot_abs_Q>
0

> <r_epik_Metal_State_Penalty>
-0

> <b_epik_Metal_Only>
0

> <s_lp_Force_Field>
OPLS_2005

> <r_lp_Energy>
71.2164

> <b_lp_Chiralities_Consistent>
1

> <s_lp_Variant>
AV-unprocessed.smi:148-9

> <Gold.Version>
5.8.1

> <Gold.Id.Protein>
6NUR|6NUR_protein|mol2

> <Gold.PLP.Fitness>
45.7587

> <Gold.PLP.PLP>
-42.4188

> <Gold.PLP.part.hbond>
-2.0506

> <Gold.PLP.part.metal>
0.0000

> <Gold.PLP.part.buried>
-5.1747

> <Gold.PLP.part.nonpolar>
-35.7538

> <Gold.PLP.part.repulsive>
0.0053

> <Gold.PLP.ligand.clash>
0.1265

> <Gold.PLP.ligand.torsion>
1.4621

> <Gold.PLP.Chemscore.Hbond>
1.9920

> <Gold.PLP.Chemscore.CHOScore>
0.0000

> <Gold.PLP.Chemscore.Metal>
0.0000

> <Gold.Chemscore.Hbonds>
donor molecule, donor type, donor heavy atom, donor atom, acceptor molecule, acceptor atom, score
      P1  H  6896  6908       L1     7  0.35

> <Gold.PLP.Chemscore.Internal.Correction>
0.4146

> <Gold.Rescore>
     Score         DG    S(hbond)    S(metal)    S(lipo)     H(rot)  DE(clash)    DE(int)     intcor
     13.28     -15.56       1.57        0.00     114.10       3.32       0.07       2.22       ----

> <Gold.Chemscore.Fitness>
13.2779

> <Gold.Chemscore.DG>
-15.5645

> <Gold.Chemscore.ZeroCoef>
-5.4800

> <Gold.Chemscore.Hbond>
1.5673

> <Gold.Chemscore.Metal>
0.0000

> <Gold.Chemscore.Lipo>
114.1009

> <Gold.Chemscore.Internal_Hbond>
0.0000

> <Gold.Chemscore.DEClash>
0.0664

> <Gold.Chemscore.DEInternal>
2.2202

> <Gold.Chemscore.Rot>
3.3203

> <Gold.Chemscore.Internal.Correction>
   9.000000E+99

> <Gold.Chemscore.Hbonds>
donor molecule, donor type, donor heavy atom, donor atom, acceptor molecule, acceptor atom, score
      P1  H  6896  6908       L1     7  0.01

> <Gold.Chemscore.Hbond.Weighted>
-5.2347

> <Gold.Chemscore.Metal.Weighted>
-0.0000

> <Gold.Chemscore.Lipo.Weighted>
-13.3498

> <Gold.Chemscore.Internal_Hbond.Weighted>
0.0000

> <Gold.Chemscore.DEClash.Weighted>
0.0664

> <Gold.Chemscore.DEInternal.Weighted>
2.2202

> <Gold.Chemscore.Rot.Weighted>
8.5000

> <Gold.Chemscore.Internal.Correction.Weighted>
   9.000000E+99

> <Gold.Protein.RotatedTorsions>
[ 6907 6896 6895 6894 ] final -162.42 input  -60.11 | X-H torsion
[ 7974 7965 7964 7962 ] final  -39.73 input  175.53 | X-H torsion
[ 8008 7997 7996 7995 ] final  151.95 input   59.86 | X-H torsion
[ 10167 10162 10161 10158 ] final  -57.63 input  -65.29 | X-H torsion
[ 10718 10713 10712 10709 ] final  143.99 input   66.30 | X-H torsion
[ 10763 10752 10751 10750 ] final  122.89 input  -60.55 | X-H torsion
[ 11005 11000 10999 10996 ] final   43.11 input  -57.11 | X-H torsion

> <Gold.Protein.ActiveResidues>
 VAL166  LYS551  ARG553  GLY616  TRP617  ASP618  TYR619  PRO620  LYS621  CYS622 
 ASP623  PHE694  ASN695  SER759  ASP760  ASP761  ALA762  ILE779  LEU786  VAL792 
 PHE793  MET794  SER795  GLU796  ALA797  LYS798  CYS799  TRP800  GLU811  SER814 

> <Gold.Protein.RotatedAtoms>
  151.3800  133.3824  159.2708 H   0  0  0  0  0  0  0  0  0  0  0  0  # atno 6907 bound_to 6896
  150.9585  134.8977  159.7726 H   0  0  0  0  0  0  0  0  0  0  0  0  # atno 6908 bound_to 6896
  152.5140  134.3758  159.9386 H   0  0  0  0  0  0  0  0  0  0  0  0  # atno 6909 bound_to 6896
  146.0370  140.6659  142.9105 H   0  0  0  0  0  0  0  0  0  0  0  0  # atno 7974 bound_to 7965
  156.2651  140.2034  156.6256 H   0  0  0  0  0  0  0  0  0  0  0  0  # atno 8008 bound_to 7997
  154.6723  140.0549  157.0203 H   0  0  0  0  0  0  0  0  0  0  0  0  # atno 8009 bound_to 7997
  155.1119  140.3216  155.4522 H   0  0  0  0  0  0  0  0  0  0  0  0  # atno 8010 bound_to 7997
  140.6246  143.2433  151.5394 H   0  0  0  0  0  0  0  0  0  0  0  0  # atno 10167 bound_to 10162
  157.3625  131.0967  151.0902 H   0  0  0  0  0  0  0  0  0  0  0  0  # atno 10718 bound_to 10713
  153.6369  135.3386  155.3059 H   0  0  0  0  0  0  0  0  0  0  0  0  # atno 10763 bound_to 10752
  154.8568  135.4309  154.2046 H   0  0  0  0  0  0  0  0  0  0  0  0  # atno 10764 bound_to 10752
  153.2955  135.7020  153.7326 H   0  0  0  0  0  0  0  0  0  0  0  0  # atno 10765 bound_to 10752
  140.1675  134.4263  155.8278 H   0  0  0  0  0  0  0  0  0  0  0  0  # atno 11005 bound_to 11000
  144.7056  140.3838  143.7121 LP  0  0  0  0  0  0  0  0  0  0  0  0  # atno 17320 bound_to 7965
  145.6948  139.1647  143.2626 LP  0  0  0  0  0  0  0  0  0  0  0  0  # atno 17321 bound_to 7965
  139.5469  144.2498  152.1458 LP  0  0  0  0  0  0  0  0  0  0  0  0  # atno 17342 bound_to 10162
  140.1726  144.4921  150.6571 LP  0  0  0  0  0  0  0  0  0  0  0  0  # atno 17343 bound_to 10162
  157.2037  130.6406  149.5748 LP  0  0  0  0  0  0  0  0  0  0  0  0  # atno 17370 bound_to 10713
  155.9740  130.4682  150.6353 LP  0  0  0  0  0  0  0  0  0  0  0  0  # atno 17371 bound_to 10713
  141.2215  133.6941  156.7705 LP  0  0  0  0  0  0  0  0  0  0  0  0  # atno 17394 bound_to 11000
  140.2416  134.8609  157.3579 LP  0  0  0  0  0  0  0  0  0  0  0  0  # atno 17395 bound_to 11000

$$$$
