AV-unprocessed.smi:2679|AV-procd|sdf|10370|dock4
  -GOLD-   2272014393D 1   1.00000     0.00000
 Structure written by MMmdl.
 39 40  0  0  0  0  0  0  0  0  1 V2000
  152.4646  138.3888  154.4711 C   0  0  0  0  0  0  0  0  0  0  0  0
  151.9543  139.3176  155.5252 C   0  0  0  0  0  0  0  0  0  0  0  0
  151.2713  140.4326  155.2567 N   0  0  0  0  0  0  0  0  0  0  0  0
  150.9943  140.9957  156.4828 N   0  0  0  0  0  0  0  0  0  0  0  0
  151.5336  140.1718  157.3841 C   0  0  0  0  0  0  0  0  0  0  0  0
  151.4591  140.4473  159.1212 S   0  0  0  0  0  0  0  0  0  0  0  0
  153.0372  141.3311  159.2991 C   0  0  2  0  0  0  0  0  0  0  0  0
  153.7009  140.8473  160.5216 C   0  0  0  0  0  0  0  0  0  0  0  0
  154.2220  140.4670  161.4822 N   0  0  0  0  0  0  0  0  0  0  0  0
  152.8374  142.8637  159.2832 C   0  0  0  0  0  0  0  0  0  0  0  0
  152.1760  143.3655  160.5880 C   0  0  0  0  0  0  0  0  0  0  0  0
  151.9700  144.8887  160.5810 C   0  0  0  0  0  0  0  0  0  0  0  0
  151.1481  145.3342  159.3636 C   0  0  0  0  0  0  0  0  0  0  0  0
  151.7973  144.8524  158.0590 C   0  0  0  0  0  0  0  0  0  0  0  0
  152.0051  143.3291  158.0664 C   0  0  0  0  0  0  0  0  0  0  0  0
  152.1456  139.0985  156.8428 N   0  0  0  0  0  0  0  0  0  0  0  0
  152.8336  137.9991  157.5071 C   0  0  0  0  0  0  0  0  0  0  0  0
  151.8822  137.2206  158.4178 C   0  0  0  0  0  0  0  0  0  0  0  0
  150.7285  136.8090  157.8856 N   0  0  0  0  0  0  0  0  0  0  0  0
  152.1827  136.9970  159.5883 O   0  0  0  0  0  0  0  0  0  0  0  0
  152.2432  138.7811  153.4780 H   0  0  0  0  0  0  0  0  0  0  0  0
  151.9925  137.4112  154.5692 H   0  0  0  0  0  0  0  0  0  0  0  0
  153.5444  138.2709  154.5614 H   0  0  0  0  0  0  0  0  0  0  0  0
  153.6837  141.0538  158.4658 H   0  0  0  0  0  0  0  0  0  0  0  0
  153.8221  143.3264  159.2011 H   0  0  0  0  0  0  0  0  0  0  0  0
  151.2141  142.8695  160.7245 H   0  0  0  0  0  0  0  0  0  0  0  0
  152.7815  143.0988  161.4540 H   0  0  0  0  0  0  0  0  0  0  0  0
  151.4714  145.2002  161.4994 H   0  0  0  0  0  0  0  0  0  0  0  0
  152.9397  145.3882  160.5710 H   0  0  0  0  0  0  0  0  0  0  0  0
  150.1356  144.9351  159.4381 H   0  0  0  0  0  0  0  0  0  0  0  0
  151.0537  146.4205  159.3542 H   0  0  0  0  0  0  0  0  0  0  0  0
  151.1776  145.1382  157.2086 H   0  0  0  0  0  0  0  0  0  0  0  0
  152.7578  145.3510  157.9224 H   0  0  0  0  0  0  0  0  0  0  0  0
  152.4935  143.0405  157.1358 H   0  0  0  0  0  0  0  0  0  0  0  0
  151.0359  142.8285  158.0732 H   0  0  0  0  0  0  0  0  0  0  0  0
  153.2754  137.3451  156.7540 H   0  0  0  0  0  0  0  0  0  0  0  0
  153.6611  138.3910  158.0986 H   0  0  0  0  0  0  0  0  0  0  0  0
  150.0695  136.2878  158.4454 H   0  0  0  0  0  0  0  0  0  0  0  0
  150.5207  137.0180  156.9197 H   0  0  0  0  0  0  0  0  0  0  0  0
  1  2  1  0  0  0  0
  1 21  1  0  0  0  0
  1 22  1  0  0  0  0
  1 23  1  0  0  0  0
  2 16  1  0  0  0  0
  2  3  2  0  0  0  0
  3  4  1  0  0  0  0
  4  5  2  0  0  0  0
  5  6  1  0  0  0  0
  5 16  1  0  0  0  0
  6  7  1  0  0  0  0
  7  8  1  0  0  0  0
  7 10  1  0  0  0  0
  7 24  1  0  0  0  0
  8  9  3  0  0  0  0
 10 15  1  0  0  0  0
 10 11  1  0  0  0  0
 10 25  1  0  0  0  0
 11 12  1  0  0  0  0
 11 26  1  0  0  0  0
 11 27  1  0  0  0  0
 12 13  1  0  0  0  0
 12 28  1  0  0  0  0
 12 29  1  0  0  0  0
 13 14  1  0  0  0  0
 13 30  1  0  0  0  0
 13 31  1  0  0  0  0
 14 15  1  0  0  0  0
 14 32  1  0  0  0  0
 14 33  1  0  0  0  0
 15 34  1  0  0  0  0
 15 35  1  0  0  0  0
 16 17  1  0  0  0  0
 17 18  1  0  0  0  0
 17 36  1  0  0  0  0
 17 37  1  0  0  0  0
 18 19  1  0  0  0  0
 18 20  2  0  0  0  0
 19 38  1  0  0  0  0
 19 39  1  0  0  0  0
M  END
> <s_m_source_file>
AV-unprocessed.smi

> <i_m_source_file_index>
2679

> <i_lp_mmshare_version>
43012

> <i_f3d_flags>
0

> <s_epik_input>
W0NIM11jMW5uYyhuMVtDSDJdQyg9TylbTkgyXSlTW0NASF0oQyNOKVtDSF0yW0NIMl1bQ0gyXVtDSDJdW0NIMl1bQ0gyXTI=

> <s_epik_cmdline>
J2VwaWtfcHl0aG9uJywgJy1waCcsICc3LjAnLCAnLXRuJywgJzgnLCAnLW1hJywgJzIwMCcsICctbWV0YWxfYmluZGluZycsICctaW1hZScsICc8aW5maWxlLm1hZT4nLCAnLW9tYWUnLCAnPG91dGZpbGUubWFlPic=

> <r_lp_tautomer_probability>
1

> <r_epik_Ionization_Penalty>
1.94949e-07

> <r_epik_Ionization_Penalty_Charging>
0

> <r_epik_Ionization_Penalty_Neutral>
1.94949e-07

> <r_epik_State_Penalty>
-0

> <r_epik_Charging_Adjusted_Penalty>
0

> <i_epik_Tot_Q>
0

> <i_epik_Tot_abs_Q>
0

> <r_epik_Metal_State_Penalty>
-0

> <b_epik_Metal_Only>
0

> <s_lp_Force_Field>
OPLS_2005

> <r_lp_Energy>
7.74931

> <b_lp_Chiralities_Consistent>
1

> <s_lp_Variant>
AV-unprocessed.smi:2679-1

> <Gold.Version>
5.8.1

> <Gold.Id.Protein>
6NUR|6NUR_protein|mol2

> <Gold.PLP.Fitness>
48.2589

> <Gold.PLP.PLP>
-44.5380

> <Gold.PLP.part.hbond>
-2.0000

> <Gold.PLP.part.metal>
0.0000

> <Gold.PLP.part.buried>
-7.4235

> <Gold.PLP.part.nonpolar>
-35.3640

> <Gold.PLP.part.repulsive>
0.1490

> <Gold.PLP.ligand.clash>
0.0000

> <Gold.PLP.ligand.torsion>
1.0701

> <Gold.PLP.Chemscore.Hbond>
1.9280

> <Gold.PLP.Chemscore.CHOScore>
0.0000

> <Gold.PLP.Chemscore.Metal>
0.0000

> <Gold.Chemscore.Hbonds>
donor molecule, donor type, donor heavy atom, donor atom, acceptor molecule, acceptor atom, score
      P1  H  6896  6907       L1    20  1.00
      P1  H  7989  7998       L1     3  0.96

> <Gold.PLP.Chemscore.Internal.Correction>
0.0770

> <Gold.Rescore>
     Score         DG    S(hbond)    S(metal)    S(lipo)     H(rot)  DE(clash)    DE(int)     intcor
     15.50     -16.71       1.86        0.00      99.22       2.57       0.02       1.19       ----

> <Gold.Chemscore.Fitness>
15.5022

> <Gold.Chemscore.DG>
-16.7108

> <Gold.Chemscore.ZeroCoef>
-5.4800

> <Gold.Chemscore.Hbond>
1.8589

> <Gold.Chemscore.Metal>
0.0000

> <Gold.Chemscore.Lipo>
99.2181

> <Gold.Chemscore.Internal_Hbond>
0.0000

> <Gold.Chemscore.DEClash>
0.0226

> <Gold.Chemscore.DEInternal>
1.1860

> <Gold.Chemscore.Rot>
2.5728

> <Gold.Chemscore.Internal.Correction>
   9.000000E+99

> <Gold.Chemscore.Hbonds>
donor molecule, donor type, donor heavy atom, donor atom, acceptor molecule, acceptor atom, score
      P1  H  6896  6907       L1    20  0.54
      P1  H  7989  7998       L1     3  0.56

> <Gold.Chemscore.Hbond.Weighted>
-6.2087

> <Gold.Chemscore.Metal.Weighted>
-0.0000

> <Gold.Chemscore.Lipo.Weighted>
-11.6085

> <Gold.Chemscore.Internal_Hbond.Weighted>
0.0000

> <Gold.Chemscore.DEClash.Weighted>
0.0226

> <Gold.Chemscore.DEInternal.Weighted>
1.1860

> <Gold.Chemscore.Rot.Weighted>
6.5865

> <Gold.Chemscore.Internal.Correction.Weighted>
   9.000000E+99

> <Gold.Protein.RotatedTorsions>
[ 6907 6896 6895 6894 ] final   -1.02 input  -60.11 | X-H torsion
[ 7974 7965 7964 7962 ] final  156.07 input  175.53 | X-H torsion
[ 8008 7997 7996 7995 ] final  -83.07 input   59.86 | X-H torsion
[ 10167 10162 10161 10158 ] final  -44.60 input  -65.29 | X-H torsion
[ 10718 10713 10712 10709 ] final  -24.70 input   66.30 | X-H torsion
[ 10763 10752 10751 10750 ] final  -83.03 input  -60.55 | X-H torsion
[ 11005 11000 10999 10996 ] final   18.43 input  -57.11 | X-H torsion

> <Gold.Protein.ActiveResidues>
 VAL166  LYS551  ARG553  GLY616  TRP617  ASP618  TYR619  PRO620  LYS621  CYS622 
 ASP623  PHE694  ASN695  SER759  ASP760  ASP761  ALA762  ILE779  LEU786  VAL792 
 PHE793  MET794  SER795  GLU796  ALA797  LYS798  CYS799  TRP800  GLU811  SER814 

> <Gold.Protein.RotatedAtoms>
  151.5528  135.1067  159.9953 H   0  0  0  0  0  0  0  0  0  0  0  0  # atno 6907 bound_to 6896
  152.4483  133.7575  159.6739 H   0  0  0  0  0  0  0  0  0  0  0  0  # atno 6908 bound_to 6896
  150.8404  133.7877  159.3087 H   0  0  0  0  0  0  0  0  0  0  0  0  # atno 6909 bound_to 6896
  144.7985  139.7154  143.6192 H   0  0  0  0  0  0  0  0  0  0  0  0  # atno 7974 bound_to 7965
  154.6152  140.0624  156.9545 H   0  0  0  0  0  0  0  0  0  0  0  0  # atno 8008 bound_to 7997
  155.1907  140.3307  155.4341 H   0  0  0  0  0  0  0  0  0  0  0  0  # atno 8009 bound_to 7997
  156.2400  140.1881  156.6997 H   0  0  0  0  0  0  0  0  0  0  0  0  # atno 8010 bound_to 7997
  140.6891  143.2922  151.3518 H   0  0  0  0  0  0  0  0  0  0  0  0  # atno 10167 bound_to 10162
  156.4742  130.4531  149.6851 H   0  0  0  0  0  0  0  0  0  0  0  0  # atno 10718 bound_to 10713
  154.5829  135.5570  153.7203 H   0  0  0  0  0  0  0  0  0  0  0  0  # atno 10763 bound_to 10752
  153.0088  135.6324  154.1957 H   0  0  0  0  0  0  0  0  0  0  0  0  # atno 10764 bound_to 10752
  154.1898  135.2883  155.3005 H   0  0  0  0  0  0  0  0  0  0  0  0  # atno 10765 bound_to 10752
  140.4249  134.1480  155.7675 H   0  0  0  0  0  0  0  0  0  0  0  0  # atno 11005 bound_to 11000
  146.2260  139.5724  142.9586 LP  0  0  0  0  0  0  0  0  0  0  0  0  # atno 17320 bound_to 7965
  145.5612  141.0404  143.2225 LP  0  0  0  0  0  0  0  0  0  0  0  0  # atno 17321 bound_to 7965
  139.6275  144.0784  152.2447 LP  0  0  0  0  0  0  0  0  0  0  0  0  # atno 17342 bound_to 10162
  140.0249  144.6125  150.7536 LP  0  0  0  0  0  0  0  0  0  0  0  0  # atno 17343 bound_to 10162
  156.3588  130.7470  151.2440 LP  0  0  0  0  0  0  0  0  0  0  0  0  # atno 17370 bound_to 10713
  157.7489  131.0356  150.4371 LP  0  0  0  0  0  0  0  0  0  0  0  0  # atno 17371 bound_to 10713
  141.1769  133.8495  157.1390 LP  0  0  0  0  0  0  0  0  0  0  0  0  # atno 17394 bound_to 11000
  140.0174  134.9961  157.0522 LP  0  0  0  0  0  0  0  0  0  0  0  0  # atno 17395 bound_to 11000

$$$$
