AV-unprocessed.smi:1107|AV-procd|sdf|4783|dock10
  -GOLD-   22720 3323D 1   1.00000     0.00000
 Structure written by MMmdl.
 49 50  0  0  0  0  0  0  0  0  2 V2000
  151.2784  143.5481  157.7300 C   0  0  0  0  0  0  0  0  0  0  0  0
  151.0970  142.2764  156.9303 C   0  0  0  0  0  0  0  0  0  0  0  0
  150.0213  142.3166  156.0584 N   0  0  0  0  0  0  0  0  0  0  0  0
  149.7761  141.1990  155.2805 C   0  0  0  0  0  0  0  0  0  0  0  0
  148.5726  141.3189  154.3625 C   0  0  0  0  0  0  0  0  0  0  0  0
  150.5643  140.0977  155.3665 C   0  0  0  0  0  0  0  0  0  0  0  0
  150.3198  138.8320  154.5430 C   0  0  0  0  0  0  0  0  0  0  0  0
  149.7898  137.6041  155.2923 C   0  0  0  0  0  0  0  0  0  0  0  0
  149.7608  137.6132  156.5218 O   0  0  0  0  0  0  0  0  0  0  0  0
  149.3482  136.5699  154.5560 N   0  0  0  0  0  0  0  0  0  0  0  0
  148.7564  135.3334  155.0639 C   0  0  2  0  0  0  0  0  0  0  0  0
  149.5222  134.1379  154.4818 C   0  0  0  0  0  0  0  0  0  0  0  0
  147.2513  135.2600  154.7191 C   0  0  0  0  0  0  0  0  0  0  0  0
  146.9971  135.1260  153.2615 N   0  3  0  0  0  0  0  0  0  0  0  0
  146.9514  133.7120  152.8092 C   0  0  0  0  0  0  0  0  0  0  0  0
  146.8536  133.6279  151.2765 C   0  0  0  0  0  0  0  0  0  0  0  0
  145.6402  134.4106  150.7573 C   0  0  0  0  0  0  0  0  0  0  0  0
  145.6883  135.8556  151.2712 C   0  0  0  0  0  0  0  0  0  0  0  0
  145.8066  135.8898  152.8037 C   0  0  0  0  0  0  0  0  0  0  0  0
  151.6943  140.1097  156.3252 C   0  0  0  0  0  0  0  0  0  0  0  0
  152.4260  139.1307  156.4670 O   0  0  0  0  0  0  0  0  0  0  0  0
  151.9026  141.2700  157.0877 N   0  0  0  0  0  0  0  0  0  0  0  0
  149.4124  143.1166  155.9610 H   0  0  0  0  0  0  0  0  0  0  0  0
  152.1349  143.4689  158.4006 H   0  0  0  0  0  0  0  0  0  0  0  0
  150.3917  143.7487  158.3321 H   0  0  0  0  0  0  0  0  0  0  0  0
  151.4447  144.3954  157.0641 H   0  0  0  0  0  0  0  0  0  0  0  0
  148.8827  141.2603  153.3191 H   0  0  0  0  0  0  0  0  0  0  0  0
  148.0515  142.2669  154.5036 H   0  0  0  0  0  0  0  0  0  0  0  0
  147.8626  140.5147  154.5580 H   0  0  0  0  0  0  0  0  0  0  0  0
  151.2353  138.5477  154.0227 H   0  0  0  0  0  0  0  0  0  0  0  0
  149.6107  139.0575  153.7464 H   0  0  0  0  0  0  0  0  0  0  0  0
  149.4189  136.6534  153.5518 H   0  0  0  0  0  0  0  0  0  0  0  0
  148.8799  135.2921  156.1468 H   0  0  0  0  0  0  0  0  0  0  0  0
  149.1236  133.1956  154.8589 H   0  0  0  0  0  0  0  0  0  0  0  0
  150.5782  134.1787  154.7512 H   0  0  0  0  0  0  0  0  0  0  0  0
  149.4575  134.1145  153.3934 H   0  0  0  0  0  0  0  0  0  0  0  0
  146.8315  134.3955  155.2360 H   0  0  0  0  0  0  0  0  0  0  0  0
  146.7203  136.1303  155.1080 H   0  0  0  0  0  0  0  0  0  0  0  0
  147.8519  133.1903  153.1361 H   0  0  0  0  0  0  0  0  0  0  0  0
  146.1028  133.2065  153.2728 H   0  0  0  0  0  0  0  0  0  0  0  0
  147.7653  134.0276  150.8300 H   0  0  0  0  0  0  0  0  0  0  0  0
  146.7870  132.5858  150.9625 H   0  0  0  0  0  0  0  0  0  0  0  0
  145.6208  134.3982  149.6671 H   0  0  0  0  0  0  0  0  0  0  0  0
  144.7203  133.9300  151.0925 H   0  0  0  0  0  0  0  0  0  0  0  0
  146.5384  136.3758  150.8276 H   0  0  0  0  0  0  0  0  0  0  0  0
  144.7952  136.3945  150.9534 H   0  0  0  0  0  0  0  0  0  0  0  0
  144.9067  135.4742  153.2597 H   0  0  0  0  0  0  0  0  0  0  0  0
  145.8750  136.9269  153.1314 H   0  0  0  0  0  0  0  0  0  0  0  0
  147.7981  135.5365  152.8028 H   0  0  0  0  0  0  0  0  0  0  0  0
  1 24  1  0  0  0  0
  1 25  1  0  0  0  0
  1 26  1  0  0  0  0
  1  2  1  0  0  0  0
  2  3  1  0  0  0  0
  2 22  2  0  0  0  0
  3  4  1  0  0  0  0
  3 23  1  0  0  0  0
  4  6  2  0  0  0  0
  4  5  1  0  0  0  0
  5 27  1  0  0  0  0
  5 28  1  0  0  0  0
  5 29  1  0  0  0  0
  6 20  1  0  0  0  0
  6  7  1  0  0  0  0
  7  8  1  0  0  0  0
  7 30  1  0  0  0  0
  7 31  1  0  0  0  0
  8  9  2  0  0  0  0
  8 10  1  0  0  0  0
 10 11  1  0  0  0  0
 10 32  1  0  0  0  0
 11 12  1  0  0  0  0
 11 13  1  0  0  0  0
 11 33  1  0  0  0  0
 12 34  1  0  0  0  0
 12 35  1  0  0  0  0
 12 36  1  0  0  0  0
 13 14  1  0  0  0  0
 13 37  1  0  0  0  0
 13 38  1  0  0  0  0
 14 19  1  0  0  0  0
 14 15  1  0  0  0  0
 14 49  1  0  0  0  0
 15 16  1  0  0  0  0
 15 39  1  0  0  0  0
 15 40  1  0  0  0  0
 16 17  1  0  0  0  0
 16 41  1  0  0  0  0
 16 42  1  0  0  0  0
 17 18  1  0  0  0  0
 17 43  1  0  0  0  0
 17 44  1  0  0  0  0
 18 19  1  0  0  0  0
 18 45  1  0  0  0  0
 18 46  1  0  0  0  0
 19 47  1  0  0  0  0
 19 48  1  0  0  0  0
 20 21  2  0  0  0  0
 20 22  1  0  0  0  0
M  CHG  1  14   1
M  END
> <s_m_source_file>
AV-unprocessed.smi

> <i_m_source_file_index>
1107

> <i_lp_mmshare_version>
43012

> <i_f3d_flags>
0

> <s_epik_input>
W0NIM11jMW5jKFtDSDNdKWMoYyg9TylbbkhdMSlbQ0gyXUMoPU8pW05IXVtDQEhdKFtDSDNdKVtDSDJdTjJbQ0gyXVtDSDJdW0NIMl1bQ0gyXVtDSDJdMg==

> <s_epik_cmdline>
J2VwaWtfcHl0aG9uJywgJy1waCcsICc3LjAnLCAnLXRuJywgJzgnLCAnLW1hJywgJzIwMCcsICctbWV0YWxfYmluZGluZycsICctaW1hZScsICc8aW5maWxlLm1hZT4nLCAnLW9tYWUnLCAnPG91dGZpbGUubWFlPic=

> <r_lp_tautomer_probability>
0.156392

> <r_epik_Ionization_Penalty>
0.0190033

> <r_epik_Ionization_Penalty_Charging>
0.0189172

> <r_epik_Ionization_Penalty_Neutral>
8.60838e-05

> <r_epik_State_Penalty>
1.15342

> <r_epik_Charging_Adjusted_Penalty>
1.17233

> <i_epik_Tot_Q>
1

> <i_epik_Tot_abs_Q>
1

> <r_epik_Metal_State_Penalty>
1.34593

> <b_epik_Metal_Only>
0

> <s_lp_Force_Field>
OPLS_2005

> <r_lp_Energy>
27.2894

> <b_lp_Chiralities_Consistent>
1

> <s_lp_Variant>
AV-unprocessed.smi:1107-3

> <Gold.Version>
5.8.1

> <Gold.Id.Protein>
6NUR|6NUR_protein|mol2

> <Gold.PLP.Fitness>
50.0930

> <Gold.PLP.PLP>
-36.5450

> <Gold.PLP.part.hbond>
-3.9578

> <Gold.PLP.part.metal>
0.0000

> <Gold.PLP.part.buried>
-1.0487

> <Gold.PLP.part.nonpolar>
-30.8179

> <Gold.PLP.part.repulsive>
0.1544

> <Gold.PLP.ligand.clash>
0.0000

> <Gold.PLP.ligand.torsion>
0.7439

> <Gold.PLP.Chemscore.Hbond>
4.9913

> <Gold.PLP.Chemscore.CHOScore>
0.0000

> <Gold.PLP.Chemscore.Metal>
0.0000

> <Gold.Chemscore.Hbonds>
donor molecule, donor type, donor heavy atom, donor atom, acceptor molecule, acceptor atom, score
      L1  H     3    23       P1  8028  1.00
      L1  H    10    32       P1  7948  1.00
      L1  H    14    49       P1  7948  2.00
      P1  H  7997  8010       L1    21  0.66

> <Gold.PLP.Chemscore.Internal.Correction>
0.0621

> <Gold.Rescore>
     Score         DG    S(hbond)    S(metal)    S(lipo)     H(rot)  DE(clash)    DE(int)     intcor
     18.54     -20.13       3.20        0.00      77.27       1.98       0.76       0.83       ----

> <Gold.Chemscore.Fitness>
18.5396

> <Gold.Chemscore.DG>
-20.1270

> <Gold.Chemscore.ZeroCoef>
-5.4800

> <Gold.Chemscore.Hbond>
3.1992

> <Gold.Chemscore.Metal>
0.0000

> <Gold.Chemscore.Lipo>
77.2663

> <Gold.Chemscore.Internal_Hbond>
0.0000

> <Gold.Chemscore.DEClash>
0.7555

> <Gold.Chemscore.DEInternal>
0.8319

> <Gold.Chemscore.Rot>
1.9837

> <Gold.Chemscore.Internal.Correction>
   9.000000E+99

> <Gold.Chemscore.Hbonds>
donor molecule, donor type, donor heavy atom, donor atom, acceptor molecule, acceptor atom, score
      L1  H     3    23       P1  8028  1.00
      L1  H    10    32       P1  7948  0.84
      L1  H    14    49       P1  7948  0.99
      P1  H  7997  8010       L1    21  0.15

> <Gold.Chemscore.Hbond.Weighted>
-10.6852

> <Gold.Chemscore.Metal.Weighted>
-0.0000

> <Gold.Chemscore.Lipo.Weighted>
-9.0402

> <Gold.Chemscore.Internal_Hbond.Weighted>
0.0000

> <Gold.Chemscore.DEClash.Weighted>
0.7555

> <Gold.Chemscore.DEInternal.Weighted>
0.8319

> <Gold.Chemscore.Rot.Weighted>
5.0783

> <Gold.Chemscore.Internal.Correction.Weighted>
   9.000000E+99

> <Gold.Protein.RotatedTorsions>
[ 6907 6896 6895 6894 ] final  -37.55 input  -60.11 | X-H torsion
[ 7974 7965 7964 7962 ] final -171.83 input  175.53 | X-H torsion
[ 8008 7997 7996 7995 ] final   77.12 input   59.86 | X-H torsion
[ 10167 10162 10161 10158 ] final  -61.68 input  -65.29 | X-H torsion
[ 10718 10713 10712 10709 ] final -171.54 input   66.30 | X-H torsion
[ 10763 10752 10751 10750 ] final   16.29 input  -60.55 | X-H torsion
[ 11005 11000 10999 10996 ] final   46.96 input  -57.11 | X-H torsion

> <Gold.Protein.ActiveResidues>
 VAL166  LYS551  ARG553  GLY616  TRP617  ASP618  TYR619  PRO620  LYS621  CYS622 
 ASP623  PHE694  ASN695  SER759  ASP760  ASP761  ALA762  ILE779  LEU786  VAL792 
 PHE793  MET794  SER795  GLU796  ALA797  LYS798  CYS799  TRP800  GLU811  SER814 

> <Gold.Protein.RotatedAtoms>
  151.0133  134.9414  159.8019 H   0  0  0  0  0  0  0  0  0  0  0  0  # atno 6907 bound_to 6896
  152.5308  134.2999  159.9084 H   0  0  0  0  0  0  0  0  0  0  0  0  # atno 6908 bound_to 6896
  151.3005  133.4082  159.2673 H   0  0  0  0  0  0  0  0  0  0  0  0  # atno 6909 bound_to 6896
  144.7152  140.1864  143.6353 H   0  0  0  0  0  0  0  0  0  0  0  0  # atno 7974 bound_to 7965
  155.8371  140.3464  155.5608 H   0  0  0  0  0  0  0  0  0  0  0  0  # atno 8008 bound_to 7997
  155.8181  140.0908  157.1885 H   0  0  0  0  0  0  0  0  0  0  0  0  # atno 8009 bound_to 7997
  154.4004  140.1435  156.3454 H   0  0  0  0  0  0  0  0  0  0  0  0  # atno 8010 bound_to 7997
  140.5989  143.2357  151.5973 H   0  0  0  0  0  0  0  0  0  0  0  0  # atno 10167 bound_to 10162
  156.7423  130.9347  151.3111 H   0  0  0  0  0  0  0  0  0  0  0  0  # atno 10718 bound_to 10713
  153.1445  135.6766  153.8976 H   0  0  0  0  0  0  0  0  0  0  0  0  # atno 10763 bound_to 10752
  153.8422  135.3104  155.3428 H   0  0  0  0  0  0  0  0  0  0  0  0  # atno 10764 bound_to 10752
  154.7814  135.4886  153.9937 H   0  0  0  0  0  0  0  0  0  0  0  0  # atno 10765 bound_to 10752
  140.1321  134.4692  155.8513 H   0  0  0  0  0  0  0  0  0  0  0  0  # atno 11005 bound_to 11000
  145.8809  139.2322  143.1606 LP  0  0  0  0  0  0  0  0  0  0  0  0  # atno 17320 bound_to 7965
  145.9996  140.8532  143.0025 LP  0  0  0  0  0  0  0  0  0  0  0  0  # atno 17321 bound_to 7965
  139.5277  144.3008  152.1075 LP  0  0  0  0  0  0  0  0  0  0  0  0  # atno 17342 bound_to 10162
  140.2185  144.4490  150.6352 LP  0  0  0  0  0  0  0  0  0  0  0  0  # atno 17343 bound_to 10162
  157.6813  130.9142  150.0274 LP  0  0  0  0  0  0  0  0  0  0  0  0  # atno 17370 bound_to 10713
  156.1456  130.3642  149.9515 LP  0  0  0  0  0  0  0  0  0  0  0  0  # atno 17371 bound_to 10713
  141.2172  133.6800  156.7089 LP  0  0  0  0  0  0  0  0  0  0  0  0  # atno 17394 bound_to 11000
  140.2828  134.8303  157.3948 LP  0  0  0  0  0  0  0  0  0  0  0  0  # atno 17395 bound_to 11000

$$$$
