AV-unprocessed.smi:100|AV-procd|sdf|903|dock1
  -GOLD-   2262017403D 1   1.00000     0.00000
 Structure written by MMmdl.
 31 33  0  0  0  0  0  0  0  0  1 V2000
  148.0599  140.1177  153.4322 N   0  0  0  0  0  0  0  0  0  0  0  0
  148.2442  140.2024  154.7569 C   0  0  0  0  0  0  0  0  0  0  0  0
  147.1633  140.0975  155.5650 N   0  0  0  0  0  0  0  0  0  0  0  0
  147.3202  140.1824  156.8903 C   0  0  0  0  0  0  0  0  0  0  0  0
  148.4448  140.3628  157.5889 N   0  0  0  0  0  0  0  0  0  0  0  0
  149.5336  140.4625  156.7711 C   0  0  0  0  0  0  0  0  0  0  0  0
  149.5167  140.3980  155.3508 C   0  0  0  0  0  0  0  0  0  0  0  0
  150.8043  140.5526  154.8560 N   0  0  0  0  0  0  0  0  0  0  0  0
  151.5362  140.7063  155.9272 C   0  0  0  0  0  0  0  0  0  0  0  0
  150.8544  140.6395  157.1257 N   0  0  0  0  0  0  0  0  0  0  0  0
  151.3779  140.7911  158.5214 C   0  0  2  0  0  0  0  0  0  0  0  0
  150.6928  141.8530  159.1259 O   0  0  0  0  0  0  0  0  0  0  0  0
  151.5430  142.9881  159.2995 C   0  0  2  0  0  0  0  0  0  0  0  0
  151.4866  143.9257  158.0765 C   0  0  0  0  0  0  0  0  0  0  0  0
  150.6776  143.3582  157.0691 O   0  0  0  0  0  0  0  0  0  0  0  0
  152.9098  142.3335  159.4919 C   0  0  1  0  0  0  0  0  0  0  0  0
  152.9703  141.8919  160.7514 F   0  0  0  0  0  0  0  0  0  0  0  0
  152.8680  141.1761  158.5055 C   0  0  1  0  0  0  0  0  0  0  0  0
  153.7337  140.1350  158.9129 O   0  0  0  0  0  0  0  0  0  0  0  0
  148.8509  140.1941  152.8088 H   0  0  0  0  0  0  0  0  0  0  0  0
  147.1317  139.9787  153.0603 H   0  0  0  0  0  0  0  0  0  0  0  0
  146.4164  140.0915  157.4742 H   0  0  0  0  0  0  0  0  0  0  0  0
  152.6030  140.8666  155.8661 H   0  0  0  0  0  0  0  0  0  0  0  0
  151.1497  139.8459  159.0158 H   0  0  0  0  0  0  0  0  0  0  0  0
  151.2583  143.5410  160.1961 H   0  0  0  0  0  0  0  0  0  0  0  0
  151.0294  144.8744  158.3588 H   0  0  0  0  0  0  0  0  0  0  0  0
  152.4742  144.1586  157.6809 H   0  0  0  0  0  0  0  0  0  0  0  0
  150.2111  144.0533  156.6304 H   0  0  0  0  0  0  0  0  0  0  0  0
  153.7516  143.0094  159.3388 H   0  0  0  0  0  0  0  0  0  0  0  0
  153.1515  141.5281  157.5123 H   0  0  0  0  0  0  0  0  0  0  0  0
  153.2082  139.3788  159.1277 H   0  0  0  0  0  0  0  0  0  0  0  0
  1  2  1  0  0  0  0
  1 20  1  0  0  0  0
  1 21  1  0  0  0  0
  2  7  1  0  0  0  0
  2  3  2  0  0  0  0
  3  4  1  0  0  0  0
  4  5  2  0  0  0  0
  4 22  1  0  0  0  0
  5  6  1  0  0  0  0
  6 10  1  0  0  0  0
  6  7  2  0  0  0  0
  7  8  1  0  0  0  0
  8  9  2  0  0  0  0
  9 10  1  0  0  0  0
  9 23  1  0  0  0  0
 10 11  1  0  0  0  0
 11 18  1  0  0  0  0
 11 12  1  0  0  0  0
 11 24  1  0  0  0  0
 12 13  1  0  0  0  0
 13 14  1  0  0  0  0
 13 16  1  0  0  0  0
 13 25  1  0  0  0  0
 14 15  1  0  0  0  0
 14 26  1  0  0  0  0
 14 27  1  0  0  0  0
 15 28  1  0  0  0  0
 16 17  1  0  0  0  0
 16 18  1  0  0  0  0
 16 29  1  0  0  0  0
 18 19  1  0  0  0  0
 18 30  1  0  0  0  0
 19 31  1  0  0  0  0
M  END
> <s_m_source_file>
AV-unprocessed.smi

> <i_m_source_file_index>
100

> <i_lp_mmshare_version>
43012

> <i_f3d_flags>
0

> <s_epik_input>
bjFbY0hdbmMoW05IMl0pYyhjMTIpbltjSF1uMltDQEBIXTNPW0NAQEhdKFtDSDJdW09IXSlbQ0BIXShGKVtDQEhdM1tPSF0=

> <s_epik_cmdline>
J2VwaWtfcHl0aG9uJywgJy1waCcsICc3LjAnLCAnLXRuJywgJzgnLCAnLW1hJywgJzIwMCcsICctbWV0YWxfYmluZGluZycsICctaW1hZScsICc8aW5maWxlLm1hZT4nLCAnLW9tYWUnLCAnPG91dGZpbGUubWFlPic=

> <r_lp_tautomer_probability>
1

> <r_epik_Ionization_Penalty>
0.000750324

> <r_epik_Ionization_Penalty_Charging>
0

> <r_epik_Ionization_Penalty_Neutral>
0.000750324

> <r_epik_State_Penalty>
-0

> <r_epik_Charging_Adjusted_Penalty>
0

> <i_epik_Tot_Q>
0

> <i_epik_Tot_abs_Q>
0

> <r_epik_Metal_State_Penalty>
-0

> <b_epik_Metal_Only>
0

> <s_epik_Chemistry_Notes>
This compound contains an acetal/aminal-like group ( X-CH(R)-Y where X, Y are N, S, or O) that may be acid/base labile, releasing an aldehyde.

> <s_lp_Force_Field>
OPLS_2005

> <r_lp_Energy>
31.6472

> <b_lp_Chiralities_Consistent>
1

> <s_lp_Variant>
AV-unprocessed.smi:100-7

> <Gold.Version>
5.8.1

> <Gold.Id.Protein>
6NUR|6NUR_protein|mol2

> <Gold.PLP.Fitness>
39.7776

> <Gold.PLP.PLP>
-29.5222

> <Gold.PLP.part.hbond>
-4.9321

> <Gold.PLP.part.metal>
0.0000

> <Gold.PLP.part.buried>
-3.2519

> <Gold.PLP.part.nonpolar>
-20.1255

> <Gold.PLP.part.repulsive>
0.2072

> <Gold.PLP.ligand.clash>
0.0000

> <Gold.PLP.ligand.torsion>
0.7810

> <Gold.PLP.Chemscore.Hbond>
3.9280

> <Gold.PLP.Chemscore.CHOScore>
0.0000

> <Gold.PLP.Chemscore.Metal>
0.0000

> <Gold.Chemscore.Hbonds>
donor molecule, donor type, donor heavy atom, donor atom, acceptor molecule, acceptor atom, score
      L1  H     1    20       P1  7957  1.00
      L1  H    15    28       P1  8028  1.00
      P1  H  7989  7998       L1     8  1.00
      P1  H  7997  8010       L1    19  0.88

> <Gold.PLP.Chemscore.Internal.Correction>
0.0333

> <Gold.Rescore>
     Score         DG    S(hbond)    S(metal)    S(lipo)     H(rot)  DE(clash)    DE(int)     intcor
     10.39     -12.57       2.96        0.00      45.96       3.19       0.03       2.14       ----

> <Gold.Chemscore.Fitness>
10.3902

> <Gold.Chemscore.DG>
-12.5676

> <Gold.Chemscore.ZeroCoef>
-5.4800

> <Gold.Chemscore.Hbond>
2.9570

> <Gold.Chemscore.Metal>
0.0000

> <Gold.Chemscore.Lipo>
45.9646

> <Gold.Chemscore.Internal_Hbond>
0.0000

> <Gold.Chemscore.DEClash>
0.0339

> <Gold.Chemscore.DEInternal>
2.1436

> <Gold.Chemscore.Rot>
3.1901

> <Gold.Chemscore.Internal.Correction>
   9.000000E+99

> <Gold.Chemscore.Hbonds>
donor molecule, donor type, donor heavy atom, donor atom, acceptor molecule, acceptor atom, score
      L1  H     1    20       P1  7957  0.95
      L1  H    15    28       P1  8028  0.98
      P1  H  7989  7998       L1     8  0.78
      P1  H  7997  8010       L1    19  0.17

> <Gold.Chemscore.Hbond.Weighted>
-9.8764

> <Gold.Chemscore.Metal.Weighted>
-0.0000

> <Gold.Chemscore.Lipo.Weighted>
-5.3779

> <Gold.Chemscore.Internal_Hbond.Weighted>
0.0000

> <Gold.Chemscore.DEClash.Weighted>
0.0339

> <Gold.Chemscore.DEInternal.Weighted>
2.1436

> <Gold.Chemscore.Rot.Weighted>
8.1667

> <Gold.Chemscore.Internal.Correction.Weighted>
   9.000000E+99

> <Gold.Protein.RotatedTorsions>
[ 6907 6896 6895 6894 ] final   29.40 input  -60.11 | X-H torsion
[ 7974 7965 7964 7962 ] final  -78.02 input  175.53 | X-H torsion
[ 8008 7997 7996 7995 ] final   10.13 input   59.86 | X-H torsion
[ 10167 10162 10161 10158 ] final -167.76 input  -65.29 | X-H torsion
[ 10718 10713 10712 10709 ] final   63.11 input   66.30 | X-H torsion
[ 10763 10752 10751 10750 ] final  -75.23 input  -60.55 | X-H torsion
[ 11005 11000 10999 10996 ] final -139.28 input  -57.11 | X-H torsion

> <Gold.Protein.ActiveResidues>
 VAL166  LYS551  ARG553  GLY616  TRP617  ASP618  TYR619  PRO620  LYS621  CYS622 
 ASP623  PHE694  ASN695  SER759  ASP760  ASP761  ALA762  ILE779  LEU786  VAL792 
 PHE793  MET794  SER795  GLU796  ALA797  LYS798  CYS799  TRP800  GLU811  SER814 

> <Gold.Protein.RotatedAtoms>
  152.0310  134.9767  160.0572 H   0  0  0  0  0  0  0  0  0  0  0  0  # atno 6907 bound_to 6896
  152.1244  133.4367  159.4699 H   0  0  0  0  0  0  0  0  0  0  0  0  # atno 6908 bound_to 6896
  150.6851  134.2415  159.4517 H   0  0  0  0  0  0  0  0  0  0  0  0  # atno 6909 bound_to 6896
  145.5920  140.9427  143.1287 H   0  0  0  0  0  0  0  0  0  0  0  0  # atno 7974 bound_to 7965
  154.7892  140.2832  155.6004 H   0  0  0  0  0  0  0  0  0  0  0  0  # atno 8008 bound_to 7997
  156.2962  140.2608  156.2664 H   0  0  0  0  0  0  0  0  0  0  0  0  # atno 8009 bound_to 7997
  154.9691  140.0376  157.2215 H   0  0  0  0  0  0  0  0  0  0  0  0  # atno 8010 bound_to 7997
  139.6029  144.0974  152.1762 H   0  0  0  0  0  0  0  0  0  0  0  0  # atno 10167 bound_to 10162
  157.5948  130.9087  149.9674 H   0  0  0  0  0  0  0  0  0  0  0  0  # atno 10718 bound_to 10713
  154.4837  135.5838  153.6408 H   0  0  0  0  0  0  0  0  0  0  0  0  # atno 10763 bound_to 10752
  152.9851  135.6096  154.3213 H   0  0  0  0  0  0  0  0  0  0  0  0  # atno 10764 bound_to 10752
  154.3106  135.2845  155.2547 H   0  0  0  0  0  0  0  0  0  0  0  0  # atno 10765 bound_to 10752
  140.8535  134.2257  157.4747 H   0  0  0  0  0  0  0  0  0  0  0  0  # atno 11005 bound_to 11000
  144.7347  139.7621  143.7334 LP  0  0  0  0  0  0  0  0  0  0  0  0  # atno 17320 bound_to 7965
  146.1640  139.4764  142.9970 LP  0  0  0  0  0  0  0  0  0  0  0  0  # atno 17321 bound_to 7965
  140.0574  144.5884  150.7289 LP  0  0  0  0  0  0  0  0  0  0  0  0  # atno 17342 bound_to 10162
  140.7263  143.2640  151.4109 LP  0  0  0  0  0  0  0  0  0  0  0  0  # atno 17343 bound_to 10162
  156.1009  130.3656  150.0220 LP  0  0  0  0  0  0  0  0  0  0  0  0  # atno 17370 bound_to 10713
  156.8335  130.9401  151.3636 LP  0  0  0  0  0  0  0  0  0  0  0  0  # atno 17371 bound_to 10713
  139.8704  134.9695  156.4667 LP  0  0  0  0  0  0  0  0  0  0  0  0  # atno 17394 bound_to 11000
  140.8763  133.7950  155.9419 LP  0  0  0  0  0  0  0  0  0  0  0  0  # atno 17395 bound_to 11000

$$$$
