AV-unprocessed.smi:101|AV-procd|sdf|933|dock6
  -GOLD-   2262017453D 1   1.00000     0.00000
 Structure written by MMmdl.
 43 45  0  0  0  0  0  0  0  0  2 V2000
  144.5799  144.3407  154.2738 C   0  0  0  0  0  0  0  0  0  0  0  0
  145.2138  143.6363  155.4608 C   0  0  0  0  0  0  0  0  0  0  0  0
  145.9572  142.5158  155.3226 C   0  0  0  0  0  0  0  0  0  0  0  0
  146.5305  141.8717  156.4080 N   0  0  0  0  0  0  0  0  0  0  0  0
  147.3864  140.6239  156.2483 C   0  0  2  0  0  0  0  0  0  0  0  0
  148.6830  140.8658  156.7069 O   0  0  0  0  0  0  0  0  0  0  0  0
  149.5091  141.2550  155.6184 C   0  0  1  0  0  0  0  0  0  0  0  0
  150.9802  141.0227  155.9845 C   0  0  0  0  0  0  0  0  0  0  0  0
  151.3603  141.9292  157.0069 O   0  0  0  0  0  0  0  0  0  0  0  0
  152.1962  141.5354  157.9864 C   0  0  0  0  0  0  0  0  0  0  0  0
  152.8571  140.4956  157.9427 O   0  0  0  0  0  0  0  0  0  0  0  0
  152.2371  142.4908  159.1310 C   0  0  0  0  0  0  0  0  0  0  0  0
  151.7169  143.7956  158.9642 C   0  0  0  0  0  0  0  0  0  0  0  0
  151.7454  144.7202  160.0263 C   0  0  0  0  0  0  0  0  0  0  0  0
  152.2942  144.3516  161.2683 C   0  0  0  0  0  0  0  0  0  0  0  0
  152.8133  143.0562  161.4475 C   0  0  0  0  0  0  0  0  0  0  0  0
  152.7851  142.1295  160.3869 C   0  0  0  0  0  0  0  0  0  0  0  0
  149.0024  140.3901  154.4625 C   0  0  2  0  0  0  0  0  0  0  0  0
  149.1831  141.0631  153.2320 O   0  0  0  0  0  0  0  0  0  0  0  0
  147.5141  140.2127  154.7632 C   0  0  1  0  0  0  0  0  0  0  0  0
  147.1400  138.8643  154.5651 O   0  0  0  0  0  0  0  0  0  0  0  0
  146.3862  142.4362  157.7038 C   0  0  0  0  0  0  0  0  0  0  0  0
  146.9579  141.8813  158.6423 O   0  0  0  0  0  0  0  0  0  0  0  0
  145.6305  143.5606  157.8544 N   0  5  0  0  0  0  0  0  0  0  0  0
  145.0237  144.1878  156.8071 C   0  0  0  0  0  0  0  0  0  0  0  0
  144.3326  145.1947  156.9588 O   0  0  0  0  0  0  0  0  0  0  0  0
  144.8161  143.8333  153.3379 H   0  0  0  0  0  0  0  0  0  0  0  0
  144.9408  145.3672  154.2018 H   0  0  0  0  0  0  0  0  0  0  0  0
  143.4951  144.3632  154.3812 H   0  0  0  0  0  0  0  0  0  0  0  0
  146.1038  142.1300  154.3262 H   0  0  0  0  0  0  0  0  0  0  0  0
  146.9052  139.8787  156.8844 H   0  0  0  0  0  0  0  0  0  0  0  0
  149.3348  142.3116  155.4088 H   0  0  0  0  0  0  0  0  0  0  0  0
  151.1178  140.0030  156.3461 H   0  0  0  0  0  0  0  0  0  0  0  0
  151.6124  141.1460  155.1039 H   0  0  0  0  0  0  0  0  0  0  0  0
  151.2915  144.1019  158.0194 H   0  0  0  0  0  0  0  0  0  0  0  0
  151.3456  145.7138  159.8870 H   0  0  0  0  0  0  0  0  0  0  0  0
  152.3168  145.0615  162.0819 H   0  0  0  0  0  0  0  0  0  0  0  0
  153.2342  142.7715  162.4006 H   0  0  0  0  0  0  0  0  0  0  0  0
  153.1914  141.1433  160.5589 H   0  0  0  0  0  0  0  0  0  0  0  0
  149.5210  139.4300  154.4497 H   0  0  0  0  0  0  0  0  0  0  0  0
  149.0397  140.4451  152.5316 H   0  0  0  0  0  0  0  0  0  0  0  0
  146.8972  140.8596  154.1371 H   0  0  0  0  0  0  0  0  0  0  0  0
  147.8909  138.3900  154.2430 H   0  0  0  0  0  0  0  0  0  0  0  0
  1  2  1  0  0  0  0
  1 27  1  0  0  0  0
  1 28  1  0  0  0  0
  1 29  1  0  0  0  0
  2 25  1  0  0  0  0
  2  3  2  0  0  0  0
  3  4  1  0  0  0  0
  3 30  1  0  0  0  0
  4  5  1  0  0  0  0
  4 22  1  0  0  0  0
  5 20  1  0  0  0  0
  5  6  1  0  0  0  0
  5 31  1  0  0  0  0
  6  7  1  0  0  0  0
  7  8  1  0  0  0  0
  7 18  1  0  0  0  0
  7 32  1  0  0  0  0
  8  9  1  0  0  0  0
  8 33  1  0  0  0  0
  8 34  1  0  0  0  0
  9 10  1  0  0  0  0
 10 11  2  0  0  0  0
 10 12  1  0  0  0  0
 12 17  1  0  0  0  0
 12 13  2  0  0  0  0
 13 14  1  0  0  0  0
 13 35  1  0  0  0  0
 14 15  2  0  0  0  0
 14 36  1  0  0  0  0
 15 16  1  0  0  0  0
 15 37  1  0  0  0  0
 16 17  2  0  0  0  0
 16 38  1  0  0  0  0
 17 39  1  0  0  0  0
 18 19  1  0  0  0  0
 18 20  1  0  0  0  0
 18 40  1  0  0  0  0
 19 41  1  0  0  0  0
 20 21  1  0  0  0  0
 20 42  1  0  0  0  0
 21 43  1  0  0  0  0
 22 23  2  0  0  0  0
 22 24  1  0  0  0  0
 24 25  1  0  0  0  0
 25 26  2  0  0  0  0
M  CHG  1  24  -1
M  END
> <s_m_source_file>
AV-unprocessed.smi

> <i_m_source_file_index>
101

> <i_lp_mmshare_version>
43012

> <i_f3d_flags>
0

> <s_epik_input>
Tz1jMVtuSF1jKD1PKW4oW2NIXWMxW0NIM10pW0NAQEhdMk9bQ0BIXShbQ0BASF0oW09IXSlbQ0BIXTJbT0hdKVtDSDJdT0MoPU8pYzNbY0hdW2NIXVtjSF1bY0hdW2NIXTM=

> <s_epik_cmdline>
J2VwaWtfcHl0aG9uJywgJy1waCcsICc3LjAnLCAnLXRuJywgJzgnLCAnLW1hJywgJzIwMCcsICctbWV0YWxfYmluZGluZycsICctaW1hZScsICc8aW5maWxlLm1hZT4nLCAnLW9tYWUnLCAnPG91dGZpbGUubWFlPic=

> <r_lp_tautomer_probability>
0.999537

> <r_epik_Ionization_Penalty>
3.21006

> <r_epik_Ionization_Penalty_Charging>
5.75142e-08

> <r_epik_Ionization_Penalty_Neutral>
3.21006

> <r_epik_State_Penalty>
3.20925

> <r_epik_Charging_Adjusted_Penalty>
3.20925

> <i_epik_Tot_Q>
-1

> <i_epik_Tot_abs_Q>
1

> <r_epik_Metal_State_Penalty>
0.119957

> <b_epik_Metal_Only>
1

> <s_epik_Chemistry_Notes>
This compound has an ester and may undergo hydrolysis at high or low pH. This compound contains an acetal/aminal-like group ( X-CH(R)-Y where X, Y are N, S, or O) that may be acid/base labile, releasing an aldehyde.

> <s_lp_Force_Field>
OPLS_2005

> <r_lp_Energy>
40.7876

> <b_lp_Chiralities_Consistent>
1

> <s_lp_Variant>
AV-unprocessed.smi:101-21

> <Gold.Version>
5.8.1

> <Gold.Id.Protein>
6NUR|6NUR_protein|mol2

> <Gold.PLP.Fitness>
54.6014

> <Gold.PLP.PLP>
-46.7803

> <Gold.PLP.part.hbond>
-4.4715

> <Gold.PLP.part.metal>
0.0000

> <Gold.PLP.part.buried>
-7.3495

> <Gold.PLP.part.nonpolar>
-34.8420

> <Gold.PLP.part.repulsive>
0.3524

> <Gold.PLP.ligand.clash>
0.0000

> <Gold.PLP.ligand.torsion>
0.5563

> <Gold.PLP.Chemscore.Hbond>
2.9532

> <Gold.PLP.Chemscore.CHOScore>
0.0000

> <Gold.PLP.Chemscore.Metal>
0.0000

> <Gold.Chemscore.Hbonds>
donor molecule, donor type, donor heavy atom, donor atom, acceptor molecule, acceptor atom, score
      L1  H    19    41       P1  7957  0.82
      P1  H  6934  6946       L1    23  0.20
      P1  H  7997  8009       L1    11  0.83
      P1  H  8011  8017       L1    19  1.00

> <Gold.PLP.Chemscore.Internal.Correction>
0.0741

> <Gold.Rescore>
     Score         DG    S(hbond)    S(metal)    S(lipo)     H(rot)  DE(clash)    DE(int)     intcor
     15.07     -16.98       2.21        0.00     106.61       3.27       0.05       1.86       ----

> <Gold.Chemscore.Fitness>
15.0712

> <Gold.Chemscore.DG>
-16.9810

> <Gold.Chemscore.ZeroCoef>
-5.4800

> <Gold.Chemscore.Hbond>
2.2119

> <Gold.Chemscore.Metal>
0.0000

> <Gold.Chemscore.Lipo>
106.6063

> <Gold.Chemscore.Internal_Hbond>
0.0000

> <Gold.Chemscore.DEClash>
0.0465

> <Gold.Chemscore.DEInternal>
1.8633

> <Gold.Chemscore.Rot>
3.2656

> <Gold.Chemscore.Internal.Correction>
   9.000000E+99

> <Gold.Chemscore.Hbonds>
donor molecule, donor type, donor heavy atom, donor atom, acceptor molecule, acceptor atom, score
      L1  H    19    41       P1  7957  0.76
      P1  H  6934  6946       L1    23  0.20
      P1  H  7997  8009       L1    11  0.80
      P1  H  8011  8017       L1    19  0.25

> <Gold.Chemscore.Hbond.Weighted>
-7.3879

> <Gold.Chemscore.Metal.Weighted>
-0.0000

> <Gold.Chemscore.Lipo.Weighted>
-12.4729

> <Gold.Chemscore.Internal_Hbond.Weighted>
0.0000

> <Gold.Chemscore.DEClash.Weighted>
0.0465

> <Gold.Chemscore.DEInternal.Weighted>
1.8633

> <Gold.Chemscore.Rot.Weighted>
8.3598

> <Gold.Chemscore.Internal.Correction.Weighted>
   9.000000E+99

> <Gold.Protein.RotatedTorsions>
[ 6907 6896 6895 6894 ] final  -51.55 input  -60.11 | X-H torsion
[ 7974 7965 7964 7962 ] final  -52.21 input  175.53 | X-H torsion
[ 8008 7997 7996 7995 ] final  165.78 input   59.86 | X-H torsion
[ 10167 10162 10161 10158 ] final  -46.94 input  -65.29 | X-H torsion
[ 10718 10713 10712 10709 ] final   74.16 input   66.30 | X-H torsion
[ 10763 10752 10751 10750 ] final  158.69 input  -60.55 | X-H torsion
[ 11005 11000 10999 10996 ] final   98.70 input  -57.11 | X-H torsion

> <Gold.Protein.ActiveResidues>
 VAL166  LYS551  ARG553  GLY616  TRP617  ASP618  TYR619  PRO620  LYS621  CYS622 
 ASP623  PHE694  ASN695  SER759  ASP760  ASP761  ALA762  ILE779  LEU786  VAL792 
 PHE793  MET794  SER795  GLU796  ALA797  LYS798  CYS799  TRP800  GLU811  SER814 

> <Gold.Protein.RotatedAtoms>
  150.8601  134.7950  159.7075 H   0  0  0  0  0  0  0  0  0  0  0  0  # atno 6907 bound_to 6896
  152.4640  134.5115  159.9765 H   0  0  0  0  0  0  0  0  0  0  0  0  # atno 6908 bound_to 6896
  151.5220  133.3426  159.2938 H   0  0  0  0  0  0  0  0  0  0  0  0  # atno 6909 bound_to 6896
  145.9104  140.7920  142.9698 H   0  0  0  0  0  0  0  0  0  0  0  0  # atno 7974 bound_to 7965
  156.1773  140.1661  156.8340 H   0  0  0  0  0  0  0  0  0  0  0  0  # atno 8008 bound_to 7997
  154.5320  140.0755  156.8396 H   0  0  0  0  0  0  0  0  0  0  0  0  # atno 8009 bound_to 7997
  155.3387  140.3383  155.4241 H   0  0  0  0  0  0  0  0  0  0  0  0  # atno 8010 bound_to 7997
  140.6796  143.2807  151.3855 H   0  0  0  0  0  0  0  0  0  0  0  0  # atno 10167 bound_to 10162
  157.6580  130.9664  150.1172 H   0  0  0  0  0  0  0  0  0  0  0  0  # atno 10718 bound_to 10713
  154.2200  135.2782  155.2928 H   0  0  0  0  0  0  0  0  0  0  0  0  # atno 10763 bound_to 10752
  154.5709  135.5618  153.7098 H   0  0  0  0  0  0  0  0  0  0  0  0  # atno 10764 bound_to 10752
  153.0044  135.6321  154.2340 H   0  0  0  0  0  0  0  0  0  0  0  0  # atno 10765 bound_to 10752
  139.8772  134.9061  156.4496 H   0  0  0  0  0  0  0  0  0  0  0  0  # atno 11005 bound_to 11000
  144.6743  140.1817  143.7405 LP  0  0  0  0  0  0  0  0  0  0  0  0  # atno 17320 bound_to 7965
  145.8678  139.2256  143.1678 LP  0  0  0  0  0  0  0  0  0  0  0  0  # atno 17321 bound_to 7965
  139.6110  144.1099  152.2298 LP  0  0  0  0  0  0  0  0  0  0  0  0  # atno 17342 bound_to 10162
  140.0513  144.5930  150.7334 LP  0  0  0  0  0  0  0  0  0  0  0  0  # atno 17343 bound_to 10162
  156.2053  130.3663  149.8738 LP  0  0  0  0  0  0  0  0  0  0  0  0  # atno 17370 bound_to 10713
  156.6631  130.8790  151.3550 LP  0  0  0  0  0  0  0  0  0  0  0  0  # atno 17371 bound_to 10713
  140.8941  133.7827  155.9605 LP  0  0  0  0  0  0  0  0  0  0  0  0  # atno 17394 bound_to 11000
  140.8722  134.2713  157.5185 LP  0  0  0  0  0  0  0  0  0  0  0  0  # atno 17395 bound_to 11000

$$$$
