AV-unprocessed.smi:2137|AV-procd|sdf|8706|dock3
  -GOLD-   2272011463D 1   1.00000     0.00000
 Structure written by MMmdl.
 50 51  0  0  0  0  0  0  0  0  2 V2000
  147.9023  145.6121  161.1396 C   0  0  0  0  0  0  0  0  0  0  0  0
  146.5989  144.9700  160.6448 C   0  0  2  0  0  0  0  0  0  0  0  0
  145.7603  144.4285  161.8147 C   0  0  0  0  0  0  0  0  0  0  0  0
  144.4791  143.7690  161.2898 C   0  0  0  0  0  0  0  0  0  0  0  0
  144.8040  142.6840  160.2506 C   0  0  0  0  0  0  0  0  0  0  0  0
  145.6098  143.2377  159.1317 N   0  3  2  0  0  0  0  0  0  0  0  0
  145.8220  142.2449  158.0485 C   0  0  0  0  0  0  0  0  0  0  0  0
  146.5545  142.8466  156.8337 C   0  0  0  0  0  0  0  0  0  0  0  0
  147.2768  141.7936  155.9743 C   0  0  0  0  0  0  0  0  0  0  0  0
  148.7267  141.9480  156.0098 N   0  0  0  0  0  0  0  0  0  0  0  0
  149.6034  140.9708  156.2881 C   0  0  0  0  0  0  0  0  0  0  0  0
  149.2702  139.8123  156.5348 O   0  0  0  0  0  0  0  0  0  0  0  0
  151.0856  141.3569  156.2854 C   0  0  0  0  0  0  0  0  0  0  0  0
  151.4776  142.0212  157.5345 N   0  0  0  0  0  0  0  0  0  0  0  0
  150.9631  143.2711  157.8291 C   0  0  0  0  0  0  0  0  0  0  0  0
  151.2717  143.9597  158.9494 C   0  0  0  0  0  0  0  0  0  0  0  0
  152.1930  143.4079  159.9348 C   0  0  0  0  0  0  0  0  0  0  0  0
  152.4986  143.9890  160.9770 O   0  0  0  0  0  0  0  0  0  0  0  0
  152.7135  142.1352  159.6063 N   0  0  0  0  0  0  0  0  0  0  0  0
  153.6304  141.5448  160.5596 C   0  0  0  0  0  0  0  0  0  0  0  0
  152.3775  141.4128  158.4376 C   0  0  0  0  0  0  0  0  0  0  0  0
  152.8398  140.2948  158.1972 O   0  0  0  0  0  0  0  0  0  0  0  0
  146.8745  143.8498  159.6216 C   0  0  0  0  0  0  0  0  0  0  0  0
  148.5320  144.8860  161.6546 H   0  0  0  0  0  0  0  0  0  0  0  0
  147.6989  146.4279  161.8338 H   0  0  0  0  0  0  0  0  0  0  0  0
  148.4784  146.0226  160.3097 H   0  0  0  0  0  0  0  0  0  0  0  0
  146.0192  145.7477  160.1448 H   0  0  0  0  0  0  0  0  0  0  0  0
  146.3406  143.7013  162.3847 H   0  0  0  0  0  0  0  0  0  0  0  0
  145.5067  145.2345  162.5045 H   0  0  0  0  0  0  0  0  0  0  0  0
  143.9175  143.3357  162.1182 H   0  0  0  0  0  0  0  0  0  0  0  0
  143.8340  144.5257  160.8411 H   0  0  0  0  0  0  0  0  0  0  0  0
  145.3464  141.8615  160.7199 H   0  0  0  0  0  0  0  0  0  0  0  0
  143.8709  142.2707  159.8656 H   0  0  0  0  0  0  0  0  0  0  0  0
  146.3557  141.3791  158.4433 H   0  0  0  0  0  0  0  0  0  0  0  0
  144.8538  141.8781  157.7046 H   0  0  0  0  0  0  0  0  0  0  0  0
  145.8332  143.3712  156.2060 H   0  0  0  0  0  0  0  0  0  0  0  0
  147.2768  143.5969  157.1537 H   0  0  0  0  0  0  0  0  0  0  0  0
  147.0333  140.7923  156.3306 H   0  0  0  0  0  0  0  0  0  0  0  0
  146.9239  141.8444  154.9427 H   0  0  0  0  0  0  0  0  0  0  0  0
  149.0935  142.8724  155.8323 H   0  0  0  0  0  0  0  0  0  0  0  0
  151.6854  140.4556  156.1474 H   0  0  0  0  0  0  0  0  0  0  0  0
  151.3008  141.9815  155.4167 H   0  0  0  0  0  0  0  0  0  0  0  0
  150.2778  143.7234  157.1268 H   0  0  0  0  0  0  0  0  0  0  0  0
  150.8317  144.9317  159.1186 H   0  0  0  0  0  0  0  0  0  0  0  0
  154.1281  140.6717  160.1383 H   0  0  0  0  0  0  0  0  0  0  0  0
  153.0428  141.2680  161.4362 H   0  0  0  0  0  0  0  0  0  0  0  0
  154.3860  142.2934  160.8050 H   0  0  0  0  0  0  0  0  0  0  0  0
  147.4365  144.2660  158.7862 H   0  0  0  0  0  0  0  0  0  0  0  0
  147.5031  143.0769  160.0677 H   0  0  0  0  0  0  0  0  0  0  0  0
  145.0576  143.9828  158.7317 H   0  0  0  0  0  0  0  0  0  0  0  0
  1  2  1  0  0  0  0
  1 24  1  0  0  0  0
  1 25  1  0  0  0  0
  1 26  1  0  0  0  0
  2 23  1  0  0  0  0
  2  3  1  0  0  0  0
  2 27  1  0  0  0  0
  3  4  1  0  0  0  0
  3 28  1  0  0  0  0
  3 29  1  0  0  0  0
  4  5  1  0  0  0  0
  4 30  1  0  0  0  0
  4 31  1  0  0  0  0
  5  6  1  0  0  0  0
  5 32  1  0  0  0  0
  5 33  1  0  0  0  0
  6  7  1  0  0  0  0
  6 23  1  0  0  0  0
  6 50  1  0  0  0  0
  7  8  1  0  0  0  0
  7 34  1  0  0  0  0
  7 35  1  0  0  0  0
  8  9  1  0  0  0  0
  8 36  1  0  0  0  0
  8 37  1  0  0  0  0
  9 10  1  0  0  0  0
  9 38  1  0  0  0  0
  9 39  1  0  0  0  0
 10 11  1  0  0  0  0
 10 40  1  0  0  0  0
 11 12  2  0  0  0  0
 11 13  1  0  0  0  0
 13 14  1  0  0  0  0
 13 41  1  0  0  0  0
 13 42  1  0  0  0  0
 14 21  1  0  0  0  0
 14 15  1  0  0  0  0
 15 16  2  0  0  0  0
 15 43  1  0  0  0  0
 16 17  1  0  0  0  0
 16 44  1  0  0  0  0
 17 18  2  0  0  0  0
 17 19  1  0  0  0  0
 19 20  1  0  0  0  0
 19 21  1  0  0  0  0
 20 45  1  0  0  0  0
 20 46  1  0  0  0  0
 20 47  1  0  0  0  0
 21 22  2  0  0  0  0
 23 48  1  0  0  0  0
 23 49  1  0  0  0  0
M  CHG  1   6   1
M  END
> <s_m_source_file>
AV-unprocessed.smi

> <i_m_source_file_index>
2137

> <i_lp_mmshare_version>
43012

> <i_f3d_flags>
0

> <s_epik_input>
W0NIM11bQ0BASF0xW0NIMl1bQ0gyXVtDSDJdTihbQ0gyXTEpW0NIMl1bQ0gyXVtDSDJdW05IXUMoPU8pW0NIMl1uMltjSF1bY0hdYyg9TyluKFtDSDNdKWMyPU8=

> <s_epik_cmdline>
J2VwaWtfcHl0aG9uJywgJy1waCcsICc3LjAnLCAnLXRuJywgJzgnLCAnLW1hJywgJzIwMCcsICctbWV0YWxfYmluZGluZycsICctaW1hZScsICc8aW5maWxlLm1hZT4nLCAnLW9tYWUnLCAnPG91dGZpbGUubWFlPic=

> <r_lp_tautomer_probability>
1

> <r_epik_Ionization_Penalty>
0.000384839

> <r_epik_Ionization_Penalty_Charging>
0.000384812

> <r_epik_Ionization_Penalty_Neutral>
2.6907e-08

> <r_epik_State_Penalty>
0.000235226

> <r_epik_Charging_Adjusted_Penalty>
0.000620038

> <i_epik_Tot_Q>
1

> <i_epik_Tot_abs_Q>
1

> <r_epik_Metal_State_Penalty>
-0

> <b_epik_Metal_Only>
0

> <s_lp_Force_Field>
OPLS_2005

> <r_lp_Energy>
29.3938

> <b_lp_Chiralities_Consistent>
1

> <s_lp_Variant>
AV-unprocessed.smi:2137-1

> <Gold.Version>
5.8.1

> <Gold.Id.Protein>
6NUR|6NUR_protein|mol2

> <Gold.PLP.Fitness>
51.2520

> <Gold.PLP.PLP>
-44.2134

> <Gold.PLP.part.hbond>
-2.0000

> <Gold.PLP.part.metal>
0.0000

> <Gold.PLP.part.buried>
-7.4184

> <Gold.PLP.part.nonpolar>
-34.1924

> <Gold.PLP.part.repulsive>
0.2379

> <Gold.PLP.ligand.clash>
0.0000

> <Gold.PLP.ligand.torsion>
0.8534

> <Gold.PLP.Chemscore.Hbond>
1.8960

> <Gold.PLP.Chemscore.CHOScore>
1.0000

> <Gold.PLP.Chemscore.Metal>
0.0000

> <Gold.Chemscore.Hbonds>
donor molecule, donor type, donor heavy atom, donor atom, acceptor molecule, acceptor atom, score
      L1  H    10    40       P1  8028  1.00
      P1  H  7997  8010       L1    22  0.67
      L1  C    15    43       P1  8028  1.00

> <Gold.PLP.Chemscore.Internal.Correction>
0.0574

> <Gold.Rescore>
     Score         DG    S(hbond)    S(metal)    S(lipo)     H(rot)  DE(clash)    DE(int)     intcor
     13.77     -14.95       1.85        0.00      77.85       2.27       0.35       0.83       ----

> <Gold.Chemscore.Fitness>
13.7660

> <Gold.Chemscore.DG>
-14.9469

> <Gold.Chemscore.ZeroCoef>
-5.4800

> <Gold.Chemscore.Hbond>
1.8508

> <Gold.Chemscore.Metal>
0.0000

> <Gold.Chemscore.Lipo>
77.8508

> <Gold.Chemscore.Internal_Hbond>
0.0000

> <Gold.Chemscore.DEClash>
0.3483

> <Gold.Chemscore.DEInternal>
0.8325

> <Gold.Chemscore.Rot>
2.2748

> <Gold.Chemscore.Internal.Correction>
   9.000000E+99

> <Gold.Chemscore.Hbonds>
donor molecule, donor type, donor heavy atom, donor atom, acceptor molecule, acceptor atom, score
      L1  H    10    40       P1  8028  0.95
      P1  H  7997  8010       L1    22  0.64

> <Gold.Chemscore.Hbond.Weighted>
-6.1817

> <Gold.Chemscore.Metal.Weighted>
-0.0000

> <Gold.Chemscore.Lipo.Weighted>
-9.1085

> <Gold.Chemscore.Internal_Hbond.Weighted>
0.0000

> <Gold.Chemscore.DEClash.Weighted>
0.3483

> <Gold.Chemscore.DEInternal.Weighted>
0.8325

> <Gold.Chemscore.Rot.Weighted>
5.8234

> <Gold.Chemscore.Internal.Correction.Weighted>
   9.000000E+99

> <Gold.Protein.RotatedTorsions>
[ 6907 6896 6895 6894 ] final  147.81 input  -60.11 | X-H torsion
[ 7974 7965 7964 7962 ] final -142.92 input  175.53 | X-H torsion
[ 8008 7997 7996 7995 ] final   31.22 input   59.86 | X-H torsion
[ 10167 10162 10161 10158 ] final -131.33 input  -65.29 | X-H torsion
[ 10718 10713 10712 10709 ] final -168.05 input   66.30 | X-H torsion
[ 10763 10752 10751 10750 ] final -144.43 input  -60.55 | X-H torsion
[ 11005 11000 10999 10996 ] final   18.41 input  -57.11 | X-H torsion

> <Gold.Protein.ActiveResidues>
 VAL166  LYS551  ARG553  GLY616  TRP617  ASP618  TYR619  PRO620  LYS621  CYS622 
 ASP623  PHE694  ASN695  SER759  ASP760  ASP761  ALA762  ILE779  LEU786  VAL792 
 PHE793  MET794  SER795  GLU796  ALA797  LYS798  CYS799  TRP800  GLU811  SER814 

> <Gold.Protein.RotatedAtoms>
  152.1499  133.4515  159.4807 H   0  0  0  0  0  0  0  0  0  0  0  0  # atno 6907 bound_to 6896
  150.6894  134.2202  159.4403 H   0  0  0  0  0  0  0  0  0  0  0  0  # atno 6908 bound_to 6896
  152.0098  134.9882  160.0618 H   0  0  0  0  0  0  0  0  0  0  0  0  # atno 6909 bound_to 6896
  144.8408  140.5899  143.5454 H   0  0  0  0  0  0  0  0  0  0  0  0  # atno 7974 bound_to 7965
  155.1029  140.3231  155.4542 H   0  0  0  0  0  0  0  0  0  0  0  0  # atno 8008 bound_to 7997
  156.2712  140.2058  156.6102 H   0  0  0  0  0  0  0  0  0  0  0  0  # atno 8009 bound_to 7997
  154.6815  140.0526  157.0258 H   0  0  0  0  0  0  0  0  0  0  0  0  # atno 8010 bound_to 7997
  139.9200  143.6393  152.2556 H   0  0  0  0  0  0  0  0  0  0  0  0  # atno 10167 bound_to 10162
  156.6913  130.9160  151.3069 H   0  0  0  0  0  0  0  0  0  0  0  0  # atno 10718 bound_to 10713
  154.8428  135.3440  154.6345 H   0  0  0  0  0  0  0  0  0  0  0  0  # atno 10763 bound_to 10752
  153.6955  135.6972  153.5082 H   0  0  0  0  0  0  0  0  0  0  0  0  # atno 10764 bound_to 10752
  153.2562  135.4337  155.0803 H   0  0  0  0  0  0  0  0  0  0  0  0  # atno 10765 bound_to 10752
  140.4251  134.1478  155.7676 H   0  0  0  0  0  0  0  0  0  0  0  0  # atno 11005 bound_to 11000
  145.4699  139.1504  143.3820 LP  0  0  0  0  0  0  0  0  0  0  0  0  # atno 17320 bound_to 7965
  146.2700  140.4832  142.8818 LP  0  0  0  0  0  0  0  0  0  0  0  0  # atno 17321 bound_to 7965
  139.6869  144.7650  151.1507 LP  0  0  0  0  0  0  0  0  0  0  0  0  # atno 17342 bound_to 10162
  140.7664  143.5644  150.9064 LP  0  0  0  0  0  0  0  0  0  0  0  0  # atno 17343 bound_to 10162
  157.7008  130.9330  150.0779 LP  0  0  0  0  0  0  0  0  0  0  0  0  # atno 17370 bound_to 10713
  156.1795  130.3649  149.9054 LP  0  0  0  0  0  0  0  0  0  0  0  0  # atno 17371 bound_to 10713
  141.1768  133.8496  157.1393 LP  0  0  0  0  0  0  0  0  0  0  0  0  # atno 17394 bound_to 11000
  140.0173  134.9961  157.0520 LP  0  0  0  0  0  0  0  0  0  0  0  0  # atno 17395 bound_to 11000

$$$$
