AV-unprocessed.smi:3318|AV-procd|sdf|12765|dock5
  -GOLD-   2272019103D 1   1.00000     0.00000
 Structure written by MMmdl.
 44 45  0  0  0  0  0  0  0  0  2 V2000
  146.3570  142.1084  155.1622 C   0  0  0  0  0  0  0  0  0  0  0  0
  147.0587  141.8340  153.8275 C   0  0  0  0  0  0  0  0  0  0  0  0
  147.7994  140.4856  153.8224 C   0  0  0  0  0  0  0  0  0  0  0  0
  148.8717  140.4205  154.8480 N   0  3  2  0  0  0  0  0  0  0  0  0
  149.6426  141.6861  154.9751 C   0  0  0  0  0  0  0  0  0  0  0  0
  150.6543  141.6100  156.1312 C   0  0  0  0  0  0  0  0  0  0  0  0
  151.6080  140.4121  155.9563 C   0  0  1  0  0  0  0  0  0  0  0  0
  152.4814  140.2567  157.1129 N   0  0  0  0  0  0  0  0  0  0  0  0
  151.7548  140.3816  158.3682 C   0  0  0  0  0  0  0  0  0  0  0  0
  152.6834  140.9446  159.4527 C   0  0  0  0  0  0  0  0  0  0  0  0
  152.3893  142.4035  159.7464 C   0  0  0  0  0  0  0  0  0  0  0  0
  152.4614  143.3736  158.7240 C   0  0  0  0  0  0  0  0  0  0  0  0
  152.1640  144.7117  159.0467 C   0  0  0  0  0  0  0  0  0  0  0  0
  151.8070  145.0267  160.3721 C   0  0  0  0  0  0  0  0  0  0  0  0
  151.7637  143.9848  161.3198 C   0  0  0  0  0  0  0  0  0  0  0  0
  152.0463  142.6984  161.0208 N   0  0  0  0  0  0  0  0  0  0  0  0
  150.7806  139.1265  155.7975 C   0  0  0  0  0  0  0  0  0  0  0  0
  149.7720  139.2564  154.6448 C   0  0  0  0  0  0  0  0  0  0  0  0
  145.8385  143.0670  155.1381 H   0  0  0  0  0  0  0  0  0  0  0  0
  147.0714  142.1387  155.9851 H   0  0  0  0  0  0  0  0  0  0  0  0
  145.6195  141.3370  155.3860 H   0  0  0  0  0  0  0  0  0  0  0  0
  146.3141  141.8659  153.0329 H   0  0  0  0  0  0  0  0  0  0  0  0
  147.7644  142.6399  153.6239 H   0  0  0  0  0  0  0  0  0  0  0  0
  147.0674  139.7024  154.0238 H   0  0  0  0  0  0  0  0  0  0  0  0
  148.2133  140.2730  152.8354 H   0  0  0  0  0  0  0  0  0  0  0  0
  150.1617  141.8933  154.0379 H   0  0  0  0  0  0  0  0  0  0  0  0
  148.9709  142.5246  155.1541 H   0  0  0  0  0  0  0  0  0  0  0  0
  151.2114  142.5458  156.1752 H   0  0  0  0  0  0  0  0  0  0  0  0
  150.1170  141.5249  157.0772 H   0  0  0  0  0  0  0  0  0  0  0  0
  152.2144  140.5466  155.0589 H   0  0  0  0  0  0  0  0  0  0  0  0
  152.9646  139.3703  157.0735 H   0  0  0  0  0  0  0  0  0  0  0  0
  150.8983  141.0433  158.2324 H   0  0  0  0  0  0  0  0  0  0  0  0
  151.3729  139.4105  158.6825 H   0  0  0  0  0  0  0  0  0  0  0  0
  152.5775  140.3712  160.3751 H   0  0  0  0  0  0  0  0  0  0  0  0
  153.7253  140.8436  159.1451 H   0  0  0  0  0  0  0  0  0  0  0  0
  152.7346  143.1007  157.7151 H   0  0  0  0  0  0  0  0  0  0  0  0
  152.2071  145.4820  158.2911 H   0  0  0  0  0  0  0  0  0  0  0  0
  151.5713  146.0417  160.6553 H   0  0  0  0  0  0  0  0  0  0  0  0
  151.4931  144.1898  162.3450 H   0  0  0  0  0  0  0  0  0  0  0  0
  151.4399  138.2771  155.6129 H   0  0  0  0  0  0  0  0  0  0  0  0
  150.2446  138.9072  156.7225 H   0  0  0  0  0  0  0  0  0  0  0  0
  149.1835  138.3402  154.5836 H   0  0  0  0  0  0  0  0  0  0  0  0
  150.2971  139.3611  153.6938 H   0  0  0  0  0  0  0  0  0  0  0  0
  148.4103  140.2661  155.7331 H   0  0  0  0  0  0  0  0  0  0  0  0
  1  2  1  0  0  0  0
  1 19  1  0  0  0  0
  1 20  1  0  0  0  0
  1 21  1  0  0  0  0
  2  3  1  0  0  0  0
  2 22  1  0  0  0  0
  2 23  1  0  0  0  0
  3  4  1  0  0  0  0
  3 24  1  0  0  0  0
  3 25  1  0  0  0  0
  4 18  1  0  0  0  0
  4  5  1  0  0  0  0
  4 44  1  0  0  0  0
  5  6  1  0  0  0  0
  5 26  1  0  0  0  0
  5 27  1  0  0  0  0
  6  7  1  0  0  0  0
  6 28  1  0  0  0  0
  6 29  1  0  0  0  0
  7  8  1  0  0  0  0
  7 17  1  0  0  0  0
  7 30  1  0  0  0  0
  8  9  1  0  0  0  0
  8 31  1  0  0  0  0
  9 10  1  0  0  0  0
  9 32  1  0  0  0  0
  9 33  1  0  0  0  0
 10 11  1  0  0  0  0
 10 34  1  0  0  0  0
 10 35  1  0  0  0  0
 11 16  1  0  0  0  0
 11 12  2  0  0  0  0
 12 13  1  0  0  0  0
 12 36  1  0  0  0  0
 13 14  2  0  0  0  0
 13 37  1  0  0  0  0
 14 15  1  0  0  0  0
 14 38  1  0  0  0  0
 15 16  2  0  0  0  0
 15 39  1  0  0  0  0
 17 18  1  0  0  0  0
 17 40  1  0  0  0  0
 17 41  1  0  0  0  0
 18 42  1  0  0  0  0
 18 43  1  0  0  0  0
M  CHG  1   4   1
M  END
> <s_m_source_file>
AV-unprocessed.smi

> <i_m_source_file_index>
3318

> <i_lp_mmshare_version>
43012

> <i_f3d_flags>
0

> <s_epik_input>
W0NIM11bQ0gyXVtDSDJdTjFbQ0gyXVtDSDJdW0NIXShbQ0gyXVtDSDJdMSlbTkhdW0NIMl1bQ0gyXWMyW2NIXVtjSF1bY0hdW2NIXW4y

> <s_epik_cmdline>
J2VwaWtfcHl0aG9uJywgJy1waCcsICc3LjAnLCAnLXRuJywgJzgnLCAnLW1hJywgJzIwMCcsICctbWV0YWxfYmluZGluZycsICctaW1hZScsICc8aW5maWxlLm1hZT4nLCAnLW9tYWUnLCAnPG91dGZpbGUubWFlPic=

> <r_epik_Ionization_Penalty>
2.30703

> <r_epik_Ionization_Penalty_Charging>
0.000286176

> <r_epik_Ionization_Penalty_Neutral>
2.30674

> <r_epik_State_Penalty>
2.39905

> <r_epik_Charging_Adjusted_Penalty>
2.39933

> <i_epik_Tot_Q>
1

> <i_epik_Tot_abs_Q>
1

> <r_epik_Metal_State_Penalty>
2.30906

> <b_epik_Metal_Only>
0

> <s_lp_Force_Field>
OPLS_2005

> <r_lp_Energy>
18.8506

> <b_lp_Chiralities_Consistent>
1

> <s_lp_Variant>
AV-unprocessed.smi:3318-4

> <Gold.Version>
5.8.1

> <Gold.Id.Protein>
6NUR|6NUR_protein|mol2

> <Gold.PLP.Fitness>
44.6571

> <Gold.PLP.PLP>
-46.0699

> <Gold.PLP.part.hbond>
-1.2206

> <Gold.PLP.part.metal>
0.0000

> <Gold.PLP.part.buried>
-3.3069

> <Gold.PLP.part.nonpolar>
-40.2659

> <Gold.PLP.part.repulsive>
0.1662

> <Gold.PLP.ligand.clash>
0.0000

> <Gold.PLP.ligand.torsion>
0.7487

> <Gold.PLP.Chemscore.Hbond>
0.0000

> <Gold.PLP.Chemscore.CHOScore>
0.0000

> <Gold.PLP.Chemscore.Metal>
0.0000

> <Gold.PLP.Chemscore.Internal.Correction>
0.0847

> <Gold.Rescore>
     Score         DG    S(hbond)    S(metal)    S(lipo)     H(rot)  DE(clash)    DE(int)     intcor
     15.78     -16.57       0.00        0.00     127.23       1.48       0.08       0.71       ----

> <Gold.Chemscore.Fitness>
15.7785

> <Gold.Chemscore.DG>
-16.5737

> <Gold.Chemscore.ZeroCoef>
-5.4800

> <Gold.Chemscore.Hbond>
0.0000

> <Gold.Chemscore.Metal>
0.0000

> <Gold.Chemscore.Lipo>
127.2257

> <Gold.Chemscore.Internal_Hbond>
0.0000

> <Gold.Chemscore.DEClash>
0.0842

> <Gold.Chemscore.DEInternal>
0.7110

> <Gold.Chemscore.Rot>
1.4811

> <Gold.Chemscore.Internal.Correction>
   9.000000E+99

> <Gold.Chemscore.Hbond.Weighted>
-0.0000

> <Gold.Chemscore.Metal.Weighted>
-0.0000

> <Gold.Chemscore.Lipo.Weighted>
-14.8854

> <Gold.Chemscore.Internal_Hbond.Weighted>
0.0000

> <Gold.Chemscore.DEClash.Weighted>
0.0842

> <Gold.Chemscore.DEInternal.Weighted>
0.7110

> <Gold.Chemscore.Rot.Weighted>
3.7917

> <Gold.Chemscore.Internal.Correction.Weighted>
   9.000000E+99

> <Gold.Protein.RotatedTorsions>
[ 6907 6896 6895 6894 ] final -130.10 input  -60.11 | X-H torsion
[ 7974 7965 7964 7962 ] final   76.98 input  175.53 | X-H torsion
[ 8008 7997 7996 7995 ] final  103.94 input   59.86 | X-H torsion
[ 10167 10162 10161 10158 ] final  -49.96 input  -65.29 | X-H torsion
[ 10718 10713 10712 10709 ] final   84.89 input   66.30 | X-H torsion
[ 10763 10752 10751 10750 ] final  143.67 input  -60.55 | X-H torsion
[ 11005 11000 10999 10996 ] final  165.96 input  -57.11 | X-H torsion

> <Gold.Protein.ActiveResidues>
 VAL166  LYS551  ARG553  GLY616  TRP617  ASP618  TYR619  PRO620  LYS621  CYS622 
 ASP623  PHE694  ASN695  SER759  ASP760  ASP761  ALA762  ILE779  LEU786  VAL792 
 PHE793  MET794  SER795  GLU796  ALA797  LYS798  CYS799  TRP800  GLU811  SER814 

> <Gold.Protein.RotatedAtoms>
  150.9360  133.6711  159.2800 H   0  0  0  0  0  0  0  0  0  0  0  0  # atno 6907 bound_to 6896
  151.4117  135.0984  159.9597 H   0  0  0  0  0  0  0  0  0  0  0  0  # atno 6908 bound_to 6896
  152.5048  133.8832  159.7411 H   0  0  0  0  0  0  0  0  0  0  0  0  # atno 6909 bound_to 6896
  145.6959  139.2567  143.1733 H   0  0  0  0  0  0  0  0  0  0  0  0  # atno 7974 bound_to 7965
  156.1529  140.3156  155.8677 H   0  0  0  0  0  0  0  0  0  0  0  0  # atno 8008 bound_to 7997
  155.3936  140.0495  157.3057 H   0  0  0  0  0  0  0  0  0  0  0  0  # atno 8009 bound_to 7997
  154.5074  140.2152  155.9234 H   0  0  0  0  0  0  0  0  0  0  0  0  # atno 8010 bound_to 7997
  140.6660  143.2677  151.4290 H   0  0  0  0  0  0  0  0  0  0  0  0  # atno 10167 bound_to 10162
  157.6906  131.0152  150.2740 H   0  0  0  0  0  0  0  0  0  0  0  0  # atno 10718 bound_to 10713
  153.9762  135.2946  155.3423 H   0  0  0  0  0  0  0  0  0  0  0  0  # atno 10763 bound_to 10752
  154.7294  135.5074  153.8943 H   0  0  0  0  0  0  0  0  0  0  0  0  # atno 10764 bound_to 10752
  153.0876  135.6698  154.0031 H   0  0  0  0  0  0  0  0  0  0  0  0  # atno 10765 bound_to 10752
  140.2615  134.7898  157.3594 H   0  0  0  0  0  0  0  0  0  0  0  0  # atno 11005 bound_to 11000
  146.0841  140.7731  142.9627 LP  0  0  0  0  0  0  0  0  0  0  0  0  # atno 17320 bound_to 7965
  144.6983  140.3534  143.7177 LP  0  0  0  0  0  0  0  0  0  0  0  0  # atno 17321 bound_to 7965
  139.5910  144.1500  152.2087 LP  0  0  0  0  0  0  0  0  0  0  0  0  # atno 17342 bound_to 10162
  140.0854  144.5665  150.7092 LP  0  0  0  0  0  0  0  0  0  0  0  0  # atno 17343 bound_to 10162
  156.3298  130.3798  149.7501 LP  0  0  0  0  0  0  0  0  0  0  0  0  # atno 17370 bound_to 10713
  156.5044  130.8143  151.3145 LP  0  0  0  0  0  0  0  0  0  0  0  0  # atno 17371 bound_to 10713
  140.1460  134.4911  155.7996 LP  0  0  0  0  0  0  0  0  0  0  0  0  # atno 17394 bound_to 11000
  141.2189  133.6843  156.7294 LP  0  0  0  0  0  0  0  0  0  0  0  0  # atno 17395 bound_to 11000

$$$$
