AV-unprocessed.smi:290|AV-procd|sdf|2215|dock1
  -GOLD-   2262022 53D 1   1.00000     0.00000
 Structure written by MMmdl.
 59 62  0  0  0  0  0  0  0  0  2 V2000
  152.2737  140.3067  156.8789 C   0  0  0  0  0  0  0  0  0  0  0  0
  152.1242  139.6732  155.4876 C   0  0  2  0  0  0  0  0  0  0  0  0
  150.8816  140.0411  154.8946 O   0  0  0  0  0  0  0  0  0  0  0  0
  150.3854  138.9745  154.0900 C   0  0  0  0  0  0  0  0  0  0  0  0
  151.4885  137.9202  154.0733 C   0  0  0  0  0  0  0  0  0  0  0  0
  152.1737  138.1353  155.4177 C   0  0  1  0  0  0  0  0  0  0  0  0
  153.5145  137.6897  155.3283 O   0  0  0  0  0  0  0  0  0  0  0  0
  151.4689  137.4237  156.6045 C   0  0  0  0  0  0  0  0  0  0  0  0
  150.9134  136.1239  156.2628 N   0  0  0  0  0  0  0  0  0  0  0  0
  149.6153  135.8507  155.8941 C   0  0  0  0  0  0  0  0  0  0  0  0
  149.3623  134.5969  155.6343 N   0  0  0  0  0  0  0  0  0  0  0  0
  150.5795  133.9576  155.8364 C   0  0  0  0  0  0  0  0  0  0  0  0
  151.0251  132.6093  155.7382 C   0  0  0  0  0  0  0  0  0  0  0  0
  150.2482  131.5630  155.3860 N   0  0  0  0  0  0  0  0  0  0  0  0
  150.9678  130.4510  154.7686 C   0  0  0  0  0  0  0  0  0  0  0  0
  150.0017  129.8217  153.7622 C   0  0  0  0  0  0  0  0  0  0  0  0
  149.1898  131.0444  153.3283 C   0  0  1  0  0  0  0  0  0  0  0  0
  147.9434  130.8147  152.5329 N   0  3  1  0  0  0  0  0  0  0  0  0
  147.2198  129.6032  152.9930 C   0  0  0  0  0  0  0  0  0  0  0  0
  147.0445  131.9950  152.3914 C   0  0  0  0  0  0  0  0  0  0  0  0
  145.9028  131.7659  151.3844 C   0  0  0  0  0  0  0  0  0  0  0  0
  146.4171  131.6940  150.0718 O   0  0  0  0  0  0  0  0  0  0  0  0
  149.0349  131.8634  154.6256 C   0  0  1  0  0  0  0  0  0  0  0  0
  147.8025  131.5505  155.4899 C   0  0  0  0  0  0  0  0  0  0  0  0
  152.3283  132.3474  156.0008 N   0  0  0  0  0  0  0  0  0  0  0  0
  153.1505  133.3406  156.3534 C   0  0  0  0  0  0  0  0  0  0  0  0
  152.8778  134.6396  156.4954 N   0  0  0  0  0  0  0  0  0  0  0  0
  151.5680  134.9054  156.2223 C   0  0  0  0  0  0  0  0  0  0  0  0
  149.8601  131.6396  152.7053 H   0  0  0  0  0  0  0  0  0  0  0  0
  148.9859  132.9221  154.3662 H   0  0  0  0  0  0  0  0  0  0  0  0
  153.2083  140.0017  157.3502 H   0  0  0  0  0  0  0  0  0  0  0  0
  151.4536  140.0287  157.5408 H   0  0  0  0  0  0  0  0  0  0  0  0
  152.2788  141.3945  156.8072 H   0  0  0  0  0  0  0  0  0  0  0  0
  152.9012  140.0795  154.8371 H   0  0  0  0  0  0  0  0  0  0  0  0
  149.4812  138.5785  154.5535 H   0  0  0  0  0  0  0  0  0  0  0  0
  150.1283  139.3186  153.0880 H   0  0  0  0  0  0  0  0  0  0  0  0
  151.1155  136.9108  153.9043 H   0  0  0  0  0  0  0  0  0  0  0  0
  152.1785  138.1475  153.2587 H   0  0  0  0  0  0  0  0  0  0  0  0
  153.6338  136.9760  155.9360 H   0  0  0  0  0  0  0  0  0  0  0  0
  152.1658  137.2814  157.4315 H   0  0  0  0  0  0  0  0  0  0  0  0
  150.6617  138.0453  156.9934 H   0  0  0  0  0  0  0  0  0  0  0  0
  148.8560  136.6163  155.8276 H   0  0  0  0  0  0  0  0  0  0  0  0
  151.8607  130.8118  154.2551 H   0  0  0  0  0  0  0  0  0  0  0  0
  151.2862  129.7292  155.5212 H   0  0  0  0  0  0  0  0  0  0  0  0
  150.5150  129.3311  152.9348 H   0  0  0  0  0  0  0  0  0  0  0  0
  149.3925  129.0787  154.2756 H   0  0  0  0  0  0  0  0  0  0  0  0
  146.8465  129.7369  154.0092 H   0  0  0  0  0  0  0  0  0  0  0  0
  147.8756  128.7318  152.9833 H   0  0  0  0  0  0  0  0  0  0  0  0
  146.3757  129.3624  152.3491 H   0  0  0  0  0  0  0  0  0  0  0  0
  146.6334  132.2550  153.3678 H   0  0  0  0  0  0  0  0  0  0  0  0
  147.6024  132.8669  152.0561 H   0  0  0  0  0  0  0  0  0  0  0  0
  145.3248  130.8693  151.6039 H   0  0  0  0  0  0  0  0  0  0  0  0
  145.2047  132.6023  151.4285 H   0  0  0  0  0  0  0  0  0  0  0  0
  147.2779  131.3041  150.1055 H   0  0  0  0  0  0  0  0  0  0  0  0
  146.8757  131.7487  154.9532 H   0  0  0  0  0  0  0  0  0  0  0  0
  147.7943  132.1758  156.3832 H   0  0  0  0  0  0  0  0  0  0  0  0
  147.7941  130.5131  155.8240 H   0  0  0  0  0  0  0  0  0  0  0  0
  154.1728  133.0533  156.5508 H   0  0  0  0  0  0  0  0  0  0  0  0
  148.2635  130.6000  151.5988 H   0  0  0  0  0  0  0  0  0  0  0  0
  1  2  1  0  0  0  0
  1 31  1  0  0  0  0
  1 32  1  0  0  0  0
  1 33  1  0  0  0  0
  2  6  1  0  0  0  0
  2  3  1  0  0  0  0
  2 34  1  0  0  0  0
  3  4  1  0  0  0  0
  4  5  1  0  0  0  0
  4 35  1  0  0  0  0
  4 36  1  0  0  0  0
  5  6  1  0  0  0  0
  5 37  1  0  0  0  0
  5 38  1  0  0  0  0
  6  7  1  0  0  0  0
  6  8  1  0  0  0  0
  7 39  1  0  0  0  0
  8  9  1  0  0  0  0
  8 40  1  0  0  0  0
  8 41  1  0  0  0  0
  9 28  1  0  0  0  0
  9 10  1  0  0  0  0
 10 11  2  0  0  0  0
 10 42  1  0  0  0  0
 11 12  1  0  0  0  0
 12 28  2  0  0  0  0
 12 13  1  0  0  0  0
 13 14  1  0  0  0  0
 13 25  2  0  0  0  0
 14 23  1  0  0  0  0
 14 15  1  0  0  0  0
 15 16  1  0  0  0  0
 15 43  1  0  0  0  0
 15 44  1  0  0  0  0
 16 17  1  0  0  0  0
 16 45  1  0  0  0  0
 16 46  1  0  0  0  0
 17 29  1  0  0  0  0
 17 18  1  0  0  0  0
 17 23  1  0  0  0  0
 18 19  1  0  0  0  0
 18 20  1  0  0  0  0
 18 59  1  0  0  0  0
 19 47  1  0  0  0  0
 19 48  1  0  0  0  0
 19 49  1  0  0  0  0
 20 21  1  0  0  0  0
 20 50  1  0  0  0  0
 20 51  1  0  0  0  0
 21 22  1  0  0  0  0
 21 52  1  0  0  0  0
 21 53  1  0  0  0  0
 22 54  1  0  0  0  0
 23 30  1  0  0  0  0
 23 24  1  0  0  0  0
 24 55  1  0  0  0  0
 24 56  1  0  0  0  0
 24 57  1  0  0  0  0
 25 26  1  0  0  0  0
 26 27  2  0  0  0  0
 26 58  1  0  0  0  0
 27 28  1  0  0  0  0
M  CHG  1  18   1
M  END
> <s_m_source_file>
AV-unprocessed.smi

> <i_m_source_file_index>
290

> <i_lp_mmshare_version>
43012

> <i_f3d_flags>
0

> <s_epik_input>
W0NIMl0xW0NIMl1PW0NAQEhdKFtDSDNdKVtDQEBdMShbT0hdKVtDSDJdbihbY0hdbjIpYyhjMjMpbltjSF1uYzNONFtDSDJdW0NIMl1bQ0BIXShbQ0BIXTRbQ0gzXSlOKFtDSDNdKVtDSDJdW0NIMl1bT0hd

> <s_epik_cmdline>
J2VwaWtfcHl0aG9uJywgJy1waCcsICc3LjAnLCAnLXRuJywgJzgnLCAnLW1hJywgJzIwMCcsICctbWV0YWxfYmluZGluZycsICctaW1hZScsICc8aW5maWxlLm1hZT4nLCAnLW9tYWUnLCAnPG91dGZpbGUubWFlPic=

> <r_lp_tautomer_probability>
1

> <r_epik_Ionization_Penalty>
0.0036983

> <r_epik_Ionization_Penalty_Charging>
0.0032725

> <r_epik_Ionization_Penalty_Neutral>
0.000425798

> <r_epik_State_Penalty>
-0

> <r_epik_Charging_Adjusted_Penalty>
0.0032725

> <i_epik_Tot_Q>
1

> <i_epik_Tot_abs_Q>
1

> <r_epik_Metal_State_Penalty>
-0

> <b_epik_Metal_Only>
0

> <s_lp_Force_Field>
OPLS_2005

> <r_lp_Energy>
65.3188

> <b_lp_Chiralities_Consistent>
1

> <s_lp_Variant>
AV-unprocessed.smi:290-1

> <Gold.Version>
5.8.1

> <Gold.Id.Protein>
6NUR|6NUR_protein|mol2

> <Gold.PLP.Fitness>
46.7202

> <Gold.PLP.PLP>
-39.2181

> <Gold.PLP.part.hbond>
-5.4839

> <Gold.PLP.part.metal>
0.0000

> <Gold.PLP.part.buried>
-3.5576

> <Gold.PLP.part.nonpolar>
-28.7582

> <Gold.PLP.part.repulsive>
0.1220

> <Gold.PLP.ligand.clash>
0.0000

> <Gold.PLP.ligand.torsion>
1.9009

> <Gold.PLP.Chemscore.Hbond>
3.6492

> <Gold.PLP.Chemscore.CHOScore>
0.0000

> <Gold.PLP.Chemscore.Metal>
0.0000

> <Gold.Chemscore.Hbonds>
donor molecule, donor type, donor heavy atom, donor atom, acceptor molecule, acceptor atom, score
      L1  H    18    59       P1 10747  0.94
      L1  H    22    54       P1 10747  1.00
      P1  H  7989  7998       L1     3  0.46
      P1  H 10752 10765       L1    27  0.70

> <Gold.PLP.Chemscore.Internal.Correction>
0.3562

> <Gold.Rescore>
     Score         DG    S(hbond)    S(metal)    S(lipo)     H(rot)  DE(clash)    DE(int)     intcor
     10.87     -15.66       2.75        0.00      88.70       3.67       1.51       3.28       ----

> <Gold.Chemscore.Fitness>
10.8693

> <Gold.Chemscore.DG>
-15.6603

> <Gold.Chemscore.ZeroCoef>
-5.4800

> <Gold.Chemscore.Hbond>
2.7507

> <Gold.Chemscore.Metal>
0.0000

> <Gold.Chemscore.Lipo>
88.6951

> <Gold.Chemscore.Internal_Hbond>
0.0000

> <Gold.Chemscore.DEClash>
1.5098

> <Gold.Chemscore.DEInternal>
3.2812

> <Gold.Chemscore.Rot>
3.6658

> <Gold.Chemscore.Internal.Correction>
   9.000000E+99

> <Gold.Chemscore.Hbonds>
donor molecule, donor type, donor heavy atom, donor atom, acceptor molecule, acceptor atom, score
      L1  H    18    59       P1 10747  0.89
      L1  H    22    54       P1 10747  1.00
      P1  H 10752 10765       L1    27  0.08

> <Gold.Chemscore.Hbond.Weighted>
-9.1874

> <Gold.Chemscore.Metal.Weighted>
-0.0000

> <Gold.Chemscore.Lipo.Weighted>
-10.3773

> <Gold.Chemscore.Internal_Hbond.Weighted>
0.0000

> <Gold.Chemscore.DEClash.Weighted>
1.5098

> <Gold.Chemscore.DEInternal.Weighted>
3.2812

> <Gold.Chemscore.Rot.Weighted>
9.3844

> <Gold.Chemscore.Internal.Correction.Weighted>
   9.000000E+99

> <Gold.Protein.RotatedTorsions>
[ 6907 6896 6895 6894 ] final   33.55 input  -60.11 | X-H torsion
[ 7974 7965 7964 7962 ] final   64.15 input  175.53 | X-H torsion
[ 8008 7997 7996 7995 ] final  110.09 input   59.86 | X-H torsion
[ 10167 10162 10161 10158 ] final   52.24 input  -65.29 | X-H torsion
[ 10718 10713 10712 10709 ] final -116.14 input   66.30 | X-H torsion
[ 10763 10752 10751 10750 ] final -123.40 input  -60.55 | X-H torsion
[ 11005 11000 10999 10996 ] final  164.07 input  -57.11 | X-H torsion

> <Gold.Protein.ActiveResidues>
 VAL166  LYS551  ARG553  GLY616  TRP617  ASP618  TYR619  PRO620  LYS621  CYS622 
 ASP623  PHE694  ASN695  SER759  ASP760  ASP761  ALA762  ILE779  LEU786  VAL792 
 PHE793  MET794  SER795  GLU796  ALA797  LYS798  CYS799  TRP800  GLU811  SER814 

> <Gold.Protein.RotatedAtoms>
  152.0900  134.9413  160.0571 H   0  0  0  0  0  0  0  0  0  0  0  0  # atno 6907 bound_to 6896
  152.0668  133.4083  159.4450 H   0  0  0  0  0  0  0  0  0  0  0  0  # atno 6908 bound_to 6896
  150.6837  134.3057  159.4768 H   0  0  0  0  0  0  0  0  0  0  0  0  # atno 6909 bound_to 6896
  145.8535  139.3269  143.0861 H   0  0  0  0  0  0  0  0  0  0  0  0  # atno 7974 bound_to 7965
  156.2028  140.3045  155.9562 H   0  0  0  0  0  0  0  0  0  0  0  0  # atno 8008 bound_to 7997
  155.2914  140.0442  157.3040 H   0  0  0  0  0  0  0  0  0  0  0  0  # atno 8009 bound_to 7997
  154.5593  140.2315  155.8370 H   0  0  0  0  0  0  0  0  0  0  0  0  # atno 8010 bound_to 7997
  140.2535  144.3453  150.6340 H   0  0  0  0  0  0  0  0  0  0  0  0  # atno 10167 bound_to 10162
  156.0943  130.6119  150.8997 H   0  0  0  0  0  0  0  0  0  0  0  0  # atno 10718 bound_to 10713
  154.8707  135.4099  154.2938 H   0  0  0  0  0  0  0  0  0  0  0  0  # atno 10763 bound_to 10752
  153.3809  135.7011  153.6571 H   0  0  0  0  0  0  0  0  0  0  0  0  # atno 10764 bound_to 10752
  153.5394  135.3651  155.2683 H   0  0  0  0  0  0  0  0  0  0  0  0  # atno 10765 bound_to 10752
  140.2422  134.8042  157.3422 H   0  0  0  0  0  0  0  0  0  0  0  0  # atno 11005 bound_to 11000
  145.9330  140.9035  143.0346 LP  0  0  0  0  0  0  0  0  0  0  0  0  # atno 17320 bound_to 7965
  144.6728  140.1444  143.7434 LP  0  0  0  0  0  0  0  0  0  0  0  0  # atno 17321 bound_to 7965
  140.6022  143.2167  151.7050 LP  0  0  0  0  0  0  0  0  0  0  0  0  # atno 17342 bound_to 10162
  139.5039  144.3775  152.0409 LP  0  0  0  0  0  0  0  0  0  0  0  0  # atno 17343 bound_to 10162
  157.6100  131.0937  150.8811 LP  0  0  0  0  0  0  0  0  0  0  0  0  # atno 17370 bound_to 10713
  156.8952  130.5227  149.5284 LP  0  0  0  0  0  0  0  0  0  0  0  0  # atno 17371 bound_to 10713
  140.1642  134.4690  155.7874 LP  0  0  0  0  0  0  0  0  0  0  0  0  # atno 17394 bound_to 11000
  141.2209  133.6914  156.7596 LP  0  0  0  0  0  0  0  0  0  0  0  0  # atno 17395 bound_to 11000

$$$$
