AV-unprocessed.smi:1254|AV-procd|sdf|5272|dock1
  -GOLD-   22720 4383D 1   1.00000     0.00000
 Structure written by MMmdl.
 46 47  0  0  0  0  0  0  0  0  2 V2000
  144.1325  135.3126  151.6279 C   0  0  0  0  0  0  0  0  0  0  0  0
  145.1429  136.3919  151.4400 C   0  0  0  0  0  0  0  0  0  0  0  0
  145.6974  137.3043  152.2927 C   0  0  0  0  0  0  0  0  0  0  0  0
  146.5834  138.0296  151.4527 C   0  0  0  0  0  0  0  0  0  0  0  0
  147.3709  139.0902  151.9685 N   0  0  0  0  0  0  0  0  0  0  0  0
  147.2247  139.7185  153.1470 C   0  0  0  0  0  0  0  0  0  0  0  0
  146.3718  139.4511  153.9940 O   0  0  0  0  0  0  0  0  0  0  0  0
  148.1305  140.6956  153.2970 N   0  0  0  0  0  0  0  0  0  0  0  0
  148.2306  141.5681  154.4622 C   0  0  0  0  0  0  0  0  0  0  0  0
  149.6420  141.5482  155.0768 C   0  0  1  0  0  0  0  0  0  0  0  0
  149.6736  142.2063  156.4695 C   0  0  0  0  0  0  0  0  0  0  0  0
  151.0361  142.1211  157.0516 N   0  3  1  0  0  0  0  0  0  0  0  0
  151.1647  142.7828  158.3755 C   0  0  0  0  0  0  0  0  0  0  0  0
  152.5832  143.3278  158.6508 C   0  0  0  0  0  0  0  0  0  0  0  0
  152.9428  143.2660  160.1448 C   0  0  0  0  0  0  0  0  0  0  0  0
  152.7182  144.7653  158.1271 C   0  0  0  0  0  0  0  0  0  0  0  0
  151.4983  140.7131  157.0772 C   0  0  0  0  0  0  0  0  0  0  0  0
  151.3974  140.0870  155.6767 C   0  0  0  0  0  0  0  0  0  0  0  0
  150.0608  140.1930  155.2037 O   0  0  0  0  0  0  0  0  0  0  0  0
  146.5723  137.5981  150.2006 N   0  0  0  0  0  0  0  0  0  0  0  0
  145.6478  136.5471  150.1861 O   0  0  0  0  0  0  0  0  0  0  0  0
  144.0684  135.0179  152.6755 H   0  0  0  0  0  0  0  0  0  0  0  0
  144.3927  134.4291  151.0446 H   0  0  0  0  0  0  0  0  0  0  0  0
  143.1457  135.6500  151.3103 H   0  0  0  0  0  0  0  0  0  0  0  0
  145.4983  137.4297  153.3464 H   0  0  0  0  0  0  0  0  0  0  0  0
  148.1197  139.4092  151.3719 H   0  0  0  0  0  0  0  0  0  0  0  0
  148.7957  140.8502  152.5533 H   0  0  0  0  0  0  0  0  0  0  0  0
  147.9554  142.5849  154.1775 H   0  0  0  0  0  0  0  0  0  0  0  0
  147.4955  141.2438  155.1992 H   0  0  0  0  0  0  0  0  0  0  0  0
  150.3311  142.0803  154.4181 H   0  0  0  0  0  0  0  0  0  0  0  0
  149.3652  143.2470  156.3786 H   0  0  0  0  0  0  0  0  0  0  0  0
  148.9593  141.7179  157.1344 H   0  0  0  0  0  0  0  0  0  0  0  0
  150.4253  143.5819  158.4492 H   0  0  0  0  0  0  0  0  0  0  0  0
  150.9166  142.0668  159.1606 H   0  0  0  0  0  0  0  0  0  0  0  0
  153.3106  142.7279  158.1049 H   0  0  0  0  0  0  0  0  0  0  0  0
  152.2432  143.8476  160.7460 H   0  0  0  0  0  0  0  0  0  0  0  0
  153.9427  143.6628  160.3239 H   0  0  0  0  0  0  0  0  0  0  0  0
  152.9306  142.2416  160.5175 H   0  0  0  0  0  0  0  0  0  0  0  0
  152.0267  145.4392  158.6339 H   0  0  0  0  0  0  0  0  0  0  0  0
  152.5097  144.8165  157.0581 H   0  0  0  0  0  0  0  0  0  0  0  0
  153.7277  145.1478  158.2816 H   0  0  0  0  0  0  0  0  0  0  0  0
  152.5314  140.6669  157.4237 H   0  0  0  0  0  0  0  0  0  0  0  0
  150.8953  140.1432  157.7861 H   0  0  0  0  0  0  0  0  0  0  0  0
  152.0835  140.5724  154.9807 H   0  0  0  0  0  0  0  0  0  0  0  0
  151.6763  139.0340  155.7149 H   0  0  0  0  0  0  0  0  0  0  0  0
  151.6574  142.6109  156.4232 H   0  0  0  0  0  0  0  0  0  0  0  0
  1  2  1  0  0  0  0
  1 22  1  0  0  0  0
  1 23  1  0  0  0  0
  1 24  1  0  0  0  0
  2 21  1  0  0  0  0
  2  3  2  0  0  0  0
  3  4  1  0  0  0  0
  3 25  1  0  0  0  0
  4  5  1  0  0  0  0
  4 20  2  0  0  0  0
  5  6  1  0  0  0  0
  5 26  1  0  0  0  0
  6  7  2  0  0  0  0
  6  8  1  0  0  0  0
  8  9  1  0  0  0  0
  8 27  1  0  0  0  0
  9 10  1  0  0  0  0
  9 28  1  0  0  0  0
  9 29  1  0  0  0  0
 10 19  1  0  0  0  0
 10 11  1  0  0  0  0
 10 30  1  0  0  0  0
 11 12  1  0  0  0  0
 11 31  1  0  0  0  0
 11 32  1  0  0  0  0
 12 13  1  0  0  0  0
 12 17  1  0  0  0  0
 12 46  1  0  0  0  0
 13 14  1  0  0  0  0
 13 33  1  0  0  0  0
 13 34  1  0  0  0  0
 14 15  1  0  0  0  0
 14 16  1  0  0  0  0
 14 35  1  0  0  0  0
 15 36  1  0  0  0  0
 15 37  1  0  0  0  0
 15 38  1  0  0  0  0
 16 39  1  0  0  0  0
 16 40  1  0  0  0  0
 16 41  1  0  0  0  0
 17 18  1  0  0  0  0
 17 42  1  0  0  0  0
 17 43  1  0  0  0  0
 18 19  1  0  0  0  0
 18 44  1  0  0  0  0
 18 45  1  0  0  0  0
 20 21  1  0  0  0  0
M  CHG  1  12   1
M  END
> <s_m_source_file>
AV-unprocessed.smi

> <i_m_source_file_index>
1254

> <i_lp_mmshare_version>
43012

> <i_f3d_flags>
0

> <s_epik_input>
W0NIM11jMVtjSF1jKG5vMSlbTkhdQyg9TylbTkhdW0NIMl1bQ0BASF0yW0NIMl1OKFtDSDJdW0NIMl1PMilbQ0gyXVtDSF0oW0NIM10pW0NIM10=

> <s_epik_cmdline>
J2VwaWtfcHl0aG9uJywgJy1waCcsICc3LjAnLCAnLXRuJywgJzgnLCAnLW1hJywgJzIwMCcsICctbWV0YWxfYmluZGluZycsICctaW1hZScsICc8aW5maWxlLm1hZT4nLCAnLW9tYWUnLCAnPG91dGZpbGUubWFlPic=

> <r_epik_Ionization_Penalty>
0.0986825

> <r_epik_Ionization_Penalty_Charging>
0.0986478

> <r_epik_Ionization_Penalty_Neutral>
3.46838e-05

> <r_epik_State_Penalty>
0.0887259

> <r_epik_Charging_Adjusted_Penalty>
0.187374

> <i_epik_Tot_Q>
1

> <i_epik_Tot_abs_Q>
1

> <r_epik_Metal_State_Penalty>
0.103424

> <b_epik_Metal_Only>
0

> <s_lp_Force_Field>
OPLS_2005

> <r_lp_Energy>
13.7393

> <b_lp_Chiralities_Consistent>
1

> <s_lp_Variant>
AV-unprocessed.smi:1254-4

> <Gold.Version>
5.8.1

> <Gold.Id.Protein>
6NUR|6NUR_protein|mol2

> <Gold.PLP.Fitness>
44.3941

> <Gold.PLP.PLP>
-37.1631

> <Gold.PLP.part.hbond>
-3.7607

> <Gold.PLP.part.metal>
0.0000

> <Gold.PLP.part.buried>
-3.0084

> <Gold.PLP.part.nonpolar>
-35.0987

> <Gold.PLP.part.repulsive>
4.1878

> <Gold.PLP.ligand.clash>
0.0000

> <Gold.PLP.ligand.torsion>
0.8243

> <Gold.PLP.Chemscore.Hbond>
2.8880

> <Gold.PLP.Chemscore.CHOScore>
0.0000

> <Gold.PLP.Chemscore.Metal>
0.0000

> <Gold.Chemscore.Hbonds>
donor molecule, donor type, donor heavy atom, donor atom, acceptor molecule, acceptor atom, score
      L1  H     5    26       P1  7957  1.00
      L1  H     8    27       P1  7957  0.86
      P1  H  7954  7966       L1    20  0.69

> <Gold.PLP.Chemscore.Internal.Correction>
0.2157

> <Gold.Rescore>
     Score         DG    S(hbond)    S(metal)    S(lipo)     H(rot)  DE(clash)    DE(int)     intcor
     15.49     -20.43       2.44        0.00      95.91       1.73       2.68       2.26       ----

> <Gold.Chemscore.Fitness>
15.4935

> <Gold.Chemscore.DG>
-20.4315

> <Gold.Chemscore.ZeroCoef>
-5.4800

> <Gold.Chemscore.Hbond>
2.4420

> <Gold.Chemscore.Metal>
0.0000

> <Gold.Chemscore.Lipo>
95.9128

> <Gold.Chemscore.Internal_Hbond>
0.0000

> <Gold.Chemscore.DEClash>
2.6822

> <Gold.Chemscore.DEInternal>
2.2559

> <Gold.Chemscore.Rot>
1.7291

> <Gold.Chemscore.Internal.Correction>
   9.000000E+99

> <Gold.Chemscore.Hbonds>
donor molecule, donor type, donor heavy atom, donor atom, acceptor molecule, acceptor atom, score
      L1  H     5    26       P1  7957  0.88
      L1  H     8    27       P1  7957  0.85
      P1  H  7954  7966       L1    20  0.14

> <Gold.Chemscore.Hbond.Weighted>
-8.1562

> <Gold.Chemscore.Metal.Weighted>
-0.0000

> <Gold.Chemscore.Lipo.Weighted>
-11.2218

> <Gold.Chemscore.Internal_Hbond.Weighted>
0.0000

> <Gold.Chemscore.DEClash.Weighted>
2.6822

> <Gold.Chemscore.DEInternal.Weighted>
2.2559

> <Gold.Chemscore.Rot.Weighted>
4.4265

> <Gold.Chemscore.Internal.Correction.Weighted>
   9.000000E+99

> <Gold.Protein.RotatedTorsions>
[ 6907 6896 6895 6894 ] final  -42.50 input  -60.11 | X-H torsion
[ 7974 7965 7964 7962 ] final  -93.64 input  175.53 | X-H torsion
[ 8008 7997 7996 7995 ] final  107.09 input   59.86 | X-H torsion
[ 10167 10162 10161 10158 ] final  -35.87 input  -65.29 | X-H torsion
[ 10718 10713 10712 10709 ] final   17.75 input   66.30 | X-H torsion
[ 10763 10752 10751 10750 ] final -149.21 input  -60.55 | X-H torsion
[ 11005 11000 10999 10996 ] final  -20.94 input  -57.11 | X-H torsion

> <Gold.Protein.ActiveResidues>
 VAL166  LYS551  ARG553  GLY616  TRP617  ASP618  TYR619  PRO620  LYS621  CYS622 
 ASP623  PHE694  ASN695  SER759  ASP760  ASP761  ALA762  ILE779  LEU786  VAL792 
 PHE793  MET794  SER795  GLU796  ALA797  LYS798  CYS799  TRP800  GLU811  SER814 

> <Gold.Protein.RotatedAtoms>
  150.9545  134.8941  159.7692 H   0  0  0  0  0  0  0  0  0  0  0  0  # atno 6907 bound_to 6896
  152.5132  134.3759  159.9344 H   0  0  0  0  0  0  0  0  0  0  0  0  # atno 6908 bound_to 6896
  151.3774  133.3793  159.2741 H   0  0  0  0  0  0  0  0  0  0  0  0  # atno 6909 bound_to 6896
  145.3839  140.9521  143.2378 H   0  0  0  0  0  0  0  0  0  0  0  0  # atno 7974 bound_to 7965
  156.1796  140.3101  155.9124 H   0  0  0  0  0  0  0  0  0  0  0  0  # atno 8008 bound_to 7997
  155.3412  140.0466  157.3062 H   0  0  0  0  0  0  0  0  0  0  0  0  # atno 8009 bound_to 7997
  154.5328  140.2236  155.8784 H   0  0  0  0  0  0  0  0  0  0  0  0  # atno 8010 bound_to 7997
  140.7155  143.3447  151.2281 H   0  0  0  0  0  0  0  0  0  0  0  0  # atno 10167 bound_to 10162
  157.0866  130.6410  149.5839 H   0  0  0  0  0  0  0  0  0  0  0  0  # atno 10718 bound_to 10713
  154.8190  135.3315  154.7094 H   0  0  0  0  0  0  0  0  0  0  0  0  # atno 10763 bound_to 10752
  153.7730  135.6924  153.4907 H   0  0  0  0  0  0  0  0  0  0  0  0  # atno 10764 bound_to 10752
  153.2032  135.4508  155.0240 H   0  0  0  0  0  0  0  0  0  0  0  0  # atno 10765 bound_to 10752
  140.8513  133.7854  155.9969 H   0  0  0  0  0  0  0  0  0  0  0  0  # atno 11005 bound_to 11000
  144.8488  139.5355  143.6866 LP  0  0  0  0  0  0  0  0  0  0  0  0  # atno 17320 bound_to 7965
  146.2829  139.6926  142.9216 LP  0  0  0  0  0  0  0  0  0  0  0  0  # atno 17321 bound_to 7965
  139.6964  143.9606  152.2884 LP  0  0  0  0  0  0  0  0  0  0  0  0  # atno 17342 bound_to 10162
  139.9285  144.6756  150.8387 LP  0  0  0  0  0  0  0  0  0  0  0  0  # atno 17343 bound_to 10162
  155.9909  130.4962  150.7277 LP  0  0  0  0  0  0  0  0  0  0  0  0  # atno 17370 bound_to 10713
  157.4756  131.0897  151.0594 LP  0  0  0  0  0  0  0  0  0  0  0  0  # atno 17371 bound_to 10713
  140.8786  134.2638  157.5155 LP  0  0  0  0  0  0  0  0  0  0  0  0  # atno 17394 bound_to 11000
  139.8704  134.9604  156.4362 LP  0  0  0  0  0  0  0  0  0  0  0  0  # atno 17395 bound_to 11000

$$$$
