AV-unprocessed.smi:2005|AV-procd|sdf|8125|dock4
  -GOLD-   2272010363D 1   1.00000     0.00000
 Structure written by MMmdl.
 39 40  0  0  0  0  0  0  0  0  1 V2000
  150.6956  130.7618  158.4825 C   0  0  0  0  0  0  0  0  0  0  0  0
  151.3331  130.9041  157.0930 C   0  0  0  0  0  0  0  0  0  0  0  0
  152.8570  131.0871  157.1456 C   0  0  0  0  0  0  0  0  0  0  0  0
  150.6663  131.9623  156.2702 C   0  0  0  0  0  0  0  0  0  0  0  0
  150.6767  133.2601  156.6032 N   0  0  0  0  0  0  0  0  0  0  0  0
  150.0003  134.0476  155.6824 N   0  0  0  0  0  0  0  0  0  0  0  0
  149.4956  133.3192  154.6775 C   0  0  0  0  0  0  0  0  0  0  0  0
  148.7596  133.8706  153.5955 N   0  0  0  0  0  0  0  0  0  0  0  0
  147.6706  133.3689  152.9868 C   0  0  0  0  0  0  0  0  0  0  0  0
  147.1210  132.3048  153.2733 O   0  0  0  0  0  0  0  0  0  0  0  0
  147.2392  134.1858  152.0145 N   0  0  0  0  0  0  0  0  0  0  0  0
  146.0668  133.9534  151.1759 C   0  0  2  0  0  0  0  0  0  0  0  0
  144.8260  133.7514  152.0664 C   0  0  0  0  0  0  0  0  0  0  0  0
  143.5768  133.4329  151.2289 C   0  0  0  0  0  0  0  0  0  0  0  0
  143.8116  132.2079  150.3290 C   0  0  1  0  0  0  0  0  0  0  0  0
  142.6706  131.9830  149.5285 O   0  0  0  0  0  0  0  0  0  0  0  0
  145.0406  132.4126  149.4275 C   0  0  0  0  0  0  0  0  0  0  0  0
  146.2919  132.7311  150.2616 C   0  0  0  0  0  0  0  0  0  0  0  0
  149.8034  131.5944  154.7801 S   0  0  0  0  0  0  0  0  0  0  0  0
  149.6289  130.5493  158.4048 H   0  0  0  0  0  0  0  0  0  0  0  0
  150.8124  131.6741  159.0683 H   0  0  0  0  0  0  0  0  0  0  0  0
  151.1544  129.9467  159.0430 H   0  0  0  0  0  0  0  0  0  0  0  0
  151.1571  129.9588  156.5781 H   0  0  0  0  0  0  0  0  0  0  0  0
  153.2858  131.0999  156.1432 H   0  0  0  0  0  0  0  0  0  0  0  0
  153.3313  130.2753  157.6974 H   0  0  0  0  0  0  0  0  0  0  0  0
  153.1277  132.0230  157.6356 H   0  0  0  0  0  0  0  0  0  0  0  0
  149.0920  134.7610  153.2562 H   0  0  0  0  0  0  0  0  0  0  0  0
  147.7523  135.0393  151.8487 H   0  0  0  0  0  0  0  0  0  0  0  0
  145.8931  134.8322  150.5517 H   0  0  0  0  0  0  0  0  0  0  0  0
  145.0034  132.9374  152.7708 H   0  0  0  0  0  0  0  0  0  0  0  0
  144.6466  134.6449  152.6657 H   0  0  0  0  0  0  0  0  0  0  0  0
  142.7257  133.2574  151.8880 H   0  0  0  0  0  0  0  0  0  0  0  0
  143.3217  134.2997  150.6174 H   0  0  0  0  0  0  0  0  0  0  0  0
  143.9626  131.3252  150.9517 H   0  0  0  0  0  0  0  0  0  0  0  0
  142.1311  132.7587  149.5491 H   0  0  0  0  0  0  0  0  0  0  0  0
  145.2166  131.5211  148.8245 H   0  0  0  0  0  0  0  0  0  0  0  0
  144.8566  133.2289  148.7274 H   0  0  0  0  0  0  0  0  0  0  0  0
  147.1372  132.9090  149.5958 H   0  0  0  0  0  0  0  0  0  0  0  0
  146.5532  131.8611  150.8654 H   0  0  0  0  0  0  0  0  0  0  0  0
  1  2  1  0  0  0  0
  1 20  1  0  0  0  0
  1 21  1  0  0  0  0
  1 22  1  0  0  0  0
  2  3  1  0  0  0  0
  2  4  1  0  0  0  0
  2 23  1  0  0  0  0
  3 24  1  0  0  0  0
  3 25  1  0  0  0  0
  3 26  1  0  0  0  0
  4 19  1  0  0  0  0
  4  5  2  0  0  0  0
  5  6  1  0  0  0  0
  6  7  2  0  0  0  0
  7  8  1  0  0  0  0
  7 19  1  0  0  0  0
  8  9  1  0  0  0  0
  8 27  1  0  0  0  0
  9 10  2  0  0  0  0
  9 11  1  0  0  0  0
 11 12  1  0  0  0  0
 11 28  1  0  0  0  0
 12 18  1  0  0  0  0
 12 13  1  0  0  0  0
 12 29  1  0  0  0  0
 13 14  1  0  0  0  0
 13 30  1  0  0  0  0
 13 31  1  0  0  0  0
 14 15  1  0  0  0  0
 14 32  1  0  0  0  0
 14 33  1  0  0  0  0
 15 16  1  0  0  0  0
 15 17  1  0  0  0  0
 15 34  1  0  0  0  0
 16 35  1  0  0  0  0
 17 18  1  0  0  0  0
 17 36  1  0  0  0  0
 17 37  1  0  0  0  0
 18 38  1  0  0  0  0
 18 39  1  0  0  0  0
M  END
> <s_m_source_file>
AV-unprocessed.smi

> <i_m_source_file_index>
2005

> <i_lp_mmshare_version>
43012

> <i_f3d_flags>
0

> <s_epik_input>
W0NIM11bQ0hdKFtDSDNdKWMxbm5jKHMxKVtOSF1DKD1PKVtOSF1bQ0BASF0yW0NIMl1bQ0gyXVtDQEBIXShbT0hdKVtDSDJdW0NIMl0y

> <s_epik_cmdline>
J2VwaWtfcHl0aG9uJywgJy1waCcsICc3LjAnLCAnLXRuJywgJzgnLCAnLW1hJywgJzIwMCcsICctbWV0YWxfYmluZGluZycsICctaW1hZScsICc8aW5maWxlLm1hZT4nLCAnLW9tYWUnLCAnPG91dGZpbGUubWFlPic=

> <r_lp_tautomer_probability>
1

> <r_epik_Ionization_Penalty>
0.000372581

> <r_epik_Ionization_Penalty_Charging>
0

> <r_epik_Ionization_Penalty_Neutral>
0.000372581

> <r_epik_State_Penalty>
-0

> <r_epik_Charging_Adjusted_Penalty>
0

> <i_epik_Tot_Q>
0

> <i_epik_Tot_abs_Q>
0

> <r_epik_Metal_State_Penalty>
0.186152

> <b_epik_Metal_Only>
0

> <s_lp_Force_Field>
OPLS_2005

> <r_lp_Energy>
0.700643

> <b_lp_Chiralities_Consistent>
1

> <s_lp_Variant>
AV-unprocessed.smi:2005-1

> <Gold.Version>
5.8.1

> <Gold.Id.Protein>
6NUR|6NUR_protein|mol2

> <Gold.PLP.Fitness>
42.0627

> <Gold.PLP.PLP>
-31.7396

> <Gold.PLP.part.hbond>
-4.8234

> <Gold.PLP.part.metal>
0.0000

> <Gold.PLP.part.buried>
-2.2344

> <Gold.PLP.part.nonpolar>
-24.6773

> <Gold.PLP.part.repulsive>
0.1741

> <Gold.PLP.ligand.clash>
0.0000

> <Gold.PLP.ligand.torsion>
0.3731

> <Gold.PLP.Chemscore.Hbond>
3.6633

> <Gold.PLP.Chemscore.CHOScore>
0.0000

> <Gold.PLP.Chemscore.Metal>
0.0000

> <Gold.Chemscore.Hbonds>
donor molecule, donor type, donor heavy atom, donor atom, acceptor molecule, acceptor atom, score
      L1  H     8    27       P1  7948  0.67
      L1  H    11    28       P1  7948  1.00
      L1  H    16    35       P1 10186  1.00
      P1  H 10785 10796       L1    16  0.86

> <Gold.PLP.Chemscore.Internal.Correction>
0.0795

> <Gold.Rescore>
     Score         DG    S(hbond)    S(metal)    S(lipo)     H(rot)  DE(clash)    DE(int)     intcor
     16.54     -17.92       2.67        0.00      67.74       1.72       0.01       1.37       ----

> <Gold.Chemscore.Fitness>
16.5418

> <Gold.Chemscore.DG>
-17.9239

> <Gold.Chemscore.ZeroCoef>
-5.4800

> <Gold.Chemscore.Hbond>
2.6715

> <Gold.Chemscore.Metal>
0.0000

> <Gold.Chemscore.Lipo>
67.7443

> <Gold.Chemscore.Internal_Hbond>
0.0000

> <Gold.Chemscore.DEClash>
0.0121

> <Gold.Chemscore.DEInternal>
1.3700

> <Gold.Chemscore.Rot>
1.7207

> <Gold.Chemscore.Internal.Correction>
   9.000000E+99

> <Gold.Chemscore.Hbonds>
donor molecule, donor type, donor heavy atom, donor atom, acceptor molecule, acceptor atom, score
      L1  H     8    27       P1  7948  0.07
      L1  H    11    28       P1  7948  0.70
      L1  H    16    35       P1 10186  0.97
      P1  H 10785 10796       L1    16  0.19

> <Gold.Chemscore.Hbond.Weighted>
-8.9230

> <Gold.Chemscore.Metal.Weighted>
-0.0000

> <Gold.Chemscore.Lipo.Weighted>
-7.9261

> <Gold.Chemscore.Internal_Hbond.Weighted>
0.0000

> <Gold.Chemscore.DEClash.Weighted>
0.0121

> <Gold.Chemscore.DEInternal.Weighted>
1.3700

> <Gold.Chemscore.Rot.Weighted>
4.4051

> <Gold.Chemscore.Internal.Correction.Weighted>
   9.000000E+99

> <Gold.Protein.RotatedTorsions>
[ 6907 6896 6895 6894 ] final   44.83 input  -60.11 | X-H torsion
[ 7974 7965 7964 7962 ] final  103.70 input  175.53 | X-H torsion
[ 8008 7997 7996 7995 ] final  -63.25 input   59.86 | X-H torsion
[ 10167 10162 10161 10158 ] final   31.94 input  -65.29 | X-H torsion
[ 10718 10713 10712 10709 ] final   52.27 input   66.30 | X-H torsion
[ 10763 10752 10751 10750 ] final   94.44 input  -60.55 | X-H torsion
[ 11005 11000 10999 10996 ] final -143.08 input  -57.11 | X-H torsion

> <Gold.Protein.ActiveResidues>
 VAL166  LYS551  ARG553  GLY616  TRP617  ASP618  TYR619  PRO620  LYS621  CYS622 
 ASP623  PHE694  ASN695  SER759  ASP760  ASP761  ALA762  ILE779  LEU786  VAL792 
 PHE793  MET794  SER795  GLU796  ALA797  LYS798  CYS799  TRP800  GLU811  SER814 

> <Gold.Protein.RotatedAtoms>
  152.2372  134.8264  160.0465 H   0  0  0  0  0  0  0  0  0  0  0  0  # atno 6907 bound_to 6896
  151.8991  133.3529  159.3833 H   0  0  0  0  0  0  0  0  0  0  0  0  # atno 6908 bound_to 6896
  150.7043  134.4772  159.5497 H   0  0  0  0  0  0  0  0  0  0  0  0  # atno 6909 bound_to 6896
  145.3425  139.2459  143.3602 H   0  0  0  0  0  0  0  0  0  0  0  0  # atno 7974 bound_to 7965
  154.4544  140.0979  156.6713 H   0  0  0  0  0  0  0  0  0  0  0  0  # atno 8008 bound_to 7997
  155.5184  140.3478  155.4383 H   0  0  0  0  0  0  0  0  0  0  0  0  # atno 8009 bound_to 7997
  156.0747  140.1358  156.9774 H   0  0  0  0  0  0  0  0  0  0  0  0  # atno 8010 bound_to 7997
  140.4543  144.1001  150.6198 H   0  0  0  0  0  0  0  0  0  0  0  0  # atno 10167 bound_to 10162
  157.5059  130.8468  149.8374 H   0  0  0  0  0  0  0  0  0  0  0  0  # atno 10718 bound_to 10713
  153.2416  135.4289  155.0704 H   0  0  0  0  0  0  0  0  0  0  0  0  # atno 10763 bound_to 10752
  154.8343  135.3404  154.6641 H   0  0  0  0  0  0  0  0  0  0  0  0  # atno 10764 bound_to 10752
  153.7064  135.7025  153.5105 H   0  0  0  0  0  0  0  0  0  0  0  0  # atno 10765 bound_to 10752
  140.8161  134.2687  157.4920 H   0  0  0  0  0  0  0  0  0  0  0  0  # atno 11005 bound_to 11000
  146.3001  140.4025  142.8707 LP  0  0  0  0  0  0  0  0  0  0  0  0  # atno 17320 bound_to 7965
  144.8779  140.7361  143.6005 LP  0  0  0  0  0  0  0  0  0  0  0  0  # atno 17321 bound_to 7965
  140.4169  143.2630  151.9763 LP  0  0  0  0  0  0  0  0  0  0  0  0  # atno 17342 bound_to 10162
  139.4799  144.5865  151.7844 LP  0  0  0  0  0  0  0  0  0  0  0  0  # atno 17343 bound_to 10162
  156.0258  130.3780  150.1828 LP  0  0  0  0  0  0  0  0  0  0  0  0  # atno 17370 bound_to 10713
  157.0017  130.9924  151.3389 LP  0  0  0  0  0  0  0  0  0  0  0  0  # atno 17371 bound_to 10713
  139.8711  134.9510  156.4071 LP  0  0  0  0  0  0  0  0  0  0  0  0  # atno 17394 bound_to 11000
  140.9148  133.7686  155.9834 LP  0  0  0  0  0  0  0  0  0  0  0  0  # atno 17395 bound_to 11000

$$$$
