AV-unprocessed.smi:699|AV-procd|sdf|3406|dock10
  -GOLD-   22720 0383D 1   1.00000     0.00000
 Structure written by MMmdl.
 35 36  0  0  0  0  0  0  0  0  2 V2000
  144.8788  136.1278  149.4923 N   0  0  0  0  0  0  0  0  0  0  0  0
  144.7292  135.2420  150.4803 C   0  0  0  0  0  0  0  0  0  0  0  0
  144.7142  134.0301  150.2728 O   0  0  0  0  0  0  0  0  0  0  0  0
  144.5741  135.8005  151.9030 C   0  0  1  0  0  0  0  0  0  0  0  0
  143.2389  135.4175  152.5576 C   0  0  0  0  0  0  0  0  0  0  0  0
  143.5185  135.4936  154.0555 C   0  0  0  0  0  0  0  0  0  0  0  0
  144.9455  134.9675  154.2043 C   0  0  0  0  0  0  0  0  0  0  0  0
  145.6639  135.2908  152.8785 C   0  0  2  0  0  0  0  0  0  0  0  0
  146.7153  136.2915  153.0536 N   0  0  0  0  0  0  0  0  0  0  0  0
  146.5145  137.5658  153.4187 C   0  0  0  0  0  0  0  0  0  0  0  0
  145.4002  138.0412  153.6347 O   0  0  0  0  0  0  0  0  0  0  0  0
  147.6760  138.2389  153.4939 N   0  0  0  0  0  0  0  0  0  0  0  0
  147.8980  139.5986  153.8469 C   0  0  0  0  0  0  0  0  0  0  0  0
  149.1572  139.9307  154.3951 C   0  0  0  0  0  0  0  0  0  0  0  0
  149.4231  141.2623  154.7742 C   0  0  0  0  0  0  0  0  0  0  0  0
  148.4717  142.2077  154.6202 N   0  3  0  0  0  0  0  0  0  0  0  0
  147.2494  141.9374  154.1141 C   0  0  0  0  0  0  0  0  0  0  0  0
  146.9258  140.6237  153.7170 C   0  0  0  0  0  0  0  0  0  0  0  0
  144.9810  135.8027  148.5417 H   0  0  0  0  0  0  0  0  0  0  0  0
  144.8865  137.1165  149.6954 H   0  0  0  0  0  0  0  0  0  0  0  0
  144.6110  136.8912  151.8640 H   0  0  0  0  0  0  0  0  0  0  0  0
  142.4273  136.0832  152.2621 H   0  0  0  0  0  0  0  0  0  0  0  0
  142.9447  134.4002  152.2938 H   0  0  0  0  0  0  0  0  0  0  0  0
  143.4748  136.5329  154.3840 H   0  0  0  0  0  0  0  0  0  0  0  0
  142.7990  134.9269  154.6471 H   0  0  0  0  0  0  0  0  0  0  0  0
  145.4410  135.3854  155.0816 H   0  0  0  0  0  0  0  0  0  0  0  0
  144.9176  133.8856  154.3400 H   0  0  0  0  0  0  0  0  0  0  0  0
  146.1194  134.3724  152.5006 H   0  0  0  0  0  0  0  0  0  0  0  0
  147.6626  135.9861  152.8859 H   0  0  0  0  0  0  0  0  0  0  0  0
  148.4995  137.7259  153.2147 H   0  0  0  0  0  0  0  0  0  0  0  0
  149.9186  139.1744  154.5214 H   0  0  0  0  0  0  0  0  0  0  0  0
  150.3607  141.5959  155.1948 H   0  0  0  0  0  0  0  0  0  0  0  0
  146.5682  142.7732  154.0472 H   0  0  0  0  0  0  0  0  0  0  0  0
  145.9360  140.4303  153.3332 H   0  0  0  0  0  0  0  0  0  0  0  0
  148.6832  143.1651  154.9024 H   0  0  0  0  0  0  0  0  0  0  0  0
  1  2  1  0  0  0  0
  1 19  1  0  0  0  0
  1 20  1  0  0  0  0
  2  3  2  0  0  0  0
  2  4  1  0  0  0  0
  4  8  1  0  0  0  0
  4  5  1  0  0  0  0
  4 21  1  0  0  0  0
  5  6  1  0  0  0  0
  5 22  1  0  0  0  0
  5 23  1  0  0  0  0
  6  7  1  0  0  0  0
  6 24  1  0  0  0  0
  6 25  1  0  0  0  0
  7  8  1  0  0  0  0
  7 26  1  0  0  0  0
  7 27  1  0  0  0  0
  8  9  1  0  0  0  0
  8 28  1  0  0  0  0
  9 10  1  0  0  0  0
  9 29  1  0  0  0  0
 10 11  2  0  0  0  0
 10 12  1  0  0  0  0
 12 13  1  0  0  0  0
 12 30  1  0  0  0  0
 13 18  1  0  0  0  0
 13 14  2  0  0  0  0
 14 15  1  0  0  0  0
 14 31  1  0  0  0  0
 15 16  2  0  0  0  0
 15 32  1  0  0  0  0
 16 17  1  0  0  0  0
 16 35  1  0  0  0  0
 17 18  2  0  0  0  0
 17 33  1  0  0  0  0
 18 34  1  0  0  0  0
M  CHG  1  16   1
M  END
> <s_m_source_file>
AV-unprocessed.smi

> <i_m_source_file_index>
699

> <i_lp_mmshare_version>
43012

> <i_f3d_flags>
0

> <s_epik_input>
W05IMl1DKD1PKVtDQEBIXTFbQ0gyXVtDSDJdW0NIMl1bQ0BIXTFbTkhdQyg9TylbTkhdYzJbY0hdW2NIXW5bY0hdW2NIXTI=

> <s_epik_cmdline>
J2VwaWtfcHl0aG9uJywgJy1waCcsICc3LjAnLCAnLXRuJywgJzgnLCAnLW1hJywgJzIwMCcsICctbWV0YWxfYmluZGluZycsICctaW1hZScsICc8aW5maWxlLm1hZT4nLCAnLW9tYWUnLCAnPG91dGZpbGUubWFlPic=

> <r_epik_Ionization_Penalty>
1.0332

> <r_epik_Ionization_Penalty_Charging>
1.03318

> <r_epik_Ionization_Penalty_Neutral>
1.91967e-05

> <r_epik_State_Penalty>
1.08452

> <r_epik_Charging_Adjusted_Penalty>
2.11769

> <i_epik_Tot_Q>
1

> <i_epik_Tot_abs_Q>
1

> <r_epik_Metal_State_Penalty>
1.18144

> <b_epik_Metal_Only>
0

> <s_lp_Force_Field>
OPLS_2005

> <r_lp_Energy>
26.7554

> <b_lp_Chiralities_Consistent>
1

> <s_lp_Variant>
AV-unprocessed.smi:699-8

> <Gold.Version>
5.8.1

> <Gold.Id.Protein>
6NUR|6NUR_protein|mol2

> <Gold.PLP.Fitness>
44.0634

> <Gold.PLP.PLP>
-28.8037

> <Gold.PLP.part.hbond>
-5.0000

> <Gold.PLP.part.metal>
0.0000

> <Gold.PLP.part.buried>
-4.7103

> <Gold.PLP.part.nonpolar>
-20.2160

> <Gold.PLP.part.repulsive>
0.8511

> <Gold.PLP.ligand.clash>
0.0000

> <Gold.PLP.ligand.torsion>
0.1717

> <Gold.PLP.Chemscore.Hbond>
5.2003

> <Gold.PLP.Chemscore.CHOScore>
0.0000

> <Gold.PLP.Chemscore.Metal>
0.0000

> <Gold.Chemscore.Hbonds>
donor molecule, donor type, donor heavy atom, donor atom, acceptor molecule, acceptor atom, score
      L1  H     1    19       P1  7921  0.75
      L1  H     1    20       P1 10171  0.88
      L1  H     9    29       P1  7948  0.83
      L1  H    12    30       P1  7948  0.71
      L1  H    16    35       P1  8028  2.00

> <Gold.PLP.Chemscore.Internal.Correction>
0.0021

> <Gold.Rescore>
     Score         DG    S(hbond)    S(metal)    S(lipo)     H(rot)  DE(clash)    DE(int)     intcor
     19.63     -21.91       4.38        0.00      48.46       1.50       0.03       2.26       ----

> <Gold.Chemscore.Fitness>
19.6261

> <Gold.Chemscore.DG>
-21.9139

> <Gold.Chemscore.ZeroCoef>
-5.4800

> <Gold.Chemscore.Hbond>
4.3752

> <Gold.Chemscore.Metal>
0.0000

> <Gold.Chemscore.Lipo>
48.4635

> <Gold.Chemscore.Internal_Hbond>
0.0000

> <Gold.Chemscore.DEClash>
0.0280

> <Gold.Chemscore.DEInternal>
2.2598

> <Gold.Chemscore.Rot>
1.5038

> <Gold.Chemscore.Internal.Correction>
   9.000000E+99

> <Gold.Chemscore.Hbonds>
donor molecule, donor type, donor heavy atom, donor atom, acceptor molecule, acceptor atom, score
      L1  H     1    19       P1  7921  0.76
      L1  H     1    20       P1 10171  0.87
      L1  H     9    29       P1  7948  0.83
      L1  H    12    30       P1  7948  0.66
      L1  H    16    35       P1  8028  1.00

> <Gold.Chemscore.Hbond.Weighted>
-14.6133

> <Gold.Chemscore.Metal.Weighted>
-0.0000

> <Gold.Chemscore.Lipo.Weighted>
-5.6702

> <Gold.Chemscore.Internal_Hbond.Weighted>
0.0000

> <Gold.Chemscore.DEClash.Weighted>
0.0280

> <Gold.Chemscore.DEInternal.Weighted>
2.2598

> <Gold.Chemscore.Rot.Weighted>
3.8496

> <Gold.Chemscore.Internal.Correction.Weighted>
   9.000000E+99

> <Gold.Protein.RotatedTorsions>
[ 6907 6896 6895 6894 ] final  -84.42 input  -60.11 | X-H torsion
[ 7974 7965 7964 7962 ] final   28.42 input  175.53 | X-H torsion
[ 8008 7997 7996 7995 ] final -104.27 input   59.86 | X-H torsion
[ 10167 10162 10161 10158 ] final   72.34 input  -65.29 | X-H torsion
[ 10718 10713 10712 10709 ] final   60.78 input   66.30 | X-H torsion
[ 10763 10752 10751 10750 ] final   32.94 input  -60.55 | X-H torsion
[ 11005 11000 10999 10996 ] final  -43.71 input  -57.11 | X-H torsion

> <Gold.Protein.ActiveResidues>
 VAL166  LYS551  ARG553  GLY616  TRP617  ASP618  TYR619  PRO620  LYS621  CYS622 
 ASP623  PHE694  ASN695  SER759  ASP760  ASP761  ALA762  ILE779  LEU786  VAL792 
 PHE793  MET794  SER795  GLU796  ALA797  LYS798  CYS799  TRP800  GLU811  SER814 

> <Gold.Protein.RotatedAtoms>
  150.6877  134.3361  159.4847 H   0  0  0  0  0  0  0  0  0  0  0  0  # atno 6907 bound_to 6896
  152.1220  134.9196  160.0572 H   0  0  0  0  0  0  0  0  0  0  0  0  # atno 6908 bound_to 6896
  152.0398  133.3938  159.4369 H   0  0  0  0  0  0  0  0  0  0  0  0  # atno 6909 bound_to 6896
  146.1730  139.7059  142.8954 H   0  0  0  0  0  0  0  0  0  0  0  0  # atno 7974 bound_to 7965
  154.8829  140.0418  157.1793 H   0  0  0  0  0  0  0  0  0  0  0  0  # atno 8008 bound_to 7997
  154.8620  140.2945  155.5512 H   0  0  0  0  0  0  0  0  0  0  0  0  # atno 8009 bound_to 7997
  156.2998  140.2445  156.3596 H   0  0  0  0  0  0  0  0  0  0  0  0  # atno 8010 bound_to 7997
  140.0363  144.5425  150.7468 H   0  0  0  0  0  0  0  0  0  0  0  0  # atno 10167 bound_to 10162
  157.5778  130.8958  149.9378 H   0  0  0  0  0  0  0  0  0  0  0  0  # atno 10718 bound_to 10713
  153.0237  135.6400  154.1434 H   0  0  0  0  0  0  0  0  0  0  0  0  # atno 10763 bound_to 10752
  154.1165  135.2849  155.3220 H   0  0  0  0  0  0  0  0  0  0  0  0  # atno 10764 bound_to 10752
  154.6294  135.5498  153.7726 H   0  0  0  0  0  0  0  0  0  0  0  0  # atno 10765 bound_to 10752
  141.0402  133.6783  156.2771 H   0  0  0  0  0  0  0  0  0  0  0  0  # atno 11005 bound_to 11000
  145.4289  141.0413  143.2922 LP  0  0  0  0  0  0  0  0  0  0  0  0  # atno 17320 bound_to 7965
  144.8192  139.5822  143.6994 LP  0  0  0  0  0  0  0  0  0  0  0  0  # atno 17321 bound_to 7965
  140.7280  143.2657  151.4054 LP  0  0  0  0  0  0  0  0  0  0  0  0  # atno 17342 bound_to 10162
  139.6043  144.1231  152.2232 LP  0  0  0  0  0  0  0  0  0  0  0  0  # atno 17343 bound_to 10162
  156.0823  130.3672  150.0555 LP  0  0  0  0  0  0  0  0  0  0  0  0  # atno 17370 bound_to 10713
  156.8699  130.9520  151.3610 LP  0  0  0  0  0  0  0  0  0  0  0  0  # atno 17371 bound_to 10713
  140.6248  134.5324  157.5552 LP  0  0  0  0  0  0  0  0  0  0  0  0  # atno 17394 bound_to 11000
  139.9270  134.8037  156.1040 LP  0  0  0  0  0  0  0  0  0  0  0  0  # atno 17395 bound_to 11000

$$$$
