AV-unprocessed.smi:283|AV-procd|sdf|2131|dock5
  -GOLD-   2262021443D 1   1.00000     0.00000
 Structure written by MMmdl.
 48 51  0  0  0  0  0  0  0  0  1 V2000
  147.5436  141.1636  153.8562 C   0  0  0  0  0  0  0  0  0  0  0  0
  146.2270  141.2236  154.6418 C   0  0  2  0  0  0  0  0  0  0  0  0
  145.4049  140.0555  154.3303 N   0  0  0  0  0  0  0  0  0  0  0  0
  145.9362  138.8117  154.3172 C   0  0  0  0  0  0  0  0  0  0  0  0
  147.1766  138.5711  154.8174 N   0  0  0  0  0  0  0  0  0  0  0  0
  147.6796  137.3340  154.7929 C   0  0  0  0  0  0  0  0  0  0  0  0
  147.1238  136.2180  154.3171 N   0  0  0  0  0  0  0  0  0  0  0  0
  145.8810  136.4532  153.8052 C   0  0  0  0  0  0  0  0  0  0  0  0
  145.2216  137.7142  153.7711 C   0  0  0  0  0  0  0  0  0  0  0  0
  143.9704  137.5753  153.1853 N   0  0  0  0  0  0  0  0  0  0  0  0
  143.9000  136.3054  152.8889 C   0  0  0  0  0  0  0  0  0  0  0  0
  145.0050  135.5557  153.2263 N   0  0  0  0  0  0  0  0  0  0  0  0
  145.2053  134.0875  153.0068 C   0  0  1  0  0  0  0  0  0  0  0  0
  144.0765  133.5441  152.3897 O   0  0  0  0  0  0  0  0  0  0  0  0
  144.4477  132.5775  151.4035 C   0  0  1  0  0  0  0  0  0  0  0  0
  143.9418  133.0780  150.0351 C   0  0  0  0  0  0  0  0  0  0  0  0
  142.6295  132.6180  149.7881 O   0  0  0  0  0  0  0  0  0  0  0  0
  145.9739  132.4286  151.5499 C   0  0  1  0  0  0  0  0  0  0  0  0
  146.6760  132.0604  150.3775 O   0  0  0  0  0  0  0  0  0  0  0  0
  146.4157  133.7650  152.1223 C   0  0  1  0  0  0  0  0  0  0  0  0
  146.6641  134.7423  151.1246 O   0  0  0  0  0  0  0  0  0  0  0  0
  145.5246  142.5625  154.4075 C   0  0  0  0  0  0  0  0  0  0  0  0
  145.7501  143.2646  153.2012 C   0  0  0  0  0  0  0  0  0  0  0  0
  145.1176  144.4985  152.9595 C   0  0  0  0  0  0  0  0  0  0  0  0
  144.2537  145.0455  153.9249 C   0  0  0  0  0  0  0  0  0  0  0  0
  144.0282  144.3593  155.1324 C   0  0  0  0  0  0  0  0  0  0  0  0
  144.6604  143.1246  155.3809 C   0  0  0  0  0  0  0  0  0  0  0  0
  144.3533  142.3337  156.8877 Cl  0  0  0  0  0  0  0  0  0  0  0  0
  145.2964  133.6632  154.0076 H   0  0  0  0  0  0  0  0  0  0  0  0
  143.9519  131.6367  151.6465 H   0  0  0  0  0  0  0  0  0  0  0  0
  146.1636  131.6595  152.3003 H   0  0  0  0  0  0  0  0  0  0  0  0
  147.3084  133.6710  152.7417 H   0  0  0  0  0  0  0  0  0  0  0  0
  148.2029  141.9857  154.1361 H   0  0  0  0  0  0  0  0  0  0  0  0
  147.3696  141.2275  152.7815 H   0  0  0  0  0  0  0  0  0  0  0  0
  148.0771  140.2333  154.0532 H   0  0  0  0  0  0  0  0  0  0  0  0
  146.4832  141.1339  155.6966 H   0  0  0  0  0  0  0  0  0  0  0  0
  144.4152  140.2297  154.2303 H   0  0  0  0  0  0  0  0  0  0  0  0
  148.6678  137.2221  155.2137 H   0  0  0  0  0  0  0  0  0  0  0  0
  143.0310  135.8762  152.4117 H   0  0  0  0  0  0  0  0  0  0  0  0
  143.9105  134.1679  150.0285 H   0  0  0  0  0  0  0  0  0  0  0  0
  144.6018  132.7755  149.2225 H   0  0  0  0  0  0  0  0  0  0  0  0
  142.0203  133.2818  150.0740 H   0  0  0  0  0  0  0  0  0  0  0  0
  147.4052  131.5139  150.6294 H   0  0  0  0  0  0  0  0  0  0  0  0
  147.5115  135.1276  151.2884 H   0  0  0  0  0  0  0  0  0  0  0  0
  146.4135  142.8579  152.4520 H   0  0  0  0  0  0  0  0  0  0  0  0
  145.2966  145.0250  152.0336 H   0  0  0  0  0  0  0  0  0  0  0  0
  143.7664  145.9917  153.7411 H   0  0  0  0  0  0  0  0  0  0  0  0
  143.3669  144.7843  155.8729 H   0  0  0  0  0  0  0  0  0  0  0  0
  1  2  1  0  0  0  0
  1 33  1  0  0  0  0
  1 34  1  0  0  0  0
  1 35  1  0  0  0  0
  2  3  1  0  0  0  0
  2 22  1  0  0  0  0
  2 36  1  0  0  0  0
  3  4  1  0  0  0  0
  3 37  1  0  0  0  0
  4  9  1  0  0  0  0
  4  5  2  0  0  0  0
  5  6  1  0  0  0  0
  6  7  2  0  0  0  0
  6 38  1  0  0  0  0
  7  8  1  0  0  0  0
  8 12  1  0  0  0  0
  8  9  2  0  0  0  0
  9 10  1  0  0  0  0
 10 11  2  0  0  0  0
 11 12  1  0  0  0  0
 11 39  1  0  0  0  0
 12 13  1  0  0  0  0
 13 29  1  0  0  0  0
 13 20  1  0  0  0  0
 13 14  1  0  0  0  0
 14 15  1  0  0  0  0
 15 30  1  0  0  0  0
 15 16  1  0  0  0  0
 15 18  1  0  0  0  0
 16 17  1  0  0  0  0
 16 40  1  0  0  0  0
 16 41  1  0  0  0  0
 17 42  1  0  0  0  0
 18 31  1  0  0  0  0
 18 19  1  0  0  0  0
 18 20  1  0  0  0  0
 19 43  1  0  0  0  0
 20 32  1  0  0  0  0
 20 21  1  0  0  0  0
 21 44  1  0  0  0  0
 22 27  1  0  0  0  0
 22 23  2  0  0  0  0
 23 24  1  0  0  0  0
 23 45  1  0  0  0  0
 24 25  2  0  0  0  0
 24 46  1  0  0  0  0
 25 26  1  0  0  0  0
 25 47  1  0  0  0  0
 26 27  2  0  0  0  0
 26 48  1  0  0  0  0
 27 28  1  0  0  0  0
M  END
> <s_m_source_file>
AV-unprocessed.smi

> <i_m_source_file_index>
283

> <i_lp_mmshare_version>
43012

> <i_f3d_flags>
0

> <s_epik_input>
Q2xjMVtjSF1bY0hdW2NIXVtjSF1jMVtDQEhdKFtDSDNdKVtOSF1jKG5bY0hdbjIpYyhjMjMpbltjSF1uM1tDQEBIXTRPW0NASF0oW0NIMl1bT0hdKVtDQEBIXShbT0hdKVtDQEhdNFtPSF0=

> <s_epik_cmdline>
J2VwaWtfcHl0aG9uJywgJy1waCcsICc3LjAnLCAnLXRuJywgJzgnLCAnLW1hJywgJzIwMCcsICctbWV0YWxfYmluZGluZycsICctaW1hZScsICc8aW5maWxlLm1hZT4nLCAnLW9tYWUnLCAnPG91dGZpbGUubWFlPic=

> <r_lp_tautomer_probability>
1

> <r_epik_Ionization_Penalty>
0.000266407

> <r_epik_Ionization_Penalty_Charging>
0

> <r_epik_Ionization_Penalty_Neutral>
0.000266407

> <r_epik_State_Penalty>
-0

> <r_epik_Charging_Adjusted_Penalty>
0

> <i_epik_Tot_Q>
0

> <i_epik_Tot_abs_Q>
0

> <r_epik_Metal_State_Penalty>
-0

> <b_epik_Metal_Only>
0

> <s_epik_Chemistry_Notes>
This compound contains an acetal/aminal-like group ( X-CH(R)-Y where X, Y are N, S, or O) that may be acid/base labile, releasing an aldehyde.

> <s_lp_Force_Field>
OPLS_2005

> <r_lp_Energy>
56.5757

> <b_lp_Chiralities_Consistent>
1

> <s_lp_Variant>
AV-unprocessed.smi:283-7

> <Gold.Version>
5.8.1

> <Gold.Id.Protein>
6NUR|6NUR_protein|mol2

> <Gold.PLP.Fitness>
45.7632

> <Gold.PLP.PLP>
-37.9988

> <Gold.PLP.part.hbond>
-4.7338

> <Gold.PLP.part.metal>
0.0000

> <Gold.PLP.part.buried>
-6.4167

> <Gold.PLP.part.nonpolar>
-27.6710

> <Gold.PLP.part.repulsive>
1.7593

> <Gold.PLP.ligand.clash>
0.0000

> <Gold.PLP.ligand.torsion>
1.1796

> <Gold.PLP.Chemscore.Hbond>
3.3600

> <Gold.PLP.Chemscore.CHOScore>
0.0000

> <Gold.PLP.Chemscore.Metal>
0.0000

> <Gold.Chemscore.Hbonds>
donor molecule, donor type, donor heavy atom, donor atom, acceptor molecule, acceptor atom, score
      L1  H     3    37       P1 10175  0.40
      L1  H    17    42       P1 10186  0.88
      L1  H    19    43       P1 10747  0.98
      L1  H    21    44       P1  7948  1.00

> <Gold.PLP.Chemscore.Internal.Correction>
0.0436

> <Gold.Rescore>
     Score         DG    S(hbond)    S(metal)    S(lipo)     H(rot)  DE(clash)    DE(int)     intcor
     11.05     -14.22       3.06        0.00      77.03       4.10       0.42       2.75       ----

> <Gold.Chemscore.Fitness>
11.0461

> <Gold.Chemscore.DG>
-14.2156

> <Gold.Chemscore.ZeroCoef>
-5.4800

> <Gold.Chemscore.Hbond>
3.0573

> <Gold.Chemscore.Metal>
0.0000

> <Gold.Chemscore.Lipo>
77.0282

> <Gold.Chemscore.Internal_Hbond>
0.0000

> <Gold.Chemscore.DEClash>
0.4238

> <Gold.Chemscore.DEInternal>
2.7457

> <Gold.Chemscore.Rot>
4.0968

> <Gold.Chemscore.Internal.Correction>
   9.000000E+99

> <Gold.Chemscore.Hbonds>
donor molecule, donor type, donor heavy atom, donor atom, acceptor molecule, acceptor atom, score
      L1  H     3    37       P1 10175  0.40
      L1  H    17    42       P1 10186  0.86
      L1  H    19    43       P1 10747  0.93
      L1  H    21    44       P1  7948  0.50

> <Gold.Chemscore.Hbond.Weighted>
-10.2112

> <Gold.Chemscore.Metal.Weighted>
-0.0000

> <Gold.Chemscore.Lipo.Weighted>
-9.0123

> <Gold.Chemscore.Internal_Hbond.Weighted>
0.0000

> <Gold.Chemscore.DEClash.Weighted>
0.4238

> <Gold.Chemscore.DEInternal.Weighted>
2.7457

> <Gold.Chemscore.Rot.Weighted>
10.4879

> <Gold.Chemscore.Internal.Correction.Weighted>
   9.000000E+99

> <Gold.Protein.RotatedTorsions>
[ 6907 6896 6895 6894 ] final  109.79 input  -60.11 | X-H torsion
[ 7974 7965 7964 7962 ] final -132.87 input  175.53 | X-H torsion
[ 8008 7997 7996 7995 ] final  164.43 input   59.86 | X-H torsion
[ 10167 10162 10161 10158 ] final    2.95 input  -65.29 | X-H torsion
[ 10718 10713 10712 10709 ] final -163.62 input   66.30 | X-H torsion
[ 10763 10752 10751 10750 ] final -129.48 input  -60.55 | X-H torsion
[ 11005 11000 10999 10996 ] final  -29.98 input  -57.11 | X-H torsion

> <Gold.Protein.ActiveResidues>
 VAL166  LYS551  ARG553  GLY616  TRP617  ASP618  TYR619  PRO620  LYS621  CYS622 
 ASP623  PHE694  ASN695  SER759  ASP760  ASP761  ALA762  ILE779  LEU786  VAL792 
 PHE793  MET794  SER795  GLU796  ALA797  LYS798  CYS799  TRP800  GLU811  SER814 

> <Gold.Protein.RotatedAtoms>
  152.5050  133.8893  159.7385 H   0  0  0  0  0  0  0  0  0  0  0  0  # atno 6907 bound_to 6896
  150.9335  133.6730  159.2812 H   0  0  0  0  0  0  0  0  0  0  0  0  # atno 6908 bound_to 6896
  151.4066  135.0983  159.9625 H   0  0  0  0  0  0  0  0  0  0  0  0  # atno 6909 bound_to 6896
  144.9245  140.7055  143.4944 H   0  0  0  0  0  0  0  0  0  0  0  0  # atno 7974 bound_to 7965
  156.1880  140.1697  156.8147 H   0  0  0  0  0  0  0  0  0  0  0  0  # atno 8008 bound_to 7997
  154.5437  140.0731  156.8586 H   0  0  0  0  0  0  0  0  0  0  0  0  # atno 8009 bound_to 7997
  155.3163  140.3370  155.4245 H   0  0  0  0  0  0  0  0  0  0  0  0  # atno 8010 bound_to 7997
  140.6610  143.7304  150.7738 H   0  0  0  0  0  0  0  0  0  0  0  0  # atno 10167 bound_to 10162
  156.6273  130.8915  151.2970 H   0  0  0  0  0  0  0  0  0  0  0  0  # atno 10718 bound_to 10713
  154.8757  135.3894  154.3926 H   0  0  0  0  0  0  0  0  0  0  0  0  # atno 10763 bound_to 10752
  153.4660  135.7029  153.6027 H   0  0  0  0  0  0  0  0  0  0  0  0  # atno 10764 bound_to 10752
  153.4505  135.3835  155.2249 H   0  0  0  0  0  0  0  0  0  0  0  0  # atno 10765 bound_to 10752
  140.9343  133.7318  156.0982 H   0  0  0  0  0  0  0  0  0  0  0  0  # atno 11005 bound_to 11000
  145.3241  139.1779  143.4572 LP  0  0  0  0  0  0  0  0  0  0  0  0  # atno 17320 bound_to 7965
  146.3220  140.3262  142.8637 LP  0  0  0  0  0  0  0  0  0  0  0  0  # atno 17321 bound_to 7965
  140.0973  143.4821  152.2445 LP  0  0  0  0  0  0  0  0  0  0  0  0  # atno 17342 bound_to 10162
  139.5844  144.7524  151.3558 LP  0  0  0  0  0  0  0  0  0  0  0  0  # atno 17343 bound_to 10162
  157.7210  130.9559  150.1440 LP  0  0  0  0  0  0  0  0  0  0  0  0  # atno 17370 bound_to 10713
  156.2263  130.3678  149.8497 LP  0  0  0  0  0  0  0  0  0  0  0  0  # atno 17371 bound_to 10713
  140.7820  134.3714  157.5485 LP  0  0  0  0  0  0  0  0  0  0  0  0  # atno 17394 bound_to 11000
  139.8804  134.9088  156.2975 LP  0  0  0  0  0  0  0  0  0  0  0  0  # atno 17395 bound_to 11000

$$$$
