AV-unprocessed.smi:847|AV-procd|sdf|3937|dock10
  -GOLD-   22720 1403D 1   1.00000     0.00000
 Structure written by MMmdl.
 46 47  0  0  0  0  0  0  0  0  1 V2000
  152.2385  141.7019  159.4740 C   0  0  0  0  0  0  0  0  0  0  0  0
  152.0319  141.5887  158.0771 O   0  0  0  0  0  0  0  0  0  0  0  0
  151.3161  140.4156  157.7275 C   0  0  0  0  0  0  0  0  0  0  0  0
  151.2829  140.2836  156.2021 C   0  0  0  0  0  0  0  0  0  0  0  0
  150.2990  141.1740  155.6841 O   0  0  0  0  0  0  0  0  0  0  0  0
  149.3139  140.6623  154.8646 C   0  0  0  0  0  0  0  0  0  0  0  0
  148.3572  141.5472  154.3282 C   0  0  0  0  0  0  0  0  0  0  0  0
  147.3486  141.0314  153.4925 C   0  0  0  0  0  0  0  0  0  0  0  0
  147.3244  139.6482  153.2224 C   0  0  0  0  0  0  0  0  0  0  0  0
  146.2485  139.0648  152.3169 C   0  0  0  0  0  0  0  0  0  0  0  0
  146.4492  137.6607  151.9761 N   0  0  0  0  0  0  0  0  0  0  0  0
  145.5112  136.7025  152.0668 C   0  0  0  0  0  0  0  0  0  0  0  0
  144.3632  136.9285  152.4483 O   0  0  0  0  0  0  0  0  0  0  0  0
  145.9078  135.2604  151.6844 C   0  0  2  0  0  0  0  0  0  0  0  0
  144.9443  134.7483  150.6009 C   0  0  0  0  0  0  0  0  0  0  0  0
  144.8907  133.2456  150.7993 C   0  0  0  0  0  0  0  0  0  0  0  0
  145.1665  133.0351  152.2871 C   0  0  0  0  0  0  0  0  0  0  0  0
  145.8538  134.2418  152.7546 N   0  0  0  0  0  0  0  0  0  0  0  0
  146.4313  134.3401  153.9771 C   0  0  0  0  0  0  0  0  0  0  0  0
  146.2554  133.1859  154.9669 C   0  0  0  0  0  0  0  0  0  0  0  0
  147.0989  135.3133  154.3261 O   0  0  0  0  0  0  0  0  0  0  0  0
  148.3312  138.8445  153.8024 C   0  0  0  0  0  0  0  0  0  0  0  0
  149.3017  139.3312  154.6046 N   0  0  0  0  0  0  0  0  0  0  0  0
  146.9267  135.2663  151.2931 H   0  0  0  0  0  0  0  0  0  0  0  0
  152.7777  142.6239  159.6912 H   0  0  0  0  0  0  0  0  0  0  0  0
  152.8309  140.8680  159.8533 H   0  0  0  0  0  0  0  0  0  0  0  0
  151.2901  141.7315  160.0124 H   0  0  0  0  0  0  0  0  0  0  0  0
  151.8192  139.5472  158.1554 H   0  0  0  0  0  0  0  0  0  0  0  0
  150.3028  140.4398  158.1319 H   0  0  0  0  0  0  0  0  0  0  0  0
  152.2692  140.4947  155.7855 H   0  0  0  0  0  0  0  0  0  0  0  0
  151.0189  139.2584  155.9378 H   0  0  0  0  0  0  0  0  0  0  0  0
  148.3962  142.6026  154.5540 H   0  0  0  0  0  0  0  0  0  0  0  0
  146.6046  141.6896  153.0685 H   0  0  0  0  0  0  0  0  0  0  0  0
  145.2663  139.1941  152.7749 H   0  0  0  0  0  0  0  0  0  0  0  0
  146.2343  139.6388  151.3904 H   0  0  0  0  0  0  0  0  0  0  0  0
  147.3670  137.3960  151.6492 H   0  0  0  0  0  0  0  0  0  0  0  0
  143.9401  135.1530  150.7425 H   0  0  0  0  0  0  0  0  0  0  0  0
  145.2663  135.0209  149.5952 H   0  0  0  0  0  0  0  0  0  0  0  0
  143.9461  132.8067  150.4767 H   0  0  0  0  0  0  0  0  0  0  0  0
  145.6870  132.7808  150.2166 H   0  0  0  0  0  0  0  0  0  0  0  0
  144.2270  132.9277  152.8312 H   0  0  0  0  0  0  0  0  0  0  0  0
  145.7572  132.1317  152.4450 H   0  0  0  0  0  0  0  0  0  0  0  0
  145.2002  132.9522  155.1101 H   0  0  0  0  0  0  0  0  0  0  0  0
  146.6726  133.4481  155.9399 H   0  0  0  0  0  0  0  0  0  0  0  0
  146.7695  132.2920  154.6132 H   0  0  0  0  0  0  0  0  0  0  0  0
  148.3667  137.7806  153.6199 H   0  0  0  0  0  0  0  0  0  0  0  0
  1  2  1  0  0  0  0
  1 25  1  0  0  0  0
  1 26  1  0  0  0  0
  1 27  1  0  0  0  0
  2  3  1  0  0  0  0
  3  4  1  0  0  0  0
  3 28  1  0  0  0  0
  3 29  1  0  0  0  0
  4  5  1  0  0  0  0
  4 30  1  0  0  0  0
  4 31  1  0  0  0  0
  5  6  1  0  0  0  0
  6 23  1  0  0  0  0
  6  7  2  0  0  0  0
  7  8  1  0  0  0  0
  7 32  1  0  0  0  0
  8  9  2  0  0  0  0
  8 33  1  0  0  0  0
  9 10  1  0  0  0  0
  9 22  1  0  0  0  0
 10 11  1  0  0  0  0
 10 34  1  0  0  0  0
 10 35  1  0  0  0  0
 11 12  1  0  0  0  0
 11 36  1  0  0  0  0
 12 13  2  0  0  0  0
 12 14  1  0  0  0  0
 14 24  1  0  0  0  0
 14 18  1  0  0  0  0
 14 15  1  0  0  0  0
 15 16  1  0  0  0  0
 15 37  1  0  0  0  0
 15 38  1  0  0  0  0
 16 17  1  0  0  0  0
 16 39  1  0  0  0  0
 16 40  1  0  0  0  0
 17 18  1  0  0  0  0
 17 41  1  0  0  0  0
 17 42  1  0  0  0  0
 18 19  1  0  0  0  0
 19 20  1  0  0  0  0
 19 21  2  0  0  0  0
 20 43  1  0  0  0  0
 20 44  1  0  0  0  0
 20 45  1  0  0  0  0
 22 23  2  0  0  0  0
 22 46  1  0  0  0  0
M  END
> <s_m_source_file>
AV-unprocessed.smi

> <i_m_source_file_index>
847

> <i_lp_mmshare_version>
43012

> <i_f3d_flags>
0

> <s_epik_input>
W0NIM11PW0NIMl1bQ0gyXU9jMVtjSF1bY0hdYyhbY0hdbjEpW0NIMl1bTkhdQyg9TylbQ0BASF0yW0NIMl1bQ0gyXVtDSDJdTjJDKD1PKVtDSDNd

> <s_epik_cmdline>
J2VwaWtfcHl0aG9uJywgJy1waCcsICc3LjAnLCAnLXRuJywgJzgnLCAnLW1hJywgJzIwMCcsICctbWV0YWxfYmluZGluZycsICctaW1hZScsICc8aW5maWxlLm1hZT4nLCAnLW9tYWUnLCAnPG91dGZpbGUubWFlPic=

> <r_lp_tautomer_probability>
1

> <r_epik_Ionization_Penalty>
6.04138e-05

> <r_epik_Ionization_Penalty_Charging>
0

> <r_epik_Ionization_Penalty_Neutral>
6.04138e-05

> <r_epik_State_Penalty>
-0

> <r_epik_Charging_Adjusted_Penalty>
0

> <i_epik_Tot_Q>
0

> <i_epik_Tot_abs_Q>
0

> <r_epik_Metal_State_Penalty>
-0

> <b_epik_Metal_Only>
0

> <s_lp_Force_Field>
OPLS_2005

> <r_lp_Energy>
14.576

> <b_lp_Chiralities_Consistent>
1

> <s_lp_Variant>
AV-unprocessed.smi:847-1

> <Gold.Version>
5.8.1

> <Gold.Id.Protein>
6NUR|6NUR_protein|mol2

> <Gold.PLP.Fitness>
38.8957

> <Gold.PLP.PLP>
-33.9444

> <Gold.PLP.part.hbond>
-1.1417

> <Gold.PLP.part.metal>
0.0000

> <Gold.PLP.part.buried>
-0.9032

> <Gold.PLP.part.nonpolar>
-32.4537

> <Gold.PLP.part.repulsive>
0.5546

> <Gold.PLP.ligand.clash>
0.0000

> <Gold.PLP.ligand.torsion>
0.6085

> <Gold.PLP.Chemscore.Hbond>
1.0000

> <Gold.PLP.Chemscore.CHOScore>
1.0000

> <Gold.PLP.Chemscore.Metal>
0.0000

> <Gold.Chemscore.Hbonds>
donor molecule, donor type, donor heavy atom, donor atom, acceptor molecule, acceptor atom, score
      L1  H    11    36       P1  7948  0.99
      L1  C    22    46       P1  7948  1.00

> <Gold.PLP.Chemscore.Internal.Correction>
0.1683

> <Gold.Rescore>
     Score         DG    S(hbond)    S(metal)    S(lipo)     H(rot)  DE(clash)    DE(int)     intcor
     10.61     -12.40       0.99        0.00      81.52       2.31       0.59       1.20       ----

> <Gold.Chemscore.Fitness>
10.6095

> <Gold.Chemscore.DG>
-12.4037

> <Gold.Chemscore.ZeroCoef>
-5.4800

> <Gold.Chemscore.Hbond>
0.9850

> <Gold.Chemscore.Metal>
0.0000

> <Gold.Chemscore.Lipo>
81.5165

> <Gold.Chemscore.Internal_Hbond>
0.0000

> <Gold.Chemscore.DEClash>
0.5934

> <Gold.Chemscore.DEInternal>
1.2008

> <Gold.Chemscore.Rot>
2.3062

> <Gold.Chemscore.Internal.Correction>
   9.000000E+99

> <Gold.Chemscore.Hbonds>
donor molecule, donor type, donor heavy atom, donor atom, acceptor molecule, acceptor atom, score
      L1  H    11    36       P1  7948  0.92

> <Gold.Chemscore.Hbond.Weighted>
-3.2901

> <Gold.Chemscore.Metal.Weighted>
-0.0000

> <Gold.Chemscore.Lipo.Weighted>
-9.5374

> <Gold.Chemscore.Internal_Hbond.Weighted>
0.0000

> <Gold.Chemscore.DEClash.Weighted>
0.5934

> <Gold.Chemscore.DEInternal.Weighted>
1.2008

> <Gold.Chemscore.Rot.Weighted>
5.9038

> <Gold.Chemscore.Internal.Correction.Weighted>
   9.000000E+99

> <Gold.Protein.RotatedTorsions>
[ 6907 6896 6895 6894 ] final  -79.62 input  -60.11 | X-H torsion
[ 7974 7965 7964 7962 ] final  149.92 input  175.53 | X-H torsion
[ 8008 7997 7996 7995 ] final   64.59 input   59.86 | X-H torsion
[ 10167 10162 10161 10158 ] final   16.79 input  -65.29 | X-H torsion
[ 10718 10713 10712 10709 ] final  170.51 input   66.30 | X-H torsion
[ 10763 10752 10751 10750 ] final   35.35 input  -60.55 | X-H torsion
[ 11005 11000 10999 10996 ] final  130.80 input  -57.11 | X-H torsion

> <Gold.Protein.ActiveResidues>
 VAL166  LYS551  ARG553  GLY616  TRP617  ASP618  TYR619  PRO620  LYS621  CYS622 
 ASP623  PHE694  ASN695  SER759  ASP760  ASP761  ALA762  ILE779  LEU786  VAL792 
 PHE793  MET794  SER795  GLU796  ALA797  LYS798  CYS799  TRP800  GLU811  SER814 

> <Gold.Protein.RotatedAtoms>
  150.6946  134.4094  159.5154 H   0  0  0  0  0  0  0  0  0  0  0  0  # atno 6907 bound_to 6896
  152.1855  134.8715  160.0531 H   0  0  0  0  0  0  0  0  0  0  0  0  # atno 6908 bound_to 6896
  151.9690  133.3684  159.4100 H   0  0  0  0  0  0  0  0  0  0  0  0  # atno 6909 bound_to 6896
  144.8402  139.6342  143.6020 H   0  0  0  0  0  0  0  0  0  0  0  0  # atno 7974 bound_to 7965
  155.6484  140.3497  155.4739 H   0  0  0  0  0  0  0  0  0  0  0  0  # atno 8008 bound_to 7997
  155.9868  140.1185  157.0698 H   0  0  0  0  0  0  0  0  0  0  0  0  # atno 8009 bound_to 7997
  154.4207  140.1127  156.5497 H   0  0  0  0  0  0  0  0  0  0  0  0  # atno 8010 bound_to 7997
  140.5772  143.9049  150.6760 H   0  0  0  0  0  0  0  0  0  0  0  0  # atno 10167 bound_to 10162
  157.0071  131.0193  151.2814 H   0  0  0  0  0  0  0  0  0  0  0  0  # atno 10718 bound_to 10713
  153.0123  135.6335  154.1813 H   0  0  0  0  0  0  0  0  0  0  0  0  # atno 10763 bound_to 10752
  154.1555  135.2826  155.3125 H   0  0  0  0  0  0  0  0  0  0  0  0  # atno 10764 bound_to 10752
  154.6021  135.5584  153.7446 H   0  0  0  0  0  0  0  0  0  0  0  0  # atno 10765 bound_to 10752
  139.9693  134.9582  156.9346 H   0  0  0  0  0  0  0  0  0  0  0  0  # atno 11005 bound_to 11000
  146.2695  139.6601  142.9306 LP  0  0  0  0  0  0  0  0  0  0  0  0  # atno 17320 bound_to 7965
  145.4710  141.0436  143.2698 LP  0  0  0  0  0  0  0  0  0  0  0  0  # atno 17321 bound_to 7965
  140.2539  143.3573  152.1381 LP  0  0  0  0  0  0  0  0  0  0  0  0  # atno 17342 bound_to 10162
  139.5149  144.6955  151.5641 LP  0  0  0  0  0  0  0  0  0  0  0  0  # atno 17343 bound_to 10162
  157.5348  130.8081  149.7959 LP  0  0  0  0  0  0  0  0  0  0  0  0  # atno 17370 bound_to 10713
  156.0150  130.3817  150.2141 LP  0  0  0  0  0  0  0  0  0  0  0  0  # atno 17371 bound_to 10713
  140.5328  134.0796  155.7320 LP  0  0  0  0  0  0  0  0  0  0  0  0  # atno 17394 bound_to 11000
  141.1373  133.9200  157.2406 LP  0  0  0  0  0  0  0  0  0  0  0  0  # atno 17395 bound_to 11000

$$$$
