AV-unprocessed.smi:1768|AV-procd|sdf|7150|dock9
  -GOLD-   22720 8393D 1   1.00000     0.00000
 Structure written by MMmdl.
 32 33  0  0  0  0  0  0  0  0  2 V2000
  145.1512  135.1342  162.7209 C   0  0  0  0  0  0  0  0  0  0  0  0
  146.2833  135.5458  161.8436 C   0  0  0  0  0  0  0  0  0  0  0  0
  147.2080  136.4296  162.2263 N   0  0  0  0  0  0  0  0  0  0  0  0
  148.1599  136.6500  161.2412 N   0  0  0  0  0  0  0  0  0  0  0  0
  147.9383  135.9379  160.1272 C   0  0  0  0  0  0  0  0  0  0  0  0
  148.7461  136.0064  159.0563 N   0  5  0  0  0  0  0  0  0  0  0  0
  149.6589  137.0000  158.9605 C   0  0  0  0  0  0  0  0  0  0  0  0
  149.5792  138.1151  159.4806 O   0  0  0  0  0  0  0  0  0  0  0  0
  150.7228  136.6813  158.2082 N   0  0  0  0  0  0  0  0  0  0  0  0
  151.8700  137.5365  157.9045 C   0  0  1  0  0  0  0  0  0  0  0  0
  153.1294  136.9079  158.5187 C   0  0  0  0  0  0  0  0  0  0  0  0
  152.0122  137.7265  156.3801 C   0  0  1  0  0  0  0  0  0  0  0  0
  150.8312  138.4158  155.6961 C   0  0  0  0  0  0  0  0  0  0  0  0
  151.4425  138.9675  154.4201 C   0  0  0  0  0  0  0  0  0  0  0  0
  152.9432  139.0196  154.7218 C   0  0  0  0  0  0  0  0  0  0  0  0
  153.0770  138.6157  156.0788 O   0  0  0  0  0  0  0  0  0  0  0  0
  146.5143  134.9023  160.2268 S   0  0  0  0  0  0  0  0  0  0  0  0
  144.6833  136.0115  163.1681 H   0  0  0  0  0  0  0  0  0  0  0  0
  145.5145  134.4843  163.5171 H   0  0  0  0  0  0  0  0  0  0  0  0
  144.4002  134.5952  162.1433 H   0  0  0  0  0  0  0  0  0  0  0  0
  150.7350  135.7552  157.8074 H   0  0  0  0  0  0  0  0  0  0  0  0
  151.7360  138.5161  158.3664 H   0  0  0  0  0  0  0  0  0  0  0  0
  154.0060  137.5327  158.3468 H   0  0  0  0  0  0  0  0  0  0  0  0
  153.3322  135.9252  158.0915 H   0  0  0  0  0  0  0  0  0  0  0  0
  153.0206  136.7867  159.5970 H   0  0  0  0  0  0  0  0  0  0  0  0
  152.2081  136.7676  155.8960 H   0  0  0  0  0  0  0  0  0  0  0  0
  149.9947  137.7414  155.5098 H   0  0  0  0  0  0  0  0  0  0  0  0
  150.4689  139.2394  156.3130 H   0  0  0  0  0  0  0  0  0  0  0  0
  151.2494  138.3035  153.5768 H   0  0  0  0  0  0  0  0  0  0  0  0
  151.0362  139.9494  154.1754 H   0  0  0  0  0  0  0  0  0  0  0  0
  153.4875  138.3239  154.0817 H   0  0  0  0  0  0  0  0  0  0  0  0
  153.3627  140.0151  154.5752 H   0  0  0  0  0  0  0  0  0  0  0  0
  1  2  1  0  0  0  0
  1 18  1  0  0  0  0
  1 19  1  0  0  0  0
  1 20  1  0  0  0  0
  2 17  1  0  0  0  0
  2  3  2  0  0  0  0
  3  4  1  0  0  0  0
  4  5  2  0  0  0  0
  5  6  1  0  0  0  0
  5 17  1  0  0  0  0
  6  7  1  0  0  0  0
  7  8  2  0  0  0  0
  7  9  1  0  0  0  0
  9 10  1  0  0  0  0
  9 21  1  0  0  0  0
 10 11  1  0  0  0  0
 10 12  1  0  0  0  0
 10 22  1  0  0  0  0
 11 23  1  0  0  0  0
 11 24  1  0  0  0  0
 11 25  1  0  0  0  0
 12 16  1  0  0  0  0
 12 13  1  0  0  0  0
 12 26  1  0  0  0  0
 13 14  1  0  0  0  0
 13 27  1  0  0  0  0
 13 28  1  0  0  0  0
 14 15  1  0  0  0  0
 14 29  1  0  0  0  0
 14 30  1  0  0  0  0
 15 16  1  0  0  0  0
 15 31  1  0  0  0  0
 15 32  1  0  0  0  0
M  CHG  1   6  -1
M  END
> <s_m_source_file>
AV-unprocessed.smi

> <i_m_source_file_index>
1768

> <i_lp_mmshare_version>
43012

> <i_f3d_flags>
0

> <s_epik_input>
W0NIM11jMW5uYyhzMSlbTkhdQyg9TylbTkhdW0NASF0oW0NIM10pW0NAQEhdMltDSDJdW0NIMl1bQ0gyXU8y

> <s_epik_cmdline>
J2VwaWtfcHl0aG9uJywgJy1waCcsICc3LjAnLCAnLXRuJywgJzgnLCAnLW1hJywgJzIwMCcsICctbWV0YWxfYmluZGluZycsICctaW1hZScsICc8aW5maWxlLm1hZT4nLCAnLW9tYWUnLCAnPG91dGZpbGUubWFlPic=

> <r_lp_tautomer_probability>
1

> <r_epik_Ionization_Penalty>
4.3376

> <r_epik_Ionization_Penalty_Charging>
4.19392

> <r_epik_Ionization_Penalty_Neutral>
0.143681

> <r_epik_State_Penalty>
4.19342

> <r_epik_Charging_Adjusted_Penalty>
8.38735

> <i_epik_Tot_Q>
-1

> <i_epik_Tot_abs_Q>
1

> <r_epik_Metal_State_Penalty>
0.686065

> <b_epik_Metal_Only>
1

> <s_lp_Force_Field>
OPLS_2005

> <r_lp_Energy>
15.6479

> <b_lp_Chiralities_Consistent>
1

> <s_lp_Variant>
AV-unprocessed.smi:1768-8

> <Gold.Version>
5.8.1

> <Gold.Id.Protein>
6NUR|6NUR_protein|mol2

> <Gold.PLP.Fitness>
41.1334

> <Gold.PLP.PLP>
-28.1265

> <Gold.PLP.part.hbond>
-5.1959

> <Gold.PLP.part.metal>
0.0000

> <Gold.PLP.part.buried>
-5.0161

> <Gold.PLP.part.nonpolar>
-18.8493

> <Gold.PLP.part.repulsive>
0.1332

> <Gold.PLP.ligand.clash>
0.0000

> <Gold.PLP.ligand.torsion>
0.2026

> <Gold.PLP.Chemscore.Hbond>
4.4573

> <Gold.PLP.Chemscore.CHOScore>
0.0000

> <Gold.PLP.Chemscore.Metal>
0.0000

> <Gold.Chemscore.Hbonds>
donor molecule, donor type, donor heavy atom, donor atom, acceptor molecule, acceptor atom, score
      P1  H  6931  6943       L1     4  1.00
      P1  H  7997  8009       L1    16  0.70

> <Gold.PLP.Chemscore.Internal.Correction>
0.0401

> <Gold.Rescore>
     Score         DG    S(hbond)    S(metal)    S(lipo)     H(rot)  DE(clash)    DE(int)     intcor
     15.84     -16.56       2.27        0.00      57.87       1.28       0.00       0.72       ----

> <Gold.Chemscore.Fitness>
15.8386

> <Gold.Chemscore.DG>
-16.5593

> <Gold.Chemscore.ZeroCoef>
-5.4800

> <Gold.Chemscore.Hbond>
2.2693

> <Gold.Chemscore.Metal>
0.0000

> <Gold.Chemscore.Lipo>
57.8666

> <Gold.Chemscore.Internal_Hbond>
0.0000

> <Gold.Chemscore.DEClash>
0.0000

> <Gold.Chemscore.DEInternal>
0.7208

> <Gold.Chemscore.Rot>
1.2776

> <Gold.Chemscore.Internal.Correction>
   9.000000E+99

> <Gold.Chemscore.Hbonds>
donor molecule, donor type, donor heavy atom, donor atom, acceptor molecule, acceptor atom, score
      P1  H  6931  6943       L1     4  0.34
      P1  H  7997  8009       L1    16  0.15

> <Gold.Chemscore.Hbond.Weighted>
-7.5795

> <Gold.Chemscore.Metal.Weighted>
-0.0000

> <Gold.Chemscore.Lipo.Weighted>
-6.7704

> <Gold.Chemscore.Internal_Hbond.Weighted>
0.0000

> <Gold.Chemscore.DEClash.Weighted>
0.0000

> <Gold.Chemscore.DEInternal.Weighted>
0.7208

> <Gold.Chemscore.Rot.Weighted>
3.2706

> <Gold.Chemscore.Internal.Correction.Weighted>
   9.000000E+99

> <Gold.Protein.RotatedTorsions>
[ 6907 6896 6895 6894 ] final  171.96 input  -60.11 | X-H torsion
[ 7974 7965 7964 7962 ] final  -33.30 input  175.53 | X-H torsion
[ 8008 7997 7996 7995 ] final  173.75 input   59.86 | X-H torsion
[ 10167 10162 10161 10158 ] final -150.10 input  -65.29 | X-H torsion
[ 10718 10713 10712 10709 ] final  -84.55 input   66.30 | X-H torsion
[ 10763 10752 10751 10750 ] final  -46.68 input  -60.55 | X-H torsion
[ 11005 11000 10999 10996 ] final   47.96 input  -57.11 | X-H torsion

> <Gold.Protein.ActiveResidues>
 VAL166  LYS551  ARG553  GLY616  TRP617  ASP618  TYR619  PRO620  LYS621  CYS622 
 ASP623  PHE694  ASN695  SER759  ASP760  ASP761  ALA762  ILE779  LEU786  VAL792 
 PHE793  MET794  SER795  GLU796  ALA797  LYS798  CYS799  TRP800  GLU811  SER814 

> <Gold.Protein.RotatedAtoms>
  151.7918  133.3360  159.3501 H   0  0  0  0  0  0  0  0  0  0  0  0  # atno 6907 bound_to 6896
  150.7389  134.5835  159.5960 H   0  0  0  0  0  0  0  0  0  0  0  0  # atno 6908 bound_to 6896
  152.3204  134.7388  160.0366 H   0  0  0  0  0  0  0  0  0  0  0  0  # atno 6909 bound_to 6896
  146.0922  140.5899  142.8859 H   0  0  0  0  0  0  0  0  0  0  0  0  # atno 7974 bound_to 7965
  156.1043  140.1452  156.9425 H   0  0  0  0  0  0  0  0  0  0  0  0  # atno 8008 bound_to 7997
  154.4723  140.0905  156.7221 H   0  0  0  0  0  0  0  0  0  0  0  0  # atno 8009 bound_to 7997
  155.4706  140.3441  155.4327 H   0  0  0  0  0  0  0  0  0  0  0  0  # atno 8010 bound_to 7997
  139.7384  143.8700  152.2555 H   0  0  0  0  0  0  0  0  0  0  0  0  # atno 10167 bound_to 10162
  156.0005  130.4701  150.4426 H   0  0  0  0  0  0  0  0  0  0  0  0  # atno 10718 bound_to 10713
  154.0489  135.6634  153.4798 H   0  0  0  0  0  0  0  0  0  0  0  0  # atno 10763 bound_to 10752
  153.0472  135.5107  154.7770 H   0  0  0  0  0  0  0  0  0  0  0  0  # atno 10764 bound_to 10752
  154.6770  135.3038  154.9631 H   0  0  0  0  0  0  0  0  0  0  0  0  # atno 10765 bound_to 10752
  140.1233  134.4801  155.8580 H   0  0  0  0  0  0  0  0  0  0  0  0  # atno 11005 bound_to 11000
  144.7368  140.4832  143.6898 LP  0  0  0  0  0  0  0  0  0  0  0  0  # atno 17320 bound_to 7965
  145.6017  139.1504  143.3125 LP  0  0  0  0  0  0  0  0  0  0  0  0  # atno 17321 bound_to 7965
  139.8643  144.7101  150.9062 LP  0  0  0  0  0  0  0  0  0  0  0  0  # atno 17342 bound_to 10162
  140.7782  143.3791  151.1509 LP  0  0  0  0  0  0  0  0  0  0  0  0  # atno 17343 bound_to 10162
  157.2466  131.0537  151.2404 LP  0  0  0  0  0  0  0  0  0  0  0  0  # atno 17370 bound_to 10713
  157.3569  130.7111  149.6476 LP  0  0  0  0  0  0  0  0  0  0  0  0  # atno 17371 bound_to 10713
  141.2156  133.6768  156.6929 LP  0  0  0  0  0  0  0  0  0  0  0  0  # atno 17394 bound_to 11000
  140.2937  134.8220  157.4039 LP  0  0  0  0  0  0  0  0  0  0  0  0  # atno 17395 bound_to 11000

$$$$
