AV-unprocessed.smi:1434|AV-procd|sdf|5849|dock4
  -GOLD-   22720 5513D 1   1.00000     0.00000
 Structure written by MMmdl.
 44 45  0  0  0  0  0  0  0  0  1 V2000
  149.4387  134.0015  154.4548 C   0  0  0  0  0  0  0  0  0  0  0  0
  149.8430  135.6063  155.2539 S   0  0  0  0  0  0  0  0  0  0  0  0
  149.5895  135.4853  156.6977 O   0  0  0  0  0  0  0  0  0  0  0  0
  151.1533  136.0665  154.7704 O   0  0  0  0  0  0  0  0  0  0  0  0
  148.6490  136.6622  154.5945 N   0  0  0  0  0  0  0  0  0  0  0  0
  148.6896  138.0796  154.9585 C   0  0  2  0  0  0  0  0  0  0  0  0
  147.4508  138.8133  154.4006 C   0  0  0  0  0  0  0  0  0  0  0  0
  147.5579  140.3383  154.5889 C   0  0  0  0  0  0  0  0  0  0  0  0
  148.9114  140.8618  154.0774 C   0  0  0  0  0  0  0  0  0  0  0  0
  149.9905  140.1429  154.7769 N   0  0  0  0  0  0  0  0  0  0  0  0
  150.8135  140.6511  155.7289 C   0  0  0  0  0  0  0  0  0  0  0  0
  151.7746  140.0327  156.1878 O   0  0  0  0  0  0  0  0  0  0  0  0
  150.4979  141.8921  156.1392 N   0  0  0  0  0  0  0  0  0  0  0  0
  151.2380  142.6881  157.1154 C   0  0  0  0  0  0  0  0  0  0  0  0
  151.6129  141.8690  158.3646 C   0  0  0  0  0  0  0  0  0  0  0  0
  151.9081  142.7227  159.5860 C   0  0  0  0  0  0  0  0  0  0  0  0
  151.7512  144.1250  159.5415 C   0  0  0  0  0  0  0  0  0  0  0  0
  152.0639  144.8715  160.6937 C   0  0  0  0  0  0  0  0  0  0  0  0
  152.5161  144.1909  161.8404 C   0  0  0  0  0  0  0  0  0  0  0  0
  152.6358  142.7879  161.7838 C   0  0  0  0  0  0  0  0  0  0  0  0
  152.3393  142.0626  160.6841 N   0  0  0  0  0  0  0  0  0  0  0  0
  149.9897  138.7164  154.4281 C   0  0  0  0  0  0  0  0  0  0  0  0
  150.1355  133.2388  154.8022 H   0  0  0  0  0  0  0  0  0  0  0  0
  149.5211  134.1005  153.3726 H   0  0  0  0  0  0  0  0  0  0  0  0
  148.4220  133.7096  154.7177 H   0  0  0  0  0  0  0  0  0  0  0  0
  148.5785  136.5479  153.5837 H   0  0  0  0  0  0  0  0  0  0  0  0
  148.6911  138.1579  156.0473 H   0  0  0  0  0  0  0  0  0  0  0  0
  147.3528  138.5979  153.3356 H   0  0  0  0  0  0  0  0  0  0  0  0
  146.5402  138.4453  154.8735 H   0  0  0  0  0  0  0  0  0  0  0  0
  146.7401  140.8362  154.0672 H   0  0  0  0  0  0  0  0  0  0  0  0
  147.4480  140.5848  155.6457 H   0  0  0  0  0  0  0  0  0  0  0  0
  148.9984  140.6785  153.0054 H   0  0  0  0  0  0  0  0  0  0  0  0
  148.9568  141.9455  154.1847 H   0  0  0  0  0  0  0  0  0  0  0  0
  149.6874  142.3273  155.7239 H   0  0  0  0  0  0  0  0  0  0  0  0
  152.1456  143.0515  156.6338 H   0  0  0  0  0  0  0  0  0  0  0  0
  150.6737  143.5759  157.4051 H   0  0  0  0  0  0  0  0  0  0  0  0
  150.8073  141.1731  158.6027 H   0  0  0  0  0  0  0  0  0  0  0  0
  152.4866  141.2531  158.1472 H   0  0  0  0  0  0  0  0  0  0  0  0
  151.4097  144.6188  158.6436 H   0  0  0  0  0  0  0  0  0  0  0  0
  151.9607  145.9466  160.6969 H   0  0  0  0  0  0  0  0  0  0  0  0
  152.7657  144.7303  162.7420 H   0  0  0  0  0  0  0  0  0  0  0  0
  152.9783  142.2335  162.6447 H   0  0  0  0  0  0  0  0  0  0  0  0
  150.8559  138.1852  154.8258 H   0  0  0  0  0  0  0  0  0  0  0  0
  150.0510  138.6110  153.3438 H   0  0  0  0  0  0  0  0  0  0  0  0
  1  2  1  0  0  0  0
  1 23  1  0  0  0  0
  1 24  1  0  0  0  0
  1 25  1  0  0  0  0
  2  3  2  0  0  0  0
  2  4  2  0  0  0  0
  2  5  1  0  0  0  0
  5  6  1  0  0  0  0
  5 26  1  0  0  0  0
  6 22  1  0  0  0  0
  6  7  1  0  0  0  0
  6 27  1  0  0  0  0
  7  8  1  0  0  0  0
  7 28  1  0  0  0  0
  7 29  1  0  0  0  0
  8  9  1  0  0  0  0
  8 30  1  0  0  0  0
  8 31  1  0  0  0  0
  9 10  1  0  0  0  0
  9 32  1  0  0  0  0
  9 33  1  0  0  0  0
 10 11  1  0  0  0  0
 10 22  1  0  0  0  0
 11 12  2  0  0  0  0
 11 13  1  0  0  0  0
 13 14  1  0  0  0  0
 13 34  1  0  0  0  0
 14 15  1  0  0  0  0
 14 35  1  0  0  0  0
 14 36  1  0  0  0  0
 15 16  1  0  0  0  0
 15 37  1  0  0  0  0
 15 38  1  0  0  0  0
 16 21  1  0  0  0  0
 16 17  2  0  0  0  0
 17 18  1  0  0  0  0
 17 39  1  0  0  0  0
 18 19  2  0  0  0  0
 18 40  1  0  0  0  0
 19 20  1  0  0  0  0
 19 41  1  0  0  0  0
 20 21  2  0  0  0  0
 20 42  1  0  0  0  0
 22 43  1  0  0  0  0
 22 44  1  0  0  0  0
M  END
> <s_m_source_file>
AV-unprocessed.smi

> <i_m_source_file_index>
1434

> <i_lp_mmshare_version>
43012

> <i_f3d_flags>
0

> <s_epik_input>
W0NIM11TKD1PKSg9TylbTkhdW0NAQEhdMVtDSDJdW0NIMl1bQ0gyXU4oW0NIMl0xKUMoPU8pW05IXVtDSDJdW0NIMl1jMltjSF1bY0hdW2NIXVtjSF1uMg==

> <s_epik_cmdline>
J2VwaWtfcHl0aG9uJywgJy1waCcsICc3LjAnLCAnLXRuJywgJzgnLCAnLW1hJywgJzIwMCcsICctbWV0YWxfYmluZGluZycsICctaW1hZScsICc8aW5maWxlLm1hZT4nLCAnLW9tYWUnLCAnPG91dGZpbGUubWFlPic=

> <r_epik_Ionization_Penalty>
0.0449488

> <r_epik_Ionization_Penalty_Charging>
0

> <r_epik_Ionization_Penalty_Neutral>
0.0449488

> <r_epik_State_Penalty>
0.0380669

> <r_epik_Charging_Adjusted_Penalty>
0.0380669

> <i_epik_Tot_Q>
0

> <i_epik_Tot_abs_Q>
0

> <r_epik_Metal_State_Penalty>
0.0441384

> <b_epik_Metal_Only>
0

> <s_lp_Force_Field>
OPLS_2005

> <r_lp_Energy>
23.2159

> <b_lp_Chiralities_Consistent>
1

> <s_lp_Variant>
AV-unprocessed.smi:1434-1

> <Gold.Version>
5.8.1

> <Gold.Id.Protein>
6NUR|6NUR_protein|mol2

> <Gold.PLP.Fitness>
49.1102

> <Gold.PLP.PLP>
-43.5989

> <Gold.PLP.part.hbond>
-2.1024

> <Gold.PLP.part.metal>
0.0000

> <Gold.PLP.part.buried>
-5.8900

> <Gold.PLP.part.nonpolar>
-35.2414

> <Gold.PLP.part.repulsive>
0.3019

> <Gold.PLP.ligand.clash>
0.0000

> <Gold.PLP.ligand.torsion>
0.3174

> <Gold.PLP.Chemscore.Hbond>
2.0000

> <Gold.PLP.Chemscore.CHOScore>
0.0000

> <Gold.PLP.Chemscore.Metal>
0.0000

> <Gold.Chemscore.Hbonds>
donor molecule, donor type, donor heavy atom, donor atom, acceptor molecule, acceptor atom, score
      L1  H     5    26       P1  7948  1.00
      P1  H 10752 10763       L1     4  1.00

> <Gold.PLP.Chemscore.Internal.Correction>
0.1462

> <Gold.Rescore>
     Score         DG    S(hbond)    S(metal)    S(lipo)     H(rot)  DE(clash)    DE(int)     intcor
     16.36     -19.51       2.02        0.00     106.68       2.03       0.30       2.85       ----

> <Gold.Chemscore.Fitness>
16.3590

> <Gold.Chemscore.DG>
-19.5097

> <Gold.Chemscore.ZeroCoef>
-5.4800

> <Gold.Chemscore.Hbond>
2.0226

> <Gold.Chemscore.Metal>
0.0000

> <Gold.Chemscore.Lipo>
106.6793

> <Gold.Chemscore.Internal_Hbond>
0.0000

> <Gold.Chemscore.DEClash>
0.3042

> <Gold.Chemscore.DEInternal>
2.8466

> <Gold.Chemscore.Rot>
2.0340

> <Gold.Chemscore.Internal.Correction>
   9.000000E+99

> <Gold.Chemscore.Hbonds>
donor molecule, donor type, donor heavy atom, donor atom, acceptor molecule, acceptor atom, score
      L1  H     5    26       P1  7948  1.00
      L1  H    13    34       P1  8028  0.01
      P1  H 10752 10763       L1     4  1.00

> <Gold.Chemscore.Hbond.Weighted>
-6.7553

> <Gold.Chemscore.Metal.Weighted>
-0.0000

> <Gold.Chemscore.Lipo.Weighted>
-12.4815

> <Gold.Chemscore.Internal_Hbond.Weighted>
0.0000

> <Gold.Chemscore.DEClash.Weighted>
0.3042

> <Gold.Chemscore.DEInternal.Weighted>
2.8466

> <Gold.Chemscore.Rot.Weighted>
5.2071

> <Gold.Chemscore.Internal.Correction.Weighted>
   9.000000E+99

> <Gold.Protein.RotatedTorsions>
[ 6907 6896 6895 6894 ] final   79.23 input  -60.11 | X-H torsion
[ 7974 7965 7964 7962 ] final  166.92 input  175.53 | X-H torsion
[ 8008 7997 7996 7995 ] final  162.64 input   59.86 | X-H torsion
[ 10167 10162 10161 10158 ] final   32.93 input  -65.29 | X-H torsion
[ 10718 10713 10712 10709 ] final   33.45 input   66.30 | X-H torsion
[ 10763 10752 10751 10750 ] final   55.86 input  -60.55 | X-H torsion
[ 11005 11000 10999 10996 ] final  153.49 input  -57.11 | X-H torsion

> <Gold.Protein.ActiveResidues>
 VAL166  LYS551  ARG553  GLY616  TRP617  ASP618  TYR619  PRO620  LYS621  CYS622 
 ASP623  PHE694  ASN695  SER759  ASP760  ASP761  ALA762  ILE779  LEU786  VAL792 
 PHE793  MET794  SER795  GLU796  ALA797  LYS798  CYS799  TRP800  GLU811  SER814 

> <Gold.Protein.RotatedAtoms>
  152.5191  134.3542  159.9261 H   0  0  0  0  0  0  0  0  0  0  0  0  # atno 6907 bound_to 6896
  151.3493  133.3925  159.2686 H   0  0  0  0  0  0  0  0  0  0  0  0  # atno 6908 bound_to 6896
  150.9740  134.9126  159.7863 H   0  0  0  0  0  0  0  0  0  0  0  0  # atno 6909 bound_to 6896
  144.7444  139.8686  143.6387 H   0  0  0  0  0  0  0  0  0  0  0  0  # atno 7974 bound_to 7965
  156.2016  140.1745  156.7887 H   0  0  0  0  0  0  0  0  0  0  0  0  # atno 8008 bound_to 7997
  154.5599  140.0701  156.8834 H   0  0  0  0  0  0  0  0  0  0  0  0  # atno 8009 bound_to 7997
  155.2867  140.3352  155.4257 H   0  0  0  0  0  0  0  0  0  0  0  0  # atno 8010 bound_to 7997
  140.4454  144.1127  150.6181 H   0  0  0  0  0  0  0  0  0  0  0  0  # atno 10167 bound_to 10162
  157.2980  130.7336  149.6649 H   0  0  0  0  0  0  0  0  0  0  0  0  # atno 10718 bound_to 10713
  152.9823  135.5696  154.5136 H   0  0  0  0  0  0  0  0  0  0  0  0  # atno 10763 bound_to 10752
  154.4636  135.2782  155.1697 H   0  0  0  0  0  0  0  0  0  0  0  0  # atno 10764 bound_to 10752
  154.3274  135.6256  153.5589 H   0  0  0  0  0  0  0  0  0  0  0  0  # atno 10765 bound_to 10752
  140.1402  134.8744  157.2321 H   0  0  0  0  0  0  0  0  0  0  0  0  # atno 11005 bound_to 11000
  146.1297  139.4329  143.0177 LP  0  0  0  0  0  0  0  0  0  0  0  0  # atno 17320 bound_to 7965
  145.7182  141.0084  143.1417 LP  0  0  0  0  0  0  0  0  0  0  0  0  # atno 17321 bound_to 7965
  140.4270  143.2585  151.9643 LP  0  0  0  0  0  0  0  0  0  0  0  0  # atno 17342 bound_to 10162
  139.4792  144.5779  151.7982 LP  0  0  0  0  0  0  0  0  0  0  0  0  # atno 17343 bound_to 10162
  155.9670  130.4288  150.4807 LP  0  0  0  0  0  0  0  0  0  0  0  0  # atno 17370 bound_to 10713
  157.2782  131.0601  151.2215 LP  0  0  0  0  0  0  0  0  0  0  0  0  # atno 17371 bound_to 10713
  140.2731  134.3437  155.7367 LP  0  0  0  0  0  0  0  0  0  0  0  0  # atno 17394 bound_to 11000
  141.2185  133.7435  156.9252 LP  0  0  0  0  0  0  0  0  0  0  0  0  # atno 17395 bound_to 11000

$$$$
