AV-unprocessed.smi:332|AV-procd|sdf|2354|dock2
  -GOLD-   2262022263D 1   1.00000     0.00000
 Structure written by MMmdl.
 42 44  0  0  0  0  0  0  0  0  1 V2000
  149.1462  141.8941  156.9930 C   0  0  0  0  0  0  0  0  0  0  0  0
  149.3560  142.8139  158.2057 C   0  0  2  0  0  0  0  0  0  0  0  0
  148.1087  143.5308  158.4682 N   0  0  0  0  0  0  0  0  0  0  0  0
  146.9493  142.9853  158.8687 C   0  0  0  0  0  0  0  0  0  0  0  0
  146.8038  141.7812  159.0840 O   0  0  0  0  0  0  0  0  0  0  0  0
  145.7880  143.9677  159.0771 C   0  0  0  0  0  0  0  0  0  0  0  0
  145.0950  143.7903  160.3640 N   0  0  0  0  0  0  0  0  0  0  0  0
  143.7006  143.5910  160.3192 C   0  0  0  0  0  0  0  0  0  0  0  0
  142.9716  143.4203  161.4335 C   0  0  0  0  0  0  0  0  0  0  0  0
  143.6535  143.4448  162.7058 C   0  0  0  0  0  0  0  0  0  0  0  0
  144.9864  143.6387  162.7602 C   0  0  0  0  0  0  0  0  0  0  0  0
  145.7870  143.8274  161.5447 C   0  0  0  0  0  0  0  0  0  0  0  0
  147.0046  144.0064  161.5856 O   0  0  0  0  0  0  0  0  0  0  0  0
  150.5065  143.8271  157.9883 C   0  0  1  0  0  0  0  0  0  0  0  0
  150.7160  144.8388  159.1397 C   0  0  0  0  0  0  0  0  0  0  0  0
  152.2316  144.7613  159.3998 C   0  0  1  0  0  0  0  0  0  0  0  0
  152.5478  143.4424  160.1284 C   0  0  0  0  0  0  0  0  0  0  0  0
  152.3656  142.3923  159.0177 C   0  0  0  0  0  0  0  0  0  0  0  0
  151.9308  143.2444  157.8073 C   0  0  2  0  0  0  0  0  0  0  0  0
  152.7857  144.4924  158.0058 C   0  0  0  0  0  0  0  0  0  0  0  0
  150.0289  141.2849  156.7988 H   0  0  0  0  0  0  0  0  0  0  0  0
  148.9314  142.4673  156.0905 H   0  0  0  0  0  0  0  0  0  0  0  0
  148.3128  141.2108  157.1599 H   0  0  0  0  0  0  0  0  0  0  0  0
  149.5932  142.1804  159.0606 H   0  0  0  0  0  0  0  0  0  0  0  0
  148.1290  144.5305  158.3272 H   0  0  0  0  0  0  0  0  0  0  0  0
  146.1825  144.9811  158.9922 H   0  0  0  0  0  0  0  0  0  0  0  0
  145.0785  143.8686  158.2533 H   0  0  0  0  0  0  0  0  0  0  0  0
  143.2663  143.5931  159.3299 H   0  0  0  0  0  0  0  0  0  0  0  0
  141.9029  143.2724  161.3796 H   0  0  0  0  0  0  0  0  0  0  0  0
  143.0921  143.3086  163.6183 H   0  0  0  0  0  0  0  0  0  0  0  0
  145.4791  143.6558  163.7212 H   0  0  0  0  0  0  0  0  0  0  0  0
  150.2750  144.3952  157.0849 H   0  0  0  0  0  0  0  0  0  0  0  0
  150.4213  145.8408  158.8255 H   0  0  0  0  0  0  0  0  0  0  0  0
  150.1456  144.5940  160.0363 H   0  0  0  0  0  0  0  0  0  0  0  0
  152.6364  145.6432  159.8970 H   0  0  0  0  0  0  0  0  0  0  0  0
  153.5741  143.4361  160.4979 H   0  0  0  0  0  0  0  0  0  0  0  0
  151.8853  143.2689  160.9775 H   0  0  0  0  0  0  0  0  0  0  0  0
  153.3153  141.8974  158.8099 H   0  0  0  0  0  0  0  0  0  0  0  0
  151.6508  141.6144  159.2827 H   0  0  0  0  0  0  0  0  0  0  0  0
  152.0803  142.7475  156.8483 H   0  0  0  0  0  0  0  0  0  0  0  0
  152.5675  145.2890  157.2921 H   0  0  0  0  0  0  0  0  0  0  0  0
  153.8585  144.2904  157.9981 H   0  0  0  0  0  0  0  0  0  0  0  0
  1  2  1  0  0  0  0
  1 21  1  0  0  0  0
  1 22  1  0  0  0  0
  1 23  1  0  0  0  0
  2  3  1  0  0  0  0
  2 14  1  0  0  0  0
  2 24  1  0  0  0  0
  3  4  1  0  0  0  0
  3 25  1  0  0  0  0
  4  5  2  0  0  0  0
  4  6  1  0  0  0  0
  6  7  1  0  0  0  0
  6 26  1  0  0  0  0
  6 27  1  0  0  0  0
  7 12  1  0  0  0  0
  7  8  1  0  0  0  0
  8  9  2  0  0  0  0
  8 28  1  0  0  0  0
  9 10  1  0  0  0  0
  9 29  1  0  0  0  0
 10 11  2  0  0  0  0
 10 30  1  0  0  0  0
 11 12  1  0  0  0  0
 11 31  1  0  0  0  0
 12 13  2  0  0  0  0
 14 19  1  0  0  0  0
 14 15  1  0  0  0  0
 14 32  1  0  0  0  0
 15 16  1  0  0  0  0
 15 33  1  0  0  0  0
 15 34  1  0  0  0  0
 16 20  1  0  0  0  0
 16 17  1  0  0  0  0
 16 35  1  0  0  0  0
 17 18  1  0  0  0  0
 17 36  1  0  0  0  0
 17 37  1  0  0  0  0
 18 19  1  0  0  0  0
 18 38  1  0  0  0  0
 18 39  1  0  0  0  0
 19 20  1  0  0  0  0
 19 40  1  0  0  0  0
 20 41  1  0  0  0  0
 20 42  1  0  0  0  0
M  END
> <s_m_source_file>
AV-unprocessed.smi

> <i_m_source_file_index>
332

> <i_lp_mmshare_version>
43012

> <i_f3d_flags>
0

> <s_epik_input>
W0NIMl0xW0NIMl1bQ0BIXShbQ0gyXTIpW0NAQEhdKFtDSDJdW0NAQEhdMTIpW0NASF0oW0NIM10pW05IXUMoPU8pW0NIMl1uM1tjSF1bY0hdW2NIXVtjSF1jMz1P

> <s_epik_cmdline>
J2VwaWtfcHl0aG9uJywgJy1waCcsICc3LjAnLCAnLXRuJywgJzgnLCAnLW1hJywgJzIwMCcsICctbWV0YWxfYmluZGluZycsICctaW1hZScsICc8aW5maWxlLm1hZT4nLCAnLW9tYWUnLCAnPG91dGZpbGUubWFlPic=

> <r_lp_tautomer_probability>
1

> <r_epik_Ionization_Penalty>
4.05802e-07

> <r_epik_Ionization_Penalty_Charging>
3.84175e-07

> <r_epik_Ionization_Penalty_Neutral>
2.16269e-08

> <r_epik_State_Penalty>
-0

> <r_epik_Charging_Adjusted_Penalty>
3.84175e-07

> <i_epik_Tot_Q>
0

> <i_epik_Tot_abs_Q>
0

> <r_epik_Metal_State_Penalty>
-0

> <b_epik_Metal_Only>
0

> <s_lp_Force_Field>
OPLS_2005

> <r_lp_Energy>
60.6012

> <b_lp_Chiralities_Consistent>
1

> <s_lp_Variant>
AV-unprocessed.smi:332-3

> <Gold.Version>
5.8.1

> <Gold.Id.Protein>
6NUR|6NUR_protein|mol2

> <Gold.PLP.Fitness>
47.4073

> <Gold.PLP.PLP>
-42.4989

> <Gold.PLP.part.hbond>
-2.2661

> <Gold.PLP.part.metal>
0.0000

> <Gold.PLP.part.buried>
-5.7533

> <Gold.PLP.part.nonpolar>
-35.4165

> <Gold.PLP.part.repulsive>
0.1960

> <Gold.PLP.ligand.clash>
0.0000

> <Gold.PLP.ligand.torsion>
0.2241

> <Gold.PLP.Chemscore.Hbond>
1.7760

> <Gold.PLP.Chemscore.CHOScore>
0.0000

> <Gold.PLP.Chemscore.Metal>
0.0000

> <Gold.Chemscore.Hbonds>
donor molecule, donor type, donor heavy atom, donor atom, acceptor molecule, acceptor atom, score
      L1  H     3    25       P1  8029  0.99
      P1  H  6933  6944       L1    13  0.54
      P1  H  6934  6946       L1     5  0.69

> <Gold.PLP.Chemscore.Internal.Correction>
0.0285

> <Gold.Rescore>
     Score         DG    S(hbond)    S(metal)    S(lipo)     H(rot)  DE(clash)    DE(int)     intcor
     19.48     -21.48       1.76        0.00     120.31       1.54       0.06       1.94       ----

> <Gold.Chemscore.Fitness>
19.4848

> <Gold.Chemscore.DG>
-21.4816

> <Gold.Chemscore.ZeroCoef>
-5.4800

> <Gold.Chemscore.Hbond>
1.7566

> <Gold.Chemscore.Metal>
0.0000

> <Gold.Chemscore.Lipo>
120.3115

> <Gold.Chemscore.Internal_Hbond>
0.0000

> <Gold.Chemscore.DEClash>
0.0610

> <Gold.Chemscore.DEInternal>
1.9358

> <Gold.Chemscore.Rot>
1.5398

> <Gold.Chemscore.Internal.Correction>
   9.000000E+99

> <Gold.Chemscore.Hbonds>
donor molecule, donor type, donor heavy atom, donor atom, acceptor molecule, acceptor atom, score
      L1  H     3    25       P1  8029  0.70
      P1  H  6933  6944       L1    13  0.53
      P1  H  6934  6946       L1     5  0.70

> <Gold.Chemscore.Hbond.Weighted>
-5.8671

> <Gold.Chemscore.Metal.Weighted>
-0.0000

> <Gold.Chemscore.Lipo.Weighted>
-14.0764

> <Gold.Chemscore.Internal_Hbond.Weighted>
0.0000

> <Gold.Chemscore.DEClash.Weighted>
0.0610

> <Gold.Chemscore.DEInternal.Weighted>
1.9358

> <Gold.Chemscore.Rot.Weighted>
3.9419

> <Gold.Chemscore.Internal.Correction.Weighted>
   9.000000E+99

> <Gold.Protein.RotatedTorsions>
[ 6907 6896 6895 6894 ] final   51.25 input  -60.11 | X-H torsion
[ 7974 7965 7964 7962 ] final    3.38 input  175.53 | X-H torsion
[ 8008 7997 7996 7995 ] final    5.80 input   59.86 | X-H torsion
[ 10167 10162 10161 10158 ] final  113.83 input  -65.29 | X-H torsion
[ 10718 10713 10712 10709 ] final -104.54 input   66.30 | X-H torsion
[ 10763 10752 10751 10750 ] final  -15.59 input  -60.55 | X-H torsion
[ 11005 11000 10999 10996 ] final  154.01 input  -57.11 | X-H torsion

> <Gold.Protein.ActiveResidues>
 VAL166  LYS551  ARG553  GLY616  TRP617  ASP618  TYR619  PRO620  LYS621  CYS622 
 ASP623  PHE694  ASN695  SER759  ASP760  ASP761  ALA762  ILE779  LEU786  VAL792 
 PHE793  MET794  SER795  GLU796  ALA797  LYS798  CYS799  TRP800  GLU811  SER814 

> <Gold.Protein.RotatedAtoms>
  152.3106  134.7501  160.0336 H   0  0  0  0  0  0  0  0  0  0  0  0  # atno 6907 bound_to 6896
  151.7983  133.3362  159.3527 H   0  0  0  0  0  0  0  0  0  0  0  0  # atno 6908 bound_to 6896
  150.7318  134.5708  159.5933 H   0  0  0  0  0  0  0  0  0  0  0  0  # atno 6909 bound_to 6896
  146.2445  140.0693  142.8363 H   0  0  0  0  0  0  0  0  0  0  0  0  # atno 7974 bound_to 7965
  154.7329  140.2734  155.6440 H   0  0  0  0  0  0  0  0  0  0  0  0  # atno 8008 bound_to 7997
  156.2854  140.2712  156.1960 H   0  0  0  0  0  0  0  0  0  0  0  0  # atno 8009 bound_to 7997
  155.0358  140.0371  157.2481 H   0  0  0  0  0  0  0  0  0  0  0  0  # atno 8010 bound_to 7997
  139.6433  144.7125  151.2193 H   0  0  0  0  0  0  0  0  0  0  0  0  # atno 10167 bound_to 10162
  156.0308  130.5520  150.7410 H   0  0  0  0  0  0  0  0  0  0  0  0  # atno 10718 bound_to 10713
  153.5457  135.7012  153.5615 H   0  0  0  0  0  0  0  0  0  0  0  0  # atno 10763 bound_to 10752
  153.3561  135.3982  155.1683 H   0  0  0  0  0  0  0  0  0  0  0  0  # atno 10764 bound_to 10752
  154.8668  135.3777  154.4964 H   0  0  0  0  0  0  0  0  0  0  0  0  # atno 10765 bound_to 10752
  140.1450  134.8713  157.2380 H   0  0  0  0  0  0  0  0  0  0  0  0  # atno 11005 bound_to 11000
  145.0830  140.9234  143.4814 LP  0  0  0  0  0  0  0  0  0  0  0  0  # atno 17320 bound_to 7965
  145.0850  139.2931  143.5764 LP  0  0  0  0  0  0  0  0  0  0  0  0  # atno 17321 bound_to 7965
  140.7502  143.6274  150.8455 LP  0  0  0  0  0  0  0  0  0  0  0  0  # atno 17342 bound_to 10162
  139.9914  143.5842  152.2908 LP  0  0  0  0  0  0  0  0  0  0  0  0  # atno 17343 bound_to 10162
  157.4979  131.0916  151.0349 LP  0  0  0  0  0  0  0  0  0  0  0  0  # atno 17370 bound_to 10713
  157.0738  130.5875  149.5407 LP  0  0  0  0  0  0  0  0  0  0  0  0  # atno 17371 bound_to 10713
  140.2675  134.3499  155.7385 LP  0  0  0  0  0  0  0  0  0  0  0  0  # atno 17394 bound_to 11000
  141.2191  133.7404  156.9173 LP  0  0  0  0  0  0  0  0  0  0  0  0  # atno 17395 bound_to 11000

$$$$
