AV-unprocessed.smi:1838|AV-procd|sdf|7483|dock6
  -GOLD-   22720 9183D 1   1.00000     0.00000
 Structure written by MMmdl.
 35 36  0  0  0  0  0  0  0  0  1 V2000
  151.5995  138.2348  154.6152 C   0  0  0  0  0  0  0  0  0  0  0  0
  150.2541  138.1876  154.1525 O   0  0  0  0  0  0  0  0  0  0  0  0
  149.4842  139.3320  154.2423 C   0  0  0  0  0  0  0  0  0  0  0  0
  150.0507  140.4485  154.7652 N   0  0  0  0  0  0  0  0  0  0  0  0
  149.3034  141.5668  154.8552 C   0  0  0  0  0  0  0  0  0  0  0  0
  147.9637  141.6324  154.4326 C   0  0  0  0  0  0  0  0  0  0  0  0
  147.3732  140.4760  153.8901 C   0  0  0  0  0  0  0  0  0  0  0  0
  148.1446  139.2914  153.7876 C   0  0  0  0  0  0  0  0  0  0  0  0
  147.6657  138.0576  153.2601 N   0  0  0  0  0  0  0  0  0  0  0  0
  146.4061  137.6463  153.0336 C   0  0  0  0  0  0  0  0  0  0  0  0
  145.3861  138.3010  153.2444 O   0  0  0  0  0  0  0  0  0  0  0  0
  146.3919  136.4028  152.5330 N   0  0  0  0  0  0  0  0  0  0  0  0
  145.1930  135.6359  152.1999 C   0  0  1  0  0  0  0  0  0  0  0  0
  145.3296  134.9703  150.8174 C   0  0  0  0  0  0  0  0  0  0  0  0
  144.1554  134.0201  150.5667 C   0  0  0  0  0  0  0  0  0  0  0  0
  144.0857  132.9503  151.6685 C   0  0  0  0  0  0  0  0  0  0  0  0
  144.2397  133.4979  153.0173 N   0  0  0  0  0  0  0  0  0  0  0  0
  144.8021  134.6766  153.3385 C   0  0  0  0  0  0  0  0  0  0  0  0
  144.9674  135.0079  154.5115 O   0  0  0  0  0  0  0  0  0  0  0  0
  152.0619  137.2573  154.4797 H   0  0  0  0  0  0  0  0  0  0  0  0
  151.6478  138.4783  155.6777 H   0  0  0  0  0  0  0  0  0  0  0  0
  152.1896  138.9605  154.0535 H   0  0  0  0  0  0  0  0  0  0  0  0
  149.7879  142.4351  155.2769 H   0  0  0  0  0  0  0  0  0  0  0  0
  147.4004  142.5495  154.5228 H   0  0  0  0  0  0  0  0  0  0  0  0
  146.3460  140.5339  153.5700 H   0  0  0  0  0  0  0  0  0  0  0  0
  148.3888  137.3935  153.0236 H   0  0  0  0  0  0  0  0  0  0  0  0
  147.2765  135.9360  152.3956 H   0  0  0  0  0  0  0  0  0  0  0  0
  144.3559  136.3344  152.1423 H   0  0  0  0  0  0  0  0  0  0  0  0
  145.3673  135.7277  150.0336 H   0  0  0  0  0  0  0  0  0  0  0  0
  146.2667  134.4145  150.7600 H   0  0  0  0  0  0  0  0  0  0  0  0
  143.2255  134.5902  150.5490 H   0  0  0  0  0  0  0  0  0  0  0  0
  144.2486  133.5478  149.5883 H   0  0  0  0  0  0  0  0  0  0  0  0
  143.1416  132.4083  151.6076 H   0  0  0  0  0  0  0  0  0  0  0  0
  144.8781  132.2165  151.5163 H   0  0  0  0  0  0  0  0  0  0  0  0
  143.9519  132.9005  153.7790 H   0  0  0  0  0  0  0  0  0  0  0  0
  1  2  1  0  0  0  0
  1 20  1  0  0  0  0
  1 21  1  0  0  0  0
  1 22  1  0  0  0  0
  2  3  1  0  0  0  0
  3  8  1  0  0  0  0
  3  4  2  0  0  0  0
  4  5  1  0  0  0  0
  5  6  2  0  0  0  0
  5 23  1  0  0  0  0
  6  7  1  0  0  0  0
  6 24  1  0  0  0  0
  7  8  2  0  0  0  0
  7 25  1  0  0  0  0
  8  9  1  0  0  0  0
  9 10  1  0  0  0  0
  9 26  1  0  0  0  0
 10 11  2  0  0  0  0
 10 12  1  0  0  0  0
 12 13  1  0  0  0  0
 12 27  1  0  0  0  0
 13 18  1  0  0  0  0
 13 14  1  0  0  0  0
 13 28  1  0  0  0  0
 14 15  1  0  0  0  0
 14 29  1  0  0  0  0
 14 30  1  0  0  0  0
 15 16  1  0  0  0  0
 15 31  1  0  0  0  0
 15 32  1  0  0  0  0
 16 17  1  0  0  0  0
 16 33  1  0  0  0  0
 16 34  1  0  0  0  0
 17 18  1  0  0  0  0
 17 35  1  0  0  0  0
 18 19  2  0  0  0  0
M  END
> <s_m_source_file>
AV-unprocessed.smi

> <i_m_source_file_index>
1838

> <i_lp_mmshare_version>
43012

> <i_f3d_flags>
0

> <s_epik_input>
W0NIM11PYzFuW2NIXVtjSF1bY0hdYzFbTkhdQyg9TylbTkhdW0NAQEhdMltDSDJdW0NIMl1bQ0gyXVtOSF1DMj1P

> <s_epik_cmdline>
J2VwaWtfcHl0aG9uJywgJy1waCcsICc3LjAnLCAnLXRuJywgJzgnLCAnLW1hJywgJzIwMCcsICctbWV0YWxfYmluZGluZycsICctaW1hZScsICc8aW5maWxlLm1hZT4nLCAnLW9tYWUnLCAnPG91dGZpbGUubWFlPic=

> <r_lp_tautomer_probability>
1

> <r_epik_Ionization_Penalty>
8.30645e-05

> <r_epik_Ionization_Penalty_Charging>
0

> <r_epik_Ionization_Penalty_Neutral>
8.30645e-05

> <r_epik_State_Penalty>
-0

> <r_epik_Charging_Adjusted_Penalty>
0

> <i_epik_Tot_Q>
0

> <i_epik_Tot_abs_Q>
0

> <r_epik_Metal_State_Penalty>
-0

> <b_epik_Metal_Only>
0

> <s_lp_Force_Field>
OPLS_2005

> <r_lp_Energy>
12.0006

> <b_lp_Chiralities_Consistent>
1

> <s_lp_Variant>
AV-unprocessed.smi:1838-2

> <Gold.Version>
5.8.1

> <Gold.Id.Protein>
6NUR|6NUR_protein|mol2

> <Gold.PLP.Fitness>
41.8882

> <Gold.PLP.PLP>
-28.0341

> <Gold.PLP.part.hbond>
-4.0000

> <Gold.PLP.part.metal>
0.0000

> <Gold.PLP.part.buried>
-3.1235

> <Gold.PLP.part.nonpolar>
-23.6106

> <Gold.PLP.part.repulsive>
2.0359

> <Gold.PLP.ligand.clash>
0.0000

> <Gold.PLP.ligand.torsion>
0.3028

> <Gold.PLP.Chemscore.Hbond>
3.8240

> <Gold.PLP.Chemscore.CHOScore>
0.9816

> <Gold.PLP.Chemscore.Metal>
0.0000

> <Gold.Chemscore.Hbonds>
donor molecule, donor type, donor heavy atom, donor atom, acceptor molecule, acceptor atom, score
      L1  H     9    26       P1  7948  0.93
      L1  H    12    27       P1  7948  0.85
      L1  H    17    35       P1 10957  1.00
      P1  H  7989  7998       L1     4  0.87
      L1  C     5    23       P1  8028  0.99

> <Gold.PLP.Chemscore.Internal.Correction>
0.0429

> <Gold.Rescore>
     Score         DG    S(hbond)    S(metal)    S(lipo)     H(rot)  DE(clash)    DE(int)     intcor
     16.97     -19.41       3.16        0.00      58.04       1.33       1.12       1.32       ----

> <Gold.Chemscore.Fitness>
16.9671

> <Gold.Chemscore.DG>
-19.4084

> <Gold.Chemscore.ZeroCoef>
-5.4800

> <Gold.Chemscore.Hbond>
3.1558

> <Gold.Chemscore.Metal>
0.0000

> <Gold.Chemscore.Lipo>
58.0393

> <Gold.Chemscore.Internal_Hbond>
0.0000

> <Gold.Chemscore.DEClash>
1.1208

> <Gold.Chemscore.DEInternal>
1.3205

> <Gold.Chemscore.Rot>
1.3292

> <Gold.Chemscore.Internal.Correction>
   9.000000E+99

> <Gold.Chemscore.Hbonds>
donor molecule, donor type, donor heavy atom, donor atom, acceptor molecule, acceptor atom, score
      L1  H     9    26       P1  7948  0.90
      L1  H    12    27       P1  7948  0.83
      L1  H    17    35       P1 10957  0.84
      P1  H  7989  7998       L1     4  0.22

> <Gold.Chemscore.Hbond.Weighted>
-10.5404

> <Gold.Chemscore.Metal.Weighted>
-0.0000

> <Gold.Chemscore.Lipo.Weighted>
-6.7906

> <Gold.Chemscore.Internal_Hbond.Weighted>
0.0000

> <Gold.Chemscore.DEClash.Weighted>
1.1208

> <Gold.Chemscore.DEInternal.Weighted>
1.3205

> <Gold.Chemscore.Rot.Weighted>
3.4027

> <Gold.Chemscore.Internal.Correction.Weighted>
   9.000000E+99

> <Gold.Protein.RotatedTorsions>
[ 6907 6896 6895 6894 ] final  125.78 input  -60.11 | X-H torsion
[ 7974 7965 7964 7962 ] final -129.97 input  175.53 | X-H torsion
[ 8008 7997 7996 7995 ] final  122.27 input   59.86 | X-H torsion
[ 10167 10162 10161 10158 ] final -104.02 input  -65.29 | X-H torsion
[ 10718 10713 10712 10709 ] final   55.82 input   66.30 | X-H torsion
[ 10763 10752 10751 10750 ] final  107.57 input  -60.55 | X-H torsion
[ 11005 11000 10999 10996 ] final   36.84 input  -57.11 | X-H torsion

> <Gold.Protein.ActiveResidues>
 VAL166  LYS551  ARG553  GLY616  TRP617  ASP618  TYR619  PRO620  LYS621  CYS622 
 ASP623  PHE694  ASN695  SER759  ASP760  ASP761  ALA762  ILE779  LEU786  VAL792 
 PHE793  MET794  SER795  GLU796  ALA797  LYS798  CYS799  TRP800  GLU811  SER814 

> <Gold.Protein.RotatedAtoms>
  152.3962  133.6750  159.6278 H   0  0  0  0  0  0  0  0  0  0  0  0  # atno 6907 bound_to 6896
  150.7861  133.8870  159.3311 H   0  0  0  0  0  0  0  0  0  0  0  0  # atno 6908 bound_to 6896
  151.6645  135.0986  160.0237 H   0  0  0  0  0  0  0  0  0  0  0  0  # atno 6909 bound_to 6896
  144.9520  140.7355  143.4782 H   0  0  0  0  0  0  0  0  0  0  0  0  # atno 7974 bound_to 7965
  156.2721  140.2789  156.1440 H   0  0  0  0  0  0  0  0  0  0  0  0  # atno 8008 bound_to 7997
  155.0923  140.0389  157.2690 H   0  0  0  0  0  0  0  0  0  0  0  0  # atno 8009 bound_to 7997
  154.6879  140.2623  155.6847 H   0  0  0  0  0  0  0  0  0  0  0  0  # atno 8010 bound_to 7997
  140.2137  143.3727  152.1028 H   0  0  0  0  0  0  0  0  0  0  0  0  # atno 10167 bound_to 10162
  157.5378  130.8676  149.8778 H   0  0  0  0  0  0  0  0  0  0  0  0  # atno 10718 bound_to 10713
  153.4085  135.3840  155.2035 H   0  0  0  0  0  0  0  0  0  0  0  0  # atno 10763 bound_to 10752
  154.8736  135.3788  154.4530 H   0  0  0  0  0  0  0  0  0  0  0  0  # atno 10764 bound_to 10752
  153.5035  135.7088  153.5881 H   0  0  0  0  0  0  0  0  0  0  0  0  # atno 10765 bound_to 10752
  140.2285  134.3555  155.7974 H   0  0  0  0  0  0  0  0  0  0  0  0  # atno 11005 bound_to 11000
  145.2829  139.1911  143.4781 LP  0  0  0  0  0  0  0  0  0  0  0  0  # atno 17320 bound_to 7965
  146.3324  140.2794  142.8609 LP  0  0  0  0  0  0  0  0  0  0  0  0  # atno 17321 bound_to 7965
  139.5170  144.6985  151.5560 LP  0  0  0  0  0  0  0  0  0  0  0  0  # atno 17342 bound_to 10162
  140.6305  143.9085  150.6601 LP  0  0  0  0  0  0  0  0  0  0  0  0  # atno 17343 bound_to 10162
  156.0472  130.3725  150.1288 LP  0  0  0  0  0  0  0  0  0  0  0  0  # atno 17370 bound_to 10713
  156.9469  130.9762  151.3505 LP  0  0  0  0  0  0  0  0  0  0  0  0  # atno 17371 bound_to 10713
  141.2219  133.7232  156.8693 LP  0  0  0  0  0  0  0  0  0  0  0  0  # atno 17394 bound_to 11000
  140.1775  134.9057  157.2908 LP  0  0  0  0  0  0  0  0  0  0  0  0  # atno 17395 bound_to 11000

$$$$
