AV-unprocessed.smi:1487|AV-procd|sdf|6018|dock1
  -GOLD-   22720 6123D 1   1.00000     0.00000
 Structure written by MMmdl.
 49 51  0  0  0  0  0  0  0  0  3 V2000
  152.5089  143.5576  160.1306 C   0  0  0  0  0  0  0  0  0  0  0  0
  152.1740  142.6047  158.9957 C   0  0  0  0  0  0  0  0  0  0  0  0
  151.2417  143.0215  158.0189 C   0  0  0  0  0  0  0  0  0  0  0  0
  150.9582  142.1295  156.9917 C   0  0  0  0  0  0  0  0  0  0  0  0
  150.1016  142.2402  155.8944 N   0  3  0  0  0  0  0  0  0  0  0  0
  150.1602  141.0981  155.1554 C   0  0  0  0  0  0  0  0  0  0  0  0
  151.0404  140.2587  155.7664 N   0  0  0  0  0  0  0  0  0  0  0  0
  151.4665  138.9039  155.3904 C   0  0  0  0  0  0  0  0  0  0  0  0
  150.3124  138.0423  154.8398 C   0  0  1  0  0  0  0  0  0  0  0  0
  149.9672  138.5101  153.5489 O   0  0  0  0  0  0  0  0  0  0  0  0
  150.7139  136.5562  154.7454 C   0  0  0  0  0  0  0  0  0  0  0  0
  149.5558  135.6619  154.4877 N   0  3  2  0  0  0  0  0  0  0  0  0
  148.4248  135.8735  155.4292 C   0  0  0  0  0  0  0  0  0  0  0  0
  147.1979  135.0510  155.0051 C   0  0  0  0  0  0  0  0  0  0  0  0
  147.5432  133.5581  154.9050 C   0  0  0  0  0  0  0  0  0  0  0  0
  148.7674  133.3339  154.0016 C   0  0  1  0  0  0  0  0  0  0  0  0
  148.4363  133.5804  152.6490 O   0  0  0  0  0  0  0  0  0  0  0  0
  149.9510  134.2304  154.4144 C   0  0  0  0  0  0  0  0  0  0  0  0
  151.5640  140.8602  156.9156 C   0  0  0  0  0  0  0  0  0  0  0  0
  152.4827  140.4321  157.8709 C   0  0  0  0  0  0  0  0  0  0  0  0
  152.7867  141.3265  158.9225 C   0  0  0  0  0  0  0  0  0  0  0  0
  153.7903  140.8913  159.9769 C   0  0  0  0  0  0  0  0  0  0  0  0
  151.9727  144.5017  160.0299 H   0  0  0  0  0  0  0  0  0  0  0  0
  153.5760  143.7805  160.1421 H   0  0  0  0  0  0  0  0  0  0  0  0
  152.2356  143.1201  161.0911 H   0  0  0  0  0  0  0  0  0  0  0  0
  150.7714  143.9929  158.0685 H   0  0  0  0  0  0  0  0  0  0  0  0
  149.6051  140.8928  154.2512 H   0  0  0  0  0  0  0  0  0  0  0  0
  152.2518  139.0082  154.6403 H   0  0  0  0  0  0  0  0  0  0  0  0
  151.9301  138.4320  156.2576 H   0  0  0  0  0  0  0  0  0  0  0  0
  149.4460  138.1654  155.4889 H   0  0  0  0  0  0  0  0  0  0  0  0
  149.8877  137.7722  152.9642 H   0  0  0  0  0  0  0  0  0  0  0  0
  151.4493  136.4509  153.9461 H   0  0  0  0  0  0  0  0  0  0  0  0
  151.2157  136.2360  155.6597 H   0  0  0  0  0  0  0  0  0  0  0  0
  148.7322  135.5967  156.4389 H   0  0  0  0  0  0  0  0  0  0  0  0
  148.1486  136.9267  155.4633 H   0  0  0  0  0  0  0  0  0  0  0  0
  146.3866  135.1967  155.7189 H   0  0  0  0  0  0  0  0  0  0  0  0
  146.8301  135.4114  154.0435 H   0  0  0  0  0  0  0  0  0  0  0  0
  147.7614  133.1756  155.9029 H   0  0  0  0  0  0  0  0  0  0  0  0
  146.6857  132.9912  154.5404 H   0  0  0  0  0  0  0  0  0  0  0  0
  149.0729  132.2890  154.0664 H   0  0  0  0  0  0  0  0  0  0  0  0
  148.4228  134.5153  152.5073 H   0  0  0  0  0  0  0  0  0  0  0  0
  150.7690  134.1018  153.7040 H   0  0  0  0  0  0  0  0  0  0  0  0
  150.3303  133.9170  155.3886 H   0  0  0  0  0  0  0  0  0  0  0  0
  152.9495  139.4602  157.8145 H   0  0  0  0  0  0  0  0  0  0  0  0
  154.1448  139.8761  159.7969 H   0  0  0  0  0  0  0  0  0  0  0  0
  153.3397  140.9144  160.9695 H   0  0  0  0  0  0  0  0  0  0  0  0
  154.6575  141.5521  159.9743 H   0  0  0  0  0  0  0  0  0  0  0  0
  149.2177  135.8944  153.5649 H   0  0  0  0  0  0  0  0  0  0  0  0
  149.5189  143.0351  155.6641 H   0  0  0  0  0  0  0  0  0  0  0  0
  1  2  1  0  0  0  0
  1 23  1  0  0  0  0
  1 24  1  0  0  0  0
  1 25  1  0  0  0  0
  2 21  1  0  0  0  0
  2  3  2  0  0  0  0
  3  4  1  0  0  0  0
  3 26  1  0  0  0  0
  4 19  2  0  0  0  0
  4  5  1  0  0  0  0
  5  6  2  0  0  0  0
  5 49  1  0  0  0  0
  6  7  1  0  0  0  0
  6 27  1  0  0  0  0
  7  8  1  0  0  0  0
  7 19  1  0  0  0  0
  8  9  1  0  0  0  0
  8 28  1  0  0  0  0
  8 29  1  0  0  0  0
  9 10  1  0  0  0  0
  9 11  1  0  0  0  0
  9 30  1  0  0  0  0
 10 31  1  0  0  0  0
 11 12  1  0  0  0  0
 11 32  1  0  0  0  0
 11 33  1  0  0  0  0
 12 18  1  0  0  0  0
 12 13  1  0  0  0  0
 12 48  1  0  0  0  0
 13 14  1  0  0  0  0
 13 34  1  0  0  0  0
 13 35  1  0  0  0  0
 14 15  1  0  0  0  0
 14 36  1  0  0  0  0
 14 37  1  0  0  0  0
 15 16  1  0  0  0  0
 15 38  1  0  0  0  0
 15 39  1  0  0  0  0
 16 17  1  0  0  0  0
 16 18  1  0  0  0  0
 16 40  1  0  0  0  0
 17 41  1  0  0  0  0
 18 42  1  0  0  0  0
 18 43  1  0  0  0  0
 19 20  1  0  0  0  0
 20 21  2  0  0  0  0
 20 44  1  0  0  0  0
 21 22  1  0  0  0  0
 22 45  1  0  0  0  0
 22 46  1  0  0  0  0
 22 47  1  0  0  0  0
M  CHG  1   5   1
M  CHG  1  12   1
M  END
> <s_m_source_file>
AV-unprocessed.smi

> <i_m_source_file_index>
1487

> <i_lp_mmshare_version>
43012

> <i_f3d_flags>
0

> <s_epik_input>
W0NIM11jKFtjSF0xKWMoW0NIM10pW2NIXWMoYzEyKW4oW2NIXW4yKVtDSDJdW0NASF0oW09IXSlbQ0gyXU4zW0NIMl1bQ0gyXVtDSDJdW0NAQEhdKFtPSF0pW0NIMl0z

> <s_epik_cmdline>
J2VwaWtfcHl0aG9uJywgJy1waCcsICc3LjAnLCAnLXRuJywgJzgnLCAnLW1hJywgJzIwMCcsICctbWV0YWxfYmluZGluZycsICctaW1hZScsICc8aW5maWxlLm1hZT4nLCAnLW9tYWUnLCAnPG91dGZpbGUubWFlPic=

> <r_epik_Ionization_Penalty>
1.1857

> <r_epik_Ionization_Penalty_Charging>
1.1857

> <r_epik_Ionization_Penalty_Neutral>
1.75578e-06

> <r_epik_State_Penalty>
1.26953

> <r_epik_Charging_Adjusted_Penalty>
2.45524

> <i_epik_Tot_Q>
2

> <i_epik_Tot_abs_Q>
2

> <r_epik_Metal_State_Penalty>
5.28243

> <b_epik_Metal_Only>
0

> <s_lp_Force_Field>
OPLS_2005

> <r_lp_Energy>
32.3445

> <b_lp_Chiralities_Consistent>
1

> <s_lp_Variant>
AV-unprocessed.smi:1487-12

> <Gold.Version>
5.8.1

> <Gold.Id.Protein>
6NUR|6NUR_protein|mol2

> <Gold.PLP.Fitness>
59.3220

> <Gold.PLP.PLP>
-42.1881

> <Gold.PLP.part.hbond>
-5.0000

> <Gold.PLP.part.metal>
0.0000

> <Gold.PLP.part.buried>
-2.6559

> <Gold.PLP.part.nonpolar>
-33.4440

> <Gold.PLP.part.repulsive>
0.1604

> <Gold.PLP.ligand.clash>
0.0000

> <Gold.PLP.ligand.torsion>
0.4605

> <Gold.PLP.Chemscore.Hbond>
6.0000

> <Gold.PLP.Chemscore.CHOScore>
0.0000

> <Gold.PLP.Chemscore.Metal>
0.0000

> <Gold.Chemscore.Hbonds>
donor molecule, donor type, donor heavy atom, donor atom, acceptor molecule, acceptor atom, score
      L1  H     5    49       P1  8028  2.00
      L1  H    10    31       P1  7948  0.91
      L1  H    12    48       P1  7948  2.00
      L1  H    17    41       P1  7948  0.80

> <Gold.PLP.Chemscore.Internal.Correction>
0.0549

> <Gold.Rescore>
     Score         DG    S(hbond)    S(metal)    S(lipo)     H(rot)  DE(clash)    DE(int)     intcor
     20.52     -21.11       3.29        0.00      99.69       2.74       0.10       0.50       ----

> <Gold.Chemscore.Fitness>
20.5150

> <Gold.Chemscore.DG>
-21.1101

> <Gold.Chemscore.ZeroCoef>
-5.4800

> <Gold.Chemscore.Hbond>
3.2864

> <Gold.Chemscore.Metal>
0.0000

> <Gold.Chemscore.Lipo>
99.6926

> <Gold.Chemscore.Internal_Hbond>
0.0000

> <Gold.Chemscore.DEClash>
0.0982

> <Gold.Chemscore.DEInternal>
0.4969

> <Gold.Chemscore.Rot>
2.7384

> <Gold.Chemscore.Internal.Correction>
   9.000000E+99

> <Gold.Chemscore.Hbonds>
donor molecule, donor type, donor heavy atom, donor atom, acceptor molecule, acceptor atom, score
      L1  H     5    49       P1  8028  1.00
      L1  H    10    31       P1  7948  0.35
      L1  H    12    48       P1  7948  0.74
      L1  H    17    41       P1  7948  0.12

> <Gold.Chemscore.Hbond.Weighted>
-10.9764

> <Gold.Chemscore.Metal.Weighted>
-0.0000

> <Gold.Chemscore.Lipo.Weighted>
-11.6640

> <Gold.Chemscore.Internal_Hbond.Weighted>
0.0000

> <Gold.Chemscore.DEClash.Weighted>
0.0982

> <Gold.Chemscore.DEInternal.Weighted>
0.4969

> <Gold.Chemscore.Rot.Weighted>
7.0103

> <Gold.Chemscore.Internal.Correction.Weighted>
   9.000000E+99

> <Gold.Protein.RotatedTorsions>
[ 6907 6896 6895 6894 ] final   24.93 input  -60.11 | X-H torsion
[ 7974 7965 7964 7962 ] final -168.48 input  175.53 | X-H torsion
[ 8008 7997 7996 7995 ] final   66.23 input   59.86 | X-H torsion
[ 10167 10162 10161 10158 ] final  149.84 input  -65.29 | X-H torsion
[ 10718 10713 10712 10709 ] final   -0.26 input   66.30 | X-H torsion
[ 10763 10752 10751 10750 ] final   73.94 input  -60.55 | X-H torsion
[ 11005 11000 10999 10996 ] final -148.34 input  -57.11 | X-H torsion

> <Gold.Protein.ActiveResidues>
 VAL166  LYS551  ARG553  GLY616  TRP617  ASP618  TYR619  PRO620  LYS621  CYS622 
 ASP623  PHE694  ASN695  SER759  ASP760  ASP761  ALA762  ILE779  LEU786  VAL792 
 PHE793  MET794  SER795  GLU796  ALA797  LYS798  CYS799  TRP800  GLU811  SER814 

> <Gold.Protein.RotatedAtoms>
  151.9648  135.0106  160.0549 H   0  0  0  0  0  0  0  0  0  0  0  0  # atno 6907 bound_to 6896
  152.1836  133.4719  159.4979 H   0  0  0  0  0  0  0  0  0  0  0  0  # atno 6908 bound_to 6896
  150.6922  134.1720  159.4258 H   0  0  0  0  0  0  0  0  0  0  0  0  # atno 6909 bound_to 6896
  144.7202  140.2364  143.6297 H   0  0  0  0  0  0  0  0  0  0  0  0  # atno 7974 bound_to 7965
  155.6741  140.3497  155.4830 H   0  0  0  0  0  0  0  0  0  0  0  0  # atno 8008 bound_to 7997
  155.9663  140.1147  157.0874 H   0  0  0  0  0  0  0  0  0  0  0  0  # atno 8009 bound_to 7997
  154.4155  140.1166  156.5232 H   0  0  0  0  0  0  0  0  0  0  0  0  # atno 8010 bound_to 7997
  139.4857  144.5570  151.7300 H   0  0  0  0  0  0  0  0  0  0  0  0  # atno 10167 bound_to 10162
  156.8230  130.5463  149.5695 H   0  0  0  0  0  0  0  0  0  0  0  0  # atno 10718 bound_to 10713
  153.0554  135.5044  154.7969 H   0  0  0  0  0  0  0  0  0  0  0  0  # atno 10763 bound_to 10752
  154.6798  135.2966  154.9630 H   0  0  0  0  0  0  0  0  0  0  0  0  # atno 10764 bound_to 10752
  154.0420  135.6715  153.4844 H   0  0  0  0  0  0  0  0  0  0  0  0  # atno 10765 bound_to 10752
  140.7622  134.3285  157.5098 H   0  0  0  0  0  0  0  0  0  0  0  0  # atno 11005 bound_to 11000
  145.8362  139.2108  143.1854 LP  0  0  0  0  0  0  0  0  0  0  0  0  # atno 17320 bound_to 7965
  146.0387  140.8186  142.9839 LP  0  0  0  0  0  0  0  0  0  0  0  0  # atno 17321 bound_to 7965
  140.5133  144.0991  150.6001 LP  0  0  0  0  0  0  0  0  0  0  0  0  # atno 17342 bound_to 10162
  140.3924  143.2745  152.0044 LP  0  0  0  0  0  0  0  0  0  0  0  0  # atno 17343 bound_to 10162
  156.0978  130.5945  150.9842 LP  0  0  0  0  0  0  0  0  0  0  0  0  # atno 17370 bound_to 10713
  157.6447  131.0905  150.8179 LP  0  0  0  0  0  0  0  0  0  0  0  0  # atno 17371 bound_to 10713
  139.8769  134.9209  156.3263 LP  0  0  0  0  0  0  0  0  0  0  0  0  # atno 17394 bound_to 11000
  140.9652  133.7363  156.0457 LP  0  0  0  0  0  0  0  0  0  0  0  0  # atno 17395 bound_to 11000

$$$$
