AV-unprocessed.smi:437|AV-procd|sdf|2559|dock10
  -GOLD-   2262022523D 1   1.00000     0.00000
 Structure written by MMmdl.
 48 49  0  0  0  0  0  0  0  0  1 V2000
  147.9352  132.6473  160.3031 C   0  0  0  0  0  0  0  0  0  0  0  0
  148.0583  134.1416  160.1731 C   0  0  0  0  0  0  0  0  0  0  0  0
  148.6674  134.5841  159.1225 N   0  0  0  0  0  0  0  0  0  0  0  0
  148.8409  135.9376  158.9079 N   0  0  0  0  0  0  0  0  0  0  0  0
  149.5694  136.2590  157.6718 C   0  0  0  0  0  0  0  0  0  0  0  0
  150.9343  136.9168  157.9285 C   0  0  0  0  0  0  0  0  0  0  0  0
  151.8883  136.2352  158.3131 O   0  0  0  0  0  0  0  0  0  0  0  0
  150.9792  138.2435  157.6914 N   0  0  0  0  0  0  0  0  0  0  0  0
  152.0360  139.0673  157.8288 C   0  0  0  0  0  0  0  0  0  0  0  0
  153.2191  138.7214  157.8576 O   0  0  0  0  0  0  0  0  0  0  0  0
  151.6384  140.3442  157.9300 N   0  0  0  0  0  0  0  0  0  0  0  0
  152.4420  141.4437  158.4611 C   0  0  2  0  0  0  0  0  0  0  0  0
  152.8205  141.1480  159.9276 C   0  0  0  0  0  0  0  0  0  0  0  0
  153.6114  142.3054  160.5539 C   0  0  0  0  0  0  0  0  0  0  0  0
  152.8350  143.6244  160.4446 C   0  0  0  0  0  0  0  0  0  0  0  0
  152.4735  143.9314  158.9836 C   0  0  0  0  0  0  0  0  0  0  0  0
  151.6735  142.7832  158.3356 C   0  0  1  0  0  0  0  0  0  0  0  0
  151.3216  143.1258  156.8765 C   0  0  0  0  0  0  0  0  0  0  0  0
  148.3944  136.9200  159.7425 C   0  0  0  0  0  0  0  0  0  0  0  0
  148.5648  138.1172  159.5067 O   0  0  0  0  0  0  0  0  0  0  0  0
  147.7058  136.4117  160.9309 C   0  0  0  0  0  0  0  0  0  0  0  0
  147.2315  137.4071  161.8371 C   0  0  0  0  0  0  0  0  0  0  0  0
  146.8635  138.2251  162.5689 N   0  0  0  0  0  0  0  0  0  0  0  0
  147.5331  135.0848  161.1551 C   0  0  0  0  0  0  0  0  0  0  0  0
  146.8257  134.5066  162.3730 C   0  0  0  0  0  0  0  0  0  0  0  0
  146.8888  132.3427  160.2797 H   0  0  0  0  0  0  0  0  0  0  0  0
  148.3684  132.3025  161.2424 H   0  0  0  0  0  0  0  0  0  0  0  0
  148.4485  132.1247  159.4943 H   0  0  0  0  0  0  0  0  0  0  0  0
  149.7361  135.3527  157.0867 H   0  0  0  0  0  0  0  0  0  0  0  0
  148.9635  136.9081  157.0367 H   0  0  0  0  0  0  0  0  0  0  0  0
  150.1212  138.6666  157.3704 H   0  0  0  0  0  0  0  0  0  0  0  0
  150.7131  140.5807  157.6032 H   0  0  0  0  0  0  0  0  0  0  0  0
  153.3615  141.5308  157.8785 H   0  0  0  0  0  0  0  0  0  0  0  0
  151.9176  140.9708  160.5139 H   0  0  0  0  0  0  0  0  0  0  0  0
  153.4097  140.2318  159.9859 H   0  0  0  0  0  0  0  0  0  0  0  0
  153.8271  142.0858  161.6000 H   0  0  0  0  0  0  0  0  0  0  0  0
  154.5751  142.4038  160.0526 H   0  0  0  0  0  0  0  0  0  0  0  0
  151.9253  143.5655  161.0433 H   0  0  0  0  0  0  0  0  0  0  0  0
  153.4275  144.4400  160.8603 H   0  0  0  0  0  0  0  0  0  0  0  0
  151.8986  144.8569  158.9401 H   0  0  0  0  0  0  0  0  0  0  0  0
  153.3872  144.1104  158.4149 H   0  0  0  0  0  0  0  0  0  0  0  0
  150.7347  142.6877  158.8838 H   0  0  0  0  0  0  0  0  0  0  0  0
  152.2191  143.2049  156.2622 H   0  0  0  0  0  0  0  0  0  0  0  0
  150.7925  144.0771  156.8147 H   0  0  0  0  0  0  0  0  0  0  0  0
  150.6773  142.3696  156.4279 H   0  0  0  0  0  0  0  0  0  0  0  0
  146.3854  135.2807  163.0007 H   0  0  0  0  0  0  0  0  0  0  0  0
  147.5275  133.9423  162.9877 H   0  0  0  0  0  0  0  0  0  0  0  0
  146.0191  133.8384  162.0700 H   0  0  0  0  0  0  0  0  0  0  0  0
  1  2  1  0  0  0  0
  1 26  1  0  0  0  0
  1 27  1  0  0  0  0
  1 28  1  0  0  0  0
  2 24  1  0  0  0  0
  2  3  2  0  0  0  0
  3  4  1  0  0  0  0
  4  5  1  0  0  0  0
  4 19  1  0  0  0  0
  5  6  1  0  0  0  0
  5 29  1  0  0  0  0
  5 30  1  0  0  0  0
  6  7  2  0  0  0  0
  6  8  1  0  0  0  0
  8  9  1  0  0  0  0
  8 31  1  0  0  0  0
  9 10  2  0  0  0  0
  9 11  1  0  0  0  0
 11 12  1  0  0  0  0
 11 32  1  0  0  0  0
 12 17  1  0  0  0  0
 12 13  1  0  0  0  0
 12 33  1  0  0  0  0
 13 14  1  0  0  0  0
 13 34  1  0  0  0  0
 13 35  1  0  0  0  0
 14 15  1  0  0  0  0
 14 36  1  0  0  0  0
 14 37  1  0  0  0  0
 15 16  1  0  0  0  0
 15 38  1  0  0  0  0
 15 39  1  0  0  0  0
 16 17  1  0  0  0  0
 16 40  1  0  0  0  0
 16 41  1  0  0  0  0
 17 18  1  0  0  0  0
 17 42  1  0  0  0  0
 18 43  1  0  0  0  0
 18 44  1  0  0  0  0
 18 45  1  0  0  0  0
 19 20  2  0  0  0  0
 19 21  1  0  0  0  0
 21 22  1  0  0  0  0
 21 24  2  0  0  0  0
 22 23  3  0  0  0  0
 24 25  1  0  0  0  0
 25 46  1  0  0  0  0
 25 47  1  0  0  0  0
 25 48  1  0  0  0  0
M  END
> <s_m_source_file>
AV-unprocessed.smi

> <i_m_source_file_index>
437

> <i_lp_mmshare_version>
43012

> <i_f3d_flags>
0

> <s_epik_input>
TiNDYyhjMVtDSDNdKWMoPU8pbihuYzFbQ0gzXSlbQ0gyXUMoPU8pW05IXUMoPU8pW05IXVtDQEBIXTJbQ0gyXVtDSDJdW0NIMl1bQ0gyXVtDQEhdMltDSDNd

> <s_epik_cmdline>
J2VwaWtfcHl0aG9uJywgJy1waCcsICc3LjAnLCAnLXRuJywgJzgnLCAnLW1hJywgJzIwMCcsICctbWV0YWxfYmluZGluZycsICctaW1hZScsICc8aW5maWxlLm1hZT4nLCAnLW9tYWUnLCAnPG91dGZpbGUubWFlPic=

> <r_lp_tautomer_probability>
1

> <r_epik_Ionization_Penalty>
3.27035e-05

> <r_epik_Ionization_Penalty_Charging>
1.6965e-11

> <r_epik_Ionization_Penalty_Neutral>
3.27035e-05

> <r_epik_State_Penalty>
-0

> <r_epik_Charging_Adjusted_Penalty>
1.6965e-11

> <i_epik_Tot_Q>
0

> <i_epik_Tot_abs_Q>
0

> <r_epik_Metal_State_Penalty>
-0

> <b_epik_Metal_Only>
0

> <s_lp_Force_Field>
OPLS_2005

> <r_lp_Energy>
27.1353

> <b_lp_Chiralities_Consistent>
1

> <s_lp_Variant>
AV-unprocessed.smi:437-1

> <Gold.Version>
5.8.1

> <Gold.Id.Protein>
6NUR|6NUR_protein|mol2

> <Gold.PLP.Fitness>
47.7293

> <Gold.PLP.PLP>
-42.6691

> <Gold.PLP.part.hbond>
-7.0000

> <Gold.PLP.part.metal>
0.0000

> <Gold.PLP.part.buried>
-0.5736

> <Gold.PLP.part.nonpolar>
-33.9189

> <Gold.PLP.part.repulsive>
0.1195

> <Gold.PLP.ligand.clash>
0.0000

> <Gold.PLP.ligand.torsion>
0.3998

> <Gold.PLP.Chemscore.Hbond>
1.9455

> <Gold.PLP.Chemscore.CHOScore>
0.0000

> <Gold.PLP.Chemscore.Metal>
0.0000

> <Gold.Chemscore.Hbonds>
donor molecule, donor type, donor heavy atom, donor atom, acceptor molecule, acceptor atom, score
      P1  H  6896  6907       L1     3  0.56
      P1  H  6896  6908       L1     7  0.40
      P1  H  6934  6947       L1    20  0.10
      P1  H  7997  8010       L1    10  0.91

> <Gold.PLP.Chemscore.Internal.Correction>
0.0232

> <Gold.Rescore>
     Score         DG    S(hbond)    S(metal)    S(lipo)     H(rot)  DE(clash)    DE(int)     intcor
     15.89     -17.74       1.21        0.00     104.33       1.57       0.12       1.73       ----

> <Gold.Chemscore.Fitness>
15.8899

> <Gold.Chemscore.DG>
-17.7369

> <Gold.Chemscore.ZeroCoef>
-5.4800

> <Gold.Chemscore.Hbond>
1.2149

> <Gold.Chemscore.Metal>
0.0000

> <Gold.Chemscore.Lipo>
104.3324

> <Gold.Chemscore.Internal_Hbond>
0.0000

> <Gold.Chemscore.DEClash>
0.1207

> <Gold.Chemscore.DEInternal>
1.7264

> <Gold.Chemscore.Rot>
1.5656

> <Gold.Chemscore.Internal.Correction>
   9.000000E+99

> <Gold.Chemscore.Hbonds>
donor molecule, donor type, donor heavy atom, donor atom, acceptor molecule, acceptor atom, score
      P1  H  6896  6907       L1     3  0.08
      P1  H  6896  6908       L1     7  0.38
      P1  H  6934  6947       L1    20  0.04
      P1  H  7997  8010       L1    10  0.82

> <Gold.Chemscore.Hbond.Weighted>
-4.0579

> <Gold.Chemscore.Metal.Weighted>
-0.0000

> <Gold.Chemscore.Lipo.Weighted>
-12.2069

> <Gold.Chemscore.Internal_Hbond.Weighted>
0.0000

> <Gold.Chemscore.DEClash.Weighted>
0.1207

> <Gold.Chemscore.DEInternal.Weighted>
1.7264

> <Gold.Chemscore.Rot.Weighted>
4.0079

> <Gold.Chemscore.Internal.Correction.Weighted>
   9.000000E+99

> <Gold.Protein.RotatedTorsions>
[ 6907 6896 6895 6894 ] final -110.69 input  -60.11 | X-H torsion
[ 7974 7965 7964 7962 ] final -179.56 input  175.53 | X-H torsion
[ 8008 7997 7996 7995 ] final   35.94 input   59.86 | X-H torsion
[ 10167 10162 10161 10158 ] final    4.72 input  -65.29 | X-H torsion
[ 10718 10713 10712 10709 ] final -162.08 input   66.30 | X-H torsion
[ 10763 10752 10751 10750 ] final -131.40 input  -60.55 | X-H torsion
[ 11005 11000 10999 10996 ] final   55.94 input  -57.11 | X-H torsion

> <Gold.Protein.ActiveResidues>
 VAL166  LYS551  ARG553  GLY616  TRP617  ASP618  TYR619  PRO620  LYS621  CYS622 
 ASP623  PHE694  ASN695  SER759  ASP760  ASP761  ALA762  ILE779  LEU786  VAL792 
 PHE793  MET794  SER795  GLU796  ALA797  LYS798  CYS799  TRP800  GLU811  SER814 

> <Gold.Protein.RotatedAtoms>
  150.7641  133.9345  159.3436 H   0  0  0  0  0  0  0  0  0  0  0  0  # atno 6907 bound_to 6896
  151.7247  135.0885  160.0299 H   0  0  0  0  0  0  0  0  0  0  0  0  # atno 6908 bound_to 6896
  152.3627  133.6280  159.6063 H   0  0  0  0  0  0  0  0  0  0  0  0  # atno 6909 bound_to 6896
  144.7137  140.0699  143.6430 H   0  0  0  0  0  0  0  0  0  0  0  0  # atno 7974 bound_to 7965
  155.1794  140.3298  155.4378 H   0  0  0  0  0  0  0  0  0  0  0  0  # atno 8008 bound_to 7997
  156.2482  140.1929  156.6843 H   0  0  0  0  0  0  0  0  0  0  0  0  # atno 8009 bound_to 7997
  154.6282  140.0586  156.9686 H   0  0  0  0  0  0  0  0  0  0  0  0  # atno 8010 bound_to 7997
  140.6520  143.7521  150.7590 H   0  0  0  0  0  0  0  0  0  0  0  0  # atno 10167 bound_to 10162
  156.6053  130.8828  151.2924 H   0  0  0  0  0  0  0  0  0  0  0  0  # atno 10718 bound_to 10713
  154.8751  135.3831  154.4241 H   0  0  0  0  0  0  0  0  0  0  0  0  # atno 10763 bound_to 10752
  153.4942  135.7030  153.5872 H   0  0  0  0  0  0  0  0  0  0  0  0  # atno 10764 bound_to 10752
  153.4233  135.3896  155.2092 H   0  0  0  0  0  0  0  0  0  0  0  0  # atno 10765 bound_to 10752
  140.0568  134.5659  155.9199 H   0  0  0  0  0  0  0  0  0  0  0  0  # atno 11005 bound_to 11000
  145.9793  139.2928  143.1052 LP  0  0  0  0  0  0  0  0  0  0  0  0  # atno 17320 bound_to 7965
  145.9029  140.9231  143.0493 LP  0  0  0  0  0  0  0  0  0  0  0  0  # atno 17321 bound_to 7965
  140.1174  143.4643  152.2334 LP  0  0  0  0  0  0  0  0  0  0  0  0  # atno 17342 bound_to 10162
  139.5736  144.7476  151.3823 LP  0  0  0  0  0  0  0  0  0  0  0  0  # atno 17343 bound_to 10162
  157.7268  130.9635  150.1674 LP  0  0  0  0  0  0  0  0  0  0  0  0  # atno 17370 bound_to 10713
  156.2434  130.3693  149.8311 LP  0  0  0  0  0  0  0  0  0  0  0  0  # atno 17371 bound_to 10713
  141.1955  133.6587  156.5648 LP  0  0  0  0  0  0  0  0  0  0  0  0  # atno 17394 bound_to 11000
  140.3832  134.7505  157.4674 LP  0  0  0  0  0  0  0  0  0  0  0  0  # atno 17395 bound_to 11000

$$$$
