AV-unprocessed.smi:3350|AV-procd|sdf|12942|dock4
  -GOLD-   2272019373D 1   1.00000     0.00000
 Structure written by MMmdl.
 41 42  0  0  0  0  0  0  0  0  1 V2000
  144.9700  135.6264  151.4318 C   0  0  0  0  0  0  0  0  0  0  0  0
  145.6201  134.9710  152.6577 C   0  0  1  0  0  0  0  0  0  0  0  0
  146.0290  133.5126  152.3640 C   0  0  0  0  0  0  0  0  0  0  0  0
  145.2123  132.8987  151.3314 N   0  0  0  0  0  0  0  0  0  0  0  0
  145.6194  132.1314  150.2603 C   0  0  0  0  0  0  0  0  0  0  0  0
  144.4996  131.7841  149.5607 C   0  0  0  0  0  0  0  0  0  0  0  0
  143.4417  132.3929  150.2921 C   0  0  0  0  0  0  0  0  0  0  0  0
  143.8708  133.0567  151.3531 N   0  0  0  0  0  0  0  0  0  0  0  0
  146.7787  135.7663  153.0620 N   0  0  0  0  0  0  0  0  0  0  0  0
  146.9321  136.3773  154.2457 C   0  0  0  0  0  0  0  0  0  0  0  0
  146.0990  136.3501  155.1518 O   0  0  0  0  0  0  0  0  0  0  0  0
  148.1084  137.0154  154.3223 N   0  0  0  0  0  0  0  0  0  0  0  0
  148.5912  137.7719  155.4749 C   0  0  1  0  0  0  0  0  0  0  0  0
  148.9372  136.7794  156.5957 C   0  0  0  0  0  0  0  0  0  0  0  0
  149.8005  138.6385  155.0661 C   0  0  2  0  0  0  0  0  0  0  0  0
  150.9271  137.8751  154.3663 C   0  0  0  0  0  0  0  0  0  0  0  0
  152.1695  138.7014  154.6647 C   0  0  0  0  0  0  0  0  0  0  0  0
  151.7233  139.6588  155.7723 C   0  0  0  0  0  0  0  0  0  0  0  0
  150.4689  139.1553  156.2072 O   0  0  0  0  0  0  0  0  0  0  0  0
  144.0777  135.0814  151.1228 H   0  0  0  0  0  0  0  0  0  0  0  0
  145.6548  135.6507  150.5835 H   0  0  0  0  0  0  0  0  0  0  0  0
  144.6698  136.6524  151.6477 H   0  0  0  0  0  0  0  0  0  0  0  0
  144.8736  134.9692  153.4543 H   0  0  0  0  0  0  0  0  0  0  0  0
  147.0664  133.4770  152.0295 H   0  0  0  0  0  0  0  0  0  0  0  0
  145.9760  132.9088  153.2717 H   0  0  0  0  0  0  0  0  0  0  0  0
  146.6605  131.9038  150.0849 H   0  0  0  0  0  0  0  0  0  0  0  0
  144.4446  131.1876  148.6623 H   0  0  0  0  0  0  0  0  0  0  0  0
  142.3818  132.3708  150.0863 H   0  0  0  0  0  0  0  0  0  0  0  0
  147.5275  135.8467  152.3900 H   0  0  0  0  0  0  0  0  0  0  0  0
  148.7203  136.9752  153.5205 H   0  0  0  0  0  0  0  0  0  0  0  0
  147.7980  138.4243  155.8449 H   0  0  0  0  0  0  0  0  0  0  0  0
  149.2421  137.2970  157.5053 H   0  0  0  0  0  0  0  0  0  0  0  0
  149.7509  136.1156  156.3018 H   0  0  0  0  0  0  0  0  0  0  0  0
  148.0763  136.1596  156.8489 H   0  0  0  0  0  0  0  0  0  0  0  0
  149.4767  139.4739  154.4418 H   0  0  0  0  0  0  0  0  0  0  0  0
  151.0386  136.8823  154.8047 H   0  0  0  0  0  0  0  0  0  0  0  0
  150.7495  137.7519  153.2975 H   0  0  0  0  0  0  0  0  0  0  0  0
  152.9889  138.0614  154.9934 H   0  0  0  0  0  0  0  0  0  0  0  0
  152.5070  139.2548  153.7878 H   0  0  0  0  0  0  0  0  0  0  0  0
  152.4359  139.7098  156.5959 H   0  0  0  0  0  0  0  0  0  0  0  0
  151.5868  140.6664  155.3768 H   0  0  0  0  0  0  0  0  0  0  0  0
  1  2  1  0  0  0  0
  1 20  1  0  0  0  0
  1 21  1  0  0  0  0
  1 22  1  0  0  0  0
  2  3  1  0  0  0  0
  2  9  1  0  0  0  0
  2 23  1  0  0  0  0
  3  4  1  0  0  0  0
  3 24  1  0  0  0  0
  3 25  1  0  0  0  0
  4  8  1  0  0  0  0
  4  5  1  0  0  0  0
  5  6  2  0  0  0  0
  5 26  1  0  0  0  0
  6  7  1  0  0  0  0
  6 27  1  0  0  0  0
  7  8  2  0  0  0  0
  7 28  1  0  0  0  0
  9 10  1  0  0  0  0
  9 29  1  0  0  0  0
 10 11  2  0  0  0  0
 10 12  1  0  0  0  0
 12 13  1  0  0  0  0
 12 30  1  0  0  0  0
 13 14  1  0  0  0  0
 13 15  1  0  0  0  0
 13 31  1  0  0  0  0
 14 32  1  0  0  0  0
 14 33  1  0  0  0  0
 14 34  1  0  0  0  0
 15 19  1  0  0  0  0
 15 16  1  0  0  0  0
 15 35  1  0  0  0  0
 16 17  1  0  0  0  0
 16 36  1  0  0  0  0
 16 37  1  0  0  0  0
 17 18  1  0  0  0  0
 17 38  1  0  0  0  0
 17 39  1  0  0  0  0
 18 19  1  0  0  0  0
 18 40  1  0  0  0  0
 18 41  1  0  0  0  0
M  END
> <s_m_source_file>
AV-unprocessed.smi

> <i_m_source_file_index>
3350

> <i_lp_mmshare_version>
43012

> <i_f3d_flags>
0

> <s_epik_input>
bjFbY0hdW2NIXVtjSF1uMVtDSDJdW0NAQEhdKFtDSDNdKVtOSF1DKD1PKVtOSF1bQ0BIXShbQ0gzXSlbQ0BASF0yW0NIMl1bQ0gyXVtDSDJdTzI=

> <s_epik_cmdline>
J2VwaWtfcHl0aG9uJywgJy1waCcsICc3LjAnLCAnLXRuJywgJzgnLCAnLW1hJywgJzIwMCcsICctbWV0YWxfYmluZGluZycsICctaW1hZScsICc8aW5maWxlLm1hZT4nLCAnLW9tYWUnLCAnPG91dGZpbGUubWFlPic=

> <r_lp_tautomer_probability>
1

> <r_epik_Ionization_Penalty>
6.42349e-05

> <r_epik_Ionization_Penalty_Charging>
0

> <r_epik_Ionization_Penalty_Neutral>
6.42349e-05

> <r_epik_State_Penalty>
-0

> <r_epik_Charging_Adjusted_Penalty>
0

> <i_epik_Tot_Q>
0

> <i_epik_Tot_abs_Q>
0

> <r_epik_Metal_State_Penalty>
-0

> <b_epik_Metal_Only>
0

> <s_lp_Force_Field>
OPLS_2005

> <r_lp_Energy>
15.8996

> <b_lp_Chiralities_Consistent>
1

> <s_lp_Variant>
AV-unprocessed.smi:3350-4

> <Gold.Version>
5.8.1

> <Gold.Id.Protein>
6NUR|6NUR_protein|mol2

> <Gold.PLP.Fitness>
40.6266

> <Gold.PLP.PLP>
-28.5484

> <Gold.PLP.part.hbond>
-1.8931

> <Gold.PLP.part.metal>
0.0000

> <Gold.PLP.part.buried>
-2.6405

> <Gold.PLP.part.nonpolar>
-25.9276

> <Gold.PLP.part.repulsive>
0.2049

> <Gold.PLP.ligand.clash>
0.0000

> <Gold.PLP.ligand.torsion>
0.8662

> <Gold.PLP.Chemscore.Hbond>
1.8960

> <Gold.PLP.Chemscore.CHOScore>
2.6836

> <Gold.PLP.Chemscore.Metal>
0.0000

> <Gold.Chemscore.Hbonds>
donor molecule, donor type, donor heavy atom, donor atom, acceptor molecule, acceptor atom, score
      L1  H     9    29       P1  7948  1.00
      L1  H    12    30       P1  7948  0.91
      L1  C     5    26       P1 10747  0.98
      L1  C     7    28       P1 10186  0.89
      L1  C     7    28       P1 10952  0.83

> <Gold.PLP.Chemscore.Internal.Correction>
0.0718

> <Gold.Rescore>
     Score         DG    S(hbond)    S(metal)    S(lipo)     H(rot)  DE(clash)    DE(int)     intcor
     15.25     -15.91       1.91        0.00      74.56       1.82       0.10       0.56       ----

> <Gold.Chemscore.Fitness>
15.2550

> <Gold.Chemscore.DG>
-15.9149

> <Gold.Chemscore.ZeroCoef>
-5.4800

> <Gold.Chemscore.Hbond>
1.9071

> <Gold.Chemscore.Metal>
0.0000

> <Gold.Chemscore.Lipo>
74.5597

> <Gold.Chemscore.Internal_Hbond>
0.0000

> <Gold.Chemscore.DEClash>
0.1036

> <Gold.Chemscore.DEInternal>
0.5564

> <Gold.Chemscore.Rot>
1.8197

> <Gold.Chemscore.Internal.Correction>
   9.000000E+99

> <Gold.Chemscore.Hbonds>
donor molecule, donor type, donor heavy atom, donor atom, acceptor molecule, acceptor atom, score
      L1  H     9    29       P1  7948  0.94
      L1  H    12    30       P1  7948  0.88

> <Gold.Chemscore.Hbond.Weighted>
-6.3698

> <Gold.Chemscore.Metal.Weighted>
-0.0000

> <Gold.Chemscore.Lipo.Weighted>
-8.7235

> <Gold.Chemscore.Internal_Hbond.Weighted>
0.0000

> <Gold.Chemscore.DEClash.Weighted>
0.1036

> <Gold.Chemscore.DEInternal.Weighted>
0.5564

> <Gold.Chemscore.Rot.Weighted>
4.6583

> <Gold.Chemscore.Internal.Correction.Weighted>
   9.000000E+99

> <Gold.Protein.RotatedTorsions>
[ 6907 6896 6895 6894 ] final  -32.06 input  -60.11 | X-H torsion
[ 7974 7965 7964 7962 ] final -113.47 input  175.53 | X-H torsion
[ 8008 7997 7996 7995 ] final  167.55 input   59.86 | X-H torsion
[ 10167 10162 10161 10158 ] final   77.91 input  -65.29 | X-H torsion
[ 10718 10713 10712 10709 ] final  -43.44 input   66.30 | X-H torsion
[ 10763 10752 10751 10750 ] final   66.61 input  -60.55 | X-H torsion
[ 11005 11000 10999 10996 ] final  -94.98 input  -57.11 | X-H torsion

> <Gold.Protein.ActiveResidues>
 VAL166  LYS551  ARG553  GLY616  TRP617  ASP618  TYR619  PRO620  LYS621  CYS622 
 ASP623  PHE694  ASN695  SER759  ASP760  ASP761  ALA762  ILE779  LEU786  VAL792 
 PHE793  MET794  SER795  GLU796  ALA797  LYS798  CYS799  TRP800  GLU811  SER814 

> <Gold.Protein.RotatedAtoms>
  151.0838  134.9874  159.8368 H   0  0  0  0  0  0  0  0  0  0  0  0  # atno 6907 bound_to 6896
  152.5422  134.2149  159.8775 H   0  0  0  0  0  0  0  0  0  0  0  0  # atno 6908 bound_to 6896
  151.2181  133.4474  159.2633 H   0  0  0  0  0  0  0  0  0  0  0  0  # atno 6909 bound_to 6896
  145.1316  140.8727  143.3754 H   0  0  0  0  0  0  0  0  0  0  0  0  # atno 7974 bound_to 7965
  156.1624  140.1614  156.8589 H   0  0  0  0  0  0  0  0  0  0  0  0  # atno 8008 bound_to 7997
  154.5174  140.0786  156.8142 H   0  0  0  0  0  0  0  0  0  0  0  0  # atno 8009 bound_to 7997
  155.3680  140.3399  155.4244 H   0  0  0  0  0  0  0  0  0  0  0  0  # atno 8010 bound_to 7997
  139.9766  144.5857  150.7938 H   0  0  0  0  0  0  0  0  0  0  0  0  # atno 10167 bound_to 10162
  156.2490  130.4186  149.8672 H   0  0  0  0  0  0  0  0  0  0  0  0  # atno 10718 bound_to 10713
  153.0148  135.5314  154.6850 H   0  0  0  0  0  0  0  0  0  0  0  0  # atno 10763 bound_to 10752
  154.6000  135.2867  155.0547 H   0  0  0  0  0  0  0  0  0  0  0  0  # atno 10764 bound_to 10752
  154.1608  135.6548  153.5038 H   0  0  0  0  0  0  0  0  0  0  0  0  # atno 10765 bound_to 10752
  141.1455  133.7994  157.0373 H   0  0  0  0  0  0  0  0  0  0  0  0  # atno 11005 bound_to 11000
  145.0629  139.3091  143.5871 LP  0  0  0  0  0  0  0  0  0  0  0  0  # atno 17320 bound_to 7965
  146.3513  140.0077  142.8670 LP  0  0  0  0  0  0  0  0  0  0  0  0  # atno 17321 bound_to 7965
  140.7504  143.2954  151.3218 LP  0  0  0  0  0  0  0  0  0  0  0  0  # atno 17342 bound_to 10162
  139.6441  144.0484  152.2577 LP  0  0  0  0  0  0  0  0  0  0  0  0  # atno 17343 bound_to 10162
  156.6227  130.8633  151.3479 LP  0  0  0  0  0  0  0  0  0  0  0  0  # atno 17370 bound_to 10713
  157.7207  130.9554  150.1426 LP  0  0  0  0  0  0  0  0  0  0  0  0  # atno 17371 bound_to 10713
  140.0715  134.9699  157.1475 LP  0  0  0  0  0  0  0  0  0  0  0  0  # atno 17394 bound_to 11000
  140.3704  134.2397  155.7178 LP  0  0  0  0  0  0  0  0  0  0  0  0  # atno 17395 bound_to 11000

$$$$
