AV-unprocessed.smi:1845|AV-procd|sdf|7513|dock2
  -GOLD-   22720 9223D 1   1.00000     0.00000
 Structure written by MMmdl.
 44 45  0  0  0  0  0  0  0  0  2 V2000
  148.0755  136.3404  160.0583 C   0  0  0  0  0  0  0  0  0  0  0  0
  149.4757  136.7418  158.9272 S   0  0  0  0  0  0  0  0  0  0  0  0
  148.9736  137.8269  158.0707 O   0  0  0  0  0  0  0  0  0  0  0  0
  150.6257  137.0595  159.7905 O   0  0  0  0  0  0  0  0  0  0  0  0
  149.6487  135.3633  158.0802 N   0  5  0  0  0  0  0  0  0  0  0  0
  148.7612  135.0328  156.9731 C   0  0  0  0  0  0  0  0  0  0  0  0
  149.5785  134.9092  155.6686 C   0  0  0  0  0  0  0  0  0  0  0  0
  150.5985  136.0413  155.4723 C   0  0  0  0  0  0  0  0  0  0  0  0
  151.5559  136.1646  156.2398 O   0  0  0  0  0  0  0  0  0  0  0  0
  150.4039  136.8413  154.4100 N   0  0  0  0  0  0  0  0  0  0  0  0
  151.2355  137.9834  154.0410 C   0  0  0  0  0  0  0  0  0  0  0  0
  151.3058  139.0862  155.0887 C   0  0  0  0  0  0  0  0  0  0  0  0
  150.3877  140.1573  155.1323 C   0  0  0  0  0  0  0  0  0  0  0  0
  150.5307  141.1419  156.1290 C   0  0  0  0  0  0  0  0  0  0  0  0
  151.5899  141.0345  157.0617 C   0  0  0  0  0  0  0  0  0  0  0  0
  151.7514  142.0067  158.0739 N   0  0  0  0  0  0  0  0  0  0  0  0
  152.7968  141.7344  159.0578 C   0  0  0  0  0  0  0  0  0  0  0  0
  152.6670  142.6886  160.2577 C   0  0  0  0  0  0  0  0  0  0  0  0
  152.6736  144.0380  159.8046 O   0  0  0  0  0  0  0  0  0  0  0  0
  151.5773  144.3092  158.9381 C   0  0  0  0  0  0  0  0  0  0  0  0
  151.6703  143.4155  157.6899 C   0  0  0  0  0  0  0  0  0  0  0  0
  152.4777  140.0109  157.0069 N   0  0  0  0  0  0  0  0  0  0  0  0
  152.3367  139.0713  156.0489 C   0  0  0  0  0  0  0  0  0  0  0  0
  147.8052  137.2325  160.6220 H   0  0  0  0  0  0  0  0  0  0  0  0
  148.3695  135.5549  160.7537 H   0  0  0  0  0  0  0  0  0  0  0  0
  147.2174  136.0103  159.4735 H   0  0  0  0  0  0  0  0  0  0  0  0
  148.2315  134.0943  157.1398 H   0  0  0  0  0  0  0  0  0  0  0  0
  147.9854  135.7891  156.8498 H   0  0  0  0  0  0  0  0  0  0  0  0
  150.1185  133.9613  155.6591 H   0  0  0  0  0  0  0  0  0  0  0  0
  148.9042  134.8836  154.8106 H   0  0  0  0  0  0  0  0  0  0  0  0
  149.6003  136.6588  153.8265 H   0  0  0  0  0  0  0  0  0  0  0  0
  152.2429  137.6061  153.8625 H   0  0  0  0  0  0  0  0  0  0  0  0
  150.9045  138.4185  153.0967 H   0  0  0  0  0  0  0  0  0  0  0  0
  149.5856  140.2395  154.4144 H   0  0  0  0  0  0  0  0  0  0  0  0
  149.8392  141.9707  156.1535 H   0  0  0  0  0  0  0  0  0  0  0  0
  152.7570  140.7081  159.4192 H   0  0  0  0  0  0  0  0  0  0  0  0
  153.7693  141.8651  158.5815 H   0  0  0  0  0  0  0  0  0  0  0  0
  151.7528  142.4860  160.8180 H   0  0  0  0  0  0  0  0  0  0  0  0
  153.4999  142.5418  160.9454 H   0  0  0  0  0  0  0  0  0  0  0  0
  150.6349  144.1472  159.4638 H   0  0  0  0  0  0  0  0  0  0  0  0
  151.6040  145.3601  158.6495 H   0  0  0  0  0  0  0  0  0  0  0  0
  152.5521  143.6815  157.1055 H   0  0  0  0  0  0  0  0  0  0  0  0
  150.7963  143.5867  157.0601 H   0  0  0  0  0  0  0  0  0  0  0  0
  153.0723  138.2805  156.0516 H   0  0  0  0  0  0  0  0  0  0  0  0
  1  2  1  0  0  0  0
  1 24  1  0  0  0  0
  1 25  1  0  0  0  0
  1 26  1  0  0  0  0
  2  3  2  0  0  0  0
  2  4  2  0  0  0  0
  2  5  1  0  0  0  0
  5  6  1  0  0  0  0
  6  7  1  0  0  0  0
  6 27  1  0  0  0  0
  6 28  1  0  0  0  0
  7  8  1  0  0  0  0
  7 29  1  0  0  0  0
  7 30  1  0  0  0  0
  8  9  2  0  0  0  0
  8 10  1  0  0  0  0
 10 11  1  0  0  0  0
 10 31  1  0  0  0  0
 11 12  1  0  0  0  0
 11 32  1  0  0  0  0
 11 33  1  0  0  0  0
 12 23  1  0  0  0  0
 12 13  2  0  0  0  0
 13 14  1  0  0  0  0
 13 34  1  0  0  0  0
 14 15  2  0  0  0  0
 14 35  1  0  0  0  0
 15 16  1  0  0  0  0
 15 22  1  0  0  0  0
 16 21  1  0  0  0  0
 16 17  1  0  0  0  0
 17 18  1  0  0  0  0
 17 36  1  0  0  0  0
 17 37  1  0  0  0  0
 18 19  1  0  0  0  0
 18 38  1  0  0  0  0
 18 39  1  0  0  0  0
 19 20  1  0  0  0  0
 20 21  1  0  0  0  0
 20 40  1  0  0  0  0
 20 41  1  0  0  0  0
 21 42  1  0  0  0  0
 21 43  1  0  0  0  0
 22 23  2  0  0  0  0
 23 44  1  0  0  0  0
M  CHG  1   5  -1
M  END
> <s_m_source_file>
AV-unprocessed.smi

> <i_m_source_file_index>
1845

> <i_lp_mmshare_version>
43012

> <i_f3d_flags>
0

> <s_epik_input>
W0NIM11TKD1PKSg9TylbTkhdW0NIMl1bQ0gyXUMoPU8pW05IXVtDSDJdYzFbY0hdW2NIXWMobltjSF0xKU4yW0NIMl1bQ0gyXU9bQ0gyXVtDSDJdMg==

> <s_epik_cmdline>
J2VwaWtfcHl0aG9uJywgJy1waCcsICc3LjAnLCAnLXRuJywgJzgnLCAnLW1hJywgJzIwMCcsICctbWV0YWxfYmluZGluZycsICctaW1hZScsICc8aW5maWxlLm1hZT4nLCAnLW9tYWUnLCAnPG91dGZpbGUubWFlPic=

> <r_lp_tautomer_probability>
1

> <r_epik_Ionization_Penalty>
6.31253

> <r_epik_Ionization_Penalty_Charging>
6.30704

> <r_epik_Ionization_Penalty_Neutral>
0.00548995

> <r_epik_State_Penalty>
6.31049

> <r_epik_Charging_Adjusted_Penalty>
12.6175

> <i_epik_Tot_Q>
-1

> <i_epik_Tot_abs_Q>
1

> <r_epik_Metal_State_Penalty>
2.24651

> <b_epik_Metal_Only>
1

> <s_lp_Force_Field>
OPLS_2005

> <r_lp_Energy>
11.4109

> <b_lp_Chiralities_Consistent>
1

> <s_lp_Variant>
AV-unprocessed.smi:1845-2

> <Gold.Version>
5.8.1

> <Gold.Id.Protein>
6NUR|6NUR_protein|mol2

> <Gold.PLP.Fitness>
53.3055

> <Gold.PLP.PLP>
-41.5150

> <Gold.PLP.part.hbond>
-5.7890

> <Gold.PLP.part.metal>
0.0000

> <Gold.PLP.part.buried>
-4.3267

> <Gold.PLP.part.nonpolar>
-32.1040

> <Gold.PLP.part.repulsive>
0.1058

> <Gold.PLP.ligand.clash>
0.0000

> <Gold.PLP.ligand.torsion>
1.1264

> <Gold.PLP.Chemscore.Hbond>
4.2158

> <Gold.PLP.Chemscore.CHOScore>
0.0000

> <Gold.PLP.Chemscore.Metal>
0.0000

> <Gold.Chemscore.Hbonds>
donor molecule, donor type, donor heavy atom, donor atom, acceptor molecule, acceptor atom, score
      L1  H    10    31       P1  7948  0.76
      P1  H  6896  6908       L1     5  0.63
      P1  H  6896  6909       L1     4  0.61
      P1  H  7997  8009       L1    22  0.64
      P1  H 10752 10764       L1     9  0.84

> <Gold.PLP.Chemscore.Internal.Correction>
1.3959

> <Gold.Rescore>
     Score         DG    S(hbond)    S(metal)    S(lipo)     H(rot)  DE(clash)    DE(int)     intcor
     15.64     -20.10       3.01        0.00      93.01       2.46       0.95       3.51       ----

> <Gold.Chemscore.Fitness>
15.6363

> <Gold.Chemscore.DG>
-20.0966

> <Gold.Chemscore.ZeroCoef>
-5.4800

> <Gold.Chemscore.Hbond>
3.0054

> <Gold.Chemscore.Metal>
0.0000

> <Gold.Chemscore.Lipo>
93.0124

> <Gold.Chemscore.Internal_Hbond>
0.0000

> <Gold.Chemscore.DEClash>
0.9498

> <Gold.Chemscore.DEInternal>
3.5105

> <Gold.Chemscore.Rot>
2.4625

> <Gold.Chemscore.Internal.Correction>
   9.000000E+99

> <Gold.Chemscore.Hbonds>
donor molecule, donor type, donor heavy atom, donor atom, acceptor molecule, acceptor atom, score
      L1  H    10    31       P1  7948  0.53
      P1  H  6896  6908       L1     5  0.23
      P1  H  6896  6909       L1     4  0.24
      P1  H  7997  8009       L1    22  0.06
      P1  H 10752 10764       L1     9  0.25

> <Gold.Chemscore.Hbond.Weighted>
-10.0382

> <Gold.Chemscore.Metal.Weighted>
-0.0000

> <Gold.Chemscore.Lipo.Weighted>
-10.8824

> <Gold.Chemscore.Internal_Hbond.Weighted>
0.0000

> <Gold.Chemscore.DEClash.Weighted>
0.9498

> <Gold.Chemscore.DEInternal.Weighted>
3.5105

> <Gold.Chemscore.Rot.Weighted>
6.3040

> <Gold.Chemscore.Internal.Correction.Weighted>
   9.000000E+99

> <Gold.Protein.RotatedTorsions>
[ 6907 6896 6895 6894 ] final  125.04 input  -60.11 | X-H torsion
[ 7974 7965 7964 7962 ] final -142.23 input  175.53 | X-H torsion
[ 8008 7997 7996 7995 ] final  164.49 input   59.86 | X-H torsion
[ 10167 10162 10161 10158 ] final   73.92 input  -65.29 | X-H torsion
[ 10718 10713 10712 10709 ] final   52.74 input   66.30 | X-H torsion
[ 10763 10752 10751 10750 ] final  -30.42 input  -60.55 | X-H torsion
[ 11005 11000 10999 10996 ] final  101.60 input  -57.11 | X-H torsion

> <Gold.Protein.ActiveResidues>
 VAL166  LYS551  ARG553  GLY616  TRP617  ASP618  TYR619  PRO620  LYS621  CYS622 
 ASP623  PHE694  ASN695  SER759  ASP760  ASP761  ALA762  ILE779  LEU786  VAL792 
 PHE793  MET794  SER795  GLU796  ALA797  LYS798  CYS799  TRP800  GLU811  SER814 

> <Gold.Protein.RotatedAtoms>
  152.4026  133.6841  159.6328 H   0  0  0  0  0  0  0  0  0  0  0  0  # atno 6907 bound_to 6896
  150.7915  133.8765  159.3282 H   0  0  0  0  0  0  0  0  0  0  0  0  # atno 6908 bound_to 6896
  151.6526  135.1001  160.0215 H   0  0  0  0  0  0  0  0  0  0  0  0  # atno 6909 bound_to 6896
  144.8459  140.5983  143.5422 H   0  0  0  0  0  0  0  0  0  0  0  0  # atno 7974 bound_to 7965
  156.1876  140.1695  156.8155 H   0  0  0  0  0  0  0  0  0  0  0  0  # atno 8008 bound_to 7997
  154.5432  140.0732  156.8577 H   0  0  0  0  0  0  0  0  0  0  0  0  # atno 8009 bound_to 7997
  155.3173  140.3371  155.4244 H   0  0  0  0  0  0  0  0  0  0  0  0  # atno 8010 bound_to 7997
  140.0193  144.5553  150.7595 H   0  0  0  0  0  0  0  0  0  0  0  0  # atno 10167 bound_to 10162
  157.5103  130.8496  149.8427 H   0  0  0  0  0  0  0  0  0  0  0  0  # atno 10718 bound_to 10713
  153.7808  135.6905  153.4889 H   0  0  0  0  0  0  0  0  0  0  0  0  # atno 10763 bound_to 10752
  153.1813  135.4505  155.0030 H   0  0  0  0  0  0  0  0  0  0  0  0  # atno 10764 bound_to 10752
  154.8082  135.3366  154.7311 H   0  0  0  0  0  0  0  0  0  0  0  0  # atno 10765 bound_to 10752
  139.8774  134.9190  156.4931 H   0  0  0  0  0  0  0  0  0  0  0  0  # atno 11005 bound_to 11000
  145.4598  139.1514  143.3872 LP  0  0  0  0  0  0  0  0  0  0  0  0  # atno 17320 bound_to 7965
  146.2743  140.4728  142.8801 LP  0  0  0  0  0  0  0  0  0  0  0  0  # atno 17321 bound_to 7965
  140.7349  143.2734  151.3816 LP  0  0  0  0  0  0  0  0  0  0  0  0  # atno 17342 bound_to 10162
  139.6151  144.1020  152.2337 LP  0  0  0  0  0  0  0  0  0  0  0  0  # atno 17343 bound_to 10162
  156.0285  130.3772  150.1755 LP  0  0  0  0  0  0  0  0  0  0  0  0  # atno 17370 bound_to 10713
  156.9945  130.9903  151.3406 LP  0  0  0  0  0  0  0  0  0  0  0  0  # atno 17371 bound_to 10713
  140.8644  133.8035  155.9298 LP  0  0  0  0  0  0  0  0  0  0  0  0  # atno 17394 bound_to 11000
  140.9017  134.2370  157.5038 LP  0  0  0  0  0  0  0  0  0  0  0  0  # atno 17395 bound_to 11000

$$$$
