AV-unprocessed.smi:1592|AV-procd|sdf|6405|dock2
  -GOLD-   22720 7 43D 1   1.00000     0.00000
 Structure written by MMmdl.
 26 27  0  0  0  0  0  0  0  0  2 V2000
  149.4992  142.1903  157.6857 O   0  0  0  0  0  0  0  0  0  0  0  0
  150.3940  141.5515  157.1244 C   0  0  0  0  0  0  0  0  0  0  0  0
  151.5130  140.9307  157.6739 N   0  0  0  0  0  0  0  0  0  0  0  0
  152.0977  141.3328  158.7697 C   0  0  0  0  0  0  0  0  0  0  0  0
  151.6659  142.4457  159.5121 N   0  0  0  0  0  0  0  0  0  0  0  0
  152.2927  142.8708  160.6642 C   0  0  0  0  0  0  0  0  0  0  0  0
  153.3609  142.2378  161.1513 C   0  0  0  0  0  0  0  0  0  0  0  0
  153.8678  141.0777  160.4477 C   0  0  0  0  0  0  0  0  0  0  0  0
  153.2747  140.6015  159.2726 C   0  0  0  0  0  0  0  0  0  0  0  0
  153.7486  139.5954  158.6955 O   0  5  0  0  0  0  0  0  0  0  0  0
  150.3341  141.3555  155.5996 C   0  0  2  0  0  0  0  0  0  0  0  0
  149.0213  140.6989  155.1270 C   0  0  0  0  0  0  0  0  0  0  0  0
  149.4686  139.4433  154.3989 C   0  0  0  0  0  0  0  0  0  0  0  0
  150.8318  139.1663  155.0144 C   0  0  0  0  0  0  0  0  0  0  0  0
  151.3720  140.4688  155.1768 O   0  0  0  0  0  0  0  0  0  0  0  0
  151.8524  143.7423  161.1257 H   0  0  0  0  0  0  0  0  0  0  0  0
  153.8407  142.5845  162.0545 H   0  0  0  0  0  0  0  0  0  0  0  0
  154.7332  140.5726  160.8521 H   0  0  0  0  0  0  0  0  0  0  0  0
  150.8652  142.9834  159.2151 H   0  0  0  0  0  0  0  0  0  0  0  0
  150.4874  142.3180  155.1093 H   0  0  0  0  0  0  0  0  0  0  0  0
  148.3768  140.4300  155.9657 H   0  0  0  0  0  0  0  0  0  0  0  0
  148.4471  141.3570  154.4743 H   0  0  0  0  0  0  0  0  0  0  0  0
  148.7730  138.6117  154.5131 H   0  0  0  0  0  0  0  0  0  0  0  0
  149.5797  139.6517  153.3342 H   0  0  0  0  0  0  0  0  0  0  0  0
  150.7315  138.6811  155.9864 H   0  0  0  0  0  0  0  0  0  0  0  0
  151.4632  138.5437  154.3803 H   0  0  0  0  0  0  0  0  0  0  0  0
  1  2  2  0  0  0  0
  2  3  1  0  0  0  0
  2 11  1  0  0  0  0
  3  4  2  0  0  0  0
  4  9  1  0  0  0  0
  4  5  1  0  0  0  0
  5 19  1  0  0  0  0
  5  6  1  0  0  0  0
  6 16  1  0  0  0  0
  6  7  2  0  0  0  0
  7 17  1  0  0  0  0
  7  8  1  0  0  0  0
  8  9  2  0  0  0  0
  8 18  1  0  0  0  0
  9 10  1  0  0  0  0
 11 15  1  0  0  0  0
 11 12  1  0  0  0  0
 11 20  1  0  0  0  0
 12 13  1  0  0  0  0
 12 21  1  0  0  0  0
 12 22  1  0  0  0  0
 13 14  1  0  0  0  0
 13 23  1  0  0  0  0
 13 24  1  0  0  0  0
 14 15  1  0  0  0  0
 14 25  1  0  0  0  0
 14 26  1  0  0  0  0
M  CHG  1  10  -1
M  END
> <s_m_source_file>
AV-unprocessed.smi

> <i_m_source_file_index>
1592

> <i_lp_mmshare_version>
43012

> <i_f3d_flags>
0

> <s_epik_input>
TzFbQ0gyXVtDSDJdW0NIMl1bQ0BIXTFDKD1PKVtOSF1jMm5bY0hdW2NIXVtjSF1jMltPSF0=

> <s_epik_cmdline>
J2VwaWtfcHl0aG9uJywgJy1waCcsICc3LjAnLCAnLXRuJywgJzgnLCAnLW1hJywgJzIwMCcsICctbWV0YWxfYmluZGluZycsICctaW1hZScsICc8aW5maWxlLm1hZT4nLCAnLW9tYWUnLCAnPG91dGZpbGUubWFlPic=

> <r_epik_Ionization_Penalty>
0.780127

> <r_epik_Ionization_Penalty_Charging>
0.780127

> <r_epik_Ionization_Penalty_Neutral>
6.55423e-13

> <r_epik_State_Penalty>
1.4426

> <r_epik_Charging_Adjusted_Penalty>
2.22273

> <i_epik_Tot_Q>
-1

> <i_epik_Tot_abs_Q>
1

> <r_epik_Metal_State_Penalty>
1.40439

> <b_epik_Metal_Only>
0

> <s_lp_Force_Field>
OPLS_2005

> <r_lp_Energy>
49.557

> <b_lp_Chiralities_Consistent>
1

> <s_lp_Variant>
AV-unprocessed.smi:1592-5

> <Gold.Version>
5.8.1

> <Gold.Id.Protein>
6NUR|6NUR_protein|mol2

> <Gold.PLP.Fitness>
38.2836

> <Gold.PLP.PLP>
-29.9256

> <Gold.PLP.part.hbond>
-2.0000

> <Gold.PLP.part.metal>
0.0000

> <Gold.PLP.part.buried>
-3.7675

> <Gold.PLP.part.nonpolar>
-23.9904

> <Gold.PLP.part.repulsive>
0.2736

> <Gold.PLP.ligand.clash>
0.0000

> <Gold.PLP.ligand.torsion>
0.2166

> <Gold.PLP.Chemscore.Hbond>
2.9280

> <Gold.PLP.Chemscore.CHOScore>
0.0000

> <Gold.PLP.Chemscore.Metal>
0.0000

> <Gold.Chemscore.Hbonds>
donor molecule, donor type, donor heavy atom, donor atom, acceptor molecule, acceptor atom, score
      P1  H  7989  7998       L1    15  0.93
      P1  H  7997  8009       L1    10  2.00

> <Gold.PLP.Chemscore.Internal.Correction>
0.0072

> <Gold.Rescore>
     Score         DG    S(hbond)    S(metal)    S(lipo)     H(rot)  DE(clash)    DE(int)     intcor
     15.42     -15.56       1.59        0.00      62.69       1.00       0.01       0.14       ----

> <Gold.Chemscore.Fitness>
15.4166

> <Gold.Chemscore.DG>
-15.5616

> <Gold.Chemscore.ZeroCoef>
-5.4800

> <Gold.Chemscore.Hbond>
1.5890

> <Gold.Chemscore.Metal>
0.0000

> <Gold.Chemscore.Lipo>
62.6857

> <Gold.Chemscore.Internal_Hbond>
0.0000

> <Gold.Chemscore.DEClash>
0.0086

> <Gold.Chemscore.DEInternal>
0.1364

> <Gold.Chemscore.Rot>
1.0000

> <Gold.Chemscore.Internal.Correction>
   9.000000E+99

> <Gold.Chemscore.Hbonds>
donor molecule, donor type, donor heavy atom, donor atom, acceptor molecule, acceptor atom, score
      P1  H  7989  7998       L1    15  0.11
      P1  H  7997  8009       L1    10  0.81

> <Gold.Chemscore.Hbond.Weighted>
-5.3074

> <Gold.Chemscore.Metal.Weighted>
-0.0000

> <Gold.Chemscore.Lipo.Weighted>
-7.3342

> <Gold.Chemscore.Internal_Hbond.Weighted>
0.0000

> <Gold.Chemscore.DEClash.Weighted>
0.0086

> <Gold.Chemscore.DEInternal.Weighted>
0.1364

> <Gold.Chemscore.Rot.Weighted>
2.5600

> <Gold.Chemscore.Internal.Correction.Weighted>
   9.000000E+99

> <Gold.Protein.RotatedTorsions>
[ 6907 6896 6895 6894 ] final  100.52 input  -60.11 | X-H torsion
[ 7974 7965 7964 7962 ] final   -9.36 input  175.53 | X-H torsion
[ 8008 7997 7996 7995 ] final  152.11 input   59.86 | X-H torsion
[ 10167 10162 10161 10158 ] final -166.00 input  -65.29 | X-H torsion
[ 10718 10713 10712 10709 ] final  173.26 input   66.30 | X-H torsion
[ 10763 10752 10751 10750 ] final  173.32 input  -60.55 | X-H torsion
[ 11005 11000 10999 10996 ] final  -76.56 input  -57.11 | X-H torsion

> <Gold.Protein.ActiveResidues>
 VAL166  LYS551  ARG553  GLY616  TRP617  ASP618  TYR619  PRO620  LYS621  CYS622 
 ASP623  PHE694  ASN695  SER759  ASP760  ASP761  ALA762  ILE779  LEU786  VAL792 
 PHE793  MET794  SER795  GLU796  ALA797  LYS798  CYS799  TRP800  GLU811  SER814 

> <Gold.Protein.RotatedAtoms>
  152.5370  134.0264  159.8004 H   0  0  0  0  0  0  0  0  0  0  0  0  # atno 6907 bound_to 6896
  151.0442  133.5672  159.2655 H   0  0  0  0  0  0  0  0  0  0  0  0  # atno 6908 bound_to 6896
  151.2630  135.0668  159.9159 H   0  0  0  0  0  0  0  0  0  0  0  0  # atno 6909 bound_to 6896
  146.2254  140.2604  142.8351 H   0  0  0  0  0  0  0  0  0  0  0  0  # atno 7974 bound_to 7965
  156.2644  140.2029  156.6282 H   0  0  0  0  0  0  0  0  0  0  0  0  # atno 8008 bound_to 7997
  154.6703  140.0551  157.0183 H   0  0  0  0  0  0  0  0  0  0  0  0  # atno 8009 bound_to 7997
  155.1146  140.3219  155.4515 H   0  0  0  0  0  0  0  0  0  0  0  0  # atno 8010 bound_to 7997
  139.6144  144.0749  152.1874 H   0  0  0  0  0  0  0  0  0  0  0  0  # atno 10167 bound_to 10162
  156.9669  131.0078  151.2914 H   0  0  0  0  0  0  0  0  0  0  0  0  # atno 10718 bound_to 10713
  154.4384  135.2761  155.1864 H   0  0  0  0  0  0  0  0  0  0  0  0  # atno 10763 bound_to 10752
  154.3741  135.6102  153.5759 H   0  0  0  0  0  0  0  0  0  0  0  0  # atno 10764 bound_to 10752
  152.9839  135.5864  154.4708 H   0  0  0  0  0  0  0  0  0  0  0  0  # atno 10765 bound_to 10752
  141.1654  133.6988  156.7687 H   0  0  0  0  0  0  0  0  0  0  0  0  # atno 11005 bound_to 11000
  144.9344  140.8010  143.5669 LP  0  0  0  0  0  0  0  0  0  0  0  0  # atno 17320 bound_to 7965
  145.2550  139.2015  143.4922 LP  0  0  0  0  0  0  0  0  0  0  0  0  # atno 17321 bound_to 7965
  140.0376  144.6033  150.7437 LP  0  0  0  0  0  0  0  0  0  0  0  0  # atno 17342 bound_to 10162
  140.7341  143.2725  151.3844 LP  0  0  0  0  0  0  0  0  0  0  0  0  # atno 17343 bound_to 10162
  157.5619  130.8252  149.8277 LP  0  0  0  0  0  0  0  0  0  0  0  0  # atno 17370 bound_to 10713
  156.0299  130.3768  150.1718 LP  0  0  0  0  0  0  0  0  0  0  0  0  # atno 17371 bound_to 10713
  140.2480  134.8562  157.3639 LP  0  0  0  0  0  0  0  0  0  0  0  0  # atno 17394 bound_to 11000
  140.1730  134.4584  155.7819 LP  0  0  0  0  0  0  0  0  0  0  0  0  # atno 17395 bound_to 11000

$$$$
