AV-unprocessed.smi:1001|AV-procd|sdf|4357|dock7
  -GOLD-   22720 2253D 1   1.00000     0.00000
 Structure written by MMmdl.
 47 48  0  0  0  0  0  0  0  0  1 V2000
  149.0047  130.9830  160.1252 N   0  0  0  0  0  0  0  0  0  0  0  0
  148.9267  132.0146  159.2755 C   0  0  0  0  0  0  0  0  0  0  0  0
  149.1737  131.8851  158.0772 O   0  0  0  0  0  0  0  0  0  0  0  0
  148.5253  133.3196  159.8703 C   0  0  0  0  0  0  0  0  0  0  0  0
  148.0583  133.3100  161.2464 C   0  0  0  0  0  0  0  0  0  0  0  0
  147.6859  134.4819  161.8059 C   0  0  0  0  0  0  0  0  0  0  0  0
  147.7423  135.7449  161.0683 C   0  0  0  0  0  0  0  0  0  0  0  0
  147.4067  136.8245  161.5548 O   0  0  0  0  0  0  0  0  0  0  0  0
  148.2037  135.6186  159.7864 N   0  0  0  0  0  0  0  0  0  0  0  0
  148.3426  136.7913  158.9106 C   0  0  0  0  0  0  0  0  0  0  0  0
  149.8014  137.0973  158.5406 C   0  0  0  0  0  0  0  0  0  0  0  0
  150.6437  136.1989  158.5117 O   0  0  0  0  0  0  0  0  0  0  0  0
  150.0811  138.3756  158.2449 N   0  0  0  0  0  0  0  0  0  0  0  0
  151.4034  138.8826  157.8976 C   0  0  0  0  0  0  0  0  0  0  0  0
  152.2481  139.1495  159.1544 C   0  0  0  0  0  0  0  0  0  0  0  0
  152.9558  140.5142  159.1108 C   0  0  0  0  0  0  0  0  0  0  0  0
  152.0046  141.7182  159.2728 C   0  0  0  0  0  0  0  0  0  0  0  0
  151.2373  142.0476  157.9729 C   0  0  0  0  0  0  0  0  0  0  0  0
  150.3046  143.2566  158.1529 C   0  0  0  0  0  0  0  0  0  0  0  0
  151.0755  144.4886  158.6489 C   0  0  0  0  0  0  0  0  0  0  0  0
  151.8422  144.1747  159.9422 C   0  0  0  0  0  0  0  0  0  0  0  0
  152.7729  142.9647  159.7591 C   0  0  0  0  0  0  0  0  0  0  0  0
  148.5842  134.4233  159.1975 N   0  0  0  0  0  0  0  0  0  0  0  0
  149.2692  130.0702  159.7841 H   0  0  0  0  0  0  0  0  0  0  0  0
  148.7961  131.1214  161.1035 H   0  0  0  0  0  0  0  0  0  0  0  0
  148.0075  132.3926  161.8145 H   0  0  0  0  0  0  0  0  0  0  0  0
  147.3374  134.4896  162.8281 H   0  0  0  0  0  0  0  0  0  0  0  0
  147.7841  136.6406  157.9852 H   0  0  0  0  0  0  0  0  0  0  0  0
  147.8912  137.6644  159.3860 H   0  0  0  0  0  0  0  0  0  0  0  0
  149.3296  139.0490  158.2850 H   0  0  0  0  0  0  0  0  0  0  0  0
  151.9118  138.1813  157.2338 H   0  0  0  0  0  0  0  0  0  0  0  0
  151.2750  139.8065  157.3330 H   0  0  0  0  0  0  0  0  0  0  0  0
  151.6038  139.0908  160.0314 H   0  0  0  0  0  0  0  0  0  0  0  0
  152.9949  138.3624  159.2665 H   0  0  0  0  0  0  0  0  0  0  0  0
  153.6934  140.5394  159.9141 H   0  0  0  0  0  0  0  0  0  0  0  0
  153.5193  140.6096  158.1818 H   0  0  0  0  0  0  0  0  0  0  0  0
  151.2741  141.4647  160.0425 H   0  0  0  0  0  0  0  0  0  0  0  0
  151.9450  142.2516  157.1683 H   0  0  0  0  0  0  0  0  0  0  0  0
  150.6435  141.1927  157.6509 H   0  0  0  0  0  0  0  0  0  0  0  0
  149.8068  143.4848  157.2102 H   0  0  0  0  0  0  0  0  0  0  0  0
  149.5170  143.0065  158.8651 H   0  0  0  0  0  0  0  0  0  0  0  0
  151.7747  144.8170  157.8791 H   0  0  0  0  0  0  0  0  0  0  0  0
  150.3861  145.3169  158.8156 H   0  0  0  0  0  0  0  0  0  0  0  0
  152.4211  145.0455  160.2507 H   0  0  0  0  0  0  0  0  0  0  0  0
  151.1344  143.9726  160.7471 H   0  0  0  0  0  0  0  0  0  0  0  0
  153.2732  142.7502  160.7040 H   0  0  0  0  0  0  0  0  0  0  0  0
  153.5584  143.2154  159.0447 H   0  0  0  0  0  0  0  0  0  0  0  0
  1  2  1  0  0  0  0
  1 24  1  0  0  0  0
  1 25  1  0  0  0  0
  2  3  2  0  0  0  0
  2  4  1  0  0  0  0
  4 23  2  0  0  0  0
  4  5  1  0  0  0  0
  5  6  2  0  0  0  0
  5 26  1  0  0  0  0
  6  7  1  0  0  0  0
  6 27  1  0  0  0  0
  7  8  2  0  0  0  0
  7  9  1  0  0  0  0
  9 10  1  0  0  0  0
  9 23  1  0  0  0  0
 10 11  1  0  0  0  0
 10 28  1  0  0  0  0
 10 29  1  0  0  0  0
 11 12  2  0  0  0  0
 11 13  1  0  0  0  0
 13 14  1  0  0  0  0
 13 30  1  0  0  0  0
 14 15  1  0  0  0  0
 14 31  1  0  0  0  0
 14 32  1  0  0  0  0
 15 16  1  0  0  0  0
 15 33  1  0  0  0  0
 15 34  1  0  0  0  0
 16 17  1  0  0  0  0
 16 35  1  0  0  0  0
 16 36  1  0  0  0  0
 17 22  1  0  0  0  0
 17 18  1  0  0  0  0
 17 37  1  0  0  0  0
 18 19  1  0  0  0  0
 18 38  1  0  0  0  0
 18 39  1  0  0  0  0
 19 20  1  0  0  0  0
 19 40  1  0  0  0  0
 19 41  1  0  0  0  0
 20 21  1  0  0  0  0
 20 42  1  0  0  0  0
 20 43  1  0  0  0  0
 21 22  1  0  0  0  0
 21 44  1  0  0  0  0
 21 45  1  0  0  0  0
 22 46  1  0  0  0  0
 22 47  1  0  0  0  0
M  END
> <s_m_source_file>
AV-unprocessed.smi

> <i_m_source_file_index>
1001

> <i_lp_mmshare_version>
43012

> <i_f3d_flags>
0

> <s_epik_input>
W05IMl1DKD1PKWMxW2NIXVtjSF1jKD1PKW4objEpW0NIMl1DKD1PKVtOSF1bQ0gyXVtDSDJdW0NIMl1bQ0hdMltDSDJdW0NIMl1bQ0gyXVtDSDJdW0NIMl0y

> <s_epik_cmdline>
J2VwaWtfcHl0aG9uJywgJy1waCcsICc3LjAnLCAnLXRuJywgJzgnLCAnLW1hJywgJzIwMCcsICctbWV0YWxfYmluZGluZycsICctaW1hZScsICc8aW5maWxlLm1hZT4nLCAnLW9tYWUnLCAnPG91dGZpbGUubWFlPic=

> <r_lp_tautomer_probability>
1

> <r_epik_Ionization_Penalty>
2.90452e-06

> <r_epik_Ionization_Penalty_Charging>
3.08996e-10

> <r_epik_Ionization_Penalty_Neutral>
2.90421e-06

> <r_epik_State_Penalty>
-0

> <r_epik_Charging_Adjusted_Penalty>
3.08996e-10

> <i_epik_Tot_Q>
0

> <i_epik_Tot_abs_Q>
0

> <r_epik_Metal_State_Penalty>
-0

> <b_epik_Metal_Only>
0

> <s_lp_Force_Field>
OPLS_2005

> <r_lp_Energy>
27.0219

> <b_lp_Chiralities_Consistent>
1

> <s_lp_Variant>
AV-unprocessed.smi:1001-1

> <Gold.Version>
5.8.1

> <Gold.Id.Protein>
6NUR|6NUR_protein|mol2

> <Gold.PLP.Fitness>
50.2510

> <Gold.PLP.PLP>
-44.8937

> <Gold.PLP.part.hbond>
-3.0000

> <Gold.PLP.part.metal>
0.0000

> <Gold.PLP.part.buried>
-5.6566

> <Gold.PLP.part.nonpolar>
-35.9686

> <Gold.PLP.part.repulsive>
0.1952

> <Gold.PLP.ligand.clash>
0.0000

> <Gold.PLP.ligand.torsion>
1.1391

> <Gold.PLP.Chemscore.Hbond>
2.4880

> <Gold.PLP.Chemscore.CHOScore>
0.0000

> <Gold.PLP.Chemscore.Metal>
0.0000

> <Gold.Chemscore.Hbonds>
donor molecule, donor type, donor heavy atom, donor atom, acceptor molecule, acceptor atom, score
      P1  H  6896  6907       L1    12  0.78
      P1  H  6931  6943       L1     8  0.60
      P1  H  6934  6947       L1     8  0.32

> <Gold.PLP.Chemscore.Internal.Correction>
0.1715

> <Gold.Rescore>
     Score         DG    S(hbond)    S(metal)    S(lipo)     H(rot)  DE(clash)    DE(int)     intcor
     17.72     -20.17       2.60        0.00     105.11       2.46       0.01       2.44       ----

> <Gold.Chemscore.Fitness>
17.7168

> <Gold.Chemscore.DG>
-20.1654

> <Gold.Chemscore.ZeroCoef>
-5.4800

> <Gold.Chemscore.Hbond>
2.5999

> <Gold.Chemscore.Metal>
0.0000

> <Gold.Chemscore.Lipo>
105.1066

> <Gold.Chemscore.Internal_Hbond>
0.0000

> <Gold.Chemscore.DEClash>
0.0110

> <Gold.Chemscore.DEInternal>
2.4376

> <Gold.Chemscore.Rot>
2.4593

> <Gold.Chemscore.Internal.Correction>
   9.000000E+99

> <Gold.Chemscore.Hbonds>
donor molecule, donor type, donor heavy atom, donor atom, acceptor molecule, acceptor atom, score
      P1  H  6896  6907       L1    12  0.78
      P1  H  6931  6943       L1     8  0.55
      P1  H  6934  6947       L1     8  0.31

> <Gold.Chemscore.Hbond.Weighted>
-8.6838

> <Gold.Chemscore.Metal.Weighted>
-0.0000

> <Gold.Chemscore.Lipo.Weighted>
-12.2975

> <Gold.Chemscore.Internal_Hbond.Weighted>
0.0000

> <Gold.Chemscore.DEClash.Weighted>
0.0110

> <Gold.Chemscore.DEInternal.Weighted>
2.4376

> <Gold.Chemscore.Rot.Weighted>
6.2958

> <Gold.Chemscore.Internal.Correction.Weighted>
   9.000000E+99

> <Gold.Protein.RotatedTorsions>
[ 6907 6896 6895 6894 ] final  -53.39 input  -60.11 | X-H torsion
[ 7974 7965 7964 7962 ] final  -51.24 input  175.53 | X-H torsion
[ 8008 7997 7996 7995 ] final -154.71 input   59.86 | X-H torsion
[ 10167 10162 10161 10158 ] final -123.25 input  -65.29 | X-H torsion
[ 10718 10713 10712 10709 ] final   -5.11 input   66.30 | X-H torsion
[ 10763 10752 10751 10750 ] final   64.57 input  -60.55 | X-H torsion
[ 11005 11000 10999 10996 ] final -128.86 input  -57.11 | X-H torsion

> <Gold.Protein.ActiveResidues>
 VAL166  LYS551  ARG553  GLY616  TRP617  ASP618  TYR619  PRO620  LYS621  CYS622 
 ASP623  PHE694  ASN695  SER759  ASP760  ASP761  ALA762  ILE779  LEU786  VAL792 
 PHE793  MET794  SER795  GLU796  ALA797  LYS798  CYS799  TRP800  GLU811  SER814 

> <Gold.Protein.RotatedAtoms>
  150.8431  134.7730  159.6947 H   0  0  0  0  0  0  0  0  0  0  0  0  # atno 6907 bound_to 6896
  152.4514  134.5382  159.9841 H   0  0  0  0  0  0  0  0  0  0  0  0  # atno 6908 bound_to 6896
  151.5518  133.3378  159.2990 H   0  0  0  0  0  0  0  0  0  0  0  0  # atno 6909 bound_to 6896
  145.9211  140.7833  142.9647 H   0  0  0  0  0  0  0  0  0  0  0  0  # atno 7974 bound_to 7965
  155.6906  140.0755  157.2449 H   0  0  0  0  0  0  0  0  0  0  0  0  # atno 8008 bound_to 7997
  154.4089  140.1665  156.2135 H   0  0  0  0  0  0  0  0  0  0  0  0  # atno 8009 bound_to 7997
  155.9455  140.3381  155.6366 H   0  0  0  0  0  0  0  0  0  0  0  0  # atno 8010 bound_to 7997
  140.0055  143.5496  152.2285 H   0  0  0  0  0  0  0  0  0  0  0  0  # atno 10167 bound_to 10162
  156.7514  130.5240  149.5803 H   0  0  0  0  0  0  0  0  0  0  0  0  # atno 10718 bound_to 10713
  153.0061  135.5388  154.6530 H   0  0  0  0  0  0  0  0  0  0  0  0  # atno 10763 bound_to 10752
  154.5758  135.2845  155.0785 H   0  0  0  0  0  0  0  0  0  0  0  0  # atno 10764 bound_to 10752
  154.1933  135.6496  153.5118 H   0  0  0  0  0  0  0  0  0  0  0  0  # atno 10765 bound_to 10752
  140.9480  134.1103  157.4089 H   0  0  0  0  0  0  0  0  0  0  0  0  # atno 11005 bound_to 11000
  144.6753  140.1977  143.7390 LP  0  0  0  0  0  0  0  0  0  0  0  0  # atno 17320 bound_to 7965
  145.8549  139.2193  143.1750 LP  0  0  0  0  0  0  0  0  0  0  0  0  # atno 17321 bound_to 7965
  139.6241  144.7634  151.2676 LP  0  0  0  0  0  0  0  0  0  0  0  0  # atno 17342 bound_to 10162
  140.7402  143.6595  150.8177 LP  0  0  0  0  0  0  0  0  0  0  0  0  # atno 17343 bound_to 10162
  156.1399  130.6237  151.0452 LP  0  0  0  0  0  0  0  0  0  0  0  0  # atno 17370 bound_to 10713
  157.6775  131.0846  150.7455 LP  0  0  0  0  0  0  0  0  0  0  0  0  # atno 17371 bound_to 10713
  139.8839  135.0057  156.6333 LP  0  0  0  0  0  0  0  0  0  0  0  0  # atno 17394 bound_to 11000
  140.7642  133.8792  155.8441 LP  0  0  0  0  0  0  0  0  0  0  0  0  # atno 17395 bound_to 11000

$$$$
