AV-unprocessed.smi:1533|AV-procd|sdf|6162|dock3
  -GOLD-   22720 6313D 1   1.00000     0.00000
 Structure written by MMmdl.
 37 39  0  0  0  0  0  0  0  0  1 V2000
  144.5876  144.1845  154.3686 C   0  0  0  0  0  0  0  0  0  0  0  0
  145.6753  143.2204  154.6976 C   0  0  0  0  0  0  0  0  0  0  0  0
  145.8098  142.7193  155.9193 N   0  0  0  0  0  0  0  0  0  0  0  0
  146.9462  141.9045  155.8111 O   0  0  0  0  0  0  0  0  0  0  0  0
  147.3517  142.0054  154.5227 C   0  0  0  0  0  0  0  0  0  0  0  0
  148.6163  141.3246  154.1083 C   0  0  0  0  0  0  0  0  0  0  0  0
  149.5083  140.8902  155.2885 C   0  0  0  0  0  0  0  0  0  0  0  0
  149.8384  142.0019  156.1784 N   0  0  0  0  0  0  0  0  0  0  0  0
  150.6862  141.9431  157.2181 C   0  0  0  0  0  0  0  0  0  0  0  0
  151.3334  140.9339  157.4990 O   0  0  0  0  0  0  0  0  0  0  0  0
  150.7919  143.2149  158.0777 C   0  0  2  0  0  0  0  0  0  0  0  0
  151.5798  144.3663  157.4027 C   0  0  0  0  0  0  0  0  0  0  0  0
  152.6979  144.6711  158.4199 C   0  0  1  0  0  0  0  0  0  0  0  0
  152.0843  145.3267  159.6715 C   0  0  0  0  0  0  0  0  0  0  0  0
  151.3478  144.1515  160.3429 C   0  0  0  0  0  0  0  0  0  0  0  0
  151.6151  142.9872  159.3704 C   0  0  2  0  0  0  0  0  0  0  0  0
  153.0499  143.2826  158.9373 C   0  0  0  0  0  0  0  0  0  0  0  0
  146.5970  142.8148  153.7825 N   0  0  0  0  0  0  0  0  0  0  0  0
  143.8163  144.1798  155.1395 H   0  0  0  0  0  0  0  0  0  0  0  0
  144.1246  143.9225  153.4172 H   0  0  0  0  0  0  0  0  0  0  0  0
  144.9934  145.1934  154.2916 H   0  0  0  0  0  0  0  0  0  0  0  0
  148.3597  140.4561  153.5010 H   0  0  0  0  0  0  0  0  0  0  0  0
  149.1723  142.0002  153.4573 H   0  0  0  0  0  0  0  0  0  0  0  0
  149.0234  140.0862  155.8449 H   0  0  0  0  0  0  0  0  0  0  0  0
  150.4401  140.4733  154.9065 H   0  0  0  0  0  0  0  0  0  0  0  0
  149.3493  142.8708  156.0196 H   0  0  0  0  0  0  0  0  0  0  0  0
  149.7834  143.5491  158.3275 H   0  0  0  0  0  0  0  0  0  0  0  0
  152.0098  144.0746  156.4434 H   0  0  0  0  0  0  0  0  0  0  0  0
  150.9501  145.2378  157.2197 H   0  0  0  0  0  0  0  0  0  0  0  0
  153.5325  145.2315  157.9977 H   0  0  0  0  0  0  0  0  0  0  0  0
  152.8630  145.7159  160.3287 H   0  0  0  0  0  0  0  0  0  0  0  0
  151.4144  146.1503  159.4213 H   0  0  0  0  0  0  0  0  0  0  0  0
  151.7759  143.9419  161.3240 H   0  0  0  0  0  0  0  0  0  0  0  0
  150.2837  144.3476  160.4793 H   0  0  0  0  0  0  0  0  0  0  0  0
  151.4716  142.0061  159.8245 H   0  0  0  0  0  0  0  0  0  0  0  0
  153.4315  142.6145  158.1648 H   0  0  0  0  0  0  0  0  0  0  0  0
  153.7572  143.2974  159.7686 H   0  0  0  0  0  0  0  0  0  0  0  0
  1  2  1  0  0  0  0
  1 19  1  0  0  0  0
  1 20  1  0  0  0  0
  1 21  1  0  0  0  0
  2 18  1  0  0  0  0
  2  3  2  0  0  0  0
  3  4  1  0  0  0  0
  4  5  1  0  0  0  0
  5  6  1  0  0  0  0
  5 18  2  0  0  0  0
  6  7  1  0  0  0  0
  6 22  1  0  0  0  0
  6 23  1  0  0  0  0
  7  8  1  0  0  0  0
  7 24  1  0  0  0  0
  7 25  1  0  0  0  0
  8  9  1  0  0  0  0
  8 26  1  0  0  0  0
  9 10  2  0  0  0  0
  9 11  1  0  0  0  0
 11 16  1  0  0  0  0
 11 12  1  0  0  0  0
 11 27  1  0  0  0  0
 12 13  1  0  0  0  0
 12 28  1  0  0  0  0
 12 29  1  0  0  0  0
 13 17  1  0  0  0  0
 13 14  1  0  0  0  0
 13 30  1  0  0  0  0
 14 15  1  0  0  0  0
 14 31  1  0  0  0  0
 14 32  1  0  0  0  0
 15 16  1  0  0  0  0
 15 33  1  0  0  0  0
 15 34  1  0  0  0  0
 16 17  1  0  0  0  0
 16 35  1  0  0  0  0
 17 36  1  0  0  0  0
 17 37  1  0  0  0  0
M  END
> <s_m_source_file>
AV-unprocessed.smi

> <i_m_source_file_index>
1533

> <i_lp_mmshare_version>
43012

> <i_f3d_flags>
0

> <s_epik_input>
W0NIM11jMW5vYyhuMSlbQ0gyXVtDSDJdW05IXUMoPU8pW0NASF0oW0NIMl1bQ0BASF0yMylbQ0BASF0oW0NIMl0zKVtDSDJdW0NIMl0y

> <s_epik_cmdline>
J2VwaWtfcHl0aG9uJywgJy1waCcsICc3LjAnLCAnLXRuJywgJzgnLCAnLW1hJywgJzIwMCcsICctbWV0YWxfYmluZGluZycsICctaW1hZScsICc8aW5maWxlLm1hZT4nLCAnLW9tYWUnLCAnPG91dGZpbGUubWFlPic=

> <r_lp_tautomer_probability>
1

> <r_epik_Ionization_Penalty>
1.90116e-08

> <r_epik_Ionization_Penalty_Charging>
0

> <r_epik_Ionization_Penalty_Neutral>
1.90116e-08

> <r_epik_State_Penalty>
-0

> <r_epik_Charging_Adjusted_Penalty>
0

> <i_epik_Tot_Q>
0

> <i_epik_Tot_abs_Q>
0

> <r_epik_Metal_State_Penalty>
-0

> <b_epik_Metal_Only>
0

> <s_lp_Force_Field>
OPLS_2005

> <r_lp_Energy>
43.4718

> <b_lp_Chiralities_Consistent>
1

> <s_lp_Variant>
AV-unprocessed.smi:1533-1

> <Gold.Version>
5.8.1

> <Gold.Id.Protein>
6NUR|6NUR_protein|mol2

> <Gold.PLP.Fitness>
44.3183

> <Gold.PLP.PLP>
-42.2459

> <Gold.PLP.part.hbond>
-1.0000

> <Gold.PLP.part.metal>
0.0000

> <Gold.PLP.part.buried>
-4.4680

> <Gold.PLP.part.nonpolar>
-36.8755

> <Gold.PLP.part.repulsive>
0.5410

> <Gold.PLP.ligand.clash>
0.0000

> <Gold.PLP.ligand.torsion>
0.4946

> <Gold.PLP.Chemscore.Hbond>
1.0000

> <Gold.PLP.Chemscore.CHOScore>
0.0000

> <Gold.PLP.Chemscore.Metal>
0.0000

> <Gold.Chemscore.Hbonds>
donor molecule, donor type, donor heavy atom, donor atom, acceptor molecule, acceptor atom, score
      L1  H     8    26       P1  8028  1.00

> <Gold.PLP.Chemscore.Internal.Correction>
0.0618

> <Gold.Rescore>
     Score         DG    S(hbond)    S(metal)    S(lipo)     H(rot)  DE(clash)    DE(int)     intcor
     16.10     -16.76       1.00        0.00     108.36       1.85       0.05       0.61       ----

> <Gold.Chemscore.Fitness>
16.0955

> <Gold.Chemscore.DG>
-16.7624

> <Gold.Chemscore.ZeroCoef>
-5.4800

> <Gold.Chemscore.Hbond>
0.9992

> <Gold.Chemscore.Metal>
0.0000

> <Gold.Chemscore.Lipo>
108.3635

> <Gold.Chemscore.Internal_Hbond>
0.0000

> <Gold.Chemscore.DEClash>
0.0533

> <Gold.Chemscore.DEInternal>
0.6136

> <Gold.Chemscore.Rot>
1.8490

> <Gold.Chemscore.Internal.Correction>
   9.000000E+99

> <Gold.Chemscore.Hbonds>
donor molecule, donor type, donor heavy atom, donor atom, acceptor molecule, acceptor atom, score
      L1  H     8    26       P1  8028  0.99

> <Gold.Chemscore.Hbond.Weighted>
-3.3372

> <Gold.Chemscore.Metal.Weighted>
-0.0000

> <Gold.Chemscore.Lipo.Weighted>
-12.6785

> <Gold.Chemscore.Internal_Hbond.Weighted>
0.0000

> <Gold.Chemscore.DEClash.Weighted>
0.0533

> <Gold.Chemscore.DEInternal.Weighted>
0.6136

> <Gold.Chemscore.Rot.Weighted>
4.7334

> <Gold.Chemscore.Internal.Correction.Weighted>
   9.000000E+99

> <Gold.Protein.RotatedTorsions>
[ 6907 6896 6895 6894 ] final   94.68 input  -60.11 | X-H torsion
[ 7974 7965 7964 7962 ] final  172.32 input  175.53 | X-H torsion
[ 8008 7997 7996 7995 ] final   25.24 input   59.86 | X-H torsion
[ 10167 10162 10161 10158 ] final   52.32 input  -65.29 | X-H torsion
[ 10718 10713 10712 10709 ] final    6.52 input   66.30 | X-H torsion
[ 10763 10752 10751 10750 ] final  101.98 input  -60.55 | X-H torsion
[ 11005 11000 10999 10996 ] final  -34.59 input  -57.11 | X-H torsion

> <Gold.Protein.ActiveResidues>
 VAL166  LYS551  ARG553  GLY616  TRP617  ASP618  TYR619  PRO620  LYS621  CYS622 
 ASP623  PHE694  ASN695  SER759  ASP760  ASP761  ALA762  ILE779  LEU786  VAL792 
 PHE793  MET794  SER795  GLU796  ALA797  LYS798  CYS799  TRP800  GLU811  SER814 

> <Gold.Protein.RotatedAtoms>
  152.5448  134.1157  159.8377 H   0  0  0  0  0  0  0  0  0  0  0  0  # atno 6907 bound_to 6896
  151.1218  133.5091  159.2609 H   0  0  0  0  0  0  0  0  0  0  0  0  # atno 6908 bound_to 6896
  151.1770  135.0353  159.8831 H   0  0  0  0  0  0  0  0  0  0  0  0  # atno 6909 bound_to 6896
  144.7271  139.9480  143.6431 H   0  0  0  0  0  0  0  0  0  0  0  0  # atno 7974 bound_to 7965
  155.0087  140.3134  155.4838 H   0  0  0  0  0  0  0  0  0  0  0  0  # atno 8008 bound_to 7997
  156.2913  140.2218  156.5141 H   0  0  0  0  0  0  0  0  0  0  0  0  # atno 8009 bound_to 7997
  154.7554  140.0463  157.0917 H   0  0  0  0  0  0  0  0  0  0  0  0  # atno 8010 bound_to 7997
  140.2526  144.3462  150.6343 H   0  0  0  0  0  0  0  0  0  0  0  0  # atno 10167 bound_to 10162
  156.9234  130.5799  149.5648 H   0  0  0  0  0  0  0  0  0  0  0  0  # atno 10718 bound_to 10713
  153.3337  135.4026  155.1516 H   0  0  0  0  0  0  0  0  0  0  0  0  # atno 10763 bound_to 10752
  154.8628  135.3616  154.5437 H   0  0  0  0  0  0  0  0  0  0  0  0  # atno 10764 bound_to 10752
  153.5877  135.7075  153.5495 H   0  0  0  0  0  0  0  0  0  0  0  0  # atno 10765 bound_to 10752
  140.9728  133.7100  156.1552 H   0  0  0  0  0  0  0  0  0  0  0  0  # atno 11005 bound_to 11000
  146.0733  139.3721  143.0509 LP  0  0  0  0  0  0  0  0  0  0  0  0  # atno 17320 bound_to 7965
  145.7939  140.9802  143.1034 LP  0  0  0  0  0  0  0  0  0  0  0  0  # atno 17321 bound_to 7965
  140.6029  143.2167  151.7038 LP  0  0  0  0  0  0  0  0  0  0  0  0  # atno 17342 bound_to 10162
  139.5041  144.3765  152.0419 LP  0  0  0  0  0  0  0  0  0  0  0  0  # atno 17343 bound_to 10162
  156.0480  130.5554  150.8925 LP  0  0  0  0  0  0  0  0  0  0  0  0  # atno 17370 bound_to 10713
  157.5893  131.0945  150.9145 LP  0  0  0  0  0  0  0  0  0  0  0  0  # atno 17371 bound_to 10713
  140.7303  134.4262  157.5566 LP  0  0  0  0  0  0  0  0  0  0  0  0  # atno 17394 bound_to 11000
  139.8919  134.8769  156.2298 LP  0  0  0  0  0  0  0  0  0  0  0  0  # atno 17395 bound_to 11000

$$$$
