AV-unprocessed.smi:1356|AV-procd|sdf|5540|dock1
  -GOLD-   22720 5133D 1   1.00000     0.00000
 Structure written by MMmdl.
 41 42  0  0  0  0  0  0  0  0  1 V2000
  149.2724  131.0131  154.1072 C   0  0  0  0  0  0  0  0  0  0  0  0
  148.8951  132.4231  154.5076 C   0  0  2  0  0  0  0  0  0  0  0  0
  148.4593  133.4327  153.4735 C   0  0  0  0  0  0  0  0  0  0  0  0
  149.8019  133.5884  154.1575 C   0  0  1  0  0  0  0  0  0  0  0  0
  149.9396  134.6926  155.1540 C   0  0  0  0  0  0  0  0  0  0  0  0
  150.1612  134.4966  156.3497 O   0  0  0  0  0  0  0  0  0  0  0  0
  149.7842  135.9179  154.6304 N   0  0  0  0  0  0  0  0  0  0  0  0
  149.8176  137.1730  155.3801 C   0  0  0  0  0  0  0  0  0  0  0  0
  150.9841  138.1016  154.9729 C   0  0  0  0  0  0  0  0  0  0  0  0
  151.0100  139.4223  155.7492 C   0  0  0  0  0  0  0  0  0  0  0  0
  151.0629  140.4938  155.1452 O   0  0  0  0  0  0  0  0  0  0  0  0
  150.9490  139.3289  157.0862 N   0  0  0  0  0  0  0  0  0  0  0  0
  150.8704  140.4607  158.0009 C   0  0  0  0  0  0  0  0  0  0  0  0
  152.1883  141.2532  158.0228 C   0  0  0  0  0  0  0  0  0  0  0  0
  152.0730  142.5369  158.8222 C   0  0  0  0  0  0  0  0  0  0  0  0
  152.0645  143.7908  158.1744 C   0  0  0  0  0  0  0  0  0  0  0  0
  151.9477  144.9521  158.9622 C   0  0  0  0  0  0  0  0  0  0  0  0
  151.8436  144.8160  160.3600 C   0  0  0  0  0  0  0  0  0  0  0  0
  151.8601  143.5187  160.9099 C   0  0  0  0  0  0  0  0  0  0  0  0
  151.9717  142.3987  160.1635 N   0  0  0  0  0  0  0  0  0  0  0  0
  149.7886  131.0076  153.1467 H   0  0  0  0  0  0  0  0  0  0  0  0
  148.3777  130.3958  154.0245 H   0  0  0  0  0  0  0  0  0  0  0  0
  149.9299  130.5746  154.8581 H   0  0  0  0  0  0  0  0  0  0  0  0
  148.3724  132.4699  155.4616 H   0  0  0  0  0  0  0  0  0  0  0  0
  148.4717  133.1370  152.4266 H   0  0  0  0  0  0  0  0  0  0  0  0
  147.6546  134.1130  153.7474 H   0  0  0  0  0  0  0  0  0  0  0  0
  150.6807  133.3694  153.5522 H   0  0  0  0  0  0  0  0  0  0  0  0
  149.6055  135.9880  153.6389 H   0  0  0  0  0  0  0  0  0  0  0  0
  148.8673  137.6945  155.2571 H   0  0  0  0  0  0  0  0  0  0  0  0
  149.8938  136.9277  156.4398 H   0  0  0  0  0  0  0  0  0  0  0  0
  151.9334  137.5801  155.1041 H   0  0  0  0  0  0  0  0  0  0  0  0
  150.9116  138.3314  153.9095 H   0  0  0  0  0  0  0  0  0  0  0  0
  150.9128  138.4067  157.4965 H   0  0  0  0  0  0  0  0  0  0  0  0
  150.0557  141.1059  157.6709 H   0  0  0  0  0  0  0  0  0  0  0  0
  150.6096  140.1175  159.0035 H   0  0  0  0  0  0  0  0  0  0  0  0
  152.9887  140.6460  158.4489 H   0  0  0  0  0  0  0  0  0  0  0  0
  152.4967  141.4911  157.0037 H   0  0  0  0  0  0  0  0  0  0  0  0
  152.1443  143.8626  157.0997 H   0  0  0  0  0  0  0  0  0  0  0  0
  151.9376  145.9294  158.5027 H   0  0  0  0  0  0  0  0  0  0  0  0
  151.7523  145.6845  160.9954 H   0  0  0  0  0  0  0  0  0  0  0  0
  151.7811  143.3766  161.9775 H   0  0  0  0  0  0  0  0  0  0  0  0
  1  2  1  0  0  0  0
  1 21  1  0  0  0  0
  1 22  1  0  0  0  0
  1 23  1  0  0  0  0
  2  4  1  0  0  0  0
  2  3  1  0  0  0  0
  2 24  1  0  0  0  0
  3  4  1  0  0  0  0
  3 25  1  0  0  0  0
  3 26  1  0  0  0  0
  4  5  1  0  0  0  0
  4 27  1  0  0  0  0
  5  6  2  0  0  0  0
  5  7  1  0  0  0  0
  7  8  1  0  0  0  0
  7 28  1  0  0  0  0
  8  9  1  0  0  0  0
  8 29  1  0  0  0  0
  8 30  1  0  0  0  0
  9 10  1  0  0  0  0
  9 31  1  0  0  0  0
  9 32  1  0  0  0  0
 10 11  2  0  0  0  0
 10 12  1  0  0  0  0
 12 13  1  0  0  0  0
 12 33  1  0  0  0  0
 13 14  1  0  0  0  0
 13 34  1  0  0  0  0
 13 35  1  0  0  0  0
 14 15  1  0  0  0  0
 14 36  1  0  0  0  0
 14 37  1  0  0  0  0
 15 20  1  0  0  0  0
 15 16  2  0  0  0  0
 16 17  1  0  0  0  0
 16 38  1  0  0  0  0
 17 18  2  0  0  0  0
 17 39  1  0  0  0  0
 18 19  1  0  0  0  0
 18 40  1  0  0  0  0
 19 20  2  0  0  0  0
 19 41  1  0  0  0  0
M  END
> <s_m_source_file>
AV-unprocessed.smi

> <i_m_source_file_index>
1356

> <i_lp_mmshare_version>
43012

> <i_f3d_flags>
0

> <s_epik_input>
W0NIM11bQ0BASF0xW0NIMl1bQ0BIXTFDKD1PKVtOSF1bQ0gyXVtDSDJdQyg9TylbTkhdW0NIMl1bQ0gyXWMyW2NIXVtjSF1bY0hdW2NIXW4y

> <s_epik_cmdline>
J2VwaWtfcHl0aG9uJywgJy1waCcsICc3LjAnLCAnLXRuJywgJzgnLCAnLW1hJywgJzIwMCcsICctbWV0YWxfYmluZGluZycsICctaW1hZScsICc8aW5maWxlLm1hZT4nLCAnLW9tYWUnLCAnPG91dGZpbGUubWFlPic=

> <r_epik_Ionization_Penalty>
0.0258005

> <r_epik_Ionization_Penalty_Charging>
0

> <r_epik_Ionization_Penalty_Neutral>
0.0258005

> <r_epik_State_Penalty>
0.0210245

> <r_epik_Charging_Adjusted_Penalty>
0.0210245

> <i_epik_Tot_Q>
0

> <i_epik_Tot_abs_Q>
0

> <r_epik_Metal_State_Penalty>
0.0201445

> <b_epik_Metal_Only>
0

> <s_lp_Force_Field>
OPLS_2005

> <r_lp_Energy>
2.94754

> <b_lp_Chiralities_Consistent>
1

> <s_lp_Variant>
AV-unprocessed.smi:1356-1

> <Gold.Version>
5.8.1

> <Gold.Id.Protein>
6NUR|6NUR_protein|mol2

> <Gold.PLP.Fitness>
48.1656

> <Gold.PLP.PLP>
-42.7024

> <Gold.PLP.part.hbond>
-2.0000

> <Gold.PLP.part.metal>
0.0000

> <Gold.PLP.part.buried>
-6.1380

> <Gold.PLP.part.nonpolar>
-34.4454

> <Gold.PLP.part.repulsive>
0.1342

> <Gold.PLP.ligand.clash>
0.0000

> <Gold.PLP.ligand.torsion>
0.3764

> <Gold.PLP.Chemscore.Hbond>
1.9920

> <Gold.PLP.Chemscore.CHOScore>
0.0000

> <Gold.PLP.Chemscore.Metal>
0.0000

> <Gold.Chemscore.Hbonds>
donor molecule, donor type, donor heavy atom, donor atom, acceptor molecule, acceptor atom, score
      L1  H     7    28       P1  7948  1.00
      P1  H  7989  7998       L1    11  0.99

> <Gold.PLP.Chemscore.Internal.Correction>
0.2399

> <Gold.Rescore>
     Score         DG    S(hbond)    S(metal)    S(lipo)     H(rot)  DE(clash)    DE(int)     intcor
     18.18     -18.60       1.92        0.00     104.86       2.18       0.11       0.32       ----

> <Gold.Chemscore.Fitness>
18.1781

> <Gold.Chemscore.DG>
-18.6039

> <Gold.Chemscore.ZeroCoef>
-5.4800

> <Gold.Chemscore.Hbond>
1.9235

> <Gold.Chemscore.Metal>
0.0000

> <Gold.Chemscore.Lipo>
104.8566

> <Gold.Chemscore.Internal_Hbond>
0.0000

> <Gold.Chemscore.DEClash>
0.1091

> <Gold.Chemscore.DEInternal>
0.3167

> <Gold.Chemscore.Rot>
2.1753

> <Gold.Chemscore.Internal.Correction>
   9.000000E+99

> <Gold.Chemscore.Hbonds>
donor molecule, donor type, donor heavy atom, donor atom, acceptor molecule, acceptor atom, score
      L1  H     7    28       P1  7948  0.35
      P1  H  7989  7998       L1    11  0.93

> <Gold.Chemscore.Hbond.Weighted>
-6.4243

> <Gold.Chemscore.Metal.Weighted>
-0.0000

> <Gold.Chemscore.Lipo.Weighted>
-12.2682

> <Gold.Chemscore.Internal_Hbond.Weighted>
0.0000

> <Gold.Chemscore.DEClash.Weighted>
0.1091

> <Gold.Chemscore.DEInternal.Weighted>
0.3167

> <Gold.Chemscore.Rot.Weighted>
5.5687

> <Gold.Chemscore.Internal.Correction.Weighted>
   9.000000E+99

> <Gold.Protein.RotatedTorsions>
[ 6907 6896 6895 6894 ] final  176.01 input  -60.11 | X-H torsion
[ 7974 7965 7964 7962 ] final -138.74 input  175.53 | X-H torsion
[ 8008 7997 7996 7995 ] final  -36.05 input   59.86 | X-H torsion
[ 10167 10162 10161 10158 ] final  -58.93 input  -65.29 | X-H torsion
[ 10718 10713 10712 10709 ] final -115.10 input   66.30 | X-H torsion
[ 10763 10752 10751 10750 ] final  -81.90 input  -60.55 | X-H torsion
[ 11005 11000 10999 10996 ] final   20.37 input  -57.11 | X-H torsion

> <Gold.Protein.ActiveResidues>
 VAL166  LYS551  ARG553  GLY616  TRP617  ASP618  TYR619  PRO620  LYS621  CYS622 
 ASP623  PHE694  ASN695  SER759  ASP760  ASP761  ALA762  ILE779  LEU786  VAL792 
 PHE793  MET794  SER795  GLU796  ALA797  LYS798  CYS799  TRP800  GLU811  SER814 

> <Gold.Protein.RotatedAtoms>
  151.7270  133.3316  159.3330 H   0  0  0  0  0  0  0  0  0  0  0  0  # atno 6907 bound_to 6896
  150.7628  134.6397  159.6240 H   0  0  0  0  0  0  0  0  0  0  0  0  # atno 6908 bound_to 6896
  152.3616  134.6866  160.0257 H   0  0  0  0  0  0  0  0  0  0  0  0  # atno 6909 bound_to 6896
  144.8733  140.6400  143.5253 H   0  0  0  0  0  0  0  0  0  0  0  0  # atno 7974 bound_to 7965
  154.4081  140.1641  156.2311 H   0  0  0  0  0  0  0  0  0  0  0  0  # atno 8008 bound_to 7997
  155.9281  140.3416  155.6204 H   0  0  0  0  0  0  0  0  0  0  0  0  # atno 8009 bound_to 7997
  155.7140  140.0760  157.2350 H   0  0  0  0  0  0  0  0  0  0  0  0  # atno 8010 bound_to 7997
  140.6167  143.2405  151.5580 H   0  0  0  0  0  0  0  0  0  0  0  0  # atno 10167 bound_to 10162
  156.0873  130.6062  150.8862 H   0  0  0  0  0  0  0  0  0  0  0  0  # atno 10718 bound_to 10713
  154.5692  135.5610  153.7079 H   0  0  0  0  0  0  0  0  0  0  0  0  # atno 10763 bound_to 10752
  153.0043  135.6293  154.2138 H   0  0  0  0  0  0  0  0  0  0  0  0  # atno 10764 bound_to 10752
  154.2078  135.2875  155.2949 H   0  0  0  0  0  0  0  0  0  0  0  0  # atno 10765 bound_to 10752
  140.4033  134.1695  155.7664 H   0  0  0  0  0  0  0  0  0  0  0  0  # atno 11005 bound_to 11000
  145.4089  139.1584  143.4136 LP  0  0  0  0  0  0  0  0  0  0  0  0  # atno 17320 bound_to 7965
  146.2945  140.4191  142.8727 LP  0  0  0  0  0  0  0  0  0  0  0  0  # atno 17321 bound_to 7965
  139.5404  144.2663  152.1339 LP  0  0  0  0  0  0  0  0  0  0  0  0  # atno 17342 bound_to 10162
  140.1873  144.4786  150.6497 LP  0  0  0  0  0  0  0  0  0  0  0  0  # atno 17343 bound_to 10162
  157.6012  131.0941  150.8957 LP  0  0  0  0  0  0  0  0  0  0  0  0  # atno 17370 bound_to 10713
  156.9114  130.5282  149.5280 LP  0  0  0  0  0  0  0  0  0  0  0  0  # atno 17371 bound_to 10713
  141.1848  133.8335  157.1125 LP  0  0  0  0  0  0  0  0  0  0  0  0  # atno 17394 bound_to 11000
  140.0320  134.9896  157.0799 LP  0  0  0  0  0  0  0  0  0  0  0  0  # atno 17395 bound_to 11000

$$$$
