AV-unprocessed.smi:1205|AV-procd|sdf|5045|dock9
  -GOLD-   22720 4 73D 1   1.00000     0.00000
 Structure written by MMmdl.
 49 50  0  0  0  0  0  0  0  0  2 V2000
  153.3575  141.2442  160.7227 C   0  0  0  0  0  0  0  0  0  0  0  0
  152.5992  141.9626  159.6456 C   0  0  0  0  0  0  0  0  0  0  0  0
  151.7554  141.4023  158.6429 C   0  0  0  0  0  0  0  0  0  0  0  0
  151.3370  142.5057  157.9507 C   0  0  0  0  0  0  0  0  0  0  0  0
  150.5009  142.5774  156.8809 N   0  0  0  0  0  0  0  0  0  0  0  0
  150.0421  141.5798  156.1052 C   0  0  0  0  0  0  0  0  0  0  0  0
  150.3130  140.3861  156.2379 O   0  0  0  0  0  0  0  0  0  0  0  0
  149.2402  142.0473  155.1380 N   0  0  0  0  0  0  0  0  0  0  0  0
  148.5868  141.2231  154.1260 C   0  0  0  0  0  0  0  0  0  0  0  0
  147.0746  141.5377  153.9895 C   0  0  2  0  0  0  0  0  0  0  0  0
  146.5357  142.3785  155.1629 C   0  0  0  0  0  0  0  0  0  0  0  0
  146.2368  140.3197  153.7857 N   0  3  2  0  0  0  0  0  0  0  0  0
  145.8461  139.5984  155.0277 C   0  0  0  0  0  0  0  0  0  0  0  0
  144.7968  138.5188  154.7204 C   0  0  0  0  0  0  0  0  0  0  0  0
  145.3153  137.5390  153.6595 C   0  0  0  0  0  0  0  0  0  0  0  0
  145.7524  138.2998  152.3955 C   0  0  2  0  0  0  0  0  0  0  0  0
  146.2995  137.3438  151.3265 C   0  0  0  0  0  0  0  0  0  0  0  0
  146.7798  139.3917  152.7574 C   0  0  0  0  0  0  0  0  0  0  0  0
  151.9003  143.6273  158.5179 N   0  0  0  0  0  0  0  0  0  0  0  0
  151.7546  145.0214  158.1467 C   0  0  0  0  0  0  0  0  0  0  0  0
  152.6806  143.2861  159.5660 N   0  0  0  0  0  0  0  0  0  0  0  0
  153.2104  140.1661  160.6562 H   0  0  0  0  0  0  0  0  0  0  0  0
  153.0299  141.5632  161.7124 H   0  0  0  0  0  0  0  0  0  0  0  0
  154.4275  141.4379  160.6459 H   0  0  0  0  0  0  0  0  0  0  0  0
  151.5101  140.3637  158.4801 H   0  0  0  0  0  0  0  0  0  0  0  0
  150.1987  143.5085  156.6350 H   0  0  0  0  0  0  0  0  0  0  0  0
  149.0672  143.0414  155.1002 H   0  0  0  0  0  0  0  0  0  0  0  0
  149.1025  141.3515  153.1734 H   0  0  0  0  0  0  0  0  0  0  0  0
  148.7357  140.1843  154.4198 H   0  0  0  0  0  0  0  0  0  0  0  0
  146.9388  142.1563  153.1012 H   0  0  0  0  0  0  0  0  0  0  0  0
  147.0234  143.3525  155.2082 H   0  0  0  0  0  0  0  0  0  0  0  0
  146.6976  141.8908  156.1239 H   0  0  0  0  0  0  0  0  0  0  0  0
  145.4660  142.5608  155.0558 H   0  0  0  0  0  0  0  0  0  0  0  0
  146.7214  139.1335  155.4830 H   0  0  0  0  0  0  0  0  0  0  0  0
  145.4362  140.2928  155.7602 H   0  0  0  0  0  0  0  0  0  0  0  0
  144.5401  137.9785  155.6319 H   0  0  0  0  0  0  0  0  0  0  0  0
  143.8772  138.9889  154.3691 H   0  0  0  0  0  0  0  0  0  0  0  0
  146.1567  136.9741  154.0636 H   0  0  0  0  0  0  0  0  0  0  0  0
  144.5400  136.8117  153.4157 H   0  0  0  0  0  0  0  0  0  0  0  0
  144.8729  138.7908  151.9762 H   0  0  0  0  0  0  0  0  0  0  0  0
  147.1818  136.8116  151.6838 H   0  0  0  0  0  0  0  0  0  0  0  0
  146.5803  137.8843  150.4221 H   0  0  0  0  0  0  0  0  0  0  0  0
  145.5529  136.6000  151.0465 H   0  0  0  0  0  0  0  0  0  0  0  0
  147.0381  139.9512  151.8573 H   0  0  0  0  0  0  0  0  0  0  0  0
  147.7009  138.9340  153.1206 H   0  0  0  0  0  0  0  0  0  0  0  0
  151.8764  145.1311  157.0688 H   0  0  0  0  0  0  0  0  0  0  0  0
  152.5068  145.6318  158.6483 H   0  0  0  0  0  0  0  0  0  0  0  0
  150.7633  145.3737  158.4325 H   0  0  0  0  0  0  0  0  0  0  0  0
  145.3744  140.6657  153.3897 H   0  0  0  0  0  0  0  0  0  0  0  0
  1  2  1  0  0  0  0
  1 22  1  0  0  0  0
  1 23  1  0  0  0  0
  1 24  1  0  0  0  0
  2 21  2  0  0  0  0
  2  3  1  0  0  0  0
  3  4  2  0  0  0  0
  3 25  1  0  0  0  0
  4  5  1  0  0  0  0
  4 19  1  0  0  0  0
  5  6  1  0  0  0  0
  5 26  1  0  0  0  0
  6  7  2  0  0  0  0
  6  8  1  0  0  0  0
  8  9  1  0  0  0  0
  8 27  1  0  0  0  0
  9 10  1  0  0  0  0
  9 28  1  0  0  0  0
  9 29  1  0  0  0  0
 10 11  1  0  0  0  0
 10 12  1  0  0  0  0
 10 30  1  0  0  0  0
 11 31  1  0  0  0  0
 11 32  1  0  0  0  0
 11 33  1  0  0  0  0
 12 18  1  0  0  0  0
 12 13  1  0  0  0  0
 12 49  1  0  0  0  0
 13 14  1  0  0  0  0
 13 34  1  0  0  0  0
 13 35  1  0  0  0  0
 14 15  1  0  0  0  0
 14 36  1  0  0  0  0
 14 37  1  0  0  0  0
 15 16  1  0  0  0  0
 15 38  1  0  0  0  0
 15 39  1  0  0  0  0
 16 17  1  0  0  0  0
 16 18  1  0  0  0  0
 16 40  1  0  0  0  0
 17 41  1  0  0  0  0
 17 42  1  0  0  0  0
 17 43  1  0  0  0  0
 18 44  1  0  0  0  0
 18 45  1  0  0  0  0
 19 20  1  0  0  0  0
 19 21  1  0  0  0  0
 20 46  1  0  0  0  0
 20 47  1  0  0  0  0
 20 48  1  0  0  0  0
M  CHG  1  12   1
M  END
> <s_m_source_file>
AV-unprocessed.smi

> <i_m_source_file_index>
1205

> <i_lp_mmshare_version>
43012

> <i_f3d_flags>
0

> <s_epik_input>
W0NIM11jMVtjSF1jKG4objEpW0NIM10pW05IXUMoPU8pW05IXVtDSDJdW0NASF0oW0NIM10pTjJbQ0gyXVtDSDJdW0NIMl1bQ0BASF0oW0NIM10pW0NIMl0y

> <s_epik_cmdline>
J2VwaWtfcHl0aG9uJywgJy1waCcsICc3LjAnLCAnLXRuJywgJzgnLCAnLW1hJywgJzIwMCcsICctbWV0YWxfYmluZGluZycsICctaW1hZScsICc8aW5maWxlLm1hZT4nLCAnLW9tYWUnLCAnPG91dGZpbGUubWFlPic=

> <r_lp_tautomer_probability>
1

> <r_epik_Ionization_Penalty>
0.0020309

> <r_epik_Ionization_Penalty_Charging>
0.00195276

> <r_epik_Ionization_Penalty_Neutral>
7.81448e-05

> <r_epik_State_Penalty>
0.00133177

> <r_epik_Charging_Adjusted_Penalty>
0.00328452

> <i_epik_Tot_Q>
1

> <i_epik_Tot_abs_Q>
1

> <r_epik_Metal_State_Penalty>
-0

> <b_epik_Metal_Only>
0

> <s_lp_Force_Field>
OPLS_2005

> <r_lp_Energy>
21.6269

> <b_lp_Chiralities_Consistent>
1

> <s_lp_Variant>
AV-unprocessed.smi:1205-7

> <Gold.Version>
5.8.1

> <Gold.Id.Protein>
6NUR|6NUR_protein|mol2

> <Gold.PLP.Fitness>
48.2595

> <Gold.PLP.PLP>
-38.9220

> <Gold.PLP.part.hbond>
-3.0000

> <Gold.PLP.part.metal>
0.0000

> <Gold.PLP.part.buried>
-1.0847

> <Gold.PLP.part.nonpolar>
-35.8336

> <Gold.PLP.part.repulsive>
0.2627

> <Gold.PLP.ligand.clash>
0.9139

> <Gold.PLP.ligand.torsion>
0.9356

> <Gold.PLP.Chemscore.Hbond>
4.0000

> <Gold.PLP.Chemscore.CHOScore>
0.0000

> <Gold.PLP.Chemscore.Metal>
0.0000

> <Gold.Chemscore.Hbonds>
donor molecule, donor type, donor heavy atom, donor atom, acceptor molecule, acceptor atom, score
      L1  H     5    26       P1  8028  1.00
      L1  H     8    27       P1  8028  1.00
      L1  H    12    49       P1 10175  2.00

> <Gold.PLP.Chemscore.Internal.Correction>
0.1226

> <Gold.Rescore>
     Score         DG    S(hbond)    S(metal)    S(lipo)     H(rot)  DE(clash)    DE(int)     intcor
     18.23     -21.84       2.95        0.00      87.68       1.47       1.62       1.99       ----

> <Gold.Chemscore.Fitness>
18.2337

> <Gold.Chemscore.DG>
-21.8423

> <Gold.Chemscore.ZeroCoef>
-5.4800

> <Gold.Chemscore.Hbond>
2.9510

> <Gold.Chemscore.Metal>
0.0000

> <Gold.Chemscore.Lipo>
87.6801

> <Gold.Chemscore.Internal_Hbond>
0.0000

> <Gold.Chemscore.DEClash>
1.6187

> <Gold.Chemscore.DEInternal>
1.9898

> <Gold.Chemscore.Rot>
1.4658

> <Gold.Chemscore.Internal.Correction>
   9.000000E+99

> <Gold.Chemscore.Hbonds>
donor molecule, donor type, donor heavy atom, donor atom, acceptor molecule, acceptor atom, score
      L1  H     5    26       P1  8028  0.88
      L1  H     8    27       P1  8028  1.00
      L1  H    12    49       P1 10175  0.88

> <Gold.Chemscore.Hbond.Weighted>
-9.8563

> <Gold.Chemscore.Metal.Weighted>
-0.0000

> <Gold.Chemscore.Lipo.Weighted>
-10.2586

> <Gold.Chemscore.Internal_Hbond.Weighted>
0.0000

> <Gold.Chemscore.DEClash.Weighted>
1.6187

> <Gold.Chemscore.DEInternal.Weighted>
1.9898

> <Gold.Chemscore.Rot.Weighted>
3.7526

> <Gold.Chemscore.Internal.Correction.Weighted>
   9.000000E+99

> <Gold.Protein.RotatedTorsions>
[ 6907 6896 6895 6894 ] final  -90.88 input  -60.11 | X-H torsion
[ 7974 7965 7964 7962 ] final  130.85 input  175.53 | X-H torsion
[ 8008 7997 7996 7995 ] final  -58.22 input   59.86 | X-H torsion
[ 10167 10162 10161 10158 ] final  110.36 input  -65.29 | X-H torsion
[ 10718 10713 10712 10709 ] final  -37.84 input   66.30 | X-H torsion
[ 10763 10752 10751 10750 ] final   54.94 input  -60.55 | X-H torsion
[ 11005 11000 10999 10996 ] final   33.06 input  -57.11 | X-H torsion

> <Gold.Protein.ActiveResidues>
 VAL166  LYS551  ARG553  GLY616  TRP617  ASP618  TYR619  PRO620  LYS621  CYS622 
 ASP623  PHE694  ASN695  SER759  ASP760  ASP761  ALA762  ILE779  LEU786  VAL792 
 PHE793  MET794  SER795  GLU796  ALA797  LYS798  CYS799  TRP800  GLU811  SER814 

> <Gold.Protein.RotatedAtoms>
  150.6886  134.2363  159.4454 H   0  0  0  0  0  0  0  0  0  0  0  0  # atno 6907 bound_to 6896
  152.0310  134.9765  160.0582 H   0  0  0  0  0  0  0  0  0  0  0  0  # atno 6908 bound_to 6896
  152.1304  133.4370  159.4755 H   0  0  0  0  0  0  0  0  0  0  0  0  # atno 6909 bound_to 6896
  145.0135  139.4198  143.5233 H   0  0  0  0  0  0  0  0  0  0  0  0  # atno 7974 bound_to 7965
  154.4300  140.1089  156.5923 H   0  0  0  0  0  0  0  0  0  0  0  0  # atno 8008 bound_to 7997
  155.5999  140.3493  155.4572 H   0  0  0  0  0  0  0  0  0  0  0  0  # atno 8009 bound_to 7997
  156.0181  140.1233  157.0375 H   0  0  0  0  0  0  0  0  0  0  0  0  # atno 8010 bound_to 7997
  139.6694  144.7126  151.1716 H   0  0  0  0  0  0  0  0  0  0  0  0  # atno 10167 bound_to 10162
  156.3106  130.4252  149.8054 H   0  0  0  0  0  0  0  0  0  0  0  0  # atno 10718 bound_to 10713
  152.9810  135.5728  154.4985 H   0  0  0  0  0  0  0  0  0  0  0  0  # atno 10763 bound_to 10752
  154.4508  135.2778  155.1784 H   0  0  0  0  0  0  0  0  0  0  0  0  # atno 10764 bound_to 10752
  154.3412  135.6229  153.5651 H   0  0  0  0  0  0  0  0  0  0  0  0  # atno 10765 bound_to 10752
  140.2670  134.3126  155.7839 H   0  0  0  0  0  0  0  0  0  0  0  0  # atno 11005 bound_to 11000
  146.3474  139.9592  142.8719 LP  0  0  0  0  0  0  0  0  0  0  0  0  # atno 17320 bound_to 7965
  145.1991  140.9846  143.4166 LP  0  0  0  0  0  0  0  0  0  0  0  0  # atno 17321 bound_to 7965
  140.7612  143.5868  150.8837 LP  0  0  0  0  0  0  0  0  0  0  0  0  # atno 17342 bound_to 10162
  139.9532  143.6248  152.3023 LP  0  0  0  0  0  0  0  0  0  0  0  0  # atno 17343 bound_to 10162
  156.5399  130.8295  151.3265 LP  0  0  0  0  0  0  0  0  0  0  0  0  # atno 17370 bound_to 10713
  157.7390  130.9823  150.2286 LP  0  0  0  0  0  0  0  0  0  0  0  0  # atno 17371 bound_to 10713
  141.2183  133.7443  156.9275 LP  0  0  0  0  0  0  0  0  0  0  0  0  # atno 17394 bound_to 11000
  140.1410  134.9294  157.2466 LP  0  0  0  0  0  0  0  0  0  0  0  0  # atno 17395 bound_to 11000

$$$$
