AV-unprocessed.smi:3312|AV-procd|sdf|12728|dock10
  -GOLD-   2272019 73D 1   1.00000     0.00000
 Structure written by MMmdl.
 38 39  0  0  0  0  0  0  0  0  1 V2000
  146.6538  138.9460  151.7348 C   0  0  0  0  0  0  0  0  0  0  0  0
  147.5455  139.4802  152.8185 C   0  0  0  0  0  0  0  0  0  0  0  0
  148.5391  138.7792  153.5594 C   0  0  0  0  0  0  0  0  0  0  0  0
  149.1514  139.5428  154.4495 N   0  0  0  0  0  0  0  0  0  0  0  0
  148.5706  140.7533  154.3118 N   0  0  0  0  0  0  0  0  0  0  0  0
  149.0004  141.8613  155.1469 C   0  0  0  0  0  0  0  0  0  0  0  0
  150.4343  141.6843  155.6756 C   0  0  0  0  0  0  0  0  0  0  0  0
  150.7790  142.7805  156.5765 N   0  0  0  0  0  0  0  0  0  0  0  0
  150.6549  142.4124  157.9976 C   0  0  0  0  0  0  0  0  0  0  0  0
  151.9229  141.8169  158.6441 C   0  0  0  0  0  0  0  0  0  0  0  0
  152.3335  140.7203  158.2597 O   0  0  0  0  0  0  0  0  0  0  0  0
  152.5622  142.5236  159.6075 N   0  0  0  0  0  0  0  0  0  0  0  0
  153.7234  142.0125  160.3421 C   0  0  0  0  0  0  0  0  0  0  0  0
  153.3386  141.8865  161.8276 C   0  0  0  0  0  0  0  0  0  0  0  0
  152.9085  143.1522  162.3241 O   0  0  0  0  0  0  0  0  0  0  0  0
  151.7996  143.6890  161.6062 C   0  0  0  0  0  0  0  0  0  0  0  0
  152.1734  143.8408  160.1212 C   0  0  0  0  0  0  0  0  0  0  0  0
  147.6009  140.7450  153.3318 C   0  0  0  0  0  0  0  0  0  0  0  0
  147.0753  138.0567  151.2657 H   0  0  0  0  0  0  0  0  0  0  0  0
  146.4940  139.6800  150.9447 H   0  0  0  0  0  0  0  0  0  0  0  0
  145.6726  138.6710  152.1222 H   0  0  0  0  0  0  0  0  0  0  0  0
  148.8322  137.7429  153.4769 H   0  0  0  0  0  0  0  0  0  0  0  0
  148.9341  142.7766  154.5575 H   0  0  0  0  0  0  0  0  0  0  0  0
  148.2984  141.9734  155.9743 H   0  0  0  0  0  0  0  0  0  0  0  0
  150.5260  140.7305  156.1972 H   0  0  0  0  0  0  0  0  0  0  0  0
  151.1211  141.6503  154.8304 H   0  0  0  0  0  0  0  0  0  0  0  0
  150.1915  143.5715  156.3546 H   0  0  0  0  0  0  0  0  0  0  0  0
  150.3922  143.3113  158.5561 H   0  0  0  0  0  0  0  0  0  0  0  0
  149.8190  141.7196  158.1008 H   0  0  0  0  0  0  0  0  0  0  0  0
  154.0730  141.0481  159.9716 H   0  0  0  0  0  0  0  0  0  0  0  0
  154.5597  142.7033  160.2258 H   0  0  0  0  0  0  0  0  0  0  0  0
  152.5486  141.1458  161.9623 H   0  0  0  0  0  0  0  0  0  0  0  0
  154.1948  141.5505  162.4126 H   0  0  0  0  0  0  0  0  0  0  0  0
  150.9282  143.0429  161.7248 H   0  0  0  0  0  0  0  0  0  0  0  0
  151.5401  144.6583  162.0317 H   0  0  0  0  0  0  0  0  0  0  0  0
  153.0166  144.5254  160.0192 H   0  0  0  0  0  0  0  0  0  0  0  0
  151.3545  144.3066  159.5763 H   0  0  0  0  0  0  0  0  0  0  0  0
  147.0337  141.6306  153.0857 H   0  0  0  0  0  0  0  0  0  0  0  0
  1  2  1  0  0  0  0
  1 19  1  0  0  0  0
  1 20  1  0  0  0  0
  1 21  1  0  0  0  0
  2 18  2  0  0  0  0
  2  3  1  0  0  0  0
  3  4  2  0  0  0  0
  3 22  1  0  0  0  0
  4  5  1  0  0  0  0
  5  6  1  0  0  0  0
  5 18  1  0  0  0  0
  6  7  1  0  0  0  0
  6 23  1  0  0  0  0
  6 24  1  0  0  0  0
  7  8  1  0  0  0  0
  7 25  1  0  0  0  0
  7 26  1  0  0  0  0
  8  9  1  0  0  0  0
  8 27  1  0  0  0  0
  9 10  1  0  0  0  0
  9 28  1  0  0  0  0
  9 29  1  0  0  0  0
 10 11  2  0  0  0  0
 10 12  1  0  0  0  0
 12 17  1  0  0  0  0
 12 13  1  0  0  0  0
 13 14  1  0  0  0  0
 13 30  1  0  0  0  0
 13 31  1  0  0  0  0
 14 15  1  0  0  0  0
 14 32  1  0  0  0  0
 14 33  1  0  0  0  0
 15 16  1  0  0  0  0
 16 17  1  0  0  0  0
 16 34  1  0  0  0  0
 16 35  1  0  0  0  0
 17 36  1  0  0  0  0
 17 37  1  0  0  0  0
 18 38  1  0  0  0  0
M  END
> <s_m_source_file>
AV-unprocessed.smi

> <i_m_source_file_index>
3312

> <i_lp_mmshare_version>
43012

> <i_f3d_flags>
0

> <s_epik_input>
W0NIM11jMVtjSF1ubihbY0hdMSlbQ0gyXVtDSDJdW05IXVtDSDJdQyg9TylOMltDSDJdW0NIMl1PW0NIMl1bQ0gyXTI=

> <s_epik_cmdline>
J2VwaWtfcHl0aG9uJywgJy1waCcsICc3LjAnLCAnLXRuJywgJzgnLCAnLW1hJywgJzIwMCcsICctbWV0YWxfYmluZGluZycsICctaW1hZScsICc8aW5maWxlLm1hZT4nLCAnLW9tYWUnLCAnPG91dGZpbGUubWFlPic=

> <r_lp_tautomer_probability>
1

> <r_epik_Ionization_Penalty>
0.513825

> <r_epik_Ionization_Penalty_Charging>
0

> <r_epik_Ionization_Penalty_Neutral>
0.513825

> <r_epik_State_Penalty>
0.518565

> <r_epik_Charging_Adjusted_Penalty>
0.518565

> <i_epik_Tot_Q>
0

> <i_epik_Tot_abs_Q>
0

> <r_epik_Metal_State_Penalty>
0.515505

> <b_epik_Metal_Only>
0

> <s_lp_Force_Field>
OPLS_2005

> <r_lp_Energy>
26.2636

> <b_lp_Chiralities_Consistent>
1

> <s_lp_Variant>
AV-unprocessed.smi:3312-2

> <Gold.Version>
5.8.1

> <Gold.Id.Protein>
6NUR|6NUR_protein|mol2

> <Gold.PLP.Fitness>
43.0621

> <Gold.PLP.PLP>
-38.8557

> <Gold.PLP.part.hbond>
-1.0000

> <Gold.PLP.part.metal>
0.0000

> <Gold.PLP.part.buried>
1.2536

> <Gold.PLP.part.nonpolar>
-39.1545

> <Gold.PLP.part.repulsive>
0.2367

> <Gold.PLP.ligand.clash>
0.0000

> <Gold.PLP.ligand.torsion>
0.8579

> <Gold.PLP.Chemscore.Hbond>
1.0000

> <Gold.PLP.Chemscore.CHOScore>
0.9664

> <Gold.PLP.Chemscore.Metal>
0.0000

> <Gold.Chemscore.Hbonds>
donor molecule, donor type, donor heavy atom, donor atom, acceptor molecule, acceptor atom, score
      L1  H     8    27       P1  8028  1.00
      L1  C     3    22       P1  7948  1.00

> <Gold.PLP.Chemscore.Internal.Correction>
0.0230

> <Gold.Rescore>
     Score         DG    S(hbond)    S(metal)    S(lipo)     H(rot)  DE(clash)    DE(int)     intcor
     15.01     -16.21       1.26        0.00      95.49       1.82       0.28       0.92       ----

> <Gold.Chemscore.Fitness>
15.0104

> <Gold.Chemscore.DG>
-16.2144

> <Gold.Chemscore.ZeroCoef>
-5.4800

> <Gold.Chemscore.Hbond>
1.2646

> <Gold.Chemscore.Metal>
0.0000

> <Gold.Chemscore.Lipo>
95.4949

> <Gold.Chemscore.Internal_Hbond>
0.0000

> <Gold.Chemscore.DEClash>
0.2821

> <Gold.Chemscore.DEInternal>
0.9219

> <Gold.Chemscore.Rot>
1.8213

> <Gold.Chemscore.Internal.Correction>
   9.000000E+99

> <Gold.Chemscore.Hbonds>
donor molecule, donor type, donor heavy atom, donor atom, acceptor molecule, acceptor atom, score
      L1  H     8    27       P1  8028  1.00

> <Gold.Chemscore.Hbond.Weighted>
-4.2239

> <Gold.Chemscore.Metal.Weighted>
-0.0000

> <Gold.Chemscore.Lipo.Weighted>
-11.1729

> <Gold.Chemscore.Internal_Hbond.Weighted>
0.0000

> <Gold.Chemscore.DEClash.Weighted>
0.2821

> <Gold.Chemscore.DEInternal.Weighted>
0.9219

> <Gold.Chemscore.Rot.Weighted>
4.6624

> <Gold.Chemscore.Internal.Correction.Weighted>
   9.000000E+99

> <Gold.Protein.RotatedTorsions>
[ 6907 6896 6895 6894 ] final   26.61 input  -60.11 | X-H torsion
[ 7974 7965 7964 7962 ] final  101.70 input  175.53 | X-H torsion
[ 8008 7997 7996 7995 ] final  -79.53 input   59.86 | X-H torsion
[ 10167 10162 10161 10158 ] final   14.97 input  -65.29 | X-H torsion
[ 10718 10713 10712 10709 ] final   94.29 input   66.30 | X-H torsion
[ 10763 10752 10751 10750 ] final   23.56 input  -60.55 | X-H torsion
[ 11005 11000 10999 10996 ] final  145.69 input  -57.11 | X-H torsion

> <Gold.Protein.ActiveResidues>
 VAL166  LYS551  ARG553  GLY616  TRP617  ASP618  TYR619  PRO620  LYS621  CYS622 
 ASP623  PHE694  ASN695  SER759  ASP760  ASP761  ALA762  ILE779  LEU786  VAL792 
 PHE793  MET794  SER795  GLU796  ALA797  LYS798  CYS799  TRP800  GLU811  SER814 

> <Gold.Protein.RotatedAtoms>
  151.9901  134.9984  160.0560 H   0  0  0  0  0  0  0  0  0  0  0  0  # atno 6907 bound_to 6896
  152.1617  133.4581  159.4872 H   0  0  0  0  0  0  0  0  0  0  0  0  # atno 6908 bound_to 6896
  150.6888  134.1981  159.4354 H   0  0  0  0  0  0  0  0  0  0  0  0  # atno 6909 bound_to 6896
  145.3689  139.2402  143.3466 H   0  0  0  0  0  0  0  0  0  0  0  0  # atno 7974 bound_to 7965
  154.5794  140.0677  156.9081 H   0  0  0  0  0  0  0  0  0  0  0  0  # atno 8008 bound_to 7997
  155.2490  140.3350  155.4266 H   0  0  0  0  0  0  0  0  0  0  0  0  # atno 8009 bound_to 7997
  156.2178  140.1786  156.7533 H   0  0  0  0  0  0  0  0  0  0  0  0  # atno 8010 bound_to 7997
  140.5899  143.8816  150.6864 H   0  0  0  0  0  0  0  0  0  0  0  0  # atno 10167 bound_to 10162
  157.6949  131.0507  150.4164 H   0  0  0  0  0  0  0  0  0  0  0  0  # atno 10718 bound_to 10713
  153.0829  135.6624  154.0008 H   0  0  0  0  0  0  0  0  0  0  0  0  # atno 10763 bound_to 10752
  153.9625  135.2972  155.3434 H   0  0  0  0  0  0  0  0  0  0  0  0  # atno 10764 bound_to 10752
  154.7232  135.5155  153.8917 H   0  0  0  0  0  0  0  0  0  0  0  0  # atno 10765 bound_to 10752
  140.0733  134.9139  157.1381 H   0  0  0  0  0  0  0  0  0  0  0  0  # atno 11005 bound_to 11000
  146.2894  140.4336  142.8745 LP  0  0  0  0  0  0  0  0  0  0  0  0  # atno 17320 bound_to 7965
  144.8591  140.7114  143.6119 LP  0  0  0  0  0  0  0  0  0  0  0  0  # atno 17321 bound_to 7965
  140.2336  143.3717  152.1545 LP  0  0  0  0  0  0  0  0  0  0  0  0  # atno 17342 bound_to 10162
  139.5221  144.7054  151.5369 LP  0  0  0  0  0  0  0  0  0  0  0  0  # atno 17343 bound_to 10162
  156.4543  130.4018  149.6616 LP  0  0  0  0  0  0  0  0  0  0  0  0  # atno 17370 bound_to 10713
  156.3754  130.7552  151.2539 LP  0  0  0  0  0  0  0  0  0  0  0  0  # atno 17371 bound_to 10713
  140.3595  134.2509  155.7188 LP  0  0  0  0  0  0  0  0  0  0  0  0  # atno 17394 bound_to 11000
  141.2020  133.7949  157.0413 LP  0  0  0  0  0  0  0  0  0  0  0  0  # atno 17395 bound_to 11000

$$$$
