AV-unprocessed.smi:2776|AV-procd|sdf|10705|dock3
  -GOLD-   2272015143D 1   1.00000     0.00000
 Structure written by MMmdl.
 25 26  0  0  0  0  0  0  0  0  1 V2000
  149.7826  140.7332  153.3386 O   0  0  0  0  0  0  0  0  0  0  0  0
  149.0108  140.7589  154.5246 C   0  0  1  0  0  0  0  0  0  0  0  0
  149.5635  141.8371  155.4782 C   0  0  0  0  0  0  0  0  0  0  0  0
  150.6613  141.3487  156.2937 N   0  0  0  0  0  0  0  0  0  0  0  0
  151.4150  140.2561  156.0656 C   0  0  0  0  0  0  0  0  0  0  0  0
  152.3764  139.9847  156.9437 N   0  0  0  0  0  0  0  0  0  0  0  0
  152.2290  141.0215  157.8491 C   0  0  0  0  0  0  0  0  0  0  0  0
  152.9493  141.3192  159.0279 C   0  0  0  0  0  0  0  0  0  0  0  0
  152.6164  142.4497  159.8031 C   0  0  0  0  0  0  0  0  0  0  0  0
  153.3177  142.7207  160.9293 F   0  0  0  0  0  0  0  0  0  0  0  0
  151.5596  143.2983  159.4114 C   0  0  0  0  0  0  0  0  0  0  0  0
  151.2466  144.3818  160.1607 F   0  0  0  0  0  0  0  0  0  0  0  0
  150.8282  143.0224  158.2403 C   0  0  0  0  0  0  0  0  0  0  0  0
  151.1635  141.8931  157.4708 C   0  0  0  0  0  0  0  0  0  0  0  0
  147.5299  140.9822  154.1620 C   0  0  0  0  0  0  0  0  0  0  0  0
  146.7638  140.8243  155.2417 F   0  0  0  0  0  0  0  0  0  0  0  0
  147.3649  142.2287  153.7193 F   0  0  0  0  0  0  0  0  0  0  0  0
  147.1383  140.1363  153.2085 F   0  0  0  0  0  0  0  0  0  0  0  0
  149.3568  140.1644  152.7158 H   0  0  0  0  0  0  0  0  0  0  0  0
  149.1099  139.7821  154.9999 H   0  0  0  0  0  0  0  0  0  0  0  0
  149.9069  142.7068  154.9169 H   0  0  0  0  0  0  0  0  0  0  0  0
  148.7759  142.1895  156.1453 H   0  0  0  0  0  0  0  0  0  0  0  0
  151.2489  139.6247  155.2050 H   0  0  0  0  0  0  0  0  0  0  0  0
  153.7606  140.6770  159.3365 H   0  0  0  0  0  0  0  0  0  0  0  0
  150.0211  143.6726  157.9367 H   0  0  0  0  0  0  0  0  0  0  0  0
  1  2  1  0  0  0  0
  1 19  1  0  0  0  0
  2  3  1  0  0  0  0
  2 15  1  0  0  0  0
  2 20  1  0  0  0  0
  3  4  1  0  0  0  0
  3 21  1  0  0  0  0
  3 22  1  0  0  0  0
  4 14  1  0  0  0  0
  4  5  1  0  0  0  0
  5  6  2  0  0  0  0
  5 23  1  0  0  0  0
  6  7  1  0  0  0  0
  7 14  2  0  0  0  0
  7  8  1  0  0  0  0
  8  9  2  0  0  0  0
  8 24  1  0  0  0  0
  9 10  1  0  0  0  0
  9 11  1  0  0  0  0
 11 12  1  0  0  0  0
 11 13  2  0  0  0  0
 13 14  1  0  0  0  0
 13 25  1  0  0  0  0
 15 16  1  0  0  0  0
 15 17  1  0  0  0  0
 15 18  1  0  0  0  0
M  END
> <s_m_source_file>
AV-unprocessed.smi

> <i_m_source_file_index>
2776

> <i_lp_mmshare_version>
43012

> <i_f3d_flags>
0

> <s_epik_input>
RkMoRikoRilbQ0BIXShbT0hdKVtDSDJdbihbY0hdbjEpYyhjMTIpW2NIXWMoRiljKEYpW2NIXTI=

> <s_epik_cmdline>
J2VwaWtfcHl0aG9uJywgJy1waCcsICc3LjAnLCAnLXRuJywgJzgnLCAnLW1hJywgJzIwMCcsICctbWV0YWxfYmluZGluZycsICctaW1hZScsICc8aW5maWxlLm1hZT4nLCAnLW9tYWUnLCAnPG91dGZpbGUubWFlPic=

> <r_epik_Ionization_Penalty>
0.0162713

> <r_epik_Ionization_Penalty_Charging>
0

> <r_epik_Ionization_Penalty_Neutral>
0.0162713

> <r_epik_State_Penalty>
0.00836517

> <r_epik_Charging_Adjusted_Penalty>
0.00836517

> <i_epik_Tot_Q>
0

> <i_epik_Tot_abs_Q>
0

> <r_epik_Metal_State_Penalty>
8.42444e-06

> <b_epik_Metal_Only>
0

> <s_lp_Force_Field>
OPLS_2005

> <r_lp_Energy>
8.8272

> <b_lp_Chiralities_Consistent>
1

> <s_lp_Variant>
AV-unprocessed.smi:2776-2

> <Gold.Version>
5.8.1

> <Gold.Id.Protein>
6NUR|6NUR_protein|mol2

> <Gold.PLP.Fitness>
47.8700

> <Gold.PLP.PLP>
-40.5903

> <Gold.PLP.part.hbond>
-2.8822

> <Gold.PLP.part.metal>
0.0000

> <Gold.PLP.part.buried>
-2.0574

> <Gold.PLP.part.nonpolar>
-33.8710

> <Gold.PLP.part.repulsive>
0.0000

> <Gold.PLP.ligand.clash>
0.0000

> <Gold.PLP.ligand.torsion>
0.6606

> <Gold.PLP.Chemscore.Hbond>
2.8640

> <Gold.PLP.Chemscore.CHOScore>
0.0000

> <Gold.PLP.Chemscore.Metal>
0.0000

> <Gold.Chemscore.Hbonds>
donor molecule, donor type, donor heavy atom, donor atom, acceptor molecule, acceptor atom, score
      L1  H     1    19       P1  7957  0.56
      P1  H  7989  7998       L1     1  0.30
      P1  H  7997  8008       L1     6  1.00
      P1  H  8011  8017       L1     1  1.00

> <Gold.PLP.Chemscore.Internal.Correction>
0.0089

> <Gold.Rescore>
     Score         DG    S(hbond)    S(metal)    S(lipo)     H(rot)  DE(clash)    DE(int)     intcor
     15.14     -15.89       2.17        0.00      72.68       2.08       0.08       0.66       ----

> <Gold.Chemscore.Fitness>
15.1400

> <Gold.Chemscore.DG>
-15.8855

> <Gold.Chemscore.ZeroCoef>
-5.4800

> <Gold.Chemscore.Hbond>
2.1669

> <Gold.Chemscore.Metal>
0.0000

> <Gold.Chemscore.Lipo>
72.6793

> <Gold.Chemscore.Internal_Hbond>
0.0000

> <Gold.Chemscore.DEClash>
0.0819

> <Gold.Chemscore.DEInternal>
0.6636

> <Gold.Chemscore.Rot>
2.0841

> <Gold.Chemscore.Internal.Correction>
   9.000000E+99

> <Gold.Chemscore.Hbonds>
donor molecule, donor type, donor heavy atom, donor atom, acceptor molecule, acceptor atom, score
      L1  H     1    19       P1  7957  0.55
      P1  H  7989  7998       L1     1  0.29
      P1  H  7997  8008       L1     6  0.32
      P1  H  8011  8017       L1     1  0.23

> <Gold.Chemscore.Hbond.Weighted>
-7.2373

> <Gold.Chemscore.Metal.Weighted>
-0.0000

> <Gold.Chemscore.Lipo.Weighted>
-8.5035

> <Gold.Chemscore.Internal_Hbond.Weighted>
0.0000

> <Gold.Chemscore.DEClash.Weighted>
0.0819

> <Gold.Chemscore.DEInternal.Weighted>
0.6636

> <Gold.Chemscore.Rot.Weighted>
5.3353

> <Gold.Chemscore.Internal.Correction.Weighted>
   9.000000E+99

> <Gold.Protein.RotatedTorsions>
[ 6907 6896 6895 6894 ] final  -98.46 input  -60.11 | X-H torsion
[ 7974 7965 7964 7962 ] final  -38.08 input  175.53 | X-H torsion
[ 8008 7997 7996 7995 ] final  -49.50 input   59.86 | X-H torsion
[ 10167 10162 10161 10158 ] final  112.42 input  -65.29 | X-H torsion
[ 10718 10713 10712 10709 ] final -104.87 input   66.30 | X-H torsion
[ 10763 10752 10751 10750 ] final   -7.46 input  -60.55 | X-H torsion
[ 11005 11000 10999 10996 ] final  -65.64 input  -57.11 | X-H torsion

> <Gold.Protein.ActiveResidues>
 VAL166  LYS551  ARG553  GLY616  TRP617  ASP618  TYR619  PRO620  LYS621  CYS622 
 ASP623  PHE694  ASN695  SER759  ASP760  ASP761  ALA762  ILE779  LEU786  VAL792 
 PHE793  MET794  SER795  GLU796  ALA797  LYS798  CYS799  TRP800  GLU811  SER814 

> <Gold.Protein.RotatedAtoms>
  150.7048  134.1190  159.4027 H   0  0  0  0  0  0  0  0  0  0  0  0  # atno 6907 bound_to 6896
  151.9177  135.0309  160.0529 H   0  0  0  0  0  0  0  0  0  0  0  0  # atno 6908 bound_to 6896
  152.2283  133.5002  159.5238 H   0  0  0  0  0  0  0  0  0  0  0  0  # atno 6909 bound_to 6896
  146.0518  140.6470  142.9038 H   0  0  0  0  0  0  0  0  0  0  0  0  # atno 7974 bound_to 7965
  154.4045  140.1295  156.4512 H   0  0  0  0  0  0  0  0  0  0  0  0  # atno 8008 bound_to 7997
  155.7364  140.3490  155.5063 H   0  0  0  0  0  0  0  0  0  0  0  0  # atno 8009 bound_to 7997
  155.9080  140.1031  157.1291 H   0  0  0  0  0  0  0  0  0  0  0  0  # atno 8010 bound_to 7997
  139.6537  144.7129  151.1999 H   0  0  0  0  0  0  0  0  0  0  0  0  # atno 10167 bound_to 10162
  156.0322  130.5536  150.7458 H   0  0  0  0  0  0  0  0  0  0  0  0  # atno 10718 bound_to 10713
  153.4266  135.7011  153.6258 H   0  0  0  0  0  0  0  0  0  0  0  0  # atno 10763 bound_to 10752
  153.4691  135.3719  155.2381 H   0  0  0  0  0  0  0  0  0  0  0  0  # atno 10764 bound_to 10752
  154.8724  135.4038  154.3643 H   0  0  0  0  0  0  0  0  0  0  0  0  # atno 10765 bound_to 10752
  141.1460  133.6685  156.6017 H   0  0  0  0  0  0  0  0  0  0  0  0  # atno 11005 bound_to 11000
  144.7127  140.4097  143.7068 LP  0  0  0  0  0  0  0  0  0  0  0  0  # atno 17320 bound_to 7965
  145.6711  139.1599  143.2754 LP  0  0  0  0  0  0  0  0  0  0  0  0  # atno 17321 bound_to 7965
  140.7549  143.6108  150.8607 LP  0  0  0  0  0  0  0  0  0  0  0  0  # atno 17342 bound_to 10162
  139.9759  143.6005  152.2959 LP  0  0  0  0  0  0  0  0  0  0  0  0  # atno 17343 bound_to 10162
  157.5015  131.0919  151.0308 LP  0  0  0  0  0  0  0  0  0  0  0  0  # atno 17370 bound_to 10713
  157.0688  130.5855  149.5398 LP  0  0  0  0  0  0  0  0  0  0  0  0  # atno 17371 bound_to 10713
  140.3683  134.7628  157.4581 LP  0  0  0  0  0  0  0  0  0  0  0  0  # atno 17394 bound_to 11000
  140.0730  134.5835  155.8621 LP  0  0  0  0  0  0  0  0  0  0  0  0  # atno 17395 bound_to 11000

$$$$
