AV-unprocessed.smi:1834|AV-procd|sdf|7469|dock4
  -GOLD-   22720 9163D 1   1.00000     0.00000
 Structure written by MMmdl.
 46 47  0  0  0  0  0  0  0  0  2 V2000
  149.3586  132.5747  153.7406 C   0  0  0  0  0  0  0  0  0  0  0  0
  148.3447  131.4618  153.4377 C   0  0  0  0  0  0  0  0  0  0  0  0
  147.3569  131.8553  152.4012 N   0  3  1  0  0  0  0  0  0  0  0  0
  146.3052  130.8237  152.2134 C   0  0  0  0  0  0  0  0  0  0  0  0
  145.3820  131.1859  151.0413 C   0  0  0  0  0  0  0  0  0  0  0  0
  144.7532  132.5695  151.2437 C   0  0  0  0  0  0  0  0  0  0  0  0
  145.8461  133.6335  151.4721 C   0  0  1  0  0  0  0  0  0  0  0  0
  145.2711  135.0422  151.7350 C   0  0  0  0  0  0  0  0  0  0  0  0
  146.3000  136.0126  152.1011 N   0  0  0  0  0  0  0  0  0  0  0  0
  146.0784  137.1905  152.7037 C   0  0  0  0  0  0  0  0  0  0  0  0
  144.9552  137.5990  152.9992 O   0  0  0  0  0  0  0  0  0  0  0  0
  147.2308  137.8455  152.9281 N   0  0  0  0  0  0  0  0  0  0  0  0
  147.4180  139.0600  153.5100 C   0  0  0  0  0  0  0  0  0  0  0  0
  146.5911  140.1502  153.5127 C   0  0  0  0  0  0  0  0  0  0  0  0
  147.3296  141.1020  154.2741 C   0  0  0  0  0  0  0  0  0  0  0  0
  146.9370  142.5059  154.6291 C   0  0  0  0  0  0  0  0  0  0  0  0
  148.4985  140.6290  154.6915 N   0  0  0  0  0  0  0  0  0  0  0  0
  148.5577  139.3646  154.2206 N   0  0  0  0  0  0  0  0  0  0  0  0
  149.7188  138.5410  154.4956 C   0  0  0  0  0  0  0  0  0  0  0  0
  146.7650  133.2003  152.6350 C   0  0  0  0  0  0  0  0  0  0  0  0
  150.1222  132.2177  154.4323 H   0  0  0  0  0  0  0  0  0  0  0  0
  148.8908  133.4444  154.2007 H   0  0  0  0  0  0  0  0  0  0  0  0
  149.8653  132.9040  152.8331 H   0  0  0  0  0  0  0  0  0  0  0  0
  148.9042  130.5933  153.0879 H   0  0  0  0  0  0  0  0  0  0  0  0
  147.8302  131.1503  154.3479 H   0  0  0  0  0  0  0  0  0  0  0  0
  146.7664  129.8550  152.0163 H   0  0  0  0  0  0  0  0  0  0  0  0
  145.7261  130.7190  153.1324 H   0  0  0  0  0  0  0  0  0  0  0  0
  145.9489  131.1729  150.1094 H   0  0  0  0  0  0  0  0  0  0  0  0
  144.5993  130.4337  150.9373 H   0  0  0  0  0  0  0  0  0  0  0  0
  144.1485  132.8159  150.3708 H   0  0  0  0  0  0  0  0  0  0  0  0
  144.0738  132.5451  152.0971 H   0  0  0  0  0  0  0  0  0  0  0  0
  146.4564  133.6878  150.5688 H   0  0  0  0  0  0  0  0  0  0  0  0
  144.6992  135.3865  150.8715 H   0  0  0  0  0  0  0  0  0  0  0  0
  144.5633  134.9985  152.5634 H   0  0  0  0  0  0  0  0  0  0  0  0
  147.2554  135.7598  151.8943 H   0  0  0  0  0  0  0  0  0  0  0  0
  148.0748  137.3758  152.6353 H   0  0  0  0  0  0  0  0  0  0  0  0
  145.6204  140.2694  153.0554 H   0  0  0  0  0  0  0  0  0  0  0  0
  145.9486  142.7492  154.2389 H   0  0  0  0  0  0  0  0  0  0  0  0
  147.6432  143.2268  154.2167 H   0  0  0  0  0  0  0  0  0  0  0  0
  146.9097  142.6446  155.7102 H   0  0  0  0  0  0  0  0  0  0  0  0
  149.4050  137.6152  154.9786 H   0  0  0  0  0  0  0  0  0  0  0  0
  150.4141  139.0636  155.1544 H   0  0  0  0  0  0  0  0  0  0  0  0
  150.2278  138.3025  153.5611 H   0  0  0  0  0  0  0  0  0  0  0  0
  146.2069  133.1914  153.5729 H   0  0  0  0  0  0  0  0  0  0  0  0
  147.5580  133.9385  152.7499 H   0  0  0  0  0  0  0  0  0  0  0  0
  147.8627  131.9027  151.5282 H   0  0  0  0  0  0  0  0  0  0  0  0
  1  2  1  0  0  0  0
  1 21  1  0  0  0  0
  1 22  1  0  0  0  0
  1 23  1  0  0  0  0
  2  3  1  0  0  0  0
  2 24  1  0  0  0  0
  2 25  1  0  0  0  0
  3 20  1  0  0  0  0
  3  4  1  0  0  0  0
  3 46  1  0  0  0  0
  4  5  1  0  0  0  0
  4 26  1  0  0  0  0
  4 27  1  0  0  0  0
  5  6  1  0  0  0  0
  5 28  1  0  0  0  0
  5 29  1  0  0  0  0
  6  7  1  0  0  0  0
  6 30  1  0  0  0  0
  6 31  1  0  0  0  0
  7  8  1  0  0  0  0
  7 20  1  0  0  0  0
  7 32  1  0  0  0  0
  8  9  1  0  0  0  0
  8 33  1  0  0  0  0
  8 34  1  0  0  0  0
  9 10  1  0  0  0  0
  9 35  1  0  0  0  0
 10 11  2  0  0  0  0
 10 12  1  0  0  0  0
 12 13  1  0  0  0  0
 12 36  1  0  0  0  0
 13 18  1  0  0  0  0
 13 14  2  0  0  0  0
 14 15  1  0  0  0  0
 14 37  1  0  0  0  0
 15 16  1  0  0  0  0
 15 17  2  0  0  0  0
 16 38  1  0  0  0  0
 16 39  1  0  0  0  0
 16 40  1  0  0  0  0
 17 18  1  0  0  0  0
 18 19  1  0  0  0  0
 19 41  1  0  0  0  0
 19 42  1  0  0  0  0
 19 43  1  0  0  0  0
 20 44  1  0  0  0  0
 20 45  1  0  0  0  0
M  CHG  1   3   1
M  END
> <s_m_source_file>
AV-unprocessed.smi

> <i_m_source_file_index>
1834

> <i_lp_mmshare_version>
43012

> <i_f3d_flags>
0

> <s_epik_input>
W0NIM11bQ0gyXU4xW0NIMl1bQ0gyXVtDSDJdW0NASF0oW0NIMl0xKVtDSDJdW05IXUMoPU8pW05IXWMyW2NIXWMoW0NIM10pbm4yW0NIM10=

> <s_epik_cmdline>
J2VwaWtfcHl0aG9uJywgJy1waCcsICc3LjAnLCAnLXRuJywgJzgnLCAnLW1hJywgJzIwMCcsICctbWV0YWxfYmluZGluZycsICctaW1hZScsICc8aW5maWxlLm1hZT4nLCAnLW9tYWUnLCAnPG91dGZpbGUubWFlPic=

> <r_lp_tautomer_probability>
1

> <r_epik_Ionization_Penalty>
0.000466842

> <r_epik_Ionization_Penalty_Charging>
0.000378984

> <r_epik_Ionization_Penalty_Neutral>
8.78572e-05

> <r_epik_State_Penalty>
0.000231434

> <r_epik_Charging_Adjusted_Penalty>
0.000610418

> <i_epik_Tot_Q>
1

> <i_epik_Tot_abs_Q>
1

> <r_epik_Metal_State_Penalty>
-0

> <b_epik_Metal_Only>
0

> <s_lp_Force_Field>
OPLS_2005

> <r_lp_Energy>
20.6354

> <b_lp_Chiralities_Consistent>
1

> <s_lp_Variant>
AV-unprocessed.smi:1834-1

> <Gold.Version>
5.8.1

> <Gold.Id.Protein>
6NUR|6NUR_protein|mol2

> <Gold.PLP.Fitness>
43.5686

> <Gold.PLP.PLP>
-35.5225

> <Gold.PLP.part.hbond>
-3.0000

> <Gold.PLP.part.metal>
0.0000

> <Gold.PLP.part.buried>
-1.9671

> <Gold.PLP.part.nonpolar>
-32.8422

> <Gold.PLP.part.repulsive>
1.4017

> <Gold.PLP.ligand.clash>
0.0000

> <Gold.PLP.ligand.torsion>
0.3983

> <Gold.PLP.Chemscore.Hbond>
2.9360

> <Gold.PLP.Chemscore.CHOScore>
0.0000

> <Gold.PLP.Chemscore.Metal>
0.0000

> <Gold.Chemscore.Hbonds>
donor molecule, donor type, donor heavy atom, donor atom, acceptor molecule, acceptor atom, score
      L1  H     3    46       P1 10747  0.88
      L1  H     9    35       P1  7948  0.99
      L1  H    12    36       P1  7948  1.00

> <Gold.PLP.Chemscore.Internal.Correction>
0.0348

> <Gold.Rescore>
     Score         DG    S(hbond)    S(metal)    S(lipo)     H(rot)  DE(clash)    DE(int)     intcor
     18.75     -20.19       2.78        0.00      77.66       1.43       0.26       1.19       ----

> <Gold.Chemscore.Fitness>
18.7461

> <Gold.Chemscore.DG>
-20.1912

> <Gold.Chemscore.ZeroCoef>
-5.4800

> <Gold.Chemscore.Hbond>
2.7796

> <Gold.Chemscore.Metal>
0.0000

> <Gold.Chemscore.Lipo>
77.6574

> <Gold.Chemscore.Internal_Hbond>
0.0000

> <Gold.Chemscore.DEClash>
0.2566

> <Gold.Chemscore.DEInternal>
1.1885

> <Gold.Chemscore.Rot>
1.4291

> <Gold.Chemscore.Internal.Correction>
   9.000000E+99

> <Gold.Chemscore.Hbonds>
donor molecule, donor type, donor heavy atom, donor atom, acceptor molecule, acceptor atom, score
      L1  H     3    46       P1 10747  0.85
      L1  H     9    35       P1  7948  0.93
      L1  H    12    36       P1  7948  0.98

> <Gold.Chemscore.Hbond.Weighted>
-9.2838

> <Gold.Chemscore.Metal.Weighted>
-0.0000

> <Gold.Chemscore.Lipo.Weighted>
-9.0859

> <Gold.Chemscore.Internal_Hbond.Weighted>
0.0000

> <Gold.Chemscore.DEClash.Weighted>
0.2566

> <Gold.Chemscore.DEInternal.Weighted>
1.1885

> <Gold.Chemscore.Rot.Weighted>
3.6584

> <Gold.Chemscore.Internal.Correction.Weighted>
   9.000000E+99

> <Gold.Protein.RotatedTorsions>
[ 6907 6896 6895 6894 ] final -140.41 input  -60.11 | X-H torsion
[ 7974 7965 7964 7962 ] final  -86.62 input  175.53 | X-H torsion
[ 8008 7997 7996 7995 ] final   16.34 input   59.86 | X-H torsion
[ 10167 10162 10161 10158 ] final   69.81 input  -65.29 | X-H torsion
[ 10718 10713 10712 10709 ] final  129.53 input   66.30 | X-H torsion
[ 10763 10752 10751 10750 ] final   32.69 input  -60.55 | X-H torsion
[ 11005 11000 10999 10996 ] final  153.86 input  -57.11 | X-H torsion

> <Gold.Protein.ActiveResidues>
 VAL166  LYS551  ARG553  GLY616  TRP617  ASP618  TYR619  PRO620  LYS621  CYS622 
 ASP623  PHE694  ASN695  SER759  ASP760  ASP761  ALA762  ILE779  LEU786  VAL792 
 PHE793  MET794  SER795  GLU796  ALA797  LYS798  CYS799  TRP800  GLU811  SER814 

> <Gold.Protein.RotatedAtoms>
  151.0604  133.5549  159.2634 H   0  0  0  0  0  0  0  0  0  0  0  0  # atno 6907 bound_to 6896
  151.2526  135.0626  159.9078 H   0  0  0  0  0  0  0  0  0  0  0  0  # atno 6908 bound_to 6896
  152.5396  134.0362  159.8101 H   0  0  0  0  0  0  0  0  0  0  0  0  # atno 6909 bound_to 6896
  145.4775  140.9558  143.1883 H   0  0  0  0  0  0  0  0  0  0  0  0  # atno 7974 bound_to 7965
  154.8755  140.2965  155.5456 H   0  0  0  0  0  0  0  0  0  0  0  0  # atno 8008 bound_to 7997
  156.3022  140.2452  156.3684 H   0  0  0  0  0  0  0  0  0  0  0  0  # atno 8009 bound_to 7997
  154.8772  140.0399  157.1749 H   0  0  0  0  0  0  0  0  0  0  0  0  # atno 8010 bound_to 7997
  140.0638  144.5211  150.7275 H   0  0  0  0  0  0  0  0  0  0  0  0  # atno 10167 bound_to 10162
  157.5146  131.1097  150.9243 H   0  0  0  0  0  0  0  0  0  0  0  0  # atno 10718 bound_to 10713
  153.0250  135.6406  154.1394 H   0  0  0  0  0  0  0  0  0  0  0  0  # atno 10763 bound_to 10752
  154.1124  135.2852  155.3229 H   0  0  0  0  0  0  0  0  0  0  0  0  # atno 10764 bound_to 10752
  154.6322  135.5488  153.7756 H   0  0  0  0  0  0  0  0  0  0  0  0  # atno 10765 bound_to 10752
  140.1436  134.8722  157.2363 H   0  0  0  0  0  0  0  0  0  0  0  0  # atno 11005 bound_to 11000
  144.7909  139.6331  143.7114 LP  0  0  0  0  0  0  0  0  0  0  0  0  # atno 17320 bound_to 7965
  146.2361  139.5907  142.9523 LP  0  0  0  0  0  0  0  0  0  0  0  0  # atno 17321 bound_to 7965
  140.7159  143.2544  151.4435 LP  0  0  0  0  0  0  0  0  0  0  0  0  # atno 17342 bound_to 10162
  139.5878  144.1567  152.2050 LP  0  0  0  0  0  0  0  0  0  0  0  0  # atno 17343 bound_to 10162
  156.9873  130.5550  149.5300 LP  0  0  0  0  0  0  0  0  0  0  0  0  # atno 17370 bound_to 10713
  156.0312  130.5403  150.8538 LP  0  0  0  0  0  0  0  0  0  0  0  0  # atno 17371 bound_to 10713
  140.2691  134.3481  155.7379 LP  0  0  0  0  0  0  0  0  0  0  0  0  # atno 17394 bound_to 11000
  141.2189  133.7413  156.9196 LP  0  0  0  0  0  0  0  0  0  0  0  0  # atno 17395 bound_to 11000

$$$$
