AV-unprocessed.smi:334|AV-procd|sdf|2364|dock3
  -GOLD-   2262022273D 1   1.00000     0.00000
 Structure written by MMmdl.
 44 46  0  0  0  0  0  0  0  0  3 V2000
  145.4483  136.1865  151.9331 C   0  0  0  0  0  0  0  0  0  0  0  0
  145.8881  134.7431  152.2344 C   0  0  2  0  0  0  0  0  0  0  0  0
  147.1560  134.7559  152.9615 N   0  0  0  0  0  0  0  0  0  0  0  0
  147.4006  134.1204  154.1176 C   0  0  0  0  0  0  0  0  0  0  0  0
  146.5552  133.4489  154.7108 O   0  0  0  0  0  0  0  0  0  0  0  0
  148.8185  134.2904  154.6824 C   0  0  0  0  0  0  0  0  0  0  0  0
  149.0916  135.6449  155.1924 N   0  0  0  0  0  0  0  0  0  0  0  0
  150.2699  136.2710  154.7402 C   0  0  0  0  0  0  0  0  0  0  0  0
  150.6185  137.5112  155.1347 C   0  0  0  0  0  0  0  0  0  0  0  0
  151.8284  138.1417  154.6539 N   0  3  0  0  0  0  0  0  0  0  0  0
  151.9514  139.3553  154.7849 O   0  0  0  0  0  0  0  0  0  0  0  0
  152.6945  137.4473  154.1305 O   0  5  0  0  0  0  0  0  0  0  0  0
  149.7353  138.1984  156.0569 C   0  0  0  0  0  0  0  0  0  0  0  0
  148.6040  137.6072  156.4887 C   0  0  0  0  0  0  0  0  0  0  0  0
  148.2228  136.2600  156.0518 C   0  0  0  0  0  0  0  0  0  0  0  0
  147.1859  135.7184  156.4351 O   0  0  0  0  0  0  0  0  0  0  0  0
  146.0471  133.8957  150.9501 C   0  0  1  0  0  0  0  0  0  0  0  0
  146.6143  132.4750  151.1763 C   0  0  0  0  0  0  0  0  0  0  0  0
  145.6309  131.5808  150.3983 C   0  0  1  0  0  0  0  0  0  0  0  0
  144.3102  131.4848  151.1840 C   0  0  0  0  0  0  0  0  0  0  0  0
  143.6935  132.8802  150.9778 C   0  0  0  0  0  0  0  0  0  0  0  0
  144.7619  133.6068  150.1348 C   0  0  2  0  0  0  0  0  0  0  0  0
  145.2382  132.4758  149.2285 C   0  0  0  0  0  0  0  0  0  0  0  0
  144.4743  136.2098  151.4444 H   0  0  0  0  0  0  0  0  0  0  0  0
  146.1610  136.6907  151.2798 H   0  0  0  0  0  0  0  0  0  0  0  0
  145.3617  136.7741  152.8477 H   0  0  0  0  0  0  0  0  0  0  0  0
  145.1374  134.2770  152.8735 H   0  0  0  0  0  0  0  0  0  0  0  0
  147.9083  135.2870  152.5473 H   0  0  0  0  0  0  0  0  0  0  0  0
  148.9783  133.5479  155.4665 H   0  0  0  0  0  0  0  0  0  0  0  0
  149.5322  134.0320  153.8985 H   0  0  0  0  0  0  0  0  0  0  0  0
  150.8548  135.6788  154.0511 H   0  0  0  0  0  0  0  0  0  0  0  0
  149.9738  139.1918  156.4077 H   0  0  0  0  0  0  0  0  0  0  0  0
  147.9601  138.1372  157.1751 H   0  0  0  0  0  0  0  0  0  0  0  0
  146.7341  134.4281  150.2890 H   0  0  0  0  0  0  0  0  0  0  0  0
  147.6225  132.3973  150.7677 H   0  0  0  0  0  0  0  0  0  0  0  0
  146.6636  132.1957  152.2297 H   0  0  0  0  0  0  0  0  0  0  0  0
  146.0458  130.6113  150.1212 H   0  0  0  0  0  0  0  0  0  0  0  0
  143.6616  130.7134  150.7667 H   0  0  0  0  0  0  0  0  0  0  0  0
  144.4711  131.2530  152.2375 H   0  0  0  0  0  0  0  0  0  0  0  0
  142.7613  132.7992  150.4175 H   0  0  0  0  0  0  0  0  0  0  0  0
  143.4604  133.3834  151.9151 H   0  0  0  0  0  0  0  0  0  0  0  0
  144.3784  134.4769  149.6015 H   0  0  0  0  0  0  0  0  0  0  0  0
  146.0818  132.7522  148.5932 H   0  0  0  0  0  0  0  0  0  0  0  0
  144.4463  132.0542  148.6067 H   0  0  0  0  0  0  0  0  0  0  0  0
  1  2  1  0  0  0  0
  1 24  1  0  0  0  0
  1 25  1  0  0  0  0
  1 26  1  0  0  0  0
  2  3  1  0  0  0  0
  2 17  1  0  0  0  0
  2 27  1  0  0  0  0
  3  4  1  0  0  0  0
  3 28  1  0  0  0  0
  4  5  2  0  0  0  0
  4  6  1  0  0  0  0
  6  7  1  0  0  0  0
  6 29  1  0  0  0  0
  6 30  1  0  0  0  0
  7 15  1  0  0  0  0
  7  8  1  0  0  0  0
  8  9  2  0  0  0  0
  8 31  1  0  0  0  0
  9 10  1  0  0  0  0
  9 13  1  0  0  0  0
 10 11  2  0  0  0  0
 10 12  1  0  0  0  0
 13 14  2  0  0  0  0
 13 32  1  0  0  0  0
 14 15  1  0  0  0  0
 14 33  1  0  0  0  0
 15 16  2  0  0  0  0
 17 22  1  0  0  0  0
 17 18  1  0  0  0  0
 17 34  1  0  0  0  0
 18 19  1  0  0  0  0
 18 35  1  0  0  0  0
 18 36  1  0  0  0  0
 19 23  1  0  0  0  0
 19 20  1  0  0  0  0
 19 37  1  0  0  0  0
 20 21  1  0  0  0  0
 20 38  1  0  0  0  0
 20 39  1  0  0  0  0
 21 22  1  0  0  0  0
 21 40  1  0  0  0  0
 21 41  1  0  0  0  0
 22 23  1  0  0  0  0
 22 42  1  0  0  0  0
 23 43  1  0  0  0  0
 23 44  1  0  0  0  0
M  CHG  1  10   1
M  CHG  1  12  -1
M  END
> <s_m_source_file>
AV-unprocessed.smi

> <i_m_source_file_index>
334

> <i_lp_mmshare_version>
43012

> <i_f3d_flags>
0

> <s_epik_input>
W0NIMl0xW0NIMl1bQ0BIXShbQ0gyXTIpW0NAQEhdKFtDSDJdW0NAQEhdMTIpW0NASF0oW0NIM10pW05IXUMoPU8pW0NIMl1uM1tjSF1jKFtOK10oPU8pW08tXSlbY0hdW2NIXWMzPU8=

> <s_epik_cmdline>
J2VwaWtfcHl0aG9uJywgJy1waCcsICc3LjAnLCAnLXRuJywgJzgnLCAnLW1hJywgJzIwMCcsICctbWV0YWxfYmluZGluZycsICctaW1hZScsICc8aW5maWxlLm1hZT4nLCAnLW9tYWUnLCAnPG91dGZpbGUubWFlPic=

> <r_lp_tautomer_probability>
1

> <r_epik_Ionization_Penalty>
2.17081e-08

> <r_epik_Ionization_Penalty_Charging>
8.1195e-11

> <r_epik_Ionization_Penalty_Neutral>
2.16269e-08

> <r_epik_State_Penalty>
-0

> <r_epik_Charging_Adjusted_Penalty>
8.1195e-11

> <i_epik_Tot_Q>
0

> <i_epik_Tot_abs_Q>
2

> <r_epik_Metal_State_Penalty>
-0

> <b_epik_Metal_Only>
0

> <s_lp_Force_Field>
OPLS_2005

> <r_lp_Energy>
62.3999

> <b_lp_Chiralities_Consistent>
1

> <s_lp_Variant>
AV-unprocessed.smi:334-3

> <Gold.Version>
5.8.1

> <Gold.Id.Protein>
6NUR|6NUR_protein|mol2

> <Gold.PLP.Fitness>
43.1033

> <Gold.PLP.PLP>
-33.8683

> <Gold.PLP.part.hbond>
-3.0000

> <Gold.PLP.part.metal>
0.0000

> <Gold.PLP.part.buried>
-0.5310

> <Gold.PLP.part.nonpolar>
-29.9598

> <Gold.PLP.part.repulsive>
0.2336

> <Gold.PLP.ligand.clash>
0.0000

> <Gold.PLP.ligand.torsion>
0.4571

> <Gold.PLP.Chemscore.Hbond>
2.5840

> <Gold.PLP.Chemscore.CHOScore>
0.7772

> <Gold.PLP.Chemscore.Metal>
0.0000

> <Gold.Chemscore.Hbonds>
donor molecule, donor type, donor heavy atom, donor atom, acceptor molecule, acceptor atom, score
      L1  H     3    28       P1  7948  1.00
      P1  H  7989  7998       L1    11  0.96
      P1  H 10752 10765       L1    12  0.59
      L1  C     8    31       P1  7949  0.63

> <Gold.PLP.Chemscore.Internal.Correction>
0.0655

> <Gold.Rescore>
     Score         DG    S(hbond)    S(metal)    S(lipo)     H(rot)  DE(clash)    DE(int)     intcor
     17.33     -20.23       2.70        0.00      87.13       1.75       0.08       2.81       ----

> <Gold.Chemscore.Fitness>
17.3345

> <Gold.Chemscore.DG>
-20.2272

> <Gold.Chemscore.ZeroCoef>
-5.4800

> <Gold.Chemscore.Hbond>
2.7024

> <Gold.Chemscore.Metal>
0.0000

> <Gold.Chemscore.Lipo>
87.1327

> <Gold.Chemscore.Internal_Hbond>
0.0000

> <Gold.Chemscore.DEClash>
0.0840

> <Gold.Chemscore.DEInternal>
2.8087

> <Gold.Chemscore.Rot>
1.7474

> <Gold.Chemscore.Internal.Correction>
   9.000000E+99

> <Gold.Chemscore.Hbonds>
donor molecule, donor type, donor heavy atom, donor atom, acceptor molecule, acceptor atom, score
      L1  H     3    28       P1  7948  0.94
      P1  H  7989  7998       L1    11  0.89
      P1  H 10752 10765       L1    12  0.60

> <Gold.Chemscore.Hbond.Weighted>
-9.0260

> <Gold.Chemscore.Metal.Weighted>
-0.0000

> <Gold.Chemscore.Lipo.Weighted>
-10.1945

> <Gold.Chemscore.Internal_Hbond.Weighted>
0.0000

> <Gold.Chemscore.DEClash.Weighted>
0.0840

> <Gold.Chemscore.DEInternal.Weighted>
2.8087

> <Gold.Chemscore.Rot.Weighted>
4.4733

> <Gold.Chemscore.Internal.Correction.Weighted>
   9.000000E+99

> <Gold.Protein.RotatedTorsions>
[ 6907 6896 6895 6894 ] final   48.85 input  -60.11 | X-H torsion
[ 7974 7965 7964 7962 ] final   39.24 input  175.53 | X-H torsion
[ 8008 7997 7996 7995 ] final   74.24 input   59.86 | X-H torsion
[ 10167 10162 10161 10158 ] final  -81.61 input  -65.29 | X-H torsion
[ 10718 10713 10712 10709 ] final -147.09 input   66.30 | X-H torsion
[ 10763 10752 10751 10750 ] final  144.44 input  -60.55 | X-H torsion
[ 11005 11000 10999 10996 ] final -140.48 input  -57.11 | X-H torsion

> <Gold.Protein.ActiveResidues>
 VAL166  LYS551  ARG553  GLY616  TRP617  ASP618  TYR619  PRO620  LYS621  CYS622 
 ASP623  PHE694  ASN695  SER759  ASP760  ASP761  ALA762  ILE779  LEU786  VAL792 
 PHE793  MET794  SER795  GLU796  ALA797  LYS798  CYS799  TRP800  GLU811  SER814 

> <Gold.Protein.RotatedAtoms>
  152.2842  134.7795  160.0390 H   0  0  0  0  0  0  0  0  0  0  0  0  # atno 6907 bound_to 6896
  151.8364  133.3411  159.3637 H   0  0  0  0  0  0  0  0  0  0  0  0  # atno 6908 bound_to 6896
  150.7202  134.5362  159.5769 H   0  0  0  0  0  0  0  0  0  0  0  0  # atno 6909 bound_to 6896
  146.1000  139.5676  142.9420 H   0  0  0  0  0  0  0  0  0  0  0  0  # atno 7974 bound_to 7965
  155.7954  140.3478  155.5372 H   0  0  0  0  0  0  0  0  0  0  0  0  # atno 8008 bound_to 7997
  155.8592  140.0968  157.1645 H   0  0  0  0  0  0  0  0  0  0  0  0  # atno 8009 bound_to 7997
  154.4011  140.1362  156.3927 H   0  0  0  0  0  0  0  0  0  0  0  0  # atno 8010 bound_to 7997
  140.4396  143.2519  151.8645 H   0  0  0  0  0  0  0  0  0  0  0  0  # atno 10167 bound_to 10162
  156.4031  130.7944  151.2156 H   0  0  0  0  0  0  0  0  0  0  0  0  # atno 10718 bound_to 10713
  153.9889  135.2934  155.3414 H   0  0  0  0  0  0  0  0  0  0  0  0  # atno 10763 bound_to 10752
  154.7226  135.5102  153.8839 H   0  0  0  0  0  0  0  0  0  0  0  0  # atno 10764 bound_to 10752
  153.0819  135.6681  154.0143 H   0  0  0  0  0  0  0  0  0  0  0  0  # atno 10765 bound_to 10752
  140.8418  134.2393  157.4806 H   0  0  0  0  0  0  0  0  0  0  0  0  # atno 11005 bound_to 11000
  145.5874  141.0374  143.2089 LP  0  0  0  0  0  0  0  0  0  0  0  0  # atno 17320 bound_to 7965
  144.7425  139.7410  143.7305 LP  0  0  0  0  0  0  0  0  0  0  0  0  # atno 17321 bound_to 7965
  139.4789  144.5244  151.8756 LP  0  0  0  0  0  0  0  0  0  0  0  0  # atno 17342 bound_to 10162
  140.4334  144.2085  150.5888 LP  0  0  0  0  0  0  0  0  0  0  0  0  # atno 17343 bound_to 10162
  157.7504  131.0280  150.4032 LP  0  0  0  0  0  0  0  0  0  0  0  0  # atno 17370 bound_to 10713
  156.4315  130.3973  149.6757 LP  0  0  0  0  0  0  0  0  0  0  0  0  # atno 17371 bound_to 10713
  139.8703  134.9639  156.4478 LP  0  0  0  0  0  0  0  0  0  0  0  0  # atno 17394 bound_to 11000
  140.8887  133.7864  155.9547 LP  0  0  0  0  0  0  0  0  0  0  0  0  # atno 17395 bound_to 11000

$$$$
