AV-unprocessed.smi:1306|AV-procd|sdf|5435|dock5
  -GOLD-   22720 5 03D 1   1.00000     0.00000
 Structure written by MMmdl.
 38 39  0  0  0  0  0  0  0  0  2 V2000
  151.8049  136.9257  159.1699 O   0  0  0  0  0  0  0  0  0  0  0  0
  152.4499  137.5134  158.3003 C   0  0  0  0  0  0  0  0  0  0  0  0
  152.4630  137.0033  156.8529 C   0  0  0  0  0  0  0  0  0  0  0  0
  151.5088  137.7136  155.9864 N   0  0  0  0  0  0  0  0  0  0  0  0
  150.2687  137.1000  155.7370 C   0  0  0  0  0  0  0  0  0  0  0  0
  149.3326  137.6791  154.9612 C   0  0  0  0  0  0  0  0  0  0  0  0
  149.6318  138.9784  154.3721 C   0  0  0  0  0  0  0  0  0  0  0  0
  148.7902  139.5206  153.6584 O   0  0  0  0  0  0  0  0  0  0  0  0
  150.8480  139.5346  154.6461 N   0  5  0  0  0  0  0  0  0  0  0  0
  151.7896  138.9349  155.4390 C   0  0  0  0  0  0  0  0  0  0  0  0
  152.8806  139.4556  155.6749 O   0  0  0  0  0  0  0  0  0  0  0  0
  153.1943  138.5996  158.5491 N   0  0  0  0  0  0  0  0  0  0  0  0
  153.3048  139.2437  159.8512 C   0  0  0  0  0  0  0  0  0  0  0  0
  154.1291  140.5344  159.7576 C   0  0  0  0  0  0  0  0  0  0  0  0
  153.7355  141.6930  161.1000 S   0  0  0  0  0  0  0  0  0  0  0  0
  152.4662  142.7109  160.2943 C   0  0  0  0  0  0  0  0  0  0  0  0
  153.0096  143.4719  159.0860 C   0  0  0  0  0  0  0  0  0  0  0  0
  152.0033  144.6035  158.8669 C   0  0  0  0  0  0  0  0  0  0  0  0
  151.4092  144.9133  160.2492 C   0  0  0  0  0  0  0  0  0  0  0  0
  151.9161  143.8182  161.1984 C   0  0  0  0  0  0  0  0  0  0  0  0
  153.4709  137.0811  156.4405 H   0  0  0  0  0  0  0  0  0  0  0  0
  152.2418  135.9353  156.8685 H   0  0  0  0  0  0  0  0  0  0  0  0
  150.1245  136.1424  156.2154 H   0  0  0  0  0  0  0  0  0  0  0  0
  148.3836  137.1958  154.7818 H   0  0  0  0  0  0  0  0  0  0  0  0
  153.6926  139.0247  157.7807 H   0  0  0  0  0  0  0  0  0  0  0  0
  152.3100  139.4596  160.2440 H   0  0  0  0  0  0  0  0  0  0  0  0
  153.7817  138.5538  160.5489 H   0  0  0  0  0  0  0  0  0  0  0  0
  155.1914  140.2958  159.8108 H   0  0  0  0  0  0  0  0  0  0  0  0
  153.9595  141.0193  158.7961 H   0  0  0  0  0  0  0  0  0  0  0  0
  151.6486  142.0667  159.9670 H   0  0  0  0  0  0  0  0  0  0  0  0
  153.9872  143.8955  159.3205 H   0  0  0  0  0  0  0  0  0  0  0  0
  153.1243  142.8372  158.2068 H   0  0  0  0  0  0  0  0  0  0  0  0
  152.4660  145.4783  158.4093 H   0  0  0  0  0  0  0  0  0  0  0  0
  151.2113  144.2650  158.1977 H   0  0  0  0  0  0  0  0  0  0  0  0
  151.7163  145.8985  160.6017 H   0  0  0  0  0  0  0  0  0  0  0  0
  150.3199  144.9108  160.1994 H   0  0  0  0  0  0  0  0  0  0  0  0
  151.1340  143.4582  161.8673 H   0  0  0  0  0  0  0  0  0  0  0  0
  152.7167  144.2240  161.8186 H   0  0  0  0  0  0  0  0  0  0  0  0
  1  2  2  0  0  0  0
  2  3  1  0  0  0  0
  2 12  1  0  0  0  0
  3  4  1  0  0  0  0
  3 21  1  0  0  0  0
  3 22  1  0  0  0  0
  4 10  1  0  0  0  0
  4  5  1  0  0  0  0
  5  6  2  0  0  0  0
  5 23  1  0  0  0  0
  6  7  1  0  0  0  0
  6 24  1  0  0  0  0
  7  8  2  0  0  0  0
  7  9  1  0  0  0  0
  9 10  1  0  0  0  0
 10 11  2  0  0  0  0
 12 13  1  0  0  0  0
 12 25  1  0  0  0  0
 13 14  1  0  0  0  0
 13 26  1  0  0  0  0
 13 27  1  0  0  0  0
 14 15  1  0  0  0  0
 14 28  1  0  0  0  0
 14 29  1  0  0  0  0
 15 16  1  0  0  0  0
 16 20  1  0  0  0  0
 16 17  1  0  0  0  0
 16 30  1  0  0  0  0
 17 18  1  0  0  0  0
 17 31  1  0  0  0  0
 17 32  1  0  0  0  0
 18 19  1  0  0  0  0
 18 33  1  0  0  0  0
 18 34  1  0  0  0  0
 19 20  1  0  0  0  0
 19 35  1  0  0  0  0
 19 36  1  0  0  0  0
 20 37  1  0  0  0  0
 20 38  1  0  0  0  0
M  CHG  1   9  -1
M  END
> <s_m_source_file>
AV-unprocessed.smi

> <i_m_source_file_index>
1306

> <i_lp_mmshare_version>
43012

> <i_f3d_flags>
0

> <s_epik_input>
Tz1jMVtuSF1jKD1PKVtjSF1bY0hdbjFbQ0gyXUMoPU8pW05IXVtDSDJdW0NIMl1TW0NIXTJbQ0gyXVtDSDJdW0NIMl1bQ0gyXTI=

> <s_epik_cmdline>
J2VwaWtfcHl0aG9uJywgJy1waCcsICc3LjAnLCAnLXRuJywgJzgnLCAnLW1hJywgJzIwMCcsICctbWV0YWxfYmluZGluZycsICctaW1hZScsICc8aW5maWxlLm1hZT4nLCAnLW9tYWUnLCAnPG91dGZpbGUubWFlPic=

> <r_lp_tautomer_probability>
0.999537

> <r_epik_Ionization_Penalty>
3.06336

> <r_epik_Ionization_Penalty_Charging>
2.63481e-08

> <r_epik_Ionization_Penalty_Neutral>
3.06336

> <r_epik_State_Penalty>
3.06238

> <r_epik_Charging_Adjusted_Penalty>
3.06238

> <i_epik_Tot_Q>
-1

> <i_epik_Tot_abs_Q>
1

> <r_epik_Metal_State_Penalty>
0.458539

> <b_epik_Metal_Only>
1

> <s_lp_Force_Field>
OPLS_2005

> <r_lp_Energy>
29.7989

> <b_lp_Chiralities_Consistent>
1

> <s_lp_Variant>
AV-unprocessed.smi:1306-2

> <Gold.Version>
5.8.1

> <Gold.Id.Protein>
6NUR|6NUR_protein|mol2

> <Gold.PLP.Fitness>
48.4952

> <Gold.PLP.PLP>
-41.3871

> <Gold.PLP.part.hbond>
-2.9673

> <Gold.PLP.part.metal>
0.0000

> <Gold.PLP.part.buried>
-6.8229

> <Gold.PLP.part.nonpolar>
-34.3553

> <Gold.PLP.part.repulsive>
2.9920

> <Gold.PLP.ligand.clash>
0.0000

> <Gold.PLP.ligand.torsion>
0.9888

> <Gold.PLP.Chemscore.Hbond>
3.0000

> <Gold.PLP.Chemscore.CHOScore>
0.0000

> <Gold.PLP.Chemscore.Metal>
0.0000

> <Gold.Chemscore.Hbonds>
donor molecule, donor type, donor heavy atom, donor atom, acceptor molecule, acceptor atom, score
      P1  H  6896  6907       L1     1  1.00
      P1  H  7989  7998       L1     9  1.00
      P1  H  7997  8009       L1    11  1.00

> <Gold.PLP.Chemscore.Internal.Correction>
0.0858

> <Gold.Rescore>
     Score         DG    S(hbond)    S(metal)    S(lipo)     H(rot)  DE(clash)    DE(int)     intcor
     18.85     -20.54       2.82        0.00     100.20       2.38       0.58       1.11       ----

> <Gold.Chemscore.Fitness>
18.8501

> <Gold.Chemscore.DG>
-20.5396

> <Gold.Chemscore.ZeroCoef>
-5.4800

> <Gold.Chemscore.Hbond>
2.8206

> <Gold.Chemscore.Metal>
0.0000

> <Gold.Chemscore.Lipo>
100.1988

> <Gold.Chemscore.Internal_Hbond>
0.0000

> <Gold.Chemscore.DEClash>
0.5761

> <Gold.Chemscore.DEInternal>
1.1134

> <Gold.Chemscore.Rot>
2.3767

> <Gold.Chemscore.Internal.Correction>
   9.000000E+99

> <Gold.Chemscore.Hbonds>
donor molecule, donor type, donor heavy atom, donor atom, acceptor molecule, acceptor atom, score
      P1  H  6896  6907       L1     1  0.96
      P1  H  7989  7998       L1     9  0.81
      P1  H  7997  8009       L1    11  1.00

> <Gold.Chemscore.Hbond.Weighted>
-9.4207

> <Gold.Chemscore.Metal.Weighted>
-0.0000

> <Gold.Chemscore.Lipo.Weighted>
-11.7233

> <Gold.Chemscore.Internal_Hbond.Weighted>
0.0000

> <Gold.Chemscore.DEClash.Weighted>
0.5761

> <Gold.Chemscore.DEInternal.Weighted>
1.1134

> <Gold.Chemscore.Rot.Weighted>
6.0844

> <Gold.Chemscore.Internal.Correction.Weighted>
   9.000000E+99

> <Gold.Protein.RotatedTorsions>
[ 6907 6896 6895 6894 ] final    1.20 input  -60.11 | X-H torsion
[ 7974 7965 7964 7962 ] final -125.49 input  175.53 | X-H torsion
[ 8008 7997 7996 7995 ] final -161.35 input   59.86 | X-H torsion
[ 10167 10162 10161 10158 ] final  -77.25 input  -65.29 | X-H torsion
[ 10718 10713 10712 10709 ] final   32.47 input   66.30 | X-H torsion
[ 10763 10752 10751 10750 ] final   61.59 input  -60.55 | X-H torsion
[ 11005 11000 10999 10996 ] final -114.70 input  -57.11 | X-H torsion

> <Gold.Protein.ActiveResidues>
 VAL166  LYS551  ARG553  GLY616  TRP617  ASP618  TYR619  PRO620  LYS621  CYS622 
 ASP623  PHE694  ASN695  SER759  ASP760  ASP761  ALA762  ILE779  LEU786  VAL792 
 PHE793  MET794  SER795  GLU796  ALA797  LYS798  CYS799  TRP800  GLU811  SER814 

> <Gold.Protein.RotatedAtoms>
  151.5888  135.1054  160.0034 H   0  0  0  0  0  0  0  0  0  0  0  0  # atno 6907 bound_to 6896
  152.4317  133.7284  159.6584 H   0  0  0  0  0  0  0  0  0  0  0  0  # atno 6908 bound_to 6896
  150.8210  133.8183  159.3162 H   0  0  0  0  0  0  0  0  0  0  0  0  # atno 6909 bound_to 6896
  144.9971  140.7786  143.4519 H   0  0  0  0  0  0  0  0  0  0  0  0  # atno 7974 bound_to 7965
  155.7909  140.0878  157.2009 H   0  0  0  0  0  0  0  0  0  0  0  0  # atno 8008 bound_to 7997
  154.3985  140.1490  156.3220 H   0  0  0  0  0  0  0  0  0  0  0  0  # atno 8009 bound_to 7997
  155.8560  140.3432  155.5727 H   0  0  0  0  0  0  0  0  0  0  0  0  # atno 8010 bound_to 7997
  140.4786  143.2408  151.8093 H   0  0  0  0  0  0  0  0  0  0  0  0  # atno 10167 bound_to 10162
  157.2857  130.7277  149.6581 H   0  0  0  0  0  0  0  0  0  0  0  0  # atno 10718 bound_to 10713
  152.9955  135.5495  154.6059 H   0  0  0  0  0  0  0  0  0  0  0  0  # atno 10763 bound_to 10752
  154.5390  135.2818  155.1115 H   0  0  0  0  0  0  0  0  0  0  0  0  # atno 10764 bound_to 10752
  154.2400  135.6418  153.5256 H   0  0  0  0  0  0  0  0  0  0  0  0  # atno 10765 bound_to 10752
  141.0535  133.9650  157.2795 H   0  0  0  0  0  0  0  0  0  0  0  0  # atno 11005 bound_to 11000
  145.2205  139.2161  143.5096 LP  0  0  0  0  0  0  0  0  0  0  0  0  # atno 17320 bound_to 7965
  146.3444  140.2061  142.8589 LP  0  0  0  0  0  0  0  0  0  0  0  0  # atno 17321 bound_to 7965
  139.4830  144.4801  151.9317 LP  0  0  0  0  0  0  0  0  0  0  0  0  # atno 17342 bound_to 10162
  140.3886  144.2644  150.5901 LP  0  0  0  0  0  0  0  0  0  0  0  0  # atno 17343 bound_to 10162
  155.9665  130.4324  150.4963 LP  0  0  0  0  0  0  0  0  0  0  0  0  # atno 17370 bound_to 10713
  157.2916  131.0627  151.2130 LP  0  0  0  0  0  0  0  0  0  0  0  0  # atno 17371 bound_to 10713
  139.9370  135.0195  156.8588 LP  0  0  0  0  0  0  0  0  0  0  0  0  # atno 17394 bound_to 11000
  140.6010  134.0172  155.7537 LP  0  0  0  0  0  0  0  0  0  0  0  0  # atno 17395 bound_to 11000

$$$$
