AV-unprocessed.smi:2032|AV-procd|sdf|8245|dock8
  -GOLD-   2272010513D 1   1.00000     0.00000
 Structure written by MMmdl.
 41 42  0  0  0  0  0  0  0  0  2 V2000
  149.8900  135.6727  155.1656 C   0  0  0  0  0  0  0  0  0  0  0  0
  149.4717  136.9584  155.8996 C   0  0  2  0  0  0  0  0  0  0  0  0
  148.3011  137.6964  155.2201 C   0  0  0  0  0  0  0  0  0  0  0  0
  148.6788  138.3946  153.9858 N   0  0  0  0  0  0  0  0  0  0  0  0
  147.5367  139.1145  153.3725 C   0  0  2  0  0  0  0  0  0  0  0  0
  147.1676  140.4111  154.1383 C   0  0  0  0  0  0  0  0  0  0  0  0
  146.2595  138.2355  153.2244 C   0  0  0  0  0  0  0  0  0  0  0  0
  146.5152  136.9254  152.6298 N   0  0  0  0  0  0  0  0  0  0  0  0
  145.5852  136.0362  152.2528 C   0  0  0  0  0  0  0  0  0  0  0  0
  144.3885  136.3040  152.3844 O   0  0  0  0  0  0  0  0  0  0  0  0
  146.1004  134.8903  151.7521 N   0  5  0  0  0  0  0  0  0  0  0  0
  145.2886  133.9651  151.2151 C   0  0  0  0  0  0  0  0  0  0  0  0
  145.7009  133.0681  150.3120 N   0  0  0  0  0  0  0  0  0  0  0  0
  144.6939  132.1944  149.8977 C   0  0  0  0  0  0  0  0  0  0  0  0
  143.4888  132.4255  150.5060 C   0  0  0  0  0  0  0  0  0  0  0  0
  143.5830  133.7568  151.6232 S   0  0  0  0  0  0  0  0  0  0  0  0
  149.8072  139.2771  154.2964 C   0  0  0  0  0  0  0  0  0  0  0  0
  150.9986  138.5282  154.9208 C   0  0  1  0  0  0  0  0  0  0  0  0
  152.1335  139.4795  155.3150 C   0  0  0  0  0  0  0  0  0  0  0  0
  150.5722  137.8433  156.0935 O   0  0  0  0  0  0  0  0  0  0  0  0
  149.0666  134.9588  155.1367 H   0  0  0  0  0  0  0  0  0  0  0  0
  150.7268  135.1908  155.6710 H   0  0  0  0  0  0  0  0  0  0  0  0
  150.1868  135.8663  154.1351 H   0  0  0  0  0  0  0  0  0  0  0  0
  149.1437  136.6604  156.8958 H   0  0  0  0  0  0  0  0  0  0  0  0
  147.5238  136.9592  155.0279 H   0  0  0  0  0  0  0  0  0  0  0  0
  147.8809  138.4152  155.9253 H   0  0  0  0  0  0  0  0  0  0  0  0
  147.8352  139.4157  152.3673 H   0  0  0  0  0  0  0  0  0  0  0  0
  146.2976  140.9120  153.7151 H   0  0  0  0  0  0  0  0  0  0  0  0
  147.9624  141.1544  154.1022 H   0  0  0  0  0  0  0  0  0  0  0  0
  146.9470  140.2009  155.1851 H   0  0  0  0  0  0  0  0  0  0  0  0
  145.7755  138.0510  154.1825 H   0  0  0  0  0  0  0  0  0  0  0  0
  145.5264  138.7500  152.6025 H   0  0  0  0  0  0  0  0  0  0  0  0
  147.4820  136.6645  152.5027 H   0  0  0  0  0  0  0  0  0  0  0  0
  144.9251  131.4350  149.1657 H   0  0  0  0  0  0  0  0  0  0  0  0
  142.5578  131.8969  150.3681 H   0  0  0  0  0  0  0  0  0  0  0  0
  150.1803  139.7561  153.3939 H   0  0  0  0  0  0  0  0  0  0  0  0
  149.4793  140.0737  154.9661 H   0  0  0  0  0  0  0  0  0  0  0  0
  151.3918  137.8085  154.2024 H   0  0  0  0  0  0  0  0  0  0  0  0
  152.5102  140.0216  154.4472 H   0  0  0  0  0  0  0  0  0  0  0  0
  152.9683  138.9307  155.7515 H   0  0  0  0  0  0  0  0  0  0  0  0
  151.7967  140.2131  156.0481 H   0  0  0  0  0  0  0  0  0  0  0  0
  1  2  1  0  0  0  0
  1 21  1  0  0  0  0
  1 22  1  0  0  0  0
  1 23  1  0  0  0  0
  2 20  1  0  0  0  0
  2  3  1  0  0  0  0
  2 24  1  0  0  0  0
  3  4  1  0  0  0  0
  3 25  1  0  0  0  0
  3 26  1  0  0  0  0
  4  5  1  0  0  0  0
  4 17  1  0  0  0  0
  5  6  1  0  0  0  0
  5  7  1  0  0  0  0
  5 27  1  0  0  0  0
  6 28  1  0  0  0  0
  6 29  1  0  0  0  0
  6 30  1  0  0  0  0
  7  8  1  0  0  0  0
  7 31  1  0  0  0  0
  7 32  1  0  0  0  0
  8  9  1  0  0  0  0
  8 33  1  0  0  0  0
  9 10  2  0  0  0  0
  9 11  1  0  0  0  0
 11 12  1  0  0  0  0
 12 16  1  0  0  0  0
 12 13  2  0  0  0  0
 13 14  1  0  0  0  0
 14 15  2  0  0  0  0
 14 34  1  0  0  0  0
 15 16  1  0  0  0  0
 15 35  1  0  0  0  0
 17 18  1  0  0  0  0
 17 36  1  0  0  0  0
 17 37  1  0  0  0  0
 18 19  1  0  0  0  0
 18 20  1  0  0  0  0
 18 38  1  0  0  0  0
 19 39  1  0  0  0  0
 19 40  1  0  0  0  0
 19 41  1  0  0  0  0
M  CHG  1  11  -1
M  END
> <s_m_source_file>
AV-unprocessed.smi

> <i_m_source_file_index>
2032

> <i_lp_mmshare_version>
43012

> <i_f3d_flags>
0

> <s_epik_input>
W0NIM11bQ0BASF0xW0NIMl1OKFtDSDJdW0NASF0oTzEpW0NIM10pW0NASF0oW0NIM10pW0NIMl1bTkhdQyg9TylbTkhdYzJuW2NIXVtjSF1zMg==

> <s_epik_cmdline>
J2VwaWtfcHl0aG9uJywgJy1waCcsICc3LjAnLCAnLXRuJywgJzgnLCAnLW1hJywgJzIwMCcsICctbWV0YWxfYmluZGluZycsICctaW1hZScsICc8aW5maWxlLm1hZT4nLCAnLW9tYWUnLCAnPG91dGZpbGUubWFlPic=

> <r_lp_tautomer_probability>
0.999

> <r_epik_Ionization_Penalty>
7.22375

> <r_epik_Ionization_Penalty_Charging>
5.82415

> <r_epik_Ionization_Penalty_Neutral>
1.39959

> <r_epik_State_Penalty>
6.03347

> <r_epik_Charging_Adjusted_Penalty>
11.8576

> <i_epik_Tot_Q>
-1

> <i_epik_Tot_abs_Q>
1

> <r_epik_Metal_State_Penalty>
2.01024

> <b_epik_Metal_Only>
1

> <s_lp_Force_Field>
OPLS_2005

> <r_lp_Energy>
26.7208

> <b_lp_Chiralities_Consistent>
1

> <s_lp_Variant>
AV-unprocessed.smi:2032-15

> <Gold.Version>
5.8.1

> <Gold.Id.Protein>
6NUR|6NUR_protein|mol2

> <Gold.PLP.Fitness>
34.9647

> <Gold.PLP.PLP>
-29.6122

> <Gold.PLP.part.hbond>
-1.0000

> <Gold.PLP.part.metal>
0.0000

> <Gold.PLP.part.buried>
-5.1905

> <Gold.PLP.part.nonpolar>
-25.2193

> <Gold.PLP.part.repulsive>
1.4233

> <Gold.PLP.ligand.clash>
0.0000

> <Gold.PLP.ligand.torsion>
0.3512

> <Gold.PLP.Chemscore.Hbond>
1.0000

> <Gold.PLP.Chemscore.CHOScore>
1.0000

> <Gold.PLP.Chemscore.Metal>
0.0000

> <Gold.Chemscore.Hbonds>
donor molecule, donor type, donor heavy atom, donor atom, acceptor molecule, acceptor atom, score
      L1  H     8    33       P1  7948  1.00
      L1  C    15    35       P1 10952  1.00

> <Gold.PLP.Chemscore.Internal.Correction>
0.0548

> <Gold.Rescore>
     Score         DG    S(hbond)    S(metal)    S(lipo)     H(rot)  DE(clash)    DE(int)     intcor
     11.63     -13.93       1.00        0.00      77.53       1.54       0.49       1.81       ----

> <Gold.Chemscore.Fitness>
11.6307

> <Gold.Chemscore.DG>
-13.9290

> <Gold.Chemscore.ZeroCoef>
-5.4800

> <Gold.Chemscore.Hbond>
0.9963

> <Gold.Chemscore.Metal>
0.0000

> <Gold.Chemscore.Lipo>
77.5339

> <Gold.Chemscore.Internal_Hbond>
0.0000

> <Gold.Chemscore.DEClash>
0.4913

> <Gold.Chemscore.DEInternal>
1.8070

> <Gold.Chemscore.Rot>
1.5431

> <Gold.Chemscore.Internal.Correction>
   9.000000E+99

> <Gold.Chemscore.Hbonds>
donor molecule, donor type, donor heavy atom, donor atom, acceptor molecule, acceptor atom, score
      L1  H     8    33       P1  7948  1.00

> <Gold.Chemscore.Hbond.Weighted>
-3.3278

> <Gold.Chemscore.Metal.Weighted>
-0.0000

> <Gold.Chemscore.Lipo.Weighted>
-9.0715

> <Gold.Chemscore.Internal_Hbond.Weighted>
0.0000

> <Gold.Chemscore.DEClash.Weighted>
0.4913

> <Gold.Chemscore.DEInternal.Weighted>
1.8070

> <Gold.Chemscore.Rot.Weighted>
3.9503

> <Gold.Chemscore.Internal.Correction.Weighted>
   9.000000E+99

> <Gold.Protein.RotatedTorsions>
[ 6907 6896 6895 6894 ] final -151.80 input  -60.11 | X-H torsion
[ 7974 7965 7964 7962 ] final   97.68 input  175.53 | X-H torsion
[ 8008 7997 7996 7995 ] final -135.61 input   59.86 | X-H torsion
[ 10167 10162 10161 10158 ] final  -93.36 input  -65.29 | X-H torsion
[ 10718 10713 10712 10709 ] final  168.75 input   66.30 | X-H torsion
[ 10763 10752 10751 10750 ] final   -2.89 input  -60.55 | X-H torsion
[ 11005 11000 10999 10996 ] final  -46.16 input  -57.11 | X-H torsion

> <Gold.Protein.ActiveResidues>
 VAL166  LYS551  ARG553  GLY616  TRP617  ASP618  TYR619  PRO620  LYS621  CYS622 
 ASP623  PHE694  ASN695  SER759  ASP760  ASP761  ALA762  ILE779  LEU786  VAL792 
 PHE793  MET794  SER795  GLU796  ALA797  LYS798  CYS799  TRP800  GLU811  SER814 

> <Gold.Protein.RotatedAtoms>
  151.2184  133.4516  159.2599 H   0  0  0  0  0  0  0  0  0  0  0  0  # atno 6907 bound_to 6896
  151.0909  134.9915  159.8412 H   0  0  0  0  0  0  0  0  0  0  0  0  # atno 6908 bound_to 6896
  152.5434  134.2117  159.8805 H   0  0  0  0  0  0  0  0  0  0  0  0  # atno 6909 bound_to 6896
  145.4223  139.2320  143.3189 H   0  0  0  0  0  0  0  0  0  0  0  0  # atno 7974 bound_to 7965
  155.3815  140.0494  157.3043 H   0  0  0  0  0  0  0  0  0  0  0  0  # atno 8008 bound_to 7997
  154.5080  140.2181  155.9174 H   0  0  0  0  0  0  0  0  0  0  0  0  # atno 8009 bound_to 7997
  156.1549  140.3128  155.8715 H   0  0  0  0  0  0  0  0  0  0  0  0  # atno 8010 bound_to 7997
  140.3254  143.3025  152.0000 H   0  0  0  0  0  0  0  0  0  0  0  0  # atno 10167 bound_to 10162
  157.0326  131.0264  151.2740 H   0  0  0  0  0  0  0  0  0  0  0  0  # atno 10718 bound_to 10713
  153.3641  135.6991  153.6689 H   0  0  0  0  0  0  0  0  0  0  0  0  # atno 10763 bound_to 10752
  153.5366  135.3581  155.2700 H   0  0  0  0  0  0  0  0  0  0  0  0  # atno 10764 bound_to 10752
  154.8672  135.4193  154.2905 H   0  0  0  0  0  0  0  0  0  0  0  0  # atno 10765 bound_to 10752
  141.0561  133.6725  156.3116 H   0  0  0  0  0  0  0  0  0  0  0  0  # atno 11005 bound_to 11000
  146.2650  140.4949  142.8838 LP  0  0  0  0  0  0  0  0  0  0  0  0  # atno 17320 bound_to 7965
  144.8237  140.6593  143.6336 LP  0  0  0  0  0  0  0  0  0  0  0  0  # atno 17321 bound_to 7965
  139.4866  144.6277  151.7131 LP  0  0  0  0  0  0  0  0  0  0  0  0  # atno 17342 bound_to 10162
  140.5445  144.0525  150.6101 LP  0  0  0  0  0  0  0  0  0  0  0  0  # atno 17343 bound_to 10162
  157.5166  130.7972  149.7763 LP  0  0  0  0  0  0  0  0  0  0  0  0  # atno 17370 bound_to 10713
  156.0064  130.3853  150.2415 LP  0  0  0  0  0  0  0  0  0  0  0  0  # atno 17371 bound_to 10713
  140.5960  134.5603  157.5508 LP  0  0  0  0  0  0  0  0  0  0  0  0  # atno 17394 bound_to 11000
  139.9392  134.7819  156.0723 LP  0  0  0  0  0  0  0  0  0  0  0  0  # atno 17395 bound_to 11000

$$$$
