AV-unprocessed.smi:158|AV-procd|sdf|1337|dock4
  -GOLD-   2262019 33D 1   1.00000     0.00000
 Structure written by MMmdl.
 31 33  0  0  0  0  0  0  0  0  1 V2000
  148.2329  141.3840  153.2867 N   0  0  0  0  0  0  0  0  0  0  0  0
  148.7315  141.2334  154.5217 C   0  0  0  0  0  0  0  0  0  0  0  0
  148.1458  141.9074  155.5391 N   0  0  0  0  0  0  0  0  0  0  0  0
  148.6124  141.7848  156.7882 C   0  0  0  0  0  0  0  0  0  0  0  0
  147.7916  142.6882  158.0062 Cl  0  0  0  0  0  0  0  0  0  0  0  0
  149.6450  141.0413  157.1987 N   0  0  0  0  0  0  0  0  0  0  0  0
  150.2383  140.3622  156.1749 C   0  0  0  0  0  0  0  0  0  0  0  0
  149.8416  140.4034  154.8120 C   0  0  0  0  0  0  0  0  0  0  0  0
  150.6688  139.5858  154.0534 N   0  0  0  0  0  0  0  0  0  0  0  0
  151.5058  139.0898  154.9257 C   0  0  0  0  0  0  0  0  0  0  0  0
  151.3225  139.5112  156.2245 N   0  0  0  0  0  0  0  0  0  0  0  0
  152.1017  139.1227  157.4365 C   0  0  2  0  0  0  0  0  0  0  0  0
  153.4449  139.0572  157.0805 O   0  0  0  0  0  0  0  0  0  0  0  0
  154.1023  138.0603  157.8548 C   0  0  1  0  0  0  0  0  0  0  0  0
  154.6085  138.6903  159.1681 C   0  0  0  0  0  0  0  0  0  0  0  0
  155.7415  139.4930  158.9142 O   0  0  0  0  0  0  0  0  0  0  0  0
  153.0163  136.9969  158.0840 C   0  0  2  0  0  0  0  0  0  0  0  0
  153.1169  135.9681  157.1191 O   0  0  0  0  0  0  0  0  0  0  0  0
  151.6898  137.7366  157.9463 C   0  0  1  0  0  0  0  0  0  0  0  0
  151.1057  137.8676  159.1380 F   0  0  0  0  0  0  0  0  0  0  0  0
  151.9321  139.9217  158.1597 H   0  0  0  0  0  0  0  0  0  0  0  0
  154.9461  137.6437  157.3018 H   0  0  0  0  0  0  0  0  0  0  0  0
  153.1136  136.5250  159.0627 H   0  0  0  0  0  0  0  0  0  0  0  0
  150.9844  137.2422  157.2759 H   0  0  0  0  0  0  0  0  0  0  0  0
  148.6531  140.8919  152.5113 H   0  0  0  0  0  0  0  0  0  0  0  0
  147.4392  141.9893  153.1337 H   0  0  0  0  0  0  0  0  0  0  0  0
  152.2872  138.3996  154.6424 H   0  0  0  0  0  0  0  0  0  0  0  0
  153.8358  139.2750  159.6675 H   0  0  0  0  0  0  0  0  0  0  0  0
  154.9199  137.9111  159.8641 H   0  0  0  0  0  0  0  0  0  0  0  0
  156.5161  139.0034  159.1451 H   0  0  0  0  0  0  0  0  0  0  0  0
  153.1272  135.1354  157.5658 H   0  0  0  0  0  0  0  0  0  0  0  0
  1  2  1  0  0  0  0
  1 25  1  0  0  0  0
  1 26  1  0  0  0  0
  2  8  1  0  0  0  0
  2  3  2  0  0  0  0
  3  4  1  0  0  0  0
  4  5  1  0  0  0  0
  4  6  2  0  0  0  0
  6  7  1  0  0  0  0
  7 11  1  0  0  0  0
  7  8  2  0  0  0  0
  8  9  1  0  0  0  0
  9 10  2  0  0  0  0
 10 11  1  0  0  0  0
 10 27  1  0  0  0  0
 11 12  1  0  0  0  0
 12 21  1  0  0  0  0
 12 19  1  0  0  0  0
 12 13  1  0  0  0  0
 13 14  1  0  0  0  0
 14 22  1  0  0  0  0
 14 15  1  0  0  0  0
 14 17  1  0  0  0  0
 15 16  1  0  0  0  0
 15 28  1  0  0  0  0
 15 29  1  0  0  0  0
 16 30  1  0  0  0  0
 17 23  1  0  0  0  0
 17 18  1  0  0  0  0
 17 19  1  0  0  0  0
 18 31  1  0  0  0  0
 19 24  1  0  0  0  0
 19 20  1  0  0  0  0
M  END
> <s_m_source_file>
AV-unprocessed.smi

> <i_m_source_file_index>
158

> <i_lp_mmshare_version>
43012

> <i_f3d_flags>
0

> <s_epik_input>
Q2xjKG4xKW5jKFtOSDJdKWMoYzEyKW5bY0hdbjJbQ0BASF0zT1tDQEhdKFtDSDJdW09IXSlbQ0BASF0oW09IXSlbQ0BASF0zRg==

> <s_epik_cmdline>
J2VwaWtfcHl0aG9uJywgJy1waCcsICc3LjAnLCAnLXRuJywgJzgnLCAnLW1hJywgJzIwMCcsICctbWV0YWxfYmluZGluZycsICctaW1hZScsICc8aW5maWxlLm1hZT4nLCAnLW9tYWUnLCAnPG91dGZpbGUubWFlPic=

> <r_lp_tautomer_probability>
1

> <r_epik_Ionization_Penalty>
6.51543e-05

> <r_epik_Ionization_Penalty_Charging>
0

> <r_epik_Ionization_Penalty_Neutral>
6.51543e-05

> <r_epik_State_Penalty>
-0

> <r_epik_Charging_Adjusted_Penalty>
0

> <i_epik_Tot_Q>
0

> <i_epik_Tot_abs_Q>
0

> <r_epik_Metal_State_Penalty>
-0

> <b_epik_Metal_Only>
0

> <s_epik_Chemistry_Notes>
This compound contains an acetal/aminal-like group ( X-CH(R)-Y where X, Y are N, S, or O) that may be acid/base labile, releasing an aldehyde.

> <s_lp_Force_Field>
OPLS_2005

> <r_lp_Energy>
33.5879

> <b_lp_Chiralities_Consistent>
1

> <s_lp_Variant>
AV-unprocessed.smi:158-15

> <Gold.Version>
5.8.1

> <Gold.Id.Protein>
6NUR|6NUR_protein|mol2

> <Gold.PLP.Fitness>
36.6708

> <Gold.PLP.PLP>
-24.1504

> <Gold.PLP.part.hbond>
-5.0000

> <Gold.PLP.part.metal>
0.0000

> <Gold.PLP.part.buried>
-2.5036

> <Gold.PLP.part.nonpolar>
-16.8888

> <Gold.PLP.part.repulsive>
0.6450

> <Gold.PLP.ligand.clash>
0.0000

> <Gold.PLP.ligand.torsion>
0.6193

> <Gold.PLP.Chemscore.Hbond>
4.5820

> <Gold.PLP.Chemscore.CHOScore>
0.0000

> <Gold.PLP.Chemscore.Metal>
0.0000

> <Gold.Chemscore.Hbonds>
donor molecule, donor type, donor heavy atom, donor atom, acceptor molecule, acceptor atom, score
      L1  H     1    25       P1  7957  1.00
      P1  H  7989  7998       L1     9  0.71
      P1  H  7997  8008       L1    16  1.00
      P1  H  7997  8009       L1    13  0.74
      P1  H 10752 10764       L1    18  1.00

> <Gold.PLP.Chemscore.Internal.Correction>
0.0129

> <Gold.Rescore>
     Score         DG    S(hbond)    S(metal)    S(lipo)     H(rot)  DE(clash)    DE(int)     intcor
     11.38     -12.10       3.52        0.00      24.49       3.12       0.15       0.57       ----

> <Gold.Chemscore.Fitness>
11.3796

> <Gold.Chemscore.DG>
-12.1037

> <Gold.Chemscore.ZeroCoef>
-5.4800

> <Gold.Chemscore.Hbond>
3.5190

> <Gold.Chemscore.Metal>
0.0000

> <Gold.Chemscore.Lipo>
24.4879

> <Gold.Chemscore.Internal_Hbond>
0.0000

> <Gold.Chemscore.DEClash>
0.1506

> <Gold.Chemscore.DEInternal>
0.5735

> <Gold.Chemscore.Rot>
3.1230

> <Gold.Chemscore.Internal.Correction>
   9.000000E+99

> <Gold.Chemscore.Hbonds>
donor molecule, donor type, donor heavy atom, donor atom, acceptor molecule, acceptor atom, score
      L1  H     1    25       P1  7957  1.00
      P1  H  7989  7998       L1     9  0.02
      P1  H  7997  8008       L1    16  0.67
      P1  H  7997  8009       L1    13  0.68
      P1  H 10752 10764       L1    18  0.25

> <Gold.Chemscore.Hbond.Weighted>
-11.7535

> <Gold.Chemscore.Metal.Weighted>
-0.0000

> <Gold.Chemscore.Lipo.Weighted>
-2.8651

> <Gold.Chemscore.Internal_Hbond.Weighted>
0.0000

> <Gold.Chemscore.DEClash.Weighted>
0.1506

> <Gold.Chemscore.DEInternal.Weighted>
0.5735

> <Gold.Chemscore.Rot.Weighted>
7.9950

> <Gold.Chemscore.Internal.Correction.Weighted>
   9.000000E+99

> <Gold.Protein.RotatedTorsions>
[ 6907 6896 6895 6894 ] final  -40.88 input  -60.11 | X-H torsion
[ 7974 7965 7964 7962 ] final  -21.02 input  175.53 | X-H torsion
[ 8008 7997 7996 7995 ] final -160.16 input   59.86 | X-H torsion
[ 10167 10162 10161 10158 ] final   39.77 input  -65.29 | X-H torsion
[ 10718 10713 10712 10709 ] final -130.85 input   66.30 | X-H torsion
[ 10763 10752 10751 10750 ] final   -7.64 input  -60.55 | X-H torsion
[ 11005 11000 10999 10996 ] final   94.59 input  -57.11 | X-H torsion

> <Gold.Protein.ActiveResidues>
 VAL166  LYS551  ARG553  GLY616  TRP617  ASP618  TYR619  PRO620  LYS621  CYS622 
 ASP623  PHE694  ASN695  SER759  ASP760  ASP761  ALA762  ILE779  LEU786  VAL792 
 PHE793  MET794  SER795  GLU796  ALA797  LYS798  CYS799  TRP800  GLU811  SER814 

> <Gold.Protein.RotatedAtoms>
  150.9732  134.9101  159.7800 H   0  0  0  0  0  0  0  0  0  0  0  0  # atno 6907 bound_to 6896
  152.5197  134.3512  159.9261 H   0  0  0  0  0  0  0  0  0  0  0  0  # atno 6908 bound_to 6896
  151.3520  133.3881  159.2716 H   0  0  0  0  0  0  0  0  0  0  0  0  # atno 6909 bound_to 6896
  146.1756  140.4283  142.8515 H   0  0  0  0  0  0  0  0  0  0  0  0  # atno 7974 bound_to 7965
  155.7733  140.0855  157.2097 H   0  0  0  0  0  0  0  0  0  0  0  0  # atno 8008 bound_to 7997
  154.3995  140.1521  156.3024 H   0  0  0  0  0  0  0  0  0  0  0  0  # atno 8009 bound_to 7997
  155.8726  140.3425  155.5834 H   0  0  0  0  0  0  0  0  0  0  0  0  # atno 8010 bound_to 7997
  140.3807  144.1983  150.6131 H   0  0  0  0  0  0  0  0  0  0  0  0  # atno 10167 bound_to 10162
  156.2185  130.6963  151.0729 H   0  0  0  0  0  0  0  0  0  0  0  0  # atno 10718 bound_to 10713
  153.4291  135.7011  153.6242 H   0  0  0  0  0  0  0  0  0  0  0  0  # atno 10763 bound_to 10752
  153.4664  135.3724  155.2367 H   0  0  0  0  0  0  0  0  0  0  0  0  # atno 10764 bound_to 10752
  154.8725  135.4032  154.3672 H   0  0  0  0  0  0  0  0  0  0  0  0  # atno 10765 bound_to 10752
  139.8797  134.8854  156.3887 H   0  0  0  0  0  0  0  0  0  0  0  0  # atno 11005 bound_to 11000
  144.8231  140.6583  143.6340 LP  0  0  0  0  0  0  0  0  0  0  0  0  # atno 17320 bound_to 7965
  145.4220  139.1562  143.4069 LP  0  0  0  0  0  0  0  0  0  0  0  0  # atno 17321 bound_to 7965
  140.4940  143.2338  151.8777 LP  0  0  0  0  0  0  0  0  0  0  0  0  # atno 17342 bound_to 10162
  139.4795  144.5134  151.8901 LP  0  0  0  0  0  0  0  0  0  0  0  0  # atno 17343 bound_to 10162
  157.7075  131.0749  150.6615 LP  0  0  0  0  0  0  0  0  0  0  0  0  # atno 17370 bound_to 10713
  156.6677  130.4530  149.5667 LP  0  0  0  0  0  0  0  0  0  0  0  0  # atno 17371 bound_to 10713
  140.9348  133.7554  156.0071 LP  0  0  0  0  0  0  0  0  0  0  0  0  # atno 17394 bound_to 11000
  140.8288  134.3202  157.5356 LP  0  0  0  0  0  0  0  0  0  0  0  0  # atno 17395 bound_to 11000

$$$$
