AV-unprocessed.smi:555|AV-procd|sdf|2910|dock9
  -GOLD-   2262023403D 1   1.00000     0.00000
 Structure written by MMmdl.
 50 51  0  0  0  0  0  0  0  0  2 V2000
  152.7763  139.8811  159.0115 C   0  0  0  0  0  0  0  0  0  0  0  0
  152.7884  139.6873  157.6083 O   0  0  0  0  0  0  0  0  0  0  0  0
  151.4959  139.7942  157.0325 C   0  0  0  0  0  0  0  0  0  0  0  0
  151.5779  139.4819  155.5291 C   0  0  0  0  0  0  0  0  0  0  0  0
  150.3076  138.9608  155.0121 N   0  0  0  0  0  0  0  0  0  0  0  0
  150.0898  137.6236  155.2993 N   0  0  0  0  0  0  0  0  0  0  0  0
  148.9904  137.0498  154.9311 C   0  0  0  0  0  0  0  0  0  0  0  0
  148.7134  135.6181  155.2338 C   0  0  0  0  0  0  0  0  0  0  0  0
  148.8740  135.1482  156.3614 O   0  0  0  0  0  0  0  0  0  0  0  0
  148.2832  134.8824  154.1928 N   0  0  0  0  0  0  0  0  0  0  0  0
  147.9564  133.4610  154.2399 C   0  0  2  0  0  0  0  0  0  0  0  0
  149.1929  132.6084  153.9012 C   0  0  0  0  0  0  0  0  0  0  0  0
  148.8403  131.1131  153.8292 C   0  0  0  0  0  0  0  0  0  0  0  0
  147.7430  130.8701  152.8557 N   0  3  1  0  0  0  0  0  0  0  0  0
  147.5173  129.4244  152.5633 C   0  0  0  0  0  0  0  0  0  0  0  0
  146.4351  129.2349  151.4872 C   0  0  0  0  0  0  0  0  0  0  0  0
  147.2247  128.5803  153.8192 C   0  0  0  0  0  0  0  0  0  0  0  0
  146.5216  131.6467  153.2027 C   0  0  0  0  0  0  0  0  0  0  0  0
  146.8268  133.1528  153.2439 C   0  0  0  0  0  0  0  0  0  0  0  0
  147.9729  137.7889  154.2032 C   0  0  0  0  0  0  0  0  0  0  0  0
  148.2026  139.0907  153.9236 C   0  0  0  0  0  0  0  0  0  0  0  0
  149.4342  139.7662  154.3356 C   0  0  0  0  0  0  0  0  0  0  0  0
  149.6623  140.9526  154.1014 O   0  0  0  0  0  0  0  0  0  0  0  0
  153.7897  139.7898  159.4021 H   0  0  0  0  0  0  0  0  0  0  0  0
  152.1563  139.1333  159.5075 H   0  0  0  0  0  0  0  0  0  0  0  0
  152.4034  140.8731  159.2700 H   0  0  0  0  0  0  0  0  0  0  0  0
  150.7988  139.1171  157.5288 H   0  0  0  0  0  0  0  0  0  0  0  0
  151.1173  140.8075  157.1738 H   0  0  0  0  0  0  0  0  0  0  0  0
  151.8629  140.3819  154.9816 H   0  0  0  0  0  0  0  0  0  0  0  0
  152.3832  138.7680  155.3478 H   0  0  0  0  0  0  0  0  0  0  0  0
  148.1787  135.3475  153.3020 H   0  0  0  0  0  0  0  0  0  0  0  0
  147.6073  133.2026  155.2417 H   0  0  0  0  0  0  0  0  0  0  0  0
  149.6115  132.9275  152.9454 H   0  0  0  0  0  0  0  0  0  0  0  0
  149.9736  132.7649  154.6467 H   0  0  0  0  0  0  0  0  0  0  0  0
  149.7290  130.5527  153.5370 H   0  0  0  0  0  0  0  0  0  0  0  0
  148.5484  130.7531  154.8164 H   0  0  0  0  0  0  0  0  0  0  0  0
  148.4403  129.0427  152.1247 H   0  0  0  0  0  0  0  0  0  0  0  0
  146.3804  128.1921  151.1731 H   0  0  0  0  0  0  0  0  0  0  0  0
  146.6517  129.8316  150.6006 H   0  0  0  0  0  0  0  0  0  0  0  0
  145.4448  129.5146  151.8461 H   0  0  0  0  0  0  0  0  0  0  0  0
  147.1654  127.5218  153.5642 H   0  0  0  0  0  0  0  0  0  0  0  0
  146.2759  128.8516  154.2827 H   0  0  0  0  0  0  0  0  0  0  0  0
  148.0083  128.6851  154.5692 H   0  0  0  0  0  0  0  0  0  0  0  0
  145.7328  131.4660  152.4734 H   0  0  0  0  0  0  0  0  0  0  0  0
  146.1377  131.3269  154.1724 H   0  0  0  0  0  0  0  0  0  0  0  0
  145.9259  133.7030  153.5186 H   0  0  0  0  0  0  0  0  0  0  0  0
  147.1060  133.4932  152.2452 H   0  0  0  0  0  0  0  0  0  0  0  0
  147.0543  137.3161  153.8873 H   0  0  0  0  0  0  0  0  0  0  0  0
  147.4555  139.6520  153.3817 H   0  0  0  0  0  0  0  0  0  0  0  0
  148.0763  131.2594  151.9851 H   0  0  0  0  0  0  0  0  0  0  0  0
  1  2  1  0  0  0  0
  1 24  1  0  0  0  0
  1 25  1  0  0  0  0
  1 26  1  0  0  0  0
  2  3  1  0  0  0  0
  3  4  1  0  0  0  0
  3 27  1  0  0  0  0
  3 28  1  0  0  0  0
  4  5  1  0  0  0  0
  4 29  1  0  0  0  0
  4 30  1  0  0  0  0
  5 22  1  0  0  0  0
  5  6  1  0  0  0  0
  6  7  2  0  0  0  0
  7  8  1  0  0  0  0
  7 20  1  0  0  0  0
  8  9  2  0  0  0  0
  8 10  1  0  0  0  0
 10 11  1  0  0  0  0
 10 31  1  0  0  0  0
 11 19  1  0  0  0  0
 11 12  1  0  0  0  0
 11 32  1  0  0  0  0
 12 13  1  0  0  0  0
 12 33  1  0  0  0  0
 12 34  1  0  0  0  0
 13 14  1  0  0  0  0
 13 35  1  0  0  0  0
 13 36  1  0  0  0  0
 14 15  1  0  0  0  0
 14 18  1  0  0  0  0
 14 50  1  0  0  0  0
 15 16  1  0  0  0  0
 15 17  1  0  0  0  0
 15 37  1  0  0  0  0
 16 38  1  0  0  0  0
 16 39  1  0  0  0  0
 16 40  1  0  0  0  0
 17 41  1  0  0  0  0
 17 42  1  0  0  0  0
 17 43  1  0  0  0  0
 18 19  1  0  0  0  0
 18 44  1  0  0  0  0
 18 45  1  0  0  0  0
 19 46  1  0  0  0  0
 19 47  1  0  0  0  0
 20 21  2  0  0  0  0
 20 48  1  0  0  0  0
 21 22  1  0  0  0  0
 21 49  1  0  0  0  0
 22 23  2  0  0  0  0
M  CHG  1  14   1
M  END
> <s_m_source_file>
AV-unprocessed.smi

> <i_m_source_file_index>
555

> <i_lp_mmshare_version>
43012

> <i_f3d_flags>
0

> <s_epik_input>
W0NIM11PW0NIMl1bQ0gyXW4xbmMoW2NIXVtjSF1jMT1PKUMoPU8pW05IXVtDSF0yW0NIMl1bQ0gyXU4oW0NIXShbQ0gzXSlbQ0gzXSlbQ0gyXVtDSDJdMg==

> <s_epik_cmdline>
J2VwaWtfcHl0aG9uJywgJy1waCcsICc3LjAnLCAnLXRuJywgJzgnLCAnLW1hJywgJzIwMCcsICctbWV0YWxfYmluZGluZycsICctaW1hZScsICc8aW5maWxlLm1hZT4nLCAnLW9tYWUnLCAnPG91dGZpbGUubWFlPic=

> <r_lp_tautomer_probability>
1

> <r_epik_Ionization_Penalty>
0.00560205

> <r_epik_Ionization_Penalty_Charging>
0.00559911

> <r_epik_Ionization_Penalty_Neutral>
2.94673e-06

> <r_epik_State_Penalty>
0.00410202

> <r_epik_Charging_Adjusted_Penalty>
0.00970113

> <i_epik_Tot_Q>
1

> <i_epik_Tot_abs_Q>
1

> <r_epik_Metal_State_Penalty>
-0

> <b_epik_Metal_Only>
0

> <s_lp_Force_Field>
OPLS_2005

> <r_lp_Energy>
40.4253

> <b_lp_Chiralities_Consistent>
1

> <s_lp_Variant>
AV-unprocessed.smi:555-1

> <Gold.Version>
5.8.1

> <Gold.Id.Protein>
6NUR|6NUR_protein|mol2

> <Gold.PLP.Fitness>
39.5078

> <Gold.PLP.PLP>
-31.7776

> <Gold.PLP.part.hbond>
-4.8782

> <Gold.PLP.part.metal>
0.0000

> <Gold.PLP.part.buried>
0.8631

> <Gold.PLP.part.nonpolar>
-26.8639

> <Gold.PLP.part.repulsive>
0.2852

> <Gold.PLP.ligand.clash>
0.0000

> <Gold.PLP.ligand.torsion>
1.7071

> <Gold.PLP.Chemscore.Hbond>
3.6700

> <Gold.PLP.Chemscore.CHOScore>
0.0000

> <Gold.PLP.Chemscore.Metal>
0.0000

> <Gold.Chemscore.Hbonds>
donor molecule, donor type, donor heavy atom, donor atom, acceptor molecule, acceptor atom, score
      L1  H    10    31       P1  7948  0.98
      L1  H    14    50       P1 10747  0.88
      P1  H  7989  7998       L1    23  0.49
      P1  H  7997  8009       L1     2  1.00
      P1  H  8011  8017       L1    23  0.29

> <Gold.PLP.Chemscore.Internal.Correction>
0.1345

> <Gold.Rescore>
     Score         DG    S(hbond)    S(metal)    S(lipo)     H(rot)  DE(clash)    DE(int)     intcor
     18.24     -20.68       3.16        0.00      77.84       1.74       0.77       1.67       ----

> <Gold.Chemscore.Fitness>
18.2434

> <Gold.Chemscore.DG>
-20.6843

> <Gold.Chemscore.ZeroCoef>
-5.4800

> <Gold.Chemscore.Hbond>
3.1620

> <Gold.Chemscore.Metal>
0.0000

> <Gold.Chemscore.Lipo>
77.8411

> <Gold.Chemscore.Internal_Hbond>
0.0000

> <Gold.Chemscore.DEClash>
0.7721

> <Gold.Chemscore.DEInternal>
1.6688

> <Gold.Chemscore.Rot>
1.7438

> <Gold.Chemscore.Internal.Correction>
   9.000000E+99

> <Gold.Chemscore.Hbonds>
donor molecule, donor type, donor heavy atom, donor atom, acceptor molecule, acceptor atom, score
      L1  H    10    31       P1  7948  0.93
      L1  H    14    50       P1 10747  0.85
      P1  H  7989  7998       L1    23  0.16
      P1  H  7997  8009       L1     2  0.64
      P1  H  8011  8017       L1    23  0.28

> <Gold.Chemscore.Hbond.Weighted>
-10.5611

> <Gold.Chemscore.Metal.Weighted>
-0.0000

> <Gold.Chemscore.Lipo.Weighted>
-9.1074

> <Gold.Chemscore.Internal_Hbond.Weighted>
0.0000

> <Gold.Chemscore.DEClash.Weighted>
0.7721

> <Gold.Chemscore.DEInternal.Weighted>
1.6688

> <Gold.Chemscore.Rot.Weighted>
4.4642

> <Gold.Chemscore.Internal.Correction.Weighted>
   9.000000E+99

> <Gold.Protein.RotatedTorsions>
[ 6907 6896 6895 6894 ] final  160.84 input  -60.11 | X-H torsion
[ 7974 7965 7964 7962 ] final  155.85 input  175.53 | X-H torsion
[ 8008 7997 7996 7995 ] final  156.97 input   59.86 | X-H torsion
[ 10167 10162 10161 10158 ] final  116.24 input  -65.29 | X-H torsion
[ 10718 10713 10712 10709 ] final  119.35 input   66.30 | X-H torsion
[ 10763 10752 10751 10750 ] final   40.24 input  -60.55 | X-H torsion
[ 11005 11000 10999 10996 ] final  -80.10 input  -57.11 | X-H torsion

> <Gold.Protein.ActiveResidues>
 VAL166  LYS551  ARG553  GLY616  TRP617  ASP618  TYR619  PRO620  LYS621  CYS622 
 ASP623  PHE694  ASN695  SER759  ASP760  ASP761  ALA762  ILE779  LEU786  VAL792 
 PHE793  MET794  SER795  GLU796  ALA797  LYS798  CYS799  TRP800  GLU811  SER814 

> <Gold.Protein.RotatedAtoms>
  151.9645  133.3706  159.4047 H   0  0  0  0  0  0  0  0  0  0  0  0  # atno 6907 bound_to 6896
  150.6959  134.4205  159.5212 H   0  0  0  0  0  0  0  0  0  0  0  0  # atno 6908 bound_to 6896
  152.1899  134.8681  160.0569 H   0  0  0  0  0  0  0  0  0  0  0  0  # atno 6909 bound_to 6896
  144.7999  139.7124  143.6186 H   0  0  0  0  0  0  0  0  0  0  0  0  # atno 7974 bound_to 7965
  156.2391  140.1898  156.7037 H   0  0  0  0  0  0  0  0  0  0  0  0  # atno 8008 bound_to 7997
  154.6163  140.0615  156.9585 H   0  0  0  0  0  0  0  0  0  0  0  0  # atno 8009 bound_to 7997
  155.1933  140.3286  155.4357 H   0  0  0  0  0  0  0  0  0  0  0  0  # atno 8010 bound_to 7997
  139.6261  144.7108  151.2530 H   0  0  0  0  0  0  0  0  0  0  0  0  # atno 10167 bound_to 10162
  157.5967  131.1057  150.7884 H   0  0  0  0  0  0  0  0  0  0  0  0  # atno 10718 bound_to 10713
  152.9942  135.6197  154.2594 H   0  0  0  0  0  0  0  0  0  0  0  0  # atno 10763 bound_to 10752
  154.2331  135.2791  155.2884 H   0  0  0  0  0  0  0  0  0  0  0  0  # atno 10764 bound_to 10752
  154.5433  135.5754  153.6916 H   0  0  0  0  0  0  0  0  0  0  0  0  # atno 10765 bound_to 10752
  141.1668  133.7135  156.8223 H   0  0  0  0  0  0  0  0  0  0  0  0  # atno 11005 bound_to 11000
  146.2278  139.5755  142.9575 LP  0  0  0  0  0  0  0  0  0  0  0  0  # atno 17320 bound_to 7965
  145.5579  141.0407  143.2242 LP  0  0  0  0  0  0  0  0  0  0  0  0  # atno 17321 bound_to 7965
  140.7412  143.6565  150.8202 LP  0  0  0  0  0  0  0  0  0  0  0  0  # atno 17342 bound_to 10162
  140.0183  143.5569  152.2811 LP  0  0  0  0  0  0  0  0  0  0  0  0  # atno 17343 bound_to 10162
  156.8293  130.5010  149.5333 LP  0  0  0  0  0  0  0  0  0  0  0  0  # atno 17370 bound_to 10713
  156.1031  130.5984  150.9927 LP  0  0  0  0  0  0  0  0  0  0  0  0  # atno 17371 bound_to 10713
  140.2110  134.8827  157.3275 LP  0  0  0  0  0  0  0  0  0  0  0  0  # atno 17394 bound_to 11000
  140.2086  134.4166  155.7624 LP  0  0  0  0  0  0  0  0  0  0  0  0  # atno 17395 bound_to 11000

$$$$
