AV-unprocessed.smi:264|AV-procd|sdf|2013|dock2
  -GOLD-   2262021213D 1   1.00000     0.00000
 Structure written by MMmdl.
 52 56  0  0  0  0  0  0  0  0  1 V2000
  149.8570  144.4006  159.2953 C   0  0  0  0  0  0  0  0  0  0  0  0
  150.3739  142.9719  159.0600 C   0  0  2  0  0  0  0  0  0  0  0  0
  151.4485  142.6753  159.9515 O   0  0  0  0  0  0  0  0  0  0  0  0
  152.6143  142.3397  159.2137 C   0  0  0  0  0  0  0  0  0  0  0  0
  152.0759  141.7548  157.9153 C   0  0  0  0  0  0  0  0  0  0  0  0
  150.8690  142.6388  157.6316 C   0  0  2  0  0  0  0  0  0  0  0  0
  151.3220  143.8073  156.9661 O   0  0  0  0  0  0  0  0  0  0  0  0
  149.7878  141.9640  156.7538 C   0  0  0  0  0  0  0  0  0  0  0  0
  149.7585  140.5155  156.8889 N   0  0  0  0  0  0  0  0  0  0  0  0
  149.4491  139.8006  158.0238 C   0  0  0  0  0  0  0  0  0  0  0  0
  149.5022  138.5031  157.8956 N   0  0  0  0  0  0  0  0  0  0  0  0
  149.8737  138.3061  156.5706 C   0  0  0  0  0  0  0  0  0  0  0  0
  150.1142  137.1543  155.7684 C   0  0  0  0  0  0  0  0  0  0  0  0
  150.0281  135.8896  156.2552 N   0  0  0  0  0  0  0  0  0  0  0  0
  149.3486  135.7710  157.5395 C   0  0  0  0  0  0  0  0  0  0  0  0
  148.9880  134.3036  157.8082 C   0  0  0  0  0  0  0  0  0  0  0  0
  150.1493  133.4807  157.7085 O   0  0  0  0  0  0  0  0  0  0  0  0
  150.8511  133.5631  156.4614 C   0  0  2  0  0  0  0  0  0  0  0  0
  150.1023  132.8619  155.3312 C   0  0  0  0  0  0  0  0  0  0  0  0
  150.4503  131.4013  155.5731 C   0  0  0  0  0  0  0  0  0  0  0  0
  151.8219  131.4446  155.9317 O   0  0  0  0  0  0  0  0  0  0  0  0
  152.0995  132.6741  156.5986 C   0  0  0  0  0  0  0  0  0  0  0  0
  151.2094  135.0355  156.1635 C   0  0  0  0  0  0  0  0  0  0  0  0
  150.4436  137.3612  154.4648 N   0  0  0  0  0  0  0  0  0  0  0  0
  150.5445  138.6025  153.9808 C   0  0  0  0  0  0  0  0  0  0  0  0
  150.3623  139.7624  154.6145 N   0  0  0  0  0  0  0  0  0  0  0  0
  150.0229  139.5637  155.9197 C   0  0  0  0  0  0  0  0  0  0  0  0
  149.0427  144.6408  158.6112 H   0  0  0  0  0  0  0  0  0  0  0  0
  150.6453  145.1410  159.1576 H   0  0  0  0  0  0  0  0  0  0  0  0
  149.4800  144.5117  160.3121 H   0  0  0  0  0  0  0  0  0  0  0  0
  149.5767  142.2774  159.3281 H   0  0  0  0  0  0  0  0  0  0  0  0
  153.1895  143.2460  159.0198 H   0  0  0  0  0  0  0  0  0  0  0  0
  153.2488  141.6421  159.7605 H   0  0  0  0  0  0  0  0  0  0  0  0
  152.8137  141.7431  157.1119 H   0  0  0  0  0  0  0  0  0  0  0  0
  151.7572  140.7269  158.0929 H   0  0  0  0  0  0  0  0  0  0  0  0
  150.6251  144.1290  156.4146 H   0  0  0  0  0  0  0  0  0  0  0  0
  148.7992  142.3427  157.0171 H   0  0  0  0  0  0  0  0  0  0  0  0
  149.9397  142.2146  155.7031 H   0  0  0  0  0  0  0  0  0  0  0  0
  149.1868  140.2747  158.9585 H   0  0  0  0  0  0  0  0  0  0  0  0
  150.0106  136.1406  158.3239 H   0  0  0  0  0  0  0  0  0  0  0  0
  148.4454  136.3784  157.5784 H   0  0  0  0  0  0  0  0  0  0  0  0
  148.5761  134.2012  158.8123 H   0  0  0  0  0  0  0  0  0  0  0  0
  148.2107  133.9666  157.1234 H   0  0  0  0  0  0  0  0  0  0  0  0
  149.0295  133.0446  155.3073 H   0  0  0  0  0  0  0  0  0  0  0  0
  150.5059  133.1703  154.3658 H   0  0  0  0  0  0  0  0  0  0  0  0
  149.8692  130.9957  156.4029 H   0  0  0  0  0  0  0  0  0  0  0  0
  150.2840  130.7754  154.6959 H   0  0  0  0  0  0  0  0  0  0  0  0
  152.9667  133.1269  156.1168 H   0  0  0  0  0  0  0  0  0  0  0  0
  152.3624  132.4958  157.6421 H   0  0  0  0  0  0  0  0  0  0  0  0
  151.6618  135.1160  155.1740 H   0  0  0  0  0  0  0  0  0  0  0  0
  151.9503  135.3853  156.8841 H   0  0  0  0  0  0  0  0  0  0  0  0
  150.8115  138.6775  152.9368 H   0  0  0  0  0  0  0  0  0  0  0  0
  1  2  1  0  0  0  0
  1 28  1  0  0  0  0
  1 29  1  0  0  0  0
  1 30  1  0  0  0  0
  2  6  1  0  0  0  0
  2  3  1  0  0  0  0
  2 31  1  0  0  0  0
  3  4  1  0  0  0  0
  4  5  1  0  0  0  0
  4 32  1  0  0  0  0
  4 33  1  0  0  0  0
  5  6  1  0  0  0  0
  5 34  1  0  0  0  0
  5 35  1  0  0  0  0
  6  7  1  0  0  0  0
  6  8  1  0  0  0  0
  7 36  1  0  0  0  0
  8  9  1  0  0  0  0
  8 37  1  0  0  0  0
  8 38  1  0  0  0  0
  9 27  1  0  0  0  0
  9 10  1  0  0  0  0
 10 11  2  0  0  0  0
 10 39  1  0  0  0  0
 11 12  1  0  0  0  0
 12 27  2  0  0  0  0
 12 13  1  0  0  0  0
 13 14  1  0  0  0  0
 13 24  2  0  0  0  0
 14 23  1  0  0  0  0
 14 15  1  0  0  0  0
 15 16  1  0  0  0  0
 15 40  1  0  0  0  0
 15 41  1  0  0  0  0
 16 17  1  0  0  0  0
 16 42  1  0  0  0  0
 16 43  1  0  0  0  0
 17 18  1  0  0  0  0
 18 22  1  0  0  0  0
 18 19  1  0  0  0  0
 18 23  1  0  0  0  0
 19 20  1  0  0  0  0
 19 44  1  0  0  0  0
 19 45  1  0  0  0  0
 20 21  1  0  0  0  0
 20 46  1  0  0  0  0
 20 47  1  0  0  0  0
 21 22  1  0  0  0  0
 22 48  1  0  0  0  0
 22 49  1  0  0  0  0
 23 50  1  0  0  0  0
 23 51  1  0  0  0  0
 24 25  1  0  0  0  0
 25 26  2  0  0  0  0
 25 52  1  0  0  0  0
 26 27  1  0  0  0  0
M  END
> <s_m_source_file>
AV-unprocessed.smi

> <i_m_source_file_index>
264

> <i_lp_mmshare_version>
43012

> <i_f3d_flags>
0

> <s_epik_input>
W0NIMl0xW0NIMl1PW0NAQEhdKFtDSDNdKVtDQEBdMShbT0hdKVtDSDJdbihbY0hdbjIpYyhjMjMpbltjSF1uYzNOKFtDSDJdNClbQ0gyXVtDSDJdT1tDQF00NVtDSDJdW0NIMl1PW0NIMl01

> <s_epik_cmdline>
J2VwaWtfcHl0aG9uJywgJy1waCcsICc3LjAnLCAnLXRuJywgJzgnLCAnLW1hJywgJzIwMCcsICctbWV0YWxfYmluZGluZycsICctaW1hZScsICc8aW5maWxlLm1hZT4nLCAnLW9tYWUnLCAnPG91dGZpbGUubWFlPic=

> <r_lp_tautomer_probability>
1

> <r_epik_Ionization_Penalty>
0.00539389

> <r_epik_Ionization_Penalty_Charging>
0

> <r_epik_Ionization_Penalty_Neutral>
0.00539389

> <r_epik_State_Penalty>
0.00375441

> <r_epik_Charging_Adjusted_Penalty>
0.00375441

> <i_epik_Tot_Q>
0

> <i_epik_Tot_abs_Q>
0

> <r_epik_Metal_State_Penalty>
-0

> <b_epik_Metal_Only>
0

> <s_lp_Force_Field>
OPLS_2005

> <r_lp_Energy>
54.0423

> <b_lp_Chiralities_Consistent>
1

> <s_lp_Variant>
AV-unprocessed.smi:264-7

> <Gold.Version>
5.8.1

> <Gold.Id.Protein>
6NUR|6NUR_protein|mol2

> <Gold.PLP.Fitness>
39.5362

> <Gold.PLP.PLP>
-29.8427

> <Gold.PLP.part.hbond>
-3.9689

> <Gold.PLP.part.metal>
0.0000

> <Gold.PLP.part.buried>
-4.6471

> <Gold.PLP.part.nonpolar>
-22.1197

> <Gold.PLP.part.repulsive>
0.3788

> <Gold.PLP.ligand.clash>
0.0000

> <Gold.PLP.ligand.torsion>
0.7740

> <Gold.PLP.Chemscore.Hbond>
2.8760

> <Gold.PLP.Chemscore.CHOScore>
0.7736

> <Gold.PLP.Chemscore.Metal>
0.0000

> <Gold.Chemscore.Hbonds>
donor molecule, donor type, donor heavy atom, donor atom, acceptor molecule, acceptor atom, score
      L1  H     7    36       P1  8028  1.00
      P1  H  6896  6908       L1    17  0.96
      P1  H  7989  7998       L1    26  0.85
      L1  C    25    52       P1  7957  0.80

> <Gold.PLP.Chemscore.Internal.Correction>
0.2925

> <Gold.Rescore>
     Score         DG    S(hbond)    S(metal)    S(lipo)     H(rot)  DE(clash)    DE(int)     intcor
     13.60     -15.96       2.04        0.00      77.39       2.11       0.14       2.22       ----

> <Gold.Chemscore.Fitness>
13.6033

> <Gold.Chemscore.DG>
-15.9603

> <Gold.Chemscore.ZeroCoef>
-5.4800

> <Gold.Chemscore.Hbond>
2.0413

> <Gold.Chemscore.Metal>
0.0000

> <Gold.Chemscore.Lipo>
77.3885

> <Gold.Chemscore.Internal_Hbond>
0.0000

> <Gold.Chemscore.DEClash>
0.1373

> <Gold.Chemscore.DEInternal>
2.2196

> <Gold.Chemscore.Rot>
2.1063

> <Gold.Chemscore.Internal.Correction>
   9.000000E+99

> <Gold.Chemscore.Hbonds>
donor molecule, donor type, donor heavy atom, donor atom, acceptor molecule, acceptor atom, score
      L1  H     7    36       P1  8028  0.99
      P1  H  6896  6908       L1    17  0.67
      P1  H  7989  7998       L1    26  0.14

> <Gold.Chemscore.Hbond.Weighted>
-6.8179

> <Gold.Chemscore.Metal.Weighted>
-0.0000

> <Gold.Chemscore.Lipo.Weighted>
-9.0545

> <Gold.Chemscore.Internal_Hbond.Weighted>
0.0000

> <Gold.Chemscore.DEClash.Weighted>
0.1373

> <Gold.Chemscore.DEInternal.Weighted>
2.2196

> <Gold.Chemscore.Rot.Weighted>
5.3921

> <Gold.Chemscore.Internal.Correction.Weighted>
   9.000000E+99

> <Gold.Protein.RotatedTorsions>
[ 6907 6896 6895 6894 ] final   97.87 input  -60.11 | X-H torsion
[ 7974 7965 7964 7962 ] final   73.24 input  175.53 | X-H torsion
[ 8008 7997 7996 7995 ] final -178.89 input   59.86 | X-H torsion
[ 10167 10162 10161 10158 ] final   58.70 input  -65.29 | X-H torsion
[ 10718 10713 10712 10709 ] final -112.27 input   66.30 | X-H torsion
[ 10763 10752 10751 10750 ] final -153.63 input  -60.55 | X-H torsion
[ 11005 11000 10999 10996 ] final   61.92 input  -57.11 | X-H torsion

> <Gold.Protein.ActiveResidues>
 VAL166  LYS551  ARG553  GLY616  TRP617  ASP618  TYR619  PRO620  LYS621  CYS622 
 ASP623  PHE694  ASN695  SER759  ASP760  ASP761  ALA762  ILE779  LEU786  VAL792 
 PHE793  MET794  SER795  GLU796  ALA797  LYS798  CYS799  TRP800  GLU811  SER814 

> <Gold.Protein.RotatedAtoms>
  152.5417  134.0668  159.8176 H   0  0  0  0  0  0  0  0  0  0  0  0  # atno 6907 bound_to 6896
  151.0788  133.5399  159.2629 H   0  0  0  0  0  0  0  0  0  0  0  0  # atno 6908 bound_to 6896
  151.2234  135.0536  159.9013 H   0  0  0  0  0  0  0  0  0  0  0  0  # atno 6909 bound_to 6896
  145.7433  139.2730  143.1473 H   0  0  0  0  0  0  0  0  0  0  0  0  # atno 7974 bound_to 7965
  156.0242  140.1267  157.0326 H   0  0  0  0  0  0  0  0  0  0  0  0  # atno 8008 bound_to 7997
  154.4323  140.1062  156.6076 H   0  0  0  0  0  0  0  0  0  0  0  0  # atno 8009 bound_to 7997
  155.5901  140.3469  155.4566 H   0  0  0  0  0  0  0  0  0  0  0  0  # atno 8010 bound_to 7997
  140.1843  144.4150  150.6600 H   0  0  0  0  0  0  0  0  0  0  0  0  # atno 10167 bound_to 10162
  156.0696  130.5911  150.8486 H   0  0  0  0  0  0  0  0  0  0  0  0  # atno 10718 bound_to 10713
  154.7914  135.3208  154.7767 H   0  0  0  0  0  0  0  0  0  0  0  0  # atno 10763 bound_to 10752
  153.8455  135.6867  153.4802 H   0  0  0  0  0  0  0  0  0  0  0  0  # atno 10764 bound_to 10752
  153.1586  135.4670  154.9681 H   0  0  0  0  0  0  0  0  0  0  0  0  # atno 10765 bound_to 10752
  140.0128  134.6271  155.9755 H   0  0  0  0  0  0  0  0  0  0  0  0  # atno 11005 bound_to 11000
  146.0427  140.8149  142.9821 LP  0  0  0  0  0  0  0  0  0  0  0  0  # atno 17320 bound_to 7965
  144.6865  140.2934  143.7274 LP  0  0  0  0  0  0  0  0  0  0  0  0  # atno 17321 bound_to 7965
  140.6498  143.2222  151.6102 LP  0  0  0  0  0  0  0  0  0  0  0  0  # atno 17342 bound_to 10162
  139.5282  144.2994  152.1086 LP  0  0  0  0  0  0  0  0  0  0  0  0  # atno 17343 bound_to 10162
  157.5758  131.0946  150.9347 LP  0  0  0  0  0  0  0  0  0  0  0  0  # atno 17370 bound_to 10713
  156.9553  130.5435  149.5284 LP  0  0  0  0  0  0  0  0  0  0  0  0  # atno 17371 bound_to 10713
  141.1722  133.6538  156.4695 LP  0  0  0  0  0  0  0  0  0  0  0  0  # atno 17394 bound_to 11000
  140.4524  134.6916  157.5046 LP  0  0  0  0  0  0  0  0  0  0  0  0  # atno 17395 bound_to 11000

$$$$
