AV-unprocessed.smi:1251|AV-procd|sdf|5259|dock3
  -GOLD-   22720 4373D 1   1.00000     0.00000
 Structure written by MMmdl.
 39 40  0  0  0  0  0  0  0  0  1 V2000
  151.4490  142.8561  158.6054 C   0  0  0  0  0  0  0  0  0  0  0  0
  150.8974  141.6818  157.7901 C   0  0  0  0  0  0  0  0  0  0  0  0
  151.1222  141.8554  156.2815 C   0  0  0  0  0  0  0  0  0  0  0  0
  150.5853  140.7121  155.4866 C   0  0  0  0  0  0  0  0  0  0  0  0
  151.3693  139.9075  154.7577 N   0  0  0  0  0  0  0  0  0  0  0  0
  150.6525  138.9001  154.1265 N   0  0  0  0  0  0  0  0  0  0  0  0
  149.3485  138.9631  154.4096 C   0  0  0  0  0  0  0  0  0  0  0  0
  148.4936  137.9912  153.8327 N   0  0  0  0  0  0  0  0  0  0  0  0
  147.2291  137.6960  154.1740 C   0  0  0  0  0  0  0  0  0  0  0  0
  146.5905  138.2387  155.0754 O   0  0  0  0  0  0  0  0  0  0  0  0
  146.7387  136.7147  153.4022 N   0  0  0  0  0  0  0  0  0  0  0  0
  145.3964  136.1419  153.4913 C   0  0  1  0  0  0  0  0  0  0  0  0
  144.3743  137.2159  153.0909 C   0  0  0  0  0  0  0  0  0  0  0  0
  145.2858  134.8857  152.6026 C   0  0  1  0  0  0  0  0  0  0  0  0
  145.5498  135.1187  151.1136 C   0  0  0  0  0  0  0  0  0  0  0  0
  145.9266  133.7304  150.6512 C   0  0  0  0  0  0  0  0  0  0  0  0
  146.7374  133.2140  151.8366 C   0  0  0  0  0  0  0  0  0  0  0  0
  146.2588  133.9151  152.9821 O   0  0  0  0  0  0  0  0  0  0  0  0
  148.8806  140.2771  155.4891 S   0  0  0  0  0  0  0  0  0  0  0  0
  151.2742  142.7051  159.6709 H   0  0  0  0  0  0  0  0  0  0  0  0
  150.9710  143.7935  158.3196 H   0  0  0  0  0  0  0  0  0  0  0  0
  152.5233  142.9681  158.4570 H   0  0  0  0  0  0  0  0  0  0  0  0
  151.3715  140.7588  158.1262 H   0  0  0  0  0  0  0  0  0  0  0  0
  149.8310  141.5727  157.9914 H   0  0  0  0  0  0  0  0  0  0  0  0
  150.6461  142.7732  155.9349 H   0  0  0  0  0  0  0  0  0  0  0  0
  152.1877  141.9583  156.0712 H   0  0  0  0  0  0  0  0  0  0  0  0
  148.8913  137.4620  153.0709 H   0  0  0  0  0  0  0  0  0  0  0  0
  147.3437  136.3285  152.6923 H   0  0  0  0  0  0  0  0  0  0  0  0
  145.1831  135.8548  154.5225 H   0  0  0  0  0  0  0  0  0  0  0  0
  143.3541  136.8417  153.1797 H   0  0  0  0  0  0  0  0  0  0  0  0
  144.5209  137.5397  152.0599 H   0  0  0  0  0  0  0  0  0  0  0  0
  144.4556  138.0946  153.7318 H   0  0  0  0  0  0  0  0  0  0  0  0
  144.3010  134.4295  152.7188 H   0  0  0  0  0  0  0  0  0  0  0  0
  144.6874  135.5250  150.5843 H   0  0  0  0  0  0  0  0  0  0  0  0
  146.3908  135.7994  150.9731 H   0  0  0  0  0  0  0  0  0  0  0  0
  145.0285  133.1257  150.5168 H   0  0  0  0  0  0  0  0  0  0  0  0
  146.4862  133.7251  149.7155 H   0  0  0  0  0  0  0  0  0  0  0  0
  146.6405  132.1354  151.9628 H   0  0  0  0  0  0  0  0  0  0  0  0
  147.7952  133.4461  151.7075 H   0  0  0  0  0  0  0  0  0  0  0  0
  1  2  1  0  0  0  0
  1 20  1  0  0  0  0
  1 21  1  0  0  0  0
  1 22  1  0  0  0  0
  2  3  1  0  0  0  0
  2 23  1  0  0  0  0
  2 24  1  0  0  0  0
  3  4  1  0  0  0  0
  3 25  1  0  0  0  0
  3 26  1  0  0  0  0
  4 19  1  0  0  0  0
  4  5  2  0  0  0  0
  5  6  1  0  0  0  0
  6  7  2  0  0  0  0
  7  8  1  0  0  0  0
  7 19  1  0  0  0  0
  8  9  1  0  0  0  0
  8 27  1  0  0  0  0
  9 10  2  0  0  0  0
  9 11  1  0  0  0  0
 11 12  1  0  0  0  0
 11 28  1  0  0  0  0
 12 13  1  0  0  0  0
 12 14  1  0  0  0  0
 12 29  1  0  0  0  0
 13 30  1  0  0  0  0
 13 31  1  0  0  0  0
 13 32  1  0  0  0  0
 14 18  1  0  0  0  0
 14 15  1  0  0  0  0
 14 33  1  0  0  0  0
 15 16  1  0  0  0  0
 15 34  1  0  0  0  0
 15 35  1  0  0  0  0
 16 17  1  0  0  0  0
 16 36  1  0  0  0  0
 16 37  1  0  0  0  0
 17 18  1  0  0  0  0
 17 38  1  0  0  0  0
 17 39  1  0  0  0  0
M  END
> <s_m_source_file>
AV-unprocessed.smi

> <i_m_source_file_index>
1251

> <i_lp_mmshare_version>
43012

> <i_f3d_flags>
0

> <s_epik_input>
W0NIM11bQ0gyXVtDSDJdYzFubmMoczEpW05IXUMoPU8pW05IXVtDQEhdKFtDSDNdKVtDQEBIXTJbQ0gyXVtDSDJdW0NIMl1PMg==

> <s_epik_cmdline>
J2VwaWtfcHl0aG9uJywgJy1waCcsICc3LjAnLCAnLXRuJywgJzgnLCAnLW1hJywgJzIwMCcsICctbWV0YWxfYmluZGluZycsICctaW1hZScsICc8aW5maWxlLm1hZT4nLCAnLW9tYWUnLCAnPG91dGZpbGUubWFlPic=

> <r_lp_tautomer_probability>
1

> <r_epik_Ionization_Penalty>
0.000503621

> <r_epik_Ionization_Penalty_Charging>
0

> <r_epik_Ionization_Penalty_Neutral>
0.000503621

> <r_epik_State_Penalty>
-0

> <r_epik_Charging_Adjusted_Penalty>
0

> <i_epik_Tot_Q>
0

> <i_epik_Tot_abs_Q>
0

> <r_epik_Metal_State_Penalty>
0.219912

> <b_epik_Metal_Only>
0

> <s_lp_Force_Field>
OPLS_2005

> <r_lp_Energy>
11.0911

> <b_lp_Chiralities_Consistent>
1

> <s_lp_Variant>
AV-unprocessed.smi:1251-4

> <Gold.Version>
5.8.1

> <Gold.Id.Protein>
6NUR|6NUR_protein|mol2

> <Gold.PLP.Fitness>
36.0879

> <Gold.PLP.PLP>
-27.2890

> <Gold.PLP.part.hbond>
-3.1942

> <Gold.PLP.part.metal>
0.0000

> <Gold.PLP.part.buried>
-5.1659

> <Gold.PLP.part.nonpolar>
-19.6970

> <Gold.PLP.part.repulsive>
0.4244

> <Gold.PLP.ligand.clash>
0.0000

> <Gold.PLP.ligand.torsion>
0.1181

> <Gold.PLP.Chemscore.Hbond>
3.0000

> <Gold.PLP.Chemscore.CHOScore>
0.0000

> <Gold.PLP.Chemscore.Metal>
0.0000

> <Gold.Chemscore.Hbonds>
donor molecule, donor type, donor heavy atom, donor atom, acceptor molecule, acceptor atom, score
      L1  H     8    27       P1  7948  1.00
      L1  H    11    28       P1  7948  1.00
      P1  H  7989  7998       L1     5  1.00

> <Gold.PLP.Chemscore.Internal.Correction>
0.0351

> <Gold.Rescore>
     Score         DG    S(hbond)    S(metal)    S(lipo)     H(rot)  DE(clash)    DE(int)     intcor
     15.63     -15.96       2.14        0.00      63.20       1.58       0.01       0.32       ----

> <Gold.Chemscore.Fitness>
15.6261

> <Gold.Chemscore.DG>
-15.9550

> <Gold.Chemscore.ZeroCoef>
-5.4800

> <Gold.Chemscore.Hbond>
2.1365

> <Gold.Chemscore.Metal>
0.0000

> <Gold.Chemscore.Lipo>
63.2043

> <Gold.Chemscore.Internal_Hbond>
0.0000

> <Gold.Chemscore.DEClash>
0.0130

> <Gold.Chemscore.DEInternal>
0.3159

> <Gold.Chemscore.Rot>
1.5843

> <Gold.Chemscore.Internal.Correction>
   9.000000E+99

> <Gold.Chemscore.Hbonds>
donor molecule, donor type, donor heavy atom, donor atom, acceptor molecule, acceptor atom, score
      L1  H     8    27       P1  7948  0.99
      L1  H    11    28       P1  7948  0.96
      P1  H  7989  7998       L1     5  0.06

> <Gold.Chemscore.Hbond.Weighted>
-7.1359

> <Gold.Chemscore.Metal.Weighted>
-0.0000

> <Gold.Chemscore.Lipo.Weighted>
-7.3949

> <Gold.Chemscore.Internal_Hbond.Weighted>
0.0000

> <Gold.Chemscore.DEClash.Weighted>
0.0130

> <Gold.Chemscore.DEInternal.Weighted>
0.3159

> <Gold.Chemscore.Rot.Weighted>
4.0558

> <Gold.Chemscore.Internal.Correction.Weighted>
   9.000000E+99

> <Gold.Protein.RotatedTorsions>
[ 6907 6896 6895 6894 ] final  -59.14 input  -60.11 | X-H torsion
[ 7974 7965 7964 7962 ] final   50.50 input  175.53 | X-H torsion
[ 8008 7997 7996 7995 ] final   26.46 input   59.86 | X-H torsion
[ 10167 10162 10161 10158 ] final  -69.31 input  -65.29 | X-H torsion
[ 10718 10713 10712 10709 ] final  -96.27 input   66.30 | X-H torsion
[ 10763 10752 10751 10750 ] final  -57.48 input  -60.55 | X-H torsion
[ 11005 11000 10999 10996 ] final   94.13 input  -57.11 | X-H torsion

> <Gold.Protein.ActiveResidues>
 VAL166  LYS551  ARG553  GLY616  TRP617  ASP618  TYR619  PRO620  LYS621  CYS622 
 ASP623  PHE694  ASN695  SER759  ASP760  ASP761  ALA762  ILE779  LEU786  VAL792 
 PHE793  MET794  SER795  GLU796  ALA797  LYS798  CYS799  TRP800  GLU811  SER814 

> <Gold.Protein.RotatedAtoms>
  150.7953  134.7007  159.6548 H   0  0  0  0  0  0  0  0  0  0  0  0  # atno 6907 bound_to 6896
  152.4064  134.6196  160.0057 H   0  0  0  0  0  0  0  0  0  0  0  0  # atno 6908 bound_to 6896
  151.6452  133.3287  159.3175 H   0  0  0  0  0  0  0  0  0  0  0  0  # atno 6909 bound_to 6896
  146.0005  139.4434  143.0018 H   0  0  0  0  0  0  0  0  0  0  0  0  # atno 7974 bound_to 7965
  155.0277  140.3155  155.4770 H   0  0  0  0  0  0  0  0  0  0  0  0  # atno 8008 bound_to 7997
  156.2880  140.2186  156.5340 H   0  0  0  0  0  0  0  0  0  0  0  0  # atno 8009 bound_to 7997
  154.7397  140.0474  157.0788 H   0  0  0  0  0  0  0  0  0  0  0  0  # atno 8010 bound_to 7997
  140.5440  143.2314  151.7036 H   0  0  0  0  0  0  0  0  0  0  0  0  # atno 10167 bound_to 10162
  156.0059  130.5144  150.6200 H   0  0  0  0  0  0  0  0  0  0  0  0  # atno 10718 bound_to 10713
  154.2231  135.6374  153.5151 H   0  0  0  0  0  0  0  0  0  0  0  0  # atno 10763 bound_to 10752
  152.9964  135.5501  154.6092 H   0  0  0  0  0  0  0  0  0  0  0  0  # atno 10764 bound_to 10752
  154.5557  135.2905  155.0940 H   0  0  0  0  0  0  0  0  0  0  0  0  # atno 10765 bound_to 10752
  139.8802  134.8828  156.3820 H   0  0  0  0  0  0  0  0  0  0  0  0  # atno 11005 bound_to 11000
  145.7494  140.9978  143.1258 LP  0  0  0  0  0  0  0  0  0  0  0  0  # atno 17320 bound_to 7965
  144.6918  139.9196  143.7467 LP  0  0  0  0  0  0  0  0  0  0  0  0  # atno 17321 bound_to 7965
  139.5000  144.3923  152.0267 LP  0  0  0  0  0  0  0  0  0  0  0  0  # atno 17342 bound_to 10162
  140.3035  144.3620  150.6053 LP  0  0  0  0  0  0  0  0  0  0  0  0  # atno 17343 bound_to 10162
  157.4017  131.0811  151.1302 LP  0  0  0  0  0  0  0  0  0  0  0  0  # atno 17370 bound_to 10713
  157.1961  130.6374  149.5722 LP  0  0  0  0  0  0  0  0  0  0  0  0  # atno 17371 bound_to 10713
  140.9392  133.7526  156.0125 LP  0  0  0  0  0  0  0  0  0  0  0  0  # atno 17394 bound_to 11000
  140.8239  134.3257  157.5372 LP  0  0  0  0  0  0  0  0  0  0  0  0  # atno 17395 bound_to 11000

$$$$
