AV-unprocessed.smi:28|AV-procd|sdf|190|dock3
  -GOLD-   2262015453D 1   1.00000     0.00000
 Structure written by MMmdl.
 41 44  0  0  0  0  0  0  0  0  1 V2000
  151.0012  137.0730  160.0869 O   0  0  0  0  0  0  0  0  0  0  0  0
  150.9722  137.4852  158.9262 C   0  0  0  0  0  0  0  0  0  0  0  0
  149.7720  137.4582  158.0971 C   0  0  0  0  0  0  0  0  0  0  0  0
  148.6245  136.9775  158.6052 F   0  0  0  0  0  0  0  0  0  0  0  0
  149.7945  137.9013  156.8216 C   0  0  0  0  0  0  0  0  0  0  0  0
  150.9341  138.4056  156.2166 N   0  0  0  0  0  0  0  0  0  0  0  0
  150.9295  138.8704  154.7755 C   0  0  1  0  0  0  0  0  0  0  0  0
  149.9545  138.0247  153.9495 C   0  0  0  0  0  0  0  0  0  0  0  0
  148.6723  138.8161  154.0864 C   0  0  0  0  0  0  0  0  0  0  0  0
  149.1935  140.2497  154.0969 C   0  0  0  0  0  0  0  0  0  0  0  0
  150.4776  140.1930  154.7169 O   0  0  0  0  0  0  0  0  0  0  0  0
  152.1428  138.4674  156.9437 C   0  0  0  0  0  0  0  0  0  0  0  0
  153.1755  138.8870  156.4154 O   0  0  0  0  0  0  0  0  0  0  0  0
  152.1191  138.0137  158.2838 N   0  0  0  0  0  0  0  0  0  0  0  0
  153.3708  138.0223  159.0227 C   0  0  0  0  0  0  0  0  0  0  0  0
  153.5102  139.3012  159.7872 C   0  0  0  0  0  0  0  0  0  0  0  0
  154.3168  139.5465  160.8210 N   0  0  0  0  0  0  0  0  0  0  0  0
  154.1075  140.8657  161.1519 N   0  0  0  0  0  0  0  0  0  0  0  0
  153.1780  141.3199  160.3044 C   0  0  0  0  0  0  0  0  0  0  0  0
  152.6086  142.6603  160.1896 C   0  0  0  0  0  0  0  0  0  0  0  0
  152.2326  143.1243  158.9086 C   0  0  0  0  0  0  0  0  0  0  0  0
  151.6767  144.4069  158.7443 C   0  0  0  0  0  0  0  0  0  0  0  0
  151.4858  145.2377  159.8630 C   0  0  0  0  0  0  0  0  0  0  0  0
  151.8459  144.7808  161.1443 C   0  0  0  0  0  0  0  0  0  0  0  0
  152.4011  143.4966  161.3170 C   0  0  0  0  0  0  0  0  0  0  0  0
  152.8199  142.9345  163.0914 Br  0  0  0  0  0  0  0  0  0  0  0  0
  152.7686  140.3757  159.4154 O   0  0  0  0  0  0  0  0  0  0  0  0
  148.8741  137.8455  156.2601 H   0  0  0  0  0  0  0  0  0  0  0  0
  151.9663  138.8153  154.4400 H   0  0  0  0  0  0  0  0  0  0  0  0
  150.2919  138.0180  152.9124 H   0  0  0  0  0  0  0  0  0  0  0  0
  149.8840  136.9962  154.3052 H   0  0  0  0  0  0  0  0  0  0  0  0
  147.9622  138.6261  153.2813 H   0  0  0  0  0  0  0  0  0  0  0  0
  148.1843  138.5825  155.0336 H   0  0  0  0  0  0  0  0  0  0  0  0
  149.3170  140.6143  153.0764 H   0  0  0  0  0  0  0  0  0  0  0  0
  148.5265  140.9334  154.6225 H   0  0  0  0  0  0  0  0  0  0  0  0
  153.3872  137.1582  159.6890 H   0  0  0  0  0  0  0  0  0  0  0  0
  154.1987  137.8877  158.3254 H   0  0  0  0  0  0  0  0  0  0  0  0
  152.3763  142.4983  158.0397 H   0  0  0  0  0  0  0  0  0  0  0  0
  151.3970  144.7529  157.7601 H   0  0  0  0  0  0  0  0  0  0  0  0
  151.0583  146.2218  159.7397 H   0  0  0  0  0  0  0  0  0  0  0  0
  151.6885  145.4177  162.0022 H   0  0  0  0  0  0  0  0  0  0  0  0
  1  2  2  0  0  0  0
  2 14  1  0  0  0  0
  2  3  1  0  0  0  0
  3  4  1  0  0  0  0
  3  5  2  0  0  0  0
  5  6  1  0  0  0  0
  5 28  1  0  0  0  0
  6  7  1  0  0  0  0
  6 12  1  0  0  0  0
  7 11  1  0  0  0  0
  7  8  1  0  0  0  0
  7 29  1  0  0  0  0
  8  9  1  0  0  0  0
  8 30  1  0  0  0  0
  8 31  1  0  0  0  0
  9 10  1  0  0  0  0
  9 32  1  0  0  0  0
  9 33  1  0  0  0  0
 10 11  1  0  0  0  0
 10 34  1  0  0  0  0
 10 35  1  0  0  0  0
 12 13  2  0  0  0  0
 12 14  1  0  0  0  0
 14 15  1  0  0  0  0
 15 16  1  0  0  0  0
 15 36  1  0  0  0  0
 15 37  1  0  0  0  0
 16 27  1  0  0  0  0
 16 17  2  0  0  0  0
 17 18  1  0  0  0  0
 18 19  2  0  0  0  0
 19 20  1  0  0  0  0
 19 27  1  0  0  0  0
 20 25  1  0  0  0  0
 20 21  2  0  0  0  0
 21 22  1  0  0  0  0
 21 38  1  0  0  0  0
 22 23  2  0  0  0  0
 22 39  1  0  0  0  0
 23 24  1  0  0  0  0
 23 40  1  0  0  0  0
 24 25  2  0  0  0  0
 24 41  1  0  0  0  0
 25 26  1  0  0  0  0
M  END
> <s_m_source_file>
AV-unprocessed.smi

> <i_m_source_file_index>
28

> <i_lp_mmshare_version>
43012

> <i_f3d_flags>
0

> <s_epik_input>
TzFbQ0gyXVtDSDJdW0NIMl1bQ0BIXTFuKFtjSF1jKEYpYzI9TyljKD1PKW4yW0NIMl1jM25uYyhvMyktYzRbY0hdW2NIXVtjSF1bY0hdYzRCcg==

> <s_epik_cmdline>
J2VwaWtfcHl0aG9uJywgJy1waCcsICc3LjAnLCAnLXRuJywgJzgnLCAnLW1hJywgJzIwMCcsICctbWV0YWxfYmluZGluZycsICctaW1hZScsICc8aW5maWxlLm1hZT4nLCAnLW9tYWUnLCAnPG91dGZpbGUubWFlPic=

> <r_lp_tautomer_probability>
1

> <r_epik_Ionization_Penalty>
2.5628e-09

> <r_epik_Ionization_Penalty_Charging>
2.54231e-09

> <r_epik_Ionization_Penalty_Neutral>
2.0492e-11

> <r_epik_State_Penalty>
-0

> <r_epik_Charging_Adjusted_Penalty>
2.54231e-09

> <i_epik_Tot_Q>
0

> <i_epik_Tot_abs_Q>
0

> <r_epik_Metal_State_Penalty>
-0

> <b_epik_Metal_Only>
0

> <s_epik_Chemistry_Notes>
This compound contains an acetal/aminal-like group ( X-CH(R)-Y where X, Y are N, S, or O) that may be acid/base labile, releasing an aldehyde.

> <s_lp_Force_Field>
OPLS_2005

> <r_lp_Energy>
35.5142

> <b_lp_Chiralities_Consistent>
1

> <s_lp_Variant>
AV-unprocessed.smi:28-2

> <Gold.Version>
5.8.1

> <Gold.Id.Protein>
6NUR|6NUR_protein|mol2

> <Gold.PLP.Fitness>
56.7093

> <Gold.PLP.PLP>
-51.2139

> <Gold.PLP.part.hbond>
-3.1384

> <Gold.PLP.part.metal>
0.0000

> <Gold.PLP.part.buried>
-2.9404

> <Gold.PLP.part.nonpolar>
-45.6556

> <Gold.PLP.part.repulsive>
0.0811

> <Gold.PLP.ligand.clash>
0.0000

> <Gold.PLP.ligand.torsion>
1.7696

> <Gold.PLP.Chemscore.Hbond>
3.0000

> <Gold.PLP.Chemscore.CHOScore>
0.0000

> <Gold.PLP.Chemscore.Metal>
0.0000

> <Gold.Chemscore.Hbonds>
donor molecule, donor type, donor heavy atom, donor atom, acceptor molecule, acceptor atom, score
      P1  H  6896  6907       L1     1  1.00
      P1  H  7989  7998       L1    11  1.00
      P1  H  7997  8010       L1    13  1.00

> <Gold.PLP.Chemscore.Internal.Correction>
0.0346

> <Gold.Rescore>
     Score         DG    S(hbond)    S(metal)    S(lipo)     H(rot)  DE(clash)    DE(int)     intcor
     17.92     -20.82       1.91        0.00     113.86       1.70       0.74       2.16       ----

> <Gold.Chemscore.Fitness>
17.9240

> <Gold.Chemscore.DG>
-20.8190

> <Gold.Chemscore.ZeroCoef>
-5.4800

> <Gold.Chemscore.Hbond>
1.9054

> <Gold.Chemscore.Metal>
0.0000

> <Gold.Chemscore.Lipo>
113.8625

> <Gold.Chemscore.Internal_Hbond>
0.0000

> <Gold.Chemscore.DEClash>
0.7385

> <Gold.Chemscore.DEInternal>
2.1566

> <Gold.Chemscore.Rot>
1.6980

> <Gold.Chemscore.Internal.Correction>
   9.000000E+99

> <Gold.Chemscore.Hbonds>
donor molecule, donor type, donor heavy atom, donor atom, acceptor molecule, acceptor atom, score
      P1  H  6896  6907       L1     1  0.55
      P1  H  7989  7998       L1    11  0.13
      P1  H  7997  8010       L1    13  0.98

> <Gold.Chemscore.Hbond.Weighted>
-6.3640

> <Gold.Chemscore.Metal.Weighted>
-0.0000

> <Gold.Chemscore.Lipo.Weighted>
-13.3219

> <Gold.Chemscore.Internal_Hbond.Weighted>
0.0000

> <Gold.Chemscore.DEClash.Weighted>
0.7385

> <Gold.Chemscore.DEInternal.Weighted>
2.1566

> <Gold.Chemscore.Rot.Weighted>
4.3469

> <Gold.Chemscore.Internal.Correction.Weighted>
   9.000000E+99

> <Gold.Protein.RotatedTorsions>
[ 6907 6896 6895 6894 ] final   -9.53 input  -60.11 | X-H torsion
[ 7974 7965 7964 7962 ] final -170.35 input  175.53 | X-H torsion
[ 8008 7997 7996 7995 ] final   63.42 input   59.86 | X-H torsion
[ 10167 10162 10161 10158 ] final -103.91 input  -65.29 | X-H torsion
[ 10718 10713 10712 10709 ] final  -17.68 input   66.30 | X-H torsion
[ 10763 10752 10751 10750 ] final  127.62 input  -60.55 | X-H torsion
[ 11005 11000 10999 10996 ] final  155.50 input  -57.11 | X-H torsion

> <Gold.Protein.ActiveResidues>
 VAL166  LYS551  ARG553  GLY616  TRP617  ASP618  TYR619  PRO620  LYS621  CYS622 
 ASP623  PHE694  ASN695  SER759  ASP760  ASP761  ALA762  ILE779  LEU786  VAL792 
 PHE793  MET794  SER795  GLU796  ALA797  LYS798  CYS799  TRP800  GLU811  SER814 

> <Gold.Protein.RotatedAtoms>
  151.4163  135.0992  159.9600 H   0  0  0  0  0  0  0  0  0  0  0  0  # atno 6907 bound_to 6896
  152.5003  133.8749  159.7328 H   0  0  0  0  0  0  0  0  0  0  0  0  # atno 6908 bound_to 6896
  150.9255  133.6771  159.2850 H   0  0  0  0  0  0  0  0  0  0  0  0  # atno 6909 bound_to 6896
  144.7171  140.2084  143.6330 H   0  0  0  0  0  0  0  0  0  0  0  0  # atno 7974 bound_to 7965
  155.6299  140.3496  155.4679 H   0  0  0  0  0  0  0  0  0  0  0  0  # atno 8008 bound_to 7997
  156.0011  140.1213  157.0570 H   0  0  0  0  0  0  0  0  0  0  0  0  # atno 8009 bound_to 7997
  154.4249  140.1100  156.5685 H   0  0  0  0  0  0  0  0  0  0  0  0  # atno 8010 bound_to 7997
  140.2149  143.3719  152.1019 H   0  0  0  0  0  0  0  0  0  0  0  0  # atno 10167 bound_to 10162
  156.5702  130.4747  149.6366 H   0  0  0  0  0  0  0  0  0  0  0  0  # atno 10718 bound_to 10713
  153.7123  135.3266  155.3249 H   0  0  0  0  0  0  0  0  0  0  0  0  # atno 10763 bound_to 10752
  154.8381  135.4480  154.1301 H   0  0  0  0  0  0  0  0  0  0  0  0  # atno 10764 bound_to 10752
  153.2398  135.6969  153.7875 H   0  0  0  0  0  0  0  0  0  0  0  0  # atno 10765 bound_to 10752
  140.1587  134.8624  157.2547 H   0  0  0  0  0  0  0  0  0  0  0  0  # atno 11005 bound_to 11000
  145.8614  139.2224  143.1714 LP  0  0  0  0  0  0  0  0  0  0  0  0  # atno 17320 bound_to 7965
  146.0170  140.8383  142.9942 LP  0  0  0  0  0  0  0  0  0  0  0  0  # atno 17321 bound_to 7965
  139.5166  144.6979  151.5577 LP  0  0  0  0  0  0  0  0  0  0  0  0  # atno 17342 bound_to 10162
  140.6297  143.9100  150.6595 LP  0  0  0  0  0  0  0  0  0  0  0  0  # atno 17343 bound_to 10162
  156.2721  130.7023  151.1823 LP  0  0  0  0  0  0  0  0  0  0  0  0  # atno 17370 bound_to 10713
  157.7350  131.0577  150.5495 LP  0  0  0  0  0  0  0  0  0  0  0  0  # atno 17371 bound_to 10713
  140.2516  134.3676  155.7440 LP  0  0  0  0  0  0  0  0  0  0  0  0  # atno 17394 bound_to 11000
  141.2207  133.7320  156.8944 LP  0  0  0  0  0  0  0  0  0  0  0  0  # atno 17395 bound_to 11000

$$$$
