AV-unprocessed.smi:399|AV-procd|sdf|2491|dock7
  -GOLD-   2262022433D 1   1.00000     0.00000
 Structure written by MMmdl.
 47 48  0  0  0  0  0  0  0  0  4 V2000
  143.4043  135.0971  154.1508 C   0  0  0  0  0  0  0  0  0  0  0  0
  144.5638  135.6856  153.3081 C   0  0  0  0  0  0  0  0  0  0  0  0
  143.9789  136.9132  152.5661 C   0  0  0  0  0  0  0  0  0  0  0  0
  145.7203  136.1402  154.2440 C   0  0  0  0  0  0  0  0  0  0  0  0
  146.6201  137.0960  153.6051 N   0  0  0  0  0  0  0  0  0  0  0  0
  146.6579  138.4059  153.8865 C   0  0  0  0  0  0  0  0  0  0  0  0
  145.9379  138.9303  154.7373 O   0  0  0  0  0  0  0  0  0  0  0  0
  147.6751  139.2356  153.0893 C   0  0  0  0  0  0  0  0  0  0  0  0
  148.7967  139.7308  153.9058 N   0  0  0  0  0  0  0  0  0  0  0  0
  149.9385  138.9094  153.9910 C   0  0  0  0  0  0  0  0  0  0  0  0
  151.0195  139.2592  154.7154 C   0  0  0  0  0  0  0  0  0  0  0  0
  152.1830  138.4033  154.7927 N   0  3  0  0  0  0  0  0  0  0  0  0
  152.1511  137.3148  154.2280 O   0  0  0  0  0  0  0  0  0  0  0  0
  153.1650  138.7883  155.4203 O   0  5  0  0  0  0  0  0  0  0  0  0
  150.9784  140.5264  155.4189 C   0  0  0  0  0  0  0  0  0  0  0  0
  149.8891  141.3160  155.3425 C   0  0  0  0  0  0  0  0  0  0  0  0
  148.7133  140.9329  154.5544 C   0  0  0  0  0  0  0  0  0  0  0  0
  147.7138  141.6480  154.4823 O   0  0  0  0  0  0  0  0  0  0  0  0
  145.0375  134.6653  152.3036 N   0  3  0  0  0  0  0  0  0  0  0  0
  145.8553  133.5460  152.8525 C   0  0  0  0  0  0  0  0  0  0  0  0
  146.4265  132.6824  151.7157 C   0  0  0  0  0  0  0  0  0  0  0  0
  145.3643  132.1817  150.9169 O   0  0  0  0  0  0  0  0  0  0  0  0
  144.6277  133.2320  150.3076 C   0  0  0  0  0  0  0  0  0  0  0  0
  143.9921  134.1179  151.3923 C   0  0  0  0  0  0  0  0  0  0  0  0
  142.9019  135.8645  154.7409 H   0  0  0  0  0  0  0  0  0  0  0  0
  143.7491  134.3478  154.8634 H   0  0  0  0  0  0  0  0  0  0  0  0
  142.6457  134.6363  153.5168 H   0  0  0  0  0  0  0  0  0  0  0  0
  143.4519  137.5839  153.2458 H   0  0  0  0  0  0  0  0  0  0  0  0
  143.2650  136.6107  151.7990 H   0  0  0  0  0  0  0  0  0  0  0  0
  144.7508  137.5161  152.0884 H   0  0  0  0  0  0  0  0  0  0  0  0
  145.3286  136.6099  155.1464 H   0  0  0  0  0  0  0  0  0  0  0  0
  146.3093  135.2809  154.5660 H   0  0  0  0  0  0  0  0  0  0  0  0
  147.2453  136.7399  152.8965 H   0  0  0  0  0  0  0  0  0  0  0  0
  148.0430  138.6222  152.2656 H   0  0  0  0  0  0  0  0  0  0  0  0
  147.1603  140.0723  152.6131 H   0  0  0  0  0  0  0  0  0  0  0  0
  149.8685  137.9845  153.4366 H   0  0  0  0  0  0  0  0  0  0  0  0
  151.8204  140.8519  156.0118 H   0  0  0  0  0  0  0  0  0  0  0  0
  149.8799  142.2555  155.8754 H   0  0  0  0  0  0  0  0  0  0  0  0
  146.6919  133.9130  153.4435 H   0  0  0  0  0  0  0  0  0  0  0  0
  145.2491  132.9184  153.5058 H   0  0  0  0  0  0  0  0  0  0  0  0
  147.1246  133.2544  151.1022 H   0  0  0  0  0  0  0  0  0  0  0  0
  146.9826  131.8405  152.1283 H   0  0  0  0  0  0  0  0  0  0  0  0
  145.2763  133.8188  149.6549 H   0  0  0  0  0  0  0  0  0  0  0  0
  143.8520  132.7977  149.6768 H   0  0  0  0  0  0  0  0  0  0  0  0
  143.2671  133.5314  151.9569 H   0  0  0  0  0  0  0  0  0  0  0  0
  143.4433  134.9114  150.8889 H   0  0  0  0  0  0  0  0  0  0  0  0
  145.6657  135.1773  151.7008 H   0  0  0  0  0  0  0  0  0  0  0  0
  1  2  1  0  0  0  0
  1 25  1  0  0  0  0
  1 26  1  0  0  0  0
  1 27  1  0  0  0  0
  2  3  1  0  0  0  0
  2  4  1  0  0  0  0
  2 19  1  0  0  0  0
  3 28  1  0  0  0  0
  3 29  1  0  0  0  0
  3 30  1  0  0  0  0
  4  5  1  0  0  0  0
  4 31  1  0  0  0  0
  4 32  1  0  0  0  0
  5  6  1  0  0  0  0
  5 33  1  0  0  0  0
  6  7  2  0  0  0  0
  6  8  1  0  0  0  0
  8  9  1  0  0  0  0
  8 34  1  0  0  0  0
  8 35  1  0  0  0  0
  9 17  1  0  0  0  0
  9 10  1  0  0  0  0
 10 11  2  0  0  0  0
 10 36  1  0  0  0  0
 11 12  1  0  0  0  0
 11 15  1  0  0  0  0
 12 13  2  0  0  0  0
 12 14  1  0  0  0  0
 15 16  2  0  0  0  0
 15 37  1  0  0  0  0
 16 17  1  0  0  0  0
 16 38  1  0  0  0  0
 17 18  2  0  0  0  0
 19 24  1  0  0  0  0
 19 20  1  0  0  0  0
 19 47  1  0  0  0  0
 20 21  1  0  0  0  0
 20 39  1  0  0  0  0
 20 40  1  0  0  0  0
 21 22  1  0  0  0  0
 21 41  1  0  0  0  0
 21 42  1  0  0  0  0
 22 23  1  0  0  0  0
 23 24  1  0  0  0  0
 23 43  1  0  0  0  0
 23 44  1  0  0  0  0
 24 45  1  0  0  0  0
 24 46  1  0  0  0  0
M  CHG  1  12   1
M  CHG  1  14  -1
M  CHG  1  19   1
M  END
> <s_m_source_file>
AV-unprocessed.smi

> <i_m_source_file_index>
399

> <i_lp_mmshare_version>
43012

> <i_f3d_flags>
0

> <s_epik_input>
W0NIMl0xW0NIMl1PW0NIMl1bQ0gyXU4xQyhbQ0gzXSkoW0NIM10pW0NIMl1bTkhdQyg9TylbQ0gyXW4yW2NIXWMoW04rXSg9TylbTy1dKVtjSF1bY0hdYzI9Tw==

> <s_epik_cmdline>
J2VwaWtfcHl0aG9uJywgJy1waCcsICc3LjAnLCAnLXRuJywgJzgnLCAnLW1hJywgJzIwMCcsICctbWV0YWxfYmluZGluZycsICctaW1hZScsICc8aW5maWxlLm1hZT4nLCAnLW9tYWUnLCAnPG91dGZpbGUubWFlPic=

> <r_lp_tautomer_probability>
1

> <r_epik_Ionization_Penalty>
0.656654

> <r_epik_Ionization_Penalty_Charging>
0.656653

> <r_epik_Ionization_Penalty_Neutral>
9.12373e-08

> <r_epik_State_Penalty>
0.675641

> <r_epik_Charging_Adjusted_Penalty>
1.33229

> <i_epik_Tot_Q>
1

> <i_epik_Tot_abs_Q>
3

> <r_epik_Metal_State_Penalty>
0.675694

> <b_epik_Metal_Only>
0

> <s_lp_Force_Field>
OPLS_2005

> <r_lp_Energy>
37.786

> <b_lp_Chiralities_Consistent>
1

> <s_lp_Variant>
AV-unprocessed.smi:399-2

> <Gold.Version>
5.8.1

> <Gold.Id.Protein>
6NUR|6NUR_protein|mol2

> <Gold.PLP.Fitness>
46.0777

> <Gold.PLP.PLP>
-36.1538

> <Gold.PLP.part.hbond>
-3.0000

> <Gold.PLP.part.metal>
0.0000

> <Gold.PLP.part.buried>
-1.1941

> <Gold.PLP.part.nonpolar>
-32.2499

> <Gold.PLP.part.repulsive>
0.4507

> <Gold.PLP.ligand.clash>
0.0000

> <Gold.PLP.ligand.torsion>
0.8968

> <Gold.PLP.Chemscore.Hbond>
2.8713

> <Gold.PLP.Chemscore.CHOScore>
0.9838

> <Gold.PLP.Chemscore.Metal>
0.0000

> <Gold.Chemscore.Hbonds>
donor molecule, donor type, donor heavy atom, donor atom, acceptor molecule, acceptor atom, score
      L1  H     5    33       P1  7948  0.93
      P1  H  7997  8010       L1    14  1.00
      P1  H 10752 10765       L1    13  0.90
      L1  C    10    36       P1  7948  1.00

> <Gold.PLP.Chemscore.Internal.Correction>
0.1525

> <Gold.Rescore>
     Score         DG    S(hbond)    S(metal)    S(lipo)     H(rot)  DE(clash)    DE(int)     intcor
     15.48     -17.20       2.74        0.00      69.71       2.18       0.80       0.92       ----

> <Gold.Chemscore.Fitness>
15.4832

> <Gold.Chemscore.DG>
-17.2004

> <Gold.Chemscore.ZeroCoef>
-5.4800

> <Gold.Chemscore.Hbond>
2.7385

> <Gold.Chemscore.Metal>
0.0000

> <Gold.Chemscore.Lipo>
69.7127

> <Gold.Chemscore.Internal_Hbond>
0.0000

> <Gold.Chemscore.DEClash>
0.7967

> <Gold.Chemscore.DEInternal>
0.9204

> <Gold.Chemscore.Rot>
2.1806

> <Gold.Chemscore.Internal.Correction>
   9.000000E+99

> <Gold.Chemscore.Hbonds>
donor molecule, donor type, donor heavy atom, donor atom, acceptor molecule, acceptor atom, score
      L1  H     5    33       P1  7948  0.88
      P1  H  7997  8010       L1    14  0.97
      P1  H 10752 10765       L1    13  0.87

> <Gold.Chemscore.Hbond.Weighted>
-9.1465

> <Gold.Chemscore.Metal.Weighted>
-0.0000

> <Gold.Chemscore.Lipo.Weighted>
-8.1564

> <Gold.Chemscore.Internal_Hbond.Weighted>
0.0000

> <Gold.Chemscore.DEClash.Weighted>
0.7967

> <Gold.Chemscore.DEInternal.Weighted>
0.9204

> <Gold.Chemscore.Rot.Weighted>
5.5825

> <Gold.Chemscore.Internal.Correction.Weighted>
   9.000000E+99

> <Gold.Protein.RotatedTorsions>
[ 6907 6896 6895 6894 ] final  -89.66 input  -60.11 | X-H torsion
[ 7974 7965 7964 7962 ] final -129.85 input  175.53 | X-H torsion
[ 8008 7997 7996 7995 ] final   98.06 input   59.86 | X-H torsion
[ 10167 10162 10161 10158 ] final   25.42 input  -65.29 | X-H torsion
[ 10718 10713 10712 10709 ] final   77.36 input   66.30 | X-H torsion
[ 10763 10752 10751 10750 ] final  155.97 input  -60.55 | X-H torsion
[ 11005 11000 10999 10996 ] final -106.40 input  -57.11 | X-H torsion

> <Gold.Protein.ActiveResidues>
 VAL166  LYS551  ARG553  GLY616  TRP617  ASP618  TYR619  PRO620  LYS621  CYS622 
 ASP623  PHE694  ASN695  SER759  ASP760  ASP761  ALA762  ILE779  LEU786  VAL792 
 PHE793  MET794  SER795  GLU796  ALA797  LYS798  CYS799  TRP800  GLU811  SER814 

> <Gold.Protein.RotatedAtoms>
  150.6875  134.2552  159.4526 H   0  0  0  0  0  0  0  0  0  0  0  0  # atno 6907 bound_to 6896
  152.0486  134.9665  160.0584 H   0  0  0  0  0  0  0  0  0  0  0  0  # atno 6908 bound_to 6896
  152.1138  133.4280  159.4680 H   0  0  0  0  0  0  0  0  0  0  0  0  # atno 6909 bound_to 6896
  144.9532  140.7367  143.4775 H   0  0  0  0  0  0  0  0  0  0  0  0  # atno 7974 bound_to 7965
  156.0965  140.3249  155.7885 H   0  0  0  0  0  0  0  0  0  0  0  0  # atno 8008 bound_to 7997
  155.4908  140.0561  157.2971 H   0  0  0  0  0  0  0  0  0  0  0  0  # atno 8009 bound_to 7997
  154.4670  140.1994  156.0108 H   0  0  0  0  0  0  0  0  0  0  0  0  # atno 8010 bound_to 7997
  140.5108  144.0164  150.6372 H   0  0  0  0  0  0  0  0  0  0  0  0  # atno 10167 bound_to 10162
  157.6708  130.9818  150.1631 H   0  0  0  0  0  0  0  0  0  0  0  0  # atno 10718 bound_to 10713
  154.1768  135.2801  155.3064 H   0  0  0  0  0  0  0  0  0  0  0  0  # atno 10763 bound_to 10752
  154.6033  135.5522  153.7400 H   0  0  0  0  0  0  0  0  0  0  0  0  # atno 10764 bound_to 10752
  153.0149  135.6397  154.1908 H   0  0  0  0  0  0  0  0  0  0  0  0  # atno 10765 bound_to 10752
  141.1006  133.8891  157.1851 H   0  0  0  0  0  0  0  0  0  0  0  0  # atno 11005 bound_to 11000
  145.2812  139.1918  143.4790 LP  0  0  0  0  0  0  0  0  0  0  0  0  # atno 17320 bound_to 7965
  146.3328  140.2774  142.8608 LP  0  0  0  0  0  0  0  0  0  0  0  0  # atno 17321 bound_to 7965
  140.3486  143.2977  152.0512 LP  0  0  0  0  0  0  0  0  0  0  0  0  # atno 17342 bound_to 10162
  139.4895  144.6391  151.6915 LP  0  0  0  0  0  0  0  0  0  0  0  0  # atno 17343 bound_to 10162
  156.2402  130.3690  149.8345 LP  0  0  0  0  0  0  0  0  0  0  0  0  # atno 17370 bound_to 10713
  156.6147  130.8601  151.3462 LP  0  0  0  0  0  0  0  0  0  0  0  0  # atno 17371 bound_to 10713
  139.9857  135.0083  156.9856 LP  0  0  0  0  0  0  0  0  0  0  0  0  # atno 17394 bound_to 11000
  140.5031  134.1077  155.7254 LP  0  0  0  0  0  0  0  0  0  0  0  0  # atno 17395 bound_to 11000

$$$$
