AV-unprocessed.smi:2175|AV-procd|sdf|8845|dock2
  -GOLD-   2272012 33D 1   1.00000     0.00000
 Structure written by MMmdl.
 33 34  0  0  0  0  0  0  0  0  2 V2000
  155.2450  133.9383  158.2763 C   0  0  0  0  0  0  0  0  0  0  0  0
  154.4302  135.2120  158.3461 C   0  0  0  0  0  0  0  0  0  0  0  0
  154.1451  135.7090  159.4888 N   0  0  0  0  0  0  0  0  0  0  0  0
  153.3909  136.8923  159.5594 C   0  0  0  0  0  0  0  0  0  0  0  0
  153.1061  137.4137  160.9572 C   0  0  0  0  0  0  0  0  0  0  0  0
  152.9536  137.5195  158.4298 C   0  0  0  0  0  0  0  0  0  0  0  0
  152.1392  138.8127  158.4561 C   0  0  0  0  0  0  0  0  0  0  0  0
  152.8793  140.0554  158.9572 C   0  0  0  0  0  0  0  0  0  0  0  0
  154.1067  140.0540  159.0509 O   0  0  0  0  0  0  0  0  0  0  0  0
  152.1178  141.1141  159.2719 N   0  0  0  0  0  0  0  0  0  0  0  0
  152.6206  142.3945  159.7517 C   0  0  0  0  0  0  0  0  0  0  0  0
  151.9152  143.6124  159.1860 C   0  0  0  0  0  0  0  0  0  0  0  0
  152.6820  144.6858  158.4499 C   0  0  0  0  0  0  0  0  0  0  0  0
  152.1106  144.9705  159.8183 C   0  0  0  0  0  0  0  0  0  0  0  0
  153.2985  136.9105  157.1323 C   0  0  0  0  0  0  0  0  0  0  0  0
  152.9184  137.4273  156.0825 O   0  0  0  0  0  0  0  0  0  0  0  0
  154.0418  135.7672  157.1477 N   0  5  0  0  0  0  0  0  0  0  0  0
  155.3656  133.4946  159.2656 H   0  0  0  0  0  0  0  0  0  0  0  0
  156.2351  134.1474  157.8707 H   0  0  0  0  0  0  0  0  0  0  0  0
  154.7539  133.2068  157.6336 H   0  0  0  0  0  0  0  0  0  0  0  0
  153.5651  138.3919  161.1015 H   0  0  0  0  0  0  0  0  0  0  0  0
  153.5052  136.7415  161.7179 H   0  0  0  0  0  0  0  0  0  0  0  0
  152.0325  137.5044  161.1231 H   0  0  0  0  0  0  0  0  0  0  0  0
  151.7736  139.0015  157.4461 H   0  0  0  0  0  0  0  0  0  0  0  0
  151.2364  138.6916  159.0550 H   0  0  0  0  0  0  0  0  0  0  0  0
  151.1175  141.0262  159.1661 H   0  0  0  0  0  0  0  0  0  0  0  0
  152.5550  142.4278  160.8403 H   0  0  0  0  0  0  0  0  0  0  0  0
  153.6823  142.4508  159.5096 H   0  0  0  0  0  0  0  0  0  0  0  0
  150.9088  143.4086  158.8248 H   0  0  0  0  0  0  0  0  0  0  0  0
  153.7616  144.5740  158.3696 H   0  0  0  0  0  0  0  0  0  0  0  0
  152.1967  145.1511  157.5945 H   0  0  0  0  0  0  0  0  0  0  0  0
  151.2453  145.6278  159.8753 H   0  0  0  0  0  0  0  0  0  0  0  0
  152.8113  145.0493  160.6471 H   0  0  0  0  0  0  0  0  0  0  0  0
  1  2  1  0  0  0  0
  1 18  1  0  0  0  0
  1 19  1  0  0  0  0
  1 20  1  0  0  0  0
  2 17  1  0  0  0  0
  2  3  2  0  0  0  0
  3  4  1  0  0  0  0
  4  5  1  0  0  0  0
  4  6  2  0  0  0  0
  5 21  1  0  0  0  0
  5 22  1  0  0  0  0
  5 23  1  0  0  0  0
  6  7  1  0  0  0  0
  6 15  1  0  0  0  0
  7  8  1  0  0  0  0
  7 24  1  0  0  0  0
  7 25  1  0  0  0  0
  8  9  2  0  0  0  0
  8 10  1  0  0  0  0
 10 11  1  0  0  0  0
 10 26  1  0  0  0  0
 11 12  1  0  0  0  0
 11 27  1  0  0  0  0
 11 28  1  0  0  0  0
 12 14  1  0  0  0  0
 12 13  1  0  0  0  0
 12 29  1  0  0  0  0
 13 14  1  0  0  0  0
 13 30  1  0  0  0  0
 13 31  1  0  0  0  0
 14 32  1  0  0  0  0
 14 33  1  0  0  0  0
 15 16  2  0  0  0  0
 15 17  1  0  0  0  0
M  CHG  1  17  -1
M  END
> <s_m_source_file>
AV-unprocessed.smi

> <i_m_source_file_index>
2175

> <i_lp_mmshare_version>
43012

> <i_f3d_flags>
0

> <s_epik_input>
W0NIM11jMW5jKFtDSDNdKWMoYyg9TylbbkhdMSlbQ0gyXUMoPU8pW05IXVtDSDJdW0NIXTJbQ0gyXVtDSDJdMg==

> <s_epik_cmdline>
J2VwaWtfcHl0aG9uJywgJy1waCcsICc3LjAnLCAnLXRuJywgJzgnLCAnLW1hJywgJzIwMCcsICctbWV0YWxfYmluZGluZycsICctaW1hZScsICc8aW5maWxlLm1hZT4nLCAnLW9tYWUnLCAnPG91dGZpbGUubWFlPic=

> <r_lp_tautomer_probability>
0.839158

> <r_epik_Ionization_Penalty>
6.60351

> <r_epik_Ionization_Penalty_Charging>
6.70818e-08

> <r_epik_Ionization_Penalty_Neutral>
6.60351

> <r_epik_State_Penalty>
4.42903

> <r_epik_Charging_Adjusted_Penalty>
4.42903

> <i_epik_Tot_Q>
-1

> <i_epik_Tot_abs_Q>
1

> <r_epik_Metal_State_Penalty>
0.797668

> <b_epik_Metal_Only>
1

> <s_lp_Force_Field>
OPLS_2005

> <r_lp_Energy>
17.43

> <b_lp_Chiralities_Consistent>
1

> <s_lp_Variant>
AV-unprocessed.smi:2175-3

> <Gold.Version>
5.8.1

> <Gold.Id.Protein>
6NUR|6NUR_protein|mol2

> <Gold.PLP.Fitness>
38.7248

> <Gold.PLP.PLP>
-30.0787

> <Gold.PLP.part.hbond>
-3.5219

> <Gold.PLP.part.metal>
0.0000

> <Gold.PLP.part.buried>
-2.4735

> <Gold.PLP.part.nonpolar>
-23.5750

> <Gold.PLP.part.repulsive>
0.1321

> <Gold.PLP.ligand.clash>
0.0000

> <Gold.PLP.ligand.torsion>
0.7949

> <Gold.PLP.Chemscore.Hbond>
3.2293

> <Gold.PLP.Chemscore.CHOScore>
0.0000

> <Gold.PLP.Chemscore.Metal>
0.0000

> <Gold.Chemscore.Hbonds>
donor molecule, donor type, donor heavy atom, donor atom, acceptor molecule, acceptor atom, score
      P1  H  6896  6907       L1     3  0.57
      P1  H  7997  8008       L1     9  0.98
      P1  H 10752 10764       L1    17  2.00

> <Gold.PLP.Chemscore.Internal.Correction>
0.5479

> <Gold.Rescore>
     Score         DG    S(hbond)    S(metal)    S(lipo)     H(rot)  DE(clash)    DE(int)     intcor
     14.86     -15.77       1.91        0.00      70.57       1.70       0.07       0.84       ----

> <Gold.Chemscore.Fitness>
14.8574

> <Gold.Chemscore.DG>
-15.7736

> <Gold.Chemscore.ZeroCoef>
-5.4800

> <Gold.Chemscore.Hbond>
1.9135

> <Gold.Chemscore.Metal>
0.0000

> <Gold.Chemscore.Lipo>
70.5712

> <Gold.Chemscore.Internal_Hbond>
0.0000

> <Gold.Chemscore.DEClash>
0.0735

> <Gold.Chemscore.DEInternal>
0.8427

> <Gold.Chemscore.Rot>
1.7009

> <Gold.Chemscore.Internal.Correction>
   9.000000E+99

> <Gold.Chemscore.Hbonds>
donor molecule, donor type, donor heavy atom, donor atom, acceptor molecule, acceptor atom, score
      P1  H  6896  6907       L1     3  0.01
      P1  H  7997  8008       L1     9  0.55
      P1  H 10752 10764       L1    17  0.26

> <Gold.Chemscore.Hbond.Weighted>
-6.3911

> <Gold.Chemscore.Metal.Weighted>
-0.0000

> <Gold.Chemscore.Lipo.Weighted>
-8.2568

> <Gold.Chemscore.Internal_Hbond.Weighted>
0.0000

> <Gold.Chemscore.DEClash.Weighted>
0.0735

> <Gold.Chemscore.DEInternal.Weighted>
0.8427

> <Gold.Chemscore.Rot.Weighted>
4.3543

> <Gold.Chemscore.Internal.Correction.Weighted>
   9.000000E+99

> <Gold.Protein.RotatedTorsions>
[ 6907 6896 6895 6894 ] final   75.36 input  -60.11 | X-H torsion
[ 7974 7965 7964 7962 ] final -159.17 input  175.53 | X-H torsion
[ 8008 7997 7996 7995 ] final -100.74 input   59.86 | X-H torsion
[ 10167 10162 10161 10158 ] final -164.66 input  -65.29 | X-H torsion
[ 10718 10713 10712 10709 ] final   62.42 input   66.30 | X-H torsion
[ 10763 10752 10751 10750 ] final   22.91 input  -60.55 | X-H torsion
[ 11005 11000 10999 10996 ] final  -90.49 input  -57.11 | X-H torsion

> <Gold.Protein.ActiveResidues>
 VAL166  LYS551  ARG553  GLY616  TRP617  ASP618  TYR619  PRO620  LYS621  CYS622 
 ASP623  PHE694  ASN695  SER759  ASP760  ASP761  ALA762  ILE779  LEU786  VAL792 
 PHE793  MET794  SER795  GLU796  ALA797  LYS798  CYS799  TRP800  GLU811  SER814 

> <Gold.Protein.RotatedAtoms>
  152.5022  134.4131  159.9455 H   0  0  0  0  0  0  0  0  0  0  0  0  # atno 6907 bound_to 6896
  151.4100  133.3724  159.2750 H   0  0  0  0  0  0  0  0  0  0  0  0  # atno 6908 bound_to 6896
  150.9298  134.8735  159.7603 H   0  0  0  0  0  0  0  0  0  0  0  0  # atno 6909 bound_to 6896
  144.7476  140.3723  143.6073 H   0  0  0  0  0  0  0  0  0  0  0  0  # atno 7974 bound_to 7965
  154.8328  140.0439  157.1488 H   0  0  0  0  0  0  0  0  0  0  0  0  # atno 8008 bound_to 7997
  154.9133  140.3016  155.5234 H   0  0  0  0  0  0  0  0  0  0  0  0  # atno 8009 bound_to 7997
  156.2988  140.2354  156.4175 H   0  0  0  0  0  0  0  0  0  0  0  0  # atno 8010 bound_to 7997
  139.6235  144.0578  152.1954 H   0  0  0  0  0  0  0  0  0  0  0  0  # atno 10167 bound_to 10162
  157.5899  130.9049  149.9585 H   0  0  0  0  0  0  0  0  0  0  0  0  # atno 10718 bound_to 10713
  153.0878  135.6638  153.9913 H   0  0  0  0  0  0  0  0  0  0  0  0  # atno 10763 bound_to 10752
  153.9518  135.2983  155.3439 H   0  0  0  0  0  0  0  0  0  0  0  0  # atno 10764 bound_to 10752
  154.7289  135.5132  153.9004 H   0  0  0  0  0  0  0  0  0  0  0  0  # atno 10765 bound_to 10752
  141.1564  133.7696  156.9745 H   0  0  0  0  0  0  0  0  0  0  0  0  # atno 11005 bound_to 11000
  145.7064  139.1674  143.2563 LP  0  0  0  0  0  0  0  0  0  0  0  0  # atno 17320 bound_to 7965
  146.1378  140.7098  142.9381 LP  0  0  0  0  0  0  0  0  0  0  0  0  # atno 17321 bound_to 7965
  140.0226  144.6142  150.7554 LP  0  0  0  0  0  0  0  0  0  0  0  0  # atno 17342 bound_to 10162
  140.7396  143.2794  151.3643 LP  0  0  0  0  0  0  0  0  0  0  0  0  # atno 17343 bound_to 10162
  156.0952  130.3660  150.0319 LP  0  0  0  0  0  0  0  0  0  0  0  0  # atno 17370 bound_to 10713
  156.8443  130.9437  151.3630 LP  0  0  0  0  0  0  0  0  0  0  0  0  # atno 17371 bound_to 10713
  140.1107  134.9479  157.2060 LP  0  0  0  0  0  0  0  0  0  0  0  0  # atno 17394 bound_to 11000
  140.3198  134.2929  155.7248 LP  0  0  0  0  0  0  0  0  0  0  0  0  # atno 17395 bound_to 11000

$$$$
