AV-unprocessed.smi:830|AV-procd|sdf|3873|dock4
  -GOLD-   22720 1323D 1   1.00000     0.00000
 Structure written by MMmdl.
 53 55  0  0  0  0  0  0  0  0  2 V2000
  153.0617  138.2041  154.3280 C   0  0  0  0  0  0  0  0  0  0  0  0
  151.6026  138.6239  154.0848 C   0  0  1  0  0  0  0  0  0  0  0  0
  150.7981  137.4103  153.9477 N   0  0  0  0  0  0  0  0  0  0  0  0
  150.9077  136.3183  154.7184 C   0  0  0  0  0  0  0  0  0  0  0  0
  151.6816  136.2311  155.6719 O   0  0  0  0  0  0  0  0  0  0  0  0
  150.0888  135.3409  154.2971 N   0  0  0  0  0  0  0  0  0  0  0  0
  150.0122  134.0049  154.7807 C   0  0  0  0  0  0  0  0  0  0  0  0
  150.9469  133.4960  155.7179 C   0  0  0  0  0  0  0  0  0  0  0  0
  150.8092  132.1796  156.1985 C   0  0  0  0  0  0  0  0  0  0  0  0
  149.7336  131.3965  155.7435 C   0  0  0  0  0  0  0  0  0  0  0  0
  148.8529  131.9158  154.8628 N   0  3  0  0  0  0  0  0  0  0  0  0
  148.9349  133.1749  154.3657 C   0  0  0  0  0  0  0  0  0  0  0  0
  147.9709  133.6036  153.4280 N   0  0  0  0  0  0  0  0  0  0  0  0
  148.1013  132.9910  152.1079 C   0  0  0  0  0  0  0  0  0  0  0  0
  146.6792  132.7899  151.5805 C   0  0  0  0  0  0  0  0  0  0  0  0
  145.8507  132.6698  152.8536 C   0  0  0  0  0  0  0  0  0  0  0  0
  146.5570  133.6397  153.7988 C   0  0  0  0  0  0  0  0  0  0  0  0
  151.1347  139.4578  155.2890 C   0  0  0  0  0  0  0  0  0  0  0  0
  150.7423  140.6162  155.1371 O   0  0  0  0  0  0  0  0  0  0  0  0
  151.1695  138.8442  156.4815 N   0  0  0  0  0  0  0  0  0  0  0  0
  150.7782  139.4506  157.7512 C   0  0  0  0  0  0  0  0  0  0  0  0
  149.3729  140.0739  157.6502 C   0  0  0  0  0  0  0  0  0  0  0  0
  149.4832  141.4667  158.2724 C   0  0  0  0  0  0  0  0  0  0  0  0
  150.9228  141.8884  157.9973 C   0  0  0  0  0  0  0  0  0  0  0  0
  151.7278  140.5978  158.1529 C   0  0  0  0  0  0  0  0  0  0  0  0
  153.7129  139.0733  154.4298 H   0  0  0  0  0  0  0  0  0  0  0  0
  153.4406  137.6124  153.4942 H   0  0  0  0  0  0  0  0  0  0  0  0
  153.1660  137.6034  155.2330 H   0  0  0  0  0  0  0  0  0  0  0  0
  151.5388  139.2159  153.1695 H   0  0  0  0  0  0  0  0  0  0  0  0
  150.1389  137.3912  153.1836 H   0  0  0  0  0  0  0  0  0  0  0  0
  149.5704  135.5298  153.4515 H   0  0  0  0  0  0  0  0  0  0  0  0
  151.7601  134.1021  156.0877 H   0  0  0  0  0  0  0  0  0  0  0  0
  151.5165  131.7799  156.9105 H   0  0  0  0  0  0  0  0  0  0  0  0
  149.5491  130.3792  156.0570 H   0  0  0  0  0  0  0  0  0  0  0  0
  148.6849  133.6197  151.4350 H   0  0  0  0  0  0  0  0  0  0  0  0
  148.6081  132.0279  152.1896 H   0  0  0  0  0  0  0  0  0  0  0  0
  146.3642  133.6703  151.0185 H   0  0  0  0  0  0  0  0  0  0  0  0
  146.5879  131.9218  150.9270 H   0  0  0  0  0  0  0  0  0  0  0  0
  144.7980  132.9121  152.7041 H   0  0  0  0  0  0  0  0  0  0  0  0
  145.9145  131.6534  153.2448 H   0  0  0  0  0  0  0  0  0  0  0  0
  146.3511  133.4069  154.8433 H   0  0  0  0  0  0  0  0  0  0  0  0
  146.1962  134.6542  153.6256 H   0  0  0  0  0  0  0  0  0  0  0  0
  151.5007  137.8909  156.5143 H   0  0  0  0  0  0  0  0  0  0  0  0
  150.7792  138.6885  158.5327 H   0  0  0  0  0  0  0  0  0  0  0  0
  149.0719  140.1771  156.6063 H   0  0  0  0  0  0  0  0  0  0  0  0
  148.6153  139.4648  158.1443 H   0  0  0  0  0  0  0  0  0  0  0  0
  148.7542  142.1680  157.8651 H   0  0  0  0  0  0  0  0  0  0  0  0
  149.3192  141.4029  159.3489 H   0  0  0  0  0  0  0  0  0  0  0  0
  151.0089  142.2547  156.9735 H   0  0  0  0  0  0  0  0  0  0  0  0
  151.2646  142.6796  158.6651 H   0  0  0  0  0  0  0  0  0  0  0  0
  152.0126  140.4758  159.1986 H   0  0  0  0  0  0  0  0  0  0  0  0
  152.6515  140.6235  157.5729 H   0  0  0  0  0  0  0  0  0  0  0  0
  148.0834  131.3239  154.5493 H   0  0  0  0  0  0  0  0  0  0  0  0
  1  2  1  0  0  0  0
  1 26  1  0  0  0  0
  1 27  1  0  0  0  0
  1 28  1  0  0  0  0
  2  3  1  0  0  0  0
  2 18  1  0  0  0  0
  2 29  1  0  0  0  0
  3  4  1  0  0  0  0
  3 30  1  0  0  0  0
  4  5  2  0  0  0  0
  4  6  1  0  0  0  0
  6  7  1  0  0  0  0
  6 31  1  0  0  0  0
  7 12  1  0  0  0  0
  7  8  2  0  0  0  0
  8  9  1  0  0  0  0
  8 32  1  0  0  0  0
  9 10  2  0  0  0  0
  9 33  1  0  0  0  0
 10 11  1  0  0  0  0
 10 34  1  0  0  0  0
 11 12  2  0  0  0  0
 11 53  1  0  0  0  0
 12 13  1  0  0  0  0
 13 17  1  0  0  0  0
 13 14  1  0  0  0  0
 14 15  1  0  0  0  0
 14 35  1  0  0  0  0
 14 36  1  0  0  0  0
 15 16  1  0  0  0  0
 15 37  1  0  0  0  0
 15 38  1  0  0  0  0
 16 17  1  0  0  0  0
 16 39  1  0  0  0  0
 16 40  1  0  0  0  0
 17 41  1  0  0  0  0
 17 42  1  0  0  0  0
 18 19  2  0  0  0  0
 18 20  1  0  0  0  0
 20 21  1  0  0  0  0
 20 43  1  0  0  0  0
 21 25  1  0  0  0  0
 21 22  1  0  0  0  0
 21 44  1  0  0  0  0
 22 23  1  0  0  0  0
 22 45  1  0  0  0  0
 22 46  1  0  0  0  0
 23 24  1  0  0  0  0
 23 47  1  0  0  0  0
 23 48  1  0  0  0  0
 24 25  1  0  0  0  0
 24 49  1  0  0  0  0
 24 50  1  0  0  0  0
 25 51  1  0  0  0  0
 25 52  1  0  0  0  0
M  CHG  1  11   1
M  END
> <s_m_source_file>
AV-unprocessed.smi

> <i_m_source_file_index>
830

> <i_lp_mmshare_version>
43012

> <i_f3d_flags>
0

> <s_epik_input>
W0NIMl0xW0NIMl1bQ0gyXVtDSDJdW0NIXTFbTkhdQyg9TylbQ0BIXShbQ0gzXSlbTkhdQyg9TylbTkhdYzJbY0hdW2NIXVtjSF1uYzJOM1tDSDJdW0NIMl1bQ0gyXVtDSDJdMw==

> <s_epik_cmdline>
J2VwaWtfcHl0aG9uJywgJy1waCcsICc3LjAnLCAnLXRuJywgJzgnLCAnLW1hJywgJzIwMCcsICctbWV0YWxfYmluZGluZycsICctaW1hZScsICc8aW5maWxlLm1hZT4nLCAnLW9tYWUnLCAnPG91dGZpbGUubWFlPic=

> <r_lp_tautomer_probability>
0.999994

> <r_epik_Ionization_Penalty>
1.21091

> <r_epik_Ionization_Penalty_Charging>
1.21089

> <r_epik_Ionization_Penalty_Neutral>
1.88713e-05

> <r_epik_State_Penalty>
1.27732

> <r_epik_Charging_Adjusted_Penalty>
2.48821

> <i_epik_Tot_Q>
1

> <i_epik_Tot_abs_Q>
1

> <r_epik_Metal_State_Penalty>
1.3505

> <b_epik_Metal_Only>
0

> <s_lp_Force_Field>
OPLS_2005

> <r_lp_Energy>
52.3557

> <b_lp_Chiralities_Consistent>
1

> <s_lp_Variant>
AV-unprocessed.smi:830-4

> <Gold.Version>
5.8.1

> <Gold.Id.Protein>
6NUR|6NUR_protein|mol2

> <Gold.PLP.Fitness>
46.1536

> <Gold.PLP.PLP>
-35.5167

> <Gold.PLP.part.hbond>
-5.3355

> <Gold.PLP.part.metal>
0.0000

> <Gold.PLP.part.buried>
-3.1736

> <Gold.PLP.part.nonpolar>
-27.9740

> <Gold.PLP.part.repulsive>
0.4403

> <Gold.PLP.ligand.clash>
0.0000

> <Gold.PLP.ligand.torsion>
0.4275

> <Gold.PLP.Chemscore.Hbond>
3.7648

> <Gold.PLP.Chemscore.CHOScore>
0.0000

> <Gold.PLP.Chemscore.Metal>
0.0000

> <Gold.Chemscore.Hbonds>
donor molecule, donor type, donor heavy atom, donor atom, acceptor molecule, acceptor atom, score
      L1  H     3    30       P1  7948  0.73
      L1  H     6    31       P1  7948  0.75
      P1  H  7989  7998       L1    19  0.71
      P1  H 10752 10764       L1     5  1.00

> <Gold.PLP.Chemscore.Internal.Correction>
0.1975

> <Gold.Rescore>
     Score         DG    S(hbond)    S(metal)    S(lipo)     H(rot)  DE(clash)    DE(int)     intcor
     13.41     -19.66       2.85        0.00      76.24       1.67       1.74       4.51       ----

> <Gold.Chemscore.Fitness>
13.4121

> <Gold.Chemscore.DG>
-19.6575

> <Gold.Chemscore.ZeroCoef>
-5.4800

> <Gold.Chemscore.Hbond>
2.8522

> <Gold.Chemscore.Metal>
0.0000

> <Gold.Chemscore.Lipo>
76.2406

> <Gold.Chemscore.Internal_Hbond>
0.0000

> <Gold.Chemscore.DEClash>
1.7391

> <Gold.Chemscore.DEInternal>
4.5063

> <Gold.Chemscore.Rot>
1.6676

> <Gold.Chemscore.Internal.Correction>
   9.000000E+99

> <Gold.Chemscore.Hbonds>
donor molecule, donor type, donor heavy atom, donor atom, acceptor molecule, acceptor atom, score
      L1  H     3    30       P1  7948  0.12
      L1  H     6    31       P1  7948  0.09
      P1  H  7989  7998       L1    19  0.09
      P1  H 10752 10764       L1     5  0.59

> <Gold.Chemscore.Hbond.Weighted>
-9.5265

> <Gold.Chemscore.Metal.Weighted>
-0.0000

> <Gold.Chemscore.Lipo.Weighted>
-8.9202

> <Gold.Chemscore.Internal_Hbond.Weighted>
0.0000

> <Gold.Chemscore.DEClash.Weighted>
1.7391

> <Gold.Chemscore.DEInternal.Weighted>
4.5063

> <Gold.Chemscore.Rot.Weighted>
4.2691

> <Gold.Chemscore.Internal.Correction.Weighted>
   9.000000E+99

> <Gold.Protein.RotatedTorsions>
[ 6907 6896 6895 6894 ] final  116.41 input  -60.11 | X-H torsion
[ 7974 7965 7964 7962 ] final -171.19 input  175.53 | X-H torsion
[ 8008 7997 7996 7995 ] final  -24.65 input   59.86 | X-H torsion
[ 10167 10162 10161 10158 ] final   35.25 input  -65.29 | X-H torsion
[ 10718 10713 10712 10709 ] final -132.13 input   66.30 | X-H torsion
[ 10763 10752 10751 10750 ] final  -26.28 input  -60.55 | X-H torsion
[ 11005 11000 10999 10996 ] final  -37.99 input  -57.11 | X-H torsion

> <Gold.Protein.ActiveResidues>
 VAL166  LYS551  ARG553  GLY616  TRP617  ASP618  TYR619  PRO620  LYS621  CYS622 
 ASP623  PHE694  ASN695  SER759  ASP760  ASP761  ALA762  ILE779  LEU786  VAL792 
 PHE793  MET794  SER795  GLU796  ALA797  LYS798  CYS799  TRP800  GLU811  SER814 

> <Gold.Protein.RotatedAtoms>
  152.4680  133.7965  159.6929 H   0  0  0  0  0  0  0  0  0  0  0  0  # atno 6907 bound_to 6896
  150.8654  133.7573  159.2985 H   0  0  0  0  0  0  0  0  0  0  0  0  # atno 6908 bound_to 6896
  151.5125  135.1068  159.9909 H   0  0  0  0  0  0  0  0  0  0  0  0  # atno 6909 bound_to 6896
  144.7160  140.1960  143.6343 H   0  0  0  0  0  0  0  0  0  0  0  0  # atno 7974 bound_to 7965
  154.4518  140.1948  156.0497 H   0  0  0  0  0  0  0  0  0  0  0  0  # atno 8008 bound_to 7997
  156.0663  140.3290  155.7494 H   0  0  0  0  0  0  0  0  0  0  0  0  # atno 8009 bound_to 7997
  155.5333  140.0580  157.2875 H   0  0  0  0  0  0  0  0  0  0  0  0  # atno 8010 bound_to 7997
  140.4239  144.1421  150.6151 H   0  0  0  0  0  0  0  0  0  0  0  0  # atno 10167 bound_to 10162
  156.2315  130.7040  151.0863 H   0  0  0  0  0  0  0  0  0  0  0  0  # atno 10718 bound_to 10713
  153.7134  135.6949  153.5031 H   0  0  0  0  0  0  0  0  0  0  0  0  # atno 10763 bound_to 10752
  153.2256  135.4355  155.0537 H   0  0  0  0  0  0  0  0  0  0  0  0  # atno 10764 bound_to 10752
  154.8307  135.3471  154.6670 H   0  0  0  0  0  0  0  0  0  0  0  0  # atno 10765 bound_to 10752
  140.9994  133.6963  156.1994 H   0  0  0  0  0  0  0  0  0  0  0  0  # atno 11005 bound_to 11000
  145.8724  139.2279  143.1653 LP  0  0  0  0  0  0  0  0  0  0  0  0  # atno 17320 bound_to 7965
  146.0072  140.8468  142.9989 LP  0  0  0  0  0  0  0  0  0  0  0  0  # atno 17321 bound_to 7965
  140.4503  143.2489  151.9357 LP  0  0  0  0  0  0  0  0  0  0  0  0  # atno 17342 bound_to 10162
  139.4783  144.5569  151.8300 LP  0  0  0  0  0  0  0  0  0  0  0  0  # atno 17343 bound_to 10162
  157.7135  131.0722  150.6414 LP  0  0  0  0  0  0  0  0  0  0  0  0  # atno 17370 bound_to 10713
  156.6482  130.4477  149.5728 LP  0  0  0  0  0  0  0  0  0  0  0  0  # atno 17371 bound_to 10713
  140.6914  134.4662  157.5588 LP  0  0  0  0  0  0  0  0  0  0  0  0  # atno 17394 bound_to 11000
  139.9031  134.8511  156.1815 LP  0  0  0  0  0  0  0  0  0  0  0  0  # atno 17395 bound_to 11000

$$$$
