AV-unprocessed.smi:3311|AV-procd|sdf|12725|dock5
  -GOLD-   2272019 63D 1   1.00000     0.00000
 Structure written by MMmdl.
 43 44  0  0  0  0  0  0  0  0  1 V2000
  148.9371  139.5608  157.1928 C   0  0  0  0  0  0  0  0  0  0  0  0
  149.7700  140.6624  156.4992 C   0  0  2  0  0  0  0  0  0  0  0  0
  149.1397  141.9784  156.6598 N   0  0  0  0  0  0  0  0  0  0  0  0
  149.1900  142.5502  158.0076 C   0  0  0  0  0  0  0  0  0  0  0  0
  150.5921  143.0935  158.3644 C   0  0  0  0  0  0  0  0  0  0  0  0
  151.1275  143.6713  157.1868 O   0  0  0  0  0  0  0  0  0  0  0  0
  150.5494  144.1508  159.4975 C   0  0  0  0  0  0  0  0  0  0  0  0
  151.9492  144.5910  159.9628 C   0  0  0  0  0  0  0  0  0  0  0  0
  152.8078  143.3879  160.3757 C   0  0  0  0  0  0  0  0  0  0  0  0
  152.9077  142.3692  159.2322 C   0  0  0  0  0  0  0  0  0  0  0  0
  151.5125  141.9158  158.7658 C   0  0  0  0  0  0  0  0  0  0  0  0
  150.0074  140.3827  154.9905 C   0  0  1  0  0  0  0  0  0  0  0  0
  150.9519  139.1896  154.7516 C   0  0  0  0  0  0  0  0  0  0  0  0
  148.7596  140.1656  154.2679 N   0  0  0  0  0  0  0  0  0  0  0  0
  148.3500  139.0463  153.5701 C   0  0  0  0  0  0  0  0  0  0  0  0
  147.1108  139.3116  153.0619 C   0  0  0  0  0  0  0  0  0  0  0  0
  146.8420  140.6368  153.5039 C   0  0  0  0  0  0  0  0  0  0  0  0
  147.8295  141.1451  154.2230 N   0  0  0  0  0  0  0  0  0  0  0  0
  149.3994  138.5789  157.0964 H   0  0  0  0  0  0  0  0  0  0  0  0
  147.9360  139.4964  156.7654 H   0  0  0  0  0  0  0  0  0  0  0  0
  148.8334  139.7380  158.2626 H   0  0  0  0  0  0  0  0  0  0  0  0
  150.7476  140.6840  156.9828 H   0  0  0  0  0  0  0  0  0  0  0  0
  149.5569  142.6342  156.0065 H   0  0  0  0  0  0  0  0  0  0  0  0
  148.4708  143.3643  158.0909 H   0  0  0  0  0  0  0  0  0  0  0  0
  148.8937  141.7995  158.7416 H   0  0  0  0  0  0  0  0  0  0  0  0
  150.4533  144.1917  156.7774 H   0  0  0  0  0  0  0  0  0  0  0  0
  149.9869  145.0307  159.1832 H   0  0  0  0  0  0  0  0  0  0  0  0
  150.0102  143.7372  160.3509 H   0  0  0  0  0  0  0  0  0  0  0  0
  152.4481  145.1403  159.1637 H   0  0  0  0  0  0  0  0  0  0  0  0
  151.8583  145.2841  160.7996 H   0  0  0  0  0  0  0  0  0  0  0  0
  153.8044  143.7228  160.6652 H   0  0  0  0  0  0  0  0  0  0  0  0
  152.3732  142.9108  161.2550 H   0  0  0  0  0  0  0  0  0  0  0  0
  153.4548  142.8073  158.3967 H   0  0  0  0  0  0  0  0  0  0  0  0
  153.4874  141.5050  159.5572 H   0  0  0  0  0  0  0  0  0  0  0  0
  151.0438  141.3554  159.5761 H   0  0  0  0  0  0  0  0  0  0  0  0
  151.6135  141.2142  157.9365 H   0  0  0  0  0  0  0  0  0  0  0  0
  150.4819  141.2665  154.5588 H   0  0  0  0  0  0  0  0  0  0  0  0
  151.9400  139.3679  155.1762 H   0  0  0  0  0  0  0  0  0  0  0  0
  151.0882  139.0073  153.6851 H   0  0  0  0  0  0  0  0  0  0  0  0
  150.5604  138.2749  155.1978 H   0  0  0  0  0  0  0  0  0  0  0  0
  148.9677  138.1632  153.4967 H   0  0  0  0  0  0  0  0  0  0  0  0
  146.4910  138.6591  152.4652 H   0  0  0  0  0  0  0  0  0  0  0  0
  145.9646  141.2406  153.3248 H   0  0  0  0  0  0  0  0  0  0  0  0
  1  2  1  0  0  0  0
  1 19  1  0  0  0  0
  1 20  1  0  0  0  0
  1 21  1  0  0  0  0
  2  3  1  0  0  0  0
  2 12  1  0  0  0  0
  2 22  1  0  0  0  0
  3  4  1  0  0  0  0
  3 23  1  0  0  0  0
  4  5  1  0  0  0  0
  4 24  1  0  0  0  0
  4 25  1  0  0  0  0
  5 11  1  0  0  0  0
  5  6  1  0  0  0  0
  5  7  1  0  0  0  0
  6 26  1  0  0  0  0
  7  8  1  0  0  0  0
  7 27  1  0  0  0  0
  7 28  1  0  0  0  0
  8  9  1  0  0  0  0
  8 29  1  0  0  0  0
  8 30  1  0  0  0  0
  9 10  1  0  0  0  0
  9 31  1  0  0  0  0
  9 32  1  0  0  0  0
 10 11  1  0  0  0  0
 10 33  1  0  0  0  0
 10 34  1  0  0  0  0
 11 35  1  0  0  0  0
 11 36  1  0  0  0  0
 12 13  1  0  0  0  0
 12 14  1  0  0  0  0
 12 37  1  0  0  0  0
 13 38  1  0  0  0  0
 13 39  1  0  0  0  0
 13 40  1  0  0  0  0
 14 18  1  0  0  0  0
 14 15  1  0  0  0  0
 15 16  2  0  0  0  0
 15 41  1  0  0  0  0
 16 17  1  0  0  0  0
 16 42  1  0  0  0  0
 17 18  2  0  0  0  0
 17 43  1  0  0  0  0
M  END
> <s_m_source_file>
AV-unprocessed.smi

> <i_m_source_file_index>
3311

> <i_lp_mmshare_version>
43012

> <i_f3d_flags>
0

> <s_epik_input>
bjFbY0hdW2NIXVtjSF1uMVtDQEBIXShbQ0gzXSlbQ0BIXShbQ0gzXSlbTkhdW0NIMl1DMihbT0hdKVtDSDJdW0NIMl1bQ0gyXVtDSDJdW0NIMl0y

> <s_epik_cmdline>
J2VwaWtfcHl0aG9uJywgJy1waCcsICc3LjAnLCAnLXRuJywgJzgnLCAnLW1hJywgJzIwMCcsICctbWV0YWxfYmluZGluZycsICctaW1hZScsICc8aW5maWxlLm1hZT4nLCAnLW9tYWUnLCAnPG91dGZpbGUubWFlPic=

> <r_lp_tautomer_probability>
1

> <r_epik_Ionization_Penalty>
2.222

> <r_epik_Ionization_Penalty_Charging>
0

> <r_epik_Ionization_Penalty_Neutral>
2.222

> <r_epik_State_Penalty>
2.36562

> <r_epik_Charging_Adjusted_Penalty>
2.36562

> <i_epik_Tot_Q>
0

> <i_epik_Tot_abs_Q>
0

> <r_epik_Metal_State_Penalty>
2.36435

> <b_epik_Metal_Only>
0

> <s_lp_Force_Field>
OPLS_2005

> <r_lp_Energy>
27.677

> <b_lp_Chiralities_Consistent>
1

> <s_lp_Variant>
AV-unprocessed.smi:3311-7

> <Gold.Version>
5.8.1

> <Gold.Id.Protein>
6NUR|6NUR_protein|mol2

> <Gold.PLP.Fitness>
44.1346

> <Gold.PLP.PLP>
-35.3011

> <Gold.PLP.part.hbond>
-2.0000

> <Gold.PLP.part.metal>
0.0000

> <Gold.PLP.part.buried>
-1.7232

> <Gold.PLP.part.nonpolar>
-31.9267

> <Gold.PLP.part.repulsive>
0.1416

> <Gold.PLP.ligand.clash>
0.0000

> <Gold.PLP.ligand.torsion>
0.6057

> <Gold.PLP.Chemscore.Hbond>
1.3260

> <Gold.PLP.Chemscore.CHOScore>
1.9914

> <Gold.PLP.Chemscore.Metal>
0.0000

> <Gold.Chemscore.Hbonds>
donor molecule, donor type, donor heavy atom, donor atom, acceptor molecule, acceptor atom, score
      L1  H     3    23       P1  8028  0.27
      L1  H     6    26       P1  8028  1.00
      L1  C    15    41       P1  7948  1.00
      L1  C    17    43       P1 10175  0.96

> <Gold.PLP.Chemscore.Internal.Correction>
0.0926

> <Gold.Rescore>
     Score         DG    S(hbond)    S(metal)    S(lipo)     H(rot)  DE(clash)    DE(int)     intcor
     15.52     -17.54       1.50        0.00     105.44       2.07       0.14       1.88       ----

> <Gold.Chemscore.Fitness>
15.5213

> <Gold.Chemscore.DG>
-17.5408

> <Gold.Chemscore.ZeroCoef>
-5.4800

> <Gold.Chemscore.Hbond>
1.5032

> <Gold.Chemscore.Metal>
0.0000

> <Gold.Chemscore.Lipo>
105.4352

> <Gold.Chemscore.Internal_Hbond>
0.0000

> <Gold.Chemscore.DEClash>
0.1441

> <Gold.Chemscore.DEInternal>
1.8754

> <Gold.Chemscore.Rot>
2.0686

> <Gold.Chemscore.Internal.Correction>
   9.000000E+99

> <Gold.Chemscore.Hbonds>
donor molecule, donor type, donor heavy atom, donor atom, acceptor molecule, acceptor atom, score
      L1  H     3    23       P1  8028  0.27
      L1  H     6    26       P1  8028  0.97

> <Gold.Chemscore.Hbond.Weighted>
-5.0206

> <Gold.Chemscore.Metal.Weighted>
-0.0000

> <Gold.Chemscore.Lipo.Weighted>
-12.3359

> <Gold.Chemscore.Internal_Hbond.Weighted>
0.0000

> <Gold.Chemscore.DEClash.Weighted>
0.1441

> <Gold.Chemscore.DEInternal.Weighted>
1.8754

> <Gold.Chemscore.Rot.Weighted>
5.2957

> <Gold.Chemscore.Internal.Correction.Weighted>
   9.000000E+99

> <Gold.Protein.RotatedTorsions>
[ 6907 6896 6895 6894 ] final  116.16 input  -60.11 | X-H torsion
[ 7974 7965 7964 7962 ] final   47.91 input  175.53 | X-H torsion
[ 8008 7997 7996 7995 ] final  -22.68 input   59.86 | X-H torsion
[ 10167 10162 10161 10158 ] final   59.48 input  -65.29 | X-H torsion
[ 10718 10713 10712 10709 ] final   40.29 input   66.30 | X-H torsion
[ 10763 10752 10751 10750 ] final -145.91 input  -60.55 | X-H torsion
[ 11005 11000 10999 10996 ] final  -92.45 input  -57.11 | X-H torsion

> <Gold.Protein.ActiveResidues>
 VAL166  LYS551  ARG553  GLY616  TRP617  ASP618  TYR619  PRO620  LYS621  CYS622 
 ASP623  PHE694  ASN695  SER759  ASP760  ASP761  ALA762  ILE779  LEU786  VAL792 
 PHE793  MET794  SER795  GLU796  ALA797  LYS798  CYS799  TRP800  GLU811  SER814 

> <Gold.Protein.RotatedAtoms>
  152.4696  133.7999  159.6946 H   0  0  0  0  0  0  0  0  0  0  0  0  # atno 6907 bound_to 6896
  150.8677  133.7540  159.2977 H   0  0  0  0  0  0  0  0  0  0  0  0  # atno 6908 bound_to 6896
  151.5085  135.1067  159.9899 H   0  0  0  0  0  0  0  0  0  0  0  0  # atno 6909 bound_to 6896
  146.0253  139.4699  142.9871 H   0  0  0  0  0  0  0  0  0  0  0  0  # atno 7974 bound_to 7965
  154.4629  140.2001  156.0195 H   0  0  0  0  0  0  0  0  0  0  0  0  # atno 8008 bound_to 7997
  156.0874  140.3263  155.7743 H   0  0  0  0  0  0  0  0  0  0  0  0  # atno 8009 bound_to 7997
  155.5012  140.0554  157.2929 H   0  0  0  0  0  0  0  0  0  0  0  0  # atno 8010 bound_to 7997
  140.1760  144.4229  150.6638 H   0  0  0  0  0  0  0  0  0  0  0  0  # atno 10167 bound_to 10162
  157.3805  130.7751  149.7189 H   0  0  0  0  0  0  0  0  0  0  0  0  # atno 10718 bound_to 10713
  154.8361  135.3400  154.6578 H   0  0  0  0  0  0  0  0  0  0  0  0  # atno 10763 bound_to 10752
  153.7193  135.6959  153.5021 H   0  0  0  0  0  0  0  0  0  0  0  0  # atno 10764 bound_to 10752
  153.2393  135.4390  155.0634 H   0  0  0  0  0  0  0  0  0  0  0  0  # atno 10765 bound_to 10752
  141.1521  133.7821  157.0021 H   0  0  0  0  0  0  0  0  0  0  0  0  # atno 11005 bound_to 11000
  145.7127  141.0101  143.1444 LP  0  0  0  0  0  0  0  0  0  0  0  0  # atno 17320 bound_to 7965
  144.7007  139.8777  143.7445 LP  0  0  0  0  0  0  0  0  0  0  0  0  # atno 17321 bound_to 7965
  140.6551  143.2235  151.5988 LP  0  0  0  0  0  0  0  0  0  0  0  0  # atno 17342 bound_to 10162
  139.5317  144.2897  152.1162 LP  0  0  0  0  0  0  0  0  0  0  0  0  # atno 17343 bound_to 10162
  155.9775  130.4063  150.3711 LP  0  0  0  0  0  0  0  0  0  0  0  0  # atno 17370 bound_to 10713
  157.1814  131.0393  151.2746 LP  0  0  0  0  0  0  0  0  0  0  0  0  # atno 17371 bound_to 10713
  140.0933  134.9579  157.1810 LP  0  0  0  0  0  0  0  0  0  0  0  0  # atno 17394 bound_to 11000
  140.3416  134.2697  155.7211 LP  0  0  0  0  0  0  0  0  0  0  0  0  # atno 17395 bound_to 11000

$$$$
