AV-unprocessed.smi:21|AV-procd|sdf|129|dock10
  -GOLD-   2262015313D 1   1.00000     0.00000
 Structure written by MMmdl.
 62 65  0  0  0  0  0  0  0  0  2 V2000
  147.1363  130.4266  153.2864 C   0  0  0  0  0  0  0  0  0  0  0  0
  148.2965  131.1913  153.5708 O   0  0  0  0  0  0  0  0  0  0  0  0
  148.0385  132.3313  154.3766 C   0  0  1  0  0  0  0  0  0  0  0  0
  149.3417  133.0161  154.7651 C   0  0  0  0  0  0  0  0  0  0  0  0
  148.8912  134.4400  155.0989 C   0  0  1  0  0  0  0  0  0  0  0  0
  150.0265  135.4820  154.9922 C   0  0  0  0  0  0  0  0  0  0  0  0
  149.9309  136.5542  155.9819 N   0  0  0  0  0  0  0  0  0  0  0  0
  149.9777  136.1722  157.3866 C   0  0  0  0  0  0  0  0  0  0  0  0
  150.5689  137.7251  155.7391 C   0  0  0  0  0  0  0  0  0  0  0  0
  151.6135  137.6867  154.8740 N   0  0  0  0  0  0  0  0  0  0  0  0
  152.3069  138.7970  154.6061 C   0  0  0  0  0  0  0  0  0  0  0  0
  152.1273  140.0289  155.0862 N   0  0  0  0  0  0  0  0  0  0  0  0
  151.0692  140.0759  155.9451 C   0  0  0  0  0  0  0  0  0  0  0  0
  150.2361  138.9842  156.3203 C   0  0  0  0  0  0  0  0  0  0  0  0
  149.2569  139.4248  157.2047 N   0  0  0  0  0  0  0  0  0  0  0  0
  149.5044  140.6972  157.3525 C   0  0  0  0  0  0  0  0  0  0  0  0
  150.5844  141.1675  156.6419 N   0  0  0  0  0  0  0  0  0  0  0  0
  151.0974  142.5250  156.6306 C   0  0  0  0  0  0  0  0  0  0  0  0
  151.4539  143.0589  158.0399 C   0  0  2  0  0  0  0  0  0  0  0  0
  151.4013  144.6064  158.1348 C   0  0  0  0  0  0  0  0  0  0  0  0
  150.2656  145.0530  158.8485 O   0  0  0  0  0  0  0  0  0  0  0  0
  152.8080  142.4624  158.5026 C   0  0  1  0  0  0  0  0  0  0  0  0
  153.3166  142.9342  159.8613 C   0  0  0  0  0  0  0  0  0  0  0  0
  154.1414  141.7447  160.3316 C   0  0  0  0  0  0  0  0  0  0  0  0
  153.3606  140.6404  159.9078 O   0  0  0  0  0  0  0  0  0  0  0  0
  152.8529  140.9274  158.6097 C   0  0  0  0  0  0  0  0  0  0  0  0
  147.7942  134.7298  154.1468 N   0  3  2  0  0  0  0  0  0  0  0  0
  146.7469  135.6235  154.6884 C   0  0  0  0  0  0  0  0  0  0  0  0
  147.2760  133.4383  153.6358 C   0  0  0  0  0  0  0  0  0  0  0  0
  147.5056  132.0520  155.2878 H   0  0  0  0  0  0  0  0  0  0  0  0
  148.4622  134.4270  156.1020 H   0  0  0  0  0  0  0  0  0  0  0  0
  147.4097  129.5625  152.6812 H   0  0  0  0  0  0  0  0  0  0  0  0
  146.4004  131.0057  152.7277 H   0  0  0  0  0  0  0  0  0  0  0  0
  146.6712  130.0601  154.2023 H   0  0  0  0  0  0  0  0  0  0  0  0
  149.8459  132.5247  155.5980 H   0  0  0  0  0  0  0  0  0  0  0  0
  150.0262  133.0247  153.9153 H   0  0  0  0  0  0  0  0  0  0  0  0
  150.9844  134.9767  155.1213 H   0  0  0  0  0  0  0  0  0  0  0  0
  150.0583  135.9170  153.9938 H   0  0  0  0  0  0  0  0  0  0  0  0
  149.4726  136.9119  158.0086 H   0  0  0  0  0  0  0  0  0  0  0  0
  151.0096  136.0821  157.7279 H   0  0  0  0  0  0  0  0  0  0  0  0
  149.4832  135.2136  157.5453 H   0  0  0  0  0  0  0  0  0  0  0  0
  153.1257  138.6810  153.9112 H   0  0  0  0  0  0  0  0  0  0  0  0
  148.9112  141.3287  157.9976 H   0  0  0  0  0  0  0  0  0  0  0  0
  151.9773  142.5398  155.9864 H   0  0  0  0  0  0  0  0  0  0  0  0
  150.3574  143.1704  156.1560 H   0  0  0  0  0  0  0  0  0  0  0  0
  150.7094  142.6649  158.7341 H   0  0  0  0  0  0  0  0  0  0  0  0
  152.2754  145.0000  158.6521 H   0  0  0  0  0  0  0  0  0  0  0  0
  151.3979  145.0581  157.1426 H   0  0  0  0  0  0  0  0  0  0  0  0
  149.8718  145.7644  158.3670 H   0  0  0  0  0  0  0  0  0  0  0  0
  153.5630  142.7357  157.7631 H   0  0  0  0  0  0  0  0  0  0  0  0
  153.8992  143.8539  159.8017 H   0  0  0  0  0  0  0  0  0  0  0  0
  152.4987  143.0999  160.5616 H   0  0  0  0  0  0  0  0  0  0  0  0
  155.1139  141.7200  159.8383 H   0  0  0  0  0  0  0  0  0  0  0  0
  154.2983  141.7387  161.4105 H   0  0  0  0  0  0  0  0  0  0  0  0
  151.8824  140.4511  158.4724 H   0  0  0  0  0  0  0  0  0  0  0  0
  153.5271  140.5134  157.8588 H   0  0  0  0  0  0  0  0  0  0  0  0
  146.2430  135.1681  155.5420 H   0  0  0  0  0  0  0  0  0  0  0  0
  145.9994  135.8407  153.9248 H   0  0  0  0  0  0  0  0  0  0  0  0
  147.1790  136.5707  155.0120 H   0  0  0  0  0  0  0  0  0  0  0  0
  147.4889  133.3977  152.5670 H   0  0  0  0  0  0  0  0  0  0  0  0
  146.1970  133.3330  153.7590 H   0  0  0  0  0  0  0  0  0  0  0  0
  148.2108  135.1988  153.3550 H   0  0  0  0  0  0  0  0  0  0  0  0
  1  2  1  0  0  0  0
  1 32  1  0  0  0  0
  1 33  1  0  0  0  0
  1 34  1  0  0  0  0
  2  3  1  0  0  0  0
  3 30  1  0  0  0  0
  3 29  1  0  0  0  0
  3  4  1  0  0  0  0
  4  5  1  0  0  0  0
  4 35  1  0  0  0  0
  4 36  1  0  0  0  0
  5 31  1  0  0  0  0
  5  6  1  0  0  0  0
  5 27  1  0  0  0  0
  6  7  1  0  0  0  0
  6 37  1  0  0  0  0
  6 38  1  0  0  0  0
  7  8  1  0  0  0  0
  7  9  1  0  0  0  0
  8 39  1  0  0  0  0
  8 40  1  0  0  0  0
  8 41  1  0  0  0  0
  9 14  1  0  0  0  0
  9 10  2  0  0  0  0
 10 11  1  0  0  0  0
 11 12  2  0  0  0  0
 11 42  1  0  0  0  0
 12 13  1  0  0  0  0
 13 17  1  0  0  0  0
 13 14  2  0  0  0  0
 14 15  1  0  0  0  0
 15 16  2  0  0  0  0
 16 17  1  0  0  0  0
 16 43  1  0  0  0  0
 17 18  1  0  0  0  0
 18 19  1  0  0  0  0
 18 44  1  0  0  0  0
 18 45  1  0  0  0  0
 19 20  1  0  0  0  0
 19 22  1  0  0  0  0
 19 46  1  0  0  0  0
 20 21  1  0  0  0  0
 20 47  1  0  0  0  0
 20 48  1  0  0  0  0
 21 49  1  0  0  0  0
 22 26  1  0  0  0  0
 22 23  1  0  0  0  0
 22 50  1  0  0  0  0
 23 24  1  0  0  0  0
 23 51  1  0  0  0  0
 23 52  1  0  0  0  0
 24 25  1  0  0  0  0
 24 53  1  0  0  0  0
 24 54  1  0  0  0  0
 25 26  1  0  0  0  0
 26 55  1  0  0  0  0
 26 56  1  0  0  0  0
 27 28  1  0  0  0  0
 27 29  1  0  0  0  0
 27 62  1  0  0  0  0
 28 57  1  0  0  0  0
 28 58  1  0  0  0  0
 28 59  1  0  0  0  0
 29 60  1  0  0  0  0
 29 61  1  0  0  0  0
M  CHG  1  27   1
M  END
> <s_m_source_file>
AV-unprocessed.smi

> <i_m_source_file_index>
21

> <i_lp_mmshare_version>
43012

> <i_f3d_flags>
0

> <s_epik_input>
W0NIM11PW0NASF0xW0NIMl1bQ0BIXShOKFtDSDNdKVtDSDJdMSlbQ0gyXU4oW0NIM10pYyhuW2NIXW4yKWMoYzIzKW5bY0hdbjNbQ0gyXVtDQEhdKFtDSDJdW09IXSlbQ0BASF00W0NIMl1bQ0gyXU9bQ0gyXTQ=

> <s_epik_cmdline>
J2VwaWtfcHl0aG9uJywgJy1waCcsICc3LjAnLCAnLXRuJywgJzgnLCAnLW1hJywgJzIwMCcsICctbWV0YWxfYmluZGluZycsICctaW1hZScsICc8aW5maWxlLm1hZT4nLCAnLW9tYWUnLCAnPG91dGZpbGUubWFlPic=

> <r_lp_tautomer_probability>
1

> <r_epik_Ionization_Penalty>
0.0157465

> <r_epik_Ionization_Penalty_Charging>
0.015354

> <r_epik_Ionization_Penalty_Neutral>
0.000392529

> <r_epik_State_Penalty>
0.0120612

> <r_epik_Charging_Adjusted_Penalty>
0.0274152

> <i_epik_Tot_Q>
1

> <i_epik_Tot_abs_Q>
1

> <r_epik_Metal_State_Penalty>
0.0121253

> <b_epik_Metal_Only>
0

> <s_lp_Force_Field>
OPLS_2005

> <r_lp_Energy>
59.3761

> <b_lp_Chiralities_Consistent>
1

> <s_lp_Variant>
AV-unprocessed.smi:21-9

> <Gold.Version>
5.8.1

> <Gold.Id.Protein>
6NUR|6NUR_protein|mol2

> <Gold.PLP.Fitness>
59.2153

> <Gold.PLP.PLP>
-48.5681

> <Gold.PLP.part.hbond>
-5.1506

> <Gold.PLP.part.metal>
0.0000

> <Gold.PLP.part.buried>
-6.8097

> <Gold.PLP.part.nonpolar>
-37.1393

> <Gold.PLP.part.repulsive>
0.2600

> <Gold.PLP.ligand.clash>
0.0000

> <Gold.PLP.ligand.torsion>
1.9065

> <Gold.PLP.Chemscore.Hbond>
4.5040

> <Gold.PLP.Chemscore.CHOScore>
0.0000

> <Gold.PLP.Chemscore.Metal>
0.0000

> <Gold.Chemscore.Hbonds>
donor molecule, donor type, donor heavy atom, donor atom, acceptor molecule, acceptor atom, score
      L1  H    21    49       P1  8029  0.31
      L1  H    27    62       P1  7948  2.00
      P1  H  7989  7998       L1    12  0.69

> <Gold.PLP.Chemscore.Internal.Correction>
0.9483

> <Gold.Rescore>
     Score         DG    S(hbond)    S(metal)    S(lipo)     H(rot)  DE(clash)    DE(int)     intcor
     15.51     -17.81       2.41        0.00     109.66       3.35       0.04       2.26       ----

> <Gold.Chemscore.Fitness>
15.5129

> <Gold.Chemscore.DG>
-17.8128

> <Gold.Chemscore.ZeroCoef>
-5.4800

> <Gold.Chemscore.Hbond>
2.4149

> <Gold.Chemscore.Metal>
0.0000

> <Gold.Chemscore.Lipo>
109.6643

> <Gold.Chemscore.Internal_Hbond>
0.0000

> <Gold.Chemscore.DEClash>
0.0384

> <Gold.Chemscore.DEInternal>
2.2616

> <Gold.Chemscore.Rot>
3.3452

> <Gold.Chemscore.Internal.Correction>
   9.000000E+99

> <Gold.Chemscore.Hbonds>
donor molecule, donor type, donor heavy atom, donor atom, acceptor molecule, acceptor atom, score
      L1  H    21    49       P1  8029  0.22
      L1  H    27    62       P1  7948  0.98
      P1  H  7989  7998       L1    12  0.10
      P1  H 10752 10764       L1    10  0.02

> <Gold.Chemscore.Hbond.Weighted>
-8.0658

> <Gold.Chemscore.Metal.Weighted>
-0.0000

> <Gold.Chemscore.Lipo.Weighted>
-12.8307

> <Gold.Chemscore.Internal_Hbond.Weighted>
0.0000

> <Gold.Chemscore.DEClash.Weighted>
0.0384

> <Gold.Chemscore.DEInternal.Weighted>
2.2616

> <Gold.Chemscore.Rot.Weighted>
8.5636

> <Gold.Chemscore.Internal.Correction.Weighted>
   9.000000E+99

> <Gold.Protein.RotatedTorsions>
[ 6907 6896 6895 6894 ] final   -6.42 input  -60.11 | X-H torsion
[ 7974 7965 7964 7962 ] final -175.36 input  175.53 | X-H torsion
[ 8008 7997 7996 7995 ] final -146.68 input   59.86 | X-H torsion
[ 10167 10162 10161 10158 ] final -128.53 input  -65.29 | X-H torsion
[ 10718 10713 10712 10709 ] final  -89.51 input   66.30 | X-H torsion
[ 10763 10752 10751 10750 ] final  -64.23 input  -60.55 | X-H torsion
[ 11005 11000 10999 10996 ] final  153.74 input  -57.11 | X-H torsion

> <Gold.Protein.ActiveResidues>
 VAL166  LYS551  ARG553  GLY616  TRP617  ASP618  TYR619  PRO620  LYS621  CYS622 
 ASP623  PHE694  ASN695  SER759  ASP760  ASP761  ALA762  ILE779  LEU786  VAL792 
 PHE793  MET794  SER795  GLU796  ALA797  LYS798  CYS799  TRP800  GLU811  SER814 

> <Gold.Protein.RotatedAtoms>
  151.4659  135.1042  159.9737 H   0  0  0  0  0  0  0  0  0  0  0  0  # atno 6907 bound_to 6896
  152.4835  133.8310  159.7114 H   0  0  0  0  0  0  0  0  0  0  0  0  # atno 6908 bound_to 6896
  150.8926  133.7163  159.2927 H   0  0  0  0  0  0  0  0  0  0  0  0  # atno 6909 bound_to 6896
  144.7128  140.1333  143.6397 H   0  0  0  0  0  0  0  0  0  0  0  0  # atno 7974 bound_to 7965
  155.5633  140.0627  157.2824 H   0  0  0  0  0  0  0  0  0  0  0  0  # atno 8008 bound_to 7997
  154.4383  140.1882  156.0850 H   0  0  0  0  0  0  0  0  0  0  0  0  # atno 8009 bound_to 7997
  156.0431  140.3293  155.7269 H   0  0  0  0  0  0  0  0  0  0  0  0  # atno 8010 bound_to 7997
  139.9493  143.6073  152.2480 H   0  0  0  0  0  0  0  0  0  0  0  0  # atno 10167 bound_to 10162
  155.9984  130.4875  150.5183 H   0  0  0  0  0  0  0  0  0  0  0  0  # atno 10718 bound_to 10713
  154.3270  135.6184  153.5534 H   0  0  0  0  0  0  0  0  0  0  0  0  # atno 10763 bound_to 10752
  152.9815  135.5737  154.5005 H   0  0  0  0  0  0  0  0  0  0  0  0  # atno 10764 bound_to 10752
  154.4684  135.2858  155.1638 H   0  0  0  0  0  0  0  0  0  0  0  0  # atno 10765 bound_to 10752
  140.1425  134.8729  157.2350 H   0  0  0  0  0  0  0  0  0  0  0  0  # atno 11005 bound_to 11000
  145.9267  139.2580  143.1349 LP  0  0  0  0  0  0  0  0  0  0  0  0  # atno 17320 bound_to 7965
  145.9565  140.8869  143.0233 LP  0  0  0  0  0  0  0  0  0  0  0  0  # atno 17321 bound_to 7965
  139.6641  144.7662  151.1907 LP  0  0  0  0  0  0  0  0  0  0  0  0  # atno 17342 bound_to 10162
  140.7587  143.5965  150.8743 LP  0  0  0  0  0  0  0  0  0  0  0  0  # atno 17343 bound_to 10162
  157.3147  131.0670  151.1975 LP  0  0  0  0  0  0  0  0  0  0  0  0  # atno 17370 bound_to 10713
  157.2909  130.6796  149.6114 LP  0  0  0  0  0  0  0  0  0  0  0  0  # atno 17371 bound_to 10713
  140.2704  134.3467  155.7375 LP  0  0  0  0  0  0  0  0  0  0  0  0  # atno 17394 bound_to 11000
  141.2188  133.7420  156.9214 LP  0  0  0  0  0  0  0  0  0  0  0  0  # atno 17395 bound_to 11000

$$$$
