AV-unprocessed.smi:1634|AV-procd|sdf|6538|dock8
  -GOLD-   22720 7223D 1   1.00000     0.00000
 Structure written by MMmdl.
 37 37  0  0  0  0  0  0  0  0  2 V2000
  147.4540  139.0393  153.8157 C   0  0  0  0  0  0  0  0  0  0  0  0
  148.2309  139.9265  154.7995 C   0  0  0  0  0  0  0  0  0  0  0  0
  147.9082  141.4112  154.5675 C   0  0  0  0  0  0  0  0  0  0  0  0
  149.7415  139.6576  154.7082 C   0  0  0  0  0  0  0  0  0  0  0  0
  150.0501  138.4651  155.4224 O   0  0  0  0  0  0  0  0  0  0  0  0
  151.4318  138.1187  155.4706 C   0  0  2  0  0  0  0  0  0  0  0  0
  151.5527  136.8042  156.2557 C   0  0  0  0  0  0  0  0  0  0  0  0
  152.2411  139.2441  156.1354 C   0  0  0  0  0  0  0  0  0  0  0  0
  153.2754  139.6411  155.5991 O   0  0  0  0  0  0  0  0  0  0  0  0
  151.7449  139.6922  157.3056 N   0  0  0  0  0  0  0  0  0  0  0  0
  152.2302  140.6861  158.1728 C   0  0  0  0  0  0  0  0  0  0  0  0
  151.5453  141.8024  158.5476 C   0  0  0  0  0  0  0  0  0  0  0  0
  152.1091  142.7929  159.4570 C   0  0  0  0  0  0  0  0  0  0  0  0
  151.4011  144.0658  159.8831 C   0  0  0  0  0  0  0  0  0  0  0  0
  151.4300  144.1854  161.2099 F   0  0  0  0  0  0  0  0  0  0  0  0
  152.0094  145.1302  159.3602 F   0  0  0  0  0  0  0  0  0  0  0  0
  150.1278  144.0719  159.4879 F   0  0  0  0  0  0  0  0  0  0  0  0
  153.3799  142.4570  159.8787 C   0  0  0  0  0  0  0  0  0  0  0  0
  154.1198  141.3705  159.5682 N   0  5  0  0  0  0  0  0  0  0  0  0
  153.5861  140.4528  158.7134 C   0  0  0  0  0  0  0  0  0  0  0  0
  154.2071  139.4408  158.3865 O   0  0  0  0  0  0  0  0  0  0  0  0
  147.7378  139.2499  152.7840 H   0  0  0  0  0  0  0  0  0  0  0  0
  146.3790  139.1995  153.9050 H   0  0  0  0  0  0  0  0  0  0  0  0
  147.6446  137.9822  154.0036 H   0  0  0  0  0  0  0  0  0  0  0  0
  147.9039  139.6644  155.8065 H   0  0  0  0  0  0  0  0  0  0  0  0
  148.2200  141.7333  153.5735 H   0  0  0  0  0  0  0  0  0  0  0  0
  148.4144  142.0459  155.2953 H   0  0  0  0  0  0  0  0  0  0  0  0
  146.8383  141.6000  154.6584 H   0  0  0  0  0  0  0  0  0  0  0  0
  150.0346  139.5348  153.6646 H   0  0  0  0  0  0  0  0  0  0  0  0
  150.2921  140.5132  155.1013 H   0  0  0  0  0  0  0  0  0  0  0  0
  151.7973  137.9447  154.4564 H   0  0  0  0  0  0  0  0  0  0  0  0
  152.5937  136.4935  156.3501 H   0  0  0  0  0  0  0  0  0  0  0  0
  151.0150  136.0023  155.7494 H   0  0  0  0  0  0  0  0  0  0  0  0
  151.1367  136.8960  157.2599 H   0  0  0  0  0  0  0  0  0  0  0  0
  150.9133  139.2268  157.6399 H   0  0  0  0  0  0  0  0  0  0  0  0
  150.5468  141.9866  158.1897 H   0  0  0  0  0  0  0  0  0  0  0  0
  153.8757  143.1727  160.5690 H   0  0  0  0  0  0  0  0  0  0  0  0
  1  2  1  0  0  0  0
  1 22  1  0  0  0  0
  1 23  1  0  0  0  0
  1 24  1  0  0  0  0
  2  3  1  0  0  0  0
  2  4  1  0  0  0  0
  2 25  1  0  0  0  0
  3 26  1  0  0  0  0
  3 27  1  0  0  0  0
  3 28  1  0  0  0  0
  4  5  1  0  0  0  0
  4 29  1  0  0  0  0
  4 30  1  0  0  0  0
  5  6  1  0  0  0  0
  6  7  1  0  0  0  0
  6  8  1  0  0  0  0
  6 31  1  0  0  0  0
  7 32  1  0  0  0  0
  7 33  1  0  0  0  0
  7 34  1  0  0  0  0
  8  9  2  0  0  0  0
  8 10  1  0  0  0  0
 10 11  1  0  0  0  0
 10 35  1  0  0  0  0
 11 20  1  0  0  0  0
 11 12  2  0  0  0  0
 12 13  1  0  0  0  0
 12 36  1  0  0  0  0
 13 14  1  0  0  0  0
 13 18  2  0  0  0  0
 14 15  1  0  0  0  0
 14 16  1  0  0  0  0
 14 17  1  0  0  0  0
 18 19  1  0  0  0  0
 18 37  1  0  0  0  0
 19 20  1  0  0  0  0
 20 21  2  0  0  0  0
M  CHG  1  19  -1
M  END
> <s_m_source_file>
AV-unprocessed.smi

> <i_m_source_file_index>
1634

> <i_lp_mmshare_version>
43012

> <i_f3d_flags>
0

> <s_epik_input>
W0NIM11bQ0hdKFtDSDNdKVtDSDJdT1tDQEhdKFtDSDNdKUMoPU8pW05IXWMxW2NIXWMoQyhGKShGKUYpW2NIXVtuSF1jMT1P

> <s_epik_cmdline>
J2VwaWtfcHl0aG9uJywgJy1waCcsICc3LjAnLCAnLXRuJywgJzgnLCAnLW1hJywgJzIwMCcsICctbWV0YWxfYmluZGluZycsICctaW1hZScsICc8aW5maWxlLm1hZT4nLCAnLW9tYWUnLCAnPG91dGZpbGUubWFlPic=

> <r_epik_Ionization_Penalty>
2.55349

> <r_epik_Ionization_Penalty_Charging>
0.0582825

> <r_epik_Ionization_Penalty_Neutral>
2.49521

> <r_epik_State_Penalty>
2.65983

> <r_epik_Charging_Adjusted_Penalty>
2.71812

> <i_epik_Tot_Q>
-1

> <i_epik_Tot_abs_Q>
1

> <r_epik_Metal_State_Penalty>
0.516727

> <b_epik_Metal_Only>
0

> <s_lp_Force_Field>
OPLS_2005

> <r_lp_Energy>
22.0513

> <b_lp_Chiralities_Consistent>
1

> <s_lp_Variant>
AV-unprocessed.smi:1634-3

> <Gold.Version>
5.8.1

> <Gold.Id.Protein>
6NUR|6NUR_protein|mol2

> <Gold.PLP.Fitness>
44.1803

> <Gold.PLP.PLP>
-41.7283

> <Gold.PLP.part.hbond>
-2.0000

> <Gold.PLP.part.metal>
0.0000

> <Gold.PLP.part.buried>
-2.2286

> <Gold.PLP.part.nonpolar>
-35.7824

> <Gold.PLP.part.repulsive>
0.1518

> <Gold.PLP.ligand.clash>
0.0000

> <Gold.PLP.ligand.torsion>
1.2167

> <Gold.PLP.Chemscore.Hbond>
1.6016

> <Gold.PLP.Chemscore.CHOScore>
0.0000

> <Gold.PLP.Chemscore.Metal>
0.0000

> <Gold.Chemscore.Hbonds>
donor molecule, donor type, donor heavy atom, donor atom, acceptor molecule, acceptor atom, score
      P1  H  7997  8008       L1     9  0.63
      P1  H  7997  8010       L1    21  0.93

> <Gold.PLP.Chemscore.Internal.Correction>
0.0807

> <Gold.Rescore>
     Score         DG    S(hbond)    S(metal)    S(lipo)     H(rot)  DE(clash)    DE(int)     intcor
     11.16     -15.13       1.39        0.00      81.28       1.75       0.23       3.74       ----

> <Gold.Chemscore.Fitness>
11.1586

> <Gold.Chemscore.DG>
-15.1331

> <Gold.Chemscore.ZeroCoef>
-5.4800

> <Gold.Chemscore.Hbond>
1.3870

> <Gold.Chemscore.Metal>
0.0000

> <Gold.Chemscore.Lipo>
81.2833

> <Gold.Chemscore.Internal_Hbond>
0.0000

> <Gold.Chemscore.DEClash>
0.2327

> <Gold.Chemscore.DEInternal>
3.7417

> <Gold.Chemscore.Rot>
1.7538

> <Gold.Chemscore.Internal.Correction>
   9.000000E+99

> <Gold.Chemscore.Hbonds>
donor molecule, donor type, donor heavy atom, donor atom, acceptor molecule, acceptor atom, score
      P1  H  7997  8008       L1     9  0.60
      P1  H  7997  8010       L1    21  0.25

> <Gold.Chemscore.Hbond.Weighted>
-4.6327

> <Gold.Chemscore.Metal.Weighted>
-0.0000

> <Gold.Chemscore.Lipo.Weighted>
-9.5101

> <Gold.Chemscore.Internal_Hbond.Weighted>
0.0000

> <Gold.Chemscore.DEClash.Weighted>
0.2327

> <Gold.Chemscore.DEInternal.Weighted>
3.7417

> <Gold.Chemscore.Rot.Weighted>
4.4898

> <Gold.Chemscore.Internal.Correction.Weighted>
   9.000000E+99

> <Gold.Protein.RotatedTorsions>
[ 6907 6896 6895 6894 ] final   62.50 input  -60.11 | X-H torsion
[ 7974 7965 7964 7962 ] final    1.49 input  175.53 | X-H torsion
[ 8008 7997 7996 7995 ] final   -6.44 input   59.86 | X-H torsion
[ 10167 10162 10161 10158 ] final  -56.61 input  -65.29 | X-H torsion
[ 10718 10713 10712 10709 ] final    9.99 input   66.30 | X-H torsion
[ 10763 10752 10751 10750 ] final   97.67 input  -60.55 | X-H torsion
[ 11005 11000 10999 10996 ] final  110.40 input  -57.11 | X-H torsion

> <Gold.Protein.ActiveResidues>
 VAL166  LYS551  ARG553  GLY616  TRP617  ASP618  TYR619  PRO620  LYS621  CYS622 
 ASP623  PHE694  ASN695  SER759  ASP760  ASP761  ALA762  ILE779  LEU786  VAL792 
 PHE793  MET794  SER795  GLU796  ALA797  LYS798  CYS799  TRP800  GLU811  SER814 

> <Gold.Protein.RotatedAtoms>
  152.4177  134.6012  160.0000 H   0  0  0  0  0  0  0  0  0  0  0  0  # atno 6907 bound_to 6896
  151.6171  133.3336  159.3088 H   0  0  0  0  0  0  0  0  0  0  0  0  # atno 6908 bound_to 6896
  150.8065  134.7232  159.6715 H   0  0  0  0  0  0  0  0  0  0  0  0  # atno 6909 bound_to 6896
  146.2440  140.0979  142.8349 H   0  0  0  0  0  0  0  0  0  0  0  0  # atno 7974 bound_to 7965
  154.5937  140.2432  155.7886 H   0  0  0  0  0  0  0  0  0  0  0  0  # atno 8008 bound_to 7997
  156.2265  140.2981  156.0033 H   0  0  0  0  0  0  0  0  0  0  0  0  # atno 8009 bound_to 7997
  155.2329  140.0404  157.2955 H   0  0  0  0  0  0  0  0  0  0  0  0  # atno 8010 bound_to 7997
  140.6307  143.2458  151.5248 H   0  0  0  0  0  0  0  0  0  0  0  0  # atno 10167 bound_to 10162
  156.9744  130.5981  149.5671 H   0  0  0  0  0  0  0  0  0  0  0  0  # atno 10718 bound_to 10713
  153.2798  135.4175  155.1067 H   0  0  0  0  0  0  0  0  0  0  0  0  # atno 10763 bound_to 10752
  154.8485  135.3492  154.6128 H   0  0  0  0  0  0  0  0  0  0  0  0  # atno 10764 bound_to 10752
  153.6549  135.7051  153.5254 H   0  0  0  0  0  0  0  0  0  0  0  0  # atno 10765 bound_to 10752
  139.8881  134.9483  156.6272 H   0  0  0  0  0  0  0  0  0  0  0  0  # atno 11005 bound_to 11000
  145.0594  140.9076  143.4948 LP  0  0  0  0  0  0  0  0  0  0  0  0  # atno 17320 bound_to 7965
  145.1091  139.2769  143.5646 LP  0  0  0  0  0  0  0  0  0  0  0  0  # atno 17321 bound_to 7965
  139.5522  144.2367  152.1549 LP  0  0  0  0  0  0  0  0  0  0  0  0  # atno 17342 bound_to 10162
  140.1610  144.5025  150.6632 LP  0  0  0  0  0  0  0  0  0  0  0  0  # atno 17343 bound_to 10162
  156.0269  130.5363  150.8432 LP  0  0  0  0  0  0  0  0  0  0  0  0  # atno 17370 bound_to 10713
  157.5570  131.0945  150.9614 LP  0  0  0  0  0  0  0  0  0  0  0  0  # atno 17371 bound_to 10713
  140.7694  133.8751  155.8480 LP  0  0  0  0  0  0  0  0  0  0  0  0  # atno 17394 bound_to 11000
  140.9855  134.1349  157.4456 LP  0  0  0  0  0  0  0  0  0  0  0  0  # atno 17395 bound_to 11000

$$$$
