AV-unprocessed.smi:2829|AV-procd|sdf|10903|dock4
  -GOLD-   2272015353D 1   1.00000     0.00000
 Structure written by MMmdl.
 50 53  0  0  0  0  0  0  0  0  1 V2000
  145.7342  131.9182  149.6507 C   0  0  0  0  0  0  0  0  0  0  0  0
  144.4540  132.7027  150.0170 C   0  0  0  0  0  0  0  0  0  0  0  0
  143.6799  132.9637  148.7078 C   0  0  0  0  0  0  0  0  0  0  0  0
  143.6143  131.8097  150.9539 C   0  0  0  0  0  0  0  0  0  0  0  0
  144.7632  134.0400  150.7139 C   0  0  0  0  0  0  0  0  0  0  0  0
  146.0744  134.5390  150.8840 C   0  0  0  0  0  0  0  0  0  0  0  0
  146.2253  135.7709  151.5424 C   0  0  0  0  0  0  0  0  0  0  0  0
  145.0689  136.4371  151.9937 C   0  0  0  0  0  0  0  0  0  0  0  0
  145.2999  137.6687  152.6578 N   0  0  0  0  0  0  0  0  0  0  0  0
  146.2887  137.9812  153.5180 C   0  0  0  0  0  0  0  0  0  0  0  0
  147.1205  137.1857  153.9499 O   0  0  0  0  0  0  0  0  0  0  0  0
  146.2996  139.2734  153.8900 N   0  0  0  0  0  0  0  0  0  0  0  0
  147.2363  139.9266  154.8053 C   0  0  1  0  0  0  0  0  0  0  0  0
  148.6791  139.9239  154.2650 C   0  0  2  0  0  0  0  0  0  0  0  0
  149.7559  139.1767  155.0046 C   0  0  0  0  0  0  0  0  0  0  0  0
  150.4286  140.2762  155.8312 C   0  0  0  0  0  0  0  0  0  0  0  0
  149.4422  141.3002  155.9381 O   0  0  0  0  0  0  0  0  0  0  0  0
  148.7790  141.3872  154.6806 C   0  0  2  0  0  0  0  0  0  0  0  0
  147.2487  141.4699  154.7385 C   0  0  0  0  0  0  0  0  0  0  0  0
  146.4862  142.2721  153.6664 C   0  0  0  0  0  0  0  0  0  0  0  0
  145.5037  142.7230  154.7502 C   0  0  0  0  0  0  0  0  0  0  0  0
  146.5421  142.3221  155.8023 C   0  0  0  0  0  0  0  0  0  0  0  0
  143.8389  135.9007  151.7950 N   0  0  0  0  0  0  0  0  0  0  0  0
  143.6888  134.7294  151.1699 N   0  0  0  0  0  0  0  0  0  0  0  0
  145.4924  130.9762  149.1568 H   0  0  0  0  0  0  0  0  0  0  0  0
  146.3238  131.6712  150.5345 H   0  0  0  0  0  0  0  0  0  0  0  0
  146.3705  132.4818  148.9671 H   0  0  0  0  0  0  0  0  0  0  0  0
  144.2492  133.6038  148.0325 H   0  0  0  0  0  0  0  0  0  0  0  0
  142.7226  133.4519  148.8931 H   0  0  0  0  0  0  0  0  0  0  0  0
  143.4680  132.0339  148.1788 H   0  0  0  0  0  0  0  0  0  0  0  0
  143.3954  130.8457  150.4936 H   0  0  0  0  0  0  0  0  0  0  0  0
  142.6578  132.2702  151.2039 H   0  0  0  0  0  0  0  0  0  0  0  0
  144.1393  131.6156  151.8900 H   0  0  0  0  0  0  0  0  0  0  0  0
  146.9500  134.0151  150.5338 H   0  0  0  0  0  0  0  0  0  0  0  0
  147.2086  136.1904  151.6982 H   0  0  0  0  0  0  0  0  0  0  0  0
  144.6729  138.4197  152.4102 H   0  0  0  0  0  0  0  0  0  0  0  0
  145.5753  139.8619  153.5040 H   0  0  0  0  0  0  0  0  0  0  0  0
  147.1953  139.5595  155.8332 H   0  0  0  0  0  0  0  0  0  0  0  0
  148.7186  139.8203  153.1788 H   0  0  0  0  0  0  0  0  0  0  0  0
  149.3253  138.4128  155.6529 H   0  0  0  0  0  0  0  0  0  0  0  0
  150.4636  138.6875  154.3349 H   0  0  0  0  0  0  0  0  0  0  0  0
  150.7540  139.9274  156.8114 H   0  0  0  0  0  0  0  0  0  0  0  0
  151.2972  140.6744  155.3045 H   0  0  0  0  0  0  0  0  0  0  0  0
  149.2764  142.0290  153.9522 H   0  0  0  0  0  0  0  0  0  0  0  0
  147.0721  143.1034  153.2717 H   0  0  0  0  0  0  0  0  0  0  0  0
  146.0370  141.6922  152.8604 H   0  0  0  0  0  0  0  0  0  0  0  0
  145.2656  143.7867  154.7306 H   0  0  0  0  0  0  0  0  0  0  0  0
  144.6022  142.1110  154.7867 H   0  0  0  0  0  0  0  0  0  0  0  0
  146.1377  141.7588  156.6437 H   0  0  0  0  0  0  0  0  0  0  0  0
  147.1488  143.1652  156.1365 H   0  0  0  0  0  0  0  0  0  0  0  0
  1  2  1  0  0  0  0
  1 25  1  0  0  0  0
  1 26  1  0  0  0  0
  1 27  1  0  0  0  0
  2  3  1  0  0  0  0
  2  4  1  0  0  0  0
  2  5  1  0  0  0  0
  3 28  1  0  0  0  0
  3 29  1  0  0  0  0
  3 30  1  0  0  0  0
  4 31  1  0  0  0  0
  4 32  1  0  0  0  0
  4 33  1  0  0  0  0
  5 24  1  0  0  0  0
  5  6  2  0  0  0  0
  6  7  1  0  0  0  0
  6 34  1  0  0  0  0
  7  8  2  0  0  0  0
  7 35  1  0  0  0  0
  8  9  1  0  0  0  0
  8 23  1  0  0  0  0
  9 10  1  0  0  0  0
  9 36  1  0  0  0  0
 10 11  2  0  0  0  0
 10 12  1  0  0  0  0
 12 13  1  0  0  0  0
 12 37  1  0  0  0  0
 13 19  1  0  0  0  0
 13 14  1  0  0  0  0
 13 38  1  0  0  0  0
 14 18  1  0  0  0  0
 14 15  1  0  0  0  0
 14 39  1  0  0  0  0
 15 16  1  0  0  0  0
 15 40  1  0  0  0  0
 15 41  1  0  0  0  0
 16 17  1  0  0  0  0
 16 42  1  0  0  0  0
 16 43  1  0  0  0  0
 17 18  1  0  0  0  0
 18 19  1  0  0  0  0
 18 44  1  0  0  0  0
 19 22  1  0  0  0  0
 19 20  1  0  0  0  0
 20 21  1  0  0  0  0
 20 45  1  0  0  0  0
 20 46  1  0  0  0  0
 21 22  1  0  0  0  0
 21 47  1  0  0  0  0
 21 48  1  0  0  0  0
 22 49  1  0  0  0  0
 22 50  1  0  0  0  0
 23 24  2  0  0  0  0
M  END
> <s_m_source_file>
AV-unprocessed.smi

> <i_m_source_file_index>
2829

> <i_lp_mmshare_version>
43012

> <i_f3d_flags>
0

> <s_epik_input>
W0NIM11DKFtDSDNdKShbQ0gzXSljMVtjSF1bY0hdYyhubjEpW05IXUMoPU8pW05IXVtDQEBIXTJbQ0BIXShbQ0gyXVtDSDJdTzMpW0NAQEhdM0MyNFtDSDJdW0NIMl1bQ0gyXTQ=

> <s_epik_cmdline>
J2VwaWtfcHl0aG9uJywgJy1waCcsICc3LjAnLCAnLXRuJywgJzgnLCAnLW1hJywgJzIwMCcsICctbWV0YWxfYmluZGluZycsICctaW1hZScsICc8aW5maWxlLm1hZT4nLCAnLW9tYWUnLCAnPG91dGZpbGUubWFlPic=

> <r_lp_tautomer_probability>
1

> <r_epik_Ionization_Penalty>
0.011915

> <r_epik_Ionization_Penalty_Charging>
0

> <r_epik_Ionization_Penalty_Neutral>
0.011915

> <r_epik_State_Penalty>
0.00486223

> <r_epik_Charging_Adjusted_Penalty>
0.00486223

> <i_epik_Tot_Q>
0

> <i_epik_Tot_abs_Q>
0

> <r_epik_Metal_State_Penalty>
-0

> <b_epik_Metal_Only>
0

> <s_lp_Force_Field>
OPLS_2005

> <r_lp_Energy>
59.5844

> <b_lp_Chiralities_Consistent>
1

> <s_lp_Variant>
AV-unprocessed.smi:2829-6

> <Gold.Version>
5.8.1

> <Gold.Id.Protein>
6NUR|6NUR_protein|mol2

> <Gold.PLP.Fitness>
44.9493

> <Gold.PLP.PLP>
-40.0777

> <Gold.PLP.part.hbond>
-2.6881

> <Gold.PLP.part.metal>
0.0000

> <Gold.PLP.part.buried>
-0.1176

> <Gold.PLP.part.nonpolar>
-38.4477

> <Gold.PLP.part.repulsive>
2.1780

> <Gold.PLP.ligand.clash>
0.0000

> <Gold.PLP.ligand.torsion>
0.5028

> <Gold.PLP.Chemscore.Hbond>
1.8938

> <Gold.PLP.Chemscore.CHOScore>
0.0000

> <Gold.PLP.Chemscore.Metal>
0.0000

> <Gold.Chemscore.Hbonds>
donor molecule, donor type, donor heavy atom, donor atom, acceptor molecule, acceptor atom, score
      L1  H     9    36       P1 10175  0.42
      L1  H    12    37       P1 10175  0.47

> <Gold.PLP.Chemscore.Internal.Correction>
0.1960

> <Gold.Rescore>
     Score         DG    S(hbond)    S(metal)    S(lipo)     H(rot)  DE(clash)    DE(int)     intcor
     15.14     -20.91       1.91        0.00     102.89       1.16       2.60       3.18       ----

> <Gold.Chemscore.Fitness>
15.1421

> <Gold.Chemscore.DG>
-20.9146

> <Gold.Chemscore.ZeroCoef>
-5.4800

> <Gold.Chemscore.Hbond>
1.9073

> <Gold.Chemscore.Metal>
0.0000

> <Gold.Chemscore.Lipo>
102.8906

> <Gold.Chemscore.Internal_Hbond>
0.0000

> <Gold.Chemscore.DEClash>
2.5967

> <Gold.Chemscore.DEInternal>
3.1758

> <Gold.Chemscore.Rot>
1.1618

> <Gold.Chemscore.Internal.Correction>
   9.000000E+99

> <Gold.Chemscore.Hbonds>
donor molecule, donor type, donor heavy atom, donor atom, acceptor molecule, acceptor atom, score
      L1  H     9    36       P1 10175  0.41
      L1  H    12    37       P1 10175  0.48

> <Gold.Chemscore.Hbond.Weighted>
-6.3705

> <Gold.Chemscore.Metal.Weighted>
-0.0000

> <Gold.Chemscore.Lipo.Weighted>
-12.0382

> <Gold.Chemscore.Internal_Hbond.Weighted>
0.0000

> <Gold.Chemscore.DEClash.Weighted>
2.5967

> <Gold.Chemscore.DEInternal.Weighted>
3.1758

> <Gold.Chemscore.Rot.Weighted>
2.9741

> <Gold.Chemscore.Internal.Correction.Weighted>
   9.000000E+99

> <Gold.Protein.RotatedTorsions>
[ 6907 6896 6895 6894 ] final  -91.23 input  -60.11 | X-H torsion
[ 7974 7965 7964 7962 ] final   43.29 input  175.53 | X-H torsion
[ 8008 7997 7996 7995 ] final    7.30 input   59.86 | X-H torsion
[ 10167 10162 10161 10158 ] final   20.38 input  -65.29 | X-H torsion
[ 10718 10713 10712 10709 ] final  -42.56 input   66.30 | X-H torsion
[ 10763 10752 10751 10750 ] final -121.48 input  -60.55 | X-H torsion
[ 11005 11000 10999 10996 ] final   24.67 input  -57.11 | X-H torsion

> <Gold.Protein.ActiveResidues>
 VAL166  LYS551  ARG553  GLY616  TRP617  ASP618  TYR619  PRO620  LYS621  CYS622 
 ASP623  PHE694  ASN695  SER759  ASP760  ASP761  ALA762  ILE779  LEU786  VAL792 
 PHE793  MET794  SER795  GLU796  ALA797  LYS798  CYS799  TRP800  GLU811  SER814 

> <Gold.Protein.RotatedAtoms>
  150.6890  134.2310  159.4434 H   0  0  0  0  0  0  0  0  0  0  0  0  # atno 6907 bound_to 6896
  152.0260  134.9793  160.0581 H   0  0  0  0  0  0  0  0  0  0  0  0  # atno 6908 bound_to 6896
  152.1351  133.4395  159.4776 H   0  0  0  0  0  0  0  0  0  0  0  0  # atno 6909 bound_to 6896
  146.0668  139.5203  142.9623 H   0  0  0  0  0  0  0  0  0  0  0  0  # atno 7974 bound_to 7965
  154.7520  140.2768  155.6284 H   0  0  0  0  0  0  0  0  0  0  0  0  # atno 8008 bound_to 7997
  156.2897  140.2676  156.2203 H   0  0  0  0  0  0  0  0  0  0  0  0  # atno 8009 bound_to 7997
  155.0125  140.0372  157.2395 H   0  0  0  0  0  0  0  0  0  0  0  0  # atno 8010 bound_to 7997
  140.5507  143.9513  150.6576 H   0  0  0  0  0  0  0  0  0  0  0  0  # atno 10167 bound_to 10162
  156.2583  130.4194  149.8571 H   0  0  0  0  0  0  0  0  0  0  0  0  # atno 10718 bound_to 10713
  154.8669  135.4166  154.2627 H   0  0  0  0  0  0  0  0  0  0  0  0  # atno 10763 bound_to 10752
  153.3552  135.7000  153.6762 H   0  0  0  0  0  0  0  0  0  0  0  0  # atno 10764 bound_to 10752
  153.5685  135.3596  155.2801 H   0  0  0  0  0  0  0  0  0  0  0  0  # atno 10765 bound_to 10752
  140.3562  134.2175  155.7676 H   0  0  0  0  0  0  0  0  0  0  0  0  # atno 11005 bound_to 11000
  145.6463  141.0273  143.1784 LP  0  0  0  0  0  0  0  0  0  0  0  0  # atno 17320 bound_to 7965
  144.7207  139.8040  143.7383 LP  0  0  0  0  0  0  0  0  0  0  0  0  # atno 17321 bound_to 7965
  140.2938  143.3306  152.1037 LP  0  0  0  0  0  0  0  0  0  0  0  0  # atno 17342 bound_to 10162
  139.5026  144.6739  151.6177 LP  0  0  0  0  0  0  0  0  0  0  0  0  # atno 17343 bound_to 10162
  156.6095  130.8581  151.3451 LP  0  0  0  0  0  0  0  0  0  0  0  0  # atno 17370 bound_to 10713
  157.7241  130.9598  150.1559 LP  0  0  0  0  0  0  0  0  0  0  0  0  # atno 17371 bound_to 10713
  141.1998  133.8003  157.0521 LP  0  0  0  0  0  0  0  0  0  0  0  0  # atno 17394 bound_to 11000
  140.0663  134.9727  157.1392 LP  0  0  0  0  0  0  0  0  0  0  0  0  # atno 17395 bound_to 11000

$$$$
