AV-unprocessed.smi:2953|AV-procd|sdf|11294|dock7
  -GOLD-   2272016183D 1   1.00000     0.00000
 Structure written by MMmdl.
 45 47  0  0  0  0  0  0  0  0  1 V2000
  151.6283  145.4193  160.6882 C   0  0  0  0  0  0  0  0  0  0  0  0
  152.2400  144.0324  160.7474 C   0  0  0  0  0  0  0  0  0  0  0  0
  152.8223  143.5996  161.9572 C   0  0  0  0  0  0  0  0  0  0  0  0
  153.3929  142.3182  162.0548 C   0  0  0  0  0  0  0  0  0  0  0  0
  153.3841  141.4640  160.9390 C   0  0  0  0  0  0  0  0  0  0  0  0
  152.8079  141.8912  159.7277 C   0  0  0  0  0  0  0  0  0  0  0  0
  152.2279  143.1818  159.6145 C   0  0  0  0  0  0  0  0  0  0  0  0
  151.6536  143.6549  158.4505 O   0  0  0  0  0  0  0  0  0  0  0  0
  151.5497  142.7615  157.3482 C   0  0  0  0  0  0  0  0  0  0  0  0
  150.5277  141.6555  157.6451 C   0  0  0  0  0  0  0  0  0  0  0  0
  150.2363  140.8330  156.4785 N   0  0  0  0  0  0  0  0  0  0  0  0
  150.8795  139.7268  156.0184 C   0  0  0  0  0  0  0  0  0  0  0  0
  152.0791  139.1255  156.7048 C   0  0  1  0  0  0  0  0  0  0  0  0
  151.7327  138.5634  158.0908 C   0  0  0  0  0  0  0  0  0  0  0  0
  152.6137  138.0706  155.8509 N   0  0  0  0  0  0  0  0  0  0  0  0
  153.2404  138.2862  154.6877 C   0  0  0  0  0  0  0  0  0  0  0  0
  153.4264  139.4075  154.2224 O   0  0  0  0  0  0  0  0  0  0  0  0
  150.4040  139.2199  154.8776 N   0  0  0  0  0  0  0  0  0  0  0  0
  149.3334  140.0425  154.5953 C   0  0  0  0  0  0  0  0  0  0  0  0
  148.4108  140.0145  153.5251 C   0  0  0  0  0  0  0  0  0  0  0  0
  147.3814  140.9750  153.4449 C   0  0  0  0  0  0  0  0  0  0  0  0
  147.2613  141.9756  154.4308 C   0  0  0  0  0  0  0  0  0  0  0  0
  148.1724  142.0226  155.5034 C   0  0  0  0  0  0  0  0  0  0  0  0
  149.1978  141.0604  155.5795 C   0  0  0  0  0  0  0  0  0  0  0  0
  151.2623  145.7222  161.6696 H   0  0  0  0  0  0  0  0  0  0  0  0
  150.7863  145.4585  159.9972 H   0  0  0  0  0  0  0  0  0  0  0  0
  152.3775  146.1437  160.3701 H   0  0  0  0  0  0  0  0  0  0  0  0
  152.8315  144.2516  162.8184 H   0  0  0  0  0  0  0  0  0  0  0  0
  153.8364  141.9917  162.9840 H   0  0  0  0  0  0  0  0  0  0  0  0
  153.8222  140.4795  161.0105 H   0  0  0  0  0  0  0  0  0  0  0  0
  152.8295  141.2054  158.8947 H   0  0  0  0  0  0  0  0  0  0  0  0
  151.2525  143.3003  156.4472 H   0  0  0  0  0  0  0  0  0  0  0  0
  152.5195  142.2993  157.1576 H   0  0  0  0  0  0  0  0  0  0  0  0
  150.9257  141.0016  158.4217 H   0  0  0  0  0  0  0  0  0  0  0  0
  149.6083  142.0676  158.0585 H   0  0  0  0  0  0  0  0  0  0  0  0
  152.8458  139.8832  156.8581 H   0  0  0  0  0  0  0  0  0  0  0  0
  151.2907  139.3349  158.7210 H   0  0  0  0  0  0  0  0  0  0  0  0
  152.6229  138.1877  158.5961 H   0  0  0  0  0  0  0  0  0  0  0  0
  151.0173  137.7430  158.0254 H   0  0  0  0  0  0  0  0  0  0  0  0
  152.4859  137.1174  156.1585 H   0  0  0  0  0  0  0  0  0  0  0  0
  153.5603  137.3463  154.2112 H   0  0  0  0  0  0  0  0  0  0  0  0
  148.4947  139.2522  152.7647 H   0  0  0  0  0  0  0  0  0  0  0  0
  146.6811  140.9437  152.6233 H   0  0  0  0  0  0  0  0  0  0  0  0
  146.4696  142.7072  154.3626 H   0  0  0  0  0  0  0  0  0  0  0  0
  148.0820  142.7882  156.2595 H   0  0  0  0  0  0  0  0  0  0  0  0
  1  2  1  0  0  0  0
  1 25  1  0  0  0  0
  1 26  1  0  0  0  0
  1 27  1  0  0  0  0
  2  7  1  0  0  0  0
  2  3  2  0  0  0  0
  3  4  1  0  0  0  0
  3 28  1  0  0  0  0
  4  5  2  0  0  0  0
  4 29  1  0  0  0  0
  5  6  1  0  0  0  0
  5 30  1  0  0  0  0
  6  7  2  0  0  0  0
  6 31  1  0  0  0  0
  7  8  1  0  0  0  0
  8  9  1  0  0  0  0
  9 10  1  0  0  0  0
  9 32  1  0  0  0  0
  9 33  1  0  0  0  0
 10 11  1  0  0  0  0
 10 34  1  0  0  0  0
 10 35  1  0  0  0  0
 11 24  1  0  0  0  0
 11 12  1  0  0  0  0
 12 13  1  0  0  0  0
 12 18  2  0  0  0  0
 13 14  1  0  0  0  0
 13 15  1  0  0  0  0
 13 36  1  0  0  0  0
 14 37  1  0  0  0  0
 14 38  1  0  0  0  0
 14 39  1  0  0  0  0
 15 16  1  0  0  0  0
 15 40  1  0  0  0  0
 16 17  2  0  0  0  0
 16 41  1  0  0  0  0
 18 19  1  0  0  0  0
 19 24  2  0  0  0  0
 19 20  1  0  0  0  0
 20 21  2  0  0  0  0
 20 42  1  0  0  0  0
 21 22  1  0  0  0  0
 21 43  1  0  0  0  0
 22 23  2  0  0  0  0
 22 44  1  0  0  0  0
 23 24  1  0  0  0  0
 23 45  1  0  0  0  0
M  END
> <s_m_source_file>
AV-unprocessed.smi

> <i_m_source_file_index>
2953

> <i_lp_mmshare_version>
43012

> <i_f3d_flags>
0

> <s_epik_input>
W0NIM11jMVtjSF1bY0hdW2NIXVtjSF1jMU9bQ0gyXVtDSDJdbihjKG4yKVtDQEhdKFtDSDNdKVtOSF1bQ0hdPU8pYyhjMjMpW2NIXVtjSF1bY0hdW2NIXTM=

> <s_epik_cmdline>
J2VwaWtfcHl0aG9uJywgJy1waCcsICc3LjAnLCAnLXRuJywgJzgnLCAnLW1hJywgJzIwMCcsICctbWV0YWxfYmluZGluZycsICctaW1hZScsICc8aW5maWxlLm1hZT4nLCAnLW9tYWUnLCAnPG91dGZpbGUubWFlPic=

> <r_lp_tautomer_probability>
1

> <r_epik_Ionization_Penalty>
0.0924205

> <r_epik_Ionization_Penalty_Charging>
0

> <r_epik_Ionization_Penalty_Neutral>
0.0924205

> <r_epik_State_Penalty>
0.0827154

> <r_epik_Charging_Adjusted_Penalty>
0.0827154

> <i_epik_Tot_Q>
0

> <i_epik_Tot_abs_Q>
0

> <r_epik_Metal_State_Penalty>
0.071464

> <b_epik_Metal_Only>
0

> <s_lp_Force_Field>
OPLS_2005

> <r_lp_Energy>
13.3209

> <b_lp_Chiralities_Consistent>
1

> <s_lp_Variant>
AV-unprocessed.smi:2953-2

> <Gold.Version>
5.8.1

> <Gold.Id.Protein>
6NUR|6NUR_protein|mol2

> <Gold.PLP.Fitness>
50.2599

> <Gold.PLP.PLP>
-48.3091

> <Gold.PLP.part.hbond>
-2.0000

> <Gold.PLP.part.metal>
0.0000

> <Gold.PLP.part.buried>
4.3456

> <Gold.PLP.part.nonpolar>
-51.6362

> <Gold.PLP.part.repulsive>
0.3783

> <Gold.PLP.ligand.clash>
0.0000

> <Gold.PLP.ligand.torsion>
0.6197

> <Gold.PLP.Chemscore.Hbond>
1.0143

> <Gold.PLP.Chemscore.CHOScore>
0.0000

> <Gold.PLP.Chemscore.Metal>
0.0000

> <Gold.Chemscore.Hbonds>
donor molecule, donor type, donor heavy atom, donor atom, acceptor molecule, acceptor atom, score
      P1  H  7989  7998       L1    17  0.02
      P1  H  7997  8009       L1    17  0.83

> <Gold.PLP.Chemscore.Internal.Correction>
0.1474

> <Gold.Rescore>
     Score         DG    S(hbond)    S(metal)    S(lipo)     H(rot)  DE(clash)    DE(int)     intcor
     17.08     -19.55       0.94        0.00     142.82       2.26       1.70       0.77       ----

> <Gold.Chemscore.Fitness>
17.0804

> <Gold.Chemscore.DG>
-19.5497

> <Gold.Chemscore.ZeroCoef>
-5.4800

> <Gold.Chemscore.Hbond>
0.9434

> <Gold.Chemscore.Metal>
0.0000

> <Gold.Chemscore.Lipo>
142.8150

> <Gold.Chemscore.Internal_Hbond>
0.0000

> <Gold.Chemscore.DEClash>
1.6958

> <Gold.Chemscore.DEInternal>
0.7734

> <Gold.Chemscore.Rot>
2.2619

> <Gold.Chemscore.Internal.Correction>
   9.000000E+99

> <Gold.Chemscore.Hbonds>
donor molecule, donor type, donor heavy atom, donor atom, acceptor molecule, acceptor atom, score
      P1  H  7989  7998       L1    17  0.03
      P1  H  7997  8009       L1    17  0.40

> <Gold.Chemscore.Hbond.Weighted>
-3.1509

> <Gold.Chemscore.Metal.Weighted>
-0.0000

> <Gold.Chemscore.Lipo.Weighted>
-16.7094

> <Gold.Chemscore.Internal_Hbond.Weighted>
0.0000

> <Gold.Chemscore.DEClash.Weighted>
1.6958

> <Gold.Chemscore.DEInternal.Weighted>
0.7734

> <Gold.Chemscore.Rot.Weighted>
5.7906

> <Gold.Chemscore.Internal.Correction.Weighted>
   9.000000E+99

> <Gold.Protein.RotatedTorsions>
[ 6907 6896 6895 6894 ] final -172.68 input  -60.11 | X-H torsion
[ 7974 7965 7964 7962 ] final  -66.25 input  175.53 | X-H torsion
[ 8008 7997 7996 7995 ] final -100.97 input   59.86 | X-H torsion
[ 10167 10162 10161 10158 ] final  111.03 input  -65.29 | X-H torsion
[ 10718 10713 10712 10709 ] final  -87.92 input   66.30 | X-H torsion
[ 10763 10752 10751 10750 ] final  -67.87 input  -60.55 | X-H torsion
[ 11005 11000 10999 10996 ] final  173.52 input  -57.11 | X-H torsion

> <Gold.Protein.ActiveResidues>
 VAL166  LYS551  ARG553  GLY616  TRP617  ASP618  TYR619  PRO620  LYS621  CYS622 
 ASP623  PHE694  ASN695  SER759  ASP760  ASP761  ALA762  ILE779  LEU786  VAL792 
 PHE793  MET794  SER795  GLU796  ALA797  LYS798  CYS799  TRP800  GLU811  SER814 

> <Gold.Protein.RotatedAtoms>
  151.5439  133.3428  159.2940 H   0  0  0  0  0  0  0  0  0  0  0  0  # atno 6907 bound_to 6896
  150.8519  134.7849  159.7026 H   0  0  0  0  0  0  0  0  0  0  0  0  # atno 6908 bound_to 6896
  152.4563  134.5292  159.9857 H   0  0  0  0  0  0  0  0  0  0  0  0  # atno 6909 bound_to 6896
  145.7441  140.8940  143.0514 H   0  0  0  0  0  0  0  0  0  0  0  0  # atno 7974 bound_to 7965
  154.8361  140.0437  157.1510 H   0  0  0  0  0  0  0  0  0  0  0  0  # atno 8008 bound_to 7997
  154.9098  140.3012  155.5252 H   0  0  0  0  0  0  0  0  0  0  0  0  # atno 8009 bound_to 7997
  156.2990  140.2360  156.4136 H   0  0  0  0  0  0  0  0  0  0  0  0  # atno 8010 bound_to 7997
  139.6642  144.7128  151.1808 H   0  0  0  0  0  0  0  0  0  0  0  0  # atno 10167 bound_to 10162
  155.9984  130.4817  150.4940 H   0  0  0  0  0  0  0  0  0  0  0  0  # atno 10718 bound_to 10713
  154.3807  135.6074  153.5789 H   0  0  0  0  0  0  0  0  0  0  0  0  # atno 10763 bound_to 10752
  152.9788  135.5860  154.4413 H   0  0  0  0  0  0  0  0  0  0  0  0  # atno 10764 bound_to 10752
  154.4182  135.2845  155.1970 H   0  0  0  0  0  0  0  0  0  0  0  0  # atno 10765 bound_to 10752
  140.3414  134.7273  157.4204 H   0  0  0  0  0  0  0  0  0  0  0  0  # atno 11005 bound_to 11000
  144.6864  139.9501  143.7477 LP  0  0  0  0  0  0  0  0  0  0  0  0  # atno 17320 bound_to 7965
  146.0420  139.3430  143.0692 LP  0  0  0  0  0  0  0  0  0  0  0  0  # atno 17321 bound_to 7965
  140.7592  143.5945  150.8762 LP  0  0  0  0  0  0  0  0  0  0  0  0  # atno 17342 bound_to 10162
  139.9606  143.6168  152.3003 LP  0  0  0  0  0  0  0  0  0  0  0  0  # atno 17343 bound_to 10162
  157.2932  131.0630  151.2119 LP  0  0  0  0  0  0  0  0  0  0  0  0  # atno 17370 bound_to 10713
  157.3125  130.6896  149.6223 LP  0  0  0  0  0  0  0  0  0  0  0  0  # atno 17371 bound_to 10713
  140.0778  134.5773  155.8572 LP  0  0  0  0  0  0  0  0  0  0  0  0  # atno 17394 bound_to 11000
  141.2037  133.6634  156.6081 LP  0  0  0  0  0  0  0  0  0  0  0  0  # atno 17395 bound_to 11000

$$$$
