AV-unprocessed.smi:3138|AV-procd|sdf|11955|dock2
  -GOLD-   2272017353D 1   1.00000     0.00000
 Structure written by MMmdl.
 37 38  0  0  0  0  0  0  0  0  1 V2000
  151.3847  141.0070  159.0967 O   0  0  0  0  0  0  0  0  0  0  0  0
  151.4551  142.1032  158.5370 C   0  0  0  0  0  0  0  0  0  0  0  0
  150.7098  142.3118  157.2070 C   0  0  0  0  0  0  0  0  0  0  0  0
  150.0275  141.1028  156.7273 N   0  0  0  0  0  0  0  0  0  0  0  0
  149.2590  141.3897  155.5257 C   0  0  0  0  0  0  0  0  0  0  0  0
  149.1144  140.1083  154.6928 C   0  0  0  0  0  0  0  0  0  0  0  0
  150.3946  139.4589  154.4864 N   0  0  0  0  0  0  0  0  0  0  0  0
  150.6436  138.1967  153.9906 C   0  0  0  0  0  0  0  0  0  0  0  0
  151.9980  138.0230  153.9839 C   0  0  0  0  0  0  0  0  0  0  0  0
  152.4983  139.2495  154.5035 C   0  0  0  0  0  0  0  0  0  0  0  0
  151.5361  140.1064  154.8050 N   0  0  0  0  0  0  0  0  0  0  0  0
  152.1773  143.1293  159.0510 N   0  0  0  0  0  0  0  0  0  0  0  0
  152.2112  144.4621  158.4341 C   0  0  0  0  0  0  0  0  0  0  0  0
  151.4488  145.4475  159.3395 C   0  0  0  0  0  0  0  0  0  0  0  0
  152.0298  145.4509  160.7664 C   0  0  0  0  0  0  0  0  0  0  0  0
  152.1673  144.0232  161.3283 C   0  0  0  0  0  0  0  0  0  0  0  0
  152.9007  143.1089  160.3302 C   0  0  0  0  0  0  0  0  0  0  0  0
  149.9742  143.1065  157.3395 H   0  0  0  0  0  0  0  0  0  0  0  0
  151.4260  142.6386  156.4514 H   0  0  0  0  0  0  0  0  0  0  0  0
  150.6869  140.3624  156.5343 H   0  0  0  0  0  0  0  0  0  0  0  0
  148.2753  141.7759  155.7973 H   0  0  0  0  0  0  0  0  0  0  0  0
  149.7641  142.1586  154.9388 H   0  0  0  0  0  0  0  0  0  0  0  0
  148.4487  139.4022  155.1914 H   0  0  0  0  0  0  0  0  0  0  0  0
  148.6707  140.3288  153.7205 H   0  0  0  0  0  0  0  0  0  0  0  0
  149.8453  137.5346  153.6883 H   0  0  0  0  0  0  0  0  0  0  0  0
  152.5477  137.1524  153.6587 H   0  0  0  0  0  0  0  0  0  0  0  0
  153.5252  139.5400  154.6699 H   0  0  0  0  0  0  0  0  0  0  0  0
  153.2478  144.7817  158.3193 H   0  0  0  0  0  0  0  0  0  0  0  0
  151.7840  144.4772  157.4307 H   0  0  0  0  0  0  0  0  0  0  0  0
  151.4870  146.4522  158.9180 H   0  0  0  0  0  0  0  0  0  0  0  0
  150.3955  145.1661  159.3752 H   0  0  0  0  0  0  0  0  0  0  0  0
  153.0129  145.9225  160.7488 H   0  0  0  0  0  0  0  0  0  0  0  0
  151.4088  146.0583  161.4254 H   0  0  0  0  0  0  0  0  0  0  0  0
  152.7001  144.0467  162.2791 H   0  0  0  0  0  0  0  0  0  0  0  0
  151.1777  143.6145  161.5371 H   0  0  0  0  0  0  0  0  0  0  0  0
  153.0155  142.1134  160.7555 H   0  0  0  0  0  0  0  0  0  0  0  0
  153.9170  143.4726  160.1713 H   0  0  0  0  0  0  0  0  0  0  0  0
  1  2  2  0  0  0  0
  2  3  1  0  0  0  0
  2 12  1  0  0  0  0
  3  4  1  0  0  0  0
  3 18  1  0  0  0  0
  3 19  1  0  0  0  0
  4  5  1  0  0  0  0
  4 20  1  0  0  0  0
  5  6  1  0  0  0  0
  5 21  1  0  0  0  0
  5 22  1  0  0  0  0
  6  7  1  0  0  0  0
  6 23  1  0  0  0  0
  6 24  1  0  0  0  0
  7 11  1  0  0  0  0
  7  8  1  0  0  0  0
  8  9  2  0  0  0  0
  8 25  1  0  0  0  0
  9 10  1  0  0  0  0
  9 26  1  0  0  0  0
 10 11  2  0  0  0  0
 10 27  1  0  0  0  0
 12 17  1  0  0  0  0
 12 13  1  0  0  0  0
 13 14  1  0  0  0  0
 13 28  1  0  0  0  0
 13 29  1  0  0  0  0
 14 15  1  0  0  0  0
 14 30  1  0  0  0  0
 14 31  1  0  0  0  0
 15 16  1  0  0  0  0
 15 32  1  0  0  0  0
 15 33  1  0  0  0  0
 16 17  1  0  0  0  0
 16 34  1  0  0  0  0
 16 35  1  0  0  0  0
 17 36  1  0  0  0  0
 17 37  1  0  0  0  0
M  END
> <s_m_source_file>
AV-unprocessed.smi

> <i_m_source_file_index>
3138

> <i_lp_mmshare_version>
43012

> <i_f3d_flags>
0

> <s_epik_input>
W0NIMl0xW0NIMl1bQ0gyXVtDSDJdW0NIMl1OMUMoPU8pW0NIMl1bTkhdW0NIMl1bQ0gyXW4yW2NIXVtjSF1bY0hdbjI=

> <s_epik_cmdline>
J2VwaWtfcHl0aG9uJywgJy1waCcsICc3LjAnLCAnLXRuJywgJzgnLCAnLW1hJywgJzIwMCcsICctbWV0YWxfYmluZGluZycsICctaW1hZScsICc8aW5maWxlLm1hZT4nLCAnLW9tYWUnLCAnPG91dGZpbGUubWFlPic=

> <r_lp_tautomer_probability>
1

> <r_epik_Ionization_Penalty>
0.737271

> <r_epik_Ionization_Penalty_Charging>
0

> <r_epik_Ionization_Penalty_Neutral>
0.737271

> <r_epik_State_Penalty>
0.761204

> <r_epik_Charging_Adjusted_Penalty>
0.761204

> <i_epik_Tot_Q>
0

> <i_epik_Tot_abs_Q>
0

> <r_epik_Metal_State_Penalty>
0.759956

> <b_epik_Metal_Only>
0

> <s_lp_Force_Field>
OPLS_2005

> <r_lp_Energy>
25.4177

> <b_lp_Chiralities_Consistent>
1

> <s_lp_Variant>
AV-unprocessed.smi:3138-2

> <Gold.Version>
5.8.1

> <Gold.Id.Protein>
6NUR|6NUR_protein|mol2

> <Gold.PLP.Fitness>
49.9000

> <Gold.PLP.PLP>
-45.8375

> <Gold.PLP.part.hbond>
-1.0000

> <Gold.PLP.part.metal>
0.0000

> <Gold.PLP.part.buried>
-2.8749

> <Gold.PLP.part.nonpolar>
-41.8052

> <Gold.PLP.part.repulsive>
0.0519

> <Gold.PLP.ligand.clash>
0.0000

> <Gold.PLP.ligand.torsion>
0.3149

> <Gold.PLP.Chemscore.Hbond>
0.5500

> <Gold.PLP.Chemscore.CHOScore>
1.0000

> <Gold.PLP.Chemscore.Metal>
0.0000

> <Gold.Chemscore.Hbonds>
donor molecule, donor type, donor heavy atom, donor atom, acceptor molecule, acceptor atom, score
      P1  H  7989  7998       L1    11  0.53
      L1  C     8    25       P1  7948  1.00

> <Gold.PLP.Chemscore.Internal.Correction>
0.0422

> <Gold.Rescore>
     Score         DG    S(hbond)    S(metal)    S(lipo)     H(rot)  DE(clash)    DE(int)     intcor
     11.45     -14.01       0.00        0.00     111.57       1.77       0.72       1.85       ----

> <Gold.Chemscore.Fitness>
11.4493

> <Gold.Chemscore.DG>
-14.0135

> <Gold.Chemscore.ZeroCoef>
-5.4800

> <Gold.Chemscore.Hbond>
0.0039

> <Gold.Chemscore.Metal>
0.0000

> <Gold.Chemscore.Lipo>
111.5675

> <Gold.Chemscore.Internal_Hbond>
0.0000

> <Gold.Chemscore.DEClash>
0.7187

> <Gold.Chemscore.DEInternal>
1.8455

> <Gold.Chemscore.Rot>
1.7707

> <Gold.Chemscore.Internal.Correction>
   9.000000E+99

> <Gold.Chemscore.Hbonds>
donor molecule, donor type, donor heavy atom, donor atom, acceptor molecule, acceptor atom, score
      P1  H  7989  7998       L1    11  0.01

> <Gold.Chemscore.Hbond.Weighted>
-0.0132

> <Gold.Chemscore.Metal.Weighted>
-0.0000

> <Gold.Chemscore.Lipo.Weighted>
-13.0534

> <Gold.Chemscore.Internal_Hbond.Weighted>
0.0000

> <Gold.Chemscore.DEClash.Weighted>
0.7187

> <Gold.Chemscore.DEInternal.Weighted>
1.8455

> <Gold.Chemscore.Rot.Weighted>
4.5331

> <Gold.Chemscore.Internal.Correction.Weighted>
   9.000000E+99

> <Gold.Protein.RotatedTorsions>
[ 6907 6896 6895 6894 ] final  114.99 input  -60.11 | X-H torsion
[ 7974 7965 7964 7962 ] final   23.08 input  175.53 | X-H torsion
[ 8008 7997 7996 7995 ] final  121.31 input   59.86 | X-H torsion
[ 10167 10162 10161 10158 ] final  134.71 input  -65.29 | X-H torsion
[ 10718 10713 10712 10709 ] final -102.93 input   66.30 | X-H torsion
[ 10763 10752 10751 10750 ] final -145.65 input  -60.55 | X-H torsion
[ 11005 11000 10999 10996 ] final -164.14 input  -57.11 | X-H torsion

> <Gold.Protein.ActiveResidues>
 VAL166  LYS551  ARG553  GLY616  TRP617  ASP618  TYR619  PRO620  LYS621  CYS622 
 ASP623  PHE694  ASN695  SER759  ASP760  ASP761  ALA762  ILE779  LEU786  VAL792 
 PHE793  MET794  SER795  GLU796  ALA797  LYS798  CYS799  TRP800  GLU811  SER814 

> <Gold.Protein.RotatedAtoms>
  152.4769  133.8160  159.7028 H   0  0  0  0  0  0  0  0  0  0  0  0  # atno 6907 bound_to 6896
  150.8792  133.7386  159.2944 H   0  0  0  0  0  0  0  0  0  0  0  0  # atno 6908 bound_to 6896
  151.4896  135.1060  159.9852 H   0  0  0  0  0  0  0  0  0  0  0  0  # atno 6909 bound_to 6896
  146.2000  139.7795  142.8768 H   0  0  0  0  0  0  0  0  0  0  0  0  # atno 7974 bound_to 7965
  156.2681  140.2811  156.1288 H   0  0  0  0  0  0  0  0  0  0  0  0  # atno 8008 bound_to 7997
  155.1077  140.0390  157.2732 H   0  0  0  0  0  0  0  0  0  0  0  0  # atno 8009 bound_to 7997
  154.6766  140.2599  155.6957 H   0  0  0  0  0  0  0  0  0  0  0  0  # atno 8010 bound_to 7997
  139.5245  144.6553  151.5179 H   0  0  0  0  0  0  0  0  0  0  0  0  # atno 10167 bound_to 10162
  156.0246  130.5443  150.7180 H   0  0  0  0  0  0  0  0  0  0  0  0  # atno 10718 bound_to 10713
  154.8373  135.3407  154.6537 H   0  0  0  0  0  0  0  0  0  0  0  0  # atno 10763 bound_to 10752
  153.7151  135.6961  153.5032 H   0  0  0  0  0  0  0  0  0  0  0  0  # atno 10764 bound_to 10752
  153.2423  135.4380  155.0664 H   0  0  0  0  0  0  0  0  0  0  0  0  # atno 10765 bound_to 10752
  140.5902  134.5052  157.5192 H   0  0  0  0  0  0  0  0  0  0  0  0  # atno 11005 bound_to 11000
  145.3515  141.0308  143.3336 LP  0  0  0  0  0  0  0  0  0  0  0  0  # atno 17320 bound_to 7965
  144.8663  139.5103  143.6788 LP  0  0  0  0  0  0  0  0  0  0  0  0  # atno 17321 bound_to 7965
  140.6376  143.8952  150.6662 LP  0  0  0  0  0  0  0  0  0  0  0  0  # atno 17342 bound_to 10162
  140.2276  143.3760  152.1592 LP  0  0  0  0  0  0  0  0  0  0  0  0  # atno 17343 bound_to 10162
  157.4802  131.0901  151.0544 LP  0  0  0  0  0  0  0  0  0  0  0  0  # atno 17370 bound_to 10713
  157.0980  130.5970  149.5454 LP  0  0  0  0  0  0  0  0  0  0  0  0  # atno 17371 bound_to 10713
  139.9277  134.8023  156.1020 LP  0  0  0  0  0  0  0  0  0  0  0  0  # atno 17394 bound_to 11000
  141.0940  133.6703  156.2603 LP  0  0  0  0  0  0  0  0  0  0  0  0  # atno 17395 bound_to 11000

$$$$
