AV-unprocessed.smi:2124|AV-procd|sdf|8650|dock7
  -GOLD-   2272011393D 1   1.00000     0.00000
 Structure written by MMmdl.
 47 49  0  0  0  0  0  0  0  0  1 V2000
  143.6606  138.5629  156.1388 C   0  0  0  0  0  0  0  0  0  0  0  0
  144.9188  139.2272  155.6211 C   0  0  0  0  0  0  0  0  0  0  0  0
  145.3500  139.1076  154.4088 N   0  0  0  0  0  0  0  0  0  0  0  0
  146.5285  139.7732  154.0438 C   0  0  0  0  0  0  0  0  0  0  0  0
  146.9666  139.5847  152.6017 C   0  0  0  0  0  0  0  0  0  0  0  0
  147.2246  140.5381  154.9355 C   0  0  0  0  0  0  0  0  0  0  0  0
  148.5094  141.2779  154.5671 C   0  0  0  0  0  0  0  0  0  0  0  0
  149.7693  140.8070  155.2965 C   0  0  0  0  0  0  0  0  0  0  0  0
  150.4221  139.8641  154.8504 O   0  0  0  0  0  0  0  0  0  0  0  0
  150.0997  141.4768  156.4116 N   0  0  0  0  0  0  0  0  0  0  0  0
  151.2648  141.2145  157.2537 C   0  0  2  0  0  0  0  0  0  0  0  0
  151.4646  139.6959  157.3896 C   0  0  0  0  0  0  0  0  0  0  0  0
  151.0707  141.9122  158.6208 C   0  0  2  0  0  0  0  0  0  0  0  0
  150.4613  143.3312  158.5419 C   0  0  0  0  0  0  0  0  0  0  0  0
  151.4023  144.1641  159.4320 C   0  0  2  0  0  0  0  0  0  0  0  0
  152.7273  144.3935  158.6827 C   0  0  0  0  0  0  0  0  0  0  0  0
  153.3879  143.0040  158.7339 C   0  0  0  0  0  0  0  0  0  0  0  0
  152.3389  142.1517  159.4780 C   0  0  1  0  0  0  0  0  0  0  0  0
  151.8152  143.1570  160.4991 C   0  0  0  0  0  0  0  0  0  0  0  0
  146.7239  140.6654  156.3184 C   0  0  0  0  0  0  0  0  0  0  0  0
  147.2729  141.3218  157.2019 O   0  0  0  0  0  0  0  0  0  0  0  0
  145.5813  139.9918  156.5798 N   0  0  0  0  0  0  0  0  0  0  0  0
  145.1985  140.0474  157.5122 H   0  0  0  0  0  0  0  0  0  0  0  0
  143.7473  137.4793  156.0564 H   0  0  0  0  0  0  0  0  0  0  0  0
  142.7991  138.8835  155.5525 H   0  0  0  0  0  0  0  0  0  0  0  0
  143.4735  138.8125  157.1843 H   0  0  0  0  0  0  0  0  0  0  0  0
  146.9811  140.5391  152.0756 H   0  0  0  0  0  0  0  0  0  0  0  0
  146.2894  138.9185  152.0659 H   0  0  0  0  0  0  0  0  0  0  0  0
  147.9634  139.1477  152.5581 H   0  0  0  0  0  0  0  0  0  0  0  0
  148.6622  141.1929  153.4906 H   0  0  0  0  0  0  0  0  0  0  0  0
  148.3989  142.3485  154.7425 H   0  0  0  0  0  0  0  0  0  0  0  0
  149.4997  142.2371  156.6970 H   0  0  0  0  0  0  0  0  0  0  0  0
  152.1442  141.6368  156.7665 H   0  0  0  0  0  0  0  0  0  0  0  0
  152.3556  139.4628  157.9725 H   0  0  0  0  0  0  0  0  0  0  0  0
  151.5867  139.2261  156.4131 H   0  0  0  0  0  0  0  0  0  0  0  0
  150.6124  139.2255  157.8810 H   0  0  0  0  0  0  0  0  0  0  0  0
  150.3954  141.2910  159.2127 H   0  0  0  0  0  0  0  0  0  0  0  0
  150.4245  143.7231  157.5246 H   0  0  0  0  0  0  0  0  0  0  0  0
  149.4433  143.3332  158.9334 H   0  0  0  0  0  0  0  0  0  0  0  0
  150.9495  145.0809  159.8106 H   0  0  0  0  0  0  0  0  0  0  0  0
  152.5709  144.7431  157.6616 H   0  0  0  0  0  0  0  0  0  0  0  0
  153.3447  145.1304  159.1979 H   0  0  0  0  0  0  0  0  0  0  0  0
  153.6421  142.6188  157.7476 H   0  0  0  0  0  0  0  0  0  0  0  0
  154.3137  143.0502  159.3087 H   0  0  0  0  0  0  0  0  0  0  0  0
  152.7487  141.2410  159.9160 H   0  0  0  0  0  0  0  0  0  0  0  0
  152.5865  143.5331  161.1737 H   0  0  0  0  0  0  0  0  0  0  0  0
  150.9763  142.7832  161.0891 H   0  0  0  0  0  0  0  0  0  0  0  0
  1  2  1  0  0  0  0
  1 24  1  0  0  0  0
  1 25  1  0  0  0  0
  1 26  1  0  0  0  0
  2 22  1  0  0  0  0
  2  3  2  0  0  0  0
  3  4  1  0  0  0  0
  4  5  1  0  0  0  0
  4  6  2  0  0  0  0
  5 27  1  0  0  0  0
  5 28  1  0  0  0  0
  5 29  1  0  0  0  0
  6  7  1  0  0  0  0
  6 20  1  0  0  0  0
  7  8  1  0  0  0  0
  7 30  1  0  0  0  0
  7 31  1  0  0  0  0
  8  9  2  0  0  0  0
  8 10  1  0  0  0  0
 10 11  1  0  0  0  0
 10 32  1  0  0  0  0
 11 12  1  0  0  0  0
 11 13  1  0  0  0  0
 11 33  1  0  0  0  0
 12 34  1  0  0  0  0
 12 35  1  0  0  0  0
 12 36  1  0  0  0  0
 13 18  1  0  0  0  0
 13 14  1  0  0  0  0
 13 37  1  0  0  0  0
 14 15  1  0  0  0  0
 14 38  1  0  0  0  0
 14 39  1  0  0  0  0
 15 19  1  0  0  0  0
 15 16  1  0  0  0  0
 15 40  1  0  0  0  0
 16 17  1  0  0  0  0
 16 41  1  0  0  0  0
 16 42  1  0  0  0  0
 17 18  1  0  0  0  0
 17 43  1  0  0  0  0
 17 44  1  0  0  0  0
 18 19  1  0  0  0  0
 18 45  1  0  0  0  0
 19 46  1  0  0  0  0
 19 47  1  0  0  0  0
 20 21  2  0  0  0  0
 20 22  1  0  0  0  0
 22 23  1  0  0  0  0
M  END
> <s_m_source_file>
AV-unprocessed.smi

> <i_m_source_file_index>
2124

> <i_lp_mmshare_version>
43012

> <i_f3d_flags>
0

> <s_epik_input>
W0NIM11jMW5jKFtDSDNdKWMoYyg9TylbbkhdMSlbQ0gyXUMoPU8pW05IXVtDQEhdKFtDSDNdKVtDQEhdKFtDSDJdW0NASF0yMylbQ0BIXShbQ0gyXTMpW0NIMl1bQ0gyXTI=

> <s_epik_cmdline>
J2VwaWtfcHl0aG9uJywgJy1waCcsICc3LjAnLCAnLXRuJywgJzgnLCAnLW1hJywgJzIwMCcsICctbWV0YWxfYmluZGluZycsICctaW1hZScsICc8aW5maWxlLm1hZT4nLCAnLW9tYWUnLCAnPG91dGZpbGUubWFlPic=

> <r_lp_tautomer_probability>
0.839158

> <r_epik_Ionization_Penalty>
0.000383628

> <r_epik_Ionization_Penalty_Charging>
0.00035045

> <r_epik_Ionization_Penalty_Neutral>
3.31781e-05

> <r_epik_State_Penalty>
0.09125

> <r_epik_Charging_Adjusted_Penalty>
0.0916005

> <i_epik_Tot_Q>
0

> <i_epik_Tot_abs_Q>
0

> <r_epik_Metal_State_Penalty>
0.255229

> <b_epik_Metal_Only>
0

> <s_lp_Force_Field>
OPLS_2005

> <r_lp_Energy>
53.1602

> <b_lp_Chiralities_Consistent>
1

> <s_lp_Variant>
AV-unprocessed.smi:2124-1

> <Gold.Version>
5.8.1

> <Gold.Id.Protein>
6NUR|6NUR_protein|mol2

> <Gold.PLP.Fitness>
39.4629

> <Gold.PLP.PLP>
-38.1578

> <Gold.PLP.part.hbond>
-2.0000

> <Gold.PLP.part.metal>
0.0000

> <Gold.PLP.part.buried>
-4.3988

> <Gold.PLP.part.nonpolar>
-31.9752

> <Gold.PLP.part.repulsive>
0.3393

> <Gold.PLP.ligand.clash>
0.0000

> <Gold.PLP.ligand.torsion>
0.9323

> <Gold.PLP.Chemscore.Hbond>
1.0528

> <Gold.PLP.Chemscore.CHOScore>
0.0000

> <Gold.PLP.Chemscore.Metal>
0.0000

> <Gold.Chemscore.Hbonds>
donor molecule, donor type, donor heavy atom, donor atom, acceptor molecule, acceptor atom, score
      P1  H  7989  7998       L1     9  0.89

> <Gold.PLP.Chemscore.Internal.Correction>
0.0112

> <Gold.Rescore>
     Score         DG    S(hbond)    S(metal)    S(lipo)     H(rot)  DE(clash)    DE(int)     intcor
     15.14     -18.12       1.00        0.00     115.55       1.65       0.21       2.78       ----

> <Gold.Chemscore.Fitness>
15.1356

> <Gold.Chemscore.DG>
-18.1170

> <Gold.Chemscore.ZeroCoef>
-5.4800

> <Gold.Chemscore.Hbond>
1.0031

> <Gold.Chemscore.Metal>
0.0000

> <Gold.Chemscore.Lipo>
115.5482

> <Gold.Chemscore.Internal_Hbond>
0.0000

> <Gold.Chemscore.DEClash>
0.2052

> <Gold.Chemscore.DEInternal>
2.7762

> <Gold.Chemscore.Rot>
1.6534

> <Gold.Chemscore.Internal.Correction>
   9.000000E+99

> <Gold.Chemscore.Hbonds>
donor molecule, donor type, donor heavy atom, donor atom, acceptor molecule, acceptor atom, score
      P1  H  7989  7998       L1     9  0.22

> <Gold.Chemscore.Hbond.Weighted>
-3.3505

> <Gold.Chemscore.Metal.Weighted>
-0.0000

> <Gold.Chemscore.Lipo.Weighted>
-13.5191

> <Gold.Chemscore.Internal_Hbond.Weighted>
0.0000

> <Gold.Chemscore.DEClash.Weighted>
0.2052

> <Gold.Chemscore.DEInternal.Weighted>
2.7762

> <Gold.Chemscore.Rot.Weighted>
4.2326

> <Gold.Chemscore.Internal.Correction.Weighted>
   9.000000E+99

> <Gold.Protein.RotatedTorsions>
[ 6907 6896 6895 6894 ] final   -4.02 input  -60.11 | X-H torsion
[ 7974 7965 7964 7962 ] final  108.31 input  175.53 | X-H torsion
[ 8008 7997 7996 7995 ] final  176.01 input   59.86 | X-H torsion
[ 10167 10162 10161 10158 ] final   14.46 input  -65.29 | X-H torsion
[ 10718 10713 10712 10709 ] final   25.42 input   66.30 | X-H torsion
[ 10763 10752 10751 10750 ] final  -60.99 input  -60.55 | X-H torsion
[ 11005 11000 10999 10996 ] final  153.87 input  -57.11 | X-H torsion

> <Gold.Protein.ActiveResidues>
 VAL166  LYS551  ARG553  GLY616  TRP617  ASP618  TYR619  PRO620  LYS621  CYS622 
 ASP623  PHE694  ASN695  SER759  ASP760  ASP761  ALA762  ILE779  LEU786  VAL792 
 PHE793  MET794  SER795  GLU796  ALA797  LYS798  CYS799  TRP800  GLU811  SER814 

> <Gold.Protein.RotatedAtoms>
  151.5043  135.1063  159.9836 H   0  0  0  0  0  0  0  0  0  0  0  0  # atno 6907 bound_to 6896
  152.4688  133.7979  159.6948 H   0  0  0  0  0  0  0  0  0  0  0  0  # atno 6908 bound_to 6896
  150.8686  133.7475  159.2994 H   0  0  0  0  0  0  0  0  0  0  0  0  # atno 6909 bound_to 6896
  145.2823  139.2628  143.3909 H   0  0  0  0  0  0  0  0  0  0  0  0  # atno 7974 bound_to 7965
  156.0810  140.1394  156.9712 H   0  0  0  0  0  0  0  0  0  0  0  0  # atno 8008 bound_to 7997
  154.4585  140.0952  156.6876 H   0  0  0  0  0  0  0  0  0  0  0  0  # atno 8009 bound_to 7997
  155.5075  140.3452  155.4384 H   0  0  0  0  0  0  0  0  0  0  0  0  # atno 8010 bound_to 7997
  140.5934  143.8750  150.6895 H   0  0  0  0  0  0  0  0  0  0  0  0  # atno 10167 bound_to 10162
  157.1931  130.6855  149.6158 H   0  0  0  0  0  0  0  0  0  0  0  0  # atno 10718 bound_to 10713
  154.2776  135.6278  153.5334 H   0  0  0  0  0  0  0  0  0  0  0  0  # atno 10763 bound_to 10752
  152.9870  135.5625  154.5531 H   0  0  0  0  0  0  0  0  0  0  0  0  # atno 10764 bound_to 10752
  154.5114  135.2877  155.1315 H   0  0  0  0  0  0  0  0  0  0  0  0  # atno 10765 bound_to 10752
  140.1437  134.8721  157.2365 H   0  0  0  0  0  0  0  0  0  0  0  0  # atno 11005 bound_to 11000
  146.3212  140.3293  142.8639 LP  0  0  0  0  0  0  0  0  0  0  0  0  # atno 17320 bound_to 7965
  144.9243  140.7903  143.5729 LP  0  0  0  0  0  0  0  0  0  0  0  0  # atno 17321 bound_to 7965
  140.2278  143.3759  152.1590 LP  0  0  0  0  0  0  0  0  0  0  0  0  # atno 17342 bound_to 10162
  139.5242  144.7081  151.5292 LP  0  0  0  0  0  0  0  0  0  0  0  0  # atno 17343 bound_to 10162
  155.9709  130.4608  150.6086 LP  0  0  0  0  0  0  0  0  0  0  0  0  # atno 17370 bound_to 10713
  157.3841  131.0785  151.1451 LP  0  0  0  0  0  0  0  0  0  0  0  0  # atno 17371 bound_to 10713
  140.2690  134.3483  155.7380 LP  0  0  0  0  0  0  0  0  0  0  0  0  # atno 17394 bound_to 11000
  141.2189  133.7412  156.9194 LP  0  0  0  0  0  0  0  0  0  0  0  0  # atno 17395 bound_to 11000

$$$$
