AV-unprocessed.smi:1489|AV-procd|sdf|6025|dock1
  -GOLD-   22720 6123D 1   1.00000     0.00000
 Structure written by MMmdl.
 46 48  0  0  0  0  0  0  0  0  1 V2000
  145.9890  138.8131  153.8685 O   0  0  0  0  0  0  0  0  0  0  0  0
  146.8827  138.3133  153.1855 C   0  0  0  0  0  0  0  0  0  0  0  0
  148.1816  138.6545  153.2381 N   0  0  0  0  0  0  0  0  0  0  0  0
  148.8065  139.6135  154.0794 C   0  0  0  0  0  0  0  0  0  0  0  0
  148.1877  140.8038  154.5264 C   0  0  0  0  0  0  0  0  0  0  0  0
  148.9157  141.6827  155.3513 C   0  0  0  0  0  0  0  0  0  0  0  0
  150.2473  141.3564  155.7017 C   0  0  0  0  0  0  0  0  0  0  0  0
  151.0037  142.1997  156.5389 N   0  0  0  0  0  0  0  0  0  0  0  0
  150.8539  143.6461  156.5173 C   0  0  0  0  0  0  0  0  0  0  0  0
  151.7828  144.1439  157.6235 C   0  0  0  0  0  0  0  0  0  0  0  0
  151.7295  143.0163  158.6551 C   0  0  0  0  0  0  0  0  0  0  0  0
  151.5361  141.7471  157.8164 C   0  0  0  0  0  0  0  0  0  0  0  0
  150.8421  140.2224  155.2609 N   0  0  0  0  0  0  0  0  0  0  0  0
  150.1410  139.3848  154.4689 C   0  0  0  0  0  0  0  0  0  0  0  0
  146.6799  137.3291  152.2974 N   0  0  0  0  0  0  0  0  0  0  0  0
  145.4016  136.6831  152.0098 C   0  0  2  0  0  0  0  0  0  0  0  0
  144.8774  135.9848  153.2792 C   0  0  0  0  0  0  0  0  0  0  0  0
  143.5751  135.2164  153.0025 C   0  0  0  0  0  0  0  0  0  0  0  0
  143.7602  134.2081  151.8556 C   0  0  1  0  0  0  0  0  0  0  0  0
  142.5290  133.5720  151.5853 O   0  0  0  0  0  0  0  0  0  0  0  0
  144.2687  134.9075  150.5831 C   0  0  0  0  0  0  0  0  0  0  0  0
  145.5722  135.6761  150.8561 C   0  0  0  0  0  0  0  0  0  0  0  0
  148.8087  138.1029  152.6708 H   0  0  0  0  0  0  0  0  0  0  0  0
  147.1785  141.0645  154.2475 H   0  0  0  0  0  0  0  0  0  0  0  0
  148.4425  142.5861  155.7058 H   0  0  0  0  0  0  0  0  0  0  0  0
  151.1203  144.0666  155.5470 H   0  0  0  0  0  0  0  0  0  0  0  0
  149.8176  143.9069  156.7363 H   0  0  0  0  0  0  0  0  0  0  0  0
  152.7982  144.2415  157.2372 H   0  0  0  0  0  0  0  0  0  0  0  0
  151.4811  145.1099  158.0287 H   0  0  0  0  0  0  0  0  0  0  0  0
  152.6176  142.9745  159.2860 H   0  0  0  0  0  0  0  0  0  0  0  0
  150.8644  143.1596  159.3040 H   0  0  0  0  0  0  0  0  0  0  0  0
  150.8653  141.0476  158.3165 H   0  0  0  0  0  0  0  0  0  0  0  0
  152.4898  141.2469  157.6445 H   0  0  0  0  0  0  0  0  0  0  0  0
  150.6630  138.4969  154.1431 H   0  0  0  0  0  0  0  0  0  0  0  0
  147.4801  136.9857  151.7867 H   0  0  0  0  0  0  0  0  0  0  0  0
  144.6614  137.4249  151.7041 H   0  0  0  0  0  0  0  0  0  0  0  0
  145.6300  135.2921  153.6590 H   0  0  0  0  0  0  0  0  0  0  0  0
  144.7086  136.7200  154.0672 H   0  0  0  0  0  0  0  0  0  0  0  0
  143.2517  134.7008  153.9076 H   0  0  0  0  0  0  0  0  0  0  0  0
  142.7846  135.9248  152.7502 H   0  0  0  0  0  0  0  0  0  0  0  0
  144.4749  133.4420  152.1589 H   0  0  0  0  0  0  0  0  0  0  0  0
  142.2014  133.8898  150.7578 H   0  0  0  0  0  0  0  0  0  0  0  0
  144.4314  134.1756  149.7910 H   0  0  0  0  0  0  0  0  0  0  0  0
  143.5115  135.6012  150.2141 H   0  0  0  0  0  0  0  0  0  0  0  0
  145.8883  136.1956  149.9506 H   0  0  0  0  0  0  0  0  0  0  0  0
  146.3648  134.9663  151.0975 H   0  0  0  0  0  0  0  0  0  0  0  0
  1  2  2  0  0  0  0
  2  3  1  0  0  0  0
  2 15  1  0  0  0  0
  3  4  1  0  0  0  0
  3 23  1  0  0  0  0
  4 14  1  0  0  0  0
  4  5  2  0  0  0  0
  5  6  1  0  0  0  0
  5 24  1  0  0  0  0
  6  7  2  0  0  0  0
  6 25  1  0  0  0  0
  7  8  1  0  0  0  0
  7 13  1  0  0  0  0
  8 12  1  0  0  0  0
  8  9  1  0  0  0  0
  9 10  1  0  0  0  0
  9 26  1  0  0  0  0
  9 27  1  0  0  0  0
 10 11  1  0  0  0  0
 10 28  1  0  0  0  0
 10 29  1  0  0  0  0
 11 12  1  0  0  0  0
 11 30  1  0  0  0  0
 11 31  1  0  0  0  0
 12 32  1  0  0  0  0
 12 33  1  0  0  0  0
 13 14  2  0  0  0  0
 14 34  1  0  0  0  0
 15 16  1  0  0  0  0
 15 35  1  0  0  0  0
 16 22  1  0  0  0  0
 16 17  1  0  0  0  0
 16 36  1  0  0  0  0
 17 18  1  0  0  0  0
 17 37  1  0  0  0  0
 17 38  1  0  0  0  0
 18 19  1  0  0  0  0
 18 39  1  0  0  0  0
 18 40  1  0  0  0  0
 19 20  1  0  0  0  0
 19 21  1  0  0  0  0
 19 41  1  0  0  0  0
 20 42  1  0  0  0  0
 21 22  1  0  0  0  0
 21 43  1  0  0  0  0
 21 44  1  0  0  0  0
 22 45  1  0  0  0  0
 22 46  1  0  0  0  0
M  END
> <s_m_source_file>
AV-unprocessed.smi

> <i_m_source_file_index>
1489

> <i_lp_mmshare_version>
43012

> <i_f3d_flags>
0

> <s_epik_input>
W0NIMl0xW0NIMl1bQ0BIXShbT0hdKVtDSDJdW0NIMl1bQ0BIXTFbTkhdQyg9TylbTkhdYzJbY0hdW2NIXWMobltjSF0yKU4zW0NIMl1bQ0gyXVtDSDJdW0NIMl0z

> <s_epik_cmdline>
J2VwaWtfcHl0aG9uJywgJy1waCcsICc3LjAnLCAnLXRuJywgJzgnLCAnLW1hJywgJzIwMCcsICctbWV0YWxfYmluZGluZycsICctaW1hZScsICc8aW5maWxlLm1hZT4nLCAnLW9tYWUnLCAnPG91dGZpbGUubWFlPic=

> <r_lp_tautomer_probability>
1

> <r_epik_Ionization_Penalty>
0.104121

> <r_epik_Ionization_Penalty_Charging>
0

> <r_epik_Ionization_Penalty_Neutral>
0.104121

> <r_epik_State_Penalty>
0.0934704

> <r_epik_Charging_Adjusted_Penalty>
0.0934704

> <i_epik_Tot_Q>
0

> <i_epik_Tot_abs_Q>
0

> <r_epik_Metal_State_Penalty>
0.0794432

> <b_epik_Metal_Only>
0

> <s_lp_Force_Field>
OPLS_2005

> <r_lp_Energy>
34.4224

> <b_lp_Chiralities_Consistent>
1

> <s_lp_Variant>
AV-unprocessed.smi:1489-1

> <Gold.Version>
5.8.1

> <Gold.Id.Protein>
6NUR|6NUR_protein|mol2

> <Gold.PLP.Fitness>
46.4821

> <Gold.PLP.PLP>
-39.2652

> <Gold.PLP.part.hbond>
-4.9461

> <Gold.PLP.part.metal>
0.0000

> <Gold.PLP.part.buried>
0.5972

> <Gold.PLP.part.nonpolar>
-36.2787

> <Gold.PLP.part.repulsive>
0.3014

> <Gold.PLP.ligand.clash>
0.0000

> <Gold.PLP.ligand.torsion>
1.0128

> <Gold.PLP.Chemscore.Hbond>
3.0260

> <Gold.PLP.Chemscore.CHOScore>
0.0000

> <Gold.PLP.Chemscore.Metal>
0.0000

> <Gold.Chemscore.Hbonds>
donor molecule, donor type, donor heavy atom, donor atom, acceptor molecule, acceptor atom, score
      L1  H     3    23       P1  7948  0.83
      L1  H    15    35       P1  7948  0.98
      L1  H    20    42       P1 10186  1.00
      P1  H  7989  7998       L1    13  0.20

> <Gold.PLP.Chemscore.Internal.Correction>
0.1645

> <Gold.Rescore>
     Score         DG    S(hbond)    S(metal)    S(lipo)     H(rot)  DE(clash)    DE(int)     intcor
     18.32     -21.93       2.55        0.00      98.55       1.41       1.76       1.85       ----

> <Gold.Chemscore.Fitness>
18.3153

> <Gold.Chemscore.DG>
-21.9275

> <Gold.Chemscore.ZeroCoef>
-5.4800

> <Gold.Chemscore.Hbond>
2.5525

> <Gold.Chemscore.Metal>
0.0000

> <Gold.Chemscore.Lipo>
98.5470

> <Gold.Chemscore.Internal_Hbond>
0.0000

> <Gold.Chemscore.DEClash>
1.7579

> <Gold.Chemscore.DEInternal>
1.8542

> <Gold.Chemscore.Rot>
1.4093

> <Gold.Chemscore.Internal.Correction>
   9.000000E+99

> <Gold.Chemscore.Hbonds>
donor molecule, donor type, donor heavy atom, donor atom, acceptor molecule, acceptor atom, score
      L1  H     3    23       P1  7948  0.79
      L1  H    15    35       P1  7948  0.93
      L1  H    20    42       P1 10186  0.60

> <Gold.Chemscore.Hbond.Weighted>
-8.5252

> <Gold.Chemscore.Metal.Weighted>
-0.0000

> <Gold.Chemscore.Lipo.Weighted>
-11.5300

> <Gold.Chemscore.Internal_Hbond.Weighted>
0.0000

> <Gold.Chemscore.DEClash.Weighted>
1.7579

> <Gold.Chemscore.DEInternal.Weighted>
1.8542

> <Gold.Chemscore.Rot.Weighted>
3.6077

> <Gold.Chemscore.Internal.Correction.Weighted>
   9.000000E+99

> <Gold.Protein.RotatedTorsions>
[ 6907 6896 6895 6894 ] final  -85.30 input  -60.11 | X-H torsion
[ 7974 7965 7964 7962 ] final  -54.02 input  175.53 | X-H torsion
[ 8008 7997 7996 7995 ] final   40.29 input   59.86 | X-H torsion
[ 10167 10162 10161 10158 ] final -135.79 input  -65.29 | X-H torsion
[ 10718 10713 10712 10709 ] final -114.75 input   66.30 | X-H torsion
[ 10763 10752 10751 10750 ] final   -1.13 input  -60.55 | X-H torsion
[ 11005 11000 10999 10996 ] final  -93.96 input  -57.11 | X-H torsion

> <Gold.Protein.ActiveResidues>
 VAL166  LYS551  ARG553  GLY616  TRP617  ASP618  TYR619  PRO620  LYS621  CYS622 
 ASP623  PHE694  ASN695  SER759  ASP760  ASP761  ALA762  ILE779  LEU786  VAL792 
 PHE793  MET794  SER795  GLU796  ALA797  LYS798  CYS799  TRP800  GLU811  SER814 

> <Gold.Protein.RotatedAtoms>
  150.6871  134.3226  159.4792 H   0  0  0  0  0  0  0  0  0  0  0  0  # atno 6907 bound_to 6896
  152.1100  134.9278  160.0576 H   0  0  0  0  0  0  0  0  0  0  0  0  # atno 6908 bound_to 6896
  152.0525  133.3990  159.4420 H   0  0  0  0  0  0  0  0  0  0  0  0  # atno 6909 bound_to 6896
  145.8903  140.8076  142.9795 H   0  0  0  0  0  0  0  0  0  0  0  0  # atno 7974 bound_to 7965
  155.2506  140.3352  155.4282 H   0  0  0  0  0  0  0  0  0  0  0  0  # atno 8008 bound_to 7997
  156.2217  140.1812  156.7504 H   0  0  0  0  0  0  0  0  0  0  0  0  # atno 8009 bound_to 7997
  154.5836  140.0649  156.9124 H   0  0  0  0  0  0  0  0  0  0  0  0  # atno 8010 bound_to 7997
  139.8743  143.6918  152.2636 H   0  0  0  0  0  0  0  0  0  0  0  0  # atno 10167 bound_to 10162
  156.0850  130.6044  150.8816 H   0  0  0  0  0  0  0  0  0  0  0  0  # atno 10718 bound_to 10713
  153.3409  135.6980  153.6868 H   0  0  0  0  0  0  0  0  0  0  0  0  # atno 10763 bound_to 10752
  153.5633  135.3530  155.2809 H   0  0  0  0  0  0  0  0  0  0  0  0  # atno 10764 bound_to 10752
  154.8636  135.4254  154.2622 H   0  0  0  0  0  0  0  0  0  0  0  0  # atno 10765 bound_to 10752
  141.1483  133.7923  157.0232 H   0  0  0  0  0  0  0  0  0  0  0  0  # atno 11005 bound_to 11000
  144.6730  140.1519  143.7429 LP  0  0  0  0  0  0  0  0  0  0  0  0  # atno 17320 bound_to 7965
  145.8916  139.2379  143.1546 LP  0  0  0  0  0  0  0  0  0  0  0  0  # atno 17321 bound_to 7965
  139.7255  144.7594  151.0886 LP  0  0  0  0  0  0  0  0  0  0  0  0  # atno 17342 bound_to 10162
  140.7755  143.5154  150.9601 LP  0  0  0  0  0  0  0  0  0  0  0  0  # atno 17343 bound_to 10162
  157.5982  131.0942  150.9006 LP  0  0  0  0  0  0  0  0  0  0  0  0  # atno 17370 bound_to 10713
  156.9168  130.5300  149.5279 LP  0  0  0  0  0  0  0  0  0  0  0  0  # atno 17371 bound_to 10713
  140.0802  134.9652  157.1612 LP  0  0  0  0  0  0  0  0  0  0  0  0  # atno 17394 bound_to 11000
  140.3587  134.2518  155.7189 LP  0  0  0  0  0  0  0  0  0  0  0  0  # atno 17395 bound_to 11000

$$$$
