AV-unprocessed.smi:1209|AV-procd|sdf|5072|dock4
  -GOLD-   22720 4113D 1   1.00000     0.00000
 Structure written by MMmdl.
 49 51  0  0  0  0  0  0  0  0  2 V2000
  143.5850  147.3938  153.9227 C   0  0  0  0  0  0  0  0  0  0  0  0
  144.3758  146.1308  153.9494 C   0  0  0  0  0  0  0  0  0  0  0  0
  145.0226  145.4165  152.9819 C   0  0  0  0  0  0  0  0  0  0  0  0
  145.5790  144.3165  153.6915 C   0  0  0  0  0  0  0  0  0  0  0  0
  146.4114  143.1809  153.1579 C   0  0  0  0  0  0  0  0  0  0  0  0
  147.2485  142.5412  154.1800 N   0  0  0  0  0  0  0  0  0  0  0  0
  146.4273  141.7702  155.1098 C   0  0  0  0  0  0  0  0  0  0  0  0
  148.2693  141.6769  153.5853 C   0  0  0  0  0  0  0  0  0  0  0  0
  149.1313  140.8823  154.5930 C   0  0  1  0  0  0  0  0  0  0  0  0
  150.0842  140.1355  153.8677 O   0  0  0  0  0  0  0  0  0  0  0  0
  149.8984  141.7829  155.5820 C   0  0  0  0  0  0  0  0  0  0  0  0
  150.5542  141.0241  156.6546 N   0  0  0  0  0  0  0  0  0  0  0  0
  150.7972  139.6894  156.7637 C   0  0  0  0  0  0  0  0  0  0  0  0
  151.4443  139.4856  157.9446 N   0  3  0  0  0  0  0  0  0  0  0  0
  151.6089  140.7066  158.6027 C   0  0  0  0  0  0  0  0  0  0  0  0
  152.2020  141.0125  159.8219 C   0  0  0  0  0  0  0  0  0  0  0  0
  152.2038  142.3701  160.2153 C   0  0  0  0  0  0  0  0  0  0  0  0
  152.8439  142.7395  161.5426 C   0  0  0  0  0  0  0  0  0  0  0  0
  151.6217  143.3698  159.3935 C   0  0  0  0  0  0  0  0  0  0  0  0
  151.6295  144.8262  159.8264 C   0  0  0  0  0  0  0  0  0  0  0  0
  151.0233  143.0380  158.1569 C   0  0  0  0  0  0  0  0  0  0  0  0
  151.0334  141.6967  157.7832 C   0  0  0  0  0  0  0  0  0  0  0  0
  145.2851  144.3653  154.9803 N   0  0  0  0  0  0  0  0  0  0  0  0
  144.5179  145.5225  155.1551 O   0  0  0  0  0  0  0  0  0  0  0  0
  143.2410  147.6157  152.9122 H   0  0  0  0  0  0  0  0  0  0  0  0
  144.1887  148.2335  154.2672 H   0  0  0  0  0  0  0  0  0  0  0  0
  142.7095  147.3182  154.5678 H   0  0  0  0  0  0  0  0  0  0  0  0
  145.0925  145.6464  151.9294 H   0  0  0  0  0  0  0  0  0  0  0  0
  145.7710  142.4316  152.6894 H   0  0  0  0  0  0  0  0  0  0  0  0
  147.0295  143.5748  152.3538 H   0  0  0  0  0  0  0  0  0  0  0  0
  147.0443  141.3107  155.8826 H   0  0  0  0  0  0  0  0  0  0  0  0
  145.8857  140.9767  154.5929 H   0  0  0  0  0  0  0  0  0  0  0  0
  145.6991  142.4036  155.6167 H   0  0  0  0  0  0  0  0  0  0  0  0
  147.8010  140.9601  152.9085 H   0  0  0  0  0  0  0  0  0  0  0  0
  148.9075  142.2922  152.9509 H   0  0  0  0  0  0  0  0  0  0  0  0
  148.5295  140.1759  155.1610 H   0  0  0  0  0  0  0  0  0  0  0  0
  149.8061  140.0941  152.9650 H   0  0  0  0  0  0  0  0  0  0  0  0
  150.6600  142.3713  155.0679 H   0  0  0  0  0  0  0  0  0  0  0  0
  149.2189  142.4952  156.0525 H   0  0  0  0  0  0  0  0  0  0  0  0
  150.5337  138.9312  156.0402 H   0  0  0  0  0  0  0  0  0  0  0  0
  152.6426  140.2466  160.4431 H   0  0  0  0  0  0  0  0  0  0  0  0
  153.6795  143.4223  161.3874 H   0  0  0  0  0  0  0  0  0  0  0  0
  153.2249  141.8590  162.0611 H   0  0  0  0  0  0  0  0  0  0  0  0
  152.1176  143.2221  162.1969 H   0  0  0  0  0  0  0  0  0  0  0  0
  151.1591  145.4675  159.0802 H   0  0  0  0  0  0  0  0  0  0  0  0
  152.6513  145.1778  159.9698 H   0  0  0  0  0  0  0  0  0  0  0  0
  151.0849  144.9503  160.7627 H   0  0  0  0  0  0  0  0  0  0  0  0
  150.5785  143.7979  157.5311 H   0  0  0  0  0  0  0  0  0  0  0  0
  151.7493  138.5789  158.2749 H   0  0  0  0  0  0  0  0  0  0  0  0
  1  2  1  0  0  0  0
  1 25  1  0  0  0  0
  1 26  1  0  0  0  0
  1 27  1  0  0  0  0
  2 24  1  0  0  0  0
  2  3  2  0  0  0  0
  3  4  1  0  0  0  0
  3 28  1  0  0  0  0
  4  5  1  0  0  0  0
  4 23  2  0  0  0  0
  5  6  1  0  0  0  0
  5 29  1  0  0  0  0
  5 30  1  0  0  0  0
  6  7  1  0  0  0  0
  6  8  1  0  0  0  0
  7 31  1  0  0  0  0
  7 32  1  0  0  0  0
  7 33  1  0  0  0  0
  8  9  1  0  0  0  0
  8 34  1  0  0  0  0
  8 35  1  0  0  0  0
  9 10  1  0  0  0  0
  9 11  1  0  0  0  0
  9 36  1  0  0  0  0
 10 37  1  0  0  0  0
 11 12  1  0  0  0  0
 11 38  1  0  0  0  0
 11 39  1  0  0  0  0
 12 22  1  0  0  0  0
 12 13  1  0  0  0  0
 13 14  2  0  0  0  0
 13 40  1  0  0  0  0
 14 15  1  0  0  0  0
 14 49  1  0  0  0  0
 15 22  2  0  0  0  0
 15 16  1  0  0  0  0
 16 17  2  0  0  0  0
 16 41  1  0  0  0  0
 17 18  1  0  0  0  0
 17 19  1  0  0  0  0
 18 42  1  0  0  0  0
 18 43  1  0  0  0  0
 18 44  1  0  0  0  0
 19 20  1  0  0  0  0
 19 21  2  0  0  0  0
 20 45  1  0  0  0  0
 20 46  1  0  0  0  0
 20 47  1  0  0  0  0
 21 22  1  0  0  0  0
 21 48  1  0  0  0  0
 23 24  1  0  0  0  0
M  CHG  1  14   1
M  END
> <s_m_source_file>
AV-unprocessed.smi

> <i_m_source_file_index>
1209

> <i_lp_mmshare_version>
43012

> <i_f3d_flags>
0

> <s_epik_input>
W0NIM11jMVtjSF1jKG5vMSlbQ0gyXU4oW0NIM10pW0NIMl1bQ0BIXShbT0hdKVtDSDJdbihbY0hdbjIpYyhjMjMpW2NIXWMoW0NIM10pYyhbY0hdMylbQ0gzXQ==

> <s_epik_cmdline>
J2VwaWtfcHl0aG9uJywgJy1waCcsICc3LjAnLCAnLXRuJywgJzgnLCAnLW1hJywgJzIwMCcsICctbWV0YWxfYmluZGluZycsICctaW1hZScsICc8aW5maWxlLm1hZT4nLCAnLW9tYWUnLCAnPG91dGZpbGUubWFlPic=

> <r_epik_Ionization_Penalty>
1.23608

> <r_epik_Ionization_Penalty_Charging>
1.21624

> <r_epik_Ionization_Penalty_Neutral>
0.0198409

> <r_epik_State_Penalty>
1.27749

> <r_epik_Charging_Adjusted_Penalty>
2.49372

> <i_epik_Tot_Q>
1

> <i_epik_Tot_abs_Q>
1

> <r_epik_Metal_State_Penalty>
1.34809

> <b_epik_Metal_Only>
0

> <s_lp_Force_Field>
OPLS_2005

> <r_lp_Energy>
23.0789

> <b_lp_Chiralities_Consistent>
1

> <s_lp_Variant>
AV-unprocessed.smi:1209-4

> <Gold.Version>
5.8.1

> <Gold.Id.Protein>
6NUR|6NUR_protein|mol2

> <Gold.PLP.Fitness>
57.2078

> <Gold.PLP.PLP>
-52.9343

> <Gold.PLP.part.hbond>
-2.0000

> <Gold.PLP.part.metal>
0.0000

> <Gold.PLP.part.buried>
-7.4526

> <Gold.PLP.part.nonpolar>
-43.1401

> <Gold.PLP.part.repulsive>
0.4653

> <Gold.PLP.ligand.clash>
0.0000

> <Gold.PLP.ligand.torsion>
0.6327

> <Gold.PLP.Chemscore.Hbond>
1.8160

> <Gold.PLP.Chemscore.CHOScore>
0.0000

> <Gold.PLP.Chemscore.Metal>
0.0000

> <Gold.Chemscore.Hbonds>
donor molecule, donor type, donor heavy atom, donor atom, acceptor molecule, acceptor atom, score
      L1  H    10    37       P1  7957  1.00
      P1  H  7989  7998       L1    10  0.54

> <Gold.PLP.Chemscore.Internal.Correction>
0.0910

> <Gold.Rescore>
     Score         DG    S(hbond)    S(metal)    S(lipo)     H(rot)  DE(clash)    DE(int)     intcor
     18.32     -20.72       1.51        0.00     142.36       2.53       0.27       2.13       ----

> <Gold.Chemscore.Fitness>
18.3159

> <Gold.Chemscore.DG>
-20.7209

> <Gold.Chemscore.ZeroCoef>
-5.4800

> <Gold.Chemscore.Hbond>
1.5127

> <Gold.Chemscore.Metal>
0.0000

> <Gold.Chemscore.Lipo>
142.3596

> <Gold.Chemscore.Internal_Hbond>
0.0000

> <Gold.Chemscore.DEClash>
0.2747

> <Gold.Chemscore.DEInternal>
2.1303

> <Gold.Chemscore.Rot>
2.5265

> <Gold.Chemscore.Internal.Correction>
   9.000000E+99

> <Gold.Chemscore.Hbonds>
donor molecule, donor type, donor heavy atom, donor atom, acceptor molecule, acceptor atom, score
      L1  H    10    37       P1  7957  1.00
      P1  H  7989  7998       L1    10  0.05

> <Gold.Chemscore.Hbond.Weighted>
-5.0525

> <Gold.Chemscore.Metal.Weighted>
-0.0000

> <Gold.Chemscore.Lipo.Weighted>
-16.6561

> <Gold.Chemscore.Internal_Hbond.Weighted>
0.0000

> <Gold.Chemscore.DEClash.Weighted>
0.2747

> <Gold.Chemscore.DEInternal.Weighted>
2.1303

> <Gold.Chemscore.Rot.Weighted>
6.4677

> <Gold.Chemscore.Internal.Correction.Weighted>
   9.000000E+99

> <Gold.Protein.RotatedTorsions>
[ 6907 6896 6895 6894 ] final  -69.40 input  -60.11 | X-H torsion
[ 7974 7965 7964 7962 ] final   92.22 input  175.53 | X-H torsion
[ 8008 7997 7996 7995 ] final  102.47 input   59.86 | X-H torsion
[ 10167 10162 10161 10158 ] final -134.73 input  -65.29 | X-H torsion
[ 10718 10713 10712 10709 ] final   59.80 input   66.30 | X-H torsion
[ 10763 10752 10751 10750 ] final   22.18 input  -60.55 | X-H torsion
[ 11005 11000 10999 10996 ] final  126.80 input  -57.11 | X-H torsion

> <Gold.Protein.ActiveResidues>
 VAL166  LYS551  ARG553  GLY616  TRP617  ASP618  TYR619  PRO620  LYS621  CYS622 
 ASP623  PHE694  ASN695  SER759  ASP760  ASP761  ALA762  ILE779  LEU786  VAL792 
 PHE793  MET794  SER795  GLU796  ALA797  LYS798  CYS799  TRP800  GLU811  SER814 

> <Gold.Protein.RotatedAtoms>
  150.7307  134.5602  159.5838 H   0  0  0  0  0  0  0  0  0  0  0  0  # atno 6907 bound_to 6896
  152.3067  134.7543  160.0354 H   0  0  0  0  0  0  0  0  0  0  0  0  # atno 6908 bound_to 6896
  151.8105  133.3345  159.3590 H   0  0  0  0  0  0  0  0  0  0  0  0  # atno 6909 bound_to 6896
  145.4952  139.2276  143.2808 H   0  0  0  0  0  0  0  0  0  0  0  0  # atno 7974 bound_to 7965
  156.1395  140.3181  155.8474 H   0  0  0  0  0  0  0  0  0  0  0  0  # atno 8008 bound_to 7997
  155.4180  140.0510  157.3044 H   0  0  0  0  0  0  0  0  0  0  0  0  # atno 8009 bound_to 7997
  154.4965  140.2112  155.9449 H   0  0  0  0  0  0  0  0  0  0  0  0  # atno 8010 bound_to 7997
  139.8851  143.6791  152.2621 H   0  0  0  0  0  0  0  0  0  0  0  0  # atno 10167 bound_to 10162
  157.5703  130.8903  149.9256 H   0  0  0  0  0  0  0  0  0  0  0  0  # atno 10718 bound_to 10713
  153.0936  135.6653  153.9806 H   0  0  0  0  0  0  0  0  0  0  0  0  # atno 10763 bound_to 10752
  153.9396  135.2995  155.3444 H   0  0  0  0  0  0  0  0  0  0  0  0  # atno 10764 bound_to 10752
  154.7353  135.5104  153.9105 H   0  0  0  0  0  0  0  0  0  0  0  0  # atno 10765 bound_to 10752
  139.9475  134.9627  156.8761 H   0  0  0  0  0  0  0  0  0  0  0  0  # atno 11005 bound_to 11000
  146.2260  140.5749  142.8996 LP  0  0  0  0  0  0  0  0  0  0  0  0  # atno 17320 bound_to 7965
  144.7811  140.5842  143.6605 LP  0  0  0  0  0  0  0  0  0  0  0  0  # atno 17321 bound_to 7965
  139.7160  144.7611  151.1032 LP  0  0  0  0  0  0  0  0  0  0  0  0  # atno 17342 bound_to 10162
  140.7737  143.5268  150.9470 LP  0  0  0  0  0  0  0  0  0  0  0  0  # atno 17343 bound_to 10162
  156.0749  130.3680  150.0698 LP  0  0  0  0  0  0  0  0  0  0  0  0  # atno 17370 bound_to 10713
  156.8852  130.9570  151.3595 LP  0  0  0  0  0  0  0  0  0  0  0  0  # atno 17371 bound_to 10713
  140.5799  134.0362  155.7460 LP  0  0  0  0  0  0  0  0  0  0  0  0  # atno 17394 bound_to 11000
  141.1129  133.9587  157.2876 LP  0  0  0  0  0  0  0  0  0  0  0  0  # atno 17395 bound_to 11000

$$$$
