AV-unprocessed.smi:669|AV-procd|sdf|3263|dock1
  -GOLD-   22720 0213D 1   1.00000     0.00000
 Structure written by MMmdl.
 37 38  0  0  0  0  0  0  0  0  1 V2000
  147.5803  140.8020  153.5874 C   0  0  0  0  0  0  0  0  0  0  0  0
  148.8692  140.3689  154.2202 C   0  0  0  0  0  0  0  0  0  0  0  0
  149.3680  139.0099  154.1449 C   0  0  0  0  0  0  0  0  0  0  0  0
  150.5512  138.7079  154.7205 C   0  0  0  0  0  0  0  0  0  0  0  0
  151.3419  139.7136  155.4270 C   0  0  0  0  0  0  0  0  0  0  0  0
  152.4424  139.4740  155.9225 O   0  0  0  0  0  0  0  0  0  0  0  0
  150.7494  140.9437  155.4779 N   0  0  0  0  0  0  0  0  0  0  0  0
  151.3887  142.0737  156.1726 C   0  0  0  0  0  0  0  0  0  0  0  0
  150.6784  142.5221  157.4868 C   0  0  1  0  0  0  0  0  0  0  0  0
  149.3523  142.8788  157.1469 O   0  0  0  0  0  0  0  0  0  0  0  0
  150.5317  141.3396  158.4745 C   0  0  0  0  0  0  0  0  0  0  0  0
  151.8511  140.9757  159.1803 C   0  0  0  0  0  0  0  0  0  0  0  0
  152.4711  142.1936  159.8894 C   0  0  1  0  0  0  0  0  0  0  0  0
  153.7927  141.8288  160.5797 C   0  0  0  0  0  0  0  0  0  0  0  0
  152.6536  143.3563  158.8969 C   0  0  0  0  0  0  0  0  0  0  0  0
  151.3246  143.7270  158.2151 C   0  0  0  0  0  0  0  0  0  0  0  0
  149.5518  141.2623  154.8570 N   0  0  0  0  0  0  0  0  0  0  0  0
  147.1423  139.9987  152.9946 H   0  0  0  0  0  0  0  0  0  0  0  0
  147.7383  141.6553  152.9270 H   0  0  0  0  0  0  0  0  0  0  0  0
  146.8545  141.0922  154.3474 H   0  0  0  0  0  0  0  0  0  0  0  0
  148.7957  138.2543  153.6271 H   0  0  0  0  0  0  0  0  0  0  0  0
  150.9242  137.6961  154.6605 H   0  0  0  0  0  0  0  0  0  0  0  0
  152.4408  141.8563  156.3669 H   0  0  0  0  0  0  0  0  0  0  0  0
  151.4164  142.9118  155.4754 H   0  0  0  0  0  0  0  0  0  0  0  0
  149.3552  143.7603  156.8071 H   0  0  0  0  0  0  0  0  0  0  0  0
  149.7999  141.5943  159.2431 H   0  0  0  0  0  0  0  0  0  0  0  0
  150.1337  140.4635  157.9607 H   0  0  0  0  0  0  0  0  0  0  0  0
  151.6633  140.1836  159.9061 H   0  0  0  0  0  0  0  0  0  0  0  0
  152.5607  140.5627  158.4635 H   0  0  0  0  0  0  0  0  0  0  0  0
  151.7764  142.5203  160.6647 H   0  0  0  0  0  0  0  0  0  0  0  0
  154.5366  141.4891  159.8585 H   0  0  0  0  0  0  0  0  0  0  0  0
  153.6466  141.0312  161.3087 H   0  0  0  0  0  0  0  0  0  0  0  0
  154.2087  142.6860  161.1098 H   0  0  0  0  0  0  0  0  0  0  0  0
  153.0485  144.2296  159.4174 H   0  0  0  0  0  0  0  0  0  0  0  0
  153.3973  143.0866  158.1475 H   0  0  0  0  0  0  0  0  0  0  0  0
  151.4691  144.5691  157.5380 H   0  0  0  0  0  0  0  0  0  0  0  0
  150.6413  144.0901  158.9845 H   0  0  0  0  0  0  0  0  0  0  0  0
  1  2  1  0  0  0  0
  1 18  1  0  0  0  0
  1 19  1  0  0  0  0
  1 20  1  0  0  0  0
  2 17  2  0  0  0  0
  2  3  1  0  0  0  0
  3  4  2  0  0  0  0
  3 21  1  0  0  0  0
  4  5  1  0  0  0  0
  4 22  1  0  0  0  0
  5  6  2  0  0  0  0
  5  7  1  0  0  0  0
  7  8  1  0  0  0  0
  7 17  1  0  0  0  0
  8  9  1  0  0  0  0
  8 23  1  0  0  0  0
  8 24  1  0  0  0  0
  9 16  1  0  0  0  0
  9 10  1  0  0  0  0
  9 11  1  0  0  0  0
 10 25  1  0  0  0  0
 11 12  1  0  0  0  0
 11 26  1  0  0  0  0
 11 27  1  0  0  0  0
 12 13  1  0  0  0  0
 12 28  1  0  0  0  0
 12 29  1  0  0  0  0
 13 14  1  0  0  0  0
 13 15  1  0  0  0  0
 13 30  1  0  0  0  0
 14 31  1  0  0  0  0
 14 32  1  0  0  0  0
 14 33  1  0  0  0  0
 15 16  1  0  0  0  0
 15 34  1  0  0  0  0
 15 35  1  0  0  0  0
 16 36  1  0  0  0  0
 16 37  1  0  0  0  0
M  END
> <s_m_source_file>
AV-unprocessed.smi

> <i_m_source_file_index>
669

> <i_lp_mmshare_version>
43012

> <i_f3d_flags>
0

> <s_epik_input>
W0NIM11jMVtjSF1bY0hdYyg9TyluKG4xKVtDSDJdW0NAQF0yKFtPSF0pW0NIMl1bQ0gyXVtDQEBIXShbQ0gzXSlbQ0gyXVtDSDJdMg==

> <s_epik_cmdline>
J2VwaWtfcHl0aG9uJywgJy1waCcsICc3LjAnLCAnLXRuJywgJzgnLCAnLW1hJywgJzIwMCcsICctbWV0YWxfYmluZGluZycsICctaW1hZScsICc8aW5maWxlLm1hZT4nLCAnLW9tYWUnLCAnPG91dGZpbGUubWFlPic=

> <r_lp_tautomer_probability>
1

> <r_epik_Ionization_Penalty>
1.6993e-05

> <r_epik_Ionization_Penalty_Charging>
1.61671e-05

> <r_epik_Ionization_Penalty_Neutral>
8.25878e-07

> <r_epik_State_Penalty>
-0

> <r_epik_Charging_Adjusted_Penalty>
1.61671e-05

> <i_epik_Tot_Q>
0

> <i_epik_Tot_abs_Q>
0

> <r_epik_Metal_State_Penalty>
-0

> <b_epik_Metal_Only>
0

> <s_lp_Force_Field>
OPLS_2005

> <r_lp_Energy>
31.4403

> <b_lp_Chiralities_Consistent>
1

> <s_lp_Variant>
AV-unprocessed.smi:669-1

> <Gold.Version>
5.8.1

> <Gold.Id.Protein>
6NUR|6NUR_protein|mol2

> <Gold.PLP.Fitness>
43.3534

> <Gold.PLP.PLP>
-37.5679

> <Gold.PLP.part.hbond>
-2.0000

> <Gold.PLP.part.metal>
0.0000

> <Gold.PLP.part.buried>
-3.8932

> <Gold.PLP.part.nonpolar>
-31.5270

> <Gold.PLP.part.repulsive>
0.1177

> <Gold.PLP.ligand.clash>
0.0000

> <Gold.PLP.ligand.torsion>
0.1157

> <Gold.PLP.Chemscore.Hbond>
2.0000

> <Gold.PLP.Chemscore.CHOScore>
0.0000

> <Gold.PLP.Chemscore.Metal>
0.0000

> <Gold.Chemscore.Hbonds>
donor molecule, donor type, donor heavy atom, donor atom, acceptor molecule, acceptor atom, score
      L1  H    10    25       P1  8028  0.94
      P1  H  7997  8009       L1     6  0.99

> <Gold.PLP.Chemscore.Internal.Correction>
0.0167

> <Gold.Rescore>
     Score         DG    S(hbond)    S(metal)    S(lipo)     H(rot)  DE(clash)    DE(int)     intcor
     17.04     -18.58       1.85        0.00      94.44       1.62       0.03       1.50       ----

> <Gold.Chemscore.Fitness>
17.0403

> <Gold.Chemscore.DG>
-18.5755

> <Gold.Chemscore.ZeroCoef>
-5.4800

> <Gold.Chemscore.Hbond>
1.8519

> <Gold.Chemscore.Metal>
0.0000

> <Gold.Chemscore.Lipo>
94.4390

> <Gold.Chemscore.Internal_Hbond>
0.0000

> <Gold.Chemscore.DEClash>
0.0327

> <Gold.Chemscore.DEInternal>
1.5025

> <Gold.Chemscore.Rot>
1.6168

> <Gold.Chemscore.Internal.Correction>
   9.000000E+99

> <Gold.Chemscore.Hbonds>
donor molecule, donor type, donor heavy atom, donor atom, acceptor molecule, acceptor atom, score
      L1  H    10    25       P1  8028  0.78
      P1  H  7997  8009       L1     6  0.92

> <Gold.Chemscore.Hbond.Weighted>
-6.1853

> <Gold.Chemscore.Metal.Weighted>
-0.0000

> <Gold.Chemscore.Lipo.Weighted>
-11.0494

> <Gold.Chemscore.Internal_Hbond.Weighted>
0.0000

> <Gold.Chemscore.DEClash.Weighted>
0.0327

> <Gold.Chemscore.DEInternal.Weighted>
1.5025

> <Gold.Chemscore.Rot.Weighted>
4.1391

> <Gold.Chemscore.Internal.Correction.Weighted>
   9.000000E+99

> <Gold.Protein.RotatedTorsions>
[ 6907 6896 6895 6894 ] final  129.72 input  -60.11 | X-H torsion
[ 7974 7965 7964 7962 ] final    3.45 input  175.53 | X-H torsion
[ 8008 7997 7996 7995 ] final -157.20 input   59.86 | X-H torsion
[ 10167 10162 10161 10158 ] final -147.61 input  -65.29 | X-H torsion
[ 10718 10713 10712 10709 ] final   -8.39 input   66.30 | X-H torsion
[ 10763 10752 10751 10750 ] final  155.47 input  -60.55 | X-H torsion
[ 11005 11000 10999 10996 ] final   65.00 input  -57.11 | X-H torsion

> <Gold.Protein.ActiveResidues>
 VAL166  LYS551  ARG553  GLY616  TRP617  ASP618  TYR619  PRO620  LYS621  CYS622 
 ASP623  PHE694  ASN695  SER759  ASP760  ASP761  ALA762  ILE779  LEU786  VAL792 
 PHE793  MET794  SER795  GLU796  ALA797  LYS798  CYS799  TRP800  GLU811  SER814 

> <Gold.Protein.RotatedAtoms>
  152.3596  133.6280  159.6005 H   0  0  0  0  0  0  0  0  0  0  0  0  # atno 6907 bound_to 6896
  150.7592  133.9444  159.3475 H   0  0  0  0  0  0  0  0  0  0  0  0  # atno 6908 bound_to 6896
  151.7284  135.0881  160.0347 H   0  0  0  0  0  0  0  0  0  0  0  0  # atno 6909 bound_to 6896
  146.2445  140.0683  142.8364 H   0  0  0  0  0  0  0  0  0  0  0  0  # atno 7974 bound_to 7965
  155.7288  140.0799  157.2298 H   0  0  0  0  0  0  0  0  0  0  0  0  # atno 8008 bound_to 7997
  154.4035  140.1599  156.2540 H   0  0  0  0  0  0  0  0  0  0  0  0  # atno 8009 bound_to 7997
  155.9128  140.3403  155.6115 H   0  0  0  0  0  0  0  0  0  0  0  0  # atno 8010 bound_to 7997
  139.7606  143.8382  152.2606 H   0  0  0  0  0  0  0  0  0  0  0  0  # atno 10167 bound_to 10162
  156.7033  130.5100  149.5911 H   0  0  0  0  0  0  0  0  0  0  0  0  # atno 10718 bound_to 10713
  154.1689  135.2805  155.3087 H   0  0  0  0  0  0  0  0  0  0  0  0  # atno 10763 bound_to 10752
  154.6090  135.5505  153.7457 H   0  0  0  0  0  0  0  0  0  0  0  0  # atno 10764 bound_to 10752
  153.0170  135.6411  154.1829 H   0  0  0  0  0  0  0  0  0  0  0  0  # atno 10765 bound_to 10752
  139.9923  134.6572  156.0070 H   0  0  0  0  0  0  0  0  0  0  0  0  # atno 11005 bound_to 11000
  145.0839  140.9239  143.4809 LP  0  0  0  0  0  0  0  0  0  0  0  0  # atno 17320 bound_to 7965
  145.0842  139.2937  143.5768 LP  0  0  0  0  0  0  0  0  0  0  0  0  # atno 17321 bound_to 7965
  139.8387  144.7220  150.9358 LP  0  0  0  0  0  0  0  0  0  0  0  0  # atno 17342 bound_to 10162
  140.7807  143.4003  151.1161 LP  0  0  0  0  0  0  0  0  0  0  0  0  # atno 17343 bound_to 10162
  156.1713  130.6439  151.0841 LP  0  0  0  0  0  0  0  0  0  0  0  0  # atno 17370 bound_to 10713
  157.6965  131.0792  150.6954 LP  0  0  0  0  0  0  0  0  0  0  0  0  # atno 17371 bound_to 10713
  141.1576  133.6541  156.4211 LP  0  0  0  0  0  0  0  0  0  0  0  0  # atno 17394 bound_to 11000
  140.4885  134.6597  157.5201 LP  0  0  0  0  0  0  0  0  0  0  0  0  # atno 17395 bound_to 11000

$$$$
