AV-unprocessed.smi:314|AV-procd|sdf|2313|dock3
  -GOLD-   2262022213D 1   1.00000     0.00000
 Structure written by MMmdl.
 48 49  0  0  0  0  0  0  0  0  1 V2000
  149.2922  130.1821  154.5537 C   0  0  0  0  0  0  0  0  0  0  0  0
  150.1171  130.9242  155.4452 O   0  0  0  0  0  0  0  0  0  0  0  0
  150.1078  132.3009  155.3534 C   0  0  0  0  0  0  0  0  0  0  0  0
  150.9874  133.0375  156.1710 C   0  0  0  0  0  0  0  0  0  0  0  0
  150.9844  134.4428  156.0845 C   0  0  0  0  0  0  0  0  0  0  0  0
  150.1002  135.0714  155.1742 C   0  0  0  0  0  0  0  0  0  0  0  0
  149.9853  136.4772  154.9871 N   0  0  0  0  0  0  0  0  0  0  0  0
  150.9467  137.4163  154.9522 C   0  0  0  0  0  0  0  0  0  0  0  0
  152.1536  137.2139  155.0794 O   0  0  0  0  0  0  0  0  0  0  0  0
  150.4230  138.6331  154.7475 N   0  0  0  0  0  0  0  0  0  0  0  0
  151.1868  139.8733  154.6696 C   0  0  0  0  0  0  0  0  0  0  0  0
  150.8658  140.8176  155.8470 C   0  0  0  0  0  0  0  0  0  0  0  0
  151.3978  140.3210  157.2028 C   0  0  0  0  0  0  0  0  0  0  0  0
  151.8093  139.1632  157.2947 O   0  0  0  0  0  0  0  0  0  0  0  0
  151.3970  141.1699  158.2587 N   0  0  0  0  0  0  0  0  0  0  0  0
  150.9994  142.5804  158.2350 C   0  0  0  0  0  0  0  0  0  0  0  0
  152.2494  143.4389  158.5141 C   0  0  1  0  0  0  0  0  0  0  0  0
  151.9275  144.9362  158.5651 C   0  0  0  0  0  0  0  0  0  0  0  0
  152.8025  143.0606  159.7743 O   0  0  0  0  0  0  0  0  0  0  0  0
  153.1702  141.6838  159.8522 C   0  0  1  0  0  0  0  0  0  0  0  0
  153.7616  141.4258  161.2423 C   0  0  0  0  0  0  0  0  0  0  0  0
  151.9288  140.8122  159.5761 C   0  0  0  0  0  0  0  0  0  0  0  0
  149.2563  134.2422  154.4063 C   0  0  0  0  0  0  0  0  0  0  0  0
  149.2536  132.8950  154.4845 N   0  0  0  0  0  0  0  0  0  0  0  0
  149.4153  129.1173  154.7504 H   0  0  0  0  0  0  0  0  0  0  0  0
  149.5681  130.3601  153.5133 H   0  0  0  0  0  0  0  0  0  0  0  0
  148.2372  130.4239  154.6906 H   0  0  0  0  0  0  0  0  0  0  0  0
  151.6527  132.5329  156.8560 H   0  0  0  0  0  0  0  0  0  0  0  0
  151.6536  134.9964  156.7227 H   0  0  0  0  0  0  0  0  0  0  0  0
  149.0445  136.8101  154.8344 H   0  0  0  0  0  0  0  0  0  0  0  0
  149.4210  138.7102  154.6514 H   0  0  0  0  0  0  0  0  0  0  0  0
  152.2445  139.6069  154.6764 H   0  0  0  0  0  0  0  0  0  0  0  0
  150.9942  140.3658  153.7148 H   0  0  0  0  0  0  0  0  0  0  0  0
  151.2914  141.8016  155.6462 H   0  0  0  0  0  0  0  0  0  0  0  0
  149.7847  140.9405  155.9231 H   0  0  0  0  0  0  0  0  0  0  0  0
  150.5384  142.8908  157.2988 H   0  0  0  0  0  0  0  0  0  0  0  0
  150.2454  142.7515  159.0050 H   0  0  0  0  0  0  0  0  0  0  0  0
  152.9936  143.2687  157.7338 H   0  0  0  0  0  0  0  0  0  0  0  0
  151.5138  145.2820  157.6175 H   0  0  0  0  0  0  0  0  0  0  0  0
  152.8253  145.5203  158.7684 H   0  0  0  0  0  0  0  0  0  0  0  0
  151.2021  145.1581  159.3483 H   0  0  0  0  0  0  0  0  0  0  0  0
  153.9370  141.4787  159.1028 H   0  0  0  0  0  0  0  0  0  0  0  0
  154.0725  140.3864  161.3500 H   0  0  0  0  0  0  0  0  0  0  0  0
  153.0348  141.6414  162.0258 H   0  0  0  0  0  0  0  0  0  0  0  0
  154.6353  142.0541  161.4166 H   0  0  0  0  0  0  0  0  0  0  0  0
  151.1634  140.9882  160.3335 H   0  0  0  0  0  0  0  0  0  0  0  0
  152.1916  139.7564  159.6540 H   0  0  0  0  0  0  0  0  0  0  0  0
  148.5592  134.6725  153.7021 H   0  0  0  0  0  0  0  0  0  0  0  0
  1  2  1  0  0  0  0
  1 25  1  0  0  0  0
  1 26  1  0  0  0  0
  1 27  1  0  0  0  0
  2  3  1  0  0  0  0
  3 24  1  0  0  0  0
  3  4  2  0  0  0  0
  4  5  1  0  0  0  0
  4 28  1  0  0  0  0
  5  6  2  0  0  0  0
  5 29  1  0  0  0  0
  6  7  1  0  0  0  0
  6 23  1  0  0  0  0
  7  8  1  0  0  0  0
  7 30  1  0  0  0  0
  8  9  2  0  0  0  0
  8 10  1  0  0  0  0
 10 11  1  0  0  0  0
 10 31  1  0  0  0  0
 11 12  1  0  0  0  0
 11 32  1  0  0  0  0
 11 33  1  0  0  0  0
 12 13  1  0  0  0  0
 12 34  1  0  0  0  0
 12 35  1  0  0  0  0
 13 14  2  0  0  0  0
 13 15  1  0  0  0  0
 15 22  1  0  0  0  0
 15 16  1  0  0  0  0
 16 17  1  0  0  0  0
 16 36  1  0  0  0  0
 16 37  1  0  0  0  0
 17 18  1  0  0  0  0
 17 19  1  0  0  0  0
 17 38  1  0  0  0  0
 18 39  1  0  0  0  0
 18 40  1  0  0  0  0
 18 41  1  0  0  0  0
 19 20  1  0  0  0  0
 20 21  1  0  0  0  0
 20 22  1  0  0  0  0
 20 42  1  0  0  0  0
 21 43  1  0  0  0  0
 21 44  1  0  0  0  0
 21 45  1  0  0  0  0
 22 46  1  0  0  0  0
 22 47  1  0  0  0  0
 23 24  2  0  0  0  0
 23 48  1  0  0  0  0
M  END
> <s_m_source_file>
AV-unprocessed.smi

> <i_m_source_file_index>
314

> <i_lp_mmshare_version>
43012

> <i_f3d_flags>
0

> <s_epik_input>
W0NIM11PYzFbY0hdW2NIXWMoW2NIXW4xKVtOSF1DKD1PKVtOSF1bQ0gyXVtDSDJdQyg9TylOMltDSDJdW0NAQEhdKFtDSDNdKU9bQ0BASF0oW0NIM10pW0NIMl0y

> <s_epik_cmdline>
J2VwaWtfcHl0aG9uJywgJy1waCcsICc3LjAnLCAnLXRuJywgJzgnLCAnLW1hJywgJzIwMCcsICctbWV0YWxfYmluZGluZycsICctaW1hZScsICc8aW5maWxlLm1hZT4nLCAnLW9tYWUnLCAnPG91dGZpbGUubWFlPic=

> <r_lp_tautomer_probability>
1

> <r_epik_Ionization_Penalty>
8.55977e-05

> <r_epik_Ionization_Penalty_Charging>
0

> <r_epik_Ionization_Penalty_Neutral>
8.55977e-05

> <r_epik_State_Penalty>
-0

> <r_epik_Charging_Adjusted_Penalty>
0

> <i_epik_Tot_Q>
0

> <i_epik_Tot_abs_Q>
0

> <r_epik_Metal_State_Penalty>
-0

> <b_epik_Metal_Only>
0

> <s_lp_Force_Field>
OPLS_2005

> <r_lp_Energy>
24.2957

> <b_lp_Chiralities_Consistent>
1

> <s_lp_Variant>
AV-unprocessed.smi:314-1

> <Gold.Version>
5.8.1

> <Gold.Id.Protein>
6NUR|6NUR_protein|mol2

> <Gold.PLP.Fitness>
48.6327

> <Gold.PLP.PLP>
-44.1524

> <Gold.PLP.part.hbond>
-1.2117

> <Gold.PLP.part.metal>
0.0000

> <Gold.PLP.part.buried>
-3.6871

> <Gold.PLP.part.nonpolar>
-39.8231

> <Gold.PLP.part.repulsive>
0.2613

> <Gold.PLP.ligand.clash>
0.0000

> <Gold.PLP.ligand.torsion>
0.5052

> <Gold.PLP.Chemscore.Hbond>
0.8320

> <Gold.PLP.Chemscore.CHOScore>
0.9913

> <Gold.PLP.Chemscore.Metal>
0.0000

> <Gold.Chemscore.Hbonds>
donor molecule, donor type, donor heavy atom, donor atom, acceptor molecule, acceptor atom, score
      P1  H 10752 10765       L1     9  0.83
      L1  C    23    48       P1  7948  0.98

> <Gold.PLP.Chemscore.Internal.Correction>
0.0210

> <Gold.Rescore>
     Score         DG    S(hbond)    S(metal)    S(lipo)     H(rot)  DE(clash)    DE(int)     intcor
     13.77     -15.44       0.99        0.00      96.38       1.81       0.05       1.62       ----

> <Gold.Chemscore.Fitness>
13.7668

> <Gold.Chemscore.DG>
-15.4430

> <Gold.Chemscore.ZeroCoef>
-5.4800

> <Gold.Chemscore.Hbond>
0.9915

> <Gold.Chemscore.Metal>
0.0000

> <Gold.Chemscore.Lipo>
96.3819

> <Gold.Chemscore.Internal_Hbond>
0.0000

> <Gold.Chemscore.DEClash>
0.0515

> <Gold.Chemscore.DEInternal>
1.6247

> <Gold.Chemscore.Rot>
1.8067

> <Gold.Chemscore.Internal.Correction>
   9.000000E+99

> <Gold.Chemscore.Hbonds>
donor molecule, donor type, donor heavy atom, donor atom, acceptor molecule, acceptor atom, score
      P1  H 10752 10765       L1     9  0.82

> <Gold.Chemscore.Hbond.Weighted>
-3.3115

> <Gold.Chemscore.Metal.Weighted>
-0.0000

> <Gold.Chemscore.Lipo.Weighted>
-11.2767

> <Gold.Chemscore.Internal_Hbond.Weighted>
0.0000

> <Gold.Chemscore.DEClash.Weighted>
0.0515

> <Gold.Chemscore.DEInternal.Weighted>
1.6247

> <Gold.Chemscore.Rot.Weighted>
4.6252

> <Gold.Chemscore.Internal.Correction.Weighted>
   9.000000E+99

> <Gold.Protein.RotatedTorsions>
[ 6907 6896 6895 6894 ] final -108.20 input  -60.11 | X-H torsion
[ 7974 7965 7964 7962 ] final -170.19 input  175.53 | X-H torsion
[ 8008 7997 7996 7995 ] final  -82.78 input   59.86 | X-H torsion
[ 10167 10162 10161 10158 ] final  -98.43 input  -65.29 | X-H torsion
[ 10718 10713 10712 10709 ] final  -89.79 input   66.30 | X-H torsion
[ 10763 10752 10751 10750 ] final  174.58 input  -60.55 | X-H torsion
[ 11005 11000 10999 10996 ] final  -54.44 input  -57.11 | X-H torsion

> <Gold.Protein.ActiveResidues>
 VAL166  LYS551  ARG553  GLY616  TRP617  ASP618  TYR619  PRO620  LYS621  CYS622 
 ASP623  PHE694  ASN695  SER759  ASP760  ASP761  ALA762  ILE779  LEU786  VAL792 
 PHE793  MET794  SER795  GLU796  ALA797  LYS798  CYS799  TRP800  GLU811  SER814 

> <Gold.Protein.RotatedAtoms>
  150.7488  133.9713  159.3546 H   0  0  0  0  0  0  0  0  0  0  0  0  # atno 6907 bound_to 6896
  151.7647  135.0799  160.0360 H   0  0  0  0  0  0  0  0  0  0  0  0  # atno 6908 bound_to 6896
  152.3379  133.5996  159.5892 H   0  0  0  0  0  0  0  0  0  0  0  0  # atno 6909 bound_to 6896
  144.7174  140.2109  143.6327 H   0  0  0  0  0  0  0  0  0  0  0  0  # atno 7974 bound_to 7965
  154.6122  140.0628  156.9508 H   0  0  0  0  0  0  0  0  0  0  0  0  # atno 8008 bound_to 7997
  155.1954  140.3310  155.4333 H   0  0  0  0  0  0  0  0  0  0  0  0  # atno 8009 bound_to 7997
  156.2383  140.1874  156.7041 H   0  0  0  0  0  0  0  0  0  0  0  0  # atno 8010 bound_to 7997
  140.2730  143.3331  152.0516 H   0  0  0  0  0  0  0  0  0  0  0  0  # atno 10167 bound_to 10162
  155.9985  130.4885  150.5225 H   0  0  0  0  0  0  0  0  0  0  0  0  # atno 10718 bound_to 10713
  154.4558  135.2766  155.1748 H   0  0  0  0  0  0  0  0  0  0  0  0  # atno 10763 bound_to 10752
  154.3557  135.6140  153.5668 H   0  0  0  0  0  0  0  0  0  0  0  0  # atno 10764 bound_to 10752
  152.9850  135.5822  154.4911 H   0  0  0  0  0  0  0  0  0  0  0  0  # atno 10765 bound_to 10752
  141.1026  133.6616  156.4320 H   0  0  0  0  0  0  0  0  0  0  0  0  # atno 11005 bound_to 11000
  145.8591  139.2214  143.1727 LP  0  0  0  0  0  0  0  0  0  0  0  0  # atno 17320 bound_to 7965
  146.0190  140.8366  142.9933 LP  0  0  0  0  0  0  0  0  0  0  0  0  # atno 17321 bound_to 7965
  139.4983  144.6643  151.6392 LP  0  0  0  0  0  0  0  0  0  0  0  0  # atno 17342 bound_to 10162
  140.5874  143.9840  150.6304 LP  0  0  0  0  0  0  0  0  0  0  0  0  # atno 17343 bound_to 10162
  157.3185  131.0677  151.1949 LP  0  0  0  0  0  0  0  0  0  0  0  0  # atno 17370 bound_to 10713
  157.2871  130.6778  149.6095 LP  0  0  0  0  0  0  0  0  0  0  0  0  # atno 17371 bound_to 10713
  140.4985  134.6508  157.5239 LP  0  0  0  0  0  0  0  0  0  0  0  0  # atno 17394 bound_to 11000
  139.9883  134.7027  155.9735 LP  0  0  0  0  0  0  0  0  0  0  0  0  # atno 17395 bound_to 11000

$$$$
