AV-unprocessed.smi:2814|AV-procd|sdf|10840|dock9
  -GOLD-   2272015283D 1   1.00000     0.00000
 Structure written by MMmdl.
 38 39  0  0  0  0  0  0  0  0  2 V2000
  146.3271  143.0991  153.4580 C   0  0  0  0  0  0  0  0  0  0  0  0
  147.2086  141.9551  153.9130 C   0  0  0  0  0  0  0  0  0  0  0  0
  146.9369  140.6126  153.5720 C   0  0  0  0  0  0  0  0  0  0  0  0
  147.8058  139.5889  154.0284 C   0  0  0  0  0  0  0  0  0  0  0  0
  147.6103  138.2080  153.7557 N   0  0  0  0  0  0  0  0  0  0  0  0
  146.4533  137.5525  153.5611 C   0  0  0  0  0  0  0  0  0  0  0  0
  145.3366  138.0703  153.5596 O   0  0  0  0  0  0  0  0  0  0  0  0
  146.6671  136.2462  153.3500 N   0  0  0  0  0  0  0  0  0  0  0  0
  145.6363  135.2395  153.1035 C   0  0  0  0  0  0  0  0  0  0  0  0
  146.2257  133.8999  152.6072 C   0  0  0  0  0  0  0  0  0  0  0  0
  147.4466  133.6751  153.2902 O   0  0  0  0  0  0  0  0  0  0  0  0
  145.3134  132.6754  152.7700 C   0  0  0  0  0  0  0  0  0  0  0  0
  145.8128  131.6439  151.7506 C   0  0  0  0  0  0  0  0  0  0  0  0
  146.5964  132.4286  150.6875 C   0  0  0  0  0  0  0  0  0  0  0  0
  146.5318  133.9042  151.1035 C   0  0  0  0  0  0  0  0  0  0  0  0
  148.9060  139.9475  154.8378 C   0  0  0  0  0  0  0  0  0  0  0  0
  149.1287  141.3047  155.1455 C   0  0  0  0  0  0  0  0  0  0  0  0
  148.2848  142.2479  154.6758 N   0  3  0  0  0  0  0  0  0  0  0  0
  145.4954  142.7381  152.8521 H   0  0  0  0  0  0  0  0  0  0  0  0
  146.9015  143.8071  152.8598 H   0  0  0  0  0  0  0  0  0  0  0  0
  145.9163  143.6281  154.3185 H   0  0  0  0  0  0  0  0  0  0  0  0
  146.0630  140.3887  152.9791 H   0  0  0  0  0  0  0  0  0  0  0  0
  148.4524  137.6642  153.6359 H   0  0  0  0  0  0  0  0  0  0  0  0
  147.6191  135.9111  153.3725 H   0  0  0  0  0  0  0  0  0  0  0  0
  145.0521  135.0775  154.0110 H   0  0  0  0  0  0  0  0  0  0  0  0
  144.9353  135.6367  152.3683 H   0  0  0  0  0  0  0  0  0  0  0  0
  147.8895  134.5040  153.3901 H   0  0  0  0  0  0  0  0  0  0  0  0
  145.2979  132.2846  153.7882 H   0  0  0  0  0  0  0  0  0  0  0  0
  144.2895  132.9498  152.5132 H   0  0  0  0  0  0  0  0  0  0  0  0
  146.4715  130.9237  152.2372 H   0  0  0  0  0  0  0  0  0  0  0  0
  144.9846  131.0840  151.3154 H   0  0  0  0  0  0  0  0  0  0  0  0
  147.6328  132.0888  150.6687 H   0  0  0  0  0  0  0  0  0  0  0  0
  146.1880  132.2798  149.6874 H   0  0  0  0  0  0  0  0  0  0  0  0
  145.7124  134.3824  150.5647 H   0  0  0  0  0  0  0  0  0  0  0  0
  147.4415  134.4517  150.8522 H   0  0  0  0  0  0  0  0  0  0  0  0
  149.5802  139.1924  155.2156 H   0  0  0  0  0  0  0  0  0  0  0  0
  149.9497  141.6610  155.7503 H   0  0  0  0  0  0  0  0  0  0  0  0
  148.4643  143.2243  154.9117 H   0  0  0  0  0  0  0  0  0  0  0  0
  1  2  1  0  0  0  0
  1 19  1  0  0  0  0
  1 20  1  0  0  0  0
  1 21  1  0  0  0  0
  2 18  1  0  0  0  0
  2  3  2  0  0  0  0
  3  4  1  0  0  0  0
  3 22  1  0  0  0  0
  4  5  1  0  0  0  0
  4 16  2  0  0  0  0
  5  6  1  0  0  0  0
  5 23  1  0  0  0  0
  6  7  2  0  0  0  0
  6  8  1  0  0  0  0
  8  9  1  0  0  0  0
  8 24  1  0  0  0  0
  9 10  1  0  0  0  0
  9 25  1  0  0  0  0
  9 26  1  0  0  0  0
 10 15  1  0  0  0  0
 10 11  1  0  0  0  0
 10 12  1  0  0  0  0
 11 27  1  0  0  0  0
 12 13  1  0  0  0  0
 12 28  1  0  0  0  0
 12 29  1  0  0  0  0
 13 14  1  0  0  0  0
 13 30  1  0  0  0  0
 13 31  1  0  0  0  0
 14 15  1  0  0  0  0
 14 32  1  0  0  0  0
 14 33  1  0  0  0  0
 15 34  1  0  0  0  0
 15 35  1  0  0  0  0
 16 17  1  0  0  0  0
 16 36  1  0  0  0  0
 17 18  2  0  0  0  0
 17 37  1  0  0  0  0
 18 38  1  0  0  0  0
M  CHG  1  18   1
M  END
> <s_m_source_file>
AV-unprocessed.smi

> <i_m_source_file_index>
2814

> <i_lp_mmshare_version>
43012

> <i_f3d_flags>
0

> <s_epik_input>
W0NIM11jMVtjSF1jKFtjSF1bY0hdbjEpW05IXUMoPU8pW05IXVtDSDJdQzIoW09IXSlbQ0gyXVtDSDJdW0NIMl1bQ0gyXTI=

> <s_epik_cmdline>
J2VwaWtfcHl0aG9uJywgJy1waCcsICc3LjAnLCAnLXRuJywgJzgnLCAnLW1hJywgJzIwMCcsICctbWV0YWxfYmluZGluZycsICctaW1hZScsICc8aW5maWxlLm1hZT4nLCAnLW9tYWUnLCAnPG91dGZpbGUubWFlPic=

> <r_epik_Ionization_Penalty>
0.41638

> <r_epik_Ionization_Penalty_Charging>
0.416357

> <r_epik_Ionization_Penalty_Neutral>
2.25049e-05

> <r_epik_State_Penalty>
0.41674

> <r_epik_Charging_Adjusted_Penalty>
0.833097

> <i_epik_Tot_Q>
1

> <i_epik_Tot_abs_Q>
1

> <r_epik_Metal_State_Penalty>
0.654825

> <b_epik_Metal_Only>
0

> <s_lp_Force_Field>
OPLS_2005

> <r_lp_Energy>
34.0796

> <b_lp_Chiralities_Consistent>
1

> <s_lp_Variant>
AV-unprocessed.smi:2814-2

> <Gold.Version>
5.8.1

> <Gold.Id.Protein>
6NUR|6NUR_protein|mol2

> <Gold.PLP.Fitness>
46.6806

> <Gold.PLP.PLP>
-33.2896

> <Gold.PLP.part.hbond>
-4.0000

> <Gold.PLP.part.metal>
0.0000

> <Gold.PLP.part.buried>
-4.1968

> <Gold.PLP.part.nonpolar>
-25.7697

> <Gold.PLP.part.repulsive>
0.3893

> <Gold.PLP.ligand.clash>
0.0000

> <Gold.PLP.ligand.torsion>
0.5792

> <Gold.PLP.Chemscore.Hbond>
4.8484

> <Gold.PLP.Chemscore.CHOScore>
0.0000

> <Gold.PLP.Chemscore.Metal>
0.0000

> <Gold.Chemscore.Hbonds>
donor molecule, donor type, donor heavy atom, donor atom, acceptor molecule, acceptor atom, score
      L1  H     5    23       P1  7948  0.14
      L1  H     8    24       P1  7948  0.46
      L1  H    18    38       P1  8028  2.00

> <Gold.PLP.Chemscore.Internal.Correction>
0.0042

> <Gold.Rescore>
     Score         DG    S(hbond)    S(metal)    S(lipo)     H(rot)  DE(clash)    DE(int)     intcor
     20.59     -22.10       3.72        0.00      73.95       1.74       0.03       1.48       ----

> <Gold.Chemscore.Fitness>
20.5912

> <Gold.Chemscore.DG>
-22.1017

> <Gold.Chemscore.ZeroCoef>
-5.4800

> <Gold.Chemscore.Hbond>
3.7182

> <Gold.Chemscore.Metal>
0.0000

> <Gold.Chemscore.Lipo>
73.9538

> <Gold.Chemscore.Internal_Hbond>
0.0000

> <Gold.Chemscore.DEClash>
0.0280

> <Gold.Chemscore.DEInternal>
1.4825

> <Gold.Chemscore.Rot>
1.7382

> <Gold.Chemscore.Internal.Correction>
   9.000000E+99

> <Gold.Chemscore.Hbonds>
donor molecule, donor type, donor heavy atom, donor atom, acceptor molecule, acceptor atom, score
      L1  H     5    23       P1  7948  0.15
      L1  H     8    24       P1  7948  0.44
      L1  H    11    27       P1  7948  0.01
      L1  H    18    38       P1  8028  1.00

> <Gold.Chemscore.Hbond.Weighted>
-12.4189

> <Gold.Chemscore.Metal.Weighted>
-0.0000

> <Gold.Chemscore.Lipo.Weighted>
-8.6526

> <Gold.Chemscore.Internal_Hbond.Weighted>
0.0000

> <Gold.Chemscore.DEClash.Weighted>
0.0280

> <Gold.Chemscore.DEInternal.Weighted>
1.4825

> <Gold.Chemscore.Rot.Weighted>
4.4497

> <Gold.Chemscore.Internal.Correction.Weighted>
   9.000000E+99

> <Gold.Protein.RotatedTorsions>
[ 6907 6896 6895 6894 ] final   22.11 input  -60.11 | X-H torsion
[ 7974 7965 7964 7962 ] final  155.50 input  175.53 | X-H torsion
[ 8008 7997 7996 7995 ] final   -7.05 input   59.86 | X-H torsion
[ 10167 10162 10161 10158 ] final -125.69 input  -65.29 | X-H torsion
[ 10718 10713 10712 10709 ] final  -74.62 input   66.30 | X-H torsion
[ 10763 10752 10751 10750 ] final  -57.24 input  -60.55 | X-H torsion
[ 11005 11000 10999 10996 ] final   34.49 input  -57.11 | X-H torsion

> <Gold.Protein.ActiveResidues>
 VAL166  LYS551  ARG553  GLY616  TRP617  ASP618  TYR619  PRO620  LYS621  CYS622 
 ASP623  PHE694  ASN695  SER759  ASP760  ASP761  ALA762  ILE779  LEU786  VAL792 
 PHE793  MET794  SER795  GLU796  ALA797  LYS798  CYS799  TRP800  GLU811  SER814 

> <Gold.Protein.RotatedAtoms>
  151.9221  135.0293  160.0522 H   0  0  0  0  0  0  0  0  0  0  0  0  # atno 6907 bound_to 6896
  152.2190  133.4964  159.5160 H   0  0  0  0  0  0  0  0  0  0  0  0  # atno 6908 bound_to 6896
  150.6995  134.1284  159.4103 H   0  0  0  0  0  0  0  0  0  0  0  0  # atno 6909 bound_to 6896
  144.8021  139.7077  143.6177 H   0  0  0  0  0  0  0  0  0  0  0  0  # atno 7974 bound_to 7965
  154.5877  140.2417  155.7964 H   0  0  0  0  0  0  0  0  0  0  0  0  # atno 8008 bound_to 7997
  156.2225  140.2993  155.9941 H   0  0  0  0  0  0  0  0  0  0  0  0  # atno 8009 bound_to 7997
  155.2429  140.0407  157.2967 H   0  0  0  0  0  0  0  0  0  0  0  0  # atno 8010 bound_to 7997
  139.9794  143.5759  152.2384 H   0  0  0  0  0  0  0  0  0  0  0  0  # atno 10167 bound_to 10162
  156.0236  130.4421  150.2920 H   0  0  0  0  0  0  0  0  0  0  0  0  # atno 10718 bound_to 10713
  154.2193  135.6380  153.5139 H   0  0  0  0  0  0  0  0  0  0  0  0  # atno 10763 bound_to 10752
  152.9972  135.5493  154.6131 H   0  0  0  0  0  0  0  0  0  0  0  0  # atno 10764 bound_to 10752
  154.5587  135.2907  155.0913 H   0  0  0  0  0  0  0  0  0  0  0  0  # atno 10765 bound_to 10752
  140.2523  134.3289  155.7886 H   0  0  0  0  0  0  0  0  0  0  0  0  # atno 11005 bound_to 11000
  146.2304  139.5803  142.9559 LP  0  0  0  0  0  0  0  0  0  0  0  0  # atno 17320 bound_to 7965
  145.5528  141.0412  143.2269 LP  0  0  0  0  0  0  0  0  0  0  0  0  # atno 17321 bound_to 7965
  139.6421  144.7655  151.2318 LP  0  0  0  0  0  0  0  0  0  0  0  0  # atno 17342 bound_to 10162
  140.7494  143.6300  150.8432 LP  0  0  0  0  0  0  0  0  0  0  0  0  # atno 17343 bound_to 10162
  157.1024  131.0199  151.3080 LP  0  0  0  0  0  0  0  0  0  0  0  0  # atno 17370 bound_to 10713
  157.4769  130.7742  149.7377 LP  0  0  0  0  0  0  0  0  0  0  0  0  # atno 17371 bound_to 10713
  141.2200  133.7360  156.9056 LP  0  0  0  0  0  0  0  0  0  0  0  0  # atno 17394 bound_to 11000
  140.1546  134.9207  157.2637 LP  0  0  0  0  0  0  0  0  0  0  0  0  # atno 17395 bound_to 11000

$$$$
