AV-unprocessed.smi:3350|AV-procd|sdf|12941|dock7
  -GOLD-   2272019373D 1   1.00000     0.00000
 Structure written by MMmdl.
 41 42  0  0  0  0  0  0  0  0  1 V2000
  147.9134  131.5353  153.2665 C   0  0  0  0  0  0  0  0  0  0  0  0
  147.3570  132.8817  152.7842 C   0  0  2  0  0  0  0  0  0  0  0  0
  147.2227  132.9176  151.2467 C   0  0  0  0  0  0  0  0  0  0  0  0
  145.8402  132.8558  150.8029 N   0  0  0  0  0  0  0  0  0  0  0  0
  145.2582  131.9581  149.9329 C   0  0  0  0  0  0  0  0  0  0  0  0
  143.9356  132.2837  149.8375 C   0  0  0  0  0  0  0  0  0  0  0  0
  143.8034  133.4131  150.6925 C   0  0  0  0  0  0  0  0  0  0  0  0
  144.9449  133.7547  151.2675 N   0  0  0  0  0  0  0  0  0  0  0  0
  148.2315  133.9567  153.2517 N   0  0  0  0  0  0  0  0  0  0  0  0
  148.7199  134.0748  154.4950 C   0  0  0  0  0  0  0  0  0  0  0  0
  148.5547  133.2403  155.3852 O   0  0  0  0  0  0  0  0  0  0  0  0
  149.3794  135.2298  154.6597 N   0  0  0  0  0  0  0  0  0  0  0  0
  149.9485  135.7063  155.9179 C   0  0  1  0  0  0  0  0  0  0  0  0
  150.9361  134.6494  156.4360 C   0  0  0  0  0  0  0  0  0  0  0  0
  150.6211  137.0807  155.7068 C   0  0  2  0  0  0  0  0  0  0  0  0
  149.7632  138.1064  154.9602 C   0  0  0  0  0  0  0  0  0  0  0  0
  150.7758  139.0049  154.2632 C   0  0  0  0  0  0  0  0  0  0  0  0
  152.1115  138.2896  154.4659 C   0  0  0  0  0  0  0  0  0  0  0  0
  151.7542  136.9742  154.8576 O   0  0  0  0  0  0  0  0  0  0  0  0
  147.2688  130.7122  152.9566 H   0  0  0  0  0  0  0  0  0  0  0  0
  147.9833  131.5054  154.3544 H   0  0  0  0  0  0  0  0  0  0  0  0
  148.9091  131.3486  152.8623 H   0  0  0  0  0  0  0  0  0  0  0  0
  146.3633  132.9940  153.2213 H   0  0  0  0  0  0  0  0  0  0  0  0
  147.6889  133.8184  150.8432 H   0  0  0  0  0  0  0  0  0  0  0  0
  147.7508  132.0712  150.8058 H   0  0  0  0  0  0  0  0  0  0  0  0
  145.8260  131.1663  149.4671 H   0  0  0  0  0  0  0  0  0  0  0  0
  143.1773  131.7891  149.2493 H   0  0  0  0  0  0  0  0  0  0  0  0
  142.9172  133.9897  150.9129 H   0  0  0  0  0  0  0  0  0  0  0  0
  148.4260  134.6988  152.5958 H   0  0  0  0  0  0  0  0  0  0  0  0
  149.4533  135.8493  153.8663 H   0  0  0  0  0  0  0  0  0  0  0  0
  149.1538  135.8094  156.6592 H   0  0  0  0  0  0  0  0  0  0  0  0
  151.3463  134.9295  157.4064 H   0  0  0  0  0  0  0  0  0  0  0  0
  151.7715  134.5150  155.7480 H   0  0  0  0  0  0  0  0  0  0  0  0
  150.4467  133.6829  156.5586 H   0  0  0  0  0  0  0  0  0  0  0  0
  150.9422  137.4963  156.6643 H   0  0  0  0  0  0  0  0  0  0  0  0
  149.1438  137.6106  154.2115 H   0  0  0  0  0  0  0  0  0  0  0  0
  149.1021  138.6587  155.6286 H   0  0  0  0  0  0  0  0  0  0  0  0
  150.5353  139.0983  153.2037 H   0  0  0  0  0  0  0  0  0  0  0  0
  150.7993  140.0070  154.6922 H   0  0  0  0  0  0  0  0  0  0  0  0
  152.7288  138.2836  153.5674 H   0  0  0  0  0  0  0  0  0  0  0  0
  152.6815  138.7592  155.2688 H   0  0  0  0  0  0  0  0  0  0  0  0
  1  2  1  0  0  0  0
  1 20  1  0  0  0  0
  1 21  1  0  0  0  0
  1 22  1  0  0  0  0
  2  3  1  0  0  0  0
  2  9  1  0  0  0  0
  2 23  1  0  0  0  0
  3  4  1  0  0  0  0
  3 24  1  0  0  0  0
  3 25  1  0  0  0  0
  4  8  1  0  0  0  0
  4  5  1  0  0  0  0
  5  6  2  0  0  0  0
  5 26  1  0  0  0  0
  6  7  1  0  0  0  0
  6 27  1  0  0  0  0
  7  8  2  0  0  0  0
  7 28  1  0  0  0  0
  9 10  1  0  0  0  0
  9 29  1  0  0  0  0
 10 11  2  0  0  0  0
 10 12  1  0  0  0  0
 12 13  1  0  0  0  0
 12 30  1  0  0  0  0
 13 14  1  0  0  0  0
 13 15  1  0  0  0  0
 13 31  1  0  0  0  0
 14 32  1  0  0  0  0
 14 33  1  0  0  0  0
 14 34  1  0  0  0  0
 15 19  1  0  0  0  0
 15 16  1  0  0  0  0
 15 35  1  0  0  0  0
 16 17  1  0  0  0  0
 16 36  1  0  0  0  0
 16 37  1  0  0  0  0
 17 18  1  0  0  0  0
 17 38  1  0  0  0  0
 17 39  1  0  0  0  0
 18 19  1  0  0  0  0
 18 40  1  0  0  0  0
 18 41  1  0  0  0  0
M  END
> <s_m_source_file>
AV-unprocessed.smi

> <i_m_source_file_index>
3350

> <i_lp_mmshare_version>
43012

> <i_f3d_flags>
0

> <s_epik_input>
bjFbY0hdW2NIXVtjSF1uMVtDSDJdW0NAQEhdKFtDSDNdKVtOSF1DKD1PKVtOSF1bQ0BIXShbQ0gzXSlbQ0BASF0yW0NIMl1bQ0gyXVtDSDJdTzI=

> <s_epik_cmdline>
J2VwaWtfcHl0aG9uJywgJy1waCcsICc3LjAnLCAnLXRuJywgJzgnLCAnLW1hJywgJzIwMCcsICctbWV0YWxfYmluZGluZycsICctaW1hZScsICc8aW5maWxlLm1hZT4nLCAnLW9tYWUnLCAnPG91dGZpbGUubWFlPic=

> <r_lp_tautomer_probability>
1

> <r_epik_Ionization_Penalty>
6.42349e-05

> <r_epik_Ionization_Penalty_Charging>
0

> <r_epik_Ionization_Penalty_Neutral>
6.42349e-05

> <r_epik_State_Penalty>
-0

> <r_epik_Charging_Adjusted_Penalty>
0

> <i_epik_Tot_Q>
0

> <i_epik_Tot_abs_Q>
0

> <r_epik_Metal_State_Penalty>
-0

> <b_epik_Metal_Only>
0

> <s_lp_Force_Field>
OPLS_2005

> <r_lp_Energy>
14.9436

> <b_lp_Chiralities_Consistent>
1

> <s_lp_Variant>
AV-unprocessed.smi:3350-3

> <Gold.Version>
5.8.1

> <Gold.Id.Protein>
6NUR|6NUR_protein|mol2

> <Gold.PLP.Fitness>
43.1067

> <Gold.PLP.PLP>
-33.3660

> <Gold.PLP.part.hbond>
-3.0000

> <Gold.PLP.part.metal>
0.0000

> <Gold.PLP.part.buried>
-0.4106

> <Gold.PLP.part.nonpolar>
-29.6413

> <Gold.PLP.part.repulsive>
0.2865

> <Gold.PLP.ligand.clash>
0.0000

> <Gold.PLP.ligand.torsion>
0.9326

> <Gold.PLP.Chemscore.Hbond>
2.8672

> <Gold.PLP.Chemscore.CHOScore>
0.9826

> <Gold.PLP.Chemscore.Metal>
0.0000

> <Gold.Chemscore.Hbonds>
donor molecule, donor type, donor heavy atom, donor atom, acceptor molecule, acceptor atom, score
      L1  H     9    29       P1  7948  0.95
      L1  H    12    30       P1  7948  0.87
      P1  H 10752 10765       L1    19  1.00
      L1  C     7    28       P1 10186  1.00

> <Gold.PLP.Chemscore.Internal.Correction>
0.0566

> <Gold.Rescore>
     Score         DG    S(hbond)    S(metal)    S(lipo)     H(rot)  DE(clash)    DE(int)     intcor
     11.55     -15.31       1.45        0.00      82.43       1.82       1.36       2.39       ----

> <Gold.Chemscore.Fitness>
11.5548

> <Gold.Chemscore.DG>
-15.3099

> <Gold.Chemscore.ZeroCoef>
-5.4800

> <Gold.Chemscore.Hbond>
1.4503

> <Gold.Chemscore.Metal>
0.0000

> <Gold.Chemscore.Lipo>
82.4285

> <Gold.Chemscore.Internal_Hbond>
0.0000

> <Gold.Chemscore.DEClash>
1.3613

> <Gold.Chemscore.DEInternal>
2.3938

> <Gold.Chemscore.Rot>
1.8197

> <Gold.Chemscore.Internal.Correction>
   9.000000E+99

> <Gold.Chemscore.Hbonds>
donor molecule, donor type, donor heavy atom, donor atom, acceptor molecule, acceptor atom, score
      L1  H     9    29       P1  7948  0.22
      L1  H    12    30       P1  7948  0.44
      P1  H 10752 10765       L1    19  0.95

> <Gold.Chemscore.Hbond.Weighted>
-4.8441

> <Gold.Chemscore.Metal.Weighted>
-0.0000

> <Gold.Chemscore.Lipo.Weighted>
-9.6441

> <Gold.Chemscore.Internal_Hbond.Weighted>
0.0000

> <Gold.Chemscore.DEClash.Weighted>
1.3613

> <Gold.Chemscore.DEInternal.Weighted>
2.3938

> <Gold.Chemscore.Rot.Weighted>
4.6583

> <Gold.Chemscore.Internal.Correction.Weighted>
   9.000000E+99

> <Gold.Protein.RotatedTorsions>
[ 6907 6896 6895 6894 ] final  -33.98 input  -60.11 | X-H torsion
[ 7974 7965 7964 7962 ] final   74.67 input  175.53 | X-H torsion
[ 8008 7997 7996 7995 ] final  120.39 input   59.86 | X-H torsion
[ 10167 10162 10161 10158 ] final   29.96 input  -65.29 | X-H torsion
[ 10718 10713 10712 10709 ] final  -11.34 input   66.30 | X-H torsion
[ 10763 10752 10751 10750 ] final  179.53 input  -60.55 | X-H torsion
[ 11005 11000 10999 10996 ] final   35.63 input  -57.11 | X-H torsion

> <Gold.Protein.ActiveResidues>
 VAL166  LYS551  ARG553  GLY616  TRP617  ASP618  TYR619  PRO620  LYS621  CYS622 
 ASP623  PHE694  ASN695  SER759  ASP760  ASP761  ALA762  ILE779  LEU786  VAL792 
 PHE793  MET794  SER795  GLU796  ALA797  LYS798  CYS799  TRP800  GLU811  SER814 

> <Gold.Protein.RotatedAtoms>
  151.0586  134.9721  159.8248 H   0  0  0  0  0  0  0  0  0  0  0  0  # atno 6907 bound_to 6896
  152.5392  134.2446  159.8885 H   0  0  0  0  0  0  0  0  0  0  0  0  # atno 6908 bound_to 6896
  151.2465  133.4329  159.2643 H   0  0  0  0  0  0  0  0  0  0  0  0  # atno 6909 bound_to 6896
  145.7253  139.2663  143.1572 H   0  0  0  0  0  0  0  0  0  0  0  0  # atno 7974 bound_to 7965
  156.2640  140.2832  156.1142 H   0  0  0  0  0  0  0  0  0  0  0  0  # atno 8008 bound_to 7997
  155.1225  140.0392  157.2771 H   0  0  0  0  0  0  0  0  0  0  0  0  # atno 8009 bound_to 7997
  154.6660  140.2577  155.7064 H   0  0  0  0  0  0  0  0  0  0  0  0  # atno 8010 bound_to 7997
  140.4720  144.0748  150.6240 H   0  0  0  0  0  0  0  0  0  0  0  0  # atno 10167 bound_to 10162
  156.6604  130.4980  149.6032 H   0  0  0  0  0  0  0  0  0  0  0  0  # atno 10718 bound_to 10713
  154.5218  135.2794  155.1256 H   0  0  0  0  0  0  0  0  0  0  0  0  # atno 10763 bound_to 10752
  154.2810  135.6285  153.5351 H   0  0  0  0  0  0  0  0  0  0  0  0  # atno 10764 bound_to 10752
  152.9938  135.5651  154.5709 H   0  0  0  0  0  0  0  0  0  0  0  0  # atno 10765 bound_to 10752
  140.2407  134.3419  155.7927 H   0  0  0  0  0  0  0  0  0  0  0  0  # atno 11005 bound_to 11000
  146.0588  140.7993  142.9745 LP  0  0  0  0  0  0  0  0  0  0  0  0  # atno 17320 bound_to 7965
  144.6906  140.3164  143.7239 LP  0  0  0  0  0  0  0  0  0  0  0  0  # atno 17321 bound_to 7965
  140.3965  143.2725  151.9998 LP  0  0  0  0  0  0  0  0  0  0  0  0  # atno 17342 bound_to 10162
  139.4820  144.6033  151.7566 LP  0  0  0  0  0  0  0  0  0  0  0  0  # atno 17343 bound_to 10162
  156.2015  130.6623  151.1173 LP  0  0  0  0  0  0  0  0  0  0  0  0  # atno 17370 bound_to 10713
  157.7111  131.0733  150.6495 LP  0  0  0  0  0  0  0  0  0  0  0  0  # atno 17371 bound_to 10713
  141.2211  133.7297  156.8880 LP  0  0  0  0  0  0  0  0  0  0  0  0  # atno 17394 bound_to 11000
  140.1656  134.9135  157.2770 LP  0  0  0  0  0  0  0  0  0  0  0  0  # atno 17395 bound_to 11000

$$$$
