AV-unprocessed.smi:2665|AV-procd|sdf|10330|dock1
  -GOLD-   2272014343D 1   1.00000     0.00000
 Structure written by MMmdl.
 29 30  0  0  0  0  0  0  0  0  2 V2000
  150.3419  145.3061  159.8445 C   0  0  0  0  0  0  0  0  0  0  0  0
  151.3582  144.3795  159.1688 C   0  0  2  0  0  0  0  0  0  0  0  0
  150.6770  143.2012  158.4460 C   0  0  0  0  0  0  0  0  0  0  0  0
  151.6838  142.3018  157.8966 N   0  0  0  0  0  0  0  0  0  0  0  0
  151.1455  141.2675  157.1179 C   0  0  0  0  0  0  0  0  0  0  0  0
  152.0229  140.3814  156.4593 C   0  0  0  0  0  0  0  0  0  0  0  0
  151.4845  139.3378  155.6723 C   0  0  0  0  0  0  0  0  0  0  0  0
  152.3805  138.3686  154.9514 C   0  0  0  0  0  0  0  0  0  0  0  0
  151.8829  137.3192  154.4853 O   0  0  0  0  0  0  0  0  0  0  0  0
  153.5969  138.6398  154.8387 O   0  5  0  0  0  0  0  0  0  0  0  0
  150.0781  139.2335  155.5837 C   0  0  0  0  0  0  0  0  0  0  0  0
  149.2855  140.1666  156.2787 C   0  0  0  0  0  0  0  0  0  0  0  0
  149.7982  141.1630  157.0302 N   0  0  0  0  0  0  0  0  0  0  0  0
  152.6281  141.8392  158.9052 C   0  0  0  0  0  0  0  0  0  0  0  0
  153.2611  143.0435  159.6223 C   0  0  0  0  0  0  0  0  0  0  0  0
  152.2354  143.8674  160.1703 O   0  0  0  0  0  0  0  0  0  0  0  0
  149.6537  145.7321  159.1140 H   0  0  0  0  0  0  0  0  0  0  0  0
  150.8432  146.1316  160.3502 H   0  0  0  0  0  0  0  0  0  0  0  0
  149.7514  144.7690  160.5873 H   0  0  0  0  0  0  0  0  0  0  0  0
  151.9380  144.9638  158.4519 H   0  0  0  0  0  0  0  0  0  0  0  0
  150.0370  142.6564  159.1418 H   0  0  0  0  0  0  0  0  0  0  0  0
  150.0394  143.5709  157.6420 H   0  0  0  0  0  0  0  0  0  0  0  0
  153.0916  140.5060  156.5597 H   0  0  0  0  0  0  0  0  0  0  0  0
  149.6076  138.4569  154.9982 H   0  0  0  0  0  0  0  0  0  0  0  0
  148.2082  140.1108  156.2303 H   0  0  0  0  0  0  0  0  0  0  0  0
  152.1149  141.2050  159.6295 H   0  0  0  0  0  0  0  0  0  0  0  0
  153.4032  141.2325  158.4351 H   0  0  0  0  0  0  0  0  0  0  0  0
  153.9115  142.7024  160.4277 H   0  0  0  0  0  0  0  0  0  0  0  0
  153.8802  143.6239  158.9362 H   0  0  0  0  0  0  0  0  0  0  0  0
  1  2  1  0  0  0  0
  1 17  1  0  0  0  0
  1 18  1  0  0  0  0
  1 19  1  0  0  0  0
  2 16  1  0  0  0  0
  2  3  1  0  0  0  0
  2 20  1  0  0  0  0
  3  4  1  0  0  0  0
  3 21  1  0  0  0  0
  3 22  1  0  0  0  0
  4  5  1  0  0  0  0
  4 14  1  0  0  0  0
  5 13  1  0  0  0  0
  5  6  2  0  0  0  0
  6  7  1  0  0  0  0
  6 23  1  0  0  0  0
  7  8  1  0  0  0  0
  7 11  2  0  0  0  0
  8  9  2  0  0  0  0
  8 10  1  0  0  0  0
 11 12  1  0  0  0  0
 11 24  1  0  0  0  0
 12 13  2  0  0  0  0
 12 25  1  0  0  0  0
 14 15  1  0  0  0  0
 14 26  1  0  0  0  0
 14 27  1  0  0  0  0
 15 16  1  0  0  0  0
 15 28  1  0  0  0  0
 15 29  1  0  0  0  0
M  CHG  1  10  -1
M  END
> <s_m_source_file>
AV-unprocessed.smi

> <i_m_source_file_index>
2665

> <i_lp_mmshare_version>
43012

> <i_f3d_flags>
0

> <s_epik_input>
W0NIM11bQ0BASF0xW0NIMl1OKFtDSDJdW0NIMl1PMSljMltjSF1jKEMoPU8pW09IXSlbY0hdW2NIXW4y

> <s_epik_cmdline>
J2VwaWtfcHl0aG9uJywgJy1waCcsICc3LjAnLCAnLXRuJywgJzgnLCAnLW1hJywgJzIwMCcsICctbWV0YWxfYmluZGluZycsICctaW1hZScsICc8aW5maWxlLm1hZT4nLCAnLW9tYWUnLCAnPG91dGZpbGUubWFlPic=

> <r_epik_Ionization_Penalty>
0.00511367

> <r_epik_Ionization_Penalty_Charging>
0.00135522

> <r_epik_Ionization_Penalty_Neutral>
0.00375844

> <r_epik_State_Penalty>
0.00357724

> <r_epik_Charging_Adjusted_Penalty>
0.00493246

> <i_epik_Tot_Q>
-1

> <i_epik_Tot_abs_Q>
1

> <r_epik_Metal_State_Penalty>
-0

> <b_epik_Metal_Only>
0

> <s_lp_Force_Field>
OPLS_2005

> <r_lp_Energy>
17.7567

> <b_lp_Chiralities_Consistent>
1

> <s_lp_Variant>
AV-unprocessed.smi:2665-1

> <Gold.Version>
5.8.1

> <Gold.Id.Protein>
6NUR|6NUR_protein|mol2

> <Gold.PLP.Fitness>
40.8615

> <Gold.PLP.PLP>
-29.3221

> <Gold.PLP.part.hbond>
-2.0000

> <Gold.PLP.part.metal>
0.0000

> <Gold.PLP.part.buried>
-5.4142

> <Gold.PLP.part.nonpolar>
-22.5597

> <Gold.PLP.part.repulsive>
0.2958

> <Gold.PLP.ligand.clash>
0.0000

> <Gold.PLP.ligand.torsion>
0.1383

> <Gold.PLP.Chemscore.Hbond>
3.9040

> <Gold.PLP.Chemscore.CHOScore>
0.0000

> <Gold.PLP.Chemscore.Metal>
0.0000

> <Gold.Chemscore.Hbonds>
donor molecule, donor type, donor heavy atom, donor atom, acceptor molecule, acceptor atom, score
      P1  H  7997  8009       L1    10  1.84
      P1  H 10752 10765       L1     9  1.92

> <Gold.PLP.Chemscore.Internal.Correction>
0.1039

> <Gold.Rescore>
     Score         DG    S(hbond)    S(metal)    S(lipo)     H(rot)  DE(clash)    DE(int)     intcor
     16.99     -17.18       1.80        0.00      70.51       1.00       0.01       0.17       ----

> <Gold.Chemscore.Fitness>
16.9931

> <Gold.Chemscore.DG>
-17.1759

> <Gold.Chemscore.ZeroCoef>
-5.4800

> <Gold.Chemscore.Hbond>
1.7981

> <Gold.Chemscore.Metal>
0.0000

> <Gold.Chemscore.Lipo>
70.5136

> <Gold.Chemscore.Internal_Hbond>
0.0000

> <Gold.Chemscore.DEClash>
0.0149

> <Gold.Chemscore.DEInternal>
0.1679

> <Gold.Chemscore.Rot>
1.0000

> <Gold.Chemscore.Internal.Correction>
   9.000000E+99

> <Gold.Chemscore.Hbonds>
donor molecule, donor type, donor heavy atom, donor atom, acceptor molecule, acceptor atom, score
      P1  H  7997  8009       L1    10  0.83
      P1  H 10752 10765       L1     9  0.89

> <Gold.Chemscore.Hbond.Weighted>
-6.0058

> <Gold.Chemscore.Metal.Weighted>
-0.0000

> <Gold.Chemscore.Lipo.Weighted>
-8.2501

> <Gold.Chemscore.Internal_Hbond.Weighted>
0.0000

> <Gold.Chemscore.DEClash.Weighted>
0.0149

> <Gold.Chemscore.DEInternal.Weighted>
0.1679

> <Gold.Chemscore.Rot.Weighted>
2.5600

> <Gold.Chemscore.Internal.Correction.Weighted>
   9.000000E+99

> <Gold.Protein.RotatedTorsions>
[ 6907 6896 6895 6894 ] final  162.87 input  -60.11 | X-H torsion
[ 7974 7965 7964 7962 ] final   51.64 input  175.53 | X-H torsion
[ 8008 7997 7996 7995 ] final -130.42 input   59.86 | X-H torsion
[ 10167 10162 10161 10158 ] final  139.92 input  -65.29 | X-H torsion
[ 10718 10713 10712 10709 ] final  -82.58 input   66.30 | X-H torsion
[ 10763 10752 10751 10750 ] final  156.77 input  -60.55 | X-H torsion
[ 11005 11000 10999 10996 ] final   16.05 input  -57.11 | X-H torsion

> <Gold.Protein.ActiveResidues>
 VAL166  LYS551  ARG553  GLY616  TRP617  ASP618  TYR619  PRO620  LYS621  CYS622 
 ASP623  PHE694  ASN695  SER759  ASP760  ASP761  ALA762  ILE779  LEU786  VAL792 
 PHE793  MET794  SER795  GLU796  ALA797  LYS798  CYS799  TRP800  GLU811  SER814 

> <Gold.Protein.RotatedAtoms>
  151.9338  133.3618  159.3940 H   0  0  0  0  0  0  0  0  0  0  0  0  # atno 6907 bound_to 6896
  150.7012  134.4510  159.5345 H   0  0  0  0  0  0  0  0  0  0  0  0  # atno 6908 bound_to 6896
  152.2155  134.8462  160.0543 H   0  0  0  0  0  0  0  0  0  0  0  0  # atno 6909 bound_to 6896
  145.9893  139.4322  143.0083 H   0  0  0  0  0  0  0  0  0  0  0  0  # atno 7974 bound_to 7965
  155.2955  140.0450  157.3026 H   0  0  0  0  0  0  0  0  0  0  0  0  # atno 8008 bound_to 7997
  154.5516  140.2319  155.8443 H   0  0  0  0  0  0  0  0  0  0  0  0  # atno 8009 bound_to 7997
  156.1972  140.3035  155.9458 H   0  0  0  0  0  0  0  0  0  0  0  0  # atno 8010 bound_to 7997
  139.5064  144.6266  151.5923 H   0  0  0  0  0  0  0  0  0  0  0  0  # atno 10167 bound_to 10162
  156.0031  130.4638  150.4126 H   0  0  0  0  0  0  0  0  0  0  0  0  # atno 10718 bound_to 10713
  154.1896  135.2795  155.3026 H   0  0  0  0  0  0  0  0  0  0  0  0  # atno 10763 bound_to 10752
  154.5939  135.5551  153.7309 H   0  0  0  0  0  0  0  0  0  0  0  0  # atno 10764 bound_to 10752
  153.0116  135.6375  154.2035 H   0  0  0  0  0  0  0  0  0  0  0  0  # atno 10765 bound_to 10752
  140.4515  134.1220  155.7703 H   0  0  0  0  0  0  0  0  0  0  0  0  # atno 11005 bound_to 11000
  145.7654  140.9918  143.1178 LP  0  0  0  0  0  0  0  0  0  0  0  0  # atno 17320 bound_to 7965
  144.6884  139.9381  143.7474 LP  0  0  0  0  0  0  0  0  0  0  0  0  # atno 17321 bound_to 7965
  140.5984  143.9654  150.6370 LP  0  0  0  0  0  0  0  0  0  0  0  0  # atno 17342 bound_to 10162
  140.2857  143.3358  152.1109 LP  0  0  0  0  0  0  0  0  0  0  0  0  # atno 17343 bound_to 10162
  157.2188  131.0477  151.2558 LP  0  0  0  0  0  0  0  0  0  0  0  0  # atno 17370 bound_to 10713
  157.3820  130.7236  149.6637 LP  0  0  0  0  0  0  0  0  0  0  0  0  # atno 17371 bound_to 10713
  141.1662  133.8698  157.1707 LP  0  0  0  0  0  0  0  0  0  0  0  0  # atno 17394 bound_to 11000
  140.0004  135.0030  157.0177 LP  0  0  0  0  0  0  0  0  0  0  0  0  # atno 17395 bound_to 11000

$$$$
