AV-unprocessed.smi:1247|AV-procd|sdf|5249|dock10
  -GOLD-   22720 4363D 1   1.00000     0.00000
 Structure written by MMmdl.
 47 48  0  0  0  0  0  0  0  0  2 V2000
  151.6598  141.8970  157.2398 C   0  0  0  0  0  0  0  0  0  0  0  0
  151.3088  140.8446  156.2298 C   0  0  0  0  0  0  0  0  0  0  0  0
  150.0662  140.6512  155.5588 C   0  0  0  0  0  0  0  0  0  0  0  0
  150.3180  139.5637  154.7677 C   0  0  0  0  0  0  0  0  0  0  0  0
  149.4807  138.9209  153.9110 N   0  0  0  0  0  0  0  0  0  0  0  0
  148.2934  139.3349  153.4356 C   0  0  0  0  0  0  0  0  0  0  0  0
  147.7568  140.4125  153.6943 O   0  0  0  0  0  0  0  0  0  0  0  0
  147.7538  138.4246  152.6119 N   0  0  0  0  0  0  0  0  0  0  0  0
  146.4834  138.5850  151.9131 C   0  0  0  0  0  0  0  0  0  0  0  0
  146.1892  137.3773  151.0030 C   0  0  0  0  0  0  0  0  0  0  0  0
  146.1800  136.0900  151.7478 N   0  3  1  0  0  0  0  0  0  0  0  0
  145.3137  136.1107  152.9520 C   0  0  0  0  0  0  0  0  0  0  0  0
  143.8248  135.9789  152.5723 C   0  0  2  0  0  0  0  0  0  0  0  0
  142.9165  135.9178  153.8050 C   0  0  0  0  0  0  0  0  0  0  0  0
  143.6451  134.7771  151.8307 O   0  0  0  0  0  0  0  0  0  0  0  0
  144.3808  134.7626  150.6118 C   0  0  2  0  0  0  0  0  0  0  0  0
  144.0532  133.4578  149.8774 C   0  0  0  0  0  0  0  0  0  0  0  0
  145.8880  134.8891  150.9233 C   0  0  0  0  0  0  0  0  0  0  0  0
  151.6152  139.1515  154.9761 N   0  0  0  0  0  0  0  0  0  0  0  0
  152.3384  138.0476  154.3761 C   0  0  0  0  0  0  0  0  0  0  0  0
  152.2257  139.9499  155.8783 N   0  0  0  0  0  0  0  0  0  0  0  0
  150.8262  142.5801  157.4034 H   0  0  0  0  0  0  0  0  0  0  0  0
  152.5136  142.4894  156.9101 H   0  0  0  0  0  0  0  0  0  0  0  0
  151.9144  141.4489  158.2007 H   0  0  0  0  0  0  0  0  0  0  0  0
  149.1553  141.2218  155.6593 H   0  0  0  0  0  0  0  0  0  0  0  0
  149.8131  138.0301  153.5718 H   0  0  0  0  0  0  0  0  0  0  0  0
  148.2582  137.5641  152.4542 H   0  0  0  0  0  0  0  0  0  0  0  0
  145.7102  138.6981  152.6720 H   0  0  0  0  0  0  0  0  0  0  0  0
  146.4883  139.5102  151.3339 H   0  0  0  0  0  0  0  0  0  0  0  0
  145.2069  137.5229  150.5518 H   0  0  0  0  0  0  0  0  0  0  0  0
  146.8993  137.3414  150.1769 H   0  0  0  0  0  0  0  0  0  0  0  0
  145.6012  135.2757  153.5929 H   0  0  0  0  0  0  0  0  0  0  0  0
  145.4894  137.0157  153.5350 H   0  0  0  0  0  0  0  0  0  0  0  0
  143.5154  136.8291  151.9623 H   0  0  0  0  0  0  0  0  0  0  0  0
  143.0069  136.8238  154.4048 H   0  0  0  0  0  0  0  0  0  0  0  0
  143.1676  135.0680  154.4406 H   0  0  0  0  0  0  0  0  0  0  0  0
  141.8710  135.8174  153.5125 H   0  0  0  0  0  0  0  0  0  0  0  0
  144.0538  135.5944  149.9867 H   0  0  0  0  0  0  0  0  0  0  0  0
  144.5868  133.3960  148.9289 H   0  0  0  0  0  0  0  0  0  0  0  0
  142.9866  133.3894  149.6629 H   0  0  0  0  0  0  0  0  0  0  0  0
  144.3287  132.5876  150.4740 H   0  0  0  0  0  0  0  0  0  0  0  0
  146.4732  134.8899  150.0046 H   0  0  0  0  0  0  0  0  0  0  0  0
  146.2136  134.0127  151.4856 H   0  0  0  0  0  0  0  0  0  0  0  0
  152.3634  138.1723  153.2933 H   0  0  0  0  0  0  0  0  0  0  0  0
  151.8389  137.1089  154.6161 H   0  0  0  0  0  0  0  0  0  0  0  0
  153.3621  138.0092  154.7508 H   0  0  0  0  0  0  0  0  0  0  0  0
  147.1236  135.9809  152.0923 H   0  0  0  0  0  0  0  0  0  0  0  0
  1  2  1  0  0  0  0
  1 22  1  0  0  0  0
  1 23  1  0  0  0  0
  1 24  1  0  0  0  0
  2 21  2  0  0  0  0
  2  3  1  0  0  0  0
  3  4  2  0  0  0  0
  3 25  1  0  0  0  0
  4  5  1  0  0  0  0
  4 19  1  0  0  0  0
  5  6  1  0  0  0  0
  5 26  1  0  0  0  0
  6  7  2  0  0  0  0
  6  8  1  0  0  0  0
  8  9  1  0  0  0  0
  8 27  1  0  0  0  0
  9 10  1  0  0  0  0
  9 28  1  0  0  0  0
  9 29  1  0  0  0  0
 10 11  1  0  0  0  0
 10 30  1  0  0  0  0
 10 31  1  0  0  0  0
 11 18  1  0  0  0  0
 11 12  1  0  0  0  0
 11 47  1  0  0  0  0
 12 13  1  0  0  0  0
 12 32  1  0  0  0  0
 12 33  1  0  0  0  0
 13 14  1  0  0  0  0
 13 15  1  0  0  0  0
 13 34  1  0  0  0  0
 14 35  1  0  0  0  0
 14 36  1  0  0  0  0
 14 37  1  0  0  0  0
 15 16  1  0  0  0  0
 16 17  1  0  0  0  0
 16 18  1  0  0  0  0
 16 38  1  0  0  0  0
 17 39  1  0  0  0  0
 17 40  1  0  0  0  0
 17 41  1  0  0  0  0
 18 42  1  0  0  0  0
 18 43  1  0  0  0  0
 19 20  1  0  0  0  0
 19 21  1  0  0  0  0
 20 44  1  0  0  0  0
 20 45  1  0  0  0  0
 20 46  1  0  0  0  0
M  CHG  1  11   1
M  END
> <s_m_source_file>
AV-unprocessed.smi

> <i_m_source_file_index>
1247

> <i_lp_mmshare_version>
43012

> <i_f3d_flags>
0

> <s_epik_input>
W0NIM11jMVtjSF1jKG4objEpW0NIM10pW05IXUMoPU8pW05IXVtDSDJdW0NIMl1OMltDSDJdW0NAQEhdKFtDSDNdKU9bQ0BASF0oW0NIM10pW0NIMl0y

> <s_epik_cmdline>
J2VwaWtfcHl0aG9uJywgJy1waCcsICc3LjAnLCAnLXRuJywgJzgnLCAnLW1hJywgJzIwMCcsICctbWV0YWxfYmluZGluZycsICctaW1hZScsICc8aW5maWxlLm1hZT4nLCAnLW9tYWUnLCAnPG91dGZpbGUubWFlPic=

> <r_lp_tautomer_probability>
1

> <r_epik_Ionization_Penalty>
0.663902

> <r_epik_Ionization_Penalty_Charging>
0.663826

> <r_epik_Ionization_Penalty_Neutral>
7.65444e-05

> <r_epik_State_Penalty>
0.683414

> <r_epik_Charging_Adjusted_Penalty>
1.34724

> <i_epik_Tot_Q>
1

> <i_epik_Tot_abs_Q>
1

> <r_epik_Metal_State_Penalty>
0.683419

> <b_epik_Metal_Only>
0

> <s_lp_Force_Field>
OPLS_2005

> <r_lp_Energy>
18.7227

> <b_lp_Chiralities_Consistent>
1

> <s_lp_Variant>
AV-unprocessed.smi:1247-7

> <Gold.Version>
5.8.1

> <Gold.Id.Protein>
6NUR|6NUR_protein|mol2

> <Gold.PLP.Fitness>
47.5142

> <Gold.PLP.PLP>
-36.6213

> <Gold.PLP.part.hbond>
-4.6259

> <Gold.PLP.part.metal>
0.0000

> <Gold.PLP.part.buried>
1.1377

> <Gold.PLP.part.nonpolar>
-33.4642

> <Gold.PLP.part.repulsive>
0.5139

> <Gold.PLP.ligand.clash>
0.0000

> <Gold.PLP.ligand.torsion>
0.0663

> <Gold.PLP.Chemscore.Hbond>
3.6665

> <Gold.PLP.Chemscore.CHOScore>
0.0000

> <Gold.PLP.Chemscore.Metal>
0.0000

> <Gold.Chemscore.Hbonds>
donor molecule, donor type, donor heavy atom, donor atom, acceptor molecule, acceptor atom, score
      L1  H     8    27       P1  7948  1.00
      L1  H    11    47       P1  7948  1.95
      P1  H  7997  8009       L1    21  0.70

> <Gold.PLP.Chemscore.Internal.Correction>
0.0259

> <Gold.Rescore>
     Score         DG    S(hbond)    S(metal)    S(lipo)     H(rot)  DE(clash)    DE(int)     intcor
     16.13     -20.41       2.83        0.00      80.03       1.52       3.08       1.20       ----

> <Gold.Chemscore.Fitness>
16.1271

> <Gold.Chemscore.DG>
-20.4089

> <Gold.Chemscore.ZeroCoef>
-5.4800

> <Gold.Chemscore.Hbond>
2.8329

> <Gold.Chemscore.Metal>
0.0000

> <Gold.Chemscore.Lipo>
80.0319

> <Gold.Chemscore.Internal_Hbond>
0.0000

> <Gold.Chemscore.DEClash>
3.0846

> <Gold.Chemscore.DEInternal>
1.1972

> <Gold.Chemscore.Rot>
1.5221

> <Gold.Chemscore.Internal.Correction>
   9.000000E+99

> <Gold.Chemscore.Hbonds>
donor molecule, donor type, donor heavy atom, donor atom, acceptor molecule, acceptor atom, score
      L1  H     8    27       P1  7948  0.98
      L1  H    11    47       P1  7948  0.92
      P1  H  7997  8009       L1    21  0.68

> <Gold.Chemscore.Hbond.Weighted>
-9.4619

> <Gold.Chemscore.Metal.Weighted>
-0.0000

> <Gold.Chemscore.Lipo.Weighted>
-9.3637

> <Gold.Chemscore.Internal_Hbond.Weighted>
0.0000

> <Gold.Chemscore.DEClash.Weighted>
3.0846

> <Gold.Chemscore.DEInternal.Weighted>
1.1972

> <Gold.Chemscore.Rot.Weighted>
3.8967

> <Gold.Chemscore.Internal.Correction.Weighted>
   9.000000E+99

> <Gold.Protein.RotatedTorsions>
[ 6907 6896 6895 6894 ] final -169.23 input  -60.11 | X-H torsion
[ 7974 7965 7964 7962 ] final   71.42 input  175.53 | X-H torsion
[ 8008 7997 7996 7995 ] final -157.72 input   59.86 | X-H torsion
[ 10167 10162 10161 10158 ] final  -12.44 input  -65.29 | X-H torsion
[ 10718 10713 10712 10709 ] final  -88.89 input   66.30 | X-H torsion
[ 10763 10752 10751 10750 ] final   27.01 input  -60.55 | X-H torsion
[ 11005 11000 10999 10996 ] final   68.79 input  -57.11 | X-H torsion

> <Gold.Protein.ActiveResidues>
 VAL166  LYS551  ARG553  GLY616  TRP617  ASP618  TYR619  PRO620  LYS621  CYS622 
 ASP623  PHE694  ASN695  SER759  ASP760  ASP761  ALA762  ILE779  LEU786  VAL792 
 PHE793  MET794  SER795  GLU796  ALA797  LYS798  CYS799  TRP800  GLU811  SER814 

> <Gold.Protein.RotatedAtoms>
  151.4883  133.3531  159.2848 H   0  0  0  0  0  0  0  0  0  0  0  0  # atno 6907 bound_to 6896
  150.8852  134.8250  159.7264 H   0  0  0  0  0  0  0  0  0  0  0  0  # atno 6908 bound_to 6896
  152.4788  134.4785  159.9710 H   0  0  0  0  0  0  0  0  0  0  0  0  # atno 6909 bound_to 6896
  145.7661  139.2822  143.1348 H   0  0  0  0  0  0  0  0  0  0  0  0  # atno 7974 bound_to 7965
  155.7368  140.0809  157.2264 H   0  0  0  0  0  0  0  0  0  0  0  0  # atno 8008 bound_to 7997
  154.4026  140.1585  156.2625 H   0  0  0  0  0  0  0  0  0  0  0  0  # atno 8009 bound_to 7997
  155.9058  140.3407  155.6063 H   0  0  0  0  0  0  0  0  0  0  0  0  # atno 8010 bound_to 7997
  140.7161  143.5532  150.9278 H   0  0  0  0  0  0  0  0  0  0  0  0  # atno 10167 bound_to 10162
  155.9984  130.4852  150.5088 H   0  0  0  0  0  0  0  0  0  0  0  0  # atno 10718 bound_to 10713
  153.0584  135.6547  154.0521 H   0  0  0  0  0  0  0  0  0  0  0  0  # atno 10763 bound_to 10752
  154.0194  135.2921  155.3384 H   0  0  0  0  0  0  0  0  0  0  0  0  # atno 10764 bound_to 10752
  154.6911  135.5282  153.8461 H   0  0  0  0  0  0  0  0  0  0  0  0  # atno 10765 bound_to 10752
  139.9691  134.6930  156.0484 H   0  0  0  0  0  0  0  0  0  0  0  0  # atno 11005 bound_to 11000
  146.0216  140.8342  142.9920 LP  0  0  0  0  0  0  0  0  0  0  0  0  # atno 17320 bound_to 7965
  144.6821  140.2637  143.7315 LP  0  0  0  0  0  0  0  0  0  0  0  0  # atno 17321 bound_to 7965
  139.9256  143.6553  152.3087 LP  0  0  0  0  0  0  0  0  0  0  0  0  # atno 17342 bound_to 10162
  139.6986  144.7638  151.1313 LP  0  0  0  0  0  0  0  0  0  0  0  0  # atno 17343 bound_to 10162
  157.3063  131.0655  151.2032 LP  0  0  0  0  0  0  0  0  0  0  0  0  # atno 17370 bound_to 10713
  157.2994  130.6835  149.6156 LP  0  0  0  0  0  0  0  0  0  0  0  0  # atno 17371 bound_to 10713
  141.1371  133.6573  156.3624 LP  0  0  0  0  0  0  0  0  0  0  0  0  # atno 17394 bound_to 11000
  140.5332  134.6192  157.5356 LP  0  0  0  0  0  0  0  0  0  0  0  0  # atno 17395 bound_to 11000

$$$$
