AV-unprocessed.smi:62|AV-procd|sdf|602|dock1
  -GOLD-   2262016493D 1   1.00000     0.00000
 Structure written by MMmdl.
 31 32  0  0  0  0  0  0  0  0  3 V2000
  152.0924  144.7937  159.0915 C   0  0  0  0  0  0  0  0  0  0  0  0
  151.8630  143.5697  158.3543 N   0  0  0  0  0  0  0  0  0  0  0  0
  151.0793  143.3681  157.2427 C   0  0  0  0  0  0  0  0  0  0  0  0
  151.1693  142.0494  156.8896 C   0  0  0  0  0  0  0  0  0  0  0  0
  150.4665  141.4228  155.7050 C   0  0  0  0  0  0  0  0  0  0  0  0
  149.0740  141.9152  155.5827 N   0  3  2  0  0  0  0  0  0  0  0  0
  148.1913  141.5246  156.7006 C   0  0  0  0  0  0  0  0  0  0  0  0
  146.7777  141.6411  156.1406 C   0  0  0  0  0  0  0  0  0  0  0  0
  146.9510  141.1441  154.7081 C   0  0  1  0  0  0  0  0  0  0  0  0
  145.9678  141.6758  153.8453 O   0  0  0  0  0  0  0  0  0  0  0  0
  148.3716  141.5806  154.3193 C   0  0  0  0  0  0  0  0  0  0  0  0
  152.0491  141.5086  157.8922 C   0  0  0  0  0  0  0  0  0  0  0  0
  152.4524  140.0582  157.9453 C   0  0  0  0  0  0  0  0  0  0  0  0
  153.5961  139.7342  158.3309 O   0  0  0  0  0  0  0  0  0  0  0  0
  151.6083  139.2058  157.5920 O   0  5  0  0  0  0  0  0  0  0  0  0
  152.4592  142.4321  158.7519 N   0  0  0  0  0  0  0  0  0  0  0  0
  151.7538  145.6502  158.5076 H   0  0  0  0  0  0  0  0  0  0  0  0
  153.1562  144.9087  159.3022 H   0  0  0  0  0  0  0  0  0  0  0  0
  151.5417  144.7639  160.0321 H   0  0  0  0  0  0  0  0  0  0  0  0
  150.5263  144.1778  156.7899 H   0  0  0  0  0  0  0  0  0  0  0  0
  150.9902  141.5520  154.7607 H   0  0  0  0  0  0  0  0  0  0  0  0
  150.4181  140.3424  155.8459 H   0  0  0  0  0  0  0  0  0  0  0  0
  148.3895  140.4895  156.9846 H   0  0  0  0  0  0  0  0  0  0  0  0
  148.3488  142.1536  157.5773 H   0  0  0  0  0  0  0  0  0  0  0  0
  146.0451  141.0645  156.7062 H   0  0  0  0  0  0  0  0  0  0  0  0
  146.4662  142.6870  156.1488 H   0  0  0  0  0  0  0  0  0  0  0  0
  146.8892  140.0549  154.6948 H   0  0  0  0  0  0  0  0  0  0  0  0
  145.3272  141.0036  153.6673 H   0  0  0  0  0  0  0  0  0  0  0  0
  148.3665  142.4702  153.6881 H   0  0  0  0  0  0  0  0  0  0  0  0
  148.8641  140.7866  153.7615 H   0  0  0  0  0  0  0  0  0  0  0  0
  149.1182  142.9235  155.6088 H   0  0  0  0  0  0  0  0  0  0  0  0
  1  2  1  0  0  0  0
  1 17  1  0  0  0  0
  1 18  1  0  0  0  0
  1 19  1  0  0  0  0
  2 16  1  0  0  0  0
  2  3  1  0  0  0  0
  3  4  2  0  0  0  0
  3 20  1  0  0  0  0
  4  5  1  0  0  0  0
  4 12  1  0  0  0  0
  5  6  1  0  0  0  0
  5 21  1  0  0  0  0
  5 22  1  0  0  0  0
  6 11  1  0  0  0  0
  6  7  1  0  0  0  0
  6 31  1  0  0  0  0
  7  8  1  0  0  0  0
  7 23  1  0  0  0  0
  7 24  1  0  0  0  0
  8  9  1  0  0  0  0
  8 25  1  0  0  0  0
  8 26  1  0  0  0  0
  9 10  1  0  0  0  0
  9 11  1  0  0  0  0
  9 27  1  0  0  0  0
 10 28  1  0  0  0  0
 11 29  1  0  0  0  0
 11 30  1  0  0  0  0
 12 13  1  0  0  0  0
 12 16  2  0  0  0  0
 13 14  2  0  0  0  0
 13 15  1  0  0  0  0
M  CHG  1   6   1
M  CHG  1  15  -1
M  END
> <s_m_source_file>
AV-unprocessed.smi

> <i_m_source_file_index>
62

> <i_lp_mmshare_version>
43012

> <i_f3d_flags>
0

> <s_epik_input>
W0NIM11uMVtjSF1jKGMobjEpQyg9TylbT0hdKVtDSDJdTjJbQ0gyXVtDSDJdW0NAQEhdKFtPSF0pW0NIMl0y

> <s_epik_cmdline>
J2VwaWtfcHl0aG9uJywgJy1waCcsICc3LjAnLCAnLXRuJywgJzgnLCAnLW1hJywgJzIwMCcsICctbWV0YWxfYmluZGluZycsICctaW1hZScsICc8aW5maWxlLm1hZT4nLCAnLW9tYWUnLCAnPG91dGZpbGUubWFlPic=

> <r_epik_Ionization_Penalty>
0.0522993

> <r_epik_Ionization_Penalty_Charging>
0.0522915

> <r_epik_Ionization_Penalty_Neutral>
7.84975e-06

> <r_epik_State_Penalty>
0.0448084

> <r_epik_Charging_Adjusted_Penalty>
0.0970998

> <i_epik_Tot_Q>
0

> <i_epik_Tot_abs_Q>
2

> <r_epik_Metal_State_Penalty>
0.0448097

> <b_epik_Metal_Only>
0

> <s_lp_Force_Field>
OPLS_2005

> <r_lp_Energy>
19.3892

> <b_lp_Chiralities_Consistent>
1

> <s_lp_Variant>
AV-unprocessed.smi:62-2

> <Gold.Version>
5.8.1

> <Gold.Id.Protein>
6NUR|6NUR_protein|mol2

> <Gold.PLP.Fitness>
45.8504

> <Gold.PLP.PLP>
-29.6758

> <Gold.PLP.part.hbond>
-3.0000

> <Gold.PLP.part.metal>
0.0000

> <Gold.PLP.part.buried>
-3.2299

> <Gold.PLP.part.nonpolar>
-24.2359

> <Gold.PLP.part.repulsive>
0.1333

> <Gold.PLP.ligand.clash>
0.0000

> <Gold.PLP.ligand.torsion>
0.7664

> <Gold.PLP.Chemscore.Hbond>
4.8938

> <Gold.PLP.Chemscore.CHOScore>
1.0000

> <Gold.PLP.Chemscore.Metal>
0.0000

> <Gold.Chemscore.Hbonds>
donor molecule, donor type, donor heavy atom, donor atom, acceptor molecule, acceptor atom, score
      L1  H     6    31       P1  8028  2.00
      L1  H    10    28       P1 10175  0.76
      P1  H  7997  8008       L1    14  2.00
      L1  C     3    20       P1  8028  1.00

> <Gold.PLP.Chemscore.Internal.Correction>
0.0261

> <Gold.Rescore>
     Score         DG    S(hbond)    S(metal)    S(lipo)     H(rot)  DE(clash)    DE(int)     intcor
     15.60     -16.73       2.62        0.00      61.01       1.81       0.14       0.99       ----

> <Gold.Chemscore.Fitness>
15.6029

> <Gold.Chemscore.DG>
-16.7320

> <Gold.Chemscore.ZeroCoef>
-5.4800

> <Gold.Chemscore.Hbond>
2.6182

> <Gold.Chemscore.Metal>
0.0000

> <Gold.Chemscore.Lipo>
61.0136

> <Gold.Chemscore.Internal_Hbond>
0.0000

> <Gold.Chemscore.DEClash>
0.1397

> <Gold.Chemscore.DEInternal>
0.9895

> <Gold.Chemscore.Rot>
1.8091

> <Gold.Chemscore.Internal.Correction>
   9.000000E+99

> <Gold.Chemscore.Hbonds>
donor molecule, donor type, donor heavy atom, donor atom, acceptor molecule, acceptor atom, score
      L1  H     6    31       P1  8028  1.00
      L1  H    10    28       P1 10175  0.54
      P1  H  7997  8008       L1    14  0.78

> <Gold.Chemscore.Hbond.Weighted>
-8.7448

> <Gold.Chemscore.Metal.Weighted>
-0.0000

> <Gold.Chemscore.Lipo.Weighted>
-7.1386

> <Gold.Chemscore.Internal_Hbond.Weighted>
0.0000

> <Gold.Chemscore.DEClash.Weighted>
0.1397

> <Gold.Chemscore.DEInternal.Weighted>
0.9895

> <Gold.Chemscore.Rot.Weighted>
4.6314

> <Gold.Chemscore.Internal.Correction.Weighted>
   9.000000E+99

> <Gold.Protein.RotatedTorsions>
[ 6907 6896 6895 6894 ] final   59.50 input  -60.11 | X-H torsion
[ 7974 7965 7964 7962 ] final   28.98 input  175.53 | X-H torsion
[ 8008 7997 7996 7995 ] final  -97.29 input   59.86 | X-H torsion
[ 10167 10162 10161 10158 ] final  141.00 input  -65.29 | X-H torsion
[ 10718 10713 10712 10709 ] final  148.95 input   66.30 | X-H torsion
[ 10763 10752 10751 10750 ] final -166.57 input  -60.55 | X-H torsion
[ 11005 11000 10999 10996 ] final -112.11 input  -57.11 | X-H torsion

> <Gold.Protein.ActiveResidues>
 VAL166  LYS551  ARG553  GLY616  TRP617  ASP618  TYR619  PRO620  LYS621  CYS622 
 ASP623  PHE694  ASN695  SER759  ASP760  ASP761  ALA762  ILE779  LEU786  VAL792 
 PHE793  MET794  SER795  GLU796  ALA797  LYS798  CYS799  TRP800  GLU811  SER814 

> <Gold.Protein.RotatedAtoms>
  152.3920  134.6426  160.0103 H   0  0  0  0  0  0  0  0  0  0  0  0  # atno 6907 bound_to 6896
  151.6657  133.3310  159.3192 H   0  0  0  0  0  0  0  0  0  0  0  0  # atno 6908 bound_to 6896
  150.7834  134.6842  159.6506 H   0  0  0  0  0  0  0  0  0  0  0  0  # atno 6909 bound_to 6896
  146.1698  139.6982  142.8976 H   0  0  0  0  0  0  0  0  0  0  0  0  # atno 7974 bound_to 7965
  154.7857  140.0464  157.1162 H   0  0  0  0  0  0  0  0  0  0  0  0  # atno 8008 bound_to 7997
  154.9651  140.3082  155.4993 H   0  0  0  0  0  0  0  0  0  0  0  0  # atno 8009 bound_to 7997
  156.2943  140.2263  156.4739 H   0  0  0  0  0  0  0  0  0  0  0  0  # atno 8010 bound_to 7997
  139.5033  144.6199  151.6076 H   0  0  0  0  0  0  0  0  0  0  0  0  # atno 10167 bound_to 10162
  157.3022  131.0873  151.1381 H   0  0  0  0  0  0  0  0  0  0  0  0  # atno 10718 bound_to 10713
  154.6820  135.2956  154.9600 H   0  0  0  0  0  0  0  0  0  0  0  0  # atno 10763 bound_to 10752
  154.0591  135.6634  153.4813 H   0  0  0  0  0  0  0  0  0  0  0  0  # atno 10764 bound_to 10752
  153.0554  135.5148  154.7868 H   0  0  0  0  0  0  0  0  0  0  0  0  # atno 10765 bound_to 10752
  141.0695  133.9404  157.2514 H   0  0  0  0  0  0  0  0  0  0  0  0  # atno 11005 bound_to 11000
  145.4372  141.0419  143.2878 LP  0  0  0  0  0  0  0  0  0  0  0  0  # atno 17320 bound_to 7965
  144.8145  139.5901  143.7014 LP  0  0  0  0  0  0  0  0  0  0  0  0  # atno 17321 bound_to 7965
  140.5898  143.9800  150.6318 LP  0  0  0  0  0  0  0  0  0  0  0  0  # atno 17342 bound_to 10162
  140.2976  143.3282  152.1002 LP  0  0  0  0  0  0  0  0  0  0  0  0  # atno 17343 bound_to 10162
  157.2735  130.6716  149.6031 LP  0  0  0  0  0  0  0  0  0  0  0  0  # atno 17370 bound_to 10713
  155.9672  130.4471  150.5569 LP  0  0  0  0  0  0  0  0  0  0  0  0  # atno 17371 bound_to 10713
  139.9509  135.0175  156.8990 LP  0  0  0  0  0  0  0  0  0  0  0  0  # atno 17394 bound_to 11000
  140.5704  134.0449  155.7428 LP  0  0  0  0  0  0  0  0  0  0  0  0  # atno 17395 bound_to 11000

$$$$
