AV-unprocessed.smi:3312|AV-procd|sdf|12727|dock6
  -GOLD-   2272019 73D 1   1.00000     0.00000
 Structure written by MMmdl.
 39 40  0  0  0  0  0  0  0  0  2 V2000
  153.0363  142.5741  162.4573 C   0  0  0  0  0  0  0  0  0  0  0  0
  152.5757  143.1930  161.1691 C   0  0  0  0  0  0  0  0  0  0  0  0
  152.0147  144.4868  160.9733 C   0  0  0  0  0  0  0  0  0  0  0  0
  151.7090  144.7276  159.7092 N   0  0  0  0  0  0  0  0  0  0  0  0
  152.0709  143.6048  159.0533 N   0  0  0  0  0  0  0  0  0  0  0  0
  151.8744  143.5122  157.6172 C   0  0  0  0  0  0  0  0  0  0  0  0
  151.0306  142.2895  157.2222 C   0  0  0  0  0  0  0  0  0  0  0  0
  150.5492  142.3965  155.8280 N   0  3  0  0  0  0  0  0  0  0  0  0
  149.9075  141.1730  155.3003 C   0  0  0  0  0  0  0  0  0  0  0  0
  150.8832  139.9896  155.1743 C   0  0  0  0  0  0  0  0  0  0  0  0
  152.0490  140.1404  155.5446 O   0  0  0  0  0  0  0  0  0  0  0  0
  150.4336  138.8170  154.6681 N   0  0  0  0  0  0  0  0  0  0  0  0
  151.2182  137.5898  154.5010 C   0  0  0  0  0  0  0  0  0  0  0  0
  150.6251  136.5100  155.4234 C   0  0  0  0  0  0  0  0  0  0  0  0
  149.2521  136.3065  155.0979 O   0  0  0  0  0  0  0  0  0  0  0  0
  148.4651  137.4897  155.2158 C   0  0  0  0  0  0  0  0  0  0  0  0
  149.0343  138.5868  154.2978 C   0  0  0  0  0  0  0  0  0  0  0  0
  152.5891  142.6584  159.9119 C   0  0  0  0  0  0  0  0  0  0  0  0
  152.6114  143.0810  163.3241 H   0  0  0  0  0  0  0  0  0  0  0  0
  154.1208  142.6174  162.5593 H   0  0  0  0  0  0  0  0  0  0  0  0
  152.7478  141.5250  162.5273 H   0  0  0  0  0  0  0  0  0  0  0  0
  151.8201  145.2531  161.7090 H   0  0  0  0  0  0  0  0  0  0  0  0
  151.4040  144.4312  157.2645 H   0  0  0  0  0  0  0  0  0  0  0  0
  152.8551  143.4589  157.1427 H   0  0  0  0  0  0  0  0  0  0  0  0
  151.6244  141.3802  157.3198 H   0  0  0  0  0  0  0  0  0  0  0  0
  150.1862  142.1858  157.9047 H   0  0  0  0  0  0  0  0  0  0  0  0
  149.8736  143.1462  155.7754 H   0  0  0  0  0  0  0  0  0  0  0  0
  149.1157  140.8873  155.9936 H   0  0  0  0  0  0  0  0  0  0  0  0
  149.4398  141.3966  154.3405 H   0  0  0  0  0  0  0  0  0  0  0  0
  151.1563  137.2648  153.4613 H   0  0  0  0  0  0  0  0  0  0  0  0
  152.2801  137.7112  154.7077 H   0  0  0  0  0  0  0  0  0  0  0  0
  151.1610  135.5691  155.2974 H   0  0  0  0  0  0  0  0  0  0  0  0
  150.7225  136.7971  156.4718 H   0  0  0  0  0  0  0  0  0  0  0  0
  147.4370  137.2594  154.9363 H   0  0  0  0  0  0  0  0  0  0  0  0
  148.4475  137.8229  156.2548 H   0  0  0  0  0  0  0  0  0  0  0  0
  148.4187  139.4840  154.3737 H   0  0  0  0  0  0  0  0  0  0  0  0
  148.9815  138.2713  153.2548 H   0  0  0  0  0  0  0  0  0  0  0  0
  152.9247  141.6930  159.5620 H   0  0  0  0  0  0  0  0  0  0  0  0
  151.3383  142.6288  155.2426 H   0  0  0  0  0  0  0  0  0  0  0  0
  1  2  1  0  0  0  0
  1 19  1  0  0  0  0
  1 20  1  0  0  0  0
  1 21  1  0  0  0  0
  2 18  2  0  0  0  0
  2  3  1  0  0  0  0
  3  4  2  0  0  0  0
  3 22  1  0  0  0  0
  4  5  1  0  0  0  0
  5  6  1  0  0  0  0
  5 18  1  0  0  0  0
  6  7  1  0  0  0  0
  6 23  1  0  0  0  0
  6 24  1  0  0  0  0
  7  8  1  0  0  0  0
  7 25  1  0  0  0  0
  7 26  1  0  0  0  0
  8  9  1  0  0  0  0
  8 27  1  0  0  0  0
  8 39  1  0  0  0  0
  9 10  1  0  0  0  0
  9 28  1  0  0  0  0
  9 29  1  0  0  0  0
 10 11  2  0  0  0  0
 10 12  1  0  0  0  0
 12 17  1  0  0  0  0
 12 13  1  0  0  0  0
 13 14  1  0  0  0  0
 13 30  1  0  0  0  0
 13 31  1  0  0  0  0
 14 15  1  0  0  0  0
 14 32  1  0  0  0  0
 14 33  1  0  0  0  0
 15 16  1  0  0  0  0
 16 17  1  0  0  0  0
 16 34  1  0  0  0  0
 16 35  1  0  0  0  0
 17 36  1  0  0  0  0
 17 37  1  0  0  0  0
 18 38  1  0  0  0  0
M  CHG  1   8   1
M  END
> <s_m_source_file>
AV-unprocessed.smi

> <i_m_source_file_index>
3312

> <i_lp_mmshare_version>
43012

> <i_f3d_flags>
0

> <s_epik_input>
W0NIM11jMVtjSF1ubihbY0hdMSlbQ0gyXVtDSDJdW05IXVtDSDJdQyg9TylOMltDSDJdW0NIMl1PW0NIMl1bQ0gyXTI=

> <s_epik_cmdline>
J2VwaWtfcHl0aG9uJywgJy1waCcsICc3LjAnLCAnLXRuJywgJzgnLCAnLW1hJywgJzIwMCcsICctbWV0YWxfYmluZGluZycsICctaW1hZScsICc8aW5maWxlLm1hZT4nLCAnLW9tYWUnLCAnPG91dGZpbGUubWFlPic=

> <r_lp_tautomer_probability>
1

> <r_epik_Ionization_Penalty>
0.325402

> <r_epik_Ionization_Penalty_Charging>
0.325398

> <r_epik_Ionization_Penalty_Neutral>
4.45308e-06

> <r_epik_State_Penalty>
0.321221

> <r_epik_Charging_Adjusted_Penalty>
0.646619

> <i_epik_Tot_Q>
1

> <i_epik_Tot_abs_Q>
1

> <r_epik_Metal_State_Penalty>
0.321643

> <b_epik_Metal_Only>
0

> <s_lp_Force_Field>
OPLS_2005

> <r_lp_Energy>
21.6744

> <b_lp_Chiralities_Consistent>
1

> <s_lp_Variant>
AV-unprocessed.smi:3312-1

> <Gold.Version>
5.8.1

> <Gold.Id.Protein>
6NUR|6NUR_protein|mol2

> <Gold.PLP.Fitness>
48.9386

> <Gold.PLP.PLP>
-43.1218

> <Gold.PLP.part.hbond>
-2.0000

> <Gold.PLP.part.metal>
0.0000

> <Gold.PLP.part.buried>
-4.4119

> <Gold.PLP.part.nonpolar>
-37.9443

> <Gold.PLP.part.repulsive>
0.3763

> <Gold.PLP.ligand.clash>
0.0000

> <Gold.PLP.ligand.torsion>
0.1080

> <Gold.PLP.Chemscore.Hbond>
2.0000

> <Gold.PLP.Chemscore.CHOScore>
0.0000

> <Gold.PLP.Chemscore.Metal>
0.0000

> <Gold.Chemscore.Hbonds>
donor molecule, donor type, donor heavy atom, donor atom, acceptor molecule, acceptor atom, score
      L1  H     8    27       P1  8028  2.00

> <Gold.PLP.Chemscore.Internal.Correction>
0.0329

> <Gold.Rescore>
     Score         DG    S(hbond)    S(metal)    S(lipo)     H(rot)  DE(clash)    DE(int)     intcor
     14.92     -17.25       1.62        0.00      95.71       1.89       0.85       1.48       ----

> <Gold.Chemscore.Fitness>
14.9152

> <Gold.Chemscore.DG>
-17.2460

> <Gold.Chemscore.ZeroCoef>
-5.4800

> <Gold.Chemscore.Hbond>
1.6168

> <Gold.Chemscore.Metal>
0.0000

> <Gold.Chemscore.Lipo>
95.7054

> <Gold.Chemscore.Internal_Hbond>
0.0000

> <Gold.Chemscore.DEClash>
0.8499

> <Gold.Chemscore.DEInternal>
1.4809

> <Gold.Chemscore.Rot>
1.8874

> <Gold.Chemscore.Internal.Correction>
   9.000000E+99

> <Gold.Chemscore.Hbonds>
donor molecule, donor type, donor heavy atom, donor atom, acceptor molecule, acceptor atom, score
      L1  H     8    27       P1  8028  1.00
      P1  H  7997  8010       L1    11  0.01

> <Gold.Chemscore.Hbond.Weighted>
-5.4002

> <Gold.Chemscore.Metal.Weighted>
-0.0000

> <Gold.Chemscore.Lipo.Weighted>
-11.1975

> <Gold.Chemscore.Internal_Hbond.Weighted>
0.0000

> <Gold.Chemscore.DEClash.Weighted>
0.8499

> <Gold.Chemscore.DEInternal.Weighted>
1.4809

> <Gold.Chemscore.Rot.Weighted>
4.8317

> <Gold.Chemscore.Internal.Correction.Weighted>
   9.000000E+99

> <Gold.Protein.RotatedTorsions>
[ 6907 6896 6895 6894 ] final  129.85 input  -60.11 | X-H torsion
[ 7974 7965 7964 7962 ] final   89.48 input  175.53 | X-H torsion
[ 8008 7997 7996 7995 ] final  114.65 input   59.86 | X-H torsion
[ 10167 10162 10161 10158 ] final  -12.03 input  -65.29 | X-H torsion
[ 10718 10713 10712 10709 ] final -141.74 input   66.30 | X-H torsion
[ 10763 10752 10751 10750 ] final   53.85 input  -60.55 | X-H torsion
[ 11005 11000 10999 10996 ] final -149.93 input  -57.11 | X-H torsion

> <Gold.Protein.ActiveResidues>
 VAL166  LYS551  ARG553  GLY616  TRP617  ASP618  TYR619  PRO620  LYS621  CYS622 
 ASP623  PHE694  ASN695  SER759  ASP760  ASP761  ALA762  ILE779  LEU786  VAL792 
 PHE793  MET794  SER795  GLU796  ALA797  LYS798  CYS799  TRP800  GLU811  SER814 

> <Gold.Protein.RotatedAtoms>
  152.3584  133.6265  159.5995 H   0  0  0  0  0  0  0  0  0  0  0  0  # atno 6907 bound_to 6896
  150.7584  133.9464  159.3481 H   0  0  0  0  0  0  0  0  0  0  0  0  # atno 6908 bound_to 6896
  151.7305  135.0876  160.0350 H   0  0  0  0  0  0  0  0  0  0  0  0  # atno 6909 bound_to 6896
  145.5317  139.2283  143.2615 H   0  0  0  0  0  0  0  0  0  0  0  0  # atno 7974 bound_to 7965
  156.2334  140.2955  156.0247 H   0  0  0  0  0  0  0  0  0  0  0  0  # atno 8008 bound_to 7997
  155.2161  140.0414  157.2958 H   0  0  0  0  0  0  0  0  0  0  0  0  # atno 8009 bound_to 7997
  154.6035  140.2433  155.7769 H   0  0  0  0  0  0  0  0  0  0  0  0  # atno 8010 bound_to 7997
  140.7152  143.5576  150.9231 H   0  0  0  0  0  0  0  0  0  0  0  0  # atno 10167 bound_to 10162
  156.3376  130.7620  151.1750 H   0  0  0  0  0  0  0  0  0  0  0  0  # atno 10718 bound_to 10713
  152.9799  135.5765  154.4809 H   0  0  0  0  0  0  0  0  0  0  0  0  # atno 10763 bound_to 10752
  154.4358  135.2774  155.1883 H   0  0  0  0  0  0  0  0  0  0  0  0  # atno 10764 bound_to 10752
  154.3572  135.6196  153.5726 H   0  0  0  0  0  0  0  0  0  0  0  0  # atno 10765 bound_to 10752
  140.7455  134.3465  157.5138 H   0  0  0  0  0  0  0  0  0  0  0  0  # atno 11005 bound_to 11000
  146.2039  140.6134  142.9090 LP  0  0  0  0  0  0  0  0  0  0  0  0  # atno 17320 bound_to 7965
  144.7622  140.5449  143.6727 LP  0  0  0  0  0  0  0  0  0  0  0  0  # atno 17321 bound_to 7965
  139.9301  143.6503  152.3078 LP  0  0  0  0  0  0  0  0  0  0  0  0  # atno 17342 bound_to 10162
  139.6951  144.7642  151.1371 LP  0  0  0  0  0  0  0  0  0  0  0  0  # atno 17343 bound_to 10162
  157.7441  131.0463  150.4889 LP  0  0  0  0  0  0  0  0  0  0  0  0  # atno 17370 bound_to 10713
  156.5065  130.4129  149.6324 LP  0  0  0  0  0  0  0  0  0  0  0  0  # atno 17371 bound_to 10713
  139.8797  134.9108  156.3023 LP  0  0  0  0  0  0  0  0  0  0  0  0  # atno 17394 bound_to 11000
  140.9798  133.7274  156.0655 LP  0  0  0  0  0  0  0  0  0  0  0  0  # atno 17395 bound_to 11000

$$$$
