AV-unprocessed.smi:3031|AV-procd|sdf|11542|dock5
  -GOLD-   2272016493D 1   1.00000     0.00000
 Structure written by MMmdl.
 47 48  0  0  0  0  0  0  0  0  2 V2000
  144.4751  132.0262  150.3688 C   0  0  0  0  0  0  0  0  0  0  0  0
  144.6082  133.3546  151.0559 C   0  0  0  0  0  0  0  0  0  0  0  0
  144.0098  133.7723  152.2789 C   0  0  0  0  0  0  0  0  0  0  0  0
  144.3369  135.0099  152.6144 N   0  0  0  0  0  0  0  0  0  0  0  0
  145.1515  135.4243  151.6205 N   0  0  0  0  0  0  0  0  0  0  0  0
  145.7331  136.7535  151.6702 C   0  0  0  0  0  0  0  0  0  0  0  0
  146.3339  137.0965  153.0515 C   0  0  1  0  0  0  0  0  0  0  0  0
  146.8234  135.8255  153.7584 C   0  0  0  0  0  0  0  0  0  0  0  0
  147.4585  138.0524  152.9276 N   0  3  0  0  0  0  0  0  0  0  0  0
  147.8974  138.6758  154.1951 C   0  0  0  0  0  0  0  0  0  0  0  0
  147.7956  140.2089  154.1265 C   0  0  2  0  0  0  0  0  0  0  0  0
  147.3874  140.5467  152.8155 O   0  0  0  0  0  0  0  0  0  0  0  0
  149.1109  140.9733  154.3966 C   0  0  0  0  0  0  0  0  0  0  0  0
  150.0316  140.3365  155.3439 N   0  0  0  0  0  0  0  0  0  0  0  0
  150.9238  139.3695  154.7017 C   0  0  0  0  0  0  0  0  0  0  0  0
  151.8864  138.7187  155.7099 C   0  0  0  0  0  0  0  0  0  0  0  0
  152.6455  139.7294  156.3635 O   0  0  0  0  0  0  0  0  0  0  0  0
  151.8267  140.6823  157.0324 C   0  0  0  0  0  0  0  0  0  0  0  0
  150.8603  141.3289  156.0246 C   0  0  0  0  0  0  0  0  0  0  0  0
  145.3279  134.4475  150.6640 C   0  0  0  0  0  0  0  0  0  0  0  0
  143.7488  131.3829  150.8656 H   0  0  0  0  0  0  0  0  0  0  0  0
  145.4224  131.4873  150.3515 H   0  0  0  0  0  0  0  0  0  0  0  0
  144.1496  132.1388  149.3348 H   0  0  0  0  0  0  0  0  0  0  0  0
  143.3551  133.2132  152.9313 H   0  0  0  0  0  0  0  0  0  0  0  0
  146.5084  136.8025  150.9045 H   0  0  0  0  0  0  0  0  0  0  0  0
  144.9749  137.4862  151.3879 H   0  0  0  0  0  0  0  0  0  0  0  0
  145.5579  137.5365  153.6803 H   0  0  0  0  0  0  0  0  0  0  0  0
  146.0090  135.1132  153.8941 H   0  0  0  0  0  0  0  0  0  0  0  0
  147.2247  136.0550  154.7461 H   0  0  0  0  0  0  0  0  0  0  0  0
  147.6077  135.3281  153.1868 H   0  0  0  0  0  0  0  0  0  0  0  0
  148.2548  137.5611  152.5470 H   0  0  0  0  0  0  0  0  0  0  0  0
  147.2521  138.3027  154.9825 H   0  0  0  0  0  0  0  0  0  0  0  0
  148.9138  138.3598  154.4343 H   0  0  0  0  0  0  0  0  0  0  0  0
  147.0300  140.5606  154.8197 H   0  0  0  0  0  0  0  0  0  0  0  0
  148.1147  140.4051  152.2281 H   0  0  0  0  0  0  0  0  0  0  0  0
  149.6226  141.2068  153.4616 H   0  0  0  0  0  0  0  0  0  0  0  0
  148.8170  141.9419  154.8052 H   0  0  0  0  0  0  0  0  0  0  0  0
  150.3644  138.5840  154.2029 H   0  0  0  0  0  0  0  0  0  0  0  0
  151.5074  139.8662  153.9247 H   0  0  0  0  0  0  0  0  0  0  0  0
  151.3365  138.1325  156.4475 H   0  0  0  0  0  0  0  0  0  0  0  0
  152.5665  138.0366  155.1996 H   0  0  0  0  0  0  0  0  0  0  0  0
  151.2757  140.1964  157.8392 H   0  0  0  0  0  0  0  0  0  0  0  0
  152.4627  141.4408  157.4892 H   0  0  0  0  0  0  0  0  0  0  0  0
  151.4316  141.9016  155.2919 H   0  0  0  0  0  0  0  0  0  0  0  0
  150.2262  142.0425  156.5520 H   0  0  0  0  0  0  0  0  0  0  0  0
  145.9519  134.6060  149.7967 H   0  0  0  0  0  0  0  0  0  0  0  0
  147.1913  138.7781  152.2778 H   0  0  0  0  0  0  0  0  0  0  0  0
  1  2  1  0  0  0  0
  1 21  1  0  0  0  0
  1 22  1  0  0  0  0
  1 23  1  0  0  0  0
  2 20  2  0  0  0  0
  2  3  1  0  0  0  0
  3  4  2  0  0  0  0
  3 24  1  0  0  0  0
  4  5  1  0  0  0  0
  5  6  1  0  0  0  0
  5 20  1  0  0  0  0
  6  7  1  0  0  0  0
  6 25  1  0  0  0  0
  6 26  1  0  0  0  0
  7  8  1  0  0  0  0
  7  9  1  0  0  0  0
  7 27  1  0  0  0  0
  8 28  1  0  0  0  0
  8 29  1  0  0  0  0
  8 30  1  0  0  0  0
  9 10  1  0  0  0  0
  9 31  1  0  0  0  0
  9 47  1  0  0  0  0
 10 11  1  0  0  0  0
 10 32  1  0  0  0  0
 10 33  1  0  0  0  0
 11 12  1  0  0  0  0
 11 13  1  0  0  0  0
 11 34  1  0  0  0  0
 12 35  1  0  0  0  0
 13 14  1  0  0  0  0
 13 36  1  0  0  0  0
 13 37  1  0  0  0  0
 14 19  1  0  0  0  0
 14 15  1  0  0  0  0
 15 16  1  0  0  0  0
 15 38  1  0  0  0  0
 15 39  1  0  0  0  0
 16 17  1  0  0  0  0
 16 40  1  0  0  0  0
 16 41  1  0  0  0  0
 17 18  1  0  0  0  0
 18 19  1  0  0  0  0
 18 42  1  0  0  0  0
 18 43  1  0  0  0  0
 19 44  1  0  0  0  0
 19 45  1  0  0  0  0
 20 46  1  0  0  0  0
M  CHG  1   9   1
M  END
> <s_m_source_file>
AV-unprocessed.smi

> <i_m_source_file_index>
3031

> <i_lp_mmshare_version>
43012

> <i_f3d_flags>
0

> <s_epik_input>
W0NIM11jMVtjSF1ubihbY0hdMSlbQ0gyXVtDQEhdKFtDSDNdKVtOSF1bQ0gyXVtDQEhdKFtPSF0pW0NIMl1OMltDSDJdW0NIMl1PW0NIMl1bQ0gyXTI=

> <s_epik_cmdline>
J2VwaWtfcHl0aG9uJywgJy1waCcsICc3LjAnLCAnLXRuJywgJzgnLCAnLW1hJywgJzIwMCcsICctbWV0YWxfYmluZGluZycsICctaW1hZScsICc8aW5maWxlLm1hZT4nLCAnLW9tYWUnLCAnPG91dGZpbGUubWFlPic=

> <r_lp_tautomer_probability>
1

> <r_epik_Ionization_Penalty>
0.108564

> <r_epik_Ionization_Penalty_Charging>
0.01811

> <r_epik_Ionization_Penalty_Neutral>
0.0904541

> <r_epik_State_Penalty>
0.141043

> <r_epik_Charging_Adjusted_Penalty>
0.159153

> <i_epik_Tot_Q>
1

> <i_epik_Tot_abs_Q>
1

> <r_epik_Metal_State_Penalty>
0.141052

> <b_epik_Metal_Only>
0

> <s_lp_Force_Field>
OPLS_2005

> <r_lp_Energy>
29.6303

> <b_lp_Chiralities_Consistent>
1

> <s_lp_Variant>
AV-unprocessed.smi:3031-2

> <Gold.Version>
5.8.1

> <Gold.Id.Protein>
6NUR|6NUR_protein|mol2

> <Gold.PLP.Fitness>
47.8831

> <Gold.PLP.PLP>
-34.4352

> <Gold.PLP.part.hbond>
-3.0000

> <Gold.PLP.part.metal>
0.0000

> <Gold.PLP.part.buried>
-2.5968

> <Gold.PLP.part.nonpolar>
-29.0390

> <Gold.PLP.part.repulsive>
0.1951

> <Gold.PLP.ligand.clash>
0.0846

> <Gold.PLP.ligand.torsion>
2.3623

> <Gold.PLP.Chemscore.Hbond>
4.0000

> <Gold.PLP.Chemscore.CHOScore>
2.0000

> <Gold.PLP.Chemscore.Metal>
0.0000

> <Gold.Chemscore.Hbonds>
donor molecule, donor type, donor heavy atom, donor atom, acceptor molecule, acceptor atom, score
      L1  H     9    31       P1  7948  2.00
      L1  H    12    35       P1  7957  1.00
      P1  H  7997  8009       L1    17  1.00
      L1  C     3    24       P1 10957  1.00
      L1  C    20    46       P1  7921  1.00

> <Gold.PLP.Chemscore.Internal.Correction>
0.2571

> <Gold.Rescore>
     Score         DG    S(hbond)    S(metal)    S(lipo)     H(rot)  DE(clash)    DE(int)     intcor
     14.16     -17.69       2.89        0.00      79.40       2.63       0.11       3.43       ----

> <Gold.Chemscore.Fitness>
14.1554

> <Gold.Chemscore.DG>
-17.6904

> <Gold.Chemscore.ZeroCoef>
-5.4800

> <Gold.Chemscore.Hbond>
2.8879

> <Gold.Chemscore.Metal>
0.0000

> <Gold.Chemscore.Lipo>
79.3995

> <Gold.Chemscore.Internal_Hbond>
0.0000

> <Gold.Chemscore.DEClash>
0.1056

> <Gold.Chemscore.DEInternal>
3.4293

> <Gold.Chemscore.Rot>
2.6270

> <Gold.Chemscore.Internal.Correction>
   9.000000E+99

> <Gold.Chemscore.Hbonds>
donor molecule, donor type, donor heavy atom, donor atom, acceptor molecule, acceptor atom, score
      L1  H     9    31       P1  7948  0.96
      L1  H    12    35       P1  7957  1.00
      P1  H  7997  8009       L1    17  0.85

> <Gold.Chemscore.Hbond.Weighted>
-9.6457

> <Gold.Chemscore.Metal.Weighted>
-0.0000

> <Gold.Chemscore.Lipo.Weighted>
-9.2897

> <Gold.Chemscore.Internal_Hbond.Weighted>
0.0000

> <Gold.Chemscore.DEClash.Weighted>
0.1056

> <Gold.Chemscore.DEInternal.Weighted>
3.4293

> <Gold.Chemscore.Rot.Weighted>
6.7251

> <Gold.Chemscore.Internal.Correction.Weighted>
   9.000000E+99

> <Gold.Protein.RotatedTorsions>
[ 6907 6896 6895 6894 ] final  105.12 input  -60.11 | X-H torsion
[ 7974 7965 7964 7962 ] final -110.18 input  175.53 | X-H torsion
[ 8008 7997 7996 7995 ] final -169.50 input   59.86 | X-H torsion
[ 10167 10162 10161 10158 ] final  168.68 input  -65.29 | X-H torsion
[ 10718 10713 10712 10709 ] final -101.86 input   66.30 | X-H torsion
[ 10763 10752 10751 10750 ] final  147.58 input  -60.55 | X-H torsion
[ 11005 11000 10999 10996 ] final  -20.55 input  -57.11 | X-H torsion

> <Gold.Protein.ActiveResidues>
 VAL166  LYS551  ARG553  GLY616  TRP617  ASP618  TYR619  PRO620  LYS621  CYS622 
 ASP623  PHE694  ASN695  SER759  ASP760  ASP761  ALA762  ILE779  LEU786  VAL792 
 PHE793  MET794  SER795  GLU796  ALA797  LYS798  CYS799  TRP800  GLU811  SER814 

> <Gold.Protein.RotatedAtoms>
  152.5241  133.9576  159.7701 H   0  0  0  0  0  0  0  0  0  0  0  0  # atno 6907 bound_to 6896
  150.9873  133.6177  159.2720 H   0  0  0  0  0  0  0  0  0  0  0  0  # atno 6908 bound_to 6896
  151.3333  135.0853  159.9399 H   0  0  0  0  0  0  0  0  0  0  0  0  # atno 6909 bound_to 6896
  145.1714  140.8927  143.3533 H   0  0  0  0  0  0  0  0  0  0  0  0  # atno 7974 bound_to 7965
  155.9058  140.1049  157.1316 H   0  0  0  0  0  0  0  0  0  0  0  0  # atno 8008 bound_to 7997
  154.4032  140.1284  156.4559 H   0  0  0  0  0  0  0  0  0  0  0  0  # atno 8009 bound_to 7997
  155.7368  140.3467  155.5088 H   0  0  0  0  0  0  0  0  0  0  0  0  # atno 8010 bound_to 7997
  139.4973  144.3788  151.9644 H   0  0  0  0  0  0  0  0  0  0  0  0  # atno 10167 bound_to 10162
  156.0209  130.5393  150.7025 H   0  0  0  0  0  0  0  0  0  0  0  0  # atno 10718 bound_to 10713
  154.0407  135.2890  155.3355 H   0  0  0  0  0  0  0  0  0  0  0  0  # atno 10763 bound_to 10752
  154.6931  135.5218  153.8423 H   0  0  0  0  0  0  0  0  0  0  0  0  # atno 10764 bound_to 10752
  153.0601  135.6610  154.0611 H   0  0  0  0  0  0  0  0  0  0  0  0  # atno 10765 bound_to 10752
  140.8475  133.7881  155.9929 H   0  0  0  0  0  0  0  0  0  0  0  0  # atno 11005 bound_to 11000
  145.0229  139.3408  143.6063 LP  0  0  0  0  0  0  0  0  0  0  0  0  # atno 17320 bound_to 7965
  146.3468  139.9536  142.8726 LP  0  0  0  0  0  0  0  0  0  0  0  0  # atno 17321 bound_to 7965
  140.3225  144.3411  150.6006 LP  0  0  0  0  0  0  0  0  0  0  0  0  # atno 17342 bound_to 10162
  140.5711  143.2181  151.7597 LP  0  0  0  0  0  0  0  0  0  0  0  0  # atno 17343 bound_to 10162
  157.4682  131.0890  151.0671 LP  0  0  0  0  0  0  0  0  0  0  0  0  # atno 17370 bound_to 10713
  157.1139  130.6033  149.5488 LP  0  0  0  0  0  0  0  0  0  0  0  0  # atno 17371 bound_to 10713
  140.8827  134.2592  157.5136 LP  0  0  0  0  0  0  0  0  0  0  0  0  # atno 17394 bound_to 11000
  139.8703  134.9623  156.4424 LP  0  0  0  0  0  0  0  0  0  0  0  0  # atno 17395 bound_to 11000

$$$$
