AV-unprocessed.smi:69|AV-procd|sdf|655|dock7
  -GOLD-   2262016553D 1   1.00000     0.00000
 Structure written by MMmdl.
 32 34  0  0  0  0  0  0  0  0  1 V2000
  139.5949  136.8719  155.7950 N   0  0  0  0  0  0  0  0  0  0  0  0
  140.4619  137.1299  154.8063 C   0  0  0  0  0  0  0  0  0  0  0  0
  140.5516  138.3992  154.3440 N   0  0  0  0  0  0  0  0  0  0  0  0
  141.4089  138.6823  153.3573 C   0  0  0  0  0  0  0  0  0  0  0  0
  142.2440  137.8615  152.7138 N   0  0  0  0  0  0  0  0  0  0  0  0
  142.1504  136.5830  153.1836 C   0  0  0  0  0  0  0  0  0  0  0  0
  141.2886  136.1373  154.2228 C   0  0  0  0  0  0  0  0  0  0  0  0
  141.4661  134.7764  154.4322 N   0  0  0  0  0  0  0  0  0  0  0  0
  142.3823  134.4417  153.5631 C   0  0  0  0  0  0  0  0  0  0  0  0
  142.8544  135.4709  152.7749 N   0  0  0  0  0  0  0  0  0  0  0  0
  143.8928  135.4350  151.6941 C   0  0  2  0  0  0  0  0  0  0  0  0
  143.6234  134.3222  150.8935 O   0  0  0  0  0  0  0  0  0  0  0  0
  144.7334  133.4249  150.8700 C   0  0  2  0  0  0  0  0  0  0  0  0
  144.2637  131.9659  150.7325 C   0  0  0  0  0  0  0  0  0  0  0  0
  143.5095  131.8090  149.5499 O   0  0  0  0  0  0  0  0  0  0  0  0
  145.5302  133.7493  152.1417 C   0  0  2  0  0  0  0  0  0  0  0  0
  145.0410  133.0307  153.2622 O   0  0  0  0  0  0  0  0  0  0  0  0
  145.3113  135.2506  152.2658 C   0  0  2  0  0  0  0  0  0  0  0  0
  145.5125  135.7377  153.5812 O   0  0  0  0  0  0  0  0  0  0  0  0
  143.7561  136.3653  151.1412 H   0  0  0  0  0  0  0  0  0  0  0  0
  145.3567  133.6959  150.0155 H   0  0  0  0  0  0  0  0  0  0  0  0
  146.5868  133.5068  152.0243 H   0  0  0  0  0  0  0  0  0  0  0  0
  146.0004  135.7635  151.5937 H   0  0  0  0  0  0  0  0  0  0  0  0
  139.5103  135.9328  156.1566 H   0  0  0  0  0  0  0  0  0  0  0  0
  139.0273  137.6155  156.1750 H   0  0  0  0  0  0  0  0  0  0  0  0
  141.4286  139.7138  153.0379 H   0  0  0  0  0  0  0  0  0  0  0  0
  142.7400  133.4264  153.4762 H   0  0  0  0  0  0  0  0  0  0  0  0
  145.1238  131.2997  150.6596 H   0  0  0  0  0  0  0  0  0  0  0  0
  143.6795  131.6513  151.5977 H   0  0  0  0  0  0  0  0  0  0  0  0
  142.8851  132.5162  149.4961 H   0  0  0  0  0  0  0  0  0  0  0  0
  145.4890  132.1994  153.3012 H   0  0  0  0  0  0  0  0  0  0  0  0
  145.6761  134.9989  154.1477 H   0  0  0  0  0  0  0  0  0  0  0  0
  1  2  1  0  0  0  0
  1 24  1  0  0  0  0
  1 25  1  0  0  0  0
  2  7  1  0  0  0  0
  2  3  2  0  0  0  0
  3  4  1  0  0  0  0
  4  5  2  0  0  0  0
  4 26  1  0  0  0  0
  5  6  1  0  0  0  0
  6 10  1  0  0  0  0
  6  7  2  0  0  0  0
  7  8  1  0  0  0  0
  8  9  2  0  0  0  0
  9 10  1  0  0  0  0
  9 27  1  0  0  0  0
 10 11  1  0  0  0  0
 11 20  1  0  0  0  0
 11 18  1  0  0  0  0
 11 12  1  0  0  0  0
 12 13  1  0  0  0  0
 13 21  1  0  0  0  0
 13 14  1  0  0  0  0
 13 16  1  0  0  0  0
 14 15  1  0  0  0  0
 14 28  1  0  0  0  0
 14 29  1  0  0  0  0
 15 30  1  0  0  0  0
 16 22  1  0  0  0  0
 16 17  1  0  0  0  0
 16 18  1  0  0  0  0
 17 31  1  0  0  0  0
 18 23  1  0  0  0  0
 18 19  1  0  0  0  0
 19 32  1  0  0  0  0
M  END
> <s_m_source_file>
AV-unprocessed.smi

> <i_m_source_file_index>
69

> <i_lp_mmshare_version>
43012

> <i_f3d_flags>
0

> <s_epik_input>
bjFbY0hdbmMoW05IMl0pYyhjMTIpbltjSF1uMltDQEBIXTNPW0NASF0oW0NIMl1bT0hdKVtDQEBIXShbT0hdKVtDQEhdM1tPSF0=

> <s_epik_cmdline>
J2VwaWtfcHl0aG9uJywgJy1waCcsICc3LjAnLCAnLXRuJywgJzgnLCAnLW1hJywgJzIwMCcsICctbWV0YWxfYmluZGluZycsICctaW1hZScsICc8aW5maWxlLm1hZT4nLCAnLW9tYWUnLCAnPG91dGZpbGUubWFlPic=

> <r_lp_tautomer_probability>
1

> <r_epik_Ionization_Penalty>
0.000428445

> <r_epik_Ionization_Penalty_Charging>
0

> <r_epik_Ionization_Penalty_Neutral>
0.000428445

> <r_epik_State_Penalty>
-0

> <r_epik_Charging_Adjusted_Penalty>
0

> <i_epik_Tot_Q>
0

> <i_epik_Tot_abs_Q>
0

> <r_epik_Metal_State_Penalty>
-0

> <b_epik_Metal_Only>
0

> <s_epik_Chemistry_Notes>
This compound contains an acetal/aminal-like group ( X-CH(R)-Y where X, Y are N, S, or O) that may be acid/base labile, releasing an aldehyde.

> <s_lp_Force_Field>
OPLS_2005

> <r_lp_Energy>
42.2813

> <b_lp_Chiralities_Consistent>
1

> <s_lp_Variant>
AV-unprocessed.smi:69-13

> <Gold.Version>
5.8.1

> <Gold.Id.Protein>
6NUR|6NUR_protein|mol2

> <Gold.PLP.Fitness>
37.8587

> <Gold.PLP.PLP>
-22.2092

> <Gold.PLP.part.hbond>
-4.8563

> <Gold.PLP.part.metal>
0.0000

> <Gold.PLP.part.buried>
-2.3637

> <Gold.PLP.part.nonpolar>
-19.1128

> <Gold.PLP.part.repulsive>
3.2808

> <Gold.PLP.ligand.clash>
0.0000

> <Gold.PLP.ligand.torsion>
0.3011

> <Gold.PLP.Chemscore.Hbond>
2.7360

> <Gold.PLP.Chemscore.CHOScore>
2.5532

> <Gold.PLP.Chemscore.Metal>
0.0000

> <Gold.Chemscore.Hbonds>
donor molecule, donor type, donor heavy atom, donor atom, acceptor molecule, acceptor atom, score
      L1  H     1    24       P1 11000  1.00
      P1  H 10785 10796       L1    15  1.00
      P1  H 11000 11005       L1     8  0.74
      L1  C     4    26       P1 10160  0.88
      L1  C     4    26       P1 10175  0.67
      L1  C     9    27       P1 10957  1.00

> <Gold.PLP.Chemscore.Internal.Correction>
0.3843

> <Gold.Rescore>
     Score         DG    S(hbond)    S(metal)    S(lipo)     H(rot)  DE(clash)    DE(int)     intcor
      3.95      -7.50       2.65        0.00      29.75       4.03       2.32       1.23       ----

> <Gold.Chemscore.Fitness>
3.9530

> <Gold.Chemscore.DG>
-7.4985

> <Gold.Chemscore.ZeroCoef>
-5.4800

> <Gold.Chemscore.Hbond>
2.6494

> <Gold.Chemscore.Metal>
0.0000

> <Gold.Chemscore.Lipo>
29.7475

> <Gold.Chemscore.Internal_Hbond>
0.0000

> <Gold.Chemscore.DEClash>
2.3169

> <Gold.Chemscore.DEInternal>
1.2287

> <Gold.Chemscore.Rot>
4.0277

> <Gold.Chemscore.Internal.Correction>
   9.000000E+99

> <Gold.Chemscore.Hbonds>
donor molecule, donor type, donor heavy atom, donor atom, acceptor molecule, acceptor atom, score
      L1  H     1    24       P1 11000  0.20
      P1  H 10785 10796       L1    15  0.93
      P1  H 11000 11005       L1     8  0.71

> <Gold.Chemscore.Hbond.Weighted>
-8.8490

> <Gold.Chemscore.Metal.Weighted>
-0.0000

> <Gold.Chemscore.Lipo.Weighted>
-3.4805

> <Gold.Chemscore.Internal_Hbond.Weighted>
0.0000

> <Gold.Chemscore.DEClash.Weighted>
2.3169

> <Gold.Chemscore.DEInternal.Weighted>
1.2287

> <Gold.Chemscore.Rot.Weighted>
10.3110

> <Gold.Chemscore.Internal.Correction.Weighted>
   9.000000E+99

> <Gold.Protein.RotatedTorsions>
[ 6907 6896 6895 6894 ] final  116.96 input  -60.11 | X-H torsion
[ 7974 7965 7964 7962 ] final   78.93 input  175.53 | X-H torsion
[ 8008 7997 7996 7995 ] final  102.53 input   59.86 | X-H torsion
[ 10167 10162 10161 10158 ] final -166.71 input  -65.29 | X-H torsion
[ 10718 10713 10712 10709 ] final -122.43 input   66.30 | X-H torsion
[ 10763 10752 10751 10750 ] final  175.58 input  -60.55 | X-H torsion
[ 11005 11000 10999 10996 ] final   -9.91 input  -57.11 | X-H torsion

> <Gold.Protein.ActiveResidues>
 VAL166  LYS551  ARG553  GLY616  TRP617  ASP618  TYR619  PRO620  LYS621  CYS622 
 ASP623  PHE694  ASN695  SER759  ASP760  ASP761  ALA762  ILE779  LEU786  VAL792 
 PHE793  MET794  SER795  GLU796  ALA797  LYS798  CYS799  TRP800  GLU811  SER814 

> <Gold.Protein.RotatedAtoms>
  152.4643  133.7890  159.6891 H   0  0  0  0  0  0  0  0  0  0  0  0  # atno 6907 bound_to 6896
  150.8601  133.7647  159.3002 H   0  0  0  0  0  0  0  0  0  0  0  0  # atno 6908 bound_to 6896
  151.5215  135.1070  159.9931 H   0  0  0  0  0  0  0  0  0  0  0  0  # atno 6909 bound_to 6896
  145.6707  139.2496  143.1870 H   0  0  0  0  0  0  0  0  0  0  0  0  # atno 7974 bound_to 7965
  156.1402  140.3179  155.8483 H   0  0  0  0  0  0  0  0  0  0  0  0  # atno 8008 bound_to 7997
  155.4169  140.0509  157.3045 H   0  0  0  0  0  0  0  0  0  0  0  0  # atno 8009 bound_to 7997
  154.4970  140.2114  155.9439 H   0  0  0  0  0  0  0  0  0  0  0  0  # atno 8010 bound_to 7997
  139.6097  144.0840  152.1829 H   0  0  0  0  0  0  0  0  0  0  0  0  # atno 10167 bound_to 10162
  156.1418  130.6471  150.9782 H   0  0  0  0  0  0  0  0  0  0  0  0  # atno 10718 bound_to 10713
  154.4695  135.2770  155.1653 H   0  0  0  0  0  0  0  0  0  0  0  0  # atno 10763 bound_to 10752
  154.3408  135.6170  153.5599 H   0  0  0  0  0  0  0  0  0  0  0  0  # atno 10764 bound_to 10752
  152.9863  135.5788  154.5073 H   0  0  0  0  0  0  0  0  0  0  0  0  # atno 10765 bound_to 10752
  140.7392  133.8685  155.8954 H   0  0  0  0  0  0  0  0  0  0  0  0  # atno 11005 bound_to 11000
  146.1047  140.7501  142.9532 LP  0  0  0  0  0  0  0  0  0  0  0  0  # atno 17320 bound_to 7965
  144.7058  140.3844  143.7119 LP  0  0  0  0  0  0  0  0  0  0  0  0  # atno 17321 bound_to 7965
  140.0455  144.5973  150.7377 LP  0  0  0  0  0  0  0  0  0  0  0  0  # atno 17342 bound_to 10162
  140.7310  143.2690  151.3951 LP  0  0  0  0  0  0  0  0  0  0  0  0  # atno 17343 bound_to 10162
  157.6582  131.0885  150.7899 LP  0  0  0  0  0  0  0  0  0  0  0  0  # atno 17370 bound_to 10713
  156.7973  130.4909  149.5375 LP  0  0  0  0  0  0  0  0  0  0  0  0  # atno 17371 bound_to 10713
  140.9852  134.1352  157.4458 LP  0  0  0  0  0  0  0  0  0  0  0  0  # atno 17394 bound_to 11000
  139.8810  135.0023  156.6120 LP  0  0  0  0  0  0  0  0  0  0  0  0  # atno 17395 bound_to 11000

$$$$
