AV-unprocessed.smi:3330|AV-procd|sdf|12805|dock10
  -GOLD-   2272019173D 1   1.00000     0.00000
 Structure written by MMmdl.
 38 39  0  0  0  0  0  0  0  0  1 V2000
  152.0912  137.8592  156.8825 C   0  0  0  0  0  0  0  0  0  0  0  0
  151.2998  138.7762  157.8358 C   0  0  2  0  0  0  0  0  0  0  0  0
  149.9109  138.3250  157.8697 N   0  0  0  0  0  0  0  0  0  0  0  0
  149.7455  137.0895  158.6188 C   0  0  0  0  0  0  0  0  0  0  0  0
  148.2582  136.8951  158.9492 C   0  0  0  0  0  0  0  0  0  0  0  0
  148.0795  135.9206  160.0278 N   0  0  0  0  0  0  0  0  0  0  0  0
  147.6384  136.2258  161.2549 C   0  0  0  0  0  0  0  0  0  0  0  0
  147.3245  137.3355  161.6846 O   0  0  0  0  0  0  0  0  0  0  0  0
  147.5717  134.9528  162.0701 C   0  0  0  0  0  0  0  0  0  0  0  0
  148.0253  134.0099  161.0705 N   0  0  0  0  0  0  0  0  0  0  0  0
  148.3070  134.6003  159.9019 C   0  0  0  0  0  0  0  0  0  0  0  0
  148.7020  134.0192  158.8921 O   0  0  0  0  0  0  0  0  0  0  0  0
  151.3253  140.2681  157.4043 C   0  0  2  0  0  0  0  0  0  0  0  0
  150.8905  141.2326  158.5249 C   0  0  0  0  0  0  0  0  0  0  0  0
  150.5072  140.4892  156.2156 N   0  0  0  0  0  0  0  0  0  0  0  0
  149.9337  141.6675  155.7838 C   0  0  0  0  0  0  0  0  0  0  0  0
  149.2808  141.4010  154.6146 C   0  0  0  0  0  0  0  0  0  0  0  0
  149.5167  140.0142  154.4046 C   0  0  0  0  0  0  0  0  0  0  0  0
  150.2508  139.4713  155.3619 N   0  0  0  0  0  0  0  0  0  0  0  0
  153.1525  138.1052  156.8839 H   0  0  0  0  0  0  0  0  0  0  0  0
  151.7305  137.9455  155.8569 H   0  0  0  0  0  0  0  0  0  0  0  0
  152.0187  136.8110  157.1718 H   0  0  0  0  0  0  0  0  0  0  0  0
  151.7263  138.7037  158.8376 H   0  0  0  0  0  0  0  0  0  0  0  0
  149.5486  138.2277  156.9321 H   0  0  0  0  0  0  0  0  0  0  0  0
  150.1164  136.2432  158.0406 H   0  0  0  0  0  0  0  0  0  0  0  0
  150.3271  137.1398  159.5404 H   0  0  0  0  0  0  0  0  0  0  0  0
  147.8118  137.8489  159.2373 H   0  0  0  0  0  0  0  0  0  0  0  0
  147.7154  136.5706  158.0593 H   0  0  0  0  0  0  0  0  0  0  0  0
  148.2455  134.9869  162.9269 H   0  0  0  0  0  0  0  0  0  0  0  0
  146.5544  134.7355  162.3971 H   0  0  0  0  0  0  0  0  0  0  0  0
  148.1092  133.0190  161.2455 H   0  0  0  0  0  0  0  0  0  0  0  0
  152.3506  140.5290  157.1360 H   0  0  0  0  0  0  0  0  0  0  0  0
  151.5931  141.2251  159.3575 H   0  0  0  0  0  0  0  0  0  0  0  0
  149.9060  140.9743  158.9162 H   0  0  0  0  0  0  0  0  0  0  0  0
  150.8434  142.2588  158.1593 H   0  0  0  0  0  0  0  0  0  0  0  0
  150.0407  142.5890  156.3368 H   0  0  0  0  0  0  0  0  0  0  0  0
  148.7228  142.0923  154.0008 H   0  0  0  0  0  0  0  0  0  0  0  0
  149.1800  139.3903  153.5899 H   0  0  0  0  0  0  0  0  0  0  0  0
  1  2  1  0  0  0  0
  1 20  1  0  0  0  0
  1 21  1  0  0  0  0
  1 22  1  0  0  0  0
  2  3  1  0  0  0  0
  2 13  1  0  0  0  0
  2 23  1  0  0  0  0
  3  4  1  0  0  0  0
  3 24  1  0  0  0  0
  4  5  1  0  0  0  0
  4 25  1  0  0  0  0
  4 26  1  0  0  0  0
  5  6  1  0  0  0  0
  5 27  1  0  0  0  0
  5 28  1  0  0  0  0
  6 11  1  0  0  0  0
  6  7  1  0  0  0  0
  7  8  2  0  0  0  0
  7  9  1  0  0  0  0
  9 10  1  0  0  0  0
  9 29  1  0  0  0  0
  9 30  1  0  0  0  0
 10 11  1  0  0  0  0
 10 31  1  0  0  0  0
 11 12  2  0  0  0  0
 13 14  1  0  0  0  0
 13 15  1  0  0  0  0
 13 32  1  0  0  0  0
 14 33  1  0  0  0  0
 14 34  1  0  0  0  0
 14 35  1  0  0  0  0
 15 19  1  0  0  0  0
 15 16  1  0  0  0  0
 16 17  2  0  0  0  0
 16 36  1  0  0  0  0
 17 18  1  0  0  0  0
 17 37  1  0  0  0  0
 18 19  2  0  0  0  0
 18 38  1  0  0  0  0
M  END
> <s_m_source_file>
AV-unprocessed.smi

> <i_m_source_file_index>
3330

> <i_lp_mmshare_version>
43012

> <i_f3d_flags>
0

> <s_epik_input>
bjFbY0hdW2NIXVtjSF1uMVtDQEBIXShbQ0gzXSlbQ0BIXShbQ0gzXSlbTkhdW0NIMl1bQ0gyXU4yQyg9TylbQ0gyXVtOSF1DMj1P

> <s_epik_cmdline>
J2VwaWtfcHl0aG9uJywgJy1waCcsICc3LjAnLCAnLXRuJywgJzgnLCAnLW1hJywgJzIwMCcsICctbWV0YWxfYmluZGluZycsICctaW1hZScsICc8aW5maWxlLm1hZT4nLCAnLW9tYWUnLCAnPG91dGZpbGUubWFlPic=

> <r_lp_tautomer_probability>
1

> <r_epik_Ionization_Penalty>
2.2997

> <r_epik_Ionization_Penalty_Charging>
0

> <r_epik_Ionization_Penalty_Neutral>
2.2997

> <r_epik_State_Penalty>
2.44917

> <r_epik_Charging_Adjusted_Penalty>
2.44917

> <i_epik_Tot_Q>
0

> <i_epik_Tot_abs_Q>
0

> <r_epik_Metal_State_Penalty>
2.52438

> <b_epik_Metal_Only>
0

> <s_lp_Force_Field>
OPLS_2005

> <r_lp_Energy>
24.6484

> <b_lp_Chiralities_Consistent>
1

> <s_lp_Variant>
AV-unprocessed.smi:3330-5

> <Gold.Version>
5.8.1

> <Gold.Id.Protein>
6NUR|6NUR_protein|mol2

> <Gold.PLP.Fitness>
40.8547

> <Gold.PLP.PLP>
-29.8859

> <Gold.PLP.part.hbond>
-3.0000

> <Gold.PLP.part.metal>
0.0000

> <Gold.PLP.part.buried>
-0.8525

> <Gold.PLP.part.nonpolar>
-24.5196

> <Gold.PLP.part.repulsive>
0.1067

> <Gold.PLP.ligand.clash>
0.0000

> <Gold.PLP.ligand.torsion>
1.2198

> <Gold.PLP.Chemscore.Hbond>
2.7049

> <Gold.PLP.Chemscore.CHOScore>
1.7298

> <Gold.PLP.Chemscore.Metal>
0.0000

> <Gold.Chemscore.Hbonds>
donor molecule, donor type, donor heavy atom, donor atom, acceptor molecule, acceptor atom, score
      P1  H  6896  6909       L1    12  0.93
      P1  H  6931  6943       L1     8  0.83
      P1  H  6934  6947       L1     8  0.83
      L1  C    16    36       P1  8028  0.86
      L1  C    18    38       P1  7957  0.79

> <Gold.PLP.Chemscore.Internal.Correction>
0.1044

> <Gold.Rescore>
     Score         DG    S(hbond)    S(metal)    S(lipo)     H(rot)  DE(clash)    DE(int)     intcor
      7.46     -11.25       1.71        0.00      57.21       2.60       0.06       3.74       ----

> <Gold.Chemscore.Fitness>
7.4601

> <Gold.Chemscore.DG>
-11.2546

> <Gold.Chemscore.ZeroCoef>
-5.4800

> <Gold.Chemscore.Hbond>
1.7141

> <Gold.Chemscore.Metal>
0.0000

> <Gold.Chemscore.Lipo>
57.2066

> <Gold.Chemscore.Internal_Hbond>
0.0000

> <Gold.Chemscore.DEClash>
0.0576

> <Gold.Chemscore.DEInternal>
3.7369

> <Gold.Chemscore.Rot>
2.5952

> <Gold.Chemscore.Internal.Correction>
   9.000000E+99

> <Gold.Chemscore.Hbonds>
donor molecule, donor type, donor heavy atom, donor atom, acceptor molecule, acceptor atom, score
      P1  H  6896  6909       L1    12  0.19
      P1  H  6931  6943       L1     8  0.40
      P1  H  6934  6947       L1     8  0.81

> <Gold.Chemscore.Hbond.Weighted>
-5.7252

> <Gold.Chemscore.Metal.Weighted>
-0.0000

> <Gold.Chemscore.Lipo.Weighted>
-6.6932

> <Gold.Chemscore.Internal_Hbond.Weighted>
0.0000

> <Gold.Chemscore.DEClash.Weighted>
0.0576

> <Gold.Chemscore.DEInternal.Weighted>
3.7369

> <Gold.Chemscore.Rot.Weighted>
6.6437

> <Gold.Chemscore.Internal.Correction.Weighted>
   9.000000E+99

> <Gold.Protein.RotatedTorsions>
[ 6907 6896 6895 6894 ] final    9.50 input  -60.11 | X-H torsion
[ 7974 7965 7964 7962 ] final   23.69 input  175.53 | X-H torsion
[ 8008 7997 7996 7995 ] final   -0.68 input   59.86 | X-H torsion
[ 10167 10162 10161 10158 ] final  149.90 input  -65.29 | X-H torsion
[ 10718 10713 10712 10709 ] final   54.71 input   66.30 | X-H torsion
[ 10763 10752 10751 10750 ] final -100.45 input  -60.55 | X-H torsion
[ 11005 11000 10999 10996 ] final  159.99 input  -57.11 | X-H torsion

> <Gold.Protein.ActiveResidues>
 VAL166  LYS551  ARG553  GLY616  TRP617  ASP618  TYR619  PRO620  LYS621  CYS622 
 ASP623  PHE694  ASN695  SER759  ASP760  ASP761  ALA762  ILE779  LEU786  VAL792 
 PHE793  MET794  SER795  GLU796  ALA797  LYS798  CYS799  TRP800  GLU811  SER814 

> <Gold.Protein.RotatedAtoms>
  151.7231  135.0890  160.0287 H   0  0  0  0  0  0  0  0  0  0  0  0  # atno 6907 bound_to 6896
  152.3589  133.6268  159.6009 H   0  0  0  0  0  0  0  0  0  0  0  0  # atno 6908 bound_to 6896
  150.7590  133.9371  159.3486 H   0  0  0  0  0  0  0  0  0  0  0  0  # atno 6909 bound_to 6896
  146.1972  139.7708  142.8788 H   0  0  0  0  0  0  0  0  0  0  0  0  # atno 7974 bound_to 7965
  154.6553  140.2578  155.7168 H   0  0  0  0  0  0  0  0  0  0  0  0  # atno 8008 bound_to 7997
  156.2594  140.2859  156.0925 H   0  0  0  0  0  0  0  0  0  0  0  0  # atno 8009 bound_to 7997
  155.1389  140.0380  157.2784 H   0  0  0  0  0  0  0  0  0  0  0  0  # atno 8010 bound_to 7997
  139.4856  144.5565  151.7308 H   0  0  0  0  0  0  0  0  0  0  0  0  # atno 10167 bound_to 10162
  157.5281  130.8611  149.8650 H   0  0  0  0  0  0  0  0  0  0  0  0  # atno 10718 bound_to 10713
  154.7580  135.4934  153.9410 H   0  0  0  0  0  0  0  0  0  0  0  0  # atno 10763 bound_to 10752
  153.1218  135.6733  153.9331 H   0  0  0  0  0  0  0  0  0  0  0  0  # atno 10764 bound_to 10752
  153.9061  135.3104  155.3427 H   0  0  0  0  0  0  0  0  0  0  0  0  # atno 10765 bound_to 10752
  140.2015  134.8334  157.3023 H   0  0  0  0  0  0  0  0  0  0  0  0  # atno 11005 bound_to 11000
  145.3603  141.0324  143.3288 LP  0  0  0  0  0  0  0  0  0  0  0  0  # atno 17320 bound_to 7965
  144.8606  139.5183  143.6814 LP  0  0  0  0  0  0  0  0  0  0  0  0  # atno 17321 bound_to 7965
  140.5127  144.1000  150.5999 LP  0  0  0  0  0  0  0  0  0  0  0  0  # atno 17342 bound_to 10162
  140.3931  143.2742  152.0036 LP  0  0  0  0  0  0  0  0  0  0  0  0  # atno 17343 bound_to 10162
  156.0402  130.3741  150.1455 LP  0  0  0  0  0  0  0  0  0  0  0  0  # atno 17370 bound_to 10713
  156.9641  130.9814  151.3473 LP  0  0  0  0  0  0  0  0  0  0  0  0  # atno 17371 bound_to 10713
  140.2048  134.4210  155.7643 LP  0  0  0  0  0  0  0  0  0  0  0  0  # atno 17394 bound_to 11000
  141.2227  133.7089  156.8243 LP  0  0  0  0  0  0  0  0  0  0  0  0  # atno 17395 bound_to 11000

$$$$
