AV-unprocessed.smi:2061|AV-procd|sdf|8366|dock6
  -GOLD-   2272011 43D 1   1.00000     0.00000
 Structure written by MMmdl.
 46 47  0  0  0  0  0  0  0  0  2 V2000
  147.7746  135.8193  162.9771 C   0  0  0  0  0  0  0  0  0  0  0  0
  147.8177  135.9442  161.4928 C   0  0  0  0  0  0  0  0  0  0  0  0
  147.5867  135.0593  160.4779 C   0  0  0  0  0  0  0  0  0  0  0  0
  147.8096  135.8470  159.3109 C   0  0  0  0  0  0  0  0  0  0  0  0
  147.7137  135.4029  157.9668 N   0  0  0  0  0  0  0  0  0  0  0  0
  146.9730  134.3966  157.4734 C   0  0  0  0  0  0  0  0  0  0  0  0
  146.1989  133.6936  158.1233 O   0  0  0  0  0  0  0  0  0  0  0  0
  147.1773  134.2398  156.1574 N   0  0  0  0  0  0  0  0  0  0  0  0
  146.5272  133.2259  155.3322 C   0  0  0  0  0  0  0  0  0  0  0  0
  145.6682  133.8306  154.1894 C   0  0  2  0  0  0  0  0  0  0  0  0
  144.5435  134.7138  154.7827 C   0  0  0  0  0  0  0  0  0  0  0  0
  145.1652  132.7432  153.2877 N   0  3  1  0  0  0  0  0  0  0  0  0
  144.6572  133.1875  151.9608 C   0  0  0  0  0  0  0  0  0  0  0  0
  144.1231  131.9945  151.1447 C   0  0  1  0  0  0  0  0  0  0  0  0
  143.6635  132.4122  149.7434 C   0  0  0  0  0  0  0  0  0  0  0  0
  145.1509  131.0231  151.0021 O   0  0  0  0  0  0  0  0  0  0  0  0
  145.5819  130.5077  152.2545 C   0  0  1  0  0  0  0  0  0  0  0  0
  146.6150  129.4075  151.9868 C   0  0  0  0  0  0  0  0  0  0  0  0
  146.1661  131.6593  153.0924 C   0  0  0  0  0  0  0  0  0  0  0  0
  148.1481  137.0914  159.5937 N   0  0  0  0  0  0  0  0  0  0  0  0
  148.1527  137.1637  160.9916 O   0  0  0  0  0  0  0  0  0  0  0  0
  147.5339  134.7987  163.2756 H   0  0  0  0  0  0  0  0  0  0  0  0
  147.0193  136.4825  163.3992 H   0  0  0  0  0  0  0  0  0  0  0  0
  148.7383  136.0806  163.4145 H   0  0  0  0  0  0  0  0  0  0  0  0
  147.3081  134.0208  160.5742 H   0  0  0  0  0  0  0  0  0  0  0  0
  148.2829  135.9099  157.3051 H   0  0  0  0  0  0  0  0  0  0  0  0
  147.8261  134.8607  155.6955 H   0  0  0  0  0  0  0  0  0  0  0  0
  147.2995  132.5560  154.9564 H   0  0  0  0  0  0  0  0  0  0  0  0
  145.8969  132.6194  155.9832 H   0  0  0  0  0  0  0  0  0  0  0  0
  146.2939  134.4889  153.5845 H   0  0  0  0  0  0  0  0  0  0  0  0
  144.9395  135.4728  155.4571 H   0  0  0  0  0  0  0  0  0  0  0  0
  143.8254  134.1190  155.3482 H   0  0  0  0  0  0  0  0  0  0  0  0
  144.0030  135.2616  154.0104 H   0  0  0  0  0  0  0  0  0  0  0  0
  143.8376  133.8959  152.0781 H   0  0  0  0  0  0  0  0  0  0  0  0
  145.4555  133.6946  151.4158 H   0  0  0  0  0  0  0  0  0  0  0  0
  143.2751  131.5457  151.6653 H   0  0  0  0  0  0  0  0  0  0  0  0
  142.8695  133.1576  149.7962 H   0  0  0  0  0  0  0  0  0  0  0  0
  143.2779  131.5562  149.1891 H   0  0  0  0  0  0  0  0  0  0  0  0
  144.4857  132.8384  149.1677 H   0  0  0  0  0  0  0  0  0  0  0  0
  144.7319  130.0649  152.7768 H   0  0  0  0  0  0  0  0  0  0  0  0
  146.9731  128.9691  152.9188 H   0  0  0  0  0  0  0  0  0  0  0  0
  147.4782  129.7989  151.4478 H   0  0  0  0  0  0  0  0  0  0  0  0
  146.1837  128.6052  151.3876 H   0  0  0  0  0  0  0  0  0  0  0  0
  147.0489  132.0678  152.5974 H   0  0  0  0  0  0  0  0  0  0  0  0
  146.5019  131.2584  154.0469 H   0  0  0  0  0  0  0  0  0  0  0  0
  144.3727  132.3315  153.7593 H   0  0  0  0  0  0  0  0  0  0  0  0
  1  2  1  0  0  0  0
  1 22  1  0  0  0  0
  1 23  1  0  0  0  0
  1 24  1  0  0  0  0
  2 21  1  0  0  0  0
  2  3  2  0  0  0  0
  3  4  1  0  0  0  0
  3 25  1  0  0  0  0
  4  5  1  0  0  0  0
  4 20  2  0  0  0  0
  5  6  1  0  0  0  0
  5 26  1  0  0  0  0
  6  7  2  0  0  0  0
  6  8  1  0  0  0  0
  8  9  1  0  0  0  0
  8 27  1  0  0  0  0
  9 10  1  0  0  0  0
  9 28  1  0  0  0  0
  9 29  1  0  0  0  0
 10 11  1  0  0  0  0
 10 12  1  0  0  0  0
 10 30  1  0  0  0  0
 11 31  1  0  0  0  0
 11 32  1  0  0  0  0
 11 33  1  0  0  0  0
 12 19  1  0  0  0  0
 12 13  1  0  0  0  0
 12 46  1  0  0  0  0
 13 14  1  0  0  0  0
 13 34  1  0  0  0  0
 13 35  1  0  0  0  0
 14 15  1  0  0  0  0
 14 16  1  0  0  0  0
 14 36  1  0  0  0  0
 15 37  1  0  0  0  0
 15 38  1  0  0  0  0
 15 39  1  0  0  0  0
 16 17  1  0  0  0  0
 17 18  1  0  0  0  0
 17 19  1  0  0  0  0
 17 40  1  0  0  0  0
 18 41  1  0  0  0  0
 18 42  1  0  0  0  0
 18 43  1  0  0  0  0
 19 44  1  0  0  0  0
 19 45  1  0  0  0  0
 20 21  1  0  0  0  0
M  CHG  1  12   1
M  END
> <s_m_source_file>
AV-unprocessed.smi

> <i_m_source_file_index>
2061

> <i_lp_mmshare_version>
43012

> <i_f3d_flags>
0

> <s_epik_input>
W0NIM11jMVtjSF1jKG5vMSlbTkhdQyg9TylbTkhdW0NIMl1bQ0BIXShbQ0gzXSlOMltDSDJdW0NAQEhdKFtDSDNdKU9bQ0BASF0oW0NIM10pW0NIMl0y

> <s_epik_cmdline>
J2VwaWtfcHl0aG9uJywgJy1waCcsICc3LjAnLCAnLXRuJywgJzgnLCAnLW1hJywgJzIwMCcsICctbWV0YWxfYmluZGluZycsICctaW1hZScsICc8aW5maWxlLm1hZT4nLCAnLW9tYWUnLCAnPG91dGZpbGUubWFlPic=

> <r_epik_Ionization_Penalty>
0.707076

> <r_epik_Ionization_Penalty_Charging>
0.707039

> <r_epik_Ionization_Penalty_Neutral>
3.6548e-05

> <r_epik_State_Penalty>
0.730276

> <r_epik_Charging_Adjusted_Penalty>
1.43732

> <i_epik_Tot_Q>
1

> <i_epik_Tot_abs_Q>
1

> <r_epik_Metal_State_Penalty>
0.743132

> <b_epik_Metal_Only>
0

> <s_lp_Force_Field>
OPLS_2005

> <r_lp_Energy>
18.102

> <b_lp_Chiralities_Consistent>
1

> <s_lp_Variant>
AV-unprocessed.smi:2061-7

> <Gold.Version>
5.8.1

> <Gold.Id.Protein>
6NUR|6NUR_protein|mol2

> <Gold.PLP.Fitness>
39.1746

> <Gold.PLP.PLP>
-30.1108

> <Gold.PLP.part.hbond>
-3.1902

> <Gold.PLP.part.metal>
0.0000

> <Gold.PLP.part.buried>
-4.9228

> <Gold.PLP.part.nonpolar>
-23.3328

> <Gold.PLP.part.repulsive>
0.1505

> <Gold.PLP.ligand.clash>
0.0000

> <Gold.PLP.ligand.torsion>
0.4588

> <Gold.PLP.Chemscore.Hbond>
3.3095

> <Gold.PLP.Chemscore.CHOScore>
0.0000

> <Gold.PLP.Chemscore.Metal>
0.0000

> <Gold.Chemscore.Hbonds>
donor molecule, donor type, donor heavy atom, donor atom, acceptor molecule, acceptor atom, score
      L1  H    12    46       P1 10957  1.79
      P1  H  6931  6943       L1    21  0.98
      P1  H  6934  6947       L1    21  0.31

> <Gold.PLP.Chemscore.Internal.Correction>
0.0529

> <Gold.Rescore>
     Score         DG    S(hbond)    S(metal)    S(lipo)     H(rot)  DE(clash)    DE(int)     intcor
     14.06     -15.56       1.66        0.00      73.51       1.58       0.02       1.48       ----

> <Gold.Chemscore.Fitness>
14.0580

> <Gold.Chemscore.DG>
-15.5608

> <Gold.Chemscore.ZeroCoef>
-5.4800

> <Gold.Chemscore.Hbond>
1.6569

> <Gold.Chemscore.Metal>
0.0000

> <Gold.Chemscore.Lipo>
73.5068

> <Gold.Chemscore.Internal_Hbond>
0.0000

> <Gold.Chemscore.DEClash>
0.0246

> <Gold.Chemscore.DEInternal>
1.4782

> <Gold.Chemscore.Rot>
1.5834

> <Gold.Chemscore.Internal.Correction>
   9.000000E+99

> <Gold.Chemscore.Hbonds>
donor molecule, donor type, donor heavy atom, donor atom, acceptor molecule, acceptor atom, score
      L1  H    12    46       P1 10957  0.19
      P1  H  6931  6943       L1    21  0.92
      P1  H  6934  6947       L1    21  0.02

> <Gold.Chemscore.Hbond.Weighted>
-5.5339

> <Gold.Chemscore.Metal.Weighted>
-0.0000

> <Gold.Chemscore.Lipo.Weighted>
-8.6003

> <Gold.Chemscore.Internal_Hbond.Weighted>
0.0000

> <Gold.Chemscore.DEClash.Weighted>
0.0246

> <Gold.Chemscore.DEInternal.Weighted>
1.4782

> <Gold.Chemscore.Rot.Weighted>
4.0535

> <Gold.Chemscore.Internal.Correction.Weighted>
   9.000000E+99

> <Gold.Protein.RotatedTorsions>
[ 6907 6896 6895 6894 ] final -145.98 input  -60.11 | X-H torsion
[ 7974 7965 7964 7962 ] final   60.31 input  175.53 | X-H torsion
[ 8008 7997 7996 7995 ] final  -95.12 input   59.86 | X-H torsion
[ 10167 10162 10161 10158 ] final  111.63 input  -65.29 | X-H torsion
[ 10718 10713 10712 10709 ] final  -29.98 input   66.30 | X-H torsion
[ 10763 10752 10751 10750 ] final   82.18 input  -60.55 | X-H torsion
[ 11005 11000 10999 10996 ] final  -46.84 input  -57.11 | X-H torsion

> <Gold.Protein.ActiveResidues>
 VAL166  LYS551  ARG553  GLY616  TRP617  ASP618  TYR619  PRO620  LYS621  CYS622 
 ASP623  PHE694  ASN695  SER759  ASP760  ASP761  ALA762  ILE779  LEU786  VAL792 
 PHE793  MET794  SER795  GLU796  ALA797  LYS798  CYS799  TRP800  GLU811  SER814 

> <Gold.Protein.RotatedAtoms>
  151.1353  133.5009  159.2597 H   0  0  0  0  0  0  0  0  0  0  0  0  # atno 6907 bound_to 6896
  151.1713  135.0319  159.8763 H   0  0  0  0  0  0  0  0  0  0  0  0  # atno 6908 bound_to 6896
  152.5461  134.1216  159.8454 H   0  0  0  0  0  0  0  0  0  0  0  0  # atno 6909 bound_to 6896
  145.8975  139.3556  143.0612 H   0  0  0  0  0  0  0  0  0  0  0  0  # atno 7974 bound_to 7965
  154.7572  140.0483  157.0943 H   0  0  0  0  0  0  0  0  0  0  0  0  # atno 8008 bound_to 7997
  154.9983  140.3121  155.4858 H   0  0  0  0  0  0  0  0  0  0  0  0  # atno 8009 bound_to 7997
  156.2897  140.2206  156.5091 H   0  0  0  0  0  0  0  0  0  0  0  0  # atno 8010 bound_to 7997
  139.6597  144.7129  151.1889 H   0  0  0  0  0  0  0  0  0  0  0  0  # atno 10167 bound_to 10162
  156.4055  130.4398  149.7290 H   0  0  0  0  0  0  0  0  0  0  0  0  # atno 10718 bound_to 10713
  153.1180  135.4738  154.9148 H   0  0  0  0  0  0  0  0  0  0  0  0  # atno 10763 bound_to 10752
  154.7548  135.3115  154.8493 H   0  0  0  0  0  0  0  0  0  0  0  0  # atno 10764 bound_to 10752
  153.9065  135.6869  153.4806 H   0  0  0  0  0  0  0  0  0  0  0  0  # atno 10765 bound_to 10752
  141.0604  133.6711  156.3213 H   0  0  0  0  0  0  0  0  0  0  0  0  # atno 11005 bound_to 11000
  145.8833  140.9349  143.0590 LP  0  0  0  0  0  0  0  0  0  0  0  0  # atno 17320 bound_to 7965
  144.6734  140.0808  143.7469 LP  0  0  0  0  0  0  0  0  0  0  0  0  # atno 17321 bound_to 7965
  140.7574  143.6015  150.8695 LP  0  0  0  0  0  0  0  0  0  0  0  0  # atno 17342 bound_to 10162
  139.9671  143.6098  152.2985 LP  0  0  0  0  0  0  0  0  0  0  0  0  # atno 17343 bound_to 10162
  156.4290  130.7805  151.2825 LP  0  0  0  0  0  0  0  0  0  0  0  0  # atno 17370 bound_to 10713
  157.7505  131.0160  150.3526 LP  0  0  0  0  0  0  0  0  0  0  0  0  # atno 17371 bound_to 10713
  140.5880  134.5679  157.5493 LP  0  0  0  0  0  0  0  0  0  0  0  0  # atno 17394 bound_to 11000
  139.9427  134.7757  156.0637 LP  0  0  0  0  0  0  0  0  0  0  0  0  # atno 17395 bound_to 11000

$$$$
