AV-unprocessed.smi:2511|AV-procd|sdf|9887|dock2
  -GOLD-   2272013523D 1   1.00000     0.00000
 Structure written by MMmdl.
 40 41  0  0  0  0  0  0  0  0  1 V2000
  144.5231  133.8884  155.9287 N   0  0  0  0  0  0  0  0  0  0  0  0
  145.5839  134.0906  155.1398 C   0  0  0  0  0  0  0  0  0  0  0  0
  145.7543  133.4595  154.0978 O   0  0  0  0  0  0  0  0  0  0  0  0
  146.5416  135.1691  155.5711 C   0  0  0  0  0  0  0  0  0  0  0  0
  146.3877  135.7838  156.8346 C   0  0  0  0  0  0  0  0  0  0  0  0
  147.2866  136.7972  157.2188 C   0  0  0  0  0  0  0  0  0  0  0  0
  148.3202  137.1684  156.3274 C   0  0  0  0  0  0  0  0  0  0  0  0
  149.2801  138.1833  156.5863 N   0  0  0  0  0  0  0  0  0  0  0  0
  149.6425  138.7256  157.7658 C   0  0  0  0  0  0  0  0  0  0  0  0
  149.1624  138.4200  158.8550 O   0  0  0  0  0  0  0  0  0  0  0  0
  150.6191  139.6467  157.6726 N   0  0  0  0  0  0  0  0  0  0  0  0
  151.2456  140.4244  158.7443 C   0  0  1  0  0  0  0  0  0  0  0  0
  152.7038  139.9647  158.9218 C   0  0  0  0  0  0  0  0  0  0  0  0
  153.4246  140.7934  159.9952 C   0  0  0  0  0  0  0  0  0  0  0  0
  153.3578  142.2955  159.6790 C   0  0  0  0  0  0  0  0  0  0  0  0
  151.9014  142.7768  159.5100 C   0  0  1  0  0  0  0  0  0  0  0  0
  151.8220  144.2880  159.2103 C   0  0  0  0  0  0  0  0  0  0  0  0
  152.5639  144.6012  158.1476 F   0  0  0  0  0  0  0  0  0  0  0  0
  150.5584  144.6407  158.9731 F   0  0  0  0  0  0  0  0  0  0  0  0
  152.2571  144.9847  160.2604 F   0  0  0  0  0  0  0  0  0  0  0  0
  151.1870  141.9353  158.4309 C   0  0  0  0  0  0  0  0  0  0  0  0
  148.3780  136.5105  155.0824 C   0  0  0  0  0  0  0  0  0  0  0  0
  147.5209  135.5372  154.7095 N   0  0  0  0  0  0  0  0  0  0  0  0
  143.8473  133.1769  155.6924 H   0  0  0  0  0  0  0  0  0  0  0  0
  144.4082  134.4507  156.7597 H   0  0  0  0  0  0  0  0  0  0  0  0
  145.5940  135.4892  157.5059 H   0  0  0  0  0  0  0  0  0  0  0  0
  147.1546  137.2730  158.1777 H   0  0  0  0  0  0  0  0  0  0  0  0
  149.8101  138.4890  155.7833 H   0  0  0  0  0  0  0  0  0  0  0  0
  150.9723  139.8261  156.7434 H   0  0  0  0  0  0  0  0  0  0  0  0
  150.7241  140.2333  159.6841 H   0  0  0  0  0  0  0  0  0  0  0  0
  152.7329  138.9087  159.1935 H   0  0  0  0  0  0  0  0  0  0  0  0
  153.2398  140.0556  157.9757 H   0  0  0  0  0  0  0  0  0  0  0  0
  152.9719  140.6040  160.9693 H   0  0  0  0  0  0  0  0  0  0  0  0
  154.4653  140.4766  160.0712 H   0  0  0  0  0  0  0  0  0  0  0  0
  153.8480  142.8541  160.4767 H   0  0  0  0  0  0  0  0  0  0  0  0
  153.9232  142.4995  158.7689 H   0  0  0  0  0  0  0  0  0  0  0  0
  151.3851  142.6066  160.4564 H   0  0  0  0  0  0  0  0  0  0  0  0
  151.6433  142.1247  157.4582 H   0  0  0  0  0  0  0  0  0  0  0  0
  150.1485  142.2561  158.3472 H   0  0  0  0  0  0  0  0  0  0  0  0
  149.1402  136.7690  154.3615 H   0  0  0  0  0  0  0  0  0  0  0  0
  1  2  1  0  0  0  0
  1 24  1  0  0  0  0
  1 25  1  0  0  0  0
  2  3  2  0  0  0  0
  2  4  1  0  0  0  0
  4 23  1  0  0  0  0
  4  5  2  0  0  0  0
  5  6  1  0  0  0  0
  5 26  1  0  0  0  0
  6  7  2  0  0  0  0
  6 27  1  0  0  0  0
  7  8  1  0  0  0  0
  7 22  1  0  0  0  0
  8  9  1  0  0  0  0
  8 28  1  0  0  0  0
  9 10  2  0  0  0  0
  9 11  1  0  0  0  0
 11 12  1  0  0  0  0
 11 29  1  0  0  0  0
 12 21  1  0  0  0  0
 12 13  1  0  0  0  0
 12 30  1  0  0  0  0
 13 14  1  0  0  0  0
 13 31  1  0  0  0  0
 13 32  1  0  0  0  0
 14 15  1  0  0  0  0
 14 33  1  0  0  0  0
 14 34  1  0  0  0  0
 15 16  1  0  0  0  0
 15 35  1  0  0  0  0
 15 36  1  0  0  0  0
 16 17  1  0  0  0  0
 16 21  1  0  0  0  0
 16 37  1  0  0  0  0
 17 18  1  0  0  0  0
 17 19  1  0  0  0  0
 17 20  1  0  0  0  0
 21 38  1  0  0  0  0
 21 39  1  0  0  0  0
 22 23  2  0  0  0  0
 22 40  1  0  0  0  0
M  END
> <s_m_source_file>
AV-unprocessed.smi

> <i_m_source_file_index>
2511

> <i_lp_mmshare_version>
43012

> <i_f3d_flags>
0

> <s_epik_input>
W05IMl1DKD1PKWMxW2NIXVtjSF1jKFtjSF1uMSlbTkhdQyg9TylbTkhdW0NAQEhdMltDSDJdW0NIMl1bQ0gyXVtDQEBIXShDKEYpKEYpRilbQ0gyXTI=

> <s_epik_cmdline>
J2VwaWtfcHl0aG9uJywgJy1waCcsICc3LjAnLCAnLXRuJywgJzgnLCAnLW1hJywgJzIwMCcsICctbWV0YWxfYmluZGluZycsICctaW1hZScsICc8aW5maWxlLm1hZT4nLCAnLW9tYWUnLCAnPG91dGZpbGUubWFlPic=

> <r_lp_tautomer_probability>
1

> <r_epik_Ionization_Penalty>
4.28758e-05

> <r_epik_Ionization_Penalty_Charging>
0

> <r_epik_Ionization_Penalty_Neutral>
4.28758e-05

> <r_epik_State_Penalty>
-0

> <r_epik_Charging_Adjusted_Penalty>
0

> <i_epik_Tot_Q>
0

> <i_epik_Tot_abs_Q>
0

> <r_epik_Metal_State_Penalty>
-0

> <b_epik_Metal_Only>
0

> <s_lp_Force_Field>
OPLS_2005

> <r_lp_Energy>
28.5247

> <b_lp_Chiralities_Consistent>
1

> <s_lp_Variant>
AV-unprocessed.smi:2511-2

> <Gold.Version>
5.8.1

> <Gold.Id.Protein>
6NUR|6NUR_protein|mol2

> <Gold.PLP.Fitness>
39.6819

> <Gold.PLP.PLP>
-34.4607

> <Gold.PLP.part.hbond>
-2.0036

> <Gold.PLP.part.metal>
0.0000

> <Gold.PLP.part.buried>
-4.9196

> <Gold.PLP.part.nonpolar>
-27.8872

> <Gold.PLP.part.repulsive>
0.2599

> <Gold.PLP.ligand.clash>
0.0000

> <Gold.PLP.ligand.torsion>
0.2465

> <Gold.PLP.Chemscore.Hbond>
1.0000

> <Gold.PLP.Chemscore.CHOScore>
0.8967

> <Gold.PLP.Chemscore.Metal>
0.0000

> <Gold.Chemscore.Hbonds>
donor molecule, donor type, donor heavy atom, donor atom, acceptor molecule, acceptor atom, score
      L1  H     1    24       P1 10957  0.99
      L1  C    22    40       P1  7948  0.85

> <Gold.PLP.Chemscore.Internal.Correction>
0.0241

> <Gold.Rescore>
     Score         DG    S(hbond)    S(metal)    S(lipo)     H(rot)  DE(clash)    DE(int)     intcor
     12.73     -13.92       1.00        0.00      65.52       1.00       0.05       1.14       ----

> <Gold.Chemscore.Fitness>
12.7301

> <Gold.Chemscore.DG>
-13.9214

> <Gold.Chemscore.ZeroCoef>
-5.4800

> <Gold.Chemscore.Hbond>
0.9988

> <Gold.Chemscore.Metal>
0.0000

> <Gold.Chemscore.Lipo>
65.5153

> <Gold.Chemscore.Internal_Hbond>
0.0000

> <Gold.Chemscore.DEClash>
0.0488

> <Gold.Chemscore.DEInternal>
1.1425

> <Gold.Chemscore.Rot>
1.0000

> <Gold.Chemscore.Internal.Correction>
   9.000000E+99

> <Gold.Chemscore.Hbonds>
donor molecule, donor type, donor heavy atom, donor atom, acceptor molecule, acceptor atom, score
      L1  H     1    24       P1 10957  0.92

> <Gold.Chemscore.Hbond.Weighted>
-3.3361

> <Gold.Chemscore.Metal.Weighted>
-0.0000

> <Gold.Chemscore.Lipo.Weighted>
-7.6653

> <Gold.Chemscore.Internal_Hbond.Weighted>
0.0000

> <Gold.Chemscore.DEClash.Weighted>
0.0488

> <Gold.Chemscore.DEInternal.Weighted>
1.1425

> <Gold.Chemscore.Rot.Weighted>
2.5600

> <Gold.Chemscore.Internal.Correction.Weighted>
   9.000000E+99

> <Gold.Protein.RotatedTorsions>
[ 6907 6896 6895 6894 ] final  104.22 input  -60.11 | X-H torsion
[ 7974 7965 7964 7962 ] final  144.40 input  175.53 | X-H torsion
[ 8008 7997 7996 7995 ] final  -42.71 input   59.86 | X-H torsion
[ 10167 10162 10161 10158 ] final  162.94 input  -65.29 | X-H torsion
[ 10718 10713 10712 10709 ] final  148.30 input   66.30 | X-H torsion
[ 10763 10752 10751 10750 ] final   81.76 input  -60.55 | X-H torsion
[ 11005 11000 10999 10996 ] final  -32.74 input  -57.11 | X-H torsion

> <Gold.Protein.ActiveResidues>
 VAL166  LYS551  ARG553  GLY616  TRP617  ASP618  TYR619  PRO620  LYS621  CYS622 
 ASP623  PHE694  ASN695  SER759  ASP760  ASP761  ALA762  ILE779  LEU786  VAL792 
 PHE793  MET794  SER795  GLU796  ALA797  LYS798  CYS799  TRP800  GLU811  SER814 

> <Gold.Protein.RotatedAtoms>
  152.5271  133.9708  159.7760 H   0  0  0  0  0  0  0  0  0  0  0  0  # atno 6907 bound_to 6896
  150.9981  133.6075  159.2706 H   0  0  0  0  0  0  0  0  0  0  0  0  # atno 6908 bound_to 6896
  151.3194  135.0821  159.9354 H   0  0  0  0  0  0  0  0  0  0  0  0  # atno 6909 bound_to 6896
  144.8839  139.5658  143.5830 H   0  0  0  0  0  0  0  0  0  0  0  0  # atno 7974 bound_to 7965
  154.3998  140.1466  156.3400 H   0  0  0  0  0  0  0  0  0  0  0  0  # atno 8008 bound_to 7997
  155.8365  140.3463  155.5584 H   0  0  0  0  0  0  0  0  0  0  0  0  # atno 8009 bound_to 7997
  155.8132  140.0887  157.1882 H   0  0  0  0  0  0  0  0  0  0  0  0  # atno 8010 bound_to 7997
  139.4867  144.4387  151.8979 H   0  0  0  0  0  0  0  0  0  0  0  0  # atno 10167 bound_to 10162
  157.3103  131.0886  151.1321 H   0  0  0  0  0  0  0  0  0  0  0  0  # atno 10718 bound_to 10713
  153.1144  135.4753  154.9090 H   0  0  0  0  0  0  0  0  0  0  0  0  # atno 10763 bound_to 10752
  154.7513  135.3107  154.8554 H   0  0  0  0  0  0  0  0  0  0  0  0  # atno 10764 bound_to 10752
  153.9135  135.6862  153.4803 H   0  0  0  0  0  0  0  0  0  0  0  0  # atno 10765 bound_to 10752
  140.9577  133.7183  156.1320 H   0  0  0  0  0  0  0  0  0  0  0  0  # atno 11005 bound_to 11000
  146.3012  139.7432  142.9090 LP  0  0  0  0  0  0  0  0  0  0  0  0  # atno 17320 bound_to 7965
  145.3905  141.0371  143.3127 LP  0  0  0  0  0  0  0  0  0  0  0  0  # atno 17321 bound_to 7965
  140.3838  144.2702  150.5906 LP  0  0  0  0  0  0  0  0  0  0  0  0  # atno 17342 bound_to 10162
  140.5209  143.2266  151.8390 LP  0  0  0  0  0  0  0  0  0  0  0  0  # atno 17343 bound_to 10162
  157.2646  130.6675  149.5990 LP  0  0  0  0  0  0  0  0  0  0  0  0  # atno 17370 bound_to 10713
  155.9677  130.4498  150.5672 LP  0  0  0  0  0  0  0  0  0  0  0  0  # atno 17371 bound_to 10713
  140.7512  134.4043  157.5541 LP  0  0  0  0  0  0  0  0  0  0  0  0  # atno 17394 bound_to 11000
  139.8868  134.8901  156.2566 LP  0  0  0  0  0  0  0  0  0  0  0  0  # atno 17395 bound_to 11000

$$$$
