AV-unprocessed.smi:1239|AV-procd|sdf|5192|dock1
  -GOLD-   22720 4273D 1   1.00000     0.00000
 Structure written by MMmdl.
 48 49  0  0  0  0  0  0  0  0  2 V2000
  146.1647  142.7354  153.8376 C   0  0  0  0  0  0  0  0  0  0  0  0
  146.2946  142.4794  155.3600 C   0  0  1  0  0  0  0  0  0  0  0  0
  145.3715  141.3069  155.7865 C   0  0  0  0  0  0  0  0  0  0  0  0
  145.1946  140.3208  154.7261 N   0  0  0  0  0  0  0  0  0  0  0  0
  145.6715  139.0699  154.7705 C   0  0  0  0  0  0  0  0  0  0  0  0
  146.3151  138.6309  155.7226 O   0  0  0  0  0  0  0  0  0  0  0  0
  145.3478  138.3901  153.6566 N   0  0  0  0  0  0  0  0  0  0  0  0
  145.6367  137.0435  153.2993 C   0  0  0  0  0  0  0  0  0  0  0  0
  145.9847  136.0156  154.2069 C   0  0  0  0  0  0  0  0  0  0  0  0
  146.2467  134.7241  153.7106 C   0  0  0  0  0  0  0  0  0  0  0  0
  146.1576  134.4816  152.3176 C   0  0  0  0  0  0  0  0  0  0  0  0
  146.4105  133.2016  151.7733 N   0  0  0  0  0  0  0  0  0  0  0  0
  146.1087  132.9362  150.3702 C   0  0  0  0  0  0  0  0  0  0  0  0
  147.0002  132.1561  152.6007 C   0  0  0  0  0  0  0  0  0  0  0  0
  145.8257  135.4711  151.4533 N   0  0  0  0  0  0  0  0  0  0  0  0
  145.5759  136.7069  151.9328 C   0  0  0  0  0  0  0  0  0  0  0  0
  147.7232  142.2525  155.7659 N   0  3  0  0  0  0  0  0  0  0  0  0
  147.8802  141.8456  157.1914 C   0  0  0  0  0  0  0  0  0  0  0  0
  149.3562  141.6245  157.5618 C   0  0  0  0  0  0  0  0  0  0  0  0
  149.9261  140.6537  156.6996 O   0  0  0  0  0  0  0  0  0  0  0  0
  149.9076  141.0945  155.3519 C   0  0  0  0  0  0  0  0  0  0  0  0
  148.4546  141.2939  154.8890 C   0  0  0  0  0  0  0  0  0  0  0  0
  145.1266  142.8263  153.5198 H   0  0  0  0  0  0  0  0  0  0  0  0
  146.6119  141.9251  153.2609 H   0  0  0  0  0  0  0  0  0  0  0  0
  146.6352  143.6694  153.5336 H   0  0  0  0  0  0  0  0  0  0  0  0
  145.9481  143.3766  155.8759 H   0  0  0  0  0  0  0  0  0  0  0  0
  145.7736  140.8171  156.6753 H   0  0  0  0  0  0  0  0  0  0  0  0
  144.3711  141.6597  156.0334 H   0  0  0  0  0  0  0  0  0  0  0  0
  144.6756  140.6080  153.9091 H   0  0  0  0  0  0  0  0  0  0  0  0
  144.8070  138.9016  152.9747 H   0  0  0  0  0  0  0  0  0  0  0  0
  146.0606  136.1778  155.2695 H   0  0  0  0  0  0  0  0  0  0  0  0
  146.5099  133.9462  154.4108 H   0  0  0  0  0  0  0  0  0  0  0  0
  145.0515  133.1083  150.1657 H   0  0  0  0  0  0  0  0  0  0  0  0
  146.3352  131.9039  150.1024 H   0  0  0  0  0  0  0  0  0  0  0  0
  146.6976  133.5865  149.7223 H   0  0  0  0  0  0  0  0  0  0  0  0
  147.9709  132.4722  152.9839 H   0  0  0  0  0  0  0  0  0  0  0  0
  147.1509  131.2374  152.0334 H   0  0  0  0  0  0  0  0  0  0  0  0
  146.3502  131.9225  153.4444 H   0  0  0  0  0  0  0  0  0  0  0  0
  145.3170  137.4528  151.1953 H   0  0  0  0  0  0  0  0  0  0  0  0
  147.4958  142.6119  157.8621 H   0  0  0  0  0  0  0  0  0  0  0  0
  147.3090  140.9346  157.3765 H   0  0  0  0  0  0  0  0  0  0  0  0
  149.9174  142.5587  157.5048 H   0  0  0  0  0  0  0  0  0  0  0  0
  149.4346  141.2700  158.5897 H   0  0  0  0  0  0  0  0  0  0  0  0
  150.4811  142.0169  155.2470 H   0  0  0  0  0  0  0  0  0  0  0  0
  150.3984  140.3451  154.7305 H   0  0  0  0  0  0  0  0  0  0  0  0
  147.9321  140.3361  154.8775 H   0  0  0  0  0  0  0  0  0  0  0  0
  148.4985  141.6533  153.8628 H   0  0  0  0  0  0  0  0  0  0  0  0
  148.1940  143.1412  155.6700 H   0  0  0  0  0  0  0  0  0  0  0  0
  1  2  1  0  0  0  0
  1 23  1  0  0  0  0
  1 24  1  0  0  0  0
  1 25  1  0  0  0  0
  2  3  1  0  0  0  0
  2 17  1  0  0  0  0
  2 26  1  0  0  0  0
  3  4  1  0  0  0  0
  3 27  1  0  0  0  0
  3 28  1  0  0  0  0
  4  5  1  0  0  0  0
  4 29  1  0  0  0  0
  5  6  2  0  0  0  0
  5  7  1  0  0  0  0
  7  8  1  0  0  0  0
  7 30  1  0  0  0  0
  8 16  1  0  0  0  0
  8  9  2  0  0  0  0
  9 10  1  0  0  0  0
  9 31  1  0  0  0  0
 10 11  2  0  0  0  0
 10 32  1  0  0  0  0
 11 12  1  0  0  0  0
 11 15  1  0  0  0  0
 12 13  1  0  0  0  0
 12 14  1  0  0  0  0
 13 33  1  0  0  0  0
 13 34  1  0  0  0  0
 13 35  1  0  0  0  0
 14 36  1  0  0  0  0
 14 37  1  0  0  0  0
 14 38  1  0  0  0  0
 15 16  2  0  0  0  0
 16 39  1  0  0  0  0
 17 22  1  0  0  0  0
 17 18  1  0  0  0  0
 17 48  1  0  0  0  0
 18 19  1  0  0  0  0
 18 40  1  0  0  0  0
 18 41  1  0  0  0  0
 19 20  1  0  0  0  0
 19 42  1  0  0  0  0
 19 43  1  0  0  0  0
 20 21  1  0  0  0  0
 21 22  1  0  0  0  0
 21 44  1  0  0  0  0
 21 45  1  0  0  0  0
 22 46  1  0  0  0  0
 22 47  1  0  0  0  0
M  CHG  1  17   1
M  END
> <s_m_source_file>
AV-unprocessed.smi

> <i_m_source_file_index>
1239

> <i_lp_mmshare_version>
43012

> <i_f3d_flags>
0

> <s_epik_input>
W0NIMl0xW0NIMl1PW0NIMl1bQ0gyXU4xW0NASF0oW0NIM10pW0NIMl1bTkhdQyg9TylbTkhdYzJbY0hdW2NIXWMoTihbQ0gzXSlbQ0gzXSluW2NIXTI=

> <s_epik_cmdline>
J2VwaWtfcHl0aG9uJywgJy1waCcsICc3LjAnLCAnLXRuJywgJzgnLCAnLW1hJywgJzIwMCcsICctbWV0YWxfYmluZGluZycsICctaW1hZScsICc8aW5maWxlLm1hZT4nLCAnLW9tYWUnLCAnPG91dGZpbGUubWFlPic=

> <r_epik_Ionization_Penalty>
1.1428

> <r_epik_Ionization_Penalty_Charging>
0.602531

> <r_epik_Ionization_Penalty_Neutral>
0.540271

> <r_epik_State_Penalty>
1.1888

> <r_epik_Charging_Adjusted_Penalty>
1.79133

> <i_epik_Tot_Q>
1

> <i_epik_Tot_abs_Q>
1

> <r_epik_Metal_State_Penalty>
0.936295

> <b_epik_Metal_Only>
0

> <s_lp_Force_Field>
OPLS_2005

> <r_lp_Energy>
25.9365

> <b_lp_Chiralities_Consistent>
1

> <s_lp_Variant>
AV-unprocessed.smi:1239-8

> <Gold.Version>
5.8.1

> <Gold.Id.Protein>
6NUR|6NUR_protein|mol2

> <Gold.PLP.Fitness>
44.1245

> <Gold.PLP.PLP>
-30.5180

> <Gold.PLP.part.hbond>
-3.0000

> <Gold.PLP.part.metal>
0.0000

> <Gold.PLP.part.buried>
-4.7266

> <Gold.PLP.part.nonpolar>
-23.9219

> <Gold.PLP.part.repulsive>
0.3320

> <Gold.PLP.ligand.clash>
0.0096

> <Gold.PLP.ligand.torsion>
0.7311

> <Gold.PLP.Chemscore.Hbond>
4.0000

> <Gold.PLP.Chemscore.CHOScore>
1.0000

> <Gold.PLP.Chemscore.Metal>
0.0000

> <Gold.Chemscore.Hbonds>
donor molecule, donor type, donor heavy atom, donor atom, acceptor molecule, acceptor atom, score
      L1  H     4    29       P1 10175  1.00
      L1  H     7    30       P1 10175  1.00
      L1  H    17    48       P1  8028  2.00
      L1  C    16    39       P1 10171  1.00

> <Gold.PLP.Chemscore.Internal.Correction>
0.0781

> <Gold.Rescore>
     Score         DG    S(hbond)    S(metal)    S(lipo)     H(rot)  DE(clash)    DE(int)     intcor
     16.93     -18.43       2.95        0.00      59.00       1.48       0.01       1.48       ----

> <Gold.Chemscore.Fitness>
16.9326

> <Gold.Chemscore.DG>
-18.4298

> <Gold.Chemscore.ZeroCoef>
-5.4800

> <Gold.Chemscore.Hbond>
2.9471

> <Gold.Chemscore.Metal>
0.0000

> <Gold.Chemscore.Lipo>
58.9986

> <Gold.Chemscore.Internal_Hbond>
0.0000

> <Gold.Chemscore.DEClash>
0.0131

> <Gold.Chemscore.DEInternal>
1.4840

> <Gold.Chemscore.Rot>
1.4830

> <Gold.Chemscore.Internal.Correction>
   9.000000E+99

> <Gold.Chemscore.Hbonds>
donor molecule, donor type, donor heavy atom, donor atom, acceptor molecule, acceptor atom, score
      L1  H     4    29       P1 10175  0.99
      L1  H     7    30       P1 10175  0.92
      L1  H    17    48       P1  8028  0.88

> <Gold.Chemscore.Hbond.Weighted>
-9.8433

> <Gold.Chemscore.Metal.Weighted>
-0.0000

> <Gold.Chemscore.Lipo.Weighted>
-6.9028

> <Gold.Chemscore.Internal_Hbond.Weighted>
0.0000

> <Gold.Chemscore.DEClash.Weighted>
0.0131

> <Gold.Chemscore.DEInternal.Weighted>
1.4840

> <Gold.Chemscore.Rot.Weighted>
3.7964

> <Gold.Chemscore.Internal.Correction.Weighted>
   9.000000E+99

> <Gold.Protein.RotatedTorsions>
[ 6907 6896 6895 6894 ] final   72.32 input  -60.11 | X-H torsion
[ 7974 7965 7964 7962 ] final   12.21 input  175.53 | X-H torsion
[ 8008 7997 7996 7995 ] final  -54.80 input   59.86 | X-H torsion
[ 10167 10162 10161 10158 ] final   72.00 input  -65.29 | X-H torsion
[ 10718 10713 10712 10709 ] final  120.89 input   66.30 | X-H torsion
[ 10763 10752 10751 10750 ] final  122.81 input  -60.55 | X-H torsion
[ 11005 11000 10999 10996 ] final -114.57 input  -57.11 | X-H torsion

> <Gold.Protein.ActiveResidues>
 VAL166  LYS551  ARG553  GLY616  TRP617  ASP618  TYR619  PRO620  LYS621  CYS622 
 ASP623  PHE694  ASN695  SER759  ASP760  ASP761  ALA762  ILE779  LEU786  VAL792 
 PHE793  MET794  SER795  GLU796  ALA797  LYS798  CYS799  TRP800  GLU811  SER814 

> <Gold.Protein.RotatedAtoms>
  152.4861  134.4589  159.9598 H   0  0  0  0  0  0  0  0  0  0  0  0  # atno 6907 bound_to 6896
  151.4585  133.3593  159.2813 H   0  0  0  0  0  0  0  0  0  0  0  0  # atno 6908 bound_to 6896
  150.8973  134.8407  159.7396 H   0  0  0  0  0  0  0  0  0  0  0  0  # atno 6909 bound_to 6896
  146.2356  139.9371  142.8488 H   0  0  0  0  0  0  0  0  0  0  0  0  # atno 7974 bound_to 7965
  154.4174  140.1168  156.5374 H   0  0  0  0  0  0  0  0  0  0  0  0  # atno 8008 bound_to 7997
  155.6543  140.3496  155.4740 H   0  0  0  0  0  0  0  0  0  0  0  0  # atno 8009 bound_to 7997
  155.9766  140.1152  157.0754 H   0  0  0  0  0  0  0  0  0  0  0  0  # atno 8010 bound_to 7997
  140.0400  144.5397  150.7442 H   0  0  0  0  0  0  0  0  0  0  0  0  # atno 10167 bound_to 10162
  157.5858  131.1070  150.8098 H   0  0  0  0  0  0  0  0  0  0  0  0  # atno 10718 bound_to 10713
  153.6356  135.3388  155.3055 H   0  0  0  0  0  0  0  0  0  0  0  0  # atno 10763 bound_to 10752
  154.8571  135.4306  154.2059 H   0  0  0  0  0  0  0  0  0  0  0  0  # atno 10764 bound_to 10752
  153.2965  135.7021  153.7317 H   0  0  0  0  0  0  0  0  0  0  0  0  # atno 10765 bound_to 10752
  141.0543  133.9637  157.2781 H   0  0  0  0  0  0  0  0  0  0  0  0  # atno 11005 bound_to 11000
  145.1988  140.9845  143.4168 LP  0  0  0  0  0  0  0  0  0  0  0  0  # atno 17320 bound_to 7965
  144.9792  139.3801  143.6270 LP  0  0  0  0  0  0  0  0  0  0  0  0  # atno 17321 bound_to 7965
  140.7264  143.2641  151.4104 LP  0  0  0  0  0  0  0  0  0  0  0  0  # atno 17342 bound_to 10162
  139.6020  144.1275  152.2208 LP  0  0  0  0  0  0  0  0  0  0  0  0  # atno 17343 bound_to 10162
  156.8533  130.5088  149.5310 LP  0  0  0  0  0  0  0  0  0  0  0  0  # atno 17370 bound_to 10713
  156.0907  130.5893  150.9727 LP  0  0  0  0  0  0  0  0  0  0  0  0  # atno 17371 bound_to 10713
  139.9377  135.0195  156.8609 LP  0  0  0  0  0  0  0  0  0  0  0  0  # atno 17394 bound_to 11000
  140.5994  134.0186  155.7531 LP  0  0  0  0  0  0  0  0  0  0  0  0  # atno 17395 bound_to 11000

$$$$
