AV-unprocessed.smi:528|AV-procd|sdf|2831|dock9
  -GOLD-   2262023323D 1   1.00000     0.00000
 Structure written by MMmdl.
 45 47  0  0  0  0  0  0  0  0  1 V2000
  153.1831  142.8945  162.8063 C   0  0  0  0  0  0  0  0  0  0  0  0
  152.5003  142.5117  161.4840 C   0  0  2  0  0  0  0  0  0  0  0  0
  152.9507  141.1787  161.0884 N   0  0  0  0  0  0  0  0  0  0  0  0
  154.1590  140.8693  160.5925 C   0  0  0  0  0  0  0  0  0  0  0  0
  155.0316  141.7069  160.3599 O   0  0  0  0  0  0  0  0  0  0  0  0
  154.4079  139.3808  160.3156 C   0  0  0  0  0  0  0  0  0  0  0  0
  154.5448  138.5905  161.5497 N   0  0  0  0  0  0  0  0  0  0  0  0
  155.2129  139.2110  162.6235 C   0  0  0  0  0  0  0  0  0  0  0  0
  155.4138  138.6074  163.8103 C   0  0  0  0  0  0  0  0  0  0  0  0
  156.1960  139.2826  164.9259 C   0  0  0  0  0  0  0  0  0  0  0  0
  156.3034  138.4858  165.9893 F   0  0  0  0  0  0  0  0  0  0  0  0
  157.4240  139.6097  164.5213 F   0  0  0  0  0  0  0  0  0  0  0  0
  155.5737  140.3984  165.3036 F   0  0  0  0  0  0  0  0  0  0  0  0
  154.9265  137.2475  163.9321 C   0  0  0  0  0  0  0  0  0  0  0  0
  154.2980  136.6341  162.9099 C   0  0  0  0  0  0  0  0  0  0  0  0
  154.0771  137.3089  161.6286 C   0  0  0  0  0  0  0  0  0  0  0  0
  153.5102  136.7550  160.6867 O   0  0  0  0  0  0  0  0  0  0  0  0
  152.8065  143.5233  160.3538 C   0  0  2  0  0  0  0  0  0  0  0  0
  151.9580  144.8147  160.3846 C   0  0  0  0  0  0  0  0  0  0  0  0
  151.4540  144.9339  158.9337 C   0  0  2  0  0  0  0  0  0  0  0  0
  150.3517  143.8860  158.6964 C   0  0  0  0  0  0  0  0  0  0  0  0
  151.1444  142.5676  158.6529 C   0  0  0  0  0  0  0  0  0  0  0  0
  152.5957  143.0308  158.8990 C   0  0  1  0  0  0  0  0  0  0  0  0
  152.6163  144.3520  158.1370 C   0  0  0  0  0  0  0  0  0  0  0  0
  152.8491  143.8707  163.1582 H   0  0  0  0  0  0  0  0  0  0  0  0
  154.2674  142.9336  162.6978 H   0  0  0  0  0  0  0  0  0  0  0  0
  152.9529  142.1708  163.5891 H   0  0  0  0  0  0  0  0  0  0  0  0
  151.4251  142.5084  161.6669 H   0  0  0  0  0  0  0  0  0  0  0  0
  152.2973  140.4230  161.2340 H   0  0  0  0  0  0  0  0  0  0  0  0
  153.5858  138.9799  159.7197 H   0  0  0  0  0  0  0  0  0  0  0  0
  155.2901  139.2888  159.6801 H   0  0  0  0  0  0  0  0  0  0  0  0
  155.5646  140.2111  162.4130 H   0  0  0  0  0  0  0  0  0  0  0  0
  155.0643  136.7115  164.8595 H   0  0  0  0  0  0  0  0  0  0  0  0
  153.9466  135.6206  163.0367 H   0  0  0  0  0  0  0  0  0  0  0  0
  153.8563  143.8091  160.4452 H   0  0  0  0  0  0  0  0  0  0  0  0
  151.1310  144.7668  161.0941 H   0  0  0  0  0  0  0  0  0  0  0  0
  152.5764  145.6710  160.6567 H   0  0  0  0  0  0  0  0  0  0  0  0
  151.1614  145.9463  158.6536 H   0  0  0  0  0  0  0  0  0  0  0  0
  149.5971  143.8917  159.4837 H   0  0  0  0  0  0  0  0  0  0  0  0
  149.8455  144.0600  157.7460 H   0  0  0  0  0  0  0  0  0  0  0  0
  150.7899  141.8408  159.3821 H   0  0  0  0  0  0  0  0  0  0  0  0
  151.0553  142.1059  157.6686 H   0  0  0  0  0  0  0  0  0  0  0  0
  153.3437  142.3090  158.5691 H   0  0  0  0  0  0  0  0  0  0  0  0
  152.4001  144.2431  157.0725 H   0  0  0  0  0  0  0  0  0  0  0  0
  153.5462  144.9106  158.2572 H   0  0  0  0  0  0  0  0  0  0  0  0
  1  2  1  0  0  0  0
  1 25  1  0  0  0  0
  1 26  1  0  0  0  0
  1 27  1  0  0  0  0
  2  3  1  0  0  0  0
  2 18  1  0  0  0  0
  2 28  1  0  0  0  0
  3  4  1  0  0  0  0
  3 29  1  0  0  0  0
  4  5  2  0  0  0  0
  4  6  1  0  0  0  0
  6  7  1  0  0  0  0
  6 30  1  0  0  0  0
  6 31  1  0  0  0  0
  7 16  1  0  0  0  0
  7  8  1  0  0  0  0
  8  9  2  0  0  0  0
  8 32  1  0  0  0  0
  9 10  1  0  0  0  0
  9 14  1  0  0  0  0
 10 11  1  0  0  0  0
 10 12  1  0  0  0  0
 10 13  1  0  0  0  0
 14 15  2  0  0  0  0
 14 33  1  0  0  0  0
 15 16  1  0  0  0  0
 15 34  1  0  0  0  0
 16 17  2  0  0  0  0
 18 23  1  0  0  0  0
 18 19  1  0  0  0  0
 18 35  1  0  0  0  0
 19 20  1  0  0  0  0
 19 36  1  0  0  0  0
 19 37  1  0  0  0  0
 20 24  1  0  0  0  0
 20 21  1  0  0  0  0
 20 38  1  0  0  0  0
 21 22  1  0  0  0  0
 21 39  1  0  0  0  0
 21 40  1  0  0  0  0
 22 23  1  0  0  0  0
 22 41  1  0  0  0  0
 22 42  1  0  0  0  0
 23 24  1  0  0  0  0
 23 43  1  0  0  0  0
 24 44  1  0  0  0  0
 24 45  1  0  0  0  0
M  END
> <s_m_source_file>
AV-unprocessed.smi

> <i_m_source_file_index>
528

> <i_lp_mmshare_version>
43012

> <i_f3d_flags>
0

> <s_epik_input>
W0NIMl0xW0NIMl1bQ0BASF0oW0NIMl0yKVtDQEBIXShbQ0gyXVtDQEhdMTIpW0NASF0oW0NIM10pW05IXUMoPU8pW0NIMl1uM1tjSF1jKEMoRikoRilGKVtjSF1bY0hdYzM9Tw==

> <s_epik_cmdline>
J2VwaWtfcHl0aG9uJywgJy1waCcsICc3LjAnLCAnLXRuJywgJzgnLCAnLW1hJywgJzIwMCcsICctbWV0YWxfYmluZGluZycsICctaW1hZScsICc8aW5maWxlLm1hZT4nLCAnLW9tYWUnLCAnPG91dGZpbGUubWFlPic=

> <r_lp_tautomer_probability>
1

> <r_epik_Ionization_Penalty>
4.09479e-08

> <r_epik_Ionization_Penalty_Charging>
1.9321e-08

> <r_epik_Ionization_Penalty_Neutral>
2.16269e-08

> <r_epik_State_Penalty>
-0

> <r_epik_Charging_Adjusted_Penalty>
1.9321e-08

> <i_epik_Tot_Q>
0

> <i_epik_Tot_abs_Q>
0

> <r_epik_Metal_State_Penalty>
-0

> <b_epik_Metal_Only>
0

> <s_lp_Force_Field>
OPLS_2005

> <r_lp_Energy>
62.8802

> <b_lp_Chiralities_Consistent>
1

> <s_lp_Variant>
AV-unprocessed.smi:528-1

> <Gold.Version>
5.8.1

> <Gold.Id.Protein>
6NUR|6NUR_protein|mol2

> <Gold.PLP.Fitness>
53.8532

> <Gold.PLP.PLP>
-52.8191

> <Gold.PLP.part.hbond>
-1.8906

> <Gold.PLP.part.metal>
0.0000

> <Gold.PLP.part.buried>
-3.7785

> <Gold.PLP.part.nonpolar>
-48.5050

> <Gold.PLP.part.repulsive>
0.1193

> <Gold.PLP.ligand.clash>
0.0000

> <Gold.PLP.ligand.torsion>
0.9965

> <Gold.PLP.Chemscore.Hbond>
0.9913

> <Gold.PLP.Chemscore.CHOScore>
0.0000

> <Gold.PLP.Chemscore.Metal>
0.0000

> <Gold.Chemscore.Hbonds>
donor molecule, donor type, donor heavy atom, donor atom, acceptor molecule, acceptor atom, score
      P1  H  6896  6907       L1    17  0.26

> <Gold.PLP.Chemscore.Internal.Correction>
0.0534

> <Gold.Rescore>
     Score         DG    S(hbond)    S(metal)    S(lipo)     H(rot)  DE(clash)    DE(int)     intcor
     18.70     -21.30       0.99        0.00     144.41       1.71       0.42       2.18       ----

> <Gold.Chemscore.Fitness>
18.7000

> <Gold.Chemscore.DG>
-21.2965

> <Gold.Chemscore.ZeroCoef>
-5.4800

> <Gold.Chemscore.Hbond>
0.9893

> <Gold.Chemscore.Metal>
0.0000

> <Gold.Chemscore.Lipo>
144.4109

> <Gold.Chemscore.Internal_Hbond>
0.0000

> <Gold.Chemscore.DEClash>
0.4207

> <Gold.Chemscore.DEInternal>
2.1759

> <Gold.Chemscore.Rot>
1.7125

> <Gold.Chemscore.Internal.Correction>
   9.000000E+99

> <Gold.Chemscore.Hbonds>
donor molecule, donor type, donor heavy atom, donor atom, acceptor molecule, acceptor atom, score
      P1  H  6896  6907       L1    17  0.27

> <Gold.Chemscore.Hbond.Weighted>
-3.3044

> <Gold.Chemscore.Metal.Weighted>
-0.0000

> <Gold.Chemscore.Lipo.Weighted>
-16.8961

> <Gold.Chemscore.Internal_Hbond.Weighted>
0.0000

> <Gold.Chemscore.DEClash.Weighted>
0.4207

> <Gold.Chemscore.DEInternal.Weighted>
2.1759

> <Gold.Chemscore.Rot.Weighted>
4.3840

> <Gold.Chemscore.Internal.Correction.Weighted>
   9.000000E+99

> <Gold.Protein.RotatedTorsions>
[ 6907 6896 6895 6894 ] final   30.99 input  -60.11 | X-H torsion
[ 7974 7965 7964 7962 ] final   14.72 input  175.53 | X-H torsion
[ 8008 7997 7996 7995 ] final   16.49 input   59.86 | X-H torsion
[ 10167 10162 10161 10158 ] final -154.46 input  -65.29 | X-H torsion
[ 10718 10713 10712 10709 ] final  130.52 input   66.30 | X-H torsion
[ 10763 10752 10751 10750 ] final -165.50 input  -60.55 | X-H torsion
[ 11005 11000 10999 10996 ] final -128.55 input  -57.11 | X-H torsion

> <Gold.Protein.ActiveResidues>
 VAL166  LYS551  ARG553  GLY616  TRP617  ASP618  TYR619  PRO620  LYS621  CYS622 
 ASP623  PHE694  ASN695  SER759  ASP760  ASP761  ALA762  ILE779  LEU786  VAL792 
 PHE793  MET794  SER795  GLU796  ALA797  LYS798  CYS799  TRP800  GLU811  SER814 

> <Gold.Protein.RotatedAtoms>
  152.0539  134.9636  160.0574 H   0  0  0  0  0  0  0  0  0  0  0  0  # atno 6907 bound_to 6896
  152.1027  133.4253  159.4602 H   0  0  0  0  0  0  0  0  0  0  0  0  # atno 6908 bound_to 6896
  150.6840  134.2661  159.4612 H   0  0  0  0  0  0  0  0  0  0  0  0  # atno 6909 bound_to 6896
  146.2297  139.8999  142.8541 H   0  0  0  0  0  0  0  0  0  0  0  0  # atno 7974 bound_to 7965
  154.8778  140.2968  155.5443 H   0  0  0  0  0  0  0  0  0  0  0  0  # atno 8008 bound_to 7997
  156.3022  140.2448  156.3710 H   0  0  0  0  0  0  0  0  0  0  0  0  # atno 8009 bound_to 7997
  154.8749  140.0400  157.1736 H   0  0  0  0  0  0  0  0  0  0  0  0  # atno 8010 bound_to 7997
  139.7012  143.9261  152.2429 H   0  0  0  0  0  0  0  0  0  0  0  0  # atno 10167 bound_to 10162
  157.5054  131.1095  150.9369 H   0  0  0  0  0  0  0  0  0  0  0  0  # atno 10718 bound_to 10713
  154.6925  135.2973  154.9459 H   0  0  0  0  0  0  0  0  0  0  0  0  # atno 10763 bound_to 10752
  154.0417  135.6656  153.4795 H   0  0  0  0  0  0  0  0  0  0  0  0  # atno 10764 bound_to 10752
  153.0622  135.5109  154.8025 H   0  0  0  0  0  0  0  0  0  0  0  0  # atno 10765 bound_to 10752
  140.9507  134.1069  157.4065 H   0  0  0  0  0  0  0  0  0  0  0  0  # atno 11005 bound_to 11000
  145.2334  140.9981  143.3977 LP  0  0  0  0  0  0  0  0  0  0  0  0  # atno 17320 bound_to 7965
  144.9512  139.4081  143.6402 LP  0  0  0  0  0  0  0  0  0  0  0  0  # atno 17321 bound_to 7965
  139.9103  144.6860  150.8569 LP  0  0  0  0  0  0  0  0  0  0  0  0  # atno 17342 bound_to 10162
  140.7710  143.3448  151.2134 LP  0  0  0  0  0  0  0  0  0  0  0  0  # atno 17343 bound_to 10162
  157.0026  130.5606  149.5313 LP  0  0  0  0  0  0  0  0  0  0  0  0  # atno 17370 bound_to 10713
  156.0255  130.5349  150.8394 LP  0  0  0  0  0  0  0  0  0  0  0  0  # atno 17371 bound_to 10713
  139.8846  135.0065  156.6383 LP  0  0  0  0  0  0  0  0  0  0  0  0  # atno 17394 bound_to 11000
  140.7606  133.8820  155.8415 LP  0  0  0  0  0  0  0  0  0  0  0  0  # atno 17395 bound_to 11000

$$$$
