AV-unprocessed.smi:1756|AV-procd|sdf|7073|dock3
  -GOLD-   22720 8293D 1   1.00000     0.00000
 Structure written by MMmdl.
 37 38  0  0  0  0  0  0  0  0  2 V2000
  150.8823  137.0210  159.9066 O   0  0  0  0  0  0  0  0  0  0  0  0
  150.3786  137.4771  158.8805 C   0  0  0  0  0  0  0  0  0  0  0  0
  151.0675  138.1938  157.9809 N   0  0  0  0  0  0  0  0  0  0  0  0
  152.4797  138.5501  158.0798 C   0  0  0  0  0  0  0  0  0  0  0  0
  152.7465  139.5623  159.2085 C   0  0  2  0  0  0  0  0  0  0  0  0
  151.9704  140.8873  159.0463 C   0  0  0  0  0  0  0  0  0  0  0  0
  152.3639  141.8842  160.1422 C   0  0  0  0  0  0  0  0  0  0  0  0
  153.8867  142.0460  160.1738 C   0  0  0  0  0  0  0  0  0  0  0  0
  154.5642  140.6718  160.2851 C   0  0  0  0  0  0  0  0  0  0  0  0
  154.1459  139.8377  159.2089 O   0  0  0  0  0  0  0  0  0  0  0  0
  149.1001  137.3274  158.4892 N   0  0  0  0  0  0  0  0  0  0  0  0
  148.0322  136.6722  159.1275 C   0  0  0  0  0  0  0  0  0  0  0  0
  148.1365  135.9230  160.2606 C   0  0  0  0  0  0  0  0  0  0  0  0
  146.9849  135.2780  160.8790 C   0  0  0  0  0  0  0  0  0  0  0  0
  147.0528  134.5056  162.1846 C   0  0  0  0  0  0  0  0  0  0  0  0
  145.8409  134.1041  162.5691 F   0  0  0  0  0  0  0  0  0  0  0  0
  147.8195  133.4267  162.0340 F   0  0  0  0  0  0  0  0  0  0  0  0
  147.5753  135.2543  163.1562 F   0  0  0  0  0  0  0  0  0  0  0  0
  145.8100  135.5420  160.2024 C   0  0  0  0  0  0  0  0  0  0  0  0
  145.6216  136.2600  159.0736 N   0  5  0  0  0  0  0  0  0  0  0  0
  146.7064  136.8524  158.4995 C   0  0  0  0  0  0  0  0  0  0  0  0
  146.6027  137.5289  157.4754 O   0  0  0  0  0  0  0  0  0  0  0  0
  150.5749  138.5221  157.1631 H   0  0  0  0  0  0  0  0  0  0  0  0
  153.0306  137.6313  158.2829 H   0  0  0  0  0  0  0  0  0  0  0  0
  152.8618  138.9269  157.1296 H   0  0  0  0  0  0  0  0  0  0  0  0
  152.4834  139.0995  160.1614 H   0  0  0  0  0  0  0  0  0  0  0  0
  152.1812  141.3187  158.0668 H   0  0  0  0  0  0  0  0  0  0  0  0
  150.8954  140.7118  159.0855 H   0  0  0  0  0  0  0  0  0  0  0  0
  151.8811  142.8469  159.9723 H   0  0  0  0  0  0  0  0  0  0  0  0
  152.0126  141.5226  161.1093 H   0  0  0  0  0  0  0  0  0  0  0  0
  154.2220  142.5450  159.2635 H   0  0  0  0  0  0  0  0  0  0  0  0
  154.1820  142.6826  161.0080 H   0  0  0  0  0  0  0  0  0  0  0  0
  155.6476  140.7839  160.2430 H   0  0  0  0  0  0  0  0  0  0  0  0
  154.3307  140.1977  161.2397 H   0  0  0  0  0  0  0  0  0  0  0  0
  148.8593  137.7248  157.5930 H   0  0  0  0  0  0  0  0  0  0  0  0
  149.0842  135.7876  160.7539 H   0  0  0  0  0  0  0  0  0  0  0  0
  144.8802  135.1164  160.6364 H   0  0  0  0  0  0  0  0  0  0  0  0
  1  2  2  0  0  0  0
  2  3  1  0  0  0  0
  2 11  1  0  0  0  0
  3  4  1  0  0  0  0
  3 23  1  0  0  0  0
  4  5  1  0  0  0  0
  4 24  1  0  0  0  0
  4 25  1  0  0  0  0
  5 10  1  0  0  0  0
  5  6  1  0  0  0  0
  5 26  1  0  0  0  0
  6  7  1  0  0  0  0
  6 27  1  0  0  0  0
  6 28  1  0  0  0  0
  7  8  1  0  0  0  0
  7 29  1  0  0  0  0
  7 30  1  0  0  0  0
  8  9  1  0  0  0  0
  8 31  1  0  0  0  0
  8 32  1  0  0  0  0
  9 10  1  0  0  0  0
  9 33  1  0  0  0  0
  9 34  1  0  0  0  0
 11 12  1  0  0  0  0
 11 35  1  0  0  0  0
 12 21  1  0  0  0  0
 12 13  2  0  0  0  0
 13 14  1  0  0  0  0
 13 36  1  0  0  0  0
 14 15  1  0  0  0  0
 14 19  2  0  0  0  0
 15 16  1  0  0  0  0
 15 17  1  0  0  0  0
 15 18  1  0  0  0  0
 19 20  1  0  0  0  0
 19 37  1  0  0  0  0
 20 21  1  0  0  0  0
 21 22  2  0  0  0  0
M  CHG  1  20  -1
M  END
> <s_m_source_file>
AV-unprocessed.smi

> <i_m_source_file_index>
1756

> <i_lp_mmshare_version>
43012

> <i_f3d_flags>
0

> <s_epik_input>
Tz1jMVtuSF1bY0hdYyhDKEYpKEYpRilbY0hdYzFbTkhdQyg9TylbTkhdW0NIMl1bQ0BASF0yW0NIMl1bQ0gyXVtDSDJdW0NIMl1PMg==

> <s_epik_cmdline>
J2VwaWtfcHl0aG9uJywgJy1waCcsICc3LjAnLCAnLXRuJywgJzgnLCAnLW1hJywgJzIwMCcsICctbWV0YWxfYmluZGluZycsICctaW1hZScsICc8aW5maWxlLm1hZT4nLCAnLW9tYWUnLCAnPG91dGZpbGUubWFlPic=

> <r_lp_tautomer_probability>
1

> <r_epik_Ionization_Penalty>
3.16985

> <r_epik_Ionization_Penalty_Charging>
0.174782

> <r_epik_Ionization_Penalty_Neutral>
2.99507

> <r_epik_State_Penalty>
2.99125

> <r_epik_Charging_Adjusted_Penalty>
3.16603

> <i_epik_Tot_Q>
-1

> <i_epik_Tot_abs_Q>
1

> <r_epik_Metal_State_Penalty>
0.453096

> <b_epik_Metal_Only>
1

> <s_lp_Force_Field>
OPLS_2005

> <r_lp_Energy>
21.0117

> <b_lp_Chiralities_Consistent>
1

> <s_lp_Variant>
AV-unprocessed.smi:1756-3

> <Gold.Version>
5.8.1

> <Gold.Id.Protein>
6NUR|6NUR_protein|mol2

> <Gold.PLP.Fitness>
43.4422

> <Gold.PLP.PLP>
-37.5937

> <Gold.PLP.part.hbond>
-2.1864

> <Gold.PLP.part.metal>
0.0000

> <Gold.PLP.part.buried>
-5.3782

> <Gold.PLP.part.nonpolar>
-31.2463

> <Gold.PLP.part.repulsive>
0.1705

> <Gold.PLP.ligand.clash>
0.0000

> <Gold.PLP.ligand.torsion>
0.0881

> <Gold.PLP.Chemscore.Hbond>
1.9913

> <Gold.PLP.Chemscore.CHOScore>
0.0000

> <Gold.PLP.Chemscore.Metal>
0.0000

> <Gold.Chemscore.Hbonds>
donor molecule, donor type, donor heavy atom, donor atom, acceptor molecule, acceptor atom, score
      P1  H  6896  6908       L1     1  1.00
      P1  H  7997  8008       L1    10  0.84

> <Gold.PLP.Chemscore.Internal.Correction>
0.0510

> <Gold.Rescore>
     Score         DG    S(hbond)    S(metal)    S(lipo)     H(rot)  DE(clash)    DE(int)     intcor
     15.50     -16.75       1.93        0.00      70.27       1.32       0.00       1.24       ----

> <Gold.Chemscore.Fitness>
15.5032

> <Gold.Chemscore.DG>
-16.7474

> <Gold.Chemscore.ZeroCoef>
-5.4800

> <Gold.Chemscore.Hbond>
1.9272

> <Gold.Chemscore.Metal>
0.0000

> <Gold.Chemscore.Lipo>
70.2739

> <Gold.Chemscore.Internal_Hbond>
0.0000

> <Gold.Chemscore.DEClash>
0.0011

> <Gold.Chemscore.DEInternal>
1.2431

> <Gold.Chemscore.Rot>
1.3248

> <Gold.Chemscore.Internal.Correction>
   9.000000E+99

> <Gold.Chemscore.Hbonds>
donor molecule, donor type, donor heavy atom, donor atom, acceptor molecule, acceptor atom, score
      P1  H  6896  6908       L1     1  0.90
      P1  H  7997  8008       L1    10  0.72

> <Gold.Chemscore.Hbond.Weighted>
-6.4369

> <Gold.Chemscore.Metal.Weighted>
-0.0000

> <Gold.Chemscore.Lipo.Weighted>
-8.2220

> <Gold.Chemscore.Internal_Hbond.Weighted>
0.0000

> <Gold.Chemscore.DEClash.Weighted>
0.0011

> <Gold.Chemscore.DEInternal.Weighted>
1.2431

> <Gold.Chemscore.Rot.Weighted>
3.3915

> <Gold.Chemscore.Internal.Correction.Weighted>
   9.000000E+99

> <Gold.Protein.RotatedTorsions>
[ 6907 6896 6895 6894 ] final -144.84 input  -60.11 | X-H torsion
[ 7974 7965 7964 7962 ] final   56.74 input  175.53 | X-H torsion
[ 8008 7997 7996 7995 ] final -111.47 input   59.86 | X-H torsion
[ 10167 10162 10161 10158 ] final  100.11 input  -65.29 | X-H torsion
[ 10718 10713 10712 10709 ] final   53.42 input   66.30 | X-H torsion
[ 10763 10752 10751 10750 ] final -124.35 input  -60.55 | X-H torsion
[ 11005 11000 10999 10996 ] final  -52.58 input  -57.11 | X-H torsion

> <Gold.Protein.ActiveResidues>
 VAL166  LYS551  ARG553  GLY616  TRP617  ASP618  TYR619  PRO620  LYS621  CYS622 
 ASP623  PHE694  ASN695  SER759  ASP760  ASP761  ALA762  ILE779  LEU786  VAL792 
 PHE793  MET794  SER795  GLU796  ALA797  LYS798  CYS799  TRP800  GLU811  SER814 

> <Gold.Protein.RotatedAtoms>
  151.1196  133.5113  159.2602 H   0  0  0  0  0  0  0  0  0  0  0  0  # atno 6907 bound_to 6896
  151.1876  135.0388  159.8829 H   0  0  0  0  0  0  0  0  0  0  0  0  # atno 6908 bound_to 6896
  152.5455  134.1040  159.8383 H   0  0  0  0  0  0  0  0  0  0  0  0  # atno 6909 bound_to 6896
  145.9366  139.3852  143.0389 H   0  0  0  0  0  0  0  0  0  0  0  0  # atno 7974 bound_to 7965
  154.9903  140.0395  157.2316 H   0  0  0  0  0  0  0  0  0  0  0  0  # atno 8008 bound_to 7997
  154.7635  140.2789  155.6172 H   0  0  0  0  0  0  0  0  0  0  0  0  # atno 8009 bound_to 7997
  156.2908  140.2624  156.2419 H   0  0  0  0  0  0  0  0  0  0  0  0  # atno 8010 bound_to 7997
  139.7557  144.6970  151.0366 H   0  0  0  0  0  0  0  0  0  0  0  0  # atno 10167 bound_to 10162
  157.5166  130.8536  149.8503 H   0  0  0  0  0  0  0  0  0  0  0  0  # atno 10718 bound_to 10713
  154.8722  135.4067  154.3091 H   0  0  0  0  0  0  0  0  0  0  0  0  # atno 10763 bound_to 10752
  153.3938  135.7016  153.6481 H   0  0  0  0  0  0  0  0  0  0  0  0  # atno 10764 bound_to 10752
  153.5253  135.3679  155.2622 H   0  0  0  0  0  0  0  0  0  0  0  0  # atno 10765 bound_to 10752
  141.0931  133.6629  156.4045 H   0  0  0  0  0  0  0  0  0  0  0  0  # atno 11005 bound_to 11000
  145.8356  140.9608  143.0826 LP  0  0  0  0  0  0  0  0  0  0  0  0  # atno 17320 bound_to 7965
  144.6772  140.0218  143.7483 LP  0  0  0  0  0  0  0  0  0  0  0  0  # atno 17321 bound_to 7965
  140.7802  143.4756  151.0087 LP  0  0  0  0  0  0  0  0  0  0  0  0  # atno 17342 bound_to 10162
  139.8443  143.7522  152.3179 LP  0  0  0  0  0  0  0  0  0  0  0  0  # atno 17343 bound_to 10162
  156.0324  130.3761  150.1651 LP  0  0  0  0  0  0  0  0  0  0  0  0  # atno 17370 bound_to 10713
  156.9840  130.9873  151.3431 LP  0  0  0  0  0  0  0  0  0  0  0  0  # atno 17371 bound_to 10713
  140.5204  134.6310  157.5316 LP  0  0  0  0  0  0  0  0  0  0  0  0  # atno 17394 bound_to 11000
  139.9762  134.7212  155.9946 LP  0  0  0  0  0  0  0  0  0  0  0  0  # atno 17395 bound_to 11000

$$$$
