AV-unprocessed.smi:3152|AV-procd|sdf|12018|dock5
  -GOLD-   2272017433D 1   1.00000     0.00000
 Structure written by MMmdl.
 40 41  0  0  0  0  0  0  0  0  1 V2000
  140.2340  138.3535  153.5471 C   0  0  0  0  0  0  0  0  0  0  0  0
  141.3063  137.3213  153.3468 C   0  0  0  0  0  0  0  0  0  0  0  0
  141.3150  135.9710  153.7989 C   0  0  0  0  0  0  0  0  0  0  0  0
  142.4131  135.3192  153.4522 N   0  0  0  0  0  0  0  0  0  0  0  0
  143.1423  136.2271  152.7697 N   0  0  0  0  0  0  0  0  0  0  0  0
  144.4327  135.8522  152.2251 C   0  0  0  0  0  0  0  0  0  0  0  0
  145.3903  135.3726  153.3240 C   0  0  0  0  0  0  0  0  0  0  0  0
  146.4656  134.5636  152.7620 N   0  0  0  0  0  0  0  0  0  0  0  0
  146.9900  133.5665  153.6934 C   0  0  0  0  0  0  0  0  0  0  0  0
  148.1140  132.7017  153.0696 C   0  0  0  0  0  0  0  0  0  0  0  0
  147.9735  132.7978  151.6643 O   0  0  0  0  0  0  0  0  0  0  0  0
  149.5104  133.2779  153.4046 C   0  0  0  0  0  0  0  0  0  0  0  0
  149.9088  133.0542  154.8754 C   0  0  0  0  0  0  0  0  0  0  0  0
  149.8218  131.5695  155.2613 C   0  0  0  0  0  0  0  0  0  0  0  0
  148.4331  130.9904  154.9492 C   0  0  0  0  0  0  0  0  0  0  0  0
  148.0620  131.2069  153.4723 C   0  0  0  0  0  0  0  0  0  0  0  0
  142.4980  137.4432  152.6896 C   0  0  0  0  0  0  0  0  0  0  0  0
  139.6419  138.1540  154.4405 H   0  0  0  0  0  0  0  0  0  0  0  0
  139.5437  138.3827  152.7038 H   0  0  0  0  0  0  0  0  0  0  0  0
  140.6515  139.3545  153.6570 H   0  0  0  0  0  0  0  0  0  0  0  0
  140.5586  135.4477  154.3647 H   0  0  0  0  0  0  0  0  0  0  0  0
  144.2806  135.0668  151.4836 H   0  0  0  0  0  0  0  0  0  0  0  0
  144.8518  136.7100  151.6968 H   0  0  0  0  0  0  0  0  0  0  0  0
  145.8089  136.2358  153.8434 H   0  0  0  0  0  0  0  0  0  0  0  0
  144.8384  134.7957  154.0671 H   0  0  0  0  0  0  0  0  0  0  0  0
  147.2229  135.1658  152.4542 H   0  0  0  0  0  0  0  0  0  0  0  0
  147.3706  134.0606  154.5884 H   0  0  0  0  0  0  0  0  0  0  0  0
  146.1709  132.9299  154.0267 H   0  0  0  0  0  0  0  0  0  0  0  0
  148.2091  131.9665  151.2820 H   0  0  0  0  0  0  0  0  0  0  0  0
  150.2619  132.8035  152.7711 H   0  0  0  0  0  0  0  0  0  0  0  0
  149.5480  134.3426  153.1698 H   0  0  0  0  0  0  0  0  0  0  0  0
  150.9234  133.4179  155.0400 H   0  0  0  0  0  0  0  0  0  0  0  0
  149.2673  133.6423  155.5318 H   0  0  0  0  0  0  0  0  0  0  0  0
  150.5809  131.0073  154.7157 H   0  0  0  0  0  0  0  0  0  0  0  0
  150.0481  131.4458  156.3206 H   0  0  0  0  0  0  0  0  0  0  0  0
  148.4176  129.9251  155.1809 H   0  0  0  0  0  0  0  0  0  0  0  0
  147.6848  131.4548  155.5925 H   0  0  0  0  0  0  0  0  0  0  0  0
  147.0812  130.7767  153.2682 H   0  0  0  0  0  0  0  0  0  0  0  0
  148.7635  130.6426  152.8557 H   0  0  0  0  0  0  0  0  0  0  0  0
  142.9361  138.2858  152.1749 H   0  0  0  0  0  0  0  0  0  0  0  0
  1  2  1  0  0  0  0
  1 18  1  0  0  0  0
  1 19  1  0  0  0  0
  1 20  1  0  0  0  0
  2 17  2  0  0  0  0
  2  3  1  0  0  0  0
  3  4  2  0  0  0  0
  3 21  1  0  0  0  0
  4  5  1  0  0  0  0
  5  6  1  0  0  0  0
  5 17  1  0  0  0  0
  6  7  1  0  0  0  0
  6 22  1  0  0  0  0
  6 23  1  0  0  0  0
  7  8  1  0  0  0  0
  7 24  1  0  0  0  0
  7 25  1  0  0  0  0
  8  9  1  0  0  0  0
  8 26  1  0  0  0  0
  9 10  1  0  0  0  0
  9 27  1  0  0  0  0
  9 28  1  0  0  0  0
 10 16  1  0  0  0  0
 10 11  1  0  0  0  0
 10 12  1  0  0  0  0
 11 29  1  0  0  0  0
 12 13  1  0  0  0  0
 12 30  1  0  0  0  0
 12 31  1  0  0  0  0
 13 14  1  0  0  0  0
 13 32  1  0  0  0  0
 13 33  1  0  0  0  0
 14 15  1  0  0  0  0
 14 34  1  0  0  0  0
 14 35  1  0  0  0  0
 15 16  1  0  0  0  0
 15 36  1  0  0  0  0
 15 37  1  0  0  0  0
 16 38  1  0  0  0  0
 16 39  1  0  0  0  0
 17 40  1  0  0  0  0
M  END
> <s_m_source_file>
AV-unprocessed.smi

> <i_m_source_file_index>
3152

> <i_lp_mmshare_version>
43012

> <i_f3d_flags>
0

> <s_epik_input>
W0NIM11jMVtjSF1ubihbY0hdMSlbQ0gyXVtDSDJdW05IXVtDSDJdQzIoW09IXSlbQ0gyXVtDSDJdW0NIMl1bQ0gyXVtDSDJdMg==

> <s_epik_cmdline>
J2VwaWtfcHl0aG9uJywgJy1waCcsICc3LjAnLCAnLXRuJywgJzgnLCAnLW1hJywgJzIwMCcsICctbWV0YWxfYmluZGluZycsICctaW1hZScsICc8aW5maWxlLm1hZT4nLCAnLW9tYWUnLCAnPG91dGZpbGUubWFlPic=

> <r_lp_tautomer_probability>
1

> <r_epik_Ionization_Penalty>
1.91403

> <r_epik_Ionization_Penalty_Charging>
0

> <r_epik_Ionization_Penalty_Neutral>
1.91403

> <r_epik_State_Penalty>
2.0334

> <r_epik_Charging_Adjusted_Penalty>
2.0334

> <i_epik_Tot_Q>
0

> <i_epik_Tot_abs_Q>
0

> <r_epik_Metal_State_Penalty>
2.03082

> <b_epik_Metal_Only>
0

> <s_lp_Force_Field>
OPLS_2005

> <r_lp_Energy>
20.9393

> <b_lp_Chiralities_Consistent>
1

> <s_lp_Variant>
AV-unprocessed.smi:3152-2

> <Gold.Version>
5.8.1

> <Gold.Id.Protein>
6NUR|6NUR_protein|mol2

> <Gold.PLP.Fitness>
38.5280

> <Gold.PLP.PLP>
-26.1116

> <Gold.PLP.part.hbond>
-1.7488

> <Gold.PLP.part.metal>
0.0000

> <Gold.PLP.part.buried>
-4.3211

> <Gold.PLP.part.nonpolar>
-19.9296

> <Gold.PLP.part.repulsive>
0.1290

> <Gold.PLP.ligand.clash>
0.0000

> <Gold.PLP.ligand.torsion>
1.0537

> <Gold.PLP.Chemscore.Hbond>
1.8450

> <Gold.PLP.Chemscore.CHOScore>
2.9882

> <Gold.PLP.Chemscore.Metal>
0.0000

> <Gold.Chemscore.Hbonds>
donor molecule, donor type, donor heavy atom, donor atom, acceptor molecule, acceptor atom, score
      L1  H     8    26       P1  7948  0.84
      L1  H    11    29       P1 10747  1.00
      L1  C     3    21       P1 11000  0.72
      L1  C    17    40       P1 10171  1.00
      L1  C    17    40       P1 10175  1.00

> <Gold.PLP.Chemscore.Internal.Correction>
0.0241

> <Gold.Rescore>
     Score         DG    S(hbond)    S(metal)    S(lipo)     H(rot)  DE(clash)    DE(int)     intcor
     13.12     -14.30       1.95        0.00      65.45       2.09       0.17       1.02       ----

> <Gold.Chemscore.Fitness>
13.1186

> <Gold.Chemscore.DG>
-14.3048

> <Gold.Chemscore.ZeroCoef>
-5.4800

> <Gold.Chemscore.Hbond>
1.9500

> <Gold.Chemscore.Metal>
0.0000

> <Gold.Chemscore.Lipo>
65.4510

> <Gold.Chemscore.Internal_Hbond>
0.0000

> <Gold.Chemscore.DEClash>
0.1698

> <Gold.Chemscore.DEInternal>
1.0164

> <Gold.Chemscore.Rot>
2.0883

> <Gold.Chemscore.Internal.Correction>
   9.000000E+99

> <Gold.Chemscore.Hbonds>
donor molecule, donor type, donor heavy atom, donor atom, acceptor molecule, acceptor atom, score
      L1  H     8    26       P1  7948  0.84
      L1  H    11    29       P1 10747  0.99

> <Gold.Chemscore.Hbond.Weighted>
-6.5132

> <Gold.Chemscore.Metal.Weighted>
-0.0000

> <Gold.Chemscore.Lipo.Weighted>
-7.6578

> <Gold.Chemscore.Internal_Hbond.Weighted>
0.0000

> <Gold.Chemscore.DEClash.Weighted>
0.1698

> <Gold.Chemscore.DEInternal.Weighted>
1.0164

> <Gold.Chemscore.Rot.Weighted>
5.3461

> <Gold.Chemscore.Internal.Correction.Weighted>
   9.000000E+99

> <Gold.Protein.RotatedTorsions>
[ 6907 6896 6895 6894 ] final -137.90 input  -60.11 | X-H torsion
[ 7974 7965 7964 7962 ] final   64.35 input  175.53 | X-H torsion
[ 8008 7997 7996 7995 ] final  -89.48 input   59.86 | X-H torsion
[ 10167 10162 10161 10158 ] final  156.86 input  -65.29 | X-H torsion
[ 10718 10713 10712 10709 ] final -156.30 input   66.30 | X-H torsion
[ 10763 10752 10751 10750 ] final  141.10 input  -60.55 | X-H torsion
[ 11005 11000 10999 10996 ] final -124.60 input  -57.11 | X-H torsion

> <Gold.Protein.ActiveResidues>
 VAL166  LYS551  ARG553  GLY616  TRP617  ASP618  TYR619  PRO620  LYS621  CYS622 
 ASP623  PHE694  ASN695  SER759  ASP760  ASP761  ALA762  ILE779  LEU786  VAL792 
 PHE793  MET794  SER795  GLU796  ALA797  LYS798  CYS799  TRP800  GLU811  SER814 

> <Gold.Protein.RotatedAtoms>
  151.0282  133.5814  159.2663 H   0  0  0  0  0  0  0  0  0  0  0  0  # atno 6907 bound_to 6896
  151.2906  135.0740  159.9212 H   0  0  0  0  0  0  0  0  0  0  0  0  # atno 6908 bound_to 6896
  152.5339  133.9981  159.7936 H   0  0  0  0  0  0  0  0  0  0  0  0  # atno 6909 bound_to 6896
  145.8513  139.3255  143.0874 H   0  0  0  0  0  0  0  0  0  0  0  0  # atno 7974 bound_to 7965
  154.6871  140.0541  157.0326 H   0  0  0  0  0  0  0  0  0  0  0  0  # atno 8008 bound_to 7997
  155.0869  140.3215  155.4566 H   0  0  0  0  0  0  0  0  0  0  0  0  # atno 8009 bound_to 7997
  156.2715  140.2055  156.5996 H   0  0  0  0  0  0  0  0  0  0  0  0  # atno 8010 bound_to 7997
  139.4822  144.4970  151.8224 H   0  0  0  0  0  0  0  0  0  0  0  0  # atno 10167 bound_to 10162
  156.5246  130.8493  151.2694 H   0  0  0  0  0  0  0  0  0  0  0  0  # atno 10718 bound_to 10713
  153.9337  135.2987  155.3445 H   0  0  0  0  0  0  0  0  0  0  0  0  # atno 10763 bound_to 10752
  154.7513  135.4979  153.9297 H   0  0  0  0  0  0  0  0  0  0  0  0  # atno 10764 bound_to 10752
  153.1078  135.6751  153.9660 H   0  0  0  0  0  0  0  0  0  0  0  0  # atno 10765 bound_to 10752
  140.9828  134.0649  157.3745 H   0  0  0  0  0  0  0  0  0  0  0  0  # atno 11005 bound_to 11000
  145.9355  140.9018  143.0334 LP  0  0  0  0  0  0  0  0  0  0  0  0  # atno 17320 bound_to 7965
  144.6729  140.1476  143.7432 LP  0  0  0  0  0  0  0  0  0  0  0  0  # atno 17321 bound_to 7965
  140.4460  144.1921  150.5894 LP  0  0  0  0  0  0  0  0  0  0  0  0  # atno 17342 bound_to 10162
  140.4634  143.2440  151.9188 LP  0  0  0  0  0  0  0  0  0  0  0  0  # atno 17343 bound_to 10162
  157.7431  130.9905  150.2569 LP  0  0  0  0  0  0  0  0  0  0  0  0  # atno 17370 bound_to 10713
  156.3117  130.3773  149.7656 LP  0  0  0  0  0  0  0  0  0  0  0  0  # atno 17371 bound_to 10713
  139.8957  135.0142  156.7017 LP  0  0  0  0  0  0  0  0  0  0  0  0  # atno 17394 bound_to 11000
  140.7160  133.9182  155.8115 LP  0  0  0  0  0  0  0  0  0  0  0  0  # atno 17395 bound_to 11000

$$$$
