AV-unprocessed.smi:2358|AV-procd|sdf|9403|dock8
  -GOLD-   2272013 33D 1   1.00000     0.00000
 Structure written by MMmdl.
 45 47  0  0  0  0  0  0  0  0  1 V2000
  153.1549  142.5671  163.3634 C   0  0  0  0  0  0  0  0  0  0  0  0
  152.9193  142.5281  161.8674 C   0  0  0  0  0  0  0  0  0  0  0  0
  152.3407  143.6314  161.2087 C   0  0  0  0  0  0  0  0  0  0  0  0
  152.1266  143.5900  159.8173 C   0  0  0  0  0  0  0  0  0  0  0  0
  151.5037  144.7794  159.1158 C   0  0  0  0  0  0  0  0  0  0  0  0
  152.4928  142.4408  159.0871 C   0  0  0  0  0  0  0  0  0  0  0  0
  153.0712  141.3277  159.7308 C   0  0  0  0  0  0  0  0  0  0  0  0
  153.3960  140.2471  158.9385 O   0  0  0  0  0  0  0  0  0  0  0  0
  153.3607  138.9502  159.5196 C   0  0  0  0  0  0  0  0  0  0  0  0
  152.3827  138.0712  158.7224 C   0  0  2  0  0  0  0  0  0  0  0  0
  152.4589  136.7640  159.2579 O   0  0  0  0  0  0  0  0  0  0  0  0
  152.7698  137.9944  157.2285 C   0  0  0  0  0  0  0  0  0  0  0  0
  151.6051  137.7586  156.3669 N   0  0  0  0  0  0  0  0  0  0  0  0
  150.9845  138.9161  155.9335 N   0  0  0  0  0  0  0  0  0  0  0  0
  149.9521  138.8685  155.1567 C   0  0  0  0  0  0  0  0  0  0  0  0
  149.3191  140.0936  154.7027 N   0  0  0  0  0  0  0  0  0  0  0  0
  148.0879  140.1061  154.0455 C   0  0  0  0  0  0  0  0  0  0  0  0
  147.8214  141.4293  153.7700 C   0  0  0  0  0  0  0  0  0  0  0  0
  148.8585  142.2342  154.2380 N   0  0  0  0  0  0  0  0  0  0  0  0
  149.7114  141.3731  154.7769 C   0  0  0  0  0  0  0  0  0  0  0  0
  149.4211  137.5752  154.7397 C   0  0  0  0  0  0  0  0  0  0  0  0
  150.0343  136.4513  155.1701 C   0  0  0  0  0  0  0  0  0  0  0  0
  151.2097  136.4939  156.0378 C   0  0  0  0  0  0  0  0  0  0  0  0
  151.7920  135.4849  156.4347 O   0  0  0  0  0  0  0  0  0  0  0  0
  153.2839  141.3822  161.1315 C   0  0  0  0  0  0  0  0  0  0  0  0
  152.6852  143.4401  163.8177 H   0  0  0  0  0  0  0  0  0  0  0  0
  154.2236  142.6046  163.5754 H   0  0  0  0  0  0  0  0  0  0  0  0
  152.7417  141.6754  163.8360 H   0  0  0  0  0  0  0  0  0  0  0  0
  152.0607  144.5119  161.7689 H   0  0  0  0  0  0  0  0  0  0  0  0
  151.4610  144.6293  158.0365 H   0  0  0  0  0  0  0  0  0  0  0  0
  152.0858  145.6805  159.3106 H   0  0  0  0  0  0  0  0  0  0  0  0
  150.4882  144.9414  159.4778 H   0  0  0  0  0  0  0  0  0  0  0  0
  152.3286  142.4069  158.0199 H   0  0  0  0  0  0  0  0  0  0  0  0
  154.3631  138.5239  159.4561 H   0  0  0  0  0  0  0  0  0  0  0  0
  153.0801  138.9879  160.5741 H   0  0  0  0  0  0  0  0  0  0  0  0
  151.3702  138.4612  158.8349 H   0  0  0  0  0  0  0  0  0  0  0  0
  153.3347  136.6222  159.5828 H   0  0  0  0  0  0  0  0  0  0  0  0
  153.2437  138.9273  156.9183 H   0  0  0  0  0  0  0  0  0  0  0  0
  153.5333  137.2299  157.0703 H   0  0  0  0  0  0  0  0  0  0  0  0
  147.4965  139.2354  153.8134 H   0  0  0  0  0  0  0  0  0  0  0  0
  146.9672  141.8615  153.2699 H   0  0  0  0  0  0  0  0  0  0  0  0
  150.6399  141.6819  155.2349 H   0  0  0  0  0  0  0  0  0  0  0  0
  148.5549  137.4802  154.1070 H   0  0  0  0  0  0  0  0  0  0  0  0
  149.6447  135.4907  154.8668 H   0  0  0  0  0  0  0  0  0  0  0  0
  153.7276  140.5551  161.6648 H   0  0  0  0  0  0  0  0  0  0  0  0
  1  2  1  0  0  0  0
  1 26  1  0  0  0  0
  1 27  1  0  0  0  0
  1 28  1  0  0  0  0
  2 25  1  0  0  0  0
  2  3  2  0  0  0  0
  3  4  1  0  0  0  0
  3 29  1  0  0  0  0
  4  5  1  0  0  0  0
  4  6  2  0  0  0  0
  5 30  1  0  0  0  0
  5 31  1  0  0  0  0
  5 32  1  0  0  0  0
  6  7  1  0  0  0  0
  6 33  1  0  0  0  0
  7  8  1  0  0  0  0
  7 25  2  0  0  0  0
  8  9  1  0  0  0  0
  9 10  1  0  0  0  0
  9 34  1  0  0  0  0
  9 35  1  0  0  0  0
 10 11  1  0  0  0  0
 10 12  1  0  0  0  0
 10 36  1  0  0  0  0
 11 37  1  0  0  0  0
 12 13  1  0  0  0  0
 12 38  1  0  0  0  0
 12 39  1  0  0  0  0
 13 23  1  0  0  0  0
 13 14  1  0  0  0  0
 14 15  2  0  0  0  0
 15 16  1  0  0  0  0
 15 21  1  0  0  0  0
 16 20  1  0  0  0  0
 16 17  1  0  0  0  0
 17 18  2  0  0  0  0
 17 40  1  0  0  0  0
 18 19  1  0  0  0  0
 18 41  1  0  0  0  0
 19 20  2  0  0  0  0
 20 42  1  0  0  0  0
 21 22  2  0  0  0  0
 21 43  1  0  0  0  0
 22 23  1  0  0  0  0
 22 44  1  0  0  0  0
 23 24  2  0  0  0  0
 25 45  1  0  0  0  0
M  END
> <s_m_source_file>
AV-unprocessed.smi

> <i_m_source_file_index>
2358

> <i_lp_mmshare_version>
43012

> <i_f3d_flags>
0

> <s_epik_input>
W0NIM11jMVtjSF1jKFtDSDNdKVtjSF1jKFtjSF0xKU9bQ0gyXVtDQEhdKFtPSF0pW0NIMl1uMm5jKFtjSF1bY0hdYzI9TyktbjNbY0hdW2NIXW5bY0hdMw==

> <s_epik_cmdline>
J2VwaWtfcHl0aG9uJywgJy1waCcsICc3LjAnLCAnLXRuJywgJzgnLCAnLW1hJywgJzIwMCcsICctbWV0YWxfYmluZGluZycsICctaW1hZScsICc8aW5maWxlLm1hZT4nLCAnLW9tYWUnLCAnPG91dGZpbGUubWFlPic=

> <r_lp_tautomer_probability>
1

> <r_epik_Ionization_Penalty>
0.03707

> <r_epik_Ionization_Penalty_Charging>
0.0370699

> <r_epik_Ionization_Penalty_Neutral>
1.17174e-07

> <r_epik_State_Penalty>
0.0310055

> <r_epik_Charging_Adjusted_Penalty>
0.0680754

> <i_epik_Tot_Q>
0

> <i_epik_Tot_abs_Q>
0

> <r_epik_Metal_State_Penalty>
0.0291724

> <b_epik_Metal_Only>
0

> <s_lp_Force_Field>
OPLS_2005

> <r_lp_Energy>
37.1438

> <b_lp_Chiralities_Consistent>
1

> <s_lp_Variant>
AV-unprocessed.smi:2358-1

> <Gold.Version>
5.8.1

> <Gold.Id.Protein>
6NUR|6NUR_protein|mol2

> <Gold.PLP.Fitness>
57.5140

> <Gold.PLP.PLP>
-51.3078

> <Gold.PLP.part.hbond>
-4.0767

> <Gold.PLP.part.metal>
0.0000

> <Gold.PLP.part.buried>
-3.0101

> <Gold.PLP.part.nonpolar>
-41.7790

> <Gold.PLP.part.repulsive>
0.1997

> <Gold.PLP.ligand.clash>
0.0000

> <Gold.PLP.ligand.torsion>
1.5356

> <Gold.PLP.Chemscore.Hbond>
3.0753

> <Gold.PLP.Chemscore.CHOScore>
0.0000

> <Gold.PLP.Chemscore.Metal>
0.0000

> <Gold.Chemscore.Hbonds>
donor molecule, donor type, donor heavy atom, donor atom, acceptor molecule, acceptor atom, score
      P1  H  6896  6908       L1    11  0.45
      P1  H  7997  8010       L1     8  0.44
      P1  H  8011  8017       L1    19  0.15
      P1  H 10752 10764       L1    24  0.65

> <Gold.PLP.Chemscore.Internal.Correction>
0.0515

> <Gold.Rescore>
     Score         DG    S(hbond)    S(metal)    S(lipo)     H(rot)  DE(clash)    DE(int)     intcor
     16.88     -18.42       1.35        0.00     128.96       2.60       0.03       1.51       ----

> <Gold.Chemscore.Fitness>
16.8757

> <Gold.Chemscore.DG>
-18.4169

> <Gold.Chemscore.ZeroCoef>
-5.4800

> <Gold.Chemscore.Hbond>
1.3476

> <Gold.Chemscore.Metal>
0.0000

> <Gold.Chemscore.Lipo>
128.9591

> <Gold.Chemscore.Internal_Hbond>
0.0000

> <Gold.Chemscore.DEClash>
0.0293

> <Gold.Chemscore.DEInternal>
1.5119

> <Gold.Chemscore.Rot>
2.5986

> <Gold.Chemscore.Internal.Correction>
   9.000000E+99

> <Gold.Chemscore.Hbonds>
donor molecule, donor type, donor heavy atom, donor atom, acceptor molecule, acceptor atom, score
      P1  H  6896  6908       L1    11  0.02
      P1  H  7997  8010       L1     8  0.21
      P1  H 10752 10764       L1    24  0.38

> <Gold.Chemscore.Hbond.Weighted>
-4.5010

> <Gold.Chemscore.Metal.Weighted>
-0.0000

> <Gold.Chemscore.Lipo.Weighted>
-15.0882

> <Gold.Chemscore.Internal_Hbond.Weighted>
0.0000

> <Gold.Chemscore.DEClash.Weighted>
0.0293

> <Gold.Chemscore.DEInternal.Weighted>
1.5119

> <Gold.Chemscore.Rot.Weighted>
6.6524

> <Gold.Chemscore.Internal.Correction.Weighted>
   9.000000E+99

> <Gold.Protein.RotatedTorsions>
[ 6907 6896 6895 6894 ] final  -99.05 input  -60.11 | X-H torsion
[ 7974 7965 7964 7962 ] final  144.15 input  175.53 | X-H torsion
[ 8008 7997 7996 7995 ] final   18.83 input   59.86 | X-H torsion
[ 10167 10162 10161 10158 ] final  177.99 input  -65.29 | X-H torsion
[ 10718 10713 10712 10709 ] final   33.89 input   66.30 | X-H torsion
[ 10763 10752 10751 10750 ] final    2.27 input  -60.55 | X-H torsion
[ 11005 11000 10999 10996 ] final   52.35 input  -57.11 | X-H torsion

> <Gold.Protein.ActiveResidues>
 VAL166  LYS551  ARG553  GLY616  TRP617  ASP618  TYR619  PRO620  LYS621  CYS622 
 ASP623  PHE694  ASN695  SER759  ASP760  ASP761  ALA762  ILE779  LEU786  VAL792 
 PHE793  MET794  SER795  GLU796  ALA797  LYS798  CYS799  TRP800  GLU811  SER814 

> <Gold.Protein.RotatedAtoms>
  150.7067  134.1100  159.3996 H   0  0  0  0  0  0  0  0  0  0  0  0  # atno 6907 bound_to 6896
  151.9087  135.0346  160.0522 H   0  0  0  0  0  0  0  0  0  0  0  0  # atno 6908 bound_to 6896
  152.2354  133.5056  159.5276 H   0  0  0  0  0  0  0  0  0  0  0  0  # atno 6909 bound_to 6896
  144.8860  139.5628  143.5821 H   0  0  0  0  0  0  0  0  0  0  0  0  # atno 7974 bound_to 7965
  154.9118  140.3015  155.5262 H   0  0  0  0  0  0  0  0  0  0  0  0  # atno 8008 bound_to 7997
  156.3014  140.2387  156.4094 H   0  0  0  0  0  0  0  0  0  0  0  0  # atno 8009 bound_to 7997
  154.8417  140.0413  157.1535 H   0  0  0  0  0  0  0  0  0  0  0  0  # atno 8010 bound_to 7997
  139.5275  144.2733  152.0609 H   0  0  0  0  0  0  0  0  0  0  0  0  # atno 10167 bound_to 10162
  157.3036  130.7363  149.6681 H   0  0  0  0  0  0  0  0  0  0  0  0  # atno 10718 bound_to 10713
  153.2977  135.6953  153.7232 H   0  0  0  0  0  0  0  0  0  0  0  0  # atno 10763 bound_to 10752
  153.6159  135.3436  155.2995 H   0  0  0  0  0  0  0  0  0  0  0  0  # atno 10764 bound_to 10752
  154.8542  135.4374  154.2079 H   0  0  0  0  0  0  0  0  0  0  0  0  # atno 10765 bound_to 10752
  140.0856  134.5279  155.8902 H   0  0  0  0  0  0  0  0  0  0  0  0  # atno 11005 bound_to 11000
  146.3024  139.7471  142.9081 LP  0  0  0  0  0  0  0  0  0  0  0  0  # atno 17320 bound_to 7965
  145.3868  141.0366  143.3146 LP  0  0  0  0  0  0  0  0  0  0  0  0  # atno 17321 bound_to 7965
  140.2192  144.4484  150.6350 LP  0  0  0  0  0  0  0  0  0  0  0  0  # atno 17342 bound_to 10162
  140.6430  143.2207  151.6248 LP  0  0  0  0  0  0  0  0  0  0  0  0  # atno 17343 bound_to 10162
  155.9673  130.4272  150.4735 LP  0  0  0  0  0  0  0  0  0  0  0  0  # atno 17370 bound_to 10713
  157.2721  131.0589  151.2253 LP  0  0  0  0  0  0  0  0  0  0  0  0  # atno 17371 bound_to 10713
  141.2061  133.6653  156.6224 LP  0  0  0  0  0  0  0  0  0  0  0  0  # atno 17394 bound_to 11000
  140.3425  134.7837  157.4408 LP  0  0  0  0  0  0  0  0  0  0  0  0  # atno 17395 bound_to 11000

$$$$
