AV-unprocessed.smi:1703|AV-procd|sdf|6855|dock7
  -GOLD-   22720 8 33D 1   1.00000     0.00000
 Structure written by MMmdl.
 48 50  0  0  0  0  0  0  0  0  1 V2000
  154.8485  133.3006  165.2505 C   0  0  0  0  0  0  0  0  0  0  0  0
  156.1513  133.6245  164.4991 C   0  0  2  0  0  0  0  0  0  0  0  0
  156.4392  135.1355  164.3971 C   0  0  0  0  0  0  0  0  0  0  0  0
  155.5691  135.8158  163.4434 N   0  0  0  0  0  0  0  0  0  0  0  0
  155.8860  137.2434  163.3817 C   0  0  0  0  0  0  0  0  0  0  0  0
  155.2095  138.0256  162.2343 C   0  0  1  0  0  0  0  0  0  0  0  0
  153.8104  137.8791  162.3602 O   0  0  0  0  0  0  0  0  0  0  0  0
  155.5196  139.5368  162.2495 C   0  0  0  0  0  0  0  0  0  0  0  0
  154.5714  140.3226  161.4710 N   0  0  0  0  0  0  0  0  0  0  0  0
  154.1220  140.0871  160.2122 C   0  0  0  0  0  0  0  0  0  0  0  0
  154.5618  138.8988  159.4130 C   0  0  0  0  0  0  0  0  0  0  0  0
  154.0963  138.9370  158.0811 O   0  0  0  0  0  0  0  0  0  0  0  0
  153.2525  140.9758  159.7304 N   0  0  0  0  0  0  0  0  0  0  0  0
  153.1156  141.8659  160.7775 C   0  0  0  0  0  0  0  0  0  0  0  0
  152.3293  143.0346  160.8919 C   0  0  0  0  0  0  0  0  0  0  0  0
  152.3514  143.7965  162.0785 C   0  0  0  0  0  0  0  0  0  0  0  0
  153.1574  143.4012  163.1657 C   0  0  0  0  0  0  0  0  0  0  0  0
  153.9484  142.2401  163.0725 C   0  0  0  0  0  0  0  0  0  0  0  0
  153.9241  141.4834  161.8852 C   0  0  0  0  0  0  0  0  0  0  0  0
  155.6870  135.1558  162.1458 C   0  0  0  0  0  0  0  0  0  0  0  0
  155.3440  133.6571  162.2285 C   0  0  1  0  0  0  0  0  0  0  0  0
  155.5549  132.9434  160.8890 C   0  0  0  0  0  0  0  0  0  0  0  0
  156.1777  133.0294  163.2009 O   0  0  0  0  0  0  0  0  0  0  0  0
  154.8927  133.6649  166.2771 H   0  0  0  0  0  0  0  0  0  0  0  0
  154.6800  132.2243  165.2893 H   0  0  0  0  0  0  0  0  0  0  0  0
  153.9782  133.7584  164.7805 H   0  0  0  0  0  0  0  0  0  0  0  0
  156.9650  133.1660  165.0618 H   0  0  0  0  0  0  0  0  0  0  0  0
  156.3411  135.5908  165.3834 H   0  0  0  0  0  0  0  0  0  0  0  0
  157.4796  135.2746  164.0989 H   0  0  0  0  0  0  0  0  0  0  0  0
  155.6005  137.7172  164.3222 H   0  0  0  0  0  0  0  0  0  0  0  0
  156.9684  137.3530  163.3134 H   0  0  0  0  0  0  0  0  0  0  0  0
  155.5049  137.6211  161.2682 H   0  0  0  0  0  0  0  0  0  0  0  0
  153.5088  138.4791  163.0256 H   0  0  0  0  0  0  0  0  0  0  0  0
  155.5290  139.9122  163.2732 H   0  0  0  0  0  0  0  0  0  0  0  0
  156.5207  139.7184  161.8561 H   0  0  0  0  0  0  0  0  0  0  0  0
  155.6516  138.8578  159.3995 H   0  0  0  0  0  0  0  0  0  0  0  0
  154.2215  137.9801  159.8892 H   0  0  0  0  0  0  0  0  0  0  0  0
  154.5348  138.2592  157.5902 H   0  0  0  0  0  0  0  0  0  0  0  0
  151.7078  143.3450  160.0651 H   0  0  0  0  0  0  0  0  0  0  0  0
  151.7466  144.6882  162.1553 H   0  0  0  0  0  0  0  0  0  0  0  0
  153.1684  143.9902  164.0712 H   0  0  0  0  0  0  0  0  0  0  0  0
  154.5684  141.9369  163.9030 H   0  0  0  0  0  0  0  0  0  0  0  0
  155.0205  135.6196  161.4202 H   0  0  0  0  0  0  0  0  0  0  0  0
  156.7008  135.2779  161.7606 H   0  0  0  0  0  0  0  0  0  0  0  0
  154.2993  133.5388  162.5179 H   0  0  0  0  0  0  0  0  0  0  0  0
  154.9250  133.3752  160.1110 H   0  0  0  0  0  0  0  0  0  0  0  0
  155.3062  131.8847  160.9683 H   0  0  0  0  0  0  0  0  0  0  0  0
  156.5920  133.0184  160.5608 H   0  0  0  0  0  0  0  0  0  0  0  0
  1  2  1  0  0  0  0
  1 24  1  0  0  0  0
  1 25  1  0  0  0  0
  1 26  1  0  0  0  0
  2 23  1  0  0  0  0
  2  3  1  0  0  0  0
  2 27  1  0  0  0  0
  3  4  1  0  0  0  0
  3 28  1  0  0  0  0
  3 29  1  0  0  0  0
  4  5  1  0  0  0  0
  4 20  1  0  0  0  0
  5  6  1  0  0  0  0
  5 30  1  0  0  0  0
  5 31  1  0  0  0  0
  6  7  1  0  0  0  0
  6  8  1  0  0  0  0
  6 32  1  0  0  0  0
  7 33  1  0  0  0  0
  8  9  1  0  0  0  0
  8 34  1  0  0  0  0
  8 35  1  0  0  0  0
  9 19  1  0  0  0  0
  9 10  1  0  0  0  0
 10 11  1  0  0  0  0
 10 13  2  0  0  0  0
 11 12  1  0  0  0  0
 11 36  1  0  0  0  0
 11 37  1  0  0  0  0
 12 38  1  0  0  0  0
 13 14  1  0  0  0  0
 14 19  2  0  0  0  0
 14 15  1  0  0  0  0
 15 16  2  0  0  0  0
 15 39  1  0  0  0  0
 16 17  1  0  0  0  0
 16 40  1  0  0  0  0
 17 18  2  0  0  0  0
 17 41  1  0  0  0  0
 18 19  1  0  0  0  0
 18 42  1  0  0  0  0
 20 21  1  0  0  0  0
 20 43  1  0  0  0  0
 20 44  1  0  0  0  0
 21 22  1  0  0  0  0
 21 23  1  0  0  0  0
 21 45  1  0  0  0  0
 22 46  1  0  0  0  0
 22 47  1  0  0  0  0
 22 48  1  0  0  0  0
M  END
> <s_m_source_file>
AV-unprocessed.smi

> <i_m_source_file_index>
1703

> <i_lp_mmshare_version>
43012

> <i_f3d_flags>
0

> <s_epik_input>
W0NIM11bQ0BASF0xW0NIMl1OKFtDSDJdW0NASF0oTzEpW0NIM10pW0NIMl1bQ0BIXShbT0hdKVtDSDJdbihjKG4yKVtDSDJdW09IXSljKGMyMylbY0hdW2NIXVtjSF1bY0hdMw==

> <s_epik_cmdline>
J2VwaWtfcHl0aG9uJywgJy1waCcsICc3LjAnLCAnLXRuJywgJzgnLCAnLW1hJywgJzIwMCcsICctbWV0YWxfYmluZGluZycsICctaW1hZScsICc8aW5maWxlLm1hZT4nLCAnLW9tYWUnLCAnPG91dGZpbGUubWFlPic=

> <r_epik_Ionization_Penalty>
0.307685

> <r_epik_Ionization_Penalty_Charging>
0

> <r_epik_Ionization_Penalty_Neutral>
0.307685

> <r_epik_State_Penalty>
0.277856

> <r_epik_Charging_Adjusted_Penalty>
0.277856

> <i_epik_Tot_Q>
0

> <i_epik_Tot_abs_Q>
0

> <r_epik_Metal_State_Penalty>
0.238959

> <b_epik_Metal_Only>
0

> <s_lp_Force_Field>
OPLS_2005

> <r_lp_Energy>
33.3157

> <b_lp_Chiralities_Consistent>
1

> <s_lp_Variant>
AV-unprocessed.smi:1703-3

> <Gold.Version>
5.8.1

> <Gold.Id.Protein>
6NUR|6NUR_protein|mol2

> <Gold.PLP.Fitness>
44.6404

> <Gold.PLP.PLP>
-42.4153

> <Gold.PLP.part.hbond>
-0.9642

> <Gold.PLP.part.metal>
0.0000

> <Gold.PLP.part.buried>
-2.9494

> <Gold.PLP.part.nonpolar>
-38.2072

> <Gold.PLP.part.repulsive>
0.0396

> <Gold.PLP.ligand.clash>
0.0000

> <Gold.PLP.ligand.torsion>
0.4150

> <Gold.PLP.Chemscore.Hbond>
1.0000

> <Gold.PLP.Chemscore.CHOScore>
0.0000

> <Gold.PLP.Chemscore.Metal>
0.0000

> <Gold.Chemscore.Hbonds>
donor molecule, donor type, donor heavy atom, donor atom, acceptor molecule, acceptor atom, score
      P1  H  7997  8009       L1    12  0.45

> <Gold.PLP.Chemscore.Internal.Correction>
0.0552

> <Gold.Rescore>
     Score         DG    S(hbond)    S(metal)    S(lipo)     H(rot)  DE(clash)    DE(int)     intcor
     12.54     -14.07       0.70        0.00     116.47       2.88       0.17       1.35       ----

> <Gold.Chemscore.Fitness>
12.5446

> <Gold.Chemscore.DG>
-14.0705

> <Gold.Chemscore.ZeroCoef>
-5.4800

> <Gold.Chemscore.Hbond>
0.6977

> <Gold.Chemscore.Metal>
0.0000

> <Gold.Chemscore.Lipo>
116.4731

> <Gold.Chemscore.Internal_Hbond>
0.0000

> <Gold.Chemscore.DEClash>
0.1739

> <Gold.Chemscore.DEInternal>
1.3520

> <Gold.Chemscore.Rot>
2.8778

> <Gold.Chemscore.Internal.Correction>
   9.000000E+99

> <Gold.Chemscore.Hbonds>
donor molecule, donor type, donor heavy atom, donor atom, acceptor molecule, acceptor atom, score
      P1  H  7997  8009       L1    12  0.01

> <Gold.Chemscore.Hbond.Weighted>
-2.3302

> <Gold.Chemscore.Metal.Weighted>
-0.0000

> <Gold.Chemscore.Lipo.Weighted>
-13.6273

> <Gold.Chemscore.Internal_Hbond.Weighted>
0.0000

> <Gold.Chemscore.DEClash.Weighted>
0.1739

> <Gold.Chemscore.DEInternal.Weighted>
1.3520

> <Gold.Chemscore.Rot.Weighted>
7.3671

> <Gold.Chemscore.Internal.Correction.Weighted>
   9.000000E+99

> <Gold.Protein.RotatedTorsions>
[ 6907 6896 6895 6894 ] final  133.42 input  -60.11 | X-H torsion
[ 7974 7965 7964 7962 ] final   20.21 input  175.53 | X-H torsion
[ 8008 7997 7996 7995 ] final  150.81 input   59.86 | X-H torsion
[ 10167 10162 10161 10158 ] final -133.67 input  -65.29 | X-H torsion
[ 10718 10713 10712 10709 ] final  158.07 input   66.30 | X-H torsion
[ 10763 10752 10751 10750 ] final  101.16 input  -60.55 | X-H torsion
[ 11005 11000 10999 10996 ] final  -69.07 input  -57.11 | X-H torsion

> <Gold.Protein.ActiveResidues>
 VAL166  LYS551  ARG553  GLY616  TRP617  ASP618  TYR619  PRO620  LYS621  CYS622 
 ASP623  PHE694  ASN695  SER759  ASP760  ASP761  ALA762  ILE779  LEU786  VAL792 
 PHE793  MET794  SER795  GLU796  ALA797  LYS798  CYS799  TRP800  GLU811  SER814 

> <Gold.Protein.RotatedAtoms>
  152.3221  133.5865  159.5751 H   0  0  0  0  0  0  0  0  0  0  0  0  # atno 6907 bound_to 6896
  150.7377  133.9996  159.3642 H   0  0  0  0  0  0  0  0  0  0  0  0  # atno 6908 bound_to 6896
  151.7879  135.0744  160.0434 H   0  0  0  0  0  0  0  0  0  0  0  0  # atno 6909 bound_to 6896
  146.2120  139.8202  142.8681 H   0  0  0  0  0  0  0  0  0  0  0  0  # atno 7974 bound_to 7965
  156.2700  140.2065  156.6076 H   0  0  0  0  0  0  0  0  0  0  0  0  # atno 8008 bound_to 7997
  154.6857  140.0535  157.0336 H   0  0  0  0  0  0  0  0  0  0  0  0  # atno 8009 bound_to 7997
  155.0937  140.3199  155.4569 H   0  0  0  0  0  0  0  0  0  0  0  0  # atno 8010 bound_to 7997
  139.8959  143.6666  152.2604 H   0  0  0  0  0  0  0  0  0  0  0  0  # atno 10167 bound_to 10162
  157.1829  131.0636  151.2122 H   0  0  0  0  0  0  0  0  0  0  0  0  # atno 10718 bound_to 10713
  153.3232  135.4054  155.1434 H   0  0  0  0  0  0  0  0  0  0  0  0  # atno 10763 bound_to 10752
  154.8605  135.3592  154.5569 H   0  0  0  0  0  0  0  0  0  0  0  0  # atno 10764 bound_to 10752
  153.6003  135.7071  153.5446 H   0  0  0  0  0  0  0  0  0  0  0  0  # atno 10765 bound_to 10752
  141.1546  133.6755  156.6544 H   0  0  0  0  0  0  0  0  0  0  0  0  # atno 11005 bound_to 11000
  145.3105  141.0218  143.3557 LP  0  0  0  0  0  0  0  0  0  0  0  0  # atno 17320 bound_to 7965
  144.8940  139.4737  143.6664 LP  0  0  0  0  0  0  0  0  0  0  0  0  # atno 17321 bound_to 7965
  139.7068  144.7626  151.1179 LP  0  0  0  0  0  0  0  0  0  0  0  0  # atno 17342 bound_to 10162
  140.7717  143.5383  150.9342 LP  0  0  0  0  0  0  0  0  0  0  0  0  # atno 17343 bound_to 10162
  157.3935  130.7295  149.6715 LP  0  0  0  0  0  0  0  0  0  0  0  0  # atno 17370 bound_to 10713
  155.9722  130.4140  150.4110 LP  0  0  0  0  0  0  0  0  0  0  0  0  # atno 17371 bound_to 10713
  140.3296  134.7940  157.4315 LP  0  0  0  0  0  0  0  0  0  0  0  0  # atno 17394 bound_to 11000
  140.1028  134.5449  155.8337 LP  0  0  0  0  0  0  0  0  0  0  0  0  # atno 17395 bound_to 11000

$$$$
