AV-unprocessed.smi:810|AV-procd|sdf|3810|dock6
  -GOLD-   22720 1253D 1   1.00000     0.00000
 Structure written by MMmdl.
 34 35  0  0  0  0  0  0  0  0  1 V2000
  150.4629  141.0603  157.3049 O   0  0  0  0  0  0  0  0  0  0  0  0
  150.3743  142.1877  156.8197 C   0  0  0  0  0  0  0  0  0  0  0  0
  150.7762  143.3236  157.4150 N   0  0  0  0  0  0  0  0  0  0  0  0
  151.3252  143.4934  158.7146 C   0  0  0  0  0  0  0  0  0  0  0  0
  152.0603  142.4242  159.2668 C   0  0  0  0  0  0  0  0  0  0  0  0
  152.6323  142.5723  160.5446 C   0  0  0  0  0  0  0  0  0  0  0  0
  152.4539  143.7948  161.2203 C   0  0  0  0  0  0  0  0  0  0  0  0
  151.7671  144.8339  160.7006 N   0  0  0  0  0  0  0  0  0  0  0  0
  151.2189  144.6845  159.4754 C   0  0  0  0  0  0  0  0  0  0  0  0
  149.8733  142.4330  155.6007 N   0  0  0  0  0  0  0  0  0  0  0  0
  149.3474  141.4267  154.6813 C   0  0  1  0  0  0  0  0  0  0  0  0
  150.2524  140.1794  154.7080 C   0  0  0  0  0  0  0  0  0  0  0  0
  149.6051  138.9312  154.0846 C   0  0  0  0  0  0  0  0  0  0  0  0
  150.6082  138.0392  153.6493 O   0  0  0  0  0  0  0  0  0  0  0  0
  147.9044  141.0529  154.9758 C   0  0  0  0  0  0  0  0  0  0  0  0
  146.9824  140.5849  153.8749 C   0  0  0  0  0  0  0  0  0  0  0  0
  146.7591  141.9297  154.5276 C   0  0  0  0  0  0  0  0  0  0  0  0
  150.7234  144.1620  156.8551 H   0  0  0  0  0  0  0  0  0  0  0  0
  152.1828  141.4993  158.7222 H   0  0  0  0  0  0  0  0  0  0  0  0
  153.1952  141.7687  160.9958 H   0  0  0  0  0  0  0  0  0  0  0  0
  152.8792  143.9439  162.2017 H   0  0  0  0  0  0  0  0  0  0  0  0
  150.7059  145.5575  159.1034 H   0  0  0  0  0  0  0  0  0  0  0  0
  149.8496  143.3910  155.2832 H   0  0  0  0  0  0  0  0  0  0  0  0
  149.3837  141.8279  153.6663 H   0  0  0  0  0  0  0  0  0  0  0  0
  151.1921  140.3982  154.1986 H   0  0  0  0  0  0  0  0  0  0  0  0
  150.5152  139.9548  155.7428 H   0  0  0  0  0  0  0  0  0  0  0  0
  148.9718  138.4228  154.8120 H   0  0  0  0  0  0  0  0  0  0  0  0
  148.9779  139.1942  153.2325 H   0  0  0  0  0  0  0  0  0  0  0  0
  150.1981  137.3314  153.1760 H   0  0  0  0  0  0  0  0  0  0  0  0
  147.7727  140.5559  155.9353 H   0  0  0  0  0  0  0  0  0  0  0  0
  147.3684  140.5796  152.8575 H   0  0  0  0  0  0  0  0  0  0  0  0
  146.2819  139.7867  154.1124 H   0  0  0  0  0  0  0  0  0  0  0  0
  145.9100  142.0290  155.2006 H   0  0  0  0  0  0  0  0  0  0  0  0
  146.9954  142.8158  153.9421 H   0  0  0  0  0  0  0  0  0  0  0  0
  1  2  2  0  0  0  0
  2  3  1  0  0  0  0
  2 10  1  0  0  0  0
  3  4  1  0  0  0  0
  3 18  1  0  0  0  0
  4  9  1  0  0  0  0
  4  5  2  0  0  0  0
  5  6  1  0  0  0  0
  5 19  1  0  0  0  0
  6  7  2  0  0  0  0
  6 20  1  0  0  0  0
  7  8  1  0  0  0  0
  7 21  1  0  0  0  0
  8  9  2  0  0  0  0
  9 22  1  0  0  0  0
 10 11  1  0  0  0  0
 10 23  1  0  0  0  0
 11 12  1  0  0  0  0
 11 15  1  0  0  0  0
 11 24  1  0  0  0  0
 12 13  1  0  0  0  0
 12 25  1  0  0  0  0
 12 26  1  0  0  0  0
 13 14  1  0  0  0  0
 13 27  1  0  0  0  0
 13 28  1  0  0  0  0
 14 29  1  0  0  0  0
 15 17  1  0  0  0  0
 15 16  1  0  0  0  0
 15 30  1  0  0  0  0
 16 17  1  0  0  0  0
 16 31  1  0  0  0  0
 16 32  1  0  0  0  0
 17 33  1  0  0  0  0
 17 34  1  0  0  0  0
M  END
> <s_m_source_file>
AV-unprocessed.smi

> <i_m_source_file_index>
810

> <i_lp_mmshare_version>
43012

> <i_f3d_flags>
0

> <s_epik_input>
W09IXVtDSDJdW0NIMl1bQ0BIXShbQ0hdMVtDSDJdW0NIMl0xKVtOSF1DKD1PKVtOSF1jMltjSF1bY0hdW2NIXW5bY0hdMg==

> <s_epik_cmdline>
J2VwaWtfcHl0aG9uJywgJy1waCcsICc3LjAnLCAnLXRuJywgJzgnLCAnLW1hJywgJzIwMCcsICctbWV0YWxfYmluZGluZycsICctaW1hZScsICc8aW5maWxlLm1hZT4nLCAnLW9tYWUnLCAnPG91dGZpbGUubWFlPic=

> <r_epik_Ionization_Penalty>
0.00486911

> <r_epik_Ionization_Penalty_Charging>
0

> <r_epik_Ionization_Penalty_Neutral>
0.00486911

> <r_epik_State_Penalty>
0.00350304

> <r_epik_Charging_Adjusted_Penalty>
0.00350304

> <i_epik_Tot_Q>
0

> <i_epik_Tot_abs_Q>
0

> <r_epik_Metal_State_Penalty>
-0

> <b_epik_Metal_Only>
0

> <s_lp_Force_Field>
OPLS_2005

> <r_lp_Energy>
17.3052

> <b_lp_Chiralities_Consistent>
1

> <s_lp_Variant>
AV-unprocessed.smi:810-2

> <Gold.Version>
5.8.1

> <Gold.Id.Protein>
6NUR|6NUR_protein|mol2

> <Gold.PLP.Fitness>
41.8020

> <Gold.PLP.PLP>
-38.1011

> <Gold.PLP.part.hbond>
-3.8883

> <Gold.PLP.part.metal>
0.0000

> <Gold.PLP.part.buried>
-4.2037

> <Gold.PLP.part.nonpolar>
-30.6355

> <Gold.PLP.part.repulsive>
0.3766

> <Gold.PLP.ligand.clash>
0.0000

> <Gold.PLP.ligand.torsion>
1.2847

> <Gold.PLP.Chemscore.Hbond>
1.7273

> <Gold.PLP.Chemscore.CHOScore>
0.0000

> <Gold.PLP.Chemscore.Metal>
0.0000

> <Gold.Chemscore.Hbonds>
donor molecule, donor type, donor heavy atom, donor atom, acceptor molecule, acceptor atom, score
      L1  H     3    18       P1  8028  0.23
      L1  H    10    23       P1  8028  0.70
      L1  H    14    29       P1  7948  0.68

> <Gold.PLP.Chemscore.Internal.Correction>
1.0883

> <Gold.Rescore>
     Score         DG    S(hbond)    S(metal)    S(lipo)     H(rot)  DE(clash)    DE(int)     intcor
     12.95     -17.10       2.08        0.00      90.50       2.31       0.16       3.99       ----

> <Gold.Chemscore.Fitness>
12.9520

> <Gold.Chemscore.DG>
-17.0963

> <Gold.Chemscore.ZeroCoef>
-5.4800

> <Gold.Chemscore.Hbond>
2.0780

> <Gold.Chemscore.Metal>
0.0000

> <Gold.Chemscore.Lipo>
90.4993

> <Gold.Chemscore.Internal_Hbond>
0.0000

> <Gold.Chemscore.DEClash>
0.1557

> <Gold.Chemscore.DEInternal>
3.9886

> <Gold.Chemscore.Rot>
2.3097

> <Gold.Chemscore.Internal.Correction>
   9.000000E+99

> <Gold.Chemscore.Hbonds>
donor molecule, donor type, donor heavy atom, donor atom, acceptor molecule, acceptor atom, score
      L1  H     3    18       P1  8028  0.23
      L1  H    10    23       P1  8028  0.70
      L1  H    14    29       P1  7948  0.08

> <Gold.Chemscore.Hbond.Weighted>
-6.9406

> <Gold.Chemscore.Metal.Weighted>
-0.0000

> <Gold.Chemscore.Lipo.Weighted>
-10.5884

> <Gold.Chemscore.Internal_Hbond.Weighted>
0.0000

> <Gold.Chemscore.DEClash.Weighted>
0.1557

> <Gold.Chemscore.DEInternal.Weighted>
3.9886

> <Gold.Chemscore.Rot.Weighted>
5.9127

> <Gold.Chemscore.Internal.Correction.Weighted>
   9.000000E+99

> <Gold.Protein.RotatedTorsions>
[ 6907 6896 6895 6894 ] final  -13.96 input  -60.11 | X-H torsion
[ 7974 7965 7964 7962 ] final  176.69 input  175.53 | X-H torsion
[ 8008 7997 7996 7995 ] final  -24.69 input   59.86 | X-H torsion
[ 10167 10162 10161 10158 ] final  -98.01 input  -65.29 | X-H torsion
[ 10718 10713 10712 10709 ] final   56.88 input   66.30 | X-H torsion
[ 10763 10752 10751 10750 ] final    0.95 input  -60.55 | X-H torsion
[ 11005 11000 10999 10996 ] final   45.82 input  -57.11 | X-H torsion

> <Gold.Protein.ActiveResidues>
 VAL166  LYS551  ARG553  GLY616  TRP617  ASP618  TYR619  PRO620  LYS621  CYS622 
 ASP623  PHE694  ASN695  SER759  ASP760  ASP761  ALA762  ILE779  LEU786  VAL792 
 PHE793  MET794  SER795  GLU796  ALA797  LYS798  CYS799  TRP800  GLU811  SER814 

> <Gold.Protein.RotatedAtoms>
  151.3468  135.0875  159.9389 H   0  0  0  0  0  0  0  0  0  0  0  0  # atno 6907 bound_to 6896
  152.5197  133.9392  159.7629 H   0  0  0  0  0  0  0  0  0  0  0  0  # atno 6908 bound_to 6896
  150.9760  133.6241  159.2760 H   0  0  0  0  0  0  0  0  0  0  0  0  # atno 6909 bound_to 6896
  144.7180  140.0135  143.6440 H   0  0  0  0  0  0  0  0  0  0  0  0  # atno 7974 bound_to 7965
  154.4515  140.1946  156.0504 H   0  0  0  0  0  0  0  0  0  0  0  0  # atno 8008 bound_to 7997
  156.0658  140.3291  155.7489 H   0  0  0  0  0  0  0  0  0  0  0  0  # atno 8009 bound_to 7997
  155.5340  140.0580  157.2874 H   0  0  0  0  0  0  0  0  0  0  0  0  # atno 8010 bound_to 7997
  140.2774  143.3304  152.0475 H   0  0  0  0  0  0  0  0  0  0  0  0  # atno 10167 bound_to 10162
  157.5468  130.8737  149.8903 H   0  0  0  0  0  0  0  0  0  0  0  0  # atno 10718 bound_to 10713
  153.3141  135.6965  153.7089 H   0  0  0  0  0  0  0  0  0  0  0  0  # atno 10763 bound_to 10752
  153.5955  135.3472  155.2927 H   0  0  0  0  0  0  0  0  0  0  0  0  # atno 10764 bound_to 10752
  154.8582  135.4328  154.2287 H   0  0  0  0  0  0  0  0  0  0  0  0  # atno 10765 bound_to 10752
  140.1425  134.4565  155.8439 H   0  0  0  0  0  0  0  0  0  0  0  0  # atno 11005 bound_to 11000
  146.0239  139.3275  143.0796 LP  0  0  0  0  0  0  0  0  0  0  0  0  # atno 17320 bound_to 7965
  145.8535  140.9515  143.0737 LP  0  0  0  0  0  0  0  0  0  0  0  0  # atno 17321 bound_to 7965
  139.4972  144.6615  151.6453 LP  0  0  0  0  0  0  0  0  0  0  0  0  # atno 17342 bound_to 10162
  140.5840  143.9896  150.6285 LP  0  0  0  0  0  0  0  0  0  0  0  0  # atno 17343 bound_to 10162
  156.0543  130.3711  150.1129 LP  0  0  0  0  0  0  0  0  0  0  0  0  # atno 17370 bound_to 10713
  156.9304  130.9712  151.3534 LP  0  0  0  0  0  0  0  0  0  0  0  0  # atno 17371 bound_to 10713
  141.2188  133.6839  156.7273 LP  0  0  0  0  0  0  0  0  0  0  0  0  # atno 17394 bound_to 11000
  140.2704  134.8396  157.3842 LP  0  0  0  0  0  0  0  0  0  0  0  0  # atno 17395 bound_to 11000

$$$$
