AV-unprocessed.smi:691|AV-procd|sdf|3364|dock1
  -GOLD-   22720 0343D 1   1.00000     0.00000
 Structure written by MMmdl.
 37 38  0  0  0  0  0  0  0  0  1 V2000
  145.2633  135.6752  150.8085 C   0  0  0  0  0  0  0  0  0  0  0  0
  144.5835  135.2367  152.1316 C   0  0  1  0  0  0  0  0  0  0  0  0
  143.4207  136.2008  152.4691 C   0  0  0  0  0  0  0  0  0  0  0  0
  143.8464  137.5486  152.5025 O   0  0  0  0  0  0  0  0  0  0  0  0
  144.0939  133.7824  152.0054 C   0  0  0  0  0  0  0  0  0  0  0  0
  145.3140  132.9152  152.3019 C   0  0  0  0  0  0  0  0  0  0  0  0
  146.0973  133.6889  153.3634 C   0  0  0  0  0  0  0  0  0  0  0  0
  145.5916  135.1450  153.3162 C   0  0  1  0  0  0  0  0  0  0  0  0
  146.7145  136.0783  153.2158 N   0  0  0  0  0  0  0  0  0  0  0  0
  146.7287  137.3305  153.6941 C   0  0  0  0  0  0  0  0  0  0  0  0
  145.7769  137.8448  154.2808 O   0  0  0  0  0  0  0  0  0  0  0  0
  147.8977  137.9370  153.4265 N   0  0  0  0  0  0  0  0  0  0  0  0
  148.3214  139.2470  153.7801 C   0  0  0  0  0  0  0  0  0  0  0  0
  147.4756  140.3827  153.8077 C   0  0  0  0  0  0  0  0  0  0  0  0
  148.0164  141.6235  154.1967 C   0  0  0  0  0  0  0  0  0  0  0  0
  149.3783  141.6834  154.5496 C   0  0  0  0  0  0  0  0  0  0  0  0
  150.1931  140.6076  154.5387 N   0  0  0  0  0  0  0  0  0  0  0  0
  149.6676  139.4213  154.1655 C   0  0  0  0  0  0  0  0  0  0  0  0
  144.5857  135.5756  149.9601 H   0  0  0  0  0  0  0  0  0  0  0  0
  146.1460  135.0753  150.5861 H   0  0  0  0  0  0  0  0  0  0  0  0
  145.5767  136.7191  150.8445 H   0  0  0  0  0  0  0  0  0  0  0  0
  142.6203  136.1160  151.7331 H   0  0  0  0  0  0  0  0  0  0  0  0
  142.9857  135.9518  153.4372 H   0  0  0  0  0  0  0  0  0  0  0  0
  143.8618  137.8799  151.6176 H   0  0  0  0  0  0  0  0  0  0  0  0
  143.3284  133.5811  152.7565 H   0  0  0  0  0  0  0  0  0  0  0  0
  143.6548  133.5609  151.0321 H   0  0  0  0  0  0  0  0  0  0  0  0
  145.0401  131.9135  152.6341 H   0  0  0  0  0  0  0  0  0  0  0  0
  145.9190  132.8072  151.4010 H   0  0  0  0  0  0  0  0  0  0  0  0
  145.9134  133.2663  154.3520 H   0  0  0  0  0  0  0  0  0  0  0  0
  147.1697  133.6086  153.1782 H   0  0  0  0  0  0  0  0  0  0  0  0
  145.0609  135.3193  154.2546 H   0  0  0  0  0  0  0  0  0  0  0  0
  147.5386  135.7431  152.7389 H   0  0  0  0  0  0  0  0  0  0  0  0
  148.5503  137.4111  152.8636 H   0  0  0  0  0  0  0  0  0  0  0  0
  146.4283  140.3286  153.5554 H   0  0  0  0  0  0  0  0  0  0  0  0
  147.3990  142.5090  154.2286 H   0  0  0  0  0  0  0  0  0  0  0  0
  149.8237  142.6188  154.8539 H   0  0  0  0  0  0  0  0  0  0  0  0
  150.3482  138.5825  154.1720 H   0  0  0  0  0  0  0  0  0  0  0  0
  1  2  1  0  0  0  0
  1 19  1  0  0  0  0
  1 20  1  0  0  0  0
  1 21  1  0  0  0  0
  2  8  1  0  0  0  0
  2  3  1  0  0  0  0
  2  5  1  0  0  0  0
  3  4  1  0  0  0  0
  3 22  1  0  0  0  0
  3 23  1  0  0  0  0
  4 24  1  0  0  0  0
  5  6  1  0  0  0  0
  5 25  1  0  0  0  0
  5 26  1  0  0  0  0
  6  7  1  0  0  0  0
  6 27  1  0  0  0  0
  6 28  1  0  0  0  0
  7  8  1  0  0  0  0
  7 29  1  0  0  0  0
  7 30  1  0  0  0  0
  8  9  1  0  0  0  0
  8 31  1  0  0  0  0
  9 10  1  0  0  0  0
  9 32  1  0  0  0  0
 10 11  2  0  0  0  0
 10 12  1  0  0  0  0
 12 13  1  0  0  0  0
 12 33  1  0  0  0  0
 13 18  1  0  0  0  0
 13 14  2  0  0  0  0
 14 15  1  0  0  0  0
 14 34  1  0  0  0  0
 15 16  2  0  0  0  0
 15 35  1  0  0  0  0
 16 17  1  0  0  0  0
 16 36  1  0  0  0  0
 17 18  2  0  0  0  0
 18 37  1  0  0  0  0
M  END
> <s_m_source_file>
AV-unprocessed.smi

> <i_m_source_file_index>
691

> <i_lp_mmshare_version>
43012

> <i_f3d_flags>
0

> <s_epik_input>
W09IXVtDSDJdW0NAXTEoW0NIM10pW0NIMl1bQ0gyXVtDSDJdW0NASF0xW05IXUMoPU8pW05IXWMyW2NIXVtjSF1bY0hdbltjSF0y

> <s_epik_cmdline>
J2VwaWtfcHl0aG9uJywgJy1waCcsICc3LjAnLCAnLXRuJywgJzgnLCAnLW1hJywgJzIwMCcsICctbWV0YWxfYmluZGluZycsICctaW1hZScsICc8aW5maWxlLm1hZT4nLCAnLW9tYWUnLCAnPG91dGZpbGUubWFlPic=

> <r_epik_Ionization_Penalty>
0.00496828

> <r_epik_Ionization_Penalty_Charging>
0

> <r_epik_Ionization_Penalty_Neutral>
0.00496828

> <r_epik_State_Penalty>
0.00358054

> <r_epik_Charging_Adjusted_Penalty>
0.00358054

> <i_epik_Tot_Q>
0

> <i_epik_Tot_abs_Q>
0

> <r_epik_Metal_State_Penalty>
-0

> <b_epik_Metal_Only>
0

> <s_lp_Force_Field>
OPLS_2005

> <r_lp_Energy>
28.9923

> <b_lp_Chiralities_Consistent>
1

> <s_lp_Variant>
AV-unprocessed.smi:691-1

> <Gold.Version>
5.8.1

> <Gold.Id.Protein>
6NUR|6NUR_protein|mol2

> <Gold.PLP.Fitness>
42.7324

> <Gold.PLP.PLP>
-29.6309

> <Gold.PLP.part.hbond>
-5.0000

> <Gold.PLP.part.metal>
0.0000

> <Gold.PLP.part.buried>
-2.7405

> <Gold.PLP.part.nonpolar>
-22.1380

> <Gold.PLP.part.repulsive>
0.2201

> <Gold.PLP.ligand.clash>
0.0000

> <Gold.PLP.ligand.torsion>
0.6926

> <Gold.PLP.Chemscore.Hbond>
3.8240

> <Gold.PLP.Chemscore.CHOScore>
1.0000

> <Gold.PLP.Chemscore.Metal>
0.0000

> <Gold.Chemscore.Hbonds>
donor molecule, donor type, donor heavy atom, donor atom, acceptor molecule, acceptor atom, score
      L1  H     4    24       P1 10171  1.00
      L1  H     9    32       P1  7948  0.91
      L1  H    12    33       P1  7948  1.00
      P1  H  7989  7998       L1    17  0.86
      L1  C    16    36       P1  8028  1.00

> <Gold.PLP.Chemscore.Internal.Correction>
0.0146

> <Gold.Rescore>
     Score         DG    S(hbond)    S(metal)    S(lipo)     H(rot)  DE(clash)    DE(int)     intcor
     16.49     -19.83       3.46        0.00      63.00       1.78       0.20       3.14       ----

> <Gold.Chemscore.Fitness>
16.4943

> <Gold.Chemscore.DG>
-19.8312

> <Gold.Chemscore.ZeroCoef>
-5.4800

> <Gold.Chemscore.Hbond>
3.4572

> <Gold.Chemscore.Metal>
0.0000

> <Gold.Chemscore.Lipo>
62.9969

> <Gold.Chemscore.Internal_Hbond>
0.0000

> <Gold.Chemscore.DEClash>
0.2010

> <Gold.Chemscore.DEInternal>
3.1359

> <Gold.Chemscore.Rot>
1.7838

> <Gold.Chemscore.Internal.Correction>
   9.000000E+99

> <Gold.Chemscore.Hbonds>
donor molecule, donor type, donor heavy atom, donor atom, acceptor molecule, acceptor atom, score
      L1  H     4    24       P1 10171  0.99
      L1  H     9    32       P1  7948  0.88
      L1  H    12    33       P1  7948  0.96
      P1  H  7989  7998       L1    17  0.40

> <Gold.Chemscore.Hbond.Weighted>
-11.5471

> <Gold.Chemscore.Metal.Weighted>
-0.0000

> <Gold.Chemscore.Lipo.Weighted>
-7.3706

> <Gold.Chemscore.Internal_Hbond.Weighted>
0.0000

> <Gold.Chemscore.DEClash.Weighted>
0.2010

> <Gold.Chemscore.DEInternal.Weighted>
3.1359

> <Gold.Chemscore.Rot.Weighted>
4.5666

> <Gold.Chemscore.Internal.Correction.Weighted>
   9.000000E+99

> <Gold.Protein.RotatedTorsions>
[ 6907 6896 6895 6894 ] final  -69.36 input  -60.11 | X-H torsion
[ 7974 7965 7964 7962 ] final -161.03 input  175.53 | X-H torsion
[ 8008 7997 7996 7995 ] final  -42.22 input   59.86 | X-H torsion
[ 10167 10162 10161 10158 ] final  136.27 input  -65.29 | X-H torsion
[ 10718 10713 10712 10709 ] final  -62.38 input   66.30 | X-H torsion
[ 10763 10752 10751 10750 ] final  -48.27 input  -60.55 | X-H torsion
[ 11005 11000 10999 10996 ] final    1.86 input  -57.11 | X-H torsion

> <Gold.Protein.ActiveResidues>
 VAL166  LYS551  ARG553  GLY616  TRP617  ASP618  TYR619  PRO620  LYS621  CYS622 
 ASP623  PHE694  ASN695  SER759  ASP760  ASP761  ALA762  ILE779  LEU786  VAL792 
 PHE793  MET794  SER795  GLU796  ALA797  LYS798  CYS799  TRP800  GLU811  SER814 

> <Gold.Protein.RotatedAtoms>
  150.7309  134.5608  159.5840 H   0  0  0  0  0  0  0  0  0  0  0  0  # atno 6907 bound_to 6896
  152.3072  134.7538  160.0354 H   0  0  0  0  0  0  0  0  0  0  0  0  # atno 6908 bound_to 6896
  151.8099  133.3345  159.3589 H   0  0  0  0  0  0  0  0  0  0  0  0  # atno 6909 bound_to 6896
  144.7405  140.3456  143.6126 H   0  0  0  0  0  0  0  0  0  0  0  0  # atno 7974 bound_to 7965
  154.4000  140.1479  156.3319 H   0  0  0  0  0  0  0  0  0  0  0  0  # atno 8008 bound_to 7997
  155.8436  140.3461  155.5626 H   0  0  0  0  0  0  0  0  0  0  0  0  # atno 8009 bound_to 7997
  155.8061  140.0877  157.1921 H   0  0  0  0  0  0  0  0  0  0  0  0  # atno 8010 bound_to 7997
  139.5186  144.6473  151.5402 H   0  0  0  0  0  0  0  0  0  0  0  0  # atno 10167 bound_to 10162
  156.0859  130.4208  150.1126 H   0  0  0  0  0  0  0  0  0  0  0  0  # atno 10718 bound_to 10713
  154.0751  135.6599  153.4829 H   0  0  0  0  0  0  0  0  0  0  0  0  # atno 10763 bound_to 10752
  153.0376  135.5166  154.7529 H   0  0  0  0  0  0  0  0  0  0  0  0  # atno 10764 bound_to 10752
  154.6607  135.3014  154.9838 H   0  0  0  0  0  0  0  0  0  0  0  0  # atno 10765 bound_to 10752
  140.6107  133.9751  155.8176 H   0  0  0  0  0  0  0  0  0  0  0  0  # atno 11005 bound_to 11000
  145.7329  139.1741  143.2420 LP  0  0  0  0  0  0  0  0  0  0  0  0  # atno 17320 bound_to 7965
  146.1192  140.7330  142.9466 LP  0  0  0  0  0  0  0  0  0  0  0  0  # atno 17321 bound_to 7965
  140.6264  143.9161  150.6568 LP  0  0  0  0  0  0  0  0  0  0  0  0  # atno 17342 bound_to 10162
  140.2451  143.3635  152.1454 LP  0  0  0  0  0  0  0  0  0  0  0  0  # atno 17343 bound_to 10162
  156.9147  130.9663  151.3558 LP  0  0  0  0  0  0  0  0  0  0  0  0  # atno 17370 bound_to 10713
  157.5993  130.8501  149.8778 LP  0  0  0  0  0  0  0  0  0  0  0  0  # atno 17371 bound_to 10713
  141.0810  134.0063  157.3386 LP  0  0  0  0  0  0  0  0  0  0  0  0  # atno 17394 bound_to 11000
  139.9193  135.0199  156.8004 LP  0  0  0  0  0  0  0  0  0  0  0  0  # atno 17395 bound_to 11000

$$$$
