AV-unprocessed.smi:1049|AV-procd|sdf|4609|dock5
  -GOLD-   22720 3103D 1   1.00000     0.00000
 Structure written by MMmdl.
 40 41  0  0  0  0  0  0  0  0  1 V2000
  153.7227  142.2456  161.8550 C   0  0  0  0  0  0  0  0  0  0  0  0
  152.6756  142.7331  160.8441 C   0  0  1  0  0  0  0  0  0  0  0  0
  152.2743  144.2012  161.1069 C   0  0  0  0  0  0  0  0  0  0  0  0
  151.3174  144.7401  160.0267 C   0  0  0  0  0  0  0  0  0  0  0  0
  151.8739  144.4711  158.6172 C   0  0  0  0  0  0  0  0  0  0  0  0
  152.1147  143.0247  158.4731 N   0  0  0  0  0  0  0  0  0  0  0  0
  151.3470  142.1505  157.7740 C   0  0  0  0  0  0  0  0  0  0  0  0
  151.6018  140.9484  157.6832 O   0  0  0  0  0  0  0  0  0  0  0  0
  150.2816  142.6999  157.1676 N   0  0  0  0  0  0  0  0  0  0  0  0
  149.2633  141.9676  156.4219 C   0  0  0  0  0  0  0  0  0  0  0  0
  149.8226  141.2971  155.1506 C   0  0  0  0  0  0  0  0  0  0  0  0
  148.8302  140.4354  154.4279 C   0  0  0  0  0  0  0  0  0  0  0  0
  147.6917  140.8912  153.9125 N   0  0  0  0  0  0  0  0  0  0  0  0
  147.0946  139.7794  153.3303 C   0  0  0  0  0  0  0  0  0  0  0  0
  147.8999  138.6818  153.5149 C   0  0  0  0  0  0  0  0  0  0  0  0
  149.0230  139.1209  154.2065 N   0  0  0  0  0  0  0  0  0  0  0  0
  150.1433  138.3030  154.6379 C   0  0  0  0  0  0  0  0  0  0  0  0
  149.7867  137.0191  154.6493 F   0  0  0  0  0  0  0  0  0  0  0  0
  151.1859  138.4738  153.8245 F   0  0  0  0  0  0  0  0  0  0  0  0
  153.1675  142.5687  159.3901 C   0  0  0  0  0  0  0  0  0  0  0  0
  154.6435  142.8254  161.7837 H   0  0  0  0  0  0  0  0  0  0  0  0
  153.9741  141.1985  161.6840 H   0  0  0  0  0  0  0  0  0  0  0  0
  153.3514  142.3331  162.8765 H   0  0  0  0  0  0  0  0  0  0  0  0
  151.7856  142.1140  160.9686 H   0  0  0  0  0  0  0  0  0  0  0  0
  151.8151  144.2981  162.0913 H   0  0  0  0  0  0  0  0  0  0  0  0
  153.1712  144.8219  161.1236 H   0  0  0  0  0  0  0  0  0  0  0  0
  150.3423  144.2631  160.1311 H   0  0  0  0  0  0  0  0  0  0  0  0
  151.1560  145.8085  160.1710 H   0  0  0  0  0  0  0  0  0  0  0  0
  151.1992  144.8868  157.8688 H   0  0  0  0  0  0  0  0  0  0  0  0
  152.8158  145.0048  158.4821 H   0  0  0  0  0  0  0  0  0  0  0  0
  150.1409  143.6937  157.2763 H   0  0  0  0  0  0  0  0  0  0  0  0
  148.8615  141.2056  157.0895 H   0  0  0  0  0  0  0  0  0  0  0  0
  148.4301  142.6254  156.1708 H   0  0  0  0  0  0  0  0  0  0  0  0
  150.2088  142.0551  154.4688 H   0  0  0  0  0  0  0  0  0  0  0  0
  150.6793  140.6760  155.4153 H   0  0  0  0  0  0  0  0  0  0  0  0
  146.1385  139.8537  152.8335 H   0  0  0  0  0  0  0  0  0  0  0  0
  147.7713  137.6523  153.2145 H   0  0  0  0  0  0  0  0  0  0  0  0
  150.4601  138.5832  155.6423 H   0  0  0  0  0  0  0  0  0  0  0  0
  154.0700  143.1600  159.2269 H   0  0  0  0  0  0  0  0  0  0  0  0
  153.4595  141.5337  159.2051 H   0  0  0  0  0  0  0  0  0  0  0  0
  1  2  1  0  0  0  0
  1 21  1  0  0  0  0
  1 22  1  0  0  0  0
  1 23  1  0  0  0  0
  2 20  1  0  0  0  0
  2  3  1  0  0  0  0
  2 24  1  0  0  0  0
  3  4  1  0  0  0  0
  3 25  1  0  0  0  0
  3 26  1  0  0  0  0
  4  5  1  0  0  0  0
  4 27  1  0  0  0  0
  4 28  1  0  0  0  0
  5  6  1  0  0  0  0
  5 29  1  0  0  0  0
  5 30  1  0  0  0  0
  6  7  1  0  0  0  0
  6 20  1  0  0  0  0
  7  8  2  0  0  0  0
  7  9  1  0  0  0  0
  9 10  1  0  0  0  0
  9 31  1  0  0  0  0
 10 11  1  0  0  0  0
 10 32  1  0  0  0  0
 10 33  1  0  0  0  0
 11 12  1  0  0  0  0
 11 34  1  0  0  0  0
 11 35  1  0  0  0  0
 12 16  1  0  0  0  0
 12 13  2  0  0  0  0
 13 14  1  0  0  0  0
 14 15  2  0  0  0  0
 14 36  1  0  0  0  0
 15 16  1  0  0  0  0
 15 37  1  0  0  0  0
 16 17  1  0  0  0  0
 17 18  1  0  0  0  0
 17 19  1  0  0  0  0
 17 38  1  0  0  0  0
 20 39  1  0  0  0  0
 20 40  1  0  0  0  0
M  END
> <s_m_source_file>
AV-unprocessed.smi

> <i_m_source_file_index>
1049

> <i_lp_mmshare_version>
43012

> <i_f3d_flags>
0

> <s_epik_input>
W0NIM11bQ0BASF0xW0NIMl1bQ0gyXVtDSDJdTihbQ0gyXTEpQyg9TylbTkhdW0NIMl1bQ0gyXWMybltjSF1bY0hdbjJbQ0hdKEYpRg==

> <s_epik_cmdline>
J2VwaWtfcHl0aG9uJywgJy1waCcsICc3LjAnLCAnLXRuJywgJzgnLCAnLW1hJywgJzIwMCcsICctbWV0YWxfYmluZGluZycsICctaW1hZScsICc8aW5maWxlLm1hZT4nLCAnLW9tYWUnLCAnPG91dGZpbGUubWFlPic=

> <r_lp_tautomer_probability>
1

> <r_epik_Ionization_Penalty>
0.101141

> <r_epik_Ionization_Penalty_Charging>
0.101077

> <r_epik_Ionization_Penalty_Neutral>
6.38597e-05

> <r_epik_State_Penalty>
0.091079

> <r_epik_Charging_Adjusted_Penalty>
0.192156

> <i_epik_Tot_Q>
0

> <i_epik_Tot_abs_Q>
0

> <r_epik_Metal_State_Penalty>
0.0777008

> <b_epik_Metal_Only>
0

> <s_lp_Force_Field>
OPLS_2005

> <r_lp_Energy>
32.9855

> <b_lp_Chiralities_Consistent>
1

> <s_lp_Variant>
AV-unprocessed.smi:1049-2

> <Gold.Version>
5.8.1

> <Gold.Id.Protein>
6NUR|6NUR_protein|mol2

> <Gold.PLP.Fitness>
51.2398

> <Gold.PLP.PLP>
-46.0944

> <Gold.PLP.part.hbond>
-1.0000

> <Gold.PLP.part.metal>
0.0000

> <Gold.PLP.part.buried>
-1.1304

> <Gold.PLP.part.nonpolar>
-42.6189

> <Gold.PLP.part.repulsive>
0.1728

> <Gold.PLP.ligand.clash>
0.0000

> <Gold.PLP.ligand.torsion>
0.5958

> <Gold.PLP.Chemscore.Hbond>
0.1877

> <Gold.PLP.Chemscore.CHOScore>
1.9091

> <Gold.PLP.Chemscore.Metal>
0.0000

> <Gold.Chemscore.Hbonds>
donor molecule, donor type, donor heavy atom, donor atom, acceptor molecule, acceptor atom, score
      L1  H     9    31       P1  8028  0.14
      L1  C    14    36       P1 10175  0.94
      L1  C    15    37       P1  7948  1.00

> <Gold.PLP.Chemscore.Internal.Correction>
0.0465

> <Gold.Rescore>
     Score         DG    S(hbond)    S(metal)    S(lipo)     H(rot)  DE(clash)    DE(int)     intcor
     13.16     -15.01       0.44        0.00     103.09       1.56       1.75       0.09       ----

> <Gold.Chemscore.Fitness>
13.1604

> <Gold.Chemscore.DG>
-15.0064

> <Gold.Chemscore.ZeroCoef>
-5.4800

> <Gold.Chemscore.Hbond>
0.4388

> <Gold.Chemscore.Metal>
0.0000

> <Gold.Chemscore.Lipo>
103.0883

> <Gold.Chemscore.Internal_Hbond>
0.0000

> <Gold.Chemscore.DEClash>
1.7513

> <Gold.Chemscore.DEInternal>
0.0947

> <Gold.Chemscore.Rot>
1.5626

> <Gold.Chemscore.Internal.Correction>
   9.000000E+99

> <Gold.Chemscore.Hbonds>
donor molecule, donor type, donor heavy atom, donor atom, acceptor molecule, acceptor atom, score
      L1  H     9    31       P1  8028  0.13

> <Gold.Chemscore.Hbond.Weighted>
-1.4654

> <Gold.Chemscore.Metal.Weighted>
-0.0000

> <Gold.Chemscore.Lipo.Weighted>
-12.0613

> <Gold.Chemscore.Internal_Hbond.Weighted>
0.0000

> <Gold.Chemscore.DEClash.Weighted>
1.7513

> <Gold.Chemscore.DEInternal.Weighted>
0.0947

> <Gold.Chemscore.Rot.Weighted>
4.0004

> <Gold.Chemscore.Internal.Correction.Weighted>
   9.000000E+99

> <Gold.Protein.RotatedTorsions>
[ 6907 6896 6895 6894 ] final  -30.98 input  -60.11 | X-H torsion
[ 7974 7965 7964 7962 ] final   73.09 input  175.53 | X-H torsion
[ 8008 7997 7996 7995 ] final   12.47 input   59.86 | X-H torsion
[ 10167 10162 10161 10158 ] final   51.52 input  -65.29 | X-H torsion
[ 10718 10713 10712 10709 ] final   83.18 input   66.30 | X-H torsion
[ 10763 10752 10751 10750 ] final  -33.15 input  -60.55 | X-H torsion
[ 11005 11000 10999 10996 ] final   18.55 input  -57.11 | X-H torsion

> <Gold.Protein.ActiveResidues>
 VAL166  LYS551  ARG553  GLY616  TRP617  ASP618  TYR619  PRO620  LYS621  CYS622 
 ASP623  PHE694  ASN695  SER759  ASP760  ASP761  ALA762  ILE779  LEU786  VAL792 
 PHE793  MET794  SER795  GLU796  ALA797  LYS798  CYS799  TRP800  GLU811  SER814 

> <Gold.Protein.RotatedAtoms>
  151.0982  134.9956  159.8435 H   0  0  0  0  0  0  0  0  0  0  0  0  # atno 6907 bound_to 6896
  152.5435  134.1982  159.8711 H   0  0  0  0  0  0  0  0  0  0  0  0  # atno 6908 bound_to 6896
  151.2024  133.4559  159.2630 H   0  0  0  0  0  0  0  0  0  0  0  0  # atno 6909 bound_to 6896
  145.7452  139.2737  143.1463 H   0  0  0  0  0  0  0  0  0  0  0  0  # atno 7974 bound_to 7965
  154.8211  140.2884  155.5786 H   0  0  0  0  0  0  0  0  0  0  0  0  # atno 8008 bound_to 7997
  156.2997  140.2550  156.3049 H   0  0  0  0  0  0  0  0  0  0  0  0  # atno 8009 bound_to 7997
  154.9337  140.0383  157.2051 H   0  0  0  0  0  0  0  0  0  0  0  0  # atno 8010 bound_to 7997
  140.2610  144.3373  150.6318 H   0  0  0  0  0  0  0  0  0  0  0  0  # atno 10167 bound_to 10162
  157.6873  131.0080  150.2485 H   0  0  0  0  0  0  0  0  0  0  0  0  # atno 10718 bound_to 10713
  153.8255  135.6870  153.4821 H   0  0  0  0  0  0  0  0  0  0  0  0  # atno 10763 bound_to 10752
  153.1543  135.4605  154.9679 H   0  0  0  0  0  0  0  0  0  0  0  0  # atno 10764 bound_to 10752
  154.7909  135.3301  154.7723 H   0  0  0  0  0  0  0  0  0  0  0  0  # atno 10765 bound_to 10752
  140.4236  134.1493  155.7675 H   0  0  0  0  0  0  0  0  0  0  0  0  # atno 11005 bound_to 11000
  146.0410  140.8165  142.9829 LP  0  0  0  0  0  0  0  0  0  0  0  0  # atno 17320 bound_to 7965
  144.6862  140.2910  143.7278 LP  0  0  0  0  0  0  0  0  0  0  0  0  # atno 17321 bound_to 7965
  140.5966  143.2167  151.7153 LP  0  0  0  0  0  0  0  0  0  0  0  0  # atno 17342 bound_to 10162
  139.5017  144.3858  152.0330 LP  0  0  0  0  0  0  0  0  0  0  0  0  # atno 17343 bound_to 10162
  156.3086  130.3768  149.7683 LP  0  0  0  0  0  0  0  0  0  0  0  0  # atno 17370 bound_to 10713
  156.5290  130.8249  151.3230 LP  0  0  0  0  0  0  0  0  0  0  0  0  # atno 17371 bound_to 10713
  141.1774  133.8485  157.1375 LP  0  0  0  0  0  0  0  0  0  0  0  0  # atno 17394 bound_to 11000
  140.0183  134.9957  157.0539 LP  0  0  0  0  0  0  0  0  0  0  0  0  # atno 17395 bound_to 11000

$$$$
