AV-unprocessed.smi:2751|AV-procd|sdf|10601|dock4
  -GOLD-   2272015 53D 1   1.00000     0.00000
 Structure written by MMmdl.
 34 35  0  0  0  0  0  0  0  0  1 V2000
  150.3214  139.4045  153.8685 O   0  0  0  0  0  0  0  0  0  0  0  0
  149.5690  139.3039  154.8431 C   0  0  0  0  0  0  0  0  0  0  0  0
  149.8181  139.9535  155.9901 N   0  0  0  0  0  0  0  0  0  0  0  0
  150.9545  140.8349  156.2354 C   0  0  0  0  0  0  0  0  0  0  0  0
  150.5181  142.1533  156.8971 C   0  0  0  0  0  0  0  0  0  0  0  0
  151.5820  142.7251  157.8475 C   0  0  2  0  0  0  0  0  0  0  0  0
  151.9014  141.7575  159.0040 C   0  0  0  0  0  0  0  0  0  0  0  0
  152.9056  142.3887  159.9754 C   0  0  0  0  0  0  0  0  0  0  0  0
  152.3949  143.7607  160.4269 C   0  0  0  0  0  0  0  0  0  0  0  0
  152.0463  144.6278  159.2069 C   0  0  0  0  0  0  0  0  0  0  0  0
  151.0963  143.9528  158.3880 O   0  0  0  0  0  0  0  0  0  0  0  0
  148.3964  138.5701  154.9568 N   0  0  0  0  0  0  0  0  0  0  0  0
  147.6034  138.4468  153.9363 C   0  0  0  0  0  0  0  0  0  0  0  0
  147.6546  138.9262  152.6300 N   0  0  0  0  0  0  0  0  0  0  0  0
  146.5377  138.4926  151.9722 C   0  0  0  0  0  0  0  0  0  0  0  0
  145.8134  137.7712  152.8224 C   0  0  0  0  0  0  0  0  0  0  0  0
  146.4403  137.7250  154.0314 O   0  0  0  0  0  0  0  0  0  0  0  0
  149.1652  139.8313  156.7509 H   0  0  0  0  0  0  0  0  0  0  0  0
  151.6997  140.3255  156.8489 H   0  0  0  0  0  0  0  0  0  0  0  0
  151.4322  141.0391  155.2769 H   0  0  0  0  0  0  0  0  0  0  0  0
  150.2789  142.8902  156.1291 H   0  0  0  0  0  0  0  0  0  0  0  0
  149.5974  141.9852  157.4573 H   0  0  0  0  0  0  0  0  0  0  0  0
  152.4929  142.9190  157.2780 H   0  0  0  0  0  0  0  0  0  0  0  0
  150.9845  141.5084  159.5398 H   0  0  0  0  0  0  0  0  0  0  0  0
  152.3004  140.8203  158.6151 H   0  0  0  0  0  0  0  0  0  0  0  0
  153.0636  141.7386  160.8361 H   0  0  0  0  0  0  0  0  0  0  0  0
  153.8725  142.5000  159.4831 H   0  0  0  0  0  0  0  0  0  0  0  0
  151.5079  143.6349  161.0492 H   0  0  0  0  0  0  0  0  0  0  0  0
  153.1433  144.2584  161.0442 H   0  0  0  0  0  0  0  0  0  0  0  0
  151.6198  145.5772  159.5314 H   0  0  0  0  0  0  0  0  0  0  0  0
  152.9406  144.8625  158.6273 H   0  0  0  0  0  0  0  0  0  0  0  0
  148.3695  139.4969  152.2017 H   0  0  0  0  0  0  0  0  0  0  0  0
  146.3763  138.7545  150.9369 H   0  0  0  0  0  0  0  0  0  0  0  0
  144.8728  137.2494  152.7253 H   0  0  0  0  0  0  0  0  0  0  0  0
  1  2  2  0  0  0  0
  2 12  1  0  0  0  0
  2  3  1  0  0  0  0
  3  4  1  0  0  0  0
  3 18  1  0  0  0  0
  4  5  1  0  0  0  0
  4 19  1  0  0  0  0
  4 20  1  0  0  0  0
  5  6  1  0  0  0  0
  5 21  1  0  0  0  0
  5 22  1  0  0  0  0
  6 11  1  0  0  0  0
  6  7  1  0  0  0  0
  6 23  1  0  0  0  0
  7  8  1  0  0  0  0
  7 24  1  0  0  0  0
  7 25  1  0  0  0  0
  8  9  1  0  0  0  0
  8 26  1  0  0  0  0
  8 27  1  0  0  0  0
  9 10  1  0  0  0  0
  9 28  1  0  0  0  0
  9 29  1  0  0  0  0
 10 11  1  0  0  0  0
 10 30  1  0  0  0  0
 10 31  1  0  0  0  0
 12 13  2  0  0  0  0
 13 17  1  0  0  0  0
 13 14  1  0  0  0  0
 14 32  1  0  0  0  0
 14 15  1  0  0  0  0
 15 33  1  0  0  0  0
 15 16  2  0  0  0  0
 16 34  1  0  0  0  0
 16 17  1  0  0  0  0
M  END
> <s_m_source_file>
AV-unprocessed.smi

> <i_m_source_file_index>
2751

> <i_lp_mmshare_version>
43012

> <i_f3d_flags>
0

> <s_epik_input>
bzFbY0hdW2NIXW5jMVtOSF1DKD1PKVtOSF1bQ0gyXVtDSDJdW0NAQEhdMltDSDJdW0NIMl1bQ0gyXVtDSDJdTzI=

> <s_epik_cmdline>
J2VwaWtfcHl0aG9uJywgJy1waCcsICc3LjAnLCAnLXRuJywgJzgnLCAnLW1hJywgJzIwMCcsICctbWV0YWxfYmluZGluZycsICctaW1hZScsICc8aW5maWxlLm1hZT4nLCAnLW9tYWUnLCAnPG91dGZpbGUubWFlPic=

> <r_lp_tautomer_probability>
0.107061

> <r_epik_Ionization_Penalty>
1.421

> <r_epik_Ionization_Penalty_Charging>
1.42064

> <r_epik_Ionization_Penalty_Neutral>
0.0003614

> <r_epik_State_Penalty>
2.61489

> <r_epik_Charging_Adjusted_Penalty>
4.03553

> <i_epik_Tot_Q>
0

> <i_epik_Tot_abs_Q>
0

> <r_epik_Metal_State_Penalty>
3.57288

> <b_epik_Metal_Only>
0

> <s_lp_Force_Field>
OPLS_2005

> <r_lp_Energy>
32.5826

> <b_lp_Chiralities_Consistent>
1

> <s_lp_Variant>
AV-unprocessed.smi:2751-7

> <Gold.Version>
5.8.1

> <Gold.Id.Protein>
6NUR|6NUR_protein|mol2

> <Gold.PLP.Fitness>
38.0372

> <Gold.PLP.PLP>
-31.5559

> <Gold.PLP.part.hbond>
-2.7014

> <Gold.PLP.part.metal>
0.0000

> <Gold.PLP.part.buried>
-4.7513

> <Gold.PLP.part.nonpolar>
-27.3069

> <Gold.PLP.part.repulsive>
2.5979

> <Gold.PLP.ligand.clash>
0.0000

> <Gold.PLP.ligand.torsion>
0.5388

> <Gold.PLP.Chemscore.Hbond>
2.0000

> <Gold.PLP.Chemscore.CHOScore>
0.5142

> <Gold.PLP.Chemscore.Metal>
0.0000

> <Gold.Chemscore.Hbonds>
donor molecule, donor type, donor heavy atom, donor atom, acceptor molecule, acceptor atom, score
      L1  H    14    32       P1  7957  1.00
      P1  H  7989  7998       L1     1  1.00
      L1  C    15    33       P1 10171  0.42

> <Gold.PLP.Chemscore.Internal.Correction>
0.0166

> <Gold.Rescore>
     Score         DG    S(hbond)    S(metal)    S(lipo)     H(rot)  DE(clash)    DE(int)     intcor
     17.36     -17.94       1.98        0.00      85.76       1.63       0.04       0.54       ----

> <Gold.Chemscore.Fitness>
17.3603

> <Gold.Chemscore.DG>
-17.9354

> <Gold.Chemscore.ZeroCoef>
-5.4800

> <Gold.Chemscore.Hbond>
1.9764

> <Gold.Chemscore.Metal>
0.0000

> <Gold.Chemscore.Lipo>
85.7628

> <Gold.Chemscore.Internal_Hbond>
0.0000

> <Gold.Chemscore.DEClash>
0.0362

> <Gold.Chemscore.DEInternal>
0.5389

> <Gold.Chemscore.Rot>
1.6328

> <Gold.Chemscore.Internal.Correction>
   9.000000E+99

> <Gold.Chemscore.Hbonds>
donor molecule, donor type, donor heavy atom, donor atom, acceptor molecule, acceptor atom, score
      L1  H    14    32       P1  7957  1.00
      P1  H  7989  7998       L1     1  0.93

> <Gold.Chemscore.Hbond.Weighted>
-6.6010

> <Gold.Chemscore.Metal.Weighted>
-0.0000

> <Gold.Chemscore.Lipo.Weighted>
-10.0342

> <Gold.Chemscore.Internal_Hbond.Weighted>
0.0000

> <Gold.Chemscore.DEClash.Weighted>
0.0362

> <Gold.Chemscore.DEInternal.Weighted>
0.5389

> <Gold.Chemscore.Rot.Weighted>
4.1799

> <Gold.Chemscore.Internal.Correction.Weighted>
   9.000000E+99

> <Gold.Protein.RotatedTorsions>
[ 6907 6896 6895 6894 ] final  -33.78 input  -60.11 | X-H torsion
[ 7974 7965 7964 7962 ] final -123.63 input  175.53 | X-H torsion
[ 8008 7997 7996 7995 ] final  -89.21 input   59.86 | X-H torsion
[ 10167 10162 10161 10158 ] final  177.65 input  -65.29 | X-H torsion
[ 10718 10713 10712 10709 ] final  -59.33 input   66.30 | X-H torsion
[ 10763 10752 10751 10750 ] final   51.91 input  -60.55 | X-H torsion
[ 11005 11000 10999 10996 ] final  -60.17 input  -57.11 | X-H torsion

> <Gold.Protein.ActiveResidues>
 VAL166  LYS551  ARG553  GLY616  TRP617  ASP618  TYR619  PRO620  LYS621  CYS622 
 ASP623  PHE694  ASN695  SER759  ASP760  ASP761  ALA762  ILE779  LEU786  VAL792 
 PHE793  MET794  SER795  GLU796  ALA797  LYS798  CYS799  TRP800  GLU811  SER814 

> <Gold.Protein.RotatedAtoms>
  151.0612  134.9737  159.8260 H   0  0  0  0  0  0  0  0  0  0  0  0  # atno 6907 bound_to 6896
  152.5395  134.2416  159.8874 H   0  0  0  0  0  0  0  0  0  0  0  0  # atno 6908 bound_to 6896
  151.2436  133.4344  159.2642 H   0  0  0  0  0  0  0  0  0  0  0  0  # atno 6909 bound_to 6896
  145.0167  140.7953  143.4406 H   0  0  0  0  0  0  0  0  0  0  0  0  # atno 7974 bound_to 7965
  154.6839  140.0544  157.0294 H   0  0  0  0  0  0  0  0  0  0  0  0  # atno 8008 bound_to 7997
  155.0913  140.3219  155.4554 H   0  0  0  0  0  0  0  0  0  0  0  0  # atno 8009 bound_to 7997
  156.2704  140.2047  156.6040 H   0  0  0  0  0  0  0  0  0  0  0  0  # atno 8010 bound_to 7997
  139.5262  144.2773  152.0577 H   0  0  0  0  0  0  0  0  0  0  0  0  # atno 10167 bound_to 10162
  156.1070  130.4179  150.0700 H   0  0  0  0  0  0  0  0  0  0  0  0  # atno 10718 bound_to 10713
  152.9787  135.5830  154.4493 H   0  0  0  0  0  0  0  0  0  0  0  0  # atno 10763 bound_to 10752
  154.4084  135.2769  155.2054 H   0  0  0  0  0  0  0  0  0  0  0  0  # atno 10764 bound_to 10752
  154.3855  135.6137  153.5868 H   0  0  0  0  0  0  0  0  0  0  0  0  # atno 10765 bound_to 10752
  141.1277  133.6620  156.5183 H   0  0  0  0  0  0  0  0  0  0  0  0  # atno 11005 bound_to 11000
  145.1950  139.2281  143.5222 LP  0  0  0  0  0  0  0  0  0  0  0  0  # atno 17320 bound_to 7965
  146.3479  140.1755  142.8589 LP  0  0  0  0  0  0  0  0  0  0  0  0  # atno 17321 bound_to 7965
  140.2230  144.4447  150.6333 LP  0  0  0  0  0  0  0  0  0  0  0  0  # atno 17342 bound_to 10162
  140.6406  143.2203  151.6298 LP  0  0  0  0  0  0  0  0  0  0  0  0  # atno 17343 bound_to 10162
  156.8673  130.9512  151.3612 LP  0  0  0  0  0  0  0  0  0  0  0  0  # atno 17370 bound_to 10713
  157.6247  130.8682  149.9169 LP  0  0  0  0  0  0  0  0  0  0  0  0  # atno 17371 bound_to 10713
  140.4313  134.7099  157.4943 LP  0  0  0  0  0  0  0  0  0  0  0  0  # atno 17394 bound_to 11000
  140.0292  134.6432  155.9130 LP  0  0  0  0  0  0  0  0  0  0  0  0  # atno 17395 bound_to 11000

$$$$
