AV-unprocessed.smi:1522|AV-procd|sdf|6136|dock4
  -GOLD-   22720 6283D 1   1.00000     0.00000
 Structure written by MMmdl.
 34 35  0  0  0  0  0  0  0  0  3 V2000
  147.7847  131.6785  153.2586 C   0  0  0  0  0  0  0  0  0  0  0  0
  148.2350  133.1364  153.0157 C   0  0  2  0  0  0  0  0  0  0  0  0
  148.5399  133.8340  154.3642 C   0  0  0  0  0  0  0  0  0  0  0  0
  149.5303  134.9013  154.2285 N   0  0  0  0  0  0  0  0  0  0  0  0
  150.5719  135.1369  155.0384 C   0  0  0  0  0  0  0  0  0  0  0  0
  150.7348  134.4535  156.0508 O   0  0  0  0  0  0  0  0  0  0  0  0
  151.3712  136.1400  154.6141 N   0  5  0  0  0  0  0  0  0  0  0  0
  151.2008  137.3816  155.0974 C   0  0  0  0  0  0  0  0  0  0  0  0
  151.7888  138.4542  154.5433 N   0  0  0  0  0  0  0  0  0  0  0  0
  151.4835  139.6412  155.1949 N   0  0  0  0  0  0  0  0  0  0  0  0
  150.6608  139.4334  156.2230 C   0  0  0  0  0  0  0  0  0  0  0  0
  150.1859  137.7690  156.4892 S   0  0  0  0  0  0  0  0  0  0  0  0
  147.2422  133.9122  152.2162 N   0  3  0  0  0  0  0  0  0  0  0  0
  146.6950  133.2009  151.0422 C   0  0  0  0  0  0  0  0  0  0  0  0
  145.4996  134.0405  150.6009 C   0  0  0  0  0  0  0  0  0  0  0  0
  144.9691  134.6648  151.8941 C   0  0  0  0  0  0  0  0  0  0  0  0
  146.0585  134.4179  152.9467 C   0  0  0  0  0  0  0  0  0  0  0  0
  148.4845  131.1602  153.9149 H   0  0  0  0  0  0  0  0  0  0  0  0
  147.7405  131.1037  152.3338 H   0  0  0  0  0  0  0  0  0  0  0  0
  146.8003  131.6329  153.7261 H   0  0  0  0  0  0  0  0  0  0  0  0
  149.1621  133.0928  152.4422 H   0  0  0  0  0  0  0  0  0  0  0  0
  147.6264  134.2876  154.7499 H   0  0  0  0  0  0  0  0  0  0  0  0
  148.8462  133.1139  155.1238 H   0  0  0  0  0  0  0  0  0  0  0  0
  149.4378  135.5009  153.4211 H   0  0  0  0  0  0  0  0  0  0  0  0
  150.3304  140.2651  156.8272 H   0  0  0  0  0  0  0  0  0  0  0  0
  147.4226  133.0761  150.2415 H   0  0  0  0  0  0  0  0  0  0  0  0
  146.3553  132.2082  151.3419 H   0  0  0  0  0  0  0  0  0  0  0  0
  145.8362  134.8284  149.9253 H   0  0  0  0  0  0  0  0  0  0  0  0
  144.7470  133.4514  150.0761 H   0  0  0  0  0  0  0  0  0  0  0  0
  144.7822  135.7307  151.7575 H   0  0  0  0  0  0  0  0  0  0  0  0
  144.0300  134.2025  152.2001 H   0  0  0  0  0  0  0  0  0  0  0  0
  145.7090  133.6605  153.6502 H   0  0  0  0  0  0  0  0  0  0  0  0
  146.2953  135.3214  153.5097 H   0  0  0  0  0  0  0  0  0  0  0  0
  147.7222  134.7278  151.8602 H   0  0  0  0  0  0  0  0  0  0  0  0
  1  2  1  0  0  0  0
  1 18  1  0  0  0  0
  1 19  1  0  0  0  0
  1 20  1  0  0  0  0
  2  3  1  0  0  0  0
  2 13  1  0  0  0  0
  2 21  1  0  0  0  0
  3  4  1  0  0  0  0
  3 22  1  0  0  0  0
  3 23  1  0  0  0  0
  4  5  1  0  0  0  0
  4 24  1  0  0  0  0
  5  6  2  0  0  0  0
  5  7  1  0  0  0  0
  7  8  1  0  0  0  0
  8 12  1  0  0  0  0
  8  9  2  0  0  0  0
  9 10  1  0  0  0  0
 10 11  2  0  0  0  0
 11 12  1  0  0  0  0
 11 25  1  0  0  0  0
 13 17  1  0  0  0  0
 13 14  1  0  0  0  0
 13 34  1  0  0  0  0
 14 15  1  0  0  0  0
 14 26  1  0  0  0  0
 14 27  1  0  0  0  0
 15 16  1  0  0  0  0
 15 28  1  0  0  0  0
 15 29  1  0  0  0  0
 16 17  1  0  0  0  0
 16 30  1  0  0  0  0
 16 31  1  0  0  0  0
 17 32  1  0  0  0  0
 17 33  1  0  0  0  0
M  CHG  1   7  -1
M  CHG  1  13   1
M  END
> <s_m_source_file>
AV-unprocessed.smi

> <i_m_source_file_index>
1522

> <i_lp_mmshare_version>
43012

> <i_f3d_flags>
0

> <s_epik_input>
W0NIMl0xW0NIMl1bQ0gyXVtDSDJdTjFbQ0BIXShbQ0gzXSlbQ0gyXVtOSF1DKD1PKVtOSF1jMm5uW2NIXXMy

> <s_epik_cmdline>
J2VwaWtfcHl0aG9uJywgJy1waCcsICc3LjAnLCAnLXRuJywgJzgnLCAnLW1hJywgJzIwMCcsICctbWV0YWxfYmluZGluZycsICctaW1hZScsICc8aW5maWxlLm1hZT4nLCAnLW9tYWUnLCAnPG91dGZpbGUubWFlPic=

> <r_lp_tautomer_probability>
1

> <r_epik_Ionization_Penalty>
3.04208

> <r_epik_Ionization_Penalty_Charging>
3.00964

> <r_epik_Ionization_Penalty_Neutral>
0.0324455

> <r_epik_State_Penalty>
3.0051

> <r_epik_Charging_Adjusted_Penalty>
6.01474

> <i_epik_Tot_Q>
0

> <i_epik_Tot_abs_Q>
2

> <r_epik_Metal_State_Penalty>
0.454155

> <b_epik_Metal_Only>
1

> <s_lp_Force_Field>
OPLS_2005

> <r_lp_Energy>
27.863

> <b_lp_Chiralities_Consistent>
1

> <s_lp_Variant>
AV-unprocessed.smi:1522-3

> <Gold.Version>
5.8.1

> <Gold.Id.Protein>
6NUR|6NUR_protein|mol2

> <Gold.PLP.Fitness>
39.3341

> <Gold.PLP.PLP>
-24.0213

> <Gold.PLP.part.hbond>
-4.0000

> <Gold.PLP.part.metal>
0.0000

> <Gold.PLP.part.buried>
-3.8927

> <Gold.PLP.part.nonpolar>
-17.4878

> <Gold.PLP.part.repulsive>
0.3909

> <Gold.PLP.ligand.clash>
0.0000

> <Gold.PLP.ligand.torsion>
1.3818

> <Gold.PLP.Chemscore.Hbond>
6.0000

> <Gold.PLP.Chemscore.CHOScore>
0.0000

> <Gold.PLP.Chemscore.Metal>
0.0000

> <Gold.Chemscore.Hbonds>
donor molecule, donor type, donor heavy atom, donor atom, acceptor molecule, acceptor atom, score
      L1  H     4    24       P1  7948  0.85
      L1  H    13    34       P1  7948  2.00
      P1  H  7989  7998       L1    10  0.68
      P1  H 10752 10765       L1     7  2.00

> <Gold.PLP.Chemscore.Internal.Correction>
0.0764

> <Gold.Rescore>
     Score         DG    S(hbond)    S(metal)    S(lipo)     H(rot)  DE(clash)    DE(int)     intcor
     16.31     -17.67       3.55        0.00      39.40       1.68       0.11       1.25       ----

> <Gold.Chemscore.Fitness>
16.3112

> <Gold.Chemscore.DG>
-17.6692

> <Gold.Chemscore.ZeroCoef>
-5.4800

> <Gold.Chemscore.Hbond>
3.5540

> <Gold.Chemscore.Metal>
0.0000

> <Gold.Chemscore.Lipo>
39.4010

> <Gold.Chemscore.Internal_Hbond>
0.0000

> <Gold.Chemscore.DEClash>
0.1103

> <Gold.Chemscore.DEInternal>
1.2477

> <Gold.Chemscore.Rot>
1.6762

> <Gold.Chemscore.Internal.Correction>
   9.000000E+99

> <Gold.Chemscore.Hbonds>
donor molecule, donor type, donor heavy atom, donor atom, acceptor molecule, acceptor atom, score
      L1  H     4    24       P1  7948  0.15
      L1  H    13    34       P1  7948  0.44
      P1  H  7989  7998       L1    10  0.10
      P1  H 10752 10765       L1     7  0.54

> <Gold.Chemscore.Hbond.Weighted>
-11.8703

> <Gold.Chemscore.Metal.Weighted>
-0.0000

> <Gold.Chemscore.Lipo.Weighted>
-4.6099

> <Gold.Chemscore.Internal_Hbond.Weighted>
0.0000

> <Gold.Chemscore.DEClash.Weighted>
0.1103

> <Gold.Chemscore.DEInternal.Weighted>
1.2477

> <Gold.Chemscore.Rot.Weighted>
4.2910

> <Gold.Chemscore.Internal.Correction.Weighted>
   9.000000E+99

> <Gold.Protein.RotatedTorsions>
[ 6907 6896 6895 6894 ] final -121.13 input  -60.11 | X-H torsion
[ 7974 7965 7964 7962 ] final  165.71 input  175.53 | X-H torsion
[ 8008 7997 7996 7995 ] final  -28.29 input   59.86 | X-H torsion
[ 10167 10162 10161 10158 ] final    8.24 input  -65.29 | X-H torsion
[ 10718 10713 10712 10709 ] final -128.03 input   66.30 | X-H torsion
[ 10763 10752 10751 10750 ] final -173.60 input  -60.55 | X-H torsion
[ 11005 11000 10999 10996 ] final  -96.00 input  -57.11 | X-H torsion

> <Gold.Protein.ActiveResidues>
 VAL166  LYS551  ARG553  GLY616  TRP617  ASP618  TYR619  PRO620  LYS621  CYS622 
 ASP623  PHE694  ASN695  SER759  ASP760  ASP761  ALA762  ILE779  LEU786  VAL792 
 PHE793  MET794  SER795  GLU796  ALA797  LYS798  CYS799  TRP800  GLU811  SER814 

> <Gold.Protein.RotatedAtoms>
  150.8456  133.7867  159.3044 H   0  0  0  0  0  0  0  0  0  0  0  0  # atno 6907 bound_to 6896
  151.5555  135.1065  159.9969 H   0  0  0  0  0  0  0  0  0  0  0  0  # atno 6908 bound_to 6896
  152.4510  133.7587  159.6790 H   0  0  0  0  0  0  0  0  0  0  0  0  # atno 6909 bound_to 6896
  144.7492  139.8509  143.6372 H   0  0  0  0  0  0  0  0  0  0  0  0  # atno 7974 bound_to 7965
  154.4339  140.1849  156.1067 H   0  0  0  0  0  0  0  0  0  0  0  0  # atno 8008 bound_to 7997
  156.0250  140.3336  155.7053 H   0  0  0  0  0  0  0  0  0  0  0  0  # atno 8009 bound_to 7997
  155.5922  140.0632  157.2746 H   0  0  0  0  0  0  0  0  0  0  0  0  # atno 8010 bound_to 7997
  140.6325  143.7961  150.7315 H   0  0  0  0  0  0  0  0  0  0  0  0  # atno 10167 bound_to 10162
  156.1912  130.6796  151.0426 H   0  0  0  0  0  0  0  0  0  0  0  0  # atno 10718 bound_to 10713
  154.6059  135.2859  155.0485 H   0  0  0  0  0  0  0  0  0  0  0  0  # atno 10763 bound_to 10752
  154.1732  135.6469  153.5018 H   0  0  0  0  0  0  0  0  0  0  0  0  # atno 10764 bound_to 10752
  153.0175  135.5406  154.6795 H   0  0  0  0  0  0  0  0  0  0  0  0  # atno 10765 bound_to 10752
  141.1425  133.8066  157.0511 H   0  0  0  0  0  0  0  0  0  0  0  0  # atno 11005 bound_to 11000
  146.1416  139.4475  143.0105 LP  0  0  0  0  0  0  0  0  0  0  0  0  # atno 17320 bound_to 7965
  145.7009  141.0136  143.1505 LP  0  0  0  0  0  0  0  0  0  0  0  0  # atno 17321 bound_to 7965
  140.1575  143.4304  152.2090 LP  0  0  0  0  0  0  0  0  0  0  0  0  # atno 17342 bound_to 10162
  139.5538  144.7358  151.4355 LP  0  0  0  0  0  0  0  0  0  0  0  0  # atno 17343 bound_to 10162
  157.6930  131.0803  150.7052 LP  0  0  0  0  0  0  0  0  0  0  0  0  # atno 17370 bound_to 10713
  156.7108  130.4651  149.5548 LP  0  0  0  0  0  0  0  0  0  0  0  0  # atno 17371 bound_to 10713
  140.0631  134.9744  157.1339 LP  0  0  0  0  0  0  0  0  0  0  0  0  # atno 17394 bound_to 11000
  140.3819  134.2278  155.7170 LP  0  0  0  0  0  0  0  0  0  0  0  0  # atno 17395 bound_to 11000

$$$$
