AV-unprocessed.smi:2653|AV-procd|sdf|10296|dock7
  -GOLD-   2272014313D 1   1.00000     0.00000
 Structure written by MMmdl.
 31 32  0  0  0  0  0  0  0  0  1 V2000
  152.9728  142.3904  161.8431 C   0  0  0  0  0  0  0  0  0  0  0  0
  153.8261  141.6992  160.7736 C   0  0  0  0  0  0  0  0  0  0  0  0
  153.0564  141.4682  159.5022 C   0  0  0  0  0  0  0  0  0  0  0  0
  153.3393  140.4004  158.7607 N   0  0  0  0  0  0  0  0  0  0  0  0
  152.4944  140.4824  157.7171 N   0  0  0  0  0  0  0  0  0  0  0  0
  151.6758  141.5841  157.8171 C   0  0  0  0  0  0  0  0  0  0  0  0
  150.7271  141.9855  156.9263 N   0  0  0  0  0  0  0  0  0  0  0  0
  150.2726  141.4006  155.7976 C   0  0  0  0  0  0  0  0  0  0  0  0
  150.7359  140.3305  155.4067 O   0  0  0  0  0  0  0  0  0  0  0  0
  149.3137  142.0679  155.1336 N   0  0  0  0  0  0  0  0  0  0  0  0
  148.6951  141.6490  153.9183 C   0  0  0  0  0  0  0  0  0  0  0  0
  147.1826  141.6470  153.8681 C   0  0  0  0  0  0  0  0  0  0  0  0
  147.9295  140.3436  153.9340 C   0  0  0  0  0  0  0  0  0  0  0  0
  152.0077  142.2694  158.9508 C   0  0  0  0  0  0  0  0  0  0  0  0
  151.4294  143.5432  159.5056 C   0  0  0  0  0  0  0  0  0  0  0  0
  152.4964  139.8037  156.9692 H   0  0  0  0  0  0  0  0  0  0  0  0
  153.5483  142.5522  162.7546 H   0  0  0  0  0  0  0  0  0  0  0  0
  152.1011  141.7885  162.1021 H   0  0  0  0  0  0  0  0  0  0  0  0
  152.6188  143.3614  161.4953 H   0  0  0  0  0  0  0  0  0  0  0  0
  154.7100  142.3045  160.5705 H   0  0  0  0  0  0  0  0  0  0  0  0
  154.1971  140.7507  161.1640 H   0  0  0  0  0  0  0  0  0  0  0  0
  150.3373  142.8978  157.1147 H   0  0  0  0  0  0  0  0  0  0  0  0
  149.0100  142.9528  155.5122 H   0  0  0  0  0  0  0  0  0  0  0  0
  149.2028  141.8952  152.9867 H   0  0  0  0  0  0  0  0  0  0  0  0
  146.6424  141.9612  154.7594 H   0  0  0  0  0  0  0  0  0  0  0  0
  146.7119  141.9096  152.9228 H   0  0  0  0  0  0  0  0  0  0  0  0
  147.9583  139.7348  153.0326 H   0  0  0  0  0  0  0  0  0  0  0  0
  147.8885  139.7880  154.8692 H   0  0  0  0  0  0  0  0  0  0  0  0
  150.4617  143.7834  159.0651 H   0  0  0  0  0  0  0  0  0  0  0  0
  152.0862  144.3933  159.3220 H   0  0  0  0  0  0  0  0  0  0  0  0
  151.2794  143.4797  160.5835 H   0  0  0  0  0  0  0  0  0  0  0  0
  1  2  1  0  0  0  0
  1 17  1  0  0  0  0
  1 18  1  0  0  0  0
  1 19  1  0  0  0  0
  2 20  1  0  0  0  0
  2 21  1  0  0  0  0
  2  3  1  0  0  0  0
  3  4  2  0  0  0  0
  3 14  1  0  0  0  0
  4  5  1  0  0  0  0
  5 16  1  0  0  0  0
  5  6  1  0  0  0  0
  6  7  1  0  0  0  0
  6 14  2  0  0  0  0
  7  8  1  0  0  0  0
  7 22  1  0  0  0  0
  8  9  2  0  0  0  0
  8 10  1  0  0  0  0
 10 11  1  0  0  0  0
 10 23  1  0  0  0  0
 11 13  1  0  0  0  0
 11 12  1  0  0  0  0
 11 24  1  0  0  0  0
 12 13  1  0  0  0  0
 12 25  1  0  0  0  0
 12 26  1  0  0  0  0
 13 27  1  0  0  0  0
 13 28  1  0  0  0  0
 14 15  1  0  0  0  0
 15 29  1  0  0  0  0
 15 30  1  0  0  0  0
 15 31  1  0  0  0  0
M  END
> <s_m_source_file>
AV-unprocessed.smi

> <i_m_source_file_index>
2653

> <i_lp_mmshare_version>
43012

> <i_f3d_flags>
0

> <s_epik_input>
W0NIM11bQ0gyXWMxW25IXW5jKGMxW0NIM10pW05IXUMoPU8pW05IXVtDSF0yW0NIMl1bQ0gyXTI=

> <s_epik_cmdline>
J2VwaWtfcHl0aG9uJywgJy1waCcsICc3LjAnLCAnLXRuJywgJzgnLCAnLW1hJywgJzIwMCcsICctbWV0YWxfYmluZGluZycsICctaW1hZScsICc8aW5maWxlLm1hZT4nLCAnLW9tYWUnLCAnPG91dGZpbGUubWFlPic=

> <r_lp_tautomer_probability>
0.5

> <r_epik_Ionization_Penalty>
6.45879e-05

> <r_epik_Ionization_Penalty_Charging>
0

> <r_epik_Ionization_Penalty_Neutral>
6.45879e-05

> <r_epik_State_Penalty>
0.41068

> <r_epik_Charging_Adjusted_Penalty>
0.41068

> <i_epik_Tot_Q>
0

> <i_epik_Tot_abs_Q>
0

> <r_epik_Metal_State_Penalty>
0.410665

> <b_epik_Metal_Only>
0

> <s_lp_Force_Field>
OPLS_2005

> <r_lp_Energy>
17.9348

> <b_lp_Chiralities_Consistent>
1

> <s_lp_Variant>
AV-unprocessed.smi:2653-2

> <Gold.Version>
5.8.1

> <Gold.Id.Protein>
6NUR|6NUR_protein|mol2

> <Gold.PLP.Fitness>
35.3731

> <Gold.PLP.PLP>
-30.8842

> <Gold.PLP.part.hbond>
-2.9152

> <Gold.PLP.part.metal>
0.0000

> <Gold.PLP.part.buried>
-0.4852

> <Gold.PLP.part.nonpolar>
-26.9135

> <Gold.PLP.part.repulsive>
0.9844

> <Gold.PLP.ligand.clash>
0.0000

> <Gold.PLP.ligand.torsion>
0.4191

> <Gold.PLP.Chemscore.Hbond>
1.7638

> <Gold.PLP.Chemscore.CHOScore>
0.0000

> <Gold.PLP.Chemscore.Metal>
0.0000

> <Gold.Chemscore.Hbonds>
donor molecule, donor type, donor heavy atom, donor atom, acceptor molecule, acceptor atom, score
      L1  H    10    23       P1  8028  1.00
      P1  H  7989  7998       L1     9  0.65

> <Gold.PLP.Chemscore.Internal.Correction>
0.0359

> <Gold.Rescore>
     Score         DG    S(hbond)    S(metal)    S(lipo)     H(rot)  DE(clash)    DE(int)     intcor
     12.46     -16.75       1.66        0.00      75.55       1.21       1.67       2.62       ----

> <Gold.Chemscore.Fitness>
12.4576

> <Gold.Chemscore.DG>
-16.7522

> <Gold.Chemscore.ZeroCoef>
-5.4800

> <Gold.Chemscore.Hbond>
1.6581

> <Gold.Chemscore.Metal>
0.0000

> <Gold.Chemscore.Lipo>
75.5473

> <Gold.Chemscore.Internal_Hbond>
0.0000

> <Gold.Chemscore.DEClash>
1.6717

> <Gold.Chemscore.DEInternal>
2.6229

> <Gold.Chemscore.Rot>
1.2129

> <Gold.Chemscore.Internal.Correction>
   9.000000E+99

> <Gold.Chemscore.Hbonds>
donor molecule, donor type, donor heavy atom, donor atom, acceptor molecule, acceptor atom, score
      L1  H    10    23       P1  8028  0.99
      P1  H  7989  7998       L1     9  0.22

> <Gold.Chemscore.Hbond.Weighted>
-5.5381

> <Gold.Chemscore.Metal.Weighted>
-0.0000

> <Gold.Chemscore.Lipo.Weighted>
-8.8390

> <Gold.Chemscore.Internal_Hbond.Weighted>
0.0000

> <Gold.Chemscore.DEClash.Weighted>
1.6717

> <Gold.Chemscore.DEInternal.Weighted>
2.6229

> <Gold.Chemscore.Rot.Weighted>
3.1049

> <Gold.Chemscore.Internal.Correction.Weighted>
   9.000000E+99

> <Gold.Protein.RotatedTorsions>
[ 6907 6896 6895 6894 ] final  134.20 input  -60.11 | X-H torsion
[ 7974 7965 7964 7962 ] final  -10.24 input  175.53 | X-H torsion
[ 8008 7997 7996 7995 ] final  162.52 input   59.86 | X-H torsion
[ 10167 10162 10161 10158 ] final  -61.92 input  -65.29 | X-H torsion
[ 10718 10713 10712 10709 ] final   -5.88 input   66.30 | X-H torsion
[ 10763 10752 10751 10750 ] final   87.88 input  -60.55 | X-H torsion
[ 11005 11000 10999 10996 ] final  -51.77 input  -57.11 | X-H torsion

> <Gold.Protein.ActiveResidues>
 VAL166  LYS551  ARG553  GLY616  TRP617  ASP618  TYR619  PRO620  LYS621  CYS622 
 ASP623  PHE694  ASN695  SER759  ASP760  ASP761  ALA762  ILE779  LEU786  VAL792 
 PHE793  MET794  SER795  GLU796  ALA797  LYS798  CYS799  TRP800  GLU811  SER814 

> <Gold.Protein.RotatedAtoms>
  152.3138  133.5781  159.5698 H   0  0  0  0  0  0  0  0  0  0  0  0  # atno 6907 bound_to 6896
  150.7336  134.0113  159.3679 H   0  0  0  0  0  0  0  0  0  0  0  0  # atno 6908 bound_to 6896
  151.8003  135.0711  160.0450 H   0  0  0  0  0  0  0  0  0  0  0  0  # atno 6909 bound_to 6896
  146.2227  140.2734  142.8358 H   0  0  0  0  0  0  0  0  0  0  0  0  # atno 7974 bound_to 7965
  156.2025  140.1748  156.7869 H   0  0  0  0  0  0  0  0  0  0  0  0  # atno 8008 bound_to 7997
  154.5611  140.0699  156.8850 H   0  0  0  0  0  0  0  0  0  0  0  0  # atno 8009 bound_to 7997
  155.2847  140.3351  155.4258 H   0  0  0  0  0  0  0  0  0  0  0  0  # atno 8010 bound_to 7997
  140.5973  143.2353  151.6006 H   0  0  0  0  0  0  0  0  0  0  0  0  # atno 10167 bound_to 10162
  156.7400  130.5207  149.5826 H   0  0  0  0  0  0  0  0  0  0  0  0  # atno 10718 bound_to 10713
  153.1712  135.4527  154.9905 H   0  0  0  0  0  0  0  0  0  0  0  0  # atno 10763 bound_to 10752
  154.7967  135.3240  154.7652 H   0  0  0  0  0  0  0  0  0  0  0  0  # atno 10764 bound_to 10752
  153.8128  135.6953  153.4893 H   0  0  0  0  0  0  0  0  0  0  0  0  # atno 10765 bound_to 10752
  141.0889  133.6637  156.3926 H   0  0  0  0  0  0  0  0  0  0  0  0  # atno 11005 bound_to 11000
  144.9251  140.7912  143.5724 LP  0  0  0  0  0  0  0  0  0  0  0  0  # atno 17320 bound_to 7965
  145.2674  139.1968  143.4860 LP  0  0  0  0  0  0  0  0  0  0  0  0  # atno 17321 bound_to 7965
  139.5267  144.3038  152.1051 LP  0  0  0  0  0  0  0  0  0  0  0  0  # atno 17342 bound_to 10162
  140.2212  144.4464  150.6341 LP  0  0  0  0  0  0  0  0  0  0  0  0  # atno 17343 bound_to 10162
  156.1471  130.6284  151.0546 LP  0  0  0  0  0  0  0  0  0  0  0  0  # atno 17370 bound_to 10713
  157.6822  131.0835  150.7338 LP  0  0  0  0  0  0  0  0  0  0  0  0  # atno 17371 bound_to 10713
  140.5299  134.6222  157.5346 LP  0  0  0  0  0  0  0  0  0  0  0  0  # atno 17394 bound_to 11000
  139.9711  134.7291  156.0040 LP  0  0  0  0  0  0  0  0  0  0  0  0  # atno 17395 bound_to 11000

$$$$
