AV-unprocessed.smi:3132|AV-procd|sdf|11936|dock3
  -GOLD-   2272017323D 1   1.00000     0.00000
 Structure written by MMmdl.
 33 34  0  0  0  0  0  0  0  0  1 V2000
  151.4790  140.6663  158.0193 C   0  0  0  0  0  0  0  0  0  0  0  0
  150.5316  141.8136  157.6393 C   0  0  1  0  0  0  0  0  0  0  0  0
  151.3037  143.1125  157.3399 C   0  0  0  0  0  0  0  0  0  0  0  0
  151.5586  143.8872  158.5405 N   0  0  0  0  0  0  0  0  0  0  0  0
  151.0629  145.1479  158.8470 C   0  0  0  0  0  0  0  0  0  0  0  0
  151.5647  145.4766  160.0859 C   0  0  0  0  0  0  0  0  0  0  0  0
  152.3691  144.4411  160.5560 N   0  0  0  0  0  0  0  0  0  0  0  0
  152.3174  143.5356  159.5875 C   0  0  0  0  0  0  0  0  0  0  0  0
  149.7323  141.4298  156.4775 N   0  0  0  0  0  0  0  0  0  0  0  0
  150.1772  140.7463  155.4124 C   0  0  0  0  0  0  0  0  0  0  0  0
  151.3454  140.3788  155.2826 O   0  0  0  0  0  0  0  0  0  0  0  0
  149.1314  140.4150  154.3415 C   0  0  1  0  0  0  0  0  0  0  0  0
  147.9080  139.6393  154.8656 C   0  0  0  0  0  0  0  0  0  0  0  0
  146.7839  140.6541  154.7955 C   0  0  0  0  0  0  0  0  0  0  0  0
  147.2237  141.5252  153.6277 C   0  0  0  0  0  0  0  0  0  0  0  0
  148.6238  141.6442  153.8255 O   0  0  0  0  0  0  0  0  0  0  0  0
  152.0748  140.9243  158.8952 H   0  0  0  0  0  0  0  0  0  0  0  0
  152.1671  140.4332  157.2062 H   0  0  0  0  0  0  0  0  0  0  0  0
  150.9228  139.7591  158.2573 H   0  0  0  0  0  0  0  0  0  0  0  0
  149.8751  142.0029  158.4907 H   0  0  0  0  0  0  0  0  0  0  0  0
  152.2647  142.8820  156.8780 H   0  0  0  0  0  0  0  0  0  0  0  0
  150.7562  143.7334  156.6291 H   0  0  0  0  0  0  0  0  0  0  0  0
  150.4090  145.6897  158.1797 H   0  0  0  0  0  0  0  0  0  0  0  0
  151.4099  146.3716  160.6702 H   0  0  0  0  0  0  0  0  0  0  0  0
  152.8414  142.5925  159.6422 H   0  0  0  0  0  0  0  0  0  0  0  0
  148.7548  141.6815  156.4973 H   0  0  0  0  0  0  0  0  0  0  0  0
  149.5964  139.8543  153.5288 H   0  0  0  0  0  0  0  0  0  0  0  0
  147.6943  138.8017  154.2006 H   0  0  0  0  0  0  0  0  0  0  0  0
  148.0299  139.2309  155.8697 H   0  0  0  0  0  0  0  0  0  0  0  0
  145.8043  140.1998  154.6454 H   0  0  0  0  0  0  0  0  0  0  0  0
  146.7531  141.2449  155.7120 H   0  0  0  0  0  0  0  0  0  0  0  0
  147.0295  141.0287  152.6756 H   0  0  0  0  0  0  0  0  0  0  0  0
  146.7343  142.4995  153.6176 H   0  0  0  0  0  0  0  0  0  0  0  0
  1  2  1  0  0  0  0
  1 17  1  0  0  0  0
  1 18  1  0  0  0  0
  1 19  1  0  0  0  0
  2  3  1  0  0  0  0
  2  9  1  0  0  0  0
  2 20  1  0  0  0  0
  3  4  1  0  0  0  0
  3 21  1  0  0  0  0
  3 22  1  0  0  0  0
  4  8  1  0  0  0  0
  4  5  1  0  0  0  0
  5  6  2  0  0  0  0
  5 23  1  0  0  0  0
  6  7  1  0  0  0  0
  6 24  1  0  0  0  0
  7  8  2  0  0  0  0
  8 25  1  0  0  0  0
  9 10  1  0  0  0  0
  9 26  1  0  0  0  0
 10 11  2  0  0  0  0
 10 12  1  0  0  0  0
 12 16  1  0  0  0  0
 12 13  1  0  0  0  0
 12 27  1  0  0  0  0
 13 14  1  0  0  0  0
 13 28  1  0  0  0  0
 13 29  1  0  0  0  0
 14 15  1  0  0  0  0
 14 30  1  0  0  0  0
 14 31  1  0  0  0  0
 15 16  1  0  0  0  0
 15 32  1  0  0  0  0
 15 33  1  0  0  0  0
M  END
> <s_m_source_file>
AV-unprocessed.smi

> <i_m_source_file_index>
3132

> <i_lp_mmshare_version>
43012

> <i_f3d_flags>
0

> <s_epik_input>
W2NIXTFuW2NIXVtjSF1uMVtDSDJdW0NAQEhdKFtDSDNdKVtOSF1DKD1PKVtDQEBIXTJbQ0gyXVtDSDJdW0NIMl1PMg==

> <s_epik_cmdline>
J2VwaWtfcHl0aG9uJywgJy1waCcsICc3LjAnLCAnLXRuJywgJzgnLCAnLW1hJywgJzIwMCcsICctbWV0YWxfYmluZGluZycsICctaW1hZScsICc8aW5maWxlLm1hZT4nLCAnLW9tYWUnLCAnPG91dGZpbGUubWFlPic=

> <r_lp_tautomer_probability>
1

> <r_epik_Ionization_Penalty>
0.630322

> <r_epik_Ionization_Penalty_Charging>
0.630322

> <r_epik_Ionization_Penalty_Neutral>
3.82652e-08

> <r_epik_State_Penalty>
0.647117

> <r_epik_Charging_Adjusted_Penalty>
1.27744

> <i_epik_Tot_Q>
0

> <i_epik_Tot_abs_Q>
0

> <r_epik_Metal_State_Penalty>
0.309095

> <b_epik_Metal_Only>
0

> <s_lp_Force_Field>
OPLS_2005

> <r_lp_Energy>
20.0706

> <b_lp_Chiralities_Consistent>
1

> <s_lp_Variant>
AV-unprocessed.smi:3132-8

> <Gold.Version>
5.8.1

> <Gold.Id.Protein>
6NUR|6NUR_protein|mol2

> <Gold.PLP.Fitness>
40.9113

> <Gold.PLP.PLP>
-34.5360

> <Gold.PLP.part.hbond>
-2.0000

> <Gold.PLP.part.metal>
0.0000

> <Gold.PLP.part.buried>
-5.0374

> <Gold.PLP.part.nonpolar>
-27.9405

> <Gold.PLP.part.repulsive>
0.3566

> <Gold.PLP.ligand.clash>
0.0000

> <Gold.PLP.ligand.torsion>
0.6687

> <Gold.PLP.Chemscore.Hbond>
1.5680

> <Gold.PLP.Chemscore.CHOScore>
0.9975

> <Gold.PLP.Chemscore.Metal>
0.0000

> <Gold.Chemscore.Hbonds>
donor molecule, donor type, donor heavy atom, donor atom, acceptor molecule, acceptor atom, score
      P1  H  7989  7998       L1    11  0.96
      P1  H  8011  8017       L1    16  0.61
      L1  C     5    23       P1  8029  0.68

> <Gold.PLP.Chemscore.Internal.Correction>
0.0160

> <Gold.Rescore>
     Score         DG    S(hbond)    S(metal)    S(lipo)     H(rot)  DE(clash)    DE(int)     intcor
     10.28     -12.19       1.06        0.00      67.90       1.86       0.10       1.81       ----

> <Gold.Chemscore.Fitness>
10.2810

> <Gold.Chemscore.DG>
-12.1908

> <Gold.Chemscore.ZeroCoef>
-5.4800

> <Gold.Chemscore.Hbond>
1.0592

> <Gold.Chemscore.Metal>
0.0000

> <Gold.Chemscore.Lipo>
67.8961

> <Gold.Chemscore.Internal_Hbond>
0.0000

> <Gold.Chemscore.DEClash>
0.1036

> <Gold.Chemscore.DEInternal>
1.8062

> <Gold.Chemscore.Rot>
1.8636

> <Gold.Chemscore.Internal.Correction>
   9.000000E+99

> <Gold.Chemscore.Hbonds>
donor molecule, donor type, donor heavy atom, donor atom, acceptor molecule, acceptor atom, score
      P1  H  7989  7998       L1    11  0.24
      P1  H  8011  8017       L1    16  0.47

> <Gold.Chemscore.Hbond.Weighted>
-3.5378

> <Gold.Chemscore.Metal.Weighted>
-0.0000

> <Gold.Chemscore.Lipo.Weighted>
-7.9438

> <Gold.Chemscore.Internal_Hbond.Weighted>
0.0000

> <Gold.Chemscore.DEClash.Weighted>
0.1036

> <Gold.Chemscore.DEInternal.Weighted>
1.8062

> <Gold.Chemscore.Rot.Weighted>
4.7709

> <Gold.Chemscore.Internal.Correction.Weighted>
   9.000000E+99

> <Gold.Protein.RotatedTorsions>
[ 6907 6896 6895 6894 ] final -162.61 input  -60.11 | X-H torsion
[ 7974 7965 7964 7962 ] final   83.32 input  175.53 | X-H torsion
[ 8008 7997 7996 7995 ] final  -28.88 input   59.86 | X-H torsion
[ 10167 10162 10161 10158 ] final   69.89 input  -65.29 | X-H torsion
[ 10718 10713 10712 10709 ] final -123.60 input   66.30 | X-H torsion
[ 10763 10752 10751 10750 ] final  178.64 input  -60.55 | X-H torsion
[ 11005 11000 10999 10996 ] final   65.40 input  -57.11 | X-H torsion

> <Gold.Protein.ActiveResidues>
 VAL166  LYS551  ARG553  GLY616  TRP617  ASP618  TYR619  PRO620  LYS621  CYS622 
 ASP623  PHE694  ASN695  SER759  ASP760  ASP761  ALA762  ILE779  LEU786  VAL792 
 PHE793  MET794  SER795  GLU796  ALA797  LYS798  CYS799  TRP800  GLU811  SER814 

> <Gold.Protein.RotatedAtoms>
  151.3831  133.3814  159.2712 H   0  0  0  0  0  0  0  0  0  0  0  0  # atno 6907 bound_to 6896
  150.9562  134.8957  159.7713 H   0  0  0  0  0  0  0  0  0  0  0  0  # atno 6908 bound_to 6896
  152.5131  134.3788  159.9396 H   0  0  0  0  0  0  0  0  0  0  0  0  # atno 6909 bound_to 6896
  145.6135  139.2372  143.2179 H   0  0  0  0  0  0  0  0  0  0  0  0  # atno 7974 bound_to 7965
  154.4313  140.1833  156.1159 H   0  0  0  0  0  0  0  0  0  0  0  0  # atno 8008 bound_to 7997
  156.0181  140.3343  155.6985 H   0  0  0  0  0  0  0  0  0  0  0  0  # atno 8009 bound_to 7997
  155.6015  140.0641  157.2722 H   0  0  0  0  0  0  0  0  0  0  0  0  # atno 8010 bound_to 7997
  140.0629  144.5217  150.7281 H   0  0  0  0  0  0  0  0  0  0  0  0  # atno 10167 bound_to 10162
  156.1516  130.6538  150.9921 H   0  0  0  0  0  0  0  0  0  0  0  0  # atno 10718 bound_to 10713
  154.5103  135.2788  155.1348 H   0  0  0  0  0  0  0  0  0  0  0  0  # atno 10763 bound_to 10752
  154.2946  135.6260  153.5403 H   0  0  0  0  0  0  0  0  0  0  0  0  # atno 10764 bound_to 10752
  152.9917  135.5682  154.5567 H   0  0  0  0  0  0  0  0  0  0  0  0  # atno 10765 bound_to 10752
  139.9897  134.6611  156.0113 H   0  0  0  0  0  0  0  0  0  0  0  0  # atno 11005 bound_to 11000
  146.1486  140.6957  142.9333 LP  0  0  0  0  0  0  0  0  0  0  0  0  # atno 17320 bound_to 7965
  144.7260  140.4526  143.6973 LP  0  0  0  0  0  0  0  0  0  0  0  0  # atno 17321 bound_to 7965
  140.7163  143.2547  151.4423 LP  0  0  0  0  0  0  0  0  0  0  0  0  # atno 17342 bound_to 10162
  139.5883  144.1556  152.2056 LP  0  0  0  0  0  0  0  0  0  0  0  0  # atno 17343 bound_to 10162
  157.6661  131.0871  150.7725 LP  0  0  0  0  0  0  0  0  0  0  0  0  # atno 17370 bound_to 10713
  156.7793  130.4854  149.5404 LP  0  0  0  0  0  0  0  0  0  0  0  0  # atno 17371 bound_to 10713
  141.1555  133.6543  156.4148 LP  0  0  0  0  0  0  0  0  0  0  0  0  # atno 17394 bound_to 11000
  140.4933  134.6555  157.5219 LP  0  0  0  0  0  0  0  0  0  0  0  0  # atno 17395 bound_to 11000

$$$$
