AV-unprocessed.smi:232|AV-procd|sdf|1768|dock4
  -GOLD-   2262020303D 1   1.00000     0.00000
 Structure written by MMmdl.
 52 55  0  0  0  0  0  0  0  0  1 V2000
  152.4963  144.6273  158.4522 C   0  0  0  0  0  0  0  0  0  0  0  0
  151.8758  143.2472  158.7016 C   0  0  0  0  0  0  0  0  0  0  0  0
  152.9288  142.1389  158.9164 C   0  0  1  0  0  0  0  0  0  0  0  0
  153.5852  142.1661  160.3051 C   0  0  0  0  0  0  0  0  0  0  0  0
  153.8830  140.6973  160.6303 C   0  0  0  0  0  0  0  0  0  0  0  0
  153.3890  139.9228  159.4035 C   0  0  1  0  0  0  0  0  0  0  0  0
  152.8519  138.5216  159.7375 C   0  0  0  0  0  0  0  0  0  0  0  0
  152.3849  140.7907  158.7981 N   0  0  0  0  0  0  0  0  0  0  0  0
  151.9689  140.4547  157.5539 C   0  0  0  0  0  0  0  0  0  0  0  0
  152.6992  139.6023  156.7862 N   0  0  0  0  0  0  0  0  0  0  0  0
  152.2875  139.2963  155.5517 C   0  0  0  0  0  0  0  0  0  0  0  0
  151.2026  139.7254  154.9021 N   0  0  0  0  0  0  0  0  0  0  0  0
  150.4726  140.5828  155.6721 C   0  0  0  0  0  0  0  0  0  0  0  0
  150.7806  140.9953  156.9977 C   0  0  0  0  0  0  0  0  0  0  0  0
  149.8116  141.8752  157.4629 N   0  0  0  0  0  0  0  0  0  0  0  0
  148.9772  141.9812  156.4643 C   0  0  0  0  0  0  0  0  0  0  0  0
  149.3004  141.2411  155.3490 N   0  0  0  0  0  0  0  0  0  0  0  0
  148.5620  141.1775  154.1009 C   0  0  0  0  0  0  0  0  0  0  0  0
  147.0654  140.8850  154.3235 C   0  0  2  0  0  0  0  0  0  0  0  0
  146.4537  140.4750  153.1147 O   0  0  0  0  0  0  0  0  0  0  0  0
  146.3079  142.0771  154.9424 C   0  0  2  0  0  0  0  0  0  0  0  0
  144.8580  141.8201  155.3625 C   0  0  0  0  0  0  0  0  0  0  0  0
  144.2916  143.2218  155.3390 C   0  0  0  0  0  0  0  0  0  0  0  0
  144.9919  143.8191  154.1211 C   0  0  0  0  0  0  0  0  0  0  0  0
  146.2760  143.2035  154.0689 O   0  0  0  0  0  0  0  0  0  0  0  0
  151.7214  145.3708  158.2645 H   0  0  0  0  0  0  0  0  0  0  0  0
  153.1566  144.6095  157.5846 H   0  0  0  0  0  0  0  0  0  0  0  0
  153.0772  144.9655  159.3103 H   0  0  0  0  0  0  0  0  0  0  0  0
  151.2073  143.2959  159.5622 H   0  0  0  0  0  0  0  0  0  0  0  0
  151.2487  143.0019  157.8442 H   0  0  0  0  0  0  0  0  0  0  0  0
  153.7124  142.2504  158.1648 H   0  0  0  0  0  0  0  0  0  0  0  0
  154.4850  142.7821  160.3101 H   0  0  0  0  0  0  0  0  0  0  0  0
  152.9023  142.5719  161.0528 H   0  0  0  0  0  0  0  0  0  0  0  0
  154.9423  140.5190  160.8172 H   0  0  0  0  0  0  0  0  0  0  0  0
  153.3343  140.4031  161.5260 H   0  0  0  0  0  0  0  0  0  0  0  0
  154.2293  139.8203  158.7150 H   0  0  0  0  0  0  0  0  0  0  0  0
  153.6171  137.9191  160.2271 H   0  0  0  0  0  0  0  0  0  0  0  0
  152.5420  137.9898  158.8375 H   0  0  0  0  0  0  0  0  0  0  0  0
  151.9914  138.5759  160.4050 H   0  0  0  0  0  0  0  0  0  0  0  0
  152.9193  138.6117  155.0055 H   0  0  0  0  0  0  0  0  0  0  0  0
  148.1008  142.6113  156.5109 H   0  0  0  0  0  0  0  0  0  0  0  0
  148.6887  142.1279  153.5814 H   0  0  0  0  0  0  0  0  0  0  0  0
  149.0133  140.4122  153.4680 H   0  0  0  0  0  0  0  0  0  0  0  0
  146.9770  140.0445  155.0133 H   0  0  0  0  0  0  0  0  0  0  0  0
  145.5162  140.5304  153.2192 H   0  0  0  0  0  0  0  0  0  0  0  0
  146.8547  142.4058  155.8281 H   0  0  0  0  0  0  0  0  0  0  0  0
  144.3296  141.2025  154.6359 H   0  0  0  0  0  0  0  0  0  0  0  0
  144.7775  141.3419  156.3392 H   0  0  0  0  0  0  0  0  0  0  0  0
  143.2045  143.2459  155.2604 H   0  0  0  0  0  0  0  0  0  0  0  0
  144.5827  143.7596  156.2424 H   0  0  0  0  0  0  0  0  0  0  0  0
  144.4492  143.5639  153.2102 H   0  0  0  0  0  0  0  0  0  0  0  0
  145.0712  144.9049  154.1757 H   0  0  0  0  0  0  0  0  0  0  0  0
  1  2  1  0  0  0  0
  1 26  1  0  0  0  0
  1 27  1  0  0  0  0
  1 28  1  0  0  0  0
  2  3  1  0  0  0  0
  2 29  1  0  0  0  0
  2 30  1  0  0  0  0
  3  8  1  0  0  0  0
  3  4  1  0  0  0  0
  3 31  1  0  0  0  0
  4  5  1  0  0  0  0
  4 32  1  0  0  0  0
  4 33  1  0  0  0  0
  5  6  1  0  0  0  0
  5 34  1  0  0  0  0
  5 35  1  0  0  0  0
  6  7  1  0  0  0  0
  6  8  1  0  0  0  0
  6 36  1  0  0  0  0
  7 37  1  0  0  0  0
  7 38  1  0  0  0  0
  7 39  1  0  0  0  0
  8  9  1  0  0  0  0
  9 14  1  0  0  0  0
  9 10  2  0  0  0  0
 10 11  1  0  0  0  0
 11 12  2  0  0  0  0
 11 40  1  0  0  0  0
 12 13  1  0  0  0  0
 13 17  1  0  0  0  0
 13 14  2  0  0  0  0
 14 15  1  0  0  0  0
 15 16  2  0  0  0  0
 16 17  1  0  0  0  0
 16 41  1  0  0  0  0
 17 18  1  0  0  0  0
 18 19  1  0  0  0  0
 18 42  1  0  0  0  0
 18 43  1  0  0  0  0
 19 20  1  0  0  0  0
 19 21  1  0  0  0  0
 19 44  1  0  0  0  0
 20 45  1  0  0  0  0
 21 25  1  0  0  0  0
 21 22  1  0  0  0  0
 21 46  1  0  0  0  0
 22 23  1  0  0  0  0
 22 47  1  0  0  0  0
 22 48  1  0  0  0  0
 23 24  1  0  0  0  0
 23 49  1  0  0  0  0
 23 50  1  0  0  0  0
 24 25  1  0  0  0  0
 24 51  1  0  0  0  0
 24 52  1  0  0  0  0
M  END
> <s_m_source_file>
AV-unprocessed.smi

> <i_m_source_file_index>
232

> <i_lp_mmshare_version>
43012

> <i_f3d_flags>
0

> <s_epik_input>
W0NIM11bQ0gyXVtDQEBIXTFbQ0gyXVtDSDJdW0NAQEhdKFtDSDNdKU4xYyhuW2NIXW4yKWMoYzIzKW5bY0hdbjNbQ0gyXVtDQEhdKFtPSF0pW0NAQEhdNFtDSDJdW0NIMl1bQ0gyXU80

> <s_epik_cmdline>
J2VwaWtfcHl0aG9uJywgJy1waCcsICc3LjAnLCAnLXRuJywgJzgnLCAnLW1hJywgJzIwMCcsICctbWV0YWxfYmluZGluZycsICctaW1hZScsICc8aW5maWxlLm1hZT4nLCAnLW9tYWUnLCAnPG91dGZpbGUubWFlPic=

> <r_lp_tautomer_probability>
1

> <r_epik_Ionization_Penalty>
0.00258048

> <r_epik_Ionization_Penalty_Charging>
0

> <r_epik_Ionization_Penalty_Neutral>
0.00258048

> <r_epik_State_Penalty>
0.00168551

> <r_epik_Charging_Adjusted_Penalty>
0.00168551

> <i_epik_Tot_Q>
0

> <i_epik_Tot_abs_Q>
0

> <r_epik_Metal_State_Penalty>
-0

> <b_epik_Metal_Only>
0

> <s_lp_Force_Field>
OPLS_2005

> <r_lp_Energy>
54.3711

> <b_lp_Chiralities_Consistent>
1

> <s_lp_Variant>
AV-unprocessed.smi:232-2

> <Gold.Version>
5.8.1

> <Gold.Id.Protein>
6NUR|6NUR_protein|mol2

> <Gold.PLP.Fitness>
58.5656

> <Gold.PLP.PLP>
-49.3595

> <Gold.PLP.part.hbond>
-3.5473

> <Gold.PLP.part.metal>
0.0000

> <Gold.PLP.part.buried>
-4.5108

> <Gold.PLP.part.nonpolar>
-42.8547

> <Gold.PLP.part.repulsive>
0.3803

> <Gold.PLP.ligand.clash>
0.0000

> <Gold.PLP.ligand.torsion>
0.7048

> <Gold.PLP.Chemscore.Hbond>
3.0000

> <Gold.PLP.Chemscore.CHOScore>
0.5104

> <Gold.PLP.Chemscore.Metal>
0.0000

> <Gold.Chemscore.Hbonds>
donor molecule, donor type, donor heavy atom, donor atom, acceptor molecule, acceptor atom, score
      L1  H    20    45       P1 10175  1.00
      P1  H  7989  7998       L1    12  1.00
      P1  H  7997  8010       L1    10  0.95
      L1  C    16    41       P1  8028  0.49

> <Gold.PLP.Chemscore.Internal.Correction>
0.0844

> <Gold.Rescore>
     Score         DG    S(hbond)    S(metal)    S(lipo)     H(rot)  DE(clash)    DE(int)     intcor
     14.98     -17.35       1.98        0.00      98.05       2.43       0.33       2.04       ----

> <Gold.Chemscore.Fitness>
14.9782

> <Gold.Chemscore.DG>
-17.3520

> <Gold.Chemscore.ZeroCoef>
-5.4800

> <Gold.Chemscore.Hbond>
1.9792

> <Gold.Chemscore.Metal>
0.0000

> <Gold.Chemscore.Lipo>
98.0531

> <Gold.Chemscore.Internal_Hbond>
0.0000

> <Gold.Chemscore.DEClash>
0.3311

> <Gold.Chemscore.DEInternal>
2.0427

> <Gold.Chemscore.Rot>
2.4260

> <Gold.Chemscore.Internal.Correction>
   9.000000E+99

> <Gold.Chemscore.Hbonds>
donor molecule, donor type, donor heavy atom, donor atom, acceptor molecule, acceptor atom, score
      L1  H    20    45       P1 10175  0.86
      P1  H  7989  7998       L1    12  0.21
      P1  H  7997  8010       L1    10  0.20

> <Gold.Chemscore.Hbond.Weighted>
-6.6105

> <Gold.Chemscore.Metal.Weighted>
-0.0000

> <Gold.Chemscore.Lipo.Weighted>
-11.4722

> <Gold.Chemscore.Internal_Hbond.Weighted>
0.0000

> <Gold.Chemscore.DEClash.Weighted>
0.3311

> <Gold.Chemscore.DEInternal.Weighted>
2.0427

> <Gold.Chemscore.Rot.Weighted>
6.2107

> <Gold.Chemscore.Internal.Correction.Weighted>
   9.000000E+99

> <Gold.Protein.RotatedTorsions>
[ 6907 6896 6895 6894 ] final  -56.51 input  -60.11 | X-H torsion
[ 7974 7965 7964 7962 ] final   48.29 input  175.53 | X-H torsion
[ 8008 7997 7996 7995 ] final   73.80 input   59.86 | X-H torsion
[ 10167 10162 10161 10158 ] final  -51.50 input  -65.29 | X-H torsion
[ 10718 10713 10712 10709 ] final   82.30 input   66.30 | X-H torsion
[ 10763 10752 10751 10750 ] final  115.81 input  -60.55 | X-H torsion
[ 11005 11000 10999 10996 ] final -127.41 input  -57.11 | X-H torsion

> <Gold.Protein.ActiveResidues>
 VAL166  LYS551  ARG553  GLY616  TRP617  ASP618  TYR619  PRO620  LYS621  CYS622 
 ASP623  PHE694  ASN695  SER759  ASP760  ASP761  ALA762  ILE779  LEU786  VAL792 
 PHE793  MET794  SER795  GLU796  ALA797  LYS798  CYS799  TRP800  GLU811  SER814 

> <Gold.Protein.RotatedAtoms>
  150.8161  134.7344  159.6731 H   0  0  0  0  0  0  0  0  0  0  0  0  # atno 6907 bound_to 6896
  152.4280  134.5829  159.9962 H   0  0  0  0  0  0  0  0  0  0  0  0  # atno 6908 bound_to 6896
  151.6025  133.3317  159.3086 H   0  0  0  0  0  0  0  0  0  0  0  0  # atno 6909 bound_to 6896
  146.0218  139.4660  142.9892 H   0  0  0  0  0  0  0  0  0  0  0  0  # atno 7974 bound_to 7965
  155.7890  140.3480  155.5339 H   0  0  0  0  0  0  0  0  0  0  0  0  # atno 8008 bound_to 7997
  155.8652  140.0977  157.1607 H   0  0  0  0  0  0  0  0  0  0  0  0  # atno 8009 bound_to 7997
  154.4014  140.1351  156.3998 H   0  0  0  0  0  0  0  0  0  0  0  0  # atno 8010 bound_to 7997
  140.6585  143.2617  151.4512 H   0  0  0  0  0  0  0  0  0  0  0  0  # atno 10167 bound_to 10162
  157.6854  131.0042  150.2355 H   0  0  0  0  0  0  0  0  0  0  0  0  # atno 10718 bound_to 10713
  153.5278  135.3584  155.2661 H   0  0  0  0  0  0  0  0  0  0  0  0  # atno 10763 bound_to 10752
  154.8729  135.4061  154.3186 H   0  0  0  0  0  0  0  0  0  0  0  0  # atno 10764 bound_to 10752
  153.3869  135.7070  153.6591 H   0  0  0  0  0  0  0  0  0  0  0  0  # atno 10765 bound_to 10752
  140.9601  134.0947  157.3976 H   0  0  0  0  0  0  0  0  0  0  0  0  # atno 11005 bound_to 11000
  145.7181  141.0084  143.1417 LP  0  0  0  0  0  0  0  0  0  0  0  0  # atno 17320 bound_to 7965
  144.6993  139.8838  143.7449 LP  0  0  0  0  0  0  0  0  0  0  0  0  # atno 17321 bound_to 7965
  139.5813  144.1703  152.1972 LP  0  0  0  0  0  0  0  0  0  0  0  0  # atno 17342 bound_to 10162
  140.1029  144.5524  150.6976 LP  0  0  0  0  0  0  0  0  0  0  0  0  # atno 17343 bound_to 10162
  156.2979  130.3754  149.7778 LP  0  0  0  0  0  0  0  0  0  0  0  0  # atno 17370 bound_to 10713
  156.5417  130.8303  151.3271 LP  0  0  0  0  0  0  0  0  0  0  0  0  # atno 17371 bound_to 10713
  139.8875  135.0090  156.6566 LP  0  0  0  0  0  0  0  0  0  0  0  0  # atno 17394 bound_to 11000
  140.7479  133.8922  155.8325 LP  0  0  0  0  0  0  0  0  0  0  0  0  # atno 17395 bound_to 11000

$$$$
