AV-unprocessed.smi:914|AV-procd|sdf|4152|dock5
  -GOLD-   22720 2 53D 1   1.00000     0.00000
 Structure written by MMmdl.
 32 33  0  0  0  0  0  0  0  0  2 V2000
  152.4584  135.9941  156.9418 O   0  0  0  0  0  0  0  0  0  0  0  0
  152.8288  136.6902  157.8861 C   0  0  0  0  0  0  0  0  0  0  0  0
  153.4631  136.1727  158.9786 N   0  5  0  0  0  0  0  0  0  0  0  0
  153.8849  136.9308  160.0374 C   0  0  0  0  0  0  0  0  0  0  0  0
  154.4490  136.4366  161.0138 O   0  0  0  0  0  0  0  0  0  0  0  0
  153.6695  138.2802  160.0073 N   0  0  0  0  0  0  0  0  0  0  0  0
  154.0705  139.1743  161.1034 C   0  0  0  0  0  0  0  0  0  0  0  0
  154.8113  140.4127  160.5752 C   0  0  0  0  0  0  0  0  0  0  0  0
  153.8778  141.2811  159.9587 O   0  0  0  0  0  0  0  0  0  0  0  0
  153.4189  142.3130  160.8123 C   0  0  0  0  0  0  0  0  0  0  0  0
  152.3909  143.1494  160.0421 C   0  0  2  0  0  0  0  0  0  0  0  0
  152.9579  143.8388  158.8010 C   0  0  0  0  0  0  0  0  0  0  0  0
  152.0166  145.0105  158.6482 C   0  0  0  0  0  0  0  0  0  0  0  0
  151.7808  145.4066  160.1026 C   0  0  0  0  0  0  0  0  0  0  0  0
  151.8868  144.2033  160.8597 O   0  0  0  0  0  0  0  0  0  0  0  0
  153.0150  138.8621  158.9088 C   0  0  0  0  0  0  0  0  0  0  0  0
  152.5904  138.1318  157.8594 C   0  0  0  0  0  0  0  0  0  0  0  0
  151.7838  138.8754  156.5247 Cl  0  0  0  0  0  0  0  0  0  0  0  0
  153.2153  139.4773  161.7096 H   0  0  0  0  0  0  0  0  0  0  0  0
  154.7228  138.6303  161.7879 H   0  0  0  0  0  0  0  0  0  0  0  0
  155.3024  140.9345  161.3973 H   0  0  0  0  0  0  0  0  0  0  0  0
  155.5873  140.1137  159.8685 H   0  0  0  0  0  0  0  0  0  0  0  0
  152.9633  141.8809  161.7043 H   0  0  0  0  0  0  0  0  0  0  0  0
  154.2501  142.9413  161.1364 H   0  0  0  0  0  0  0  0  0  0  0  0
  151.5441  142.5254  159.7526 H   0  0  0  0  0  0  0  0  0  0  0  0
  153.9718  144.1970  158.9855 H   0  0  0  0  0  0  0  0  0  0  0  0
  152.9810  143.1878  157.9261 H   0  0  0  0  0  0  0  0  0  0  0  0
  152.4308  145.8196  158.0462 H   0  0  0  0  0  0  0  0  0  0  0  0
  151.0829  144.6829  158.1890 H   0  0  0  0  0  0  0  0  0  0  0  0
  152.5572  146.0945  160.4392 H   0  0  0  0  0  0  0  0  0  0  0  0
  150.8140  145.8882  160.2506 H   0  0  0  0  0  0  0  0  0  0  0  0
  152.8752  139.9312  158.9760 H   0  0  0  0  0  0  0  0  0  0  0  0
  1  2  2  0  0  0  0
  2 17  1  0  0  0  0
  2  3  1  0  0  0  0
  3  4  1  0  0  0  0
  4  5  2  0  0  0  0
  4  6  1  0  0  0  0
  6  7  1  0  0  0  0
  6 16  1  0  0  0  0
  7  8  1  0  0  0  0
  7 19  1  0  0  0  0
  7 20  1  0  0  0  0
  8  9  1  0  0  0  0
  8 21  1  0  0  0  0
  8 22  1  0  0  0  0
  9 10  1  0  0  0  0
 10 11  1  0  0  0  0
 10 23  1  0  0  0  0
 10 24  1  0  0  0  0
 11 15  1  0  0  0  0
 11 12  1  0  0  0  0
 11 25  1  0  0  0  0
 12 13  1  0  0  0  0
 12 26  1  0  0  0  0
 12 27  1  0  0  0  0
 13 14  1  0  0  0  0
 13 28  1  0  0  0  0
 13 29  1  0  0  0  0
 14 15  1  0  0  0  0
 14 30  1  0  0  0  0
 14 31  1  0  0  0  0
 16 17  2  0  0  0  0
 16 32  1  0  0  0  0
 17 18  1  0  0  0  0
M  CHG  1   3  -1
M  END
> <s_m_source_file>
AV-unprocessed.smi

> <i_m_source_file_index>
914

> <i_lp_mmshare_version>
43012

> <i_f3d_flags>
0

> <s_epik_input>
Tz1jMVtuSF1jKD1PKW4oW2NIXWMxQ2wpW0NIMl1bQ0gyXU9bQ0gyXVtDQEBIXTJbQ0gyXVtDSDJdW0NIMl1PMg==

> <s_epik_cmdline>
J2VwaWtfcHl0aG9uJywgJy1waCcsICc3LjAnLCAnLXRuJywgJzgnLCAnLW1hJywgJzIwMCcsICctbWV0YWxfYmluZGluZycsICctaW1hZScsICc8aW5maWxlLm1hZT4nLCAnLW9tYWUnLCAnPG91dGZpbGUubWFlPic=

> <r_epik_Ionization_Penalty>
1.76812

> <r_epik_Ionization_Penalty_Charging>
1.60097e-08

> <r_epik_Ionization_Penalty_Neutral>
1.76812

> <r_epik_State_Penalty>
1.87929

> <r_epik_Charging_Adjusted_Penalty>
1.87929

> <i_epik_Tot_Q>
-1

> <i_epik_Tot_abs_Q>
1

> <r_epik_Metal_State_Penalty>
0.0133872

> <b_epik_Metal_Only>
0

> <s_lp_Force_Field>
OPLS_2005

> <r_lp_Energy>
30.4793

> <b_lp_Chiralities_Consistent>
1

> <s_lp_Variant>
AV-unprocessed.smi:914-3

> <Gold.Version>
5.8.1

> <Gold.Id.Protein>
6NUR|6NUR_protein|mol2

> <Gold.PLP.Fitness>
44.3201

> <Gold.PLP.PLP>
-36.1272

> <Gold.PLP.part.hbond>
-2.0000

> <Gold.PLP.part.metal>
0.0000

> <Gold.PLP.part.buried>
-6.0979

> <Gold.PLP.part.nonpolar>
-28.6485

> <Gold.PLP.part.repulsive>
0.1234

> <Gold.PLP.ligand.clash>
0.0000

> <Gold.PLP.ligand.torsion>
0.4214

> <Gold.PLP.Chemscore.Hbond>
3.0000

> <Gold.PLP.Chemscore.CHOScore>
0.0000

> <Gold.PLP.Chemscore.Metal>
0.0000

> <Gold.Chemscore.Hbonds>
donor molecule, donor type, donor heavy atom, donor atom, acceptor molecule, acceptor atom, score
      P1  H  6896  6908       L1     3  1.66
      P1  H 10752 10763       L1     1  1.00

> <Gold.PLP.Chemscore.Internal.Correction>
0.0357

> <Gold.Rescore>
     Score         DG    S(hbond)    S(metal)    S(lipo)     H(rot)  DE(clash)    DE(int)     intcor
     13.44     -15.29       1.21        0.00      94.43       2.07       0.04       1.81       ----

> <Gold.Chemscore.Fitness>
13.4395

> <Gold.Chemscore.DG>
-15.2926

> <Gold.Chemscore.ZeroCoef>
-5.4800

> <Gold.Chemscore.Hbond>
1.2150

> <Gold.Chemscore.Metal>
0.0000

> <Gold.Chemscore.Lipo>
94.4288

> <Gold.Chemscore.Internal_Hbond>
0.0000

> <Gold.Chemscore.DEClash>
0.0403

> <Gold.Chemscore.DEInternal>
1.8127

> <Gold.Chemscore.Rot>
2.0678

> <Gold.Chemscore.Internal.Correction>
   9.000000E+99

> <Gold.Chemscore.Hbonds>
donor molecule, donor type, donor heavy atom, donor atom, acceptor molecule, acceptor atom, score
      P1  H  6896  6908       L1     3  0.15
      P1  H 10752 10763       L1     1  0.94

> <Gold.Chemscore.Hbond.Weighted>
-4.0579

> <Gold.Chemscore.Metal.Weighted>
-0.0000

> <Gold.Chemscore.Lipo.Weighted>
-11.0482

> <Gold.Chemscore.Internal_Hbond.Weighted>
0.0000

> <Gold.Chemscore.DEClash.Weighted>
0.0403

> <Gold.Chemscore.DEInternal.Weighted>
1.8127

> <Gold.Chemscore.Rot.Weighted>
5.2935

> <Gold.Chemscore.Internal.Correction.Weighted>
   9.000000E+99

> <Gold.Protein.RotatedTorsions>
[ 6907 6896 6895 6894 ] final  -71.35 input  -60.11 | X-H torsion
[ 7974 7965 7964 7962 ] final    4.63 input  175.53 | X-H torsion
[ 8008 7997 7996 7995 ] final -150.90 input   59.86 | X-H torsion
[ 10167 10162 10161 10158 ] final -110.96 input  -65.29 | X-H torsion
[ 10718 10713 10712 10709 ] final -121.72 input   66.30 | X-H torsion
[ 10763 10752 10751 10750 ] final  116.69 input  -60.55 | X-H torsion
[ 11005 11000 10999 10996 ] final  -91.44 input  -57.11 | X-H torsion

> <Gold.Protein.ActiveResidues>
 VAL166  LYS551  ARG553  GLY616  TRP617  ASP618  TYR619  PRO620  LYS621  CYS622 
 ASP623  PHE694  ASN695  SER759  ASP760  ASP761  ALA762  ILE779  LEU786  VAL792 
 PHE793  MET794  SER795  GLU796  ALA797  LYS798  CYS799  TRP800  GLU811  SER814 

> <Gold.Protein.RotatedAtoms>
  150.7216  134.5321  159.5705 H   0  0  0  0  0  0  0  0  0  0  0  0  # atno 6907 bound_to 6896
  152.2852  134.7781  160.0398 H   0  0  0  0  0  0  0  0  0  0  0  0  # atno 6908 bound_to 6896
  151.8414  133.3389  159.3681 H   0  0  0  0  0  0  0  0  0  0  0  0  # atno 6909 bound_to 6896
  146.2443  140.0506  142.8375 H   0  0  0  0  0  0  0  0  0  0  0  0  # atno 7974 bound_to 7965
  155.6308  140.0691  157.2649 H   0  0  0  0  0  0  0  0  0  0  0  0  # atno 8008 bound_to 7997
  154.4206  140.1768  156.1519 H   0  0  0  0  0  0  0  0  0  0  0  0  # atno 8009 bound_to 7997
  155.9934  140.3343  155.6778 H   0  0  0  0  0  0  0  0  0  0  0  0  # atno 8010 bound_to 7997
  140.1388  143.4297  152.1576 H   0  0  0  0  0  0  0  0  0  0  0  0  # atno 10167 bound_to 10162
  156.1360  130.6431  150.9697 H   0  0  0  0  0  0  0  0  0  0  0  0  # atno 10718 bound_to 10713
  153.5411  135.3558  155.2718 H   0  0  0  0  0  0  0  0  0  0  0  0  # atno 10763 bound_to 10752
  154.8717  135.4091  154.3043 H   0  0  0  0  0  0  0  0  0  0  0  0  # atno 10764 bound_to 10752
  153.3750  135.7066  153.6676 H   0  0  0  0  0  0  0  0  0  0  0  0  # atno 10765 bound_to 10752
  141.1545  133.7756  156.9879 H   0  0  0  0  0  0  0  0  0  0  0  0  # atno 11005 bound_to 11000
  145.0988  140.9332  143.4725 LP  0  0  0  0  0  0  0  0  0  0  0  0  # atno 17320 bound_to 7965
  145.0694  139.3043  143.5839 LP  0  0  0  0  0  0  0  0  0  0  0  0  # atno 17321 bound_to 7965
  139.5482  144.7316  151.4516 LP  0  0  0  0  0  0  0  0  0  0  0  0  # atno 17342 bound_to 10162
  140.6773  143.8161  150.7075 LP  0  0  0  0  0  0  0  0  0  0  0  0  # atno 17343 bound_to 10162
  157.6532  131.0893  150.8004 LP  0  0  0  0  0  0  0  0  0  0  0  0  # atno 17370 bound_to 10713
  156.8084  130.4944  149.5359 LP  0  0  0  0  0  0  0  0  0  0  0  0  # atno 17371 bound_to 10713
  140.1022  134.9528  157.1940 LP  0  0  0  0  0  0  0  0  0  0  0  0  # atno 17394 bound_to 11000
  140.3303  134.2817  155.7229 LP  0  0  0  0  0  0  0  0  0  0  0  0  # atno 17395 bound_to 11000

$$$$
