AV-unprocessed.smi:2764|AV-procd|sdf|10642|dock1
  -GOLD-   2272015 93D 1   1.00000     0.00000
 Structure written by MMmdl.
 47 49  0  0  0  0  0  0  0  0  2 V2000
  149.5958  140.3628  156.5482 O   0  0  0  0  0  0  0  0  0  0  0  0
  149.5063  141.5534  156.2486 C   0  0  0  0  0  0  0  0  0  0  0  0
  150.1251  142.5658  156.8814 N   0  0  0  0  0  0  0  0  0  0  0  0
  150.9843  142.5015  158.0105 C   0  0  0  0  0  0  0  0  0  0  0  0
  151.3874  143.7540  158.5266 C   0  0  0  0  0  0  0  0  0  0  0  0
  152.2379  143.8002  159.6484 C   0  0  0  0  0  0  0  0  0  0  0  0
  152.6624  142.5896  160.2244 C   0  0  0  0  0  0  0  0  0  0  0  0
  153.4793  142.5833  161.3043 F   0  0  0  0  0  0  0  0  0  0  0  0
  152.2167  141.3853  159.6492 C   0  0  0  0  0  0  0  0  0  0  0  0
  151.4019  141.3400  158.5736 N   0  0  0  0  0  0  0  0  0  0  0  0
  148.7651  142.0026  155.2253 N   0  0  0  0  0  0  0  0  0  0  0  0
  147.9520  141.1705  154.3386 C   0  0  2  0  0  0  0  0  0  0  0  0
  147.2530  142.0020  153.2464 C   0  0  0  0  0  0  0  0  0  0  0  0
  146.1479  142.9010  153.8279 C   0  0  0  0  0  0  0  0  0  0  0  0
  145.1476  142.1128  154.5962 N   0  3  2  0  0  0  0  0  0  0  0  0
  144.0167  142.9611  155.0592 C   0  0  0  0  0  0  0  0  0  0  0  0
  144.3884  144.4502  155.2307 C   0  0  2  0  0  0  0  0  0  0  0  0
  143.4500  145.1813  156.1747 C   0  0  0  0  0  0  0  0  0  0  0  0
  143.6556  146.6326  155.7693 C   0  0  0  0  0  0  0  0  0  0  0  0
  143.7373  146.5716  154.3548 O   0  0  0  0  0  0  0  0  0  0  0  0
  144.2901  145.3176  153.9645 C   0  0  0  0  0  0  0  0  0  0  0  0
  145.7925  141.3344  155.6879 C   0  0  0  0  0  0  0  0  0  0  0  0
  146.8931  140.4036  155.1464 C   0  0  0  0  0  0  0  0  0  0  0  0
  149.9576  143.4923  156.5179 H   0  0  0  0  0  0  0  0  0  0  0  0
  151.0499  144.6741  158.0717 H   0  0  0  0  0  0  0  0  0  0  0  0
  152.5569  144.7471  160.0588 H   0  0  0  0  0  0  0  0  0  0  0  0
  152.5202  140.4346  160.0618 H   0  0  0  0  0  0  0  0  0  0  0  0
  148.7478  142.9979  155.0576 H   0  0  0  0  0  0  0  0  0  0  0  0
  148.6112  140.4424  153.8621 H   0  0  0  0  0  0  0  0  0  0  0  0
  147.9771  142.6066  152.6989 H   0  0  0  0  0  0  0  0  0  0  0  0
  146.8116  141.3270  152.5118 H   0  0  0  0  0  0  0  0  0  0  0  0
  146.5826  143.6668  154.4723 H   0  0  0  0  0  0  0  0  0  0  0  0
  145.6551  143.4235  153.0070 H   0  0  0  0  0  0  0  0  0  0  0  0
  143.1484  142.8360  154.4106 H   0  0  0  0  0  0  0  0  0  0  0  0
  143.7065  142.5989  156.0404 H   0  0  0  0  0  0  0  0  0  0  0  0
  145.3967  144.5327  155.6403 H   0  0  0  0  0  0  0  0  0  0  0  0
  142.4147  144.8894  155.9916 H   0  0  0  0  0  0  0  0  0  0  0  0
  143.6743  145.0003  157.2262 H   0  0  0  0  0  0  0  0  0  0  0  0
  142.8460  147.2841  156.0987 H   0  0  0  0  0  0  0  0  0  0  0  0
  144.5945  147.0176  156.1703 H   0  0  0  0  0  0  0  0  0  0  0  0
  145.2697  145.4693  153.5104 H   0  0  0  0  0  0  0  0  0  0  0  0
  143.6352  144.8723  153.2148 H   0  0  0  0  0  0  0  0  0  0  0  0
  146.2050  142.0189  156.4308 H   0  0  0  0  0  0  0  0  0  0  0  0
  145.0567  140.7215  156.2027 H   0  0  0  0  0  0  0  0  0  0  0  0
  146.4358  139.6463  154.5080 H   0  0  0  0  0  0  0  0  0  0  0  0
  147.3632  139.8615  155.9681 H   0  0  0  0  0  0  0  0  0  0  0  0
  144.7592  141.4451  153.9453 H   0  0  0  0  0  0  0  0  0  0  0  0
  1  2  2  0  0  0  0
  2  3  1  0  0  0  0
  2 11  1  0  0  0  0
  3  4  1  0  0  0  0
  3 24  1  0  0  0  0
  4 10  1  0  0  0  0
  4  5  2  0  0  0  0
  5  6  1  0  0  0  0
  5 25  1  0  0  0  0
  6  7  2  0  0  0  0
  6 26  1  0  0  0  0
  7  8  1  0  0  0  0
  7  9  1  0  0  0  0
  9 10  2  0  0  0  0
  9 27  1  0  0  0  0
 11 12  1  0  0  0  0
 11 28  1  0  0  0  0
 12 23  1  0  0  0  0
 12 13  1  0  0  0  0
 12 29  1  0  0  0  0
 13 14  1  0  0  0  0
 13 30  1  0  0  0  0
 13 31  1  0  0  0  0
 14 15  1  0  0  0  0
 14 32  1  0  0  0  0
 14 33  1  0  0  0  0
 15 16  1  0  0  0  0
 15 22  1  0  0  0  0
 15 47  1  0  0  0  0
 16 17  1  0  0  0  0
 16 34  1  0  0  0  0
 16 35  1  0  0  0  0
 17 21  1  0  0  0  0
 17 18  1  0  0  0  0
 17 36  1  0  0  0  0
 18 19  1  0  0  0  0
 18 37  1  0  0  0  0
 18 38  1  0  0  0  0
 19 20  1  0  0  0  0
 19 39  1  0  0  0  0
 19 40  1  0  0  0  0
 20 21  1  0  0  0  0
 21 41  1  0  0  0  0
 21 42  1  0  0  0  0
 22 23  1  0  0  0  0
 22 43  1  0  0  0  0
 22 44  1  0  0  0  0
 23 45  1  0  0  0  0
 23 46  1  0  0  0  0
M  CHG  1  15   1
M  END
> <s_m_source_file>
AV-unprocessed.smi

> <i_m_source_file_index>
2764

> <i_lp_mmshare_version>
43012

> <i_f3d_flags>
0

> <s_epik_input>
bjFbY0hdYyhGKVtjSF1bY0hdYzFbTkhdQyg9TylbTkhdW0NIXTJbQ0gyXVtDSDJdTihbQ0gyXVtDSDJdMilbQ0gyXVtDQEBIXTNbQ0gyXVtDSDJdT1tDSDJdMw==

> <s_epik_cmdline>
J2VwaWtfcHl0aG9uJywgJy1waCcsICc3LjAnLCAnLXRuJywgJzgnLCAnLW1hJywgJzIwMCcsICctbWV0YWxfYmluZGluZycsICctaW1hZScsICc8aW5maWxlLm1hZT4nLCAnLW9tYWUnLCAnPG91dGZpbGUubWFlPic=

> <r_epik_Ionization_Penalty>
0.0075076

> <r_epik_Ionization_Penalty_Charging>
0.00747775

> <r_epik_Ionization_Penalty_Neutral>
2.98483e-05

> <r_epik_State_Penalty>
0.00558817

> <r_epik_Charging_Adjusted_Penalty>
0.0130659

> <i_epik_Tot_Q>
1

> <i_epik_Tot_abs_Q>
1

> <r_epik_Metal_State_Penalty>
-0

> <b_epik_Metal_Only>
0

> <s_lp_Force_Field>
OPLS_2005

> <r_lp_Energy>
37.0331

> <b_lp_Chiralities_Consistent>
1

> <s_lp_Variant>
AV-unprocessed.smi:2764-3

> <Gold.Version>
5.8.1

> <Gold.Id.Protein>
6NUR|6NUR_protein|mol2

> <Gold.PLP.Fitness>
53.1146

> <Gold.PLP.PLP>
-43.2745

> <Gold.PLP.part.hbond>
-4.0000

> <Gold.PLP.part.metal>
0.0000

> <Gold.PLP.part.buried>
-7.9028

> <Gold.PLP.part.nonpolar>
-31.0496

> <Gold.PLP.part.repulsive>
0.2167

> <Gold.PLP.ligand.clash>
0.6510

> <Gold.PLP.ligand.torsion>
0.7776

> <Gold.PLP.Chemscore.Hbond>
4.0000

> <Gold.PLP.Chemscore.CHOScore>
0.0000

> <Gold.PLP.Chemscore.Metal>
0.0000

> <Gold.Chemscore.Hbonds>
donor molecule, donor type, donor heavy atom, donor atom, acceptor molecule, acceptor atom, score
      L1  H     3    24       P1  8028  1.00
      L1  H    11    28       P1  8028  1.00
      L1  H    15    47       P1 10175  1.98

> <Gold.PLP.Chemscore.Internal.Correction>
0.0462

> <Gold.Rescore>
     Score         DG    S(hbond)    S(metal)    S(lipo)     H(rot)  DE(clash)    DE(int)     intcor
     17.59     -22.04       2.68        0.00      97.65       1.49       2.30       2.15       ----

> <Gold.Chemscore.Fitness>
17.5876

> <Gold.Chemscore.DG>
-22.0399

> <Gold.Chemscore.ZeroCoef>
-5.4800

> <Gold.Chemscore.Hbond>
2.6786

> <Gold.Chemscore.Metal>
0.0000

> <Gold.Chemscore.Lipo>
97.6550

> <Gold.Chemscore.Internal_Hbond>
0.0000

> <Gold.Chemscore.DEClash>
2.3033

> <Gold.Chemscore.DEInternal>
2.1491

> <Gold.Chemscore.Rot>
1.4891

> <Gold.Chemscore.Internal.Correction>
   9.000000E+99

> <Gold.Chemscore.Hbonds>
donor molecule, donor type, donor heavy atom, donor atom, acceptor molecule, acceptor atom, score
      L1  H     3    24       P1  8028  0.96
      L1  H    11    28       P1  8028  0.96
      L1  H    15    47       P1 10175  0.28

> <Gold.Chemscore.Hbond.Weighted>
-8.9464

> <Gold.Chemscore.Metal.Weighted>
-0.0000

> <Gold.Chemscore.Lipo.Weighted>
-11.4256

> <Gold.Chemscore.Internal_Hbond.Weighted>
0.0000

> <Gold.Chemscore.DEClash.Weighted>
2.3033

> <Gold.Chemscore.DEInternal.Weighted>
2.1491

> <Gold.Chemscore.Rot.Weighted>
3.8121

> <Gold.Chemscore.Internal.Correction.Weighted>
   9.000000E+99

> <Gold.Protein.RotatedTorsions>
[ 6907 6896 6895 6894 ] final    8.99 input  -60.11 | X-H torsion
[ 7974 7965 7964 7962 ] final  168.76 input  175.53 | X-H torsion
[ 8008 7997 7996 7995 ] final  -59.95 input   59.86 | X-H torsion
[ 10167 10162 10161 10158 ] final  146.33 input  -65.29 | X-H torsion
[ 10718 10713 10712 10709 ] final  -87.38 input   66.30 | X-H torsion
[ 10763 10752 10751 10750 ] final  147.93 input  -60.55 | X-H torsion
[ 11005 11000 10999 10996 ] final  -59.46 input  -57.11 | X-H torsion

> <Gold.Protein.ActiveResidues>
 VAL166  LYS551  ARG553  GLY616  TRP617  ASP618  TYR619  PRO620  LYS621  CYS622 
 ASP623  PHE694  ASN695  SER759  ASP760  ASP761  ALA762  ILE779  LEU786  VAL792 
 PHE793  MET794  SER795  GLU796  ALA797  LYS798  CYS799  TRP800  GLU811  SER814 

> <Gold.Protein.RotatedAtoms>
  151.7149  135.0905  160.0273 H   0  0  0  0  0  0  0  0  0  0  0  0  # atno 6907 bound_to 6896
  152.3638  133.6326  159.6043 H   0  0  0  0  0  0  0  0  0  0  0  0  # atno 6908 bound_to 6896
  150.7623  133.9297  159.3464 H   0  0  0  0  0  0  0  0  0  0  0  0  # atno 6909 bound_to 6896
  144.7377  139.8955  143.6406 H   0  0  0  0  0  0  0  0  0  0  0  0  # atno 7974 bound_to 7965
  154.4376  140.1050  156.6197 H   0  0  0  0  0  0  0  0  0  0  0  0  # atno 8008 bound_to 7997
  155.5720  140.3489  155.4499 H   0  0  0  0  0  0  0  0  0  0  0  0  # atno 8009 bound_to 7997
  156.0382  140.1276  157.0174 H   0  0  0  0  0  0  0  0  0  0  0  0  # atno 8010 bound_to 7997
  139.4909  144.5837  151.6820 H   0  0  0  0  0  0  0  0  0  0  0  0  # atno 10167 bound_to 10162
  155.9985  130.4798  150.4859 H   0  0  0  0  0  0  0  0  0  0  0  0  # atno 10718 bound_to 10713
  154.0464  135.2885  155.3347 H   0  0  0  0  0  0  0  0  0  0  0  0  # atno 10763 bound_to 10752
  154.6897  135.5231  153.8378 H   0  0  0  0  0  0  0  0  0  0  0  0  # atno 10764 bound_to 10752
  153.0579  135.6602  154.0664 H   0  0  0  0  0  0  0  0  0  0  0  0  # atno 10765 bound_to 10752
  141.1249  133.6616  156.5075 H   0  0  0  0  0  0  0  0  0  0  0  0  # atno 11005 bound_to 11000
  146.1110  139.4115  143.0287 LP  0  0  0  0  0  0  0  0  0  0  0  0  # atno 17320 bound_to 7965
  145.7442  140.9997  143.1285 LP  0  0  0  0  0  0  0  0  0  0  0  0  # atno 17321 bound_to 7965
  140.5449  144.0519  150.6103 LP  0  0  0  0  0  0  0  0  0  0  0  0  # atno 17342 bound_to 10162
  140.3554  143.2939  152.0442 LP  0  0  0  0  0  0  0  0  0  0  0  0  # atno 17343 bound_to 10162
  157.2859  131.0616  151.2166 LP  0  0  0  0  0  0  0  0  0  0  0  0  # atno 17370 bound_to 10713
  157.3196  130.6930  149.6261 LP  0  0  0  0  0  0  0  0  0  0  0  0  # atno 17371 bound_to 10713
  140.4396  134.7028  157.4984 LP  0  0  0  0  0  0  0  0  0  0  0  0  # atno 17394 bound_to 11000
  140.0238  134.6507  155.9201 LP  0  0  0  0  0  0  0  0  0  0  0  0  # atno 17395 bound_to 11000

$$$$
