AV-unprocessed.smi:197|AV-procd|sdf|1546|dock8
  -GOLD-   2262019403D 1   1.00000     0.00000
 Structure written by MMmdl.
 54 57  0  0  0  0  0  0  0  0  1 V2000
  147.1381  142.3344  156.7187 C   0  0  0  0  0  0  0  0  0  0  0  0
  147.6928  141.4485  157.6785 O   0  0  0  0  0  0  0  0  0  0  0  0
  149.0214  141.0296  157.3929 C   0  0  0  0  0  0  0  0  0  0  0  0
  149.1097  140.1526  156.1289 C   0  0  0  0  0  0  0  0  0  0  0  0
  150.4204  139.3304  156.0071 C   0  0  2  0  0  0  0  0  0  0  0  0
  151.6349  140.2450  155.7205 C   0  0  0  0  0  0  0  0  0  0  0  0
  152.8222  139.4721  155.5828 O   0  0  0  0  0  0  0  0  0  0  0  0
  152.7395  138.5593  154.4966 C   0  0  0  0  0  0  0  0  0  0  0  0
  151.5895  137.5777  154.7575 C   0  0  0  0  0  0  0  0  0  0  0  0
  150.3415  138.3045  154.9586 N   0  0  0  0  0  0  0  0  0  0  0  0
  149.2956  137.4499  155.0196 C   0  0  0  0  0  0  0  0  0  0  0  0
  149.5569  136.1890  155.4425 N   0  0  0  0  0  0  0  0  0  0  0  0
  148.5706  135.2901  155.5124 C   0  0  0  0  0  0  0  0  0  0  0  0
  147.2792  135.4423  155.2117 N   0  0  0  0  0  0  0  0  0  0  0  0
  147.0124  136.7127  154.7929 C   0  0  0  0  0  0  0  0  0  0  0  0
  147.9521  137.7750  154.6762 C   0  0  0  0  0  0  0  0  0  0  0  0
  147.3120  138.9266  154.2352 N   0  0  0  0  0  0  0  0  0  0  0  0
  146.0689  138.5613  154.0819 C   0  0  0  0  0  0  0  0  0  0  0  0
  145.8020  137.2447  154.3835 N   0  0  0  0  0  0  0  0  0  0  0  0
  144.5130  136.5765  154.2917 C   0  0  0  0  0  0  0  0  0  0  0  0
  144.0468  136.3281  152.8357 C   0  0  2  0  0  0  0  0  0  0  0  0
  143.7201  137.5789  152.2527 O   0  0  0  0  0  0  0  0  0  0  0  0
  142.8036  135.4334  152.7739 C   0  0  0  0  0  0  0  0  0  0  0  0
  143.3011  134.1474  152.1238 C   0  0  0  0  0  0  0  0  0  0  0  0
  144.3184  134.6066  151.2527 O   0  0  0  0  0  0  0  0  0  0  0  0
  145.0839  135.5568  151.9782 C   0  0  1  0  0  0  0  0  0  0  0  0
  145.9674  136.3819  151.0282 C   0  0  0  0  0  0  0  0  0  0  0  0
  146.1549  142.6630  157.0551 H   0  0  0  0  0  0  0  0  0  0  0  0
  147.0074  141.8510  155.7521 H   0  0  0  0  0  0  0  0  0  0  0  0
  147.7603  143.2203  156.5878 H   0  0  0  0  0  0  0  0  0  0  0  0
  149.6755  141.8976  157.2978 H   0  0  0  0  0  0  0  0  0  0  0  0
  149.3912  140.4761  158.2552 H   0  0  0  0  0  0  0  0  0  0  0  0
  148.2399  139.4969  156.1178 H   0  0  0  0  0  0  0  0  0  0  0  0
  149.0003  140.7870  155.2488 H   0  0  0  0  0  0  0  0  0  0  0  0
  150.6058  138.8273  156.9558 H   0  0  0  0  0  0  0  0  0  0  0  0
  151.4735  140.8402  154.8203 H   0  0  0  0  0  0  0  0  0  0  0  0
  151.7937  140.9446  156.5401 H   0  0  0  0  0  0  0  0  0  0  0  0
  152.5909  139.0976  153.5593 H   0  0  0  0  0  0  0  0  0  0  0  0
  153.6832  138.0205  154.4111 H   0  0  0  0  0  0  0  0  0  0  0  0
  151.4930  136.8915  153.9146 H   0  0  0  0  0  0  0  0  0  0  0  0
  151.8096  136.9754  155.6403 H   0  0  0  0  0  0  0  0  0  0  0  0
  148.8579  134.3072  155.8550 H   0  0  0  0  0  0  0  0  0  0  0  0
  145.3079  139.2446  153.7342 H   0  0  0  0  0  0  0  0  0  0  0  0
  144.5771  135.6307  154.8316 H   0  0  0  0  0  0  0  0  0  0  0  0
  143.7787  137.1811  154.8260 H   0  0  0  0  0  0  0  0  0  0  0  0
  144.0322  137.5815  151.3606 H   0  0  0  0  0  0  0  0  0  0  0  0
  142.3527  135.2483  153.7495 H   0  0  0  0  0  0  0  0  0  0  0  0
  142.0316  135.8740  152.1407 H   0  0  0  0  0  0  0  0  0  0  0  0
  143.7291  133.4726  152.8668 H   0  0  0  0  0  0  0  0  0  0  0  0
  142.5166  133.6156  151.5848 H   0  0  0  0  0  0  0  0  0  0  0  0
  145.7332  134.9775  152.6356 H   0  0  0  0  0  0  0  0  0  0  0  0
  146.5558  137.1155  151.5778 H   0  0  0  0  0  0  0  0  0  0  0  0
  145.3756  136.9115  150.2816 H   0  0  0  0  0  0  0  0  0  0  0  0
  146.6645  135.7358  150.4945 H   0  0  0  0  0  0  0  0  0  0  0  0
  1  2  1  0  0  0  0
  1 28  1  0  0  0  0
  1 29  1  0  0  0  0
  1 30  1  0  0  0  0
  2  3  1  0  0  0  0
  3  4  1  0  0  0  0
  3 31  1  0  0  0  0
  3 32  1  0  0  0  0
  4  5  1  0  0  0  0
  4 33  1  0  0  0  0
  4 34  1  0  0  0  0
  5 10  1  0  0  0  0
  5  6  1  0  0  0  0
  5 35  1  0  0  0  0
  6  7  1  0  0  0  0
  6 36  1  0  0  0  0
  6 37  1  0  0  0  0
  7  8  1  0  0  0  0
  8  9  1  0  0  0  0
  8 38  1  0  0  0  0
  8 39  1  0  0  0  0
  9 10  1  0  0  0  0
  9 40  1  0  0  0  0
  9 41  1  0  0  0  0
 10 11  1  0  0  0  0
 11 16  1  0  0  0  0
 11 12  2  0  0  0  0
 12 13  1  0  0  0  0
 13 14  2  0  0  0  0
 13 42  1  0  0  0  0
 14 15  1  0  0  0  0
 15 19  1  0  0  0  0
 15 16  2  0  0  0  0
 16 17  1  0  0  0  0
 17 18  2  0  0  0  0
 18 19  1  0  0  0  0
 18 43  1  0  0  0  0
 19 20  1  0  0  0  0
 20 21  1  0  0  0  0
 20 44  1  0  0  0  0
 20 45  1  0  0  0  0
 21 26  1  0  0  0  0
 21 22  1  0  0  0  0
 21 23  1  0  0  0  0
 22 46  1  0  0  0  0
 23 24  1  0  0  0  0
 23 47  1  0  0  0  0
 23 48  1  0  0  0  0
 24 25  1  0  0  0  0
 24 49  1  0  0  0  0
 24 50  1  0  0  0  0
 25 26  1  0  0  0  0
 26 27  1  0  0  0  0
 26 51  1  0  0  0  0
 27 52  1  0  0  0  0
 27 53  1  0  0  0  0
 27 54  1  0  0  0  0
M  END
> <s_m_source_file>
AV-unprocessed.smi

> <i_m_source_file_index>
197

> <i_lp_mmshare_version>
43012

> <i_f3d_flags>
0

> <s_epik_input>
W0NIM11PW0NIMl1bQ0gyXVtDQEBIXTFbQ0gyXU9bQ0gyXVtDSDJdTjFjKG5bY0hdbjIpYyhjMjMpbltjSF1uM1tDSDJdW0NAQF00KFtPSF0pW0NIMl1bQ0gyXU9bQ0BIXTRbQ0gzXQ==

> <s_epik_cmdline>
J2VwaWtfcHl0aG9uJywgJy1waCcsICc3LjAnLCAnLXRuJywgJzgnLCAnLW1hJywgJzIwMCcsICctbWV0YWxfYmluZGluZycsICctaW1hZScsICc8aW5maWxlLm1hZT4nLCAnLW9tYWUnLCAnPG91dGZpbGUubWFlPic=

> <r_lp_tautomer_probability>
1

> <r_epik_Ionization_Penalty>
0.000106218

> <r_epik_Ionization_Penalty_Charging>
0

> <r_epik_Ionization_Penalty_Neutral>
0.000106218

> <r_epik_State_Penalty>
-0

> <r_epik_Charging_Adjusted_Penalty>
0

> <i_epik_Tot_Q>
0

> <i_epik_Tot_abs_Q>
0

> <r_epik_Metal_State_Penalty>
-0

> <b_epik_Metal_Only>
0

> <s_lp_Force_Field>
OPLS_2005

> <r_lp_Energy>
42.2513

> <b_lp_Chiralities_Consistent>
1

> <s_lp_Variant>
AV-unprocessed.smi:197-3

> <Gold.Version>
5.8.1

> <Gold.Id.Protein>
6NUR|6NUR_protein|mol2

> <Gold.PLP.Fitness>
37.6147

> <Gold.PLP.PLP>
-30.0640

> <Gold.PLP.part.hbond>
-3.6131

> <Gold.PLP.part.metal>
0.0000

> <Gold.PLP.part.buried>
-5.8683

> <Gold.PLP.part.nonpolar>
-22.2201

> <Gold.PLP.part.repulsive>
0.6543

> <Gold.PLP.ligand.clash>
0.0000

> <Gold.PLP.ligand.torsion>
0.8583

> <Gold.PLP.Chemscore.Hbond>
2.0000

> <Gold.PLP.Chemscore.CHOScore>
1.0000

> <Gold.PLP.Chemscore.Metal>
0.0000

> <Gold.Chemscore.Hbonds>
donor molecule, donor type, donor heavy atom, donor atom, acceptor molecule, acceptor atom, score
      L1  H    22    46       P1 10171  0.78
      P1  H  7997  8009       L1     7  1.00
      L1  C    18    43       P1 10175  1.00

> <Gold.PLP.Chemscore.Internal.Correction>
0.2674

> <Gold.Rescore>
     Score         DG    S(hbond)    S(metal)    S(lipo)     H(rot)  DE(clash)    DE(int)     intcor
     10.29     -11.66       1.79        0.00      63.89       2.84       0.37       1.00       ----

> <Gold.Chemscore.Fitness>
10.2868

> <Gold.Chemscore.DG>
-11.6584

> <Gold.Chemscore.ZeroCoef>
-5.4800

> <Gold.Chemscore.Hbond>
1.7851

> <Gold.Chemscore.Metal>
0.0000

> <Gold.Chemscore.Lipo>
63.8942

> <Gold.Chemscore.Internal_Hbond>
0.0000

> <Gold.Chemscore.DEClash>
0.3724

> <Gold.Chemscore.DEInternal>
0.9992

> <Gold.Chemscore.Rot>
2.8358

> <Gold.Chemscore.Internal.Correction>
   9.000000E+99

> <Gold.Chemscore.Hbonds>
donor molecule, donor type, donor heavy atom, donor atom, acceptor molecule, acceptor atom, score
      L1  H    22    46       P1 10171  0.78
      P1  H  7997  8009       L1     7  0.96

> <Gold.Chemscore.Hbond.Weighted>
-5.9623

> <Gold.Chemscore.Metal.Weighted>
-0.0000

> <Gold.Chemscore.Lipo.Weighted>
-7.4756

> <Gold.Chemscore.Internal_Hbond.Weighted>
0.0000

> <Gold.Chemscore.DEClash.Weighted>
0.3724

> <Gold.Chemscore.DEInternal.Weighted>
0.9992

> <Gold.Chemscore.Rot.Weighted>
7.2596

> <Gold.Chemscore.Internal.Correction.Weighted>
   9.000000E+99

> <Gold.Protein.RotatedTorsions>
[ 6907 6896 6895 6894 ] final -106.03 input  -60.11 | X-H torsion
[ 7974 7965 7964 7962 ] final  126.52 input  175.53 | X-H torsion
[ 8008 7997 7996 7995 ] final -149.08 input   59.86 | X-H torsion
[ 10167 10162 10161 10158 ] final -134.92 input  -65.29 | X-H torsion
[ 10718 10713 10712 10709 ] final   33.69 input   66.30 | X-H torsion
[ 10763 10752 10751 10750 ] final  -31.55 input  -60.55 | X-H torsion
[ 11005 11000 10999 10996 ] final -179.08 input  -57.11 | X-H torsion

> <Gold.Protein.ActiveResidues>
 VAL166  LYS551  ARG553  GLY616  TRP617  ASP618  TYR619  PRO620  LYS621  CYS622 
 ASP623  PHE694  ASN695  SER759  ASP760  ASP761  ALA762  ILE779  LEU786  VAL792 
 PHE793  MET794  SER795  GLU796  ALA797  LYS798  CYS799  TRP800  GLU811  SER814 

> <Gold.Protein.RotatedAtoms>
  150.7367  134.0038  159.3646 H   0  0  0  0  0  0  0  0  0  0  0  0  # atno 6907 bound_to 6896
  151.7994  135.0711  160.0407 H   0  0  0  0  0  0  0  0  0  0  0  0  # atno 6908 bound_to 6896
  152.3152  133.5758  159.5743 H   0  0  0  0  0  0  0  0  0  0  0  0  # atno 6909 bound_to 6896
  145.0608  139.3807  143.5007 H   0  0  0  0  0  0  0  0  0  0  0  0  # atno 7974 bound_to 7965
  155.6019  140.0663  157.2730 H   0  0  0  0  0  0  0  0  0  0  0  0  # atno 8008 bound_to 7997
  154.4276  140.1817  156.1229 H   0  0  0  0  0  0  0  0  0  0  0  0  # atno 8009 bound_to 7997
  156.0152  140.3322  155.6985 H   0  0  0  0  0  0  0  0  0  0  0  0  # atno 8010 bound_to 7997
  139.8831  143.6815  152.2624 H   0  0  0  0  0  0  0  0  0  0  0  0  # atno 10167 bound_to 10162
  157.3010  130.7350  149.6666 H   0  0  0  0  0  0  0  0  0  0  0  0  # atno 10718 bound_to 10713
  153.7991  135.6891  153.4858 H   0  0  0  0  0  0  0  0  0  0  0  0  # atno 10763 bound_to 10752
  153.1700  135.4546  154.9888 H   0  0  0  0  0  0  0  0  0  0  0  0  # atno 10764 bound_to 10752
  154.8014  135.3339  154.7481 H   0  0  0  0  0  0  0  0  0  0  0  0  # atno 10765 bound_to 10752
  140.4226  134.6592  157.4671 H   0  0  0  0  0  0  0  0  0  0  0  0  # atno 11005 bound_to 11000
  146.3524  140.0305  142.8651 LP  0  0  0  0  0  0  0  0  0  0  0  0  # atno 17320 bound_to 7965
  145.1411  140.9572  143.4488 LP  0  0  0  0  0  0  0  0  0  0  0  0  # atno 17321 bound_to 7965
  139.7178  144.7608  151.1005 LP  0  0  0  0  0  0  0  0  0  0  0  0  # atno 17342 bound_to 10162
  140.7741  143.5247  150.9494 LP  0  0  0  0  0  0  0  0  0  0  0  0  # atno 17343 bound_to 10162
  155.9671  130.4280  150.4769 LP  0  0  0  0  0  0  0  0  0  0  0  0  # atno 17370 bound_to 10713
  157.2749  131.0595  151.2235 LP  0  0  0  0  0  0  0  0  0  0  0  0  # atno 17371 bound_to 10713
  140.0190  134.6576  155.9268 LP  0  0  0  0  0  0  0  0  0  0  0  0  # atno 17394 bound_to 11000
  141.1778  133.6542  156.4897 LP  0  0  0  0  0  0  0  0  0  0  0  0  # atno 17395 bound_to 11000

$$$$
