AV-unprocessed.smi:1475|AV-procd|sdf|5977|dock2
  -GOLD-   22720 6 63D 1   1.00000     0.00000
 Structure written by MMmdl.
 50 51  0  0  0  0  0  0  0  0  2 V2000
  152.2056  137.8778  154.0412 C   0  0  0  0  0  0  0  0  0  0  0  0
  151.7561  138.9569  154.9813 C   0  0  0  0  0  0  0  0  0  0  0  0
  152.1257  139.1507  156.3414 C   0  0  0  0  0  0  0  0  0  0  0  0
  151.4392  140.2691  156.7225 C   0  0  0  0  0  0  0  0  0  0  0  0
  151.4111  140.9801  158.0360 C   0  0  0  0  0  0  0  0  0  0  0  0
  150.7107  140.6866  155.6222 N   0  0  0  0  0  0  0  0  0  0  0  0
  149.8238  141.8311  155.4881 C   0  0  0  0  0  0  0  0  0  0  0  0
  148.5596  141.4554  154.7141 C   0  0  0  0  0  0  0  0  0  0  0  0
  148.3504  140.2825  154.4053 O   0  0  0  0  0  0  0  0  0  0  0  0
  147.7219  142.4592  154.4116 N   0  0  0  0  0  0  0  0  0  0  0  0
  146.4474  142.3060  153.7205 C   0  0  0  0  0  0  0  0  0  0  0  0
  145.7767  143.6679  153.4497 C   0  0  0  0  0  0  0  0  0  0  0  0
  144.4195  143.7644  154.0430 N   0  3  1  0  0  0  0  0  0  0  0  0
  144.3587  143.1494  155.3950 C   0  0  0  0  0  0  0  0  0  0  0  0
  142.9195  143.1173  155.9456 C   0  0  2  0  0  0  0  0  0  0  0  0
  142.0476  142.0692  155.2322 C   0  0  0  0  0  0  0  0  0  0  0  0
  142.3013  144.5274  155.9257 C   0  0  0  0  0  0  0  0  0  0  0  0
  142.4167  145.1805  154.5366 C   0  0  1  0  0  0  0  0  0  0  0  0
  141.8582  146.6107  154.5433 C   0  0  0  0  0  0  0  0  0  0  0  0
  143.8791  145.1504  154.0514 C   0  0  0  0  0  0  0  0  0  0  0  0
  150.9091  139.8801  154.5563 N   0  0  0  0  0  0  0  0  0  0  0  0
  152.8689  137.1714  154.5409 H   0  0  0  0  0  0  0  0  0  0  0  0
  152.7465  138.2968  153.1924 H   0  0  0  0  0  0  0  0  0  0  0  0
  151.3559  137.3163  153.6522 H   0  0  0  0  0  0  0  0  0  0  0  0
  152.7956  138.5580  156.9465 H   0  0  0  0  0  0  0  0  0  0  0  0
  152.0878  140.5084  158.7486 H   0  0  0  0  0  0  0  0  0  0  0  0
  150.4093  140.9640  158.4655 H   0  0  0  0  0  0  0  0  0  0  0  0
  151.7174  142.0200  157.9243 H   0  0  0  0  0  0  0  0  0  0  0  0
  149.5635  142.2066  156.4792 H   0  0  0  0  0  0  0  0  0  0  0  0
  150.3500  142.6364  154.9744 H   0  0  0  0  0  0  0  0  0  0  0  0
  147.9718  143.3903  154.7139 H   0  0  0  0  0  0  0  0  0  0  0  0
  146.6167  141.7474  152.7998 H   0  0  0  0  0  0  0  0  0  0  0  0
  145.7983  141.6894  154.3430 H   0  0  0  0  0  0  0  0  0  0  0  0
  146.4119  144.4445  153.8784 H   0  0  0  0  0  0  0  0  0  0  0  0
  145.7180  143.8759  152.3803 H   0  0  0  0  0  0  0  0  0  0  0  0
  144.7570  142.1344  155.3636 H   0  0  0  0  0  0  0  0  0  0  0  0
  145.0020  143.7152  156.0709 H   0  0  0  0  0  0  0  0  0  0  0  0
  142.9771  142.8053  156.9893 H   0  0  0  0  0  0  0  0  0  0  0  0
  141.9568  142.2714  154.1651 H   0  0  0  0  0  0  0  0  0  0  0  0
  141.0418  142.0444  155.6526 H   0  0  0  0  0  0  0  0  0  0  0  0
  142.4712  141.0703  155.3418 H   0  0  0  0  0  0  0  0  0  0  0  0
  141.2583  144.4858  156.2417 H   0  0  0  0  0  0  0  0  0  0  0  0
  142.8155  145.1506  156.6590 H   0  0  0  0  0  0  0  0  0  0  0  0
  141.8149  144.6035  153.8332 H   0  0  0  0  0  0  0  0  0  0  0  0
  142.4170  147.2525  155.2253 H   0  0  0  0  0  0  0  0  0  0  0  0
  140.8136  146.6226  154.8561 H   0  0  0  0  0  0  0  0  0  0  0  0
  141.9088  147.0575  153.5497 H   0  0  0  0  0  0  0  0  0  0  0  0
  144.5038  145.7797  154.6877 H   0  0  0  0  0  0  0  0  0  0  0  0
  143.9232  145.5782  153.0508 H   0  0  0  0  0  0  0  0  0  0  0  0
  143.8107  143.2131  153.4552 H   0  0  0  0  0  0  0  0  0  0  0  0
  1  2  1  0  0  0  0
  1 22  1  0  0  0  0
  1 23  1  0  0  0  0
  1 24  1  0  0  0  0
  2 21  2  0  0  0  0
  2  3  1  0  0  0  0
  3  4  2  0  0  0  0
  3 25  1  0  0  0  0
  4  5  1  0  0  0  0
  4  6  1  0  0  0  0
  5 26  1  0  0  0  0
  5 27  1  0  0  0  0
  5 28  1  0  0  0  0
  6  7  1  0  0  0  0
  6 21  1  0  0  0  0
  7  8  1  0  0  0  0
  7 29  1  0  0  0  0
  7 30  1  0  0  0  0
  8  9  2  0  0  0  0
  8 10  1  0  0  0  0
 10 11  1  0  0  0  0
 10 31  1  0  0  0  0
 11 12  1  0  0  0  0
 11 32  1  0  0  0  0
 11 33  1  0  0  0  0
 12 13  1  0  0  0  0
 12 34  1  0  0  0  0
 12 35  1  0  0  0  0
 13 20  1  0  0  0  0
 13 14  1  0  0  0  0
 13 50  1  0  0  0  0
 14 15  1  0  0  0  0
 14 36  1  0  0  0  0
 14 37  1  0  0  0  0
 15 16  1  0  0  0  0
 15 17  1  0  0  0  0
 15 38  1  0  0  0  0
 16 39  1  0  0  0  0
 16 40  1  0  0  0  0
 16 41  1  0  0  0  0
 17 18  1  0  0  0  0
 17 42  1  0  0  0  0
 17 43  1  0  0  0  0
 18 19  1  0  0  0  0
 18 20  1  0  0  0  0
 18 44  1  0  0  0  0
 19 45  1  0  0  0  0
 19 46  1  0  0  0  0
 19 47  1  0  0  0  0
 20 48  1  0  0  0  0
 20 49  1  0  0  0  0
M  CHG  1  13   1
M  END
> <s_m_source_file>
AV-unprocessed.smi

> <i_m_source_file_index>
1475

> <i_lp_mmshare_version>
43012

> <i_f3d_flags>
0

> <s_epik_input>
W0NIM11jMVtjSF1jKFtDSDNdKW4objEpW0NIMl1DKD1PKVtOSF1bQ0gyXVtDSDJdTjJbQ0gyXVtDQEBIXShbQ0gzXSlbQ0gyXVtDQEBIXShbQ0gzXSlbQ0gyXTI=

> <s_epik_cmdline>
J2VwaWtfcHl0aG9uJywgJy1waCcsICc3LjAnLCAnLXRuJywgJzgnLCAnLW1hJywgJzIwMCcsICctbWV0YWxfYmluZGluZycsICctaW1hZScsICc8aW5maWxlLm1hZT4nLCAnLW9tYWUnLCAnPG91dGZpbGUubWFlPic=

> <r_lp_tautomer_probability>
1

> <r_epik_Ionization_Penalty>
0.00206431

> <r_epik_Ionization_Penalty_Charging>
0.00187095

> <r_epik_Ionization_Penalty_Neutral>
0.000193364

> <r_epik_State_Penalty>
-0

> <r_epik_Charging_Adjusted_Penalty>
0.00187095

> <i_epik_Tot_Q>
1

> <i_epik_Tot_abs_Q>
1

> <r_epik_Metal_State_Penalty>
-0

> <b_epik_Metal_Only>
0

> <s_lp_Force_Field>
OPLS_2005

> <r_lp_Energy>
16.4698

> <b_lp_Chiralities_Consistent>
1

> <s_lp_Variant>
AV-unprocessed.smi:1475-2

> <Gold.Version>
5.8.1

> <Gold.Id.Protein>
6NUR|6NUR_protein|mol2

> <Gold.PLP.Fitness>
48.7502

> <Gold.PLP.PLP>
-38.1712

> <Gold.PLP.part.hbond>
-3.0000

> <Gold.PLP.part.metal>
0.0000

> <Gold.PLP.part.buried>
-4.9771

> <Gold.PLP.part.nonpolar>
-31.1645

> <Gold.PLP.part.repulsive>
0.4059

> <Gold.PLP.ligand.clash>
0.0000

> <Gold.PLP.ligand.torsion>
0.7884

> <Gold.PLP.Chemscore.Hbond>
4.0000

> <Gold.PLP.Chemscore.CHOScore>
0.0000

> <Gold.PLP.Chemscore.Metal>
0.0000

> <Gold.Chemscore.Hbonds>
donor molecule, donor type, donor heavy atom, donor atom, acceptor molecule, acceptor atom, score
      L1  H    10    31       P1  8028  1.00
      L1  H    13    50       P1 10174  2.00
      P1  H  7989  7998       L1    21  1.00

> <Gold.PLP.Chemscore.Internal.Correction>
0.1559

> <Gold.Rescore>
     Score         DG    S(hbond)    S(metal)    S(lipo)     H(rot)  DE(clash)    DE(int)     intcor
     16.17     -18.56       2.16        0.00      86.02       1.64       0.51       1.88       ----

> <Gold.Chemscore.Fitness>
16.1684

> <Gold.Chemscore.DG>
-18.5557

> <Gold.Chemscore.ZeroCoef>
-5.4800

> <Gold.Chemscore.Hbond>
2.1585

> <Gold.Chemscore.Metal>
0.0000

> <Gold.Chemscore.Lipo>
86.0208

> <Gold.Chemscore.Internal_Hbond>
0.0000

> <Gold.Chemscore.DEClash>
0.5086

> <Gold.Chemscore.DEInternal>
1.8787

> <Gold.Chemscore.Rot>
1.6399

> <Gold.Chemscore.Internal.Correction>
   9.000000E+99

> <Gold.Chemscore.Hbonds>
donor molecule, donor type, donor heavy atom, donor atom, acceptor molecule, acceptor atom, score
      L1  H    10    31       P1  8028  0.78
      L1  H    13    50       P1 10174  0.26
      P1  H  7989  7998       L1    21  0.29

> <Gold.Chemscore.Hbond.Weighted>
-7.2094

> <Gold.Chemscore.Metal.Weighted>
-0.0000

> <Gold.Chemscore.Lipo.Weighted>
-10.0644

> <Gold.Chemscore.Internal_Hbond.Weighted>
0.0000

> <Gold.Chemscore.DEClash.Weighted>
0.5086

> <Gold.Chemscore.DEInternal.Weighted>
1.8787

> <Gold.Chemscore.Rot.Weighted>
4.1982

> <Gold.Chemscore.Internal.Correction.Weighted>
   9.000000E+99

> <Gold.Protein.RotatedTorsions>
[ 6907 6896 6895 6894 ] final  -53.40 input  -60.11 | X-H torsion
[ 7974 7965 7964 7962 ] final  -14.10 input  175.53 | X-H torsion
[ 8008 7997 7996 7995 ] final  140.67 input   59.86 | X-H torsion
[ 10167 10162 10161 10158 ] final -110.38 input  -65.29 | X-H torsion
[ 10718 10713 10712 10709 ] final -144.56 input   66.30 | X-H torsion
[ 10763 10752 10751 10750 ] final   11.65 input  -60.55 | X-H torsion
[ 11005 11000 10999 10996 ] final  145.31 input  -57.11 | X-H torsion

> <Gold.Protein.ActiveResidues>
 VAL166  LYS551  ARG553  GLY616  TRP617  ASP618  TYR619  PRO620  LYS621  CYS622 
 ASP623  PHE694  ASN695  SER759  ASP760  ASP761  ALA762  ILE779  LEU786  VAL792 
 PHE793  MET794  SER795  GLU796  ALA797  LYS798  CYS799  TRP800  GLU811  SER814 

> <Gold.Protein.RotatedAtoms>
  150.8430  134.7729  159.6947 H   0  0  0  0  0  0  0  0  0  0  0  0  # atno 6907 bound_to 6896
  152.4513  134.5384  159.9841 H   0  0  0  0  0  0  0  0  0  0  0  0  # atno 6908 bound_to 6896
  151.5520  133.3378  159.2990 H   0  0  0  0  0  0  0  0  0  0  0  0  # atno 6909 bound_to 6896
  146.2088  140.3299  142.8398 H   0  0  0  0  0  0  0  0  0  0  0  0  # atno 7974 bound_to 7965
  156.2976  140.2335  156.4439 H   0  0  0  0  0  0  0  0  0  0  0  0  # atno 8008 bound_to 7997
  154.8161  140.0440  157.1398 H   0  0  0  0  0  0  0  0  0  0  0  0  # atno 8009 bound_to 7997
  154.9368  140.3024  155.5144 H   0  0  0  0  0  0  0  0  0  0  0  0  # atno 8010 bound_to 7997
  140.1451  143.4246  152.1534 H   0  0  0  0  0  0  0  0  0  0  0  0  # atno 10167 bound_to 10162
  156.3717  130.7791  151.1973 H   0  0  0  0  0  0  0  0  0  0  0  0  # atno 10718 bound_to 10713
  153.1904  135.6841  153.8359 H   0  0  0  0  0  0  0  0  0  0  0  0  # atno 10763 bound_to 10752
  153.7660  135.3203  155.3346 H   0  0  0  0  0  0  0  0  0  0  0  0  # atno 10764 bound_to 10752
  154.8114  135.4715  154.0625 H   0  0  0  0  0  0  0  0  0  0  0  0  # atno 10765 bound_to 10752
  140.0702  134.9156  157.1332 H   0  0  0  0  0  0  0  0  0  0  0  0  # atno 11005 bound_to 11000
  144.8860  140.7462  143.5957 LP  0  0  0  0  0  0  0  0  0  0  0  0  # atno 17320 bound_to 7965
  145.3220  139.1785  143.4582 LP  0  0  0  0  0  0  0  0  0  0  0  0  # atno 17321 bound_to 7965
  139.5453  144.7293  151.4604 LP  0  0  0  0  0  0  0  0  0  0  0  0  # atno 17342 bound_to 10162
  140.6737  143.8238  150.7031 LP  0  0  0  0  0  0  0  0  0  0  0  0  # atno 17343 bound_to 10162
  157.7484  131.0370  150.4437 LP  0  0  0  0  0  0  0  0  0  0  0  0  # atno 17370 bound_to 10713
  156.4665  130.4043  149.6544 LP  0  0  0  0  0  0  0  0  0  0  0  0  # atno 17371 bound_to 10713
  140.3638  134.2464  155.7184 LP  0  0  0  0  0  0  0  0  0  0  0  0  # atno 17394 bound_to 11000
  141.2009  133.7977  157.0468 LP  0  0  0  0  0  0  0  0  0  0  0  0  # atno 17395 bound_to 11000

$$$$
