AV-unprocessed.smi:2952|AV-procd|sdf|11292|dock5
  -GOLD-   2272016183D 1   1.00000     0.00000
 Structure written by MMmdl.
 39 41  0  0  0  0  0  0  0  0  2 V2000
  153.5151  138.7307  156.6494 O   0  0  0  0  0  0  0  0  0  0  0  0
  152.2017  139.2376  156.5354 C   0  0  0  0  0  0  0  0  0  0  0  0
  151.6918  139.7684  157.8850 C   0  0  0  0  0  0  0  0  0  0  0  0
  151.3667  141.2040  157.8474 N   0  0  0  0  0  0  0  0  0  0  0  0
  150.7133  141.9323  156.8959 C   0  0  0  0  0  0  0  0  0  0  0  0
  150.1397  141.4257  155.6096 C   0  0  0  0  0  0  0  0  0  0  0  0
  148.7272  141.7510  155.4289 N   0  0  0  0  0  0  0  0  0  0  0  0
  147.8817  141.1986  156.4848 C   0  0  0  0  0  0  0  0  0  0  0  0
  146.3986  141.5457  156.2678 C   0  0  0  0  0  0  0  0  0  0  0  0
  145.9829  141.0853  154.9860 O   0  0  0  0  0  0  0  0  0  0  0  0
  146.7557  141.6379  153.9250 C   0  0  0  0  0  0  0  0  0  0  0  0
  148.2396  141.2900  154.1342 C   0  0  0  0  0  0  0  0  0  0  0  0
  150.6728  143.2228  157.3317 N   0  3  0  0  0  0  0  0  0  0  0  0
  151.3002  143.3219  158.5739 C   0  0  0  0  0  0  0  0  0  0  0  0
  151.5037  144.4188  159.4053 C   0  0  0  0  0  0  0  0  0  0  0  0
  152.1798  144.1758  160.6187 C   0  0  0  0  0  0  0  0  0  0  0  0
  152.6251  142.8838  160.9673 C   0  0  0  0  0  0  0  0  0  0  0  0
  153.4433  142.6463  162.4672 Cl  0  0  0  0  0  0  0  0  0  0  0  0
  152.4136  141.7809  160.1138 C   0  0  0  0  0  0  0  0  0  0  0  0
  151.7462  142.0284  158.9142 C   0  0  0  0  0  0  0  0  0  0  0  0
  153.5197  138.0557  157.3112 H   0  0  0  0  0  0  0  0  0  0  0  0
  152.1957  140.0358  155.7931 H   0  0  0  0  0  0  0  0  0  0  0  0
  151.5480  138.4487  156.1623 H   0  0  0  0  0  0  0  0  0  0  0  0
  150.8221  139.2065  158.2248 H   0  0  0  0  0  0  0  0  0  0  0  0
  152.4558  139.6235  158.6486 H   0  0  0  0  0  0  0  0  0  0  0  0
  150.7216  141.8599  154.7960 H   0  0  0  0  0  0  0  0  0  0  0  0
  150.2875  140.3464  155.5510 H   0  0  0  0  0  0  0  0  0  0  0  0
  147.9964  140.1141  156.5212 H   0  0  0  0  0  0  0  0  0  0  0  0
  148.1944  141.5792  157.4572 H   0  0  0  0  0  0  0  0  0  0  0  0
  145.7826  141.0742  157.0335 H   0  0  0  0  0  0  0  0  0  0  0  0
  146.2384  142.6223  156.3449 H   0  0  0  0  0  0  0  0  0  0  0  0
  146.4012  141.2342  152.9765 H   0  0  0  0  0  0  0  0  0  0  0  0
  146.6140  142.7191  153.8869 H   0  0  0  0  0  0  0  0  0  0  0  0
  148.8304  141.7384  153.3347 H   0  0  0  0  0  0  0  0  0  0  0  0
  148.3719  140.2100  154.0516 H   0  0  0  0  0  0  0  0  0  0  0  0
  151.1621  145.4094  159.1435 H   0  0  0  0  0  0  0  0  0  0  0  0
  152.3581  144.9979  161.2969 H   0  0  0  0  0  0  0  0  0  0  0  0
  152.7526  140.7945  160.3936 H   0  0  0  0  0  0  0  0  0  0  0  0
  150.2440  143.9792  156.8142 H   0  0  0  0  0  0  0  0  0  0  0  0
  1  2  1  0  0  0  0
  1 21  1  0  0  0  0
  2  3  1  0  0  0  0
  2 22  1  0  0  0  0
  2 23  1  0  0  0  0
  3  4  1  0  0  0  0
  3 24  1  0  0  0  0
  3 25  1  0  0  0  0
  4 20  1  0  0  0  0
  4  5  1  0  0  0  0
  5  6  1  0  0  0  0
  5 13  2  0  0  0  0
  6  7  1  0  0  0  0
  6 26  1  0  0  0  0
  6 27  1  0  0  0  0
  7 12  1  0  0  0  0
  7  8  1  0  0  0  0
  8  9  1  0  0  0  0
  8 28  1  0  0  0  0
  8 29  1  0  0  0  0
  9 10  1  0  0  0  0
  9 30  1  0  0  0  0
  9 31  1  0  0  0  0
 10 11  1  0  0  0  0
 11 12  1  0  0  0  0
 11 32  1  0  0  0  0
 11 33  1  0  0  0  0
 12 34  1  0  0  0  0
 12 35  1  0  0  0  0
 13 14  1  0  0  0  0
 13 39  1  0  0  0  0
 14 20  2  0  0  0  0
 14 15  1  0  0  0  0
 15 16  2  0  0  0  0
 15 36  1  0  0  0  0
 16 17  1  0  0  0  0
 16 37  1  0  0  0  0
 17 18  1  0  0  0  0
 17 19  2  0  0  0  0
 19 20  1  0  0  0  0
 19 38  1  0  0  0  0
M  CHG  1  13   1
M  END
> <s_m_source_file>
AV-unprocessed.smi

> <i_m_source_file_index>
2952

> <i_lp_mmshare_version>
43012

> <i_f3d_flags>
0

> <s_epik_input>
W2NIXTFbY0hdYyhDbClbY0hdYyhjMTIpbihbQ0gyXVtDSDJdW09IXSljKG4yKVtDSDJdTjNbQ0gyXVtDSDJdT1tDSDJdW0NIMl0z

> <s_epik_cmdline>
J2VwaWtfcHl0aG9uJywgJy1waCcsICc3LjAnLCAnLXRuJywgJzgnLCAnLW1hJywgJzIwMCcsICctbWV0YWxfYmluZGluZycsICctaW1hZScsICc8aW5maWxlLm1hZT4nLCAnLW9tYWUnLCAnPG91dGZpbGUubWFlPic=

> <r_epik_Ionization_Penalty>
1.17151

> <r_epik_Ionization_Penalty_Charging>
1.1712

> <r_epik_Ionization_Penalty_Neutral>
0.000312352

> <r_epik_State_Penalty>
1.2343

> <r_epik_Charging_Adjusted_Penalty>
2.4055

> <i_epik_Tot_Q>
1

> <i_epik_Tot_abs_Q>
1

> <r_epik_Metal_State_Penalty>
5.24833

> <b_epik_Metal_Only>
0

> <s_lp_Force_Field>
OPLS_2005

> <r_lp_Energy>
24.7886

> <b_lp_Chiralities_Consistent>
1

> <s_lp_Variant>
AV-unprocessed.smi:2952-2

> <Gold.Version>
5.8.1

> <Gold.Id.Protein>
6NUR|6NUR_protein|mol2

> <Gold.PLP.Fitness>
52.1472

> <Gold.PLP.PLP>
-44.4856

> <Gold.PLP.part.hbond>
-1.9786

> <Gold.PLP.part.metal>
0.0000

> <Gold.PLP.part.buried>
-7.4543

> <Gold.PLP.part.nonpolar>
-36.4651

> <Gold.PLP.part.repulsive>
1.8278

> <Gold.PLP.ligand.clash>
0.0000

> <Gold.PLP.ligand.torsion>
0.6421

> <Gold.PLP.Chemscore.Hbond>
2.9760

> <Gold.PLP.Chemscore.CHOScore>
0.0000

> <Gold.PLP.Chemscore.Metal>
0.0000

> <Gold.Chemscore.Hbonds>
donor molecule, donor type, donor heavy atom, donor atom, acceptor molecule, acceptor atom, score
      L1  H    13    39       P1  8028  2.00
      P1  H  7997  8009       L1     1  0.94

> <Gold.PLP.Chemscore.Internal.Correction>
0.0177

> <Gold.Rescore>
     Score         DG    S(hbond)    S(metal)    S(lipo)     H(rot)  DE(clash)    DE(int)     intcor
     17.77     -18.41       1.78        0.00     107.51       2.18       0.03       0.62       ----

> <Gold.Chemscore.Fitness>
17.7661

> <Gold.Chemscore.DG>
-18.4127

> <Gold.Chemscore.ZeroCoef>
-5.4800

> <Gold.Chemscore.Hbond>
1.7785

> <Gold.Chemscore.Metal>
0.0000

> <Gold.Chemscore.Lipo>
107.5106

> <Gold.Chemscore.Internal_Hbond>
0.0000

> <Gold.Chemscore.DEClash>
0.0310

> <Gold.Chemscore.DEInternal>
0.6157

> <Gold.Chemscore.Rot>
2.1822

> <Gold.Chemscore.Internal.Correction>
   9.000000E+99

> <Gold.Chemscore.Hbonds>
donor molecule, donor type, donor heavy atom, donor atom, acceptor molecule, acceptor atom, score
      L1  H    13    39       P1  8028  0.97
      P1  H  7997  8009       L1     1  0.31

> <Gold.Chemscore.Hbond.Weighted>
-5.9403

> <Gold.Chemscore.Metal.Weighted>
-0.0000

> <Gold.Chemscore.Lipo.Weighted>
-12.5787

> <Gold.Chemscore.Internal_Hbond.Weighted>
0.0000

> <Gold.Chemscore.DEClash.Weighted>
0.0310

> <Gold.Chemscore.DEInternal.Weighted>
0.6157

> <Gold.Chemscore.Rot.Weighted>
5.5863

> <Gold.Chemscore.Internal.Correction.Weighted>
   9.000000E+99

> <Gold.Protein.RotatedTorsions>
[ 6907 6896 6895 6894 ] final  135.92 input  -60.11 | X-H torsion
[ 7974 7965 7964 7962 ] final -178.90 input  175.53 | X-H torsion
[ 8008 7997 7996 7995 ] final -178.07 input   59.86 | X-H torsion
[ 10167 10162 10161 10158 ] final -158.05 input  -65.29 | X-H torsion
[ 10718 10713 10712 10709 ] final  134.00 input   66.30 | X-H torsion
[ 10763 10752 10751 10750 ] final   -7.05 input  -60.55 | X-H torsion
[ 11005 11000 10999 10996 ] final  -38.82 input  -57.11 | X-H torsion

> <Gold.Protein.ActiveResidues>
 VAL166  LYS551  ARG553  GLY616  TRP617  ASP618  TYR619  PRO620  LYS621  CYS622 
 ASP623  PHE694  ASN695  SER759  ASP760  ASP761  ALA762  ILE779  LEU786  VAL792 
 PHE793  MET794  SER795  GLU796  ALA797  LYS798  CYS799  TRP800  GLU811  SER814 

> <Gold.Protein.RotatedAtoms>
  152.2952  133.5600  159.5582 H   0  0  0  0  0  0  0  0  0  0  0  0  # atno 6907 bound_to 6896
  150.7252  134.0372  159.3762 H   0  0  0  0  0  0  0  0  0  0  0  0  # atno 6908 bound_to 6896
  151.8275  135.0632  160.0483 H   0  0  0  0  0  0  0  0  0  0  0  0  # atno 6909 bound_to 6896
  144.7133  140.0798  143.6426 H   0  0  0  0  0  0  0  0  0  0  0  0  # atno 7974 bound_to 7965
  156.0145  140.1248  157.0420 H   0  0  0  0  0  0  0  0  0  0  0  0  # atno 8008 bound_to 7997
  154.4288  140.1081  156.5946 H   0  0  0  0  0  0  0  0  0  0  0  0  # atno 8009 bound_to 7997
  155.6033  140.3470  155.4602 H   0  0  0  0  0  0  0  0  0  0  0  0  # atno 8010 bound_to 7997
  139.6722  143.9725  152.2290 H   0  0  0  0  0  0  0  0  0  0  0  0  # atno 10167 bound_to 10162
  157.4717  131.1080  150.9794 H   0  0  0  0  0  0  0  0  0  0  0  0  # atno 10718 bound_to 10713
  153.4209  135.7010  153.6295 H   0  0  0  0  0  0  0  0  0  0  0  0  # atno 10763 bound_to 10752
  153.4750  135.3706  155.2412 H   0  0  0  0  0  0  0  0  0  0  0  0  # atno 10764 bound_to 10752
  154.8722  135.4052  154.3577 H   0  0  0  0  0  0  0  0  0  0  0  0  # atno 10765 bound_to 10752
  141.0056  133.6933  156.2104 H   0  0  0  0  0  0  0  0  0  0  0  0  # atno 11005 bound_to 11000
  145.9712  139.2871  143.1098 LP  0  0  0  0  0  0  0  0  0  0  0  0  # atno 17320 bound_to 7965
  145.9115  140.9177  143.0451 LP  0  0  0  0  0  0  0  0  0  0  0  0  # atno 17321 bound_to 7965
  139.9492  144.6631  150.8189 LP  0  0  0  0  0  0  0  0  0  0  0  0  # atno 17342 bound_to 10162
  140.7622  143.3193  151.2659 LP  0  0  0  0  0  0  0  0  0  0  0  0  # atno 17343 bound_to 10162
  157.0557  130.5805  149.5377 LP  0  0  0  0  0  0  0  0  0  0  0  0  # atno 17370 bound_to 10713
  156.0077  130.5165  150.7884 LP  0  0  0  0  0  0  0  0  0  0  0  0  # atno 17371 bound_to 10713
  140.6818  134.4759  157.5589 LP  0  0  0  0  0  0  0  0  0  0  0  0  # atno 17394 bound_to 11000
  139.9061  134.8445  156.1700 LP  0  0  0  0  0  0  0  0  0  0  0  0  # atno 17395 bound_to 11000

$$$$
