AV-unprocessed.smi:415|AV-procd|sdf|2523|dock1
  -GOLD-   2262022473D 1   1.00000     0.00000
 Structure written by MMmdl.
 53 54  0  0  0  0  0  0  0  0  1 V2000
  145.8065  132.9950  150.4472 C   0  0  0  0  0  0  0  0  0  0  0  0
  146.2632  132.2565  151.5662 O   0  0  0  0  0  0  0  0  0  0  0  0
  147.1893  132.9847  152.3552 C   0  0  0  0  0  0  0  0  0  0  0  0
  147.1678  132.4497  153.7966 C   0  0  0  0  0  0  0  0  0  0  0  0
  148.2880  132.9124  154.5947 N   0  0  0  0  0  0  0  0  0  0  0  0
  149.4553  132.1764  154.7822 C   0  0  0  0  0  0  0  0  0  0  0  0
  149.5762  130.9239  154.2081 N   0  0  0  0  0  0  0  0  0  0  0  0
  150.4764  132.6541  155.5279 C   0  0  0  0  0  0  0  0  0  0  0  0
  150.4116  133.9548  156.1798 C   0  0  0  0  0  0  0  0  0  0  0  0
  151.3397  134.4155  156.8449 O   0  0  0  0  0  0  0  0  0  0  0  0
  149.2067  134.6719  155.9996 N   0  0  0  0  0  0  0  0  0  0  0  0
  149.0666  136.0076  156.6204 C   0  0  0  0  0  0  0  0  0  0  0  0
  149.1500  135.9633  158.1530 C   0  0  0  0  0  0  0  0  0  0  0  0
  150.0759  136.5151  158.7492 O   0  0  0  0  0  0  0  0  0  0  0  0
  148.1718  135.2891  158.7763 N   0  0  0  0  0  0  0  0  0  0  0  0
  148.0420  135.1287  160.2236 C   0  0  1  0  0  0  0  0  0  0  0  0
  147.8465  136.5129  160.8736 C   0  0  0  0  0  0  0  0  0  0  0  0
  147.6655  136.3966  162.3895 C   0  0  0  0  0  0  0  0  0  0  0  0
  146.4880  135.4745  162.7221 C   0  0  0  0  0  0  0  0  0  0  0  0
  146.6641  134.0727  162.1048 C   0  0  1  0  0  0  0  0  0  0  0  0
  145.4719  133.1832  162.5034 C   0  0  0  0  0  0  0  0  0  0  0  0
  146.8762  134.1612  160.5661 C   0  0  2  0  0  0  0  0  0  0  0  0
  147.1042  132.7715  159.9318 C   0  0  0  0  0  0  0  0  0  0  0  0
  148.1366  134.1762  155.2203 C   0  0  0  0  0  0  0  0  0  0  0  0
  147.1020  134.8374  155.0919 O   0  0  0  0  0  0  0  0  0  0  0  0
  145.1073  132.3902  149.8699 H   0  0  0  0  0  0  0  0  0  0  0  0
  146.6333  133.2721  149.7921 H   0  0  0  0  0  0  0  0  0  0  0  0
  145.2879  133.9021  150.7600 H   0  0  0  0  0  0  0  0  0  0  0  0
  148.1910  132.8665  151.9395 H   0  0  0  0  0  0  0  0  0  0  0  0
  146.9553  134.0502  152.3337 H   0  0  0  0  0  0  0  0  0  0  0  0
  146.2529  132.7359  154.3138 H   0  0  0  0  0  0  0  0  0  0  0  0
  147.1756  131.3586  153.8231 H   0  0  0  0  0  0  0  0  0  0  0  0
  148.8355  130.5227  153.6510 H   0  0  0  0  0  0  0  0  0  0  0  0
  150.4612  130.4375  154.1873 H   0  0  0  0  0  0  0  0  0  0  0  0
  151.3712  132.0607  155.6509 H   0  0  0  0  0  0  0  0  0  0  0  0
  149.8285  136.6868  156.2331 H   0  0  0  0  0  0  0  0  0  0  0  0
  148.1250  136.4855  156.3475 H   0  0  0  0  0  0  0  0  0  0  0  0
  147.4553  134.8631  158.2066 H   0  0  0  0  0  0  0  0  0  0  0  0
  148.9639  134.6919  160.6127 H   0  0  0  0  0  0  0  0  0  0  0  0
  148.7018  137.1555  160.6607 H   0  0  0  0  0  0  0  0  0  0  0  0
  146.9753  137.0067  160.4407 H   0  0  0  0  0  0  0  0  0  0  0  0
  148.5791  136.0094  162.8426 H   0  0  0  0  0  0  0  0  0  0  0  0
  147.4984  137.3839  162.8207 H   0  0  0  0  0  0  0  0  0  0  0  0
  146.3896  135.3960  163.8054 H   0  0  0  0  0  0  0  0  0  0  0  0
  145.5615  135.9236  162.3613 H   0  0  0  0  0  0  0  0  0  0  0  0
  147.5606  133.6316  162.5433 H   0  0  0  0  0  0  0  0  0  0  0  0
  144.5513  133.5141  162.0219 H   0  0  0  0  0  0  0  0  0  0  0  0
  145.3086  133.2092  163.5812 H   0  0  0  0  0  0  0  0  0  0  0  0
  145.6354  132.1392  162.2385 H   0  0  0  0  0  0  0  0  0  0  0  0
  145.9646  134.5733  160.1298 H   0  0  0  0  0  0  0  0  0  0  0  0
  147.9816  132.2836  160.3570 H   0  0  0  0  0  0  0  0  0  0  0  0
  147.2532  132.8352  158.8542 H   0  0  0  0  0  0  0  0  0  0  0  0
  146.2498  132.1124  160.0793 H   0  0  0  0  0  0  0  0  0  0  0  0
  1  2  1  0  0  0  0
  1 26  1  0  0  0  0
  1 27  1  0  0  0  0
  1 28  1  0  0  0  0
  2  3  1  0  0  0  0
  3  4  1  0  0  0  0
  3 29  1  0  0  0  0
  3 30  1  0  0  0  0
  4  5  1  0  0  0  0
  4 31  1  0  0  0  0
  4 32  1  0  0  0  0
  5 24  1  0  0  0  0
  5  6  1  0  0  0  0
  6  7  1  0  0  0  0
  6  8  2  0  0  0  0
  7 33  1  0  0  0  0
  7 34  1  0  0  0  0
  8  9  1  0  0  0  0
  8 35  1  0  0  0  0
  9 10  2  0  0  0  0
  9 11  1  0  0  0  0
 11 12  1  0  0  0  0
 11 24  1  0  0  0  0
 12 13  1  0  0  0  0
 12 36  1  0  0  0  0
 12 37  1  0  0  0  0
 13 14  2  0  0  0  0
 13 15  1  0  0  0  0
 15 16  1  0  0  0  0
 15 38  1  0  0  0  0
 16 22  1  0  0  0  0
 16 17  1  0  0  0  0
 16 39  1  0  0  0  0
 17 18  1  0  0  0  0
 17 40  1  0  0  0  0
 17 41  1  0  0  0  0
 18 19  1  0  0  0  0
 18 42  1  0  0  0  0
 18 43  1  0  0  0  0
 19 20  1  0  0  0  0
 19 44  1  0  0  0  0
 19 45  1  0  0  0  0
 20 21  1  0  0  0  0
 20 22  1  0  0  0  0
 20 46  1  0  0  0  0
 21 47  1  0  0  0  0
 21 48  1  0  0  0  0
 21 49  1  0  0  0  0
 22 23  1  0  0  0  0
 22 50  1  0  0  0  0
 23 51  1  0  0  0  0
 23 52  1  0  0  0  0
 23 53  1  0  0  0  0
 24 25  2  0  0  0  0
M  END
> <s_m_source_file>
AV-unprocessed.smi

> <i_m_source_file_index>
415

> <i_lp_mmshare_version>
43012

> <i_f3d_flags>
0

> <s_epik_input>
W0NIM11PW0NIMl1bQ0gyXW4xYyhbTkgyXSlbY0hdYyg9TyluKGMxPU8pW0NIMl1DKD1PKVtOSF1bQ0BASF0yW0NIMl1bQ0gyXVtDSDJdW0NAQEhdKFtDSDNdKVtDQEhdMltDSDNd

> <s_epik_cmdline>
J2VwaWtfcHl0aG9uJywgJy1waCcsICc3LjAnLCAnLXRuJywgJzgnLCAnLW1hJywgJzIwMCcsICctbWV0YWxfYmluZGluZycsICctaW1hZScsICc8aW5maWxlLm1hZT4nLCAnLW9tYWUnLCAnPG91dGZpbGUubWFlPic=

> <r_lp_tautomer_probability>
1

> <r_epik_Ionization_Penalty>
8.6647e-06

> <r_epik_Ionization_Penalty_Charging>
1.81162e-08

> <r_epik_Ionization_Penalty_Neutral>
8.64658e-06

> <r_epik_State_Penalty>
-0

> <r_epik_Charging_Adjusted_Penalty>
1.81162e-08

> <i_epik_Tot_Q>
0

> <i_epik_Tot_abs_Q>
0

> <r_epik_Metal_State_Penalty>
-0

> <b_epik_Metal_Only>
0

> <s_lp_Force_Field>
OPLS_2005

> <r_lp_Energy>
22.0049

> <b_lp_Chiralities_Consistent>
1

> <s_lp_Variant>
AV-unprocessed.smi:415-6

> <Gold.Version>
5.8.1

> <Gold.Id.Protein>
6NUR|6NUR_protein|mol2

> <Gold.PLP.Fitness>
41.1054

> <Gold.PLP.PLP>
-38.9929

> <Gold.PLP.part.hbond>
-1.8781

> <Gold.PLP.part.metal>
0.0000

> <Gold.PLP.part.buried>
-5.0096

> <Gold.PLP.part.nonpolar>
-33.3147

> <Gold.PLP.part.repulsive>
0.2981

> <Gold.PLP.ligand.clash>
0.0000

> <Gold.PLP.ligand.torsion>
0.5732

> <Gold.PLP.Chemscore.Hbond>
1.0000

> <Gold.PLP.Chemscore.CHOScore>
0.0000

> <Gold.PLP.Chemscore.Metal>
0.0000

> <Gold.Chemscore.Hbonds>
donor molecule, donor type, donor heavy atom, donor atom, acceptor molecule, acceptor atom, score
      P1  H  6896  6907       L1    14  0.96

> <Gold.PLP.Chemscore.Internal.Correction>
0.2589

> <Gold.Rescore>
     Score         DG    S(hbond)    S(metal)    S(lipo)     H(rot)  DE(clash)    DE(int)     intcor
     11.48     -12.29       0.93        0.00      81.11       2.26       0.07       0.75       ----

> <Gold.Chemscore.Fitness>
11.4755

> <Gold.Chemscore.DG>
-12.2906

> <Gold.Chemscore.ZeroCoef>
-5.4800

> <Gold.Chemscore.Hbond>
0.9336

> <Gold.Chemscore.Metal>
0.0000

> <Gold.Chemscore.Lipo>
81.1085

> <Gold.Chemscore.Internal_Hbond>
0.0000

> <Gold.Chemscore.DEClash>
0.0679

> <Gold.Chemscore.DEInternal>
0.7471

> <Gold.Chemscore.Rot>
2.2645

> <Gold.Chemscore.Internal.Correction>
   9.000000E+99

> <Gold.Chemscore.Hbonds>
donor molecule, donor type, donor heavy atom, donor atom, acceptor molecule, acceptor atom, score
      P1  H  6896  6907       L1    14  0.45

> <Gold.Chemscore.Hbond.Weighted>
-3.1181

> <Gold.Chemscore.Metal.Weighted>
-0.0000

> <Gold.Chemscore.Lipo.Weighted>
-9.4897

> <Gold.Chemscore.Internal_Hbond.Weighted>
0.0000

> <Gold.Chemscore.DEClash.Weighted>
0.0679

> <Gold.Chemscore.DEInternal.Weighted>
0.7471

> <Gold.Chemscore.Rot.Weighted>
5.7972

> <Gold.Chemscore.Internal.Correction.Weighted>
   9.000000E+99

> <Gold.Protein.RotatedTorsions>
[ 6907 6896 6895 6894 ] final  -35.45 input  -60.11 | X-H torsion
[ 7974 7965 7964 7962 ] final  -17.95 input  175.53 | X-H torsion
[ 8008 7997 7996 7995 ] final -122.30 input   59.86 | X-H torsion
[ 10167 10162 10161 10158 ] final  -74.57 input  -65.29 | X-H torsion
[ 10718 10713 10712 10709 ] final   45.47 input   66.30 | X-H torsion
[ 10763 10752 10751 10750 ] final  -57.72 input  -60.55 | X-H torsion
[ 11005 11000 10999 10996 ] final -122.70 input  -57.11 | X-H torsion

> <Gold.Protein.ActiveResidues>
 VAL166  LYS551  ARG553  GLY616  TRP617  ASP618  TYR619  PRO620  LYS621  CYS622 
 ASP623  PHE694  ASN695  SER759  ASP760  ASP761  ALA762  ILE779  LEU786  VAL792 
 PHE793  MET794  SER795  GLU796  ALA797  LYS798  CYS799  TRP800  GLU811  SER814 

> <Gold.Protein.RotatedAtoms>
  151.0397  134.9598  159.8154 H   0  0  0  0  0  0  0  0  0  0  0  0  # atno 6907 bound_to 6896
  152.5362  134.2674  159.8968 H   0  0  0  0  0  0  0  0  0  0  0  0  # atno 6908 bound_to 6896
  151.2686  133.4224  159.2654 H   0  0  0  0  0  0  0  0  0  0  0  0  # atno 6909 bound_to 6896
  146.1916  140.3852  142.8456 H   0  0  0  0  0  0  0  0  0  0  0  0  # atno 7974 bound_to 7965
  155.1620  140.0406  157.2844 H   0  0  0  0  0  0  0  0  0  0  0  0  # atno 8008 bound_to 7997
  154.6330  140.2528  155.7384 H   0  0  0  0  0  0  0  0  0  0  0  0  # atno 8009 bound_to 7997
  156.2494  140.2871  156.0690 H   0  0  0  0  0  0  0  0  0  0  0  0  # atno 8010 bound_to 7997
  140.5016  143.2360  151.7743 H   0  0  0  0  0  0  0  0  0  0  0  0  # atno 10167 bound_to 10162
  157.4379  130.8064  149.7666 H   0  0  0  0  0  0  0  0  0  0  0  0  # atno 10718 bound_to 10713
  154.2269  135.6367  153.5162 H   0  0  0  0  0  0  0  0  0  0  0  0  # atno 10763 bound_to 10752
  152.9957  135.5510  154.6054 H   0  0  0  0  0  0  0  0  0  0  0  0  # atno 10764 bound_to 10752
  154.5528  135.2903  155.0967 H   0  0  0  0  0  0  0  0  0  0  0  0  # atno 10765 bound_to 10752
  140.9976  134.0450  157.3578 H   0  0  0  0  0  0  0  0  0  0  0  0  # atno 11005 bound_to 11000
  144.8498  140.6983  143.6176 LP  0  0  0  0  0  0  0  0  0  0  0  0  # atno 17320 bound_to 7965
  145.3775  139.1644  143.4299 LP  0  0  0  0  0  0  0  0  0  0  0  0  # atno 17321 bound_to 7965
  139.4873  144.4514  151.9649 LP  0  0  0  0  0  0  0  0  0  0  0  0  # atno 17342 bound_to 10162
  140.3603  144.2980  150.5934 LP  0  0  0  0  0  0  0  0  0  0  0  0  # atno 17343 bound_to 10162
  155.9937  130.3922  150.2887 LP  0  0  0  0  0  0  0  0  0  0  0  0  # atno 17370 bound_to 10713
  157.1050  131.0206  151.3071 LP  0  0  0  0  0  0  0  0  0  0  0  0  # atno 17371 bound_to 10713
  139.9022  135.0168  156.7322 LP  0  0  0  0  0  0  0  0  0  0  0  0  # atno 17394 bound_to 11000
  140.6941  133.9364  155.7984 LP  0  0  0  0  0  0  0  0  0  0  0  0  # atno 17395 bound_to 11000

$$$$
