AV-unprocessed.smi:3215|AV-procd|sdf|12285|dock2
  -GOLD-   2272018123D 1   1.00000     0.00000
 Structure written by MMmdl.
 38 39  0  0  0  0  0  0  0  0  2 V2000
  155.8646  145.5385  169.4542 C   0  0  0  0  0  0  0  0  0  0  0  0
  155.7884  145.7456  167.9688 C   0  0  0  0  0  0  0  0  0  0  0  0
  155.7459  146.9784  167.2577 C   0  0  0  0  0  0  0  0  0  0  0  0
  155.6830  146.8129  165.9466 N   0  0  0  0  0  0  0  0  0  0  0  0
  155.6888  145.4742  165.7738 N   0  0  0  0  0  0  0  0  0  0  0  0
  155.6251  144.9159  164.4342 C   0  0  0  0  0  0  0  0  0  0  0  0
  154.2787  144.2322  164.1404 C   0  0  0  0  0  0  0  0  0  0  0  0
  154.4112  143.2151  163.0783 N   0  3  0  0  0  0  0  0  0  0  0  0
  153.1277  142.6614  162.6016 C   0  0  0  0  0  0  0  0  0  0  0  0
  153.2405  142.0663  161.1907 C   0  0  0  0  0  0  0  0  0  0  0  0
  154.0731  141.1863  160.9655 O   0  0  0  0  0  0  0  0  0  0  0  0
  152.4144  142.5339  160.2323 N   0  0  0  0  0  0  0  0  0  0  0  0
  152.4350  142.0623  158.8489 C   0  0  0  0  0  0  0  0  0  0  0  0
  151.5382  143.0248  158.0706 C   0  0  0  0  0  0  0  0  0  0  0  0
  150.5761  143.5648  159.1193 C   0  0  0  0  0  0  0  0  0  0  0  0
  151.3931  143.5655  160.4120 C   0  0  0  0  0  0  0  0  0  0  0  0
  155.7399  144.8056  166.9787 C   0  0  0  0  0  0  0  0  0  0  0  0
  155.8986  146.4846  169.9948 H   0  0  0  0  0  0  0  0  0  0  0  0
  156.7544  144.9755  169.7366 H   0  0  0  0  0  0  0  0  0  0  0  0
  155.0024  144.9861  169.8276 H   0  0  0  0  0  0  0  0  0  0  0  0
  155.7592  147.9831  167.6538 H   0  0  0  0  0  0  0  0  0  0  0  0
  155.8085  145.7136  163.7130 H   0  0  0  0  0  0  0  0  0  0  0  0
  156.4408  144.2004  164.3234 H   0  0  0  0  0  0  0  0  0  0  0  0
  153.9062  143.7542  165.0470 H   0  0  0  0  0  0  0  0  0  0  0  0
  153.5341  144.9726  163.8439 H   0  0  0  0  0  0  0  0  0  0  0  0
  154.8841  143.6364  162.2910 H   0  0  0  0  0  0  0  0  0  0  0  0
  152.7958  141.8886  163.2959 H   0  0  0  0  0  0  0  0  0  0  0  0
  152.3769  143.4528  162.5988 H   0  0  0  0  0  0  0  0  0  0  0  0
  153.4449  142.0404  158.4361 H   0  0  0  0  0  0  0  0  0  0  0  0
  152.0317  141.0493  158.8132 H   0  0  0  0  0  0  0  0  0  0  0  0
  152.1395  143.8432  157.6724 H   0  0  0  0  0  0  0  0  0  0  0  0
  151.0292  142.5464  157.2334 H   0  0  0  0  0  0  0  0  0  0  0  0
  150.1824  144.5495  158.8659 H   0  0  0  0  0  0  0  0  0  0  0  0
  149.7307  142.8828  159.2214 H   0  0  0  0  0  0  0  0  0  0  0  0
  150.7545  143.3761  161.2757 H   0  0  0  0  0  0  0  0  0  0  0  0
  151.8820  144.5306  160.5525 H   0  0  0  0  0  0  0  0  0  0  0  0
  155.7429  143.7266  167.0332 H   0  0  0  0  0  0  0  0  0  0  0  0
  154.9794  142.4541  163.4223 H   0  0  0  0  0  0  0  0  0  0  0  0
  1  2  1  0  0  0  0
  1 18  1  0  0  0  0
  1 19  1  0  0  0  0
  1 20  1  0  0  0  0
  2 17  2  0  0  0  0
  2  3  1  0  0  0  0
  3  4  2  0  0  0  0
  3 21  1  0  0  0  0
  4  5  1  0  0  0  0
  5  6  1  0  0  0  0
  5 17  1  0  0  0  0
  6  7  1  0  0  0  0
  6 22  1  0  0  0  0
  6 23  1  0  0  0  0
  7  8  1  0  0  0  0
  7 24  1  0  0  0  0
  7 25  1  0  0  0  0
  8  9  1  0  0  0  0
  8 26  1  0  0  0  0
  8 38  1  0  0  0  0
  9 10  1  0  0  0  0
  9 27  1  0  0  0  0
  9 28  1  0  0  0  0
 10 11  2  0  0  0  0
 10 12  1  0  0  0  0
 12 16  1  0  0  0  0
 12 13  1  0  0  0  0
 13 14  1  0  0  0  0
 13 29  1  0  0  0  0
 13 30  1  0  0  0  0
 14 15  1  0  0  0  0
 14 31  1  0  0  0  0
 14 32  1  0  0  0  0
 15 16  1  0  0  0  0
 15 33  1  0  0  0  0
 15 34  1  0  0  0  0
 16 35  1  0  0  0  0
 16 36  1  0  0  0  0
 17 37  1  0  0  0  0
M  CHG  1   8   1
M  END
> <s_m_source_file>
AV-unprocessed.smi

> <i_m_source_file_index>
3215

> <i_lp_mmshare_version>
43012

> <i_f3d_flags>
0

> <s_epik_input>
W0NIM11jMVtjSF1ubihbY0hdMSlbQ0gyXVtDSDJdW05IXVtDSDJdQyg9TylOMltDSDJdW0NIMl1bQ0gyXVtDSDJdMg==

> <s_epik_cmdline>
J2VwaWtfcHl0aG9uJywgJy1waCcsICc3LjAnLCAnLXRuJywgJzgnLCAnLW1hJywgJzIwMCcsICctbWV0YWxfYmluZGluZycsICctaW1hZScsICc8aW5maWxlLm1hZT4nLCAnLW9tYWUnLCAnPG91dGZpbGUubWFlPic=

> <r_lp_tautomer_probability>
1

> <r_epik_Ionization_Penalty>
0.203173

> <r_epik_Ionization_Penalty_Charging>
0.203168

> <r_epik_Ionization_Penalty_Neutral>
4.79177e-06

> <r_epik_State_Penalty>
0.193773

> <r_epik_Charging_Adjusted_Penalty>
0.396942

> <i_epik_Tot_Q>
1

> <i_epik_Tot_abs_Q>
1

> <r_epik_Metal_State_Penalty>
0.194058

> <b_epik_Metal_Only>
0

> <s_lp_Force_Field>
OPLS_2005

> <r_lp_Energy>
25.9096

> <b_lp_Chiralities_Consistent>
1

> <s_lp_Variant>
AV-unprocessed.smi:3215-1

> <Gold.Version>
5.8.1

> <Gold.Id.Protein>
6NUR|6NUR_protein|mol2

> <Gold.PLP.Fitness>
48.2324

> <Gold.PLP.PLP>
-48.9059

> <Gold.PLP.part.hbond>
-2.0000

> <Gold.PLP.part.metal>
0.0000

> <Gold.PLP.part.buried>
-3.8077

> <Gold.PLP.part.nonpolar>
-42.3748

> <Gold.PLP.part.repulsive>
0.0737

> <Gold.PLP.ligand.clash>
0.0000

> <Gold.PLP.ligand.torsion>
0.3742

> <Gold.PLP.Chemscore.Hbond>
0.0000

> <Gold.PLP.Chemscore.CHOScore>
0.0000

> <Gold.PLP.Chemscore.Metal>
0.0000

> <Gold.PLP.Chemscore.Internal.Correction>
0.0749

> <Gold.Rescore>
     Score         DG    S(hbond)    S(metal)    S(lipo)     H(rot)  DE(clash)    DE(int)     intcor
     12.15     -13.11       0.00        0.00     104.90       1.81       0.45       0.51       ----

> <Gold.Chemscore.Fitness>
12.1490

> <Gold.Chemscore.DG>
-13.1101

> <Gold.Chemscore.ZeroCoef>
-5.4800

> <Gold.Chemscore.Hbond>
0.0000

> <Gold.Chemscore.Metal>
0.0000

> <Gold.Chemscore.Lipo>
104.8999

> <Gold.Chemscore.Internal_Hbond>
0.0000

> <Gold.Chemscore.DEClash>
0.4537

> <Gold.Chemscore.DEInternal>
0.5075

> <Gold.Chemscore.Rot>
1.8137

> <Gold.Chemscore.Internal.Correction>
   9.000000E+99

> <Gold.Chemscore.Hbond.Weighted>
-0.0000

> <Gold.Chemscore.Metal.Weighted>
-0.0000

> <Gold.Chemscore.Lipo.Weighted>
-12.2733

> <Gold.Chemscore.Internal_Hbond.Weighted>
0.0000

> <Gold.Chemscore.DEClash.Weighted>
0.4537

> <Gold.Chemscore.DEInternal.Weighted>
0.5075

> <Gold.Chemscore.Rot.Weighted>
4.6431

> <Gold.Chemscore.Internal.Correction.Weighted>
   9.000000E+99

> <Gold.Protein.RotatedTorsions>
[ 6907 6896 6895 6894 ] final  148.08 input  -60.11 | X-H torsion
[ 7974 7965 7964 7962 ] final  -27.74 input  175.53 | X-H torsion
[ 8008 7997 7996 7995 ] final  151.15 input   59.86 | X-H torsion
[ 10167 10162 10161 10158 ] final    7.85 input  -65.29 | X-H torsion
[ 10718 10713 10712 10709 ] final  167.63 input   66.30 | X-H torsion
[ 10763 10752 10751 10750 ] final  123.06 input  -60.55 | X-H torsion
[ 11005 11000 10999 10996 ] final -171.22 input  -57.11 | X-H torsion

> <Gold.Protein.ActiveResidues>
 VAL166  LYS551  ARG553  GLY616  TRP617  ASP618  TYR619  PRO620  LYS621  CYS622 
 ASP623  PHE694  ASN695  SER759  ASP760  ASP761  ALA762  ILE779  LEU786  VAL792 
 PHE793  MET794  SER795  GLU796  ALA797  LYS798  CYS799  TRP800  GLU811  SER814 

> <Gold.Protein.RotatedAtoms>
  152.1463  133.4494  159.4791 H   0  0  0  0  0  0  0  0  0  0  0  0  # atno 6907 bound_to 6896
  150.6891  134.2244  159.4418 H   0  0  0  0  0  0  0  0  0  0  0  0  # atno 6908 bound_to 6896
  152.0138  134.9861  160.0619 H   0  0  0  0  0  0  0  0  0  0  0  0  # atno 6909 bound_to 6896
  146.1337  140.5191  142.8682 H   0  0  0  0  0  0  0  0  0  0  0  0  # atno 7974 bound_to 7965
  156.2686  140.2055  156.6130 H   0  0  0  0  0  0  0  0  0  0  0  0  # atno 8008 bound_to 7997
  154.6816  140.0539  157.0296 H   0  0  0  0  0  0  0  0  0  0  0  0  # atno 8009 bound_to 7997
  155.0992  140.3204  155.4555 H   0  0  0  0  0  0  0  0  0  0  0  0  # atno 8010 bound_to 7997
  140.6348  143.7911  150.7344 H   0  0  0  0  0  0  0  0  0  0  0  0  # atno 10167 bound_to 10162
  157.0487  131.0307  151.2688 H   0  0  0  0  0  0  0  0  0  0  0  0  # atno 10718 bound_to 10713
  153.6395  135.3382  155.3067 H   0  0  0  0  0  0  0  0  0  0  0  0  # atno 10763 bound_to 10752
  154.8562  135.4315  154.2019 H   0  0  0  0  0  0  0  0  0  0  0  0  # atno 10764 bound_to 10752
  153.2935  135.7019  153.7344 H   0  0  0  0  0  0  0  0  0  0  0  0  # atno 10765 bound_to 10752
  140.5107  134.5804  157.5018 H   0  0  0  0  0  0  0  0  0  0  0  0  # atno 11005 bound_to 11000
  144.7717  140.5652  143.6665 LP  0  0  0  0  0  0  0  0  0  0  0  0  # atno 17320 bound_to 7965
  145.5204  139.1477  143.3555 LP  0  0  0  0  0  0  0  0  0  0  0  0  # atno 17321 bound_to 7965
  140.1530  143.4341  152.2118 LP  0  0  0  0  0  0  0  0  0  0  0  0  # atno 17342 bound_to 10162
  139.5559  144.7372  151.4295 LP  0  0  0  0  0  0  0  0  0  0  0  0  # atno 17343 bound_to 10162
  157.5047  130.7901  149.7641 LP  0  0  0  0  0  0  0  0  0  0  0  0  # atno 17370 bound_to 10713
  156.0014  130.3878  150.2590 LP  0  0  0  0  0  0  0  0  0  0  0  0  # atno 17371 bound_to 10713
  139.9660  134.7371  156.0137 LP  0  0  0  0  0  0  0  0  0  0  0  0  # atno 17394 bound_to 11000
  141.1387  133.6569  156.3667 LP  0  0  0  0  0  0  0  0  0  0  0  0  # atno 17395 bound_to 11000

$$$$
