AV-unprocessed.smi:2247|AV-procd|sdf|9086|dock7
  -GOLD-   2272012293D 1   1.00000     0.00000
 Structure written by MMmdl.
 34 35  0  0  0  0  0  0  0  0  1 V2000
  151.0220  139.7689  155.3894 C   0  0  0  0  0  0  0  0  0  0  0  0
  149.9315  140.8509  155.2964 C   0  0  0  0  0  0  0  0  0  0  0  0
  149.5336  141.3872  156.6806 C   0  0  0  0  0  0  0  0  0  0  0  0
  148.7422  140.3916  154.5666 N   0  0  0  0  0  0  0  0  0  0  0  0
  148.0239  141.2421  153.6311 C   0  0  0  0  0  0  0  0  0  0  0  0
  147.1186  140.2811  152.8546 C   0  0  0  0  0  0  0  0  0  0  0  0
  146.9837  139.0262  153.7322 C   0  0  1  0  0  0  0  0  0  0  0  0
  147.0622  137.8222  152.9070 N   0  0  0  0  0  0  0  0  0  0  0  0
  146.0145  137.0695  152.5393 C   0  0  0  0  0  0  0  0  0  0  0  0
  144.8485  137.3392  152.8293 O   0  0  0  0  0  0  0  0  0  0  0  0
  146.4079  135.9991  151.8290 N   0  0  0  0  0  0  0  0  0  0  0  0
  145.5919  134.9685  151.2982 C   0  0  0  0  0  0  0  0  0  0  0  0
  144.2590  134.9197  151.3184 N   0  0  0  0  0  0  0  0  0  0  0  0
  143.9432  133.7259  150.6862 C   0  0  0  0  0  0  0  0  0  0  0  0
  145.1138  133.1159  150.3146 C   0  0  0  0  0  0  0  0  0  0  0  0
  146.1720  133.8958  150.6976 O   0  0  0  0  0  0  0  0  0  0  0  0
  148.2153  139.1609  154.6288 C   0  0  0  0  0  0  0  0  0  0  0  0
  148.6394  138.2355  155.3212 O   0  0  0  0  0  0  0  0  0  0  0  0
  151.9271  140.1712  155.8454 H   0  0  0  0  0  0  0  0  0  0  0  0
  151.2930  139.3959  154.4012 H   0  0  0  0  0  0  0  0  0  0  0  0
  150.7031  138.9204  155.9951 H   0  0  0  0  0  0  0  0  0  0  0  0
  150.3665  141.6799  154.7349 H   0  0  0  0  0  0  0  0  0  0  0  0
  150.4002  141.7785  157.2138 H   0  0  0  0  0  0  0  0  0  0  0  0
  149.0907  140.6034  157.2961 H   0  0  0  0  0  0  0  0  0  0  0  0
  148.8075  142.1967  156.5986 H   0  0  0  0  0  0  0  0  0  0  0  0
  147.4288  141.9696  154.1847 H   0  0  0  0  0  0  0  0  0  0  0  0
  148.7011  141.7811  152.9675 H   0  0  0  0  0  0  0  0  0  0  0  0
  146.1499  140.7277  152.6273 H   0  0  0  0  0  0  0  0  0  0  0  0
  147.5928  140.0390  151.9016 H   0  0  0  0  0  0  0  0  0  0  0  0
  146.0774  139.0639  154.3394 H   0  0  0  0  0  0  0  0  0  0  0  0
  147.9846  137.5248  152.6256 H   0  0  0  0  0  0  0  0  0  0  0  0
  147.3983  135.9013  151.6625 H   0  0  0  0  0  0  0  0  0  0  0  0
  142.9203  133.4069  150.5509 H   0  0  0  0  0  0  0  0  0  0  0  0
  145.3497  132.1919  149.8077 H   0  0  0  0  0  0  0  0  0  0  0  0
  1  2  1  0  0  0  0
  1 19  1  0  0  0  0
  1 20  1  0  0  0  0
  1 21  1  0  0  0  0
  2  3  1  0  0  0  0
  2  4  1  0  0  0  0
  2 22  1  0  0  0  0
  3 23  1  0  0  0  0
  3 24  1  0  0  0  0
  3 25  1  0  0  0  0
  4 17  1  0  0  0  0
  4  5  1  0  0  0  0
  5  6  1  0  0  0  0
  5 26  1  0  0  0  0
  5 27  1  0  0  0  0
  6  7  1  0  0  0  0
  6 28  1  0  0  0  0
  6 29  1  0  0  0  0
  7  8  1  0  0  0  0
  7 17  1  0  0  0  0
  7 30  1  0  0  0  0
  8  9  1  0  0  0  0
  8 31  1  0  0  0  0
  9 10  2  0  0  0  0
  9 11  1  0  0  0  0
 11 12  1  0  0  0  0
 11 32  1  0  0  0  0
 12 16  1  0  0  0  0
 12 13  2  0  0  0  0
 13 14  1  0  0  0  0
 14 15  2  0  0  0  0
 14 33  1  0  0  0  0
 15 16  1  0  0  0  0
 15 34  1  0  0  0  0
 17 18  2  0  0  0  0
M  END
> <s_m_source_file>
AV-unprocessed.smi

> <i_m_source_file_index>
2247

> <i_lp_mmshare_version>
43012

> <i_f3d_flags>
0

> <s_epik_input>
W0NIM11bQ0hdKFtDSDNdKU4xW0NIMl1bQ0gyXVtDQEhdKEMxPU8pW05IXUMoPU8pW05IXWMybltjSF1bY0hdbzI=

> <s_epik_cmdline>
J2VwaWtfcHl0aG9uJywgJy1waCcsICc3LjAnLCAnLXRuJywgJzgnLCAnLW1hJywgJzIwMCcsICctbWV0YWxfYmluZGluZycsICctaW1hZScsICc8aW5maWxlLm1hZT4nLCAnLW9tYWUnLCAnPG91dGZpbGUubWFlPic=

> <r_lp_tautomer_probability>
0.785861

> <r_epik_Ionization_Penalty>
5.15801e-05

> <r_epik_Ionization_Penalty_Charging>
0

> <r_epik_Ionization_Penalty_Neutral>
5.15801e-05

> <r_epik_State_Penalty>
0.0205761

> <r_epik_Charging_Adjusted_Penalty>
0.0205761

> <i_epik_Tot_Q>
0

> <i_epik_Tot_abs_Q>
0

> <r_epik_Metal_State_Penalty>
0.0168939

> <b_epik_Metal_Only>
0

> <s_lp_Force_Field>
OPLS_2005

> <r_lp_Energy>
20.5401

> <b_lp_Chiralities_Consistent>
1

> <s_lp_Variant>
AV-unprocessed.smi:2247-1

> <Gold.Version>
5.8.1

> <Gold.Id.Protein>
6NUR|6NUR_protein|mol2

> <Gold.PLP.Fitness>
33.2054

> <Gold.PLP.PLP>
-26.2554

> <Gold.PLP.part.hbond>
-1.9578

> <Gold.PLP.part.metal>
0.0000

> <Gold.PLP.part.buried>
-1.0287

> <Gold.PLP.part.nonpolar>
-23.5731

> <Gold.PLP.part.repulsive>
0.7380

> <Gold.PLP.ligand.clash>
0.0000

> <Gold.PLP.ligand.torsion>
0.9581

> <Gold.PLP.Chemscore.Hbond>
1.9280

> <Gold.PLP.Chemscore.CHOScore>
1.0000

> <Gold.PLP.Chemscore.Metal>
0.0000

> <Gold.Chemscore.Hbonds>
donor molecule, donor type, donor heavy atom, donor atom, acceptor molecule, acceptor atom, score
      L1  H     8    31       P1  7948  0.93
      L1  H    11    32       P1  7948  1.00
      L1  C    14    33       P1 10186  1.00

> <Gold.PLP.Chemscore.Internal.Correction>
0.0821

> <Gold.Rescore>
     Score         DG    S(hbond)    S(metal)    S(lipo)     H(rot)  DE(clash)    DE(int)     intcor
     11.43     -14.99       1.95        0.00      54.89       1.33       0.04       3.52       ----

> <Gold.Chemscore.Fitness>
11.4283

> <Gold.Chemscore.DG>
-14.9904

> <Gold.Chemscore.ZeroCoef>
-5.4800

> <Gold.Chemscore.Hbond>
1.9470

> <Gold.Chemscore.Metal>
0.0000

> <Gold.Chemscore.Lipo>
54.8882

> <Gold.Chemscore.Internal_Hbond>
0.0000

> <Gold.Chemscore.DEClash>
0.0412

> <Gold.Chemscore.DEInternal>
3.5209

> <Gold.Chemscore.Rot>
1.3338

> <Gold.Chemscore.Internal.Correction>
   9.000000E+99

> <Gold.Chemscore.Hbonds>
donor molecule, donor type, donor heavy atom, donor atom, acceptor molecule, acceptor atom, score
      L1  H     8    31       P1  7948  0.90
      L1  H    11    32       P1  7948  0.96

> <Gold.Chemscore.Hbond.Weighted>
-6.5030

> <Gold.Chemscore.Metal.Weighted>
-0.0000

> <Gold.Chemscore.Lipo.Weighted>
-6.4219

> <Gold.Chemscore.Internal_Hbond.Weighted>
0.0000

> <Gold.Chemscore.DEClash.Weighted>
0.0412

> <Gold.Chemscore.DEInternal.Weighted>
3.5209

> <Gold.Chemscore.Rot.Weighted>
3.4145

> <Gold.Chemscore.Internal.Correction.Weighted>
   9.000000E+99

> <Gold.Protein.RotatedTorsions>
[ 6907 6896 6895 6894 ] final   60.39 input  -60.11 | X-H torsion
[ 7974 7965 7964 7962 ] final  144.33 input  175.53 | X-H torsion
[ 8008 7997 7996 7995 ] final   18.21 input   59.86 | X-H torsion
[ 10167 10162 10161 10158 ] final  -60.06 input  -65.29 | X-H torsion
[ 10718 10713 10712 10709 ] final  -13.18 input   66.30 | X-H torsion
[ 10763 10752 10751 10750 ] final   62.52 input  -60.55 | X-H torsion
[ 11005 11000 10999 10996 ] final  164.80 input  -57.11 | X-H torsion

> <Gold.Protein.ActiveResidues>
 VAL166  LYS551  ARG553  GLY616  TRP617  ASP618  TYR619  PRO620  LYS621  CYS622 
 ASP623  PHE694  ASN695  SER759  ASP760  ASP761  ALA762  ILE779  LEU786  VAL792 
 PHE793  MET794  SER795  GLU796  ALA797  LYS798  CYS799  TRP800  GLU811  SER814 

> <Gold.Protein.RotatedAtoms>
  152.3999  134.6304  160.0073 H   0  0  0  0  0  0  0  0  0  0  0  0  # atno 6907 bound_to 6896
  151.6512  133.3315  159.3160 H   0  0  0  0  0  0  0  0  0  0  0  0  # atno 6908 bound_to 6896
  150.7901  134.6960  159.6568 H   0  0  0  0  0  0  0  0  0  0  0  0  # atno 6909 bound_to 6896
  144.8845  139.5650  143.5827 H   0  0  0  0  0  0  0  0  0  0  0  0  # atno 7974 bound_to 7965
  154.9027  140.3003  155.5309 H   0  0  0  0  0  0  0  0  0  0  0  0  # atno 8008 bound_to 7997
  156.3018  140.2404  156.3992 H   0  0  0  0  0  0  0  0  0  0  0  0  # atno 8009 bound_to 7997
  154.8505  140.0409  157.1590 H   0  0  0  0  0  0  0  0  0  0  0  0  # atno 8010 bound_to 7997
  140.6095  143.2383  151.5742 H   0  0  0  0  0  0  0  0  0  0  0  0  # atno 10167 bound_to 10162
  156.6339  130.4909  149.6119 H   0  0  0  0  0  0  0  0  0  0  0  0  # atno 10718 bound_to 10713
  152.9986  135.5462  154.6207 H   0  0  0  0  0  0  0  0  0  0  0  0  # atno 10763 bound_to 10752
  154.5507  135.2826  155.1013 H   0  0  0  0  0  0  0  0  0  0  0  0  # atno 10764 bound_to 10752
  154.2254  135.6443  153.5211 H   0  0  0  0  0  0  0  0  0  0  0  0  # atno 10765 bound_to 10752
  140.2496  134.7987  157.3489 H   0  0  0  0  0  0  0  0  0  0  0  0  # atno 11005 bound_to 11000
  146.3015  139.7443  142.9087 LP  0  0  0  0  0  0  0  0  0  0  0  0  # atno 17320 bound_to 7965
  145.3894  141.0370  143.3132 LP  0  0  0  0  0  0  0  0  0  0  0  0  # atno 17321 bound_to 7965
  139.5350  144.2806  152.1232 LP  0  0  0  0  0  0  0  0  0  0  0  0  # atno 17342 bound_to 10162
  140.2002  144.4665  150.6435 LP  0  0  0  0  0  0  0  0  0  0  0  0  # atno 17343 bound_to 10162
  156.2213  130.6738  151.1370 LP  0  0  0  0  0  0  0  0  0  0  0  0  # atno 17370 bound_to 10713
  157.7191  131.0692  150.6207 LP  0  0  0  0  0  0  0  0  0  0  0  0  # atno 17371 bound_to 10713
  140.1571  134.4776  155.7920 LP  0  0  0  0  0  0  0  0  0  0  0  0  # atno 17394 bound_to 11000
  141.2202  133.6886  156.7479 LP  0  0  0  0  0  0  0  0  0  0  0  0  # atno 17395 bound_to 11000

$$$$
