AV-unprocessed.smi:2567|AV-procd|sdf|10076|dock7
  -GOLD-   2272014103D 1   1.00000     0.00000
 Structure written by MMmdl.
 34 35  0  0  0  0  0  0  0  0  2 V2000
  149.6229  132.5065  154.3035 C   0  0  0  0  0  0  0  0  0  0  0  0
  148.6945  133.5898  154.8866 C   0  0  0  0  0  0  0  0  0  0  0  0
  148.0283  133.0663  156.1733 C   0  0  0  0  0  0  0  0  0  0  0  0
  149.5624  134.8139  155.2554 C   0  0  0  0  0  0  0  0  0  0  0  0
  147.6306  133.9443  153.8748 C   0  0  0  0  0  0  0  0  0  0  0  0
  146.6087  134.7678  154.1339 N   0  0  0  0  0  0  0  0  0  0  0  0
  145.8191  134.8707  153.0445 N   0  0  0  0  0  0  0  0  0  0  0  0
  146.4482  134.0866  152.1720 C   0  0  0  0  0  0  0  0  0  0  0  0
  145.8886  133.8584  150.8025 C   0  0  2  0  0  0  0  0  0  0  0  0
  144.5184  134.5367  150.6143 C   0  0  0  0  0  0  0  0  0  0  0  0
  143.9676  134.1951  149.2883 N   0  3  0  0  0  0  0  0  0  0  0  0
  143.9015  132.7334  149.0913 C   0  0  0  0  0  0  0  0  0  0  0  0
  145.2832  132.1015  149.3373 C   0  0  0  0  0  0  0  0  0  0  0  0
  145.7476  132.4487  150.6378 O   0  0  0  0  0  0  0  0  0  0  0  0
  147.5729  133.4614  152.6354 N   0  0  0  0  0  0  0  0  0  0  0  0
  150.4090  132.2343  155.0088 H   0  0  0  0  0  0  0  0  0  0  0  0
  150.1069  132.8498  153.3884 H   0  0  0  0  0  0  0  0  0  0  0  0
  149.0741  131.5954  154.0624 H   0  0  0  0  0  0  0  0  0  0  0  0
  147.4333  132.1727  155.9811 H   0  0  0  0  0  0  0  0  0  0  0  0
  147.3648  133.8148  156.6082 H   0  0  0  0  0  0  0  0  0  0  0  0
  148.7707  132.8065  156.9288 H   0  0  0  0  0  0  0  0  0  0  0  0
  150.3332  134.5487  155.9800 H   0  0  0  0  0  0  0  0  0  0  0  0
  148.9649  135.6114  155.6988 H   0  0  0  0  0  0  0  0  0  0  0  0
  150.0692  135.2240  154.3808 H   0  0  0  0  0  0  0  0  0  0  0  0
  146.6003  134.2363  150.0657 H   0  0  0  0  0  0  0  0  0  0  0  0
  143.8203  134.2071  151.3853 H   0  0  0  0  0  0  0  0  0  0  0  0
  144.6076  135.6199  150.7013 H   0  0  0  0  0  0  0  0  0  0  0  0
  143.0424  134.5900  149.1963 H   0  0  0  0  0  0  0  0  0  0  0  0
  143.1672  132.3119  149.7790 H   0  0  0  0  0  0  0  0  0  0  0  0
  143.5553  132.5199  148.0800 H   0  0  0  0  0  0  0  0  0  0  0  0
  145.2189  131.0159  149.2633 H   0  0  0  0  0  0  0  0  0  0  0  0
  146.0011  132.4297  148.5839 H   0  0  0  0  0  0  0  0  0  0  0  0
  144.5670  134.5905  148.5779 H   0  0  0  0  0  0  0  0  0  0  0  0
  146.4185  135.2519  155.0001 H   0  0  0  0  0  0  0  0  0  0  0  0
  1  2  1  0  0  0  0
  1 16  1  0  0  0  0
  1 17  1  0  0  0  0
  1 18  1  0  0  0  0
  2  3  1  0  0  0  0
  2  4  1  0  0  0  0
  2  5  1  0  0  0  0
  3 19  1  0  0  0  0
  3 20  1  0  0  0  0
  3 21  1  0  0  0  0
  4 22  1  0  0  0  0
  4 23  1  0  0  0  0
  4 24  1  0  0  0  0
  5 15  2  0  0  0  0
  5  6  1  0  0  0  0
  6  7  1  0  0  0  0
  6 34  1  0  0  0  0
  7  8  2  0  0  0  0
  8  9  1  0  0  0  0
  8 15  1  0  0  0  0
  9 14  1  0  0  0  0
  9 10  1  0  0  0  0
  9 25  1  0  0  0  0
 10 11  1  0  0  0  0
 10 26  1  0  0  0  0
 10 27  1  0  0  0  0
 11 12  1  0  0  0  0
 11 28  1  0  0  0  0
 11 33  1  0  0  0  0
 12 13  1  0  0  0  0
 12 29  1  0  0  0  0
 12 30  1  0  0  0  0
 13 14  1  0  0  0  0
 13 31  1  0  0  0  0
 13 32  1  0  0  0  0
M  CHG  1  11   1
M  END
> <s_m_source_file>
AV-unprocessed.smi

> <i_m_source_file_index>
2567

> <i_lp_mmshare_version>
43012

> <i_f3d_flags>
0

> <s_epik_input>
W0NIM11DKFtDSDNdKShbQ0gzXSljMW5bbkhdYyhuMSlbQ0BASF0yW0NIMl1bTkhdW0NIMl1bQ0gyXU8y

> <s_epik_cmdline>
J2VwaWtfcHl0aG9uJywgJy1waCcsICc3LjAnLCAnLXRuJywgJzgnLCAnLW1hJywgJzIwMCcsICctbWV0YWxfYmluZGluZycsICctaW1hZScsICc8aW5maWxlLm1hZT4nLCAnLW9tYWUnLCAnPG91dGZpbGUubWFlPic=

> <r_lp_tautomer_probability>
0.948284

> <r_epik_Ionization_Penalty>
0.108767

> <r_epik_Ionization_Penalty_Charging>
0.100865

> <r_epik_Ionization_Penalty_Neutral>
0.00790271

> <r_epik_State_Penalty>
0.197684

> <r_epik_Charging_Adjusted_Penalty>
0.298549

> <i_epik_Tot_Q>
1

> <i_epik_Tot_abs_Q>
1

> <r_epik_Metal_State_Penalty>
0.508163

> <b_epik_Metal_Only>
0

> <s_lp_Force_Field>
OPLS_2005

> <r_lp_Energy>
13.5153

> <b_lp_Chiralities_Consistent>
1

> <s_lp_Variant>
AV-unprocessed.smi:2567-1

> <Gold.Version>
5.8.1

> <Gold.Id.Protein>
6NUR|6NUR_protein|mol2

> <Gold.PLP.Fitness>
33.4669

> <Gold.PLP.PLP>
-24.7964

> <Gold.PLP.part.hbond>
-2.0000

> <Gold.PLP.part.metal>
0.0000

> <Gold.PLP.part.buried>
-4.5024

> <Gold.PLP.part.nonpolar>
-19.3429

> <Gold.PLP.part.repulsive>
0.6441

> <Gold.PLP.ligand.clash>
0.0000

> <Gold.PLP.ligand.torsion>
0.1741

> <Gold.PLP.Chemscore.Hbond>
3.0000

> <Gold.PLP.Chemscore.CHOScore>
0.0000

> <Gold.PLP.Chemscore.Metal>
0.0000

> <Gold.Chemscore.Hbonds>
donor molecule, donor type, donor heavy atom, donor atom, acceptor molecule, acceptor atom, score
      L1  H    11    28       P1 10186  1.84
      L1  H    11    33       P1  7921  1.00

> <Gold.PLP.Chemscore.Internal.Correction>
0.0188

> <Gold.Rescore>
     Score         DG    S(hbond)    S(metal)    S(lipo)     H(rot)  DE(clash)    DE(int)     intcor
     14.94     -15.04       1.95        0.00      53.81       1.26       0.04       0.05       ----

> <Gold.Chemscore.Fitness>
14.9405

> <Gold.Chemscore.DG>
-15.0371

> <Gold.Chemscore.ZeroCoef>
-5.4800

> <Gold.Chemscore.Hbond>
1.9456

> <Gold.Chemscore.Metal>
0.0000

> <Gold.Chemscore.Lipo>
53.8145

> <Gold.Chemscore.Internal_Hbond>
0.0000

> <Gold.Chemscore.DEClash>
0.0417

> <Gold.Chemscore.DEInternal>
0.0549

> <Gold.Chemscore.Rot>
1.2647

> <Gold.Chemscore.Internal.Correction>
   9.000000E+99

> <Gold.Chemscore.Hbonds>
donor molecule, donor type, donor heavy atom, donor atom, acceptor molecule, acceptor atom, score
      L1  H    11    28       P1 10186  0.83
      L1  H    11    33       P1  7921  0.99

> <Gold.Chemscore.Hbond.Weighted>
-6.4983

> <Gold.Chemscore.Metal.Weighted>
-0.0000

> <Gold.Chemscore.Lipo.Weighted>
-6.2963

> <Gold.Chemscore.Internal_Hbond.Weighted>
0.0000

> <Gold.Chemscore.DEClash.Weighted>
0.0417

> <Gold.Chemscore.DEInternal.Weighted>
0.0549

> <Gold.Chemscore.Rot.Weighted>
3.2375

> <Gold.Chemscore.Internal.Correction.Weighted>
   9.000000E+99

> <Gold.Protein.RotatedTorsions>
[ 6907 6896 6895 6894 ] final   90.14 input  -60.11 | X-H torsion
[ 7974 7965 7964 7962 ] final  129.03 input  175.53 | X-H torsion
[ 8008 7997 7996 7995 ] final -119.67 input   59.86 | X-H torsion
[ 10167 10162 10161 10158 ] final  -31.19 input  -65.29 | X-H torsion
[ 10718 10713 10712 10709 ] final  -34.42 input   66.30 | X-H torsion
[ 10763 10752 10751 10750 ] final -126.08 input  -60.55 | X-H torsion
[ 11005 11000 10999 10996 ] final   83.65 input  -57.11 | X-H torsion

> <Gold.Protein.ActiveResidues>
 VAL166  LYS551  ARG553  GLY616  TRP617  ASP618  TYR619  PRO620  LYS621  CYS622 
 ASP623  PHE694  ASN695  SER759  ASP760  ASP761  ALA762  ILE779  LEU786  VAL792 
 PHE793  MET794  SER795  GLU796  ALA797  LYS798  CYS799  TRP800  GLU811  SER814 

> <Gold.Protein.RotatedAtoms>
  152.5442  134.1858  159.8653 H   0  0  0  0  0  0  0  0  0  0  0  0  # atno 6907 bound_to 6896
  151.1857  133.4691  159.2602 H   0  0  0  0  0  0  0  0  0  0  0  0  # atno 6908 bound_to 6896
  151.1134  135.0051  159.8560 H   0  0  0  0  0  0  0  0  0  0  0  0  # atno 6909 bound_to 6896
  145.0331  139.4028  143.5139 H   0  0  0  0  0  0  0  0  0  0  0  0  # atno 7974 bound_to 7965
  155.1194  140.0398  157.2746 H   0  0  0  0  0  0  0  0  0  0  0  0  # atno 8008 bound_to 7997
  154.6625  140.2594  155.7068 H   0  0  0  0  0  0  0  0  0  0  0  0  # atno 8009 bound_to 7997
  156.2625  140.2814  156.1103 H   0  0  0  0  0  0  0  0  0  0  0  0  # atno 8010 bound_to 7997
  140.7239  143.3790  151.1635 H   0  0  0  0  0  0  0  0  0  0  0  0  # atno 10167 bound_to 10162
  156.3508  130.4308  149.7706 H   0  0  0  0  0  0  0  0  0  0  0  0  # atno 10718 bound_to 10713
  154.8742  135.4008  154.3372 H   0  0  0  0  0  0  0  0  0  0  0  0  # atno 10763 bound_to 10752
  153.4177  135.7022  153.6321 H   0  0  0  0  0  0  0  0  0  0  0  0  # atno 10764 bound_to 10752
  153.4997  135.3730  155.2503 H   0  0  0  0  0  0  0  0  0  0  0  0  # atno 10765 bound_to 10752
  139.9024  134.8160  156.2337 H   0  0  0  0  0  0  0  0  0  0  0  0  # atno 11005 bound_to 11000
  146.3501  139.9892  142.8687 LP  0  0  0  0  0  0  0  0  0  0  0  0  # atno 17320 bound_to 7965
  145.1744  140.9737  143.4302 LP  0  0  0  0  0  0  0  0  0  0  0  0  # atno 17321 bound_to 7965
  139.7376  143.8975  152.3040 LP  0  0  0  0  0  0  0  0  0  0  0  0  # atno 17342 bound_to 10162
  139.8785  144.7030  150.8905 LP  0  0  0  0  0  0  0  0  0  0  0  0  # atno 17343 bound_to 10162
  156.4907  130.8083  151.3093 LP  0  0  0  0  0  0  0  0  0  0  0  0  # atno 17370 bound_to 10713
  157.7461  130.9976  150.2823 LP  0  0  0  0  0  0  0  0  0  0  0  0  # atno 17371 bound_to 10713
  141.0329  133.6979  156.1461 LP  0  0  0  0  0  0  0  0  0  0  0  0  # atno 17394 bound_to 11000
  140.7070  134.4502  157.5583 LP  0  0  0  0  0  0  0  0  0  0  0  0  # atno 17395 bound_to 11000

$$$$
