AV-unprocessed.smi:965|AV-procd|sdf|4282|dock4
  -GOLD-   22720 2193D 1   1.00000     0.00000
 Structure written by MMmdl.
 29 30  0  0  0  0  0  0  0  0  2 V2000
  150.7485  137.6533  154.6554 C   0  0  0  0  0  0  0  0  0  0  0  0
  150.7833  139.1761  154.4898 C   0  0  0  0  0  0  0  0  0  0  0  0
  151.3172  139.8708  155.6975 C   0  0  0  0  0  0  0  0  0  0  0  0
  150.6765  140.7430  156.4720 N   0  0  0  0  0  0  0  0  0  0  0  0
  151.6578  141.0812  157.3547 C   0  0  0  0  0  0  0  0  0  0  0  0
  151.4494  142.0576  158.4714 C   0  0  1  0  0  0  0  0  0  0  0  0
  152.5168  143.1685  158.4788 C   0  0  0  0  0  0  0  0  0  0  0  0
  152.2588  144.1520  159.6308 C   0  0  0  0  0  0  0  0  0  0  0  0
  150.8226  144.6994  159.5755 C   0  0  0  0  0  0  0  0  0  0  0  0
  149.8398  143.5937  159.5900 N   0  3  0  0  0  0  0  0  0  0  0  0
  150.0221  142.6418  158.4718 C   0  0  0  0  0  0  0  0  0  0  0  0
  152.8320  140.4906  157.1674 N   0  0  0  0  0  0  0  0  0  0  0  0
  152.6135  139.6823  156.0426 O   0  0  0  0  0  0  0  0  0  0  0  0
  150.3521  137.1738  153.7604 H   0  0  0  0  0  0  0  0  0  0  0  0
  150.1173  137.3639  155.4961 H   0  0  0  0  0  0  0  0  0  0  0  0
  151.7477  137.2545  154.8327 H   0  0  0  0  0  0  0  0  0  0  0  0
  151.3991  139.4428  153.6302 H   0  0  0  0  0  0  0  0  0  0  0  0
  149.7800  139.5509  154.2850 H   0  0  0  0  0  0  0  0  0  0  0  0
  151.5642  141.5051  159.4063 H   0  0  0  0  0  0  0  0  0  0  0  0
  153.5137  142.7361  158.5731 H   0  0  0  0  0  0  0  0  0  0  0  0
  152.4990  143.7091  157.5314 H   0  0  0  0  0  0  0  0  0  0  0  0
  152.4236  143.6502  160.5853 H   0  0  0  0  0  0  0  0  0  0  0  0
  152.9737  144.9740  159.5864 H   0  0  0  0  0  0  0  0  0  0  0  0
  150.6344  145.3543  160.4268 H   0  0  0  0  0  0  0  0  0  0  0  0
  150.6779  145.2974  158.6748 H   0  0  0  0  0  0  0  0  0  0  0  0
  149.9367  143.0904  160.4603 H   0  0  0  0  0  0  0  0  0  0  0  0
  149.8187  143.1586  157.5327 H   0  0  0  0  0  0  0  0  0  0  0  0
  149.2840  141.8445  158.5639 H   0  0  0  0  0  0  0  0  0  0  0  0
  148.9084  143.9817  159.5407 H   0  0  0  0  0  0  0  0  0  0  0  0
  1  2  1  0  0  0  0
  1 14  1  0  0  0  0
  1 15  1  0  0  0  0
  1 16  1  0  0  0  0
  2  3  1  0  0  0  0
  2 17  1  0  0  0  0
  2 18  1  0  0  0  0
  3 13  1  0  0  0  0
  3  4  2  0  0  0  0
  4  5  1  0  0  0  0
  5  6  1  0  0  0  0
  5 12  2  0  0  0  0
  6 11  1  0  0  0  0
  6  7  1  0  0  0  0
  6 19  1  0  0  0  0
  7  8  1  0  0  0  0
  7 20  1  0  0  0  0
  7 21  1  0  0  0  0
  8  9  1  0  0  0  0
  8 22  1  0  0  0  0
  8 23  1  0  0  0  0
  9 10  1  0  0  0  0
  9 24  1  0  0  0  0
  9 25  1  0  0  0  0
 10 11  1  0  0  0  0
 10 26  1  0  0  0  0
 10 29  1  0  0  0  0
 11 27  1  0  0  0  0
 11 28  1  0  0  0  0
 12 13  1  0  0  0  0
M  CHG  1  10   1
M  END
> <s_m_source_file>
AV-unprocessed.smi

> <i_m_source_file_index>
965

> <i_lp_mmshare_version>
43012

> <i_f3d_flags>
0

> <s_epik_input>
W0NIM11bQ0gyXWMxbmMobm8xKVtDQEBIXTJbQ0gyXVtDSDJdW0NIMl1bTkhdW0NIMl0y

> <s_epik_cmdline>
J2VwaWtfcHl0aG9uJywgJy1waCcsICc3LjAnLCAnLXRuJywgJzgnLCAnLW1hJywgJzIwMCcsICctbWV0YWxfYmluZGluZycsICctaW1hZScsICc8aW5maWxlLm1hZT4nLCAnLW9tYWUnLCAnPG91dGZpbGUubWFlPic=

> <r_lp_tautomer_probability>
1

> <r_epik_Ionization_Penalty>
0.000532935

> <r_epik_Ionization_Penalty_Charging>
0.000532935

> <r_epik_Ionization_Penalty_Neutral>
3.47051e-13

> <r_epik_State_Penalty>
0.000332992

> <r_epik_Charging_Adjusted_Penalty>
0.000865928

> <i_epik_Tot_Q>
1

> <i_epik_Tot_abs_Q>
1

> <r_epik_Metal_State_Penalty>
-0

> <b_epik_Metal_Only>
0

> <s_lp_Force_Field>
OPLS_2005

> <r_lp_Energy>
5.49554

> <b_lp_Chiralities_Consistent>
1

> <s_lp_Variant>
AV-unprocessed.smi:965-2

> <Gold.Version>
5.8.1

> <Gold.Id.Protein>
6NUR|6NUR_protein|mol2

> <Gold.PLP.Fitness>
36.4538

> <Gold.PLP.PLP>
-28.6135

> <Gold.PLP.part.hbond>
-3.4137

> <Gold.PLP.part.metal>
0.0000

> <Gold.PLP.part.buried>
-1.5724

> <Gold.PLP.part.nonpolar>
-23.7313

> <Gold.PLP.part.repulsive>
0.1383

> <Gold.PLP.ligand.clash>
0.0000

> <Gold.PLP.ligand.torsion>
0.0803

> <Gold.PLP.Chemscore.Hbond>
2.6500

> <Gold.PLP.Chemscore.CHOScore>
0.0000

> <Gold.PLP.Chemscore.Metal>
0.0000

> <Gold.PLP.Chemscore.Internal.Correction>
0.0507

> <Gold.Rescore>
     Score         DG    S(hbond)    S(metal)    S(lipo)     H(rot)  DE(clash)    DE(int)     intcor
     11.94     -12.00       0.68        0.00      63.50       1.24       0.02       0.05       ----

> <Gold.Chemscore.Fitness>
11.9386

> <Gold.Chemscore.DG>
-12.0048

> <Gold.Chemscore.ZeroCoef>
-5.4800

> <Gold.Chemscore.Hbond>
0.6789

> <Gold.Chemscore.Metal>
0.0000

> <Gold.Chemscore.Lipo>
63.5014

> <Gold.Chemscore.Internal_Hbond>
0.0000

> <Gold.Chemscore.DEClash>
0.0195

> <Gold.Chemscore.DEInternal>
0.0467

> <Gold.Chemscore.Rot>
1.2392

> <Gold.Chemscore.Internal.Correction>
   9.000000E+99

> <Gold.Chemscore.Hbond.Weighted>
-2.2675

> <Gold.Chemscore.Metal.Weighted>
-0.0000

> <Gold.Chemscore.Lipo.Weighted>
-7.4297

> <Gold.Chemscore.Internal_Hbond.Weighted>
0.0000

> <Gold.Chemscore.DEClash.Weighted>
0.0195

> <Gold.Chemscore.DEInternal.Weighted>
0.0467

> <Gold.Chemscore.Rot.Weighted>
3.1723

> <Gold.Chemscore.Internal.Correction.Weighted>
   9.000000E+99

> <Gold.Protein.RotatedTorsions>
[ 6907 6896 6895 6894 ] final -167.98 input  -60.11 | X-H torsion
[ 7974 7965 7964 7962 ] final    1.83 input  175.53 | X-H torsion
[ 8008 7997 7996 7995 ] final   81.39 input   59.86 | X-H torsion
[ 10167 10162 10161 10158 ] final  -13.66 input  -65.29 | X-H torsion
[ 10718 10713 10712 10709 ] final   62.21 input   66.30 | X-H torsion
[ 10763 10752 10751 10750 ] final -152.13 input  -60.55 | X-H torsion
[ 11005 11000 10999 10996 ] final   64.08 input  -57.11 | X-H torsion

> <Gold.Protein.ActiveResidues>
 VAL166  LYS551  ARG553  GLY616  TRP617  ASP618  TYR619  PRO620  LYS621  CYS622 
 ASP623  PHE694  ASN695  SER759  ASP760  ASP761  ALA762  ILE779  LEU786  VAL792 
 PHE793  MET794  SER795  GLU796  ALA797  LYS798  CYS799  TRP800  GLU811  SER814 

> <Gold.Protein.RotatedAtoms>
  151.4683  133.3575  159.2819 H   0  0  0  0  0  0  0  0  0  0  0  0  # atno 6907 bound_to 6896
  150.8978  134.8390  159.7350 H   0  0  0  0  0  0  0  0  0  0  0  0  # atno 6908 bound_to 6896
  152.4862  134.4600  159.9654 H   0  0  0  0  0  0  0  0  0  0  0  0  # atno 6909 bound_to 6896
  146.2442  140.0928  142.8351 H   0  0  0  0  0  0  0  0  0  0  0  0  # atno 7974 bound_to 7965
  155.8965  140.3436  155.5995 H   0  0  0  0  0  0  0  0  0  0  0  0  # atno 8008 bound_to 7997
  155.7550  140.0825  157.2202 H   0  0  0  0  0  0  0  0  0  0  0  0  # atno 8009 bound_to 7997
  154.4039  140.1546  156.2754 H   0  0  0  0  0  0  0  0  0  0  0  0  # atno 8010 bound_to 7997
  140.7186  143.5403  150.9417 H   0  0  0  0  0  0  0  0  0  0  0  0  # atno 10167 bound_to 10162
  157.5884  130.9038  149.9559 H   0  0  0  0  0  0  0  0  0  0  0  0  # atno 10718 bound_to 10713
  154.8014  135.3243  154.7541 H   0  0  0  0  0  0  0  0  0  0  0  0  # atno 10763 bound_to 10752
  153.8208  135.6888  153.4832 H   0  0  0  0  0  0  0  0  0  0  0  0  # atno 10764 bound_to 10752
  153.1733  135.4615  154.9874 H   0  0  0  0  0  0  0  0  0  0  0  0  # atno 10765 bound_to 10752
  139.9982  134.6484  155.9975 H   0  0  0  0  0  0  0  0  0  0  0  0  # atno 11005 bound_to 11000
  145.0636  140.9105  143.4924 LP  0  0  0  0  0  0  0  0  0  0  0  0  # atno 17320 bound_to 7965
  145.1048  139.2797  143.5667 LP  0  0  0  0  0  0  0  0  0  0  0  0  # atno 17321 bound_to 7965
  139.9125  143.6703  152.3112 LP  0  0  0  0  0  0  0  0  0  0  0  0  # atno 17342 bound_to 10162
  139.7091  144.7623  151.1143 LP  0  0  0  0  0  0  0  0  0  0  0  0  # atno 17343 bound_to 10162
  156.0936  130.3661  150.0348 LP  0  0  0  0  0  0  0  0  0  0  0  0  # atno 17370 bound_to 10713
  156.8475  130.9447  151.3628 LP  0  0  0  0  0  0  0  0  0  0  0  0  # atno 17371 bound_to 10713
  141.1621  133.6538  156.4354 LP  0  0  0  0  0  0  0  0  0  0  0  0  # atno 17394 bound_to 11000
  140.4778  134.6693  157.5158 LP  0  0  0  0  0  0  0  0  0  0  0  0  # atno 17395 bound_to 11000

$$$$
