AV-unprocessed.smi:1474|AV-procd|sdf|5974|dock10
  -GOLD-   22720 6 63D 1   1.00000     0.00000
 Structure written by MMmdl.
 43 44  0  0  0  0  0  0  0  0  1 V2000
  152.4451  142.4623  160.5714 C   0  0  0  0  0  0  0  0  0  0  0  0
  151.3483  142.2643  159.6967 O   0  0  0  0  0  0  0  0  0  0  0  0
  151.7561  141.9020  158.3881 C   0  0  0  0  0  0  0  0  0  0  0  0
  150.5154  141.7256  157.5090 C   0  0  0  0  0  0  0  0  0  0  0  0
  150.8921  141.0398  156.3187 O   0  0  0  0  0  0  0  0  0  0  0  0
  149.9004  140.6485  155.4426 C   0  0  0  0  0  0  0  0  0  0  0  0
  148.6126  141.2028  155.5923 C   0  0  0  0  0  0  0  0  0  0  0  0
  147.5926  140.7970  154.7108 C   0  0  0  0  0  0  0  0  0  0  0  0
  147.8958  139.8557  153.7065 C   0  0  0  0  0  0  0  0  0  0  0  0
  146.8241  139.3643  152.7506 C   0  0  0  0  0  0  0  0  0  0  0  0
  146.6169  137.9243  152.8445 N   0  0  0  0  0  0  0  0  0  0  0  0
  145.4394  137.3356  153.1069 C   0  0  0  0  0  0  0  0  0  0  0  0
  144.4149  137.9716  153.3567 O   0  0  0  0  0  0  0  0  0  0  0  0
  145.4244  135.7956  153.0822 C   0  0  2  0  0  0  0  0  0  0  0  0
  144.5243  135.2462  151.9598 C   0  0  0  0  0  0  0  0  0  0  0  0
  143.0236  135.4724  152.2242 C   0  0  0  0  0  0  0  0  0  0  0  0
  142.6006  135.1731  153.6702 C   0  0  0  0  0  0  0  0  0  0  0  0
  141.4096  135.0223  153.9315 O   0  0  0  0  0  0  0  0  0  0  0  0
  143.5416  135.1241  154.6295 N   0  0  0  0  0  0  0  0  0  0  0  0
  144.9917  135.1746  154.4301 C   0  0  0  0  0  0  0  0  0  0  0  0
  149.2152  139.3625  153.6323 C   0  0  0  0  0  0  0  0  0  0  0  0
  150.1975  139.7445  154.4757 N   0  0  0  0  0  0  0  0  0  0  0  0
  152.0800  142.7441  161.5589 H   0  0  0  0  0  0  0  0  0  0  0  0
  153.0967  143.2602  160.2134 H   0  0  0  0  0  0  0  0  0  0  0  0
  153.0339  141.5503  160.6778 H   0  0  0  0  0  0  0  0  0  0  0  0
  152.4009  142.6769  157.9703 H   0  0  0  0  0  0  0  0  0  0  0  0
  152.3292  140.9739  158.4158 H   0  0  0  0  0  0  0  0  0  0  0  0
  149.7567  141.1594  158.0516 H   0  0  0  0  0  0  0  0  0  0  0  0
  150.0984  142.7042  157.2651 H   0  0  0  0  0  0  0  0  0  0  0  0
  148.4096  141.9205  156.3734 H   0  0  0  0  0  0  0  0  0  0  0  0
  146.5945  141.1980  154.8083 H   0  0  0  0  0  0  0  0  0  0  0  0
  145.8845  139.8639  152.9882 H   0  0  0  0  0  0  0  0  0  0  0  0
  147.0718  139.6466  151.7259 H   0  0  0  0  0  0  0  0  0  0  0  0
  147.4149  137.3334  152.6605 H   0  0  0  0  0  0  0  0  0  0  0  0
  146.4479  135.4711  152.8863 H   0  0  0  0  0  0  0  0  0  0  0  0
  144.7980  135.6951  151.0039 H   0  0  0  0  0  0  0  0  0  0  0  0
  144.7087  134.1769  151.8483 H   0  0  0  0  0  0  0  0  0  0  0  0
  142.7642  136.5104  152.0133 H   0  0  0  0  0  0  0  0  0  0  0  0
  142.4312  134.8640  151.5403 H   0  0  0  0  0  0  0  0  0  0  0  0
  143.2257  134.9704  155.5763 H   0  0  0  0  0  0  0  0  0  0  0  0
  145.3662  134.1524  154.4930 H   0  0  0  0  0  0  0  0  0  0  0  0
  145.4413  135.7124  155.2660 H   0  0  0  0  0  0  0  0  0  0  0  0
  149.4885  138.6330  152.8843 H   0  0  0  0  0  0  0  0  0  0  0  0
  1  2  1  0  0  0  0
  1 23  1  0  0  0  0
  1 24  1  0  0  0  0
  1 25  1  0  0  0  0
  2  3  1  0  0  0  0
  3  4  1  0  0  0  0
  3 26  1  0  0  0  0
  3 27  1  0  0  0  0
  4  5  1  0  0  0  0
  4 28  1  0  0  0  0
  4 29  1  0  0  0  0
  5  6  1  0  0  0  0
  6 22  1  0  0  0  0
  6  7  2  0  0  0  0
  7  8  1  0  0  0  0
  7 30  1  0  0  0  0
  8  9  2  0  0  0  0
  8 31  1  0  0  0  0
  9 10  1  0  0  0  0
  9 21  1  0  0  0  0
 10 11  1  0  0  0  0
 10 32  1  0  0  0  0
 10 33  1  0  0  0  0
 11 12  1  0  0  0  0
 11 34  1  0  0  0  0
 12 13  2  0  0  0  0
 12 14  1  0  0  0  0
 14 20  1  0  0  0  0
 14 15  1  0  0  0  0
 14 35  1  0  0  0  0
 15 16  1  0  0  0  0
 15 36  1  0  0  0  0
 15 37  1  0  0  0  0
 16 17  1  0  0  0  0
 16 38  1  0  0  0  0
 16 39  1  0  0  0  0
 17 18  2  0  0  0  0
 17 19  1  0  0  0  0
 19 20  1  0  0  0  0
 19 40  1  0  0  0  0
 20 41  1  0  0  0  0
 20 42  1  0  0  0  0
 21 22  2  0  0  0  0
 21 43  1  0  0  0  0
M  END
> <s_m_source_file>
AV-unprocessed.smi

> <i_m_source_file_index>
1474

> <i_lp_mmshare_version>
43012

> <i_f3d_flags>
0

> <s_epik_input>
W0NIM11PW0NIMl1bQ0gyXU9jMVtjSF1bY0hdYyhbY0hdbjEpW0NIMl1bTkhdQyg9TylbQ0BASF0yW0NIMl1bQ0gyXUMoPU8pW05IXVtDSDJdMg==

> <s_epik_cmdline>
J2VwaWtfcHl0aG9uJywgJy1waCcsICc3LjAnLCAnLXRuJywgJzgnLCAnLW1hJywgJzIwMCcsICctbWV0YWxfYmluZGluZycsICctaW1hZScsICc8aW5maWxlLm1hZT4nLCAnLW9tYWUnLCAnPG91dGZpbGUubWFlPic=

> <r_lp_tautomer_probability>
1

> <r_epik_Ionization_Penalty>
6.19599e-05

> <r_epik_Ionization_Penalty_Charging>
0

> <r_epik_Ionization_Penalty_Neutral>
6.19599e-05

> <r_epik_State_Penalty>
-0

> <r_epik_Charging_Adjusted_Penalty>
0

> <i_epik_Tot_Q>
0

> <i_epik_Tot_abs_Q>
0

> <r_epik_Metal_State_Penalty>
-0

> <b_epik_Metal_Only>
0

> <s_lp_Force_Field>
OPLS_2005

> <r_lp_Energy>
10.5341

> <b_lp_Chiralities_Consistent>
1

> <s_lp_Variant>
AV-unprocessed.smi:1474-1

> <Gold.Version>
5.8.1

> <Gold.Id.Protein>
6NUR|6NUR_protein|mol2

> <Gold.PLP.Fitness>
39.9133

> <Gold.PLP.PLP>
-28.2484

> <Gold.PLP.part.hbond>
-3.4142

> <Gold.PLP.part.metal>
0.0000

> <Gold.PLP.part.buried>
-2.9018

> <Gold.PLP.part.nonpolar>
-25.1469

> <Gold.PLP.part.repulsive>
1.9138

> <Gold.PLP.ligand.clash>
0.0000

> <Gold.PLP.ligand.torsion>
0.2742

> <Gold.PLP.Chemscore.Hbond>
2.9420

> <Gold.PLP.Chemscore.CHOScore>
1.0887

> <Gold.PLP.Chemscore.Metal>
0.0000

> <Gold.Chemscore.Hbonds>
donor molecule, donor type, donor heavy atom, donor atom, acceptor molecule, acceptor atom, score
      L1  H    11    34       P1  7948  0.96
      P1  H  7989  7998       L1    22  0.82
      P1  H 11000 11005       L1    18  0.53
      L1  C    21    43       P1  7948  0.77
      L1  C    21    43       P1  7957  0.36

> <Gold.PLP.Chemscore.Internal.Correction>
0.1210

> <Gold.Rescore>
     Score         DG    S(hbond)    S(metal)    S(lipo)     H(rot)  DE(clash)    DE(int)     intcor
     11.70     -14.80       2.26        0.00      70.18       2.52       2.20       0.90       ----

> <Gold.Chemscore.Fitness>
11.7026

> <Gold.Chemscore.DG>
-14.8044

> <Gold.Chemscore.ZeroCoef>
-5.4800

> <Gold.Chemscore.Hbond>
2.2650

> <Gold.Chemscore.Metal>
0.0000

> <Gold.Chemscore.Lipo>
70.1778

> <Gold.Chemscore.Internal_Hbond>
0.0000

> <Gold.Chemscore.DEClash>
2.2000

> <Gold.Chemscore.DEInternal>
0.9018

> <Gold.Chemscore.Rot>
2.5201

> <Gold.Chemscore.Internal.Correction>
   9.000000E+99

> <Gold.Chemscore.Hbonds>
donor molecule, donor type, donor heavy atom, donor atom, acceptor molecule, acceptor atom, score
      L1  H    11    34       P1  7948  0.91
      P1  H  7989  7998       L1    22  0.12
      P1  H 11000 11005       L1    18  0.52

> <Gold.Chemscore.Hbond.Weighted>
-7.5650

> <Gold.Chemscore.Metal.Weighted>
-0.0000

> <Gold.Chemscore.Lipo.Weighted>
-8.2108

> <Gold.Chemscore.Internal_Hbond.Weighted>
0.0000

> <Gold.Chemscore.DEClash.Weighted>
2.2000

> <Gold.Chemscore.DEInternal.Weighted>
0.9018

> <Gold.Chemscore.Rot.Weighted>
6.4514

> <Gold.Chemscore.Internal.Correction.Weighted>
   9.000000E+99

> <Gold.Protein.RotatedTorsions>
[ 6907 6896 6895 6894 ] final   56.77 input  -60.11 | X-H torsion
[ 7974 7965 7964 7962 ] final   48.87 input  175.53 | X-H torsion
[ 8008 7997 7996 7995 ] final -129.27 input   59.86 | X-H torsion
[ 10167 10162 10161 10158 ] final  -61.42 input  -65.29 | X-H torsion
[ 10718 10713 10712 10709 ] final  -30.50 input   66.30 | X-H torsion
[ 10763 10752 10751 10750 ] final -138.51 input  -60.55 | X-H torsion
[ 11005 11000 10999 10996 ] final    7.43 input  -57.11 | X-H torsion

> <Gold.Protein.ActiveResidues>
 VAL166  LYS551  ARG553  GLY616  TRP617  ASP618  TYR619  PRO620  LYS621  CYS622 
 ASP623  PHE694  ASN695  SER759  ASP760  ASP761  ALA762  ILE779  LEU786  VAL792 
 PHE793  MET794  SER795  GLU796  ALA797  LYS798  CYS799  TRP800  GLU811  SER814 

> <Gold.Protein.RotatedAtoms>
  152.3668  134.6793  160.0189 H   0  0  0  0  0  0  0  0  0  0  0  0  # atno 6907 bound_to 6896
  151.7099  133.3306  159.3296 H   0  0  0  0  0  0  0  0  0  0  0  0  # atno 6908 bound_to 6896
  150.7644  134.6476  159.6315 H   0  0  0  0  0  0  0  0  0  0  0  0  # atno 6909 bound_to 6896
  146.0163  139.4600  142.9925 H   0  0  0  0  0  0  0  0  0  0  0  0  # atno 7974 bound_to 7965
  155.2764  140.0442  157.3011 H   0  0  0  0  0  0  0  0  0  0  0  0  # atno 8008 bound_to 7997
  154.5622  140.2349  155.8286 H   0  0  0  0  0  0  0  0  0  0  0  0  # atno 8009 bound_to 7997
  156.2057  140.3013  155.9629 H   0  0  0  0  0  0  0  0  0  0  0  0  # atno 8010 bound_to 7997
  140.6007  143.2361  151.5935 H   0  0  0  0  0  0  0  0  0  0  0  0  # atno 10167 bound_to 10162
  156.3991  130.4387  149.7336 H   0  0  0  0  0  0  0  0  0  0  0  0  # atno 10718 bound_to 10713
  154.8635  135.3610  154.5397 H   0  0  0  0  0  0  0  0  0  0  0  0  # atno 10763 bound_to 10752
  153.6019  135.7012  153.5386 H   0  0  0  0  0  0  0  0  0  0  0  0  # atno 10764 bound_to 10752
  153.3283  135.4131  155.1436 H   0  0  0  0  0  0  0  0  0  0  0  0  # atno 10765 bound_to 10752
  140.5484  134.0307  155.7928 H   0  0  0  0  0  0  0  0  0  0  0  0  # atno 11005 bound_to 11000
  145.7263  141.0058  143.1375 LP  0  0  0  0  0  0  0  0  0  0  0  0  # atno 17320 bound_to 7965
  144.6972  139.8931  143.7454 LP  0  0  0  0  0  0  0  0  0  0  0  0  # atno 17321 bound_to 7965
  139.5289  144.2975  152.1101 LP  0  0  0  0  0  0  0  0  0  0  0  0  # atno 17342 bound_to 10162
  140.2155  144.4519  150.6366 LP  0  0  0  0  0  0  0  0  0  0  0  0  # atno 17343 bound_to 10162
  156.4360  130.7838  151.2858 LP  0  0  0  0  0  0  0  0  0  0  0  0  # atno 17370 bound_to 10713
  157.7503  131.0139  150.3444 LP  0  0  0  0  0  0  0  0  0  0  0  0  # atno 17371 bound_to 10713
  141.1186  133.9499  157.2774 LP  0  0  0  0  0  0  0  0  0  0  0  0  # atno 17394 bound_to 11000
  139.9468  135.0182  156.8875 LP  0  0  0  0  0  0  0  0  0  0  0  0  # atno 17395 bound_to 11000

$$$$
