AV-unprocessed.smi:3236|AV-procd|sdf|12362|dock1
  -GOLD-   2272018223D 1   1.00000     0.00000
 Structure written by MMmdl.
 40 41  0  0  0  0  0  0  0  0  1 V2000
  152.7766  144.7406  157.8012 C   0  0  0  0  0  0  0  0  0  0  0  0
  152.2914  143.8483  158.9519 C   0  0  0  0  0  0  0  0  0  0  0  0
  152.1930  144.6305  160.2794 C   0  0  0  0  0  0  0  0  0  0  0  0
  151.7998  143.7033  161.4436 C   0  0  0  0  0  0  0  0  0  0  0  0
  152.7808  142.6129  161.5308 N   0  0  0  0  0  0  0  0  0  0  0  0
  153.6934  142.4489  162.5198 C   0  0  0  0  0  0  0  0  0  0  0  0
  154.5264  141.5402  162.4980 O   0  0  0  0  0  0  0  0  0  0  0  0
  153.6934  143.4329  163.7027 C   0  0  0  0  0  0  0  0  0  0  0  0
  154.2023  142.8412  164.9462 N   0  0  0  0  0  0  0  0  0  0  0  0
  155.6580  142.8533  164.9700 C   0  0  0  0  0  0  0  0  0  0  0  0
  156.1739  142.2954  166.3072 C   0  0  0  0  0  0  0  0  0  0  0  0
  156.0417  143.2490  167.3943 N   0  0  0  0  0  0  0  0  0  0  0  0
  155.2374  143.1682  168.5115 C   0  0  0  0  0  0  0  0  0  0  0  0
  155.4481  144.2996  169.2462 C   0  0  0  0  0  0  0  0  0  0  0  0
  156.4107  145.0215  168.4867 C   0  0  0  0  0  0  0  0  0  0  0  0
  156.7659  144.3892  167.3796 N   0  0  0  0  0  0  0  0  0  0  0  0
  152.7451  141.7609  160.3351 C   0  0  0  0  0  0  0  0  0  0  0  0
  153.1781  142.5953  159.1159 C   0  0  0  0  0  0  0  0  0  0  0  0
  153.7815  145.1195  157.9894 H   0  0  0  0  0  0  0  0  0  0  0  0
  152.1173  145.5981  157.6649 H   0  0  0  0  0  0  0  0  0  0  0  0
  152.7991  144.1899  156.8605 H   0  0  0  0  0  0  0  0  0  0  0  0
  151.2867  143.5063  158.6994 H   0  0  0  0  0  0  0  0  0  0  0  0
  153.1503  145.1039  160.5028 H   0  0  0  0  0  0  0  0  0  0  0  0
  151.4637  145.4358  160.1855 H   0  0  0  0  0  0  0  0  0  0  0  0
  151.7025  144.2837  162.3593 H   0  0  0  0  0  0  0  0  0  0  0  0
  150.8104  143.2803  161.2641 H   0  0  0  0  0  0  0  0  0  0  0  0
  154.3049  144.2984  163.4429 H   0  0  0  0  0  0  0  0  0  0  0  0
  152.6719  143.7788  163.8672 H   0  0  0  0  0  0  0  0  0  0  0  0
  153.8717  141.8944  165.0660 H   0  0  0  0  0  0  0  0  0  0  0  0
  156.0349  142.2388  164.1513 H   0  0  0  0  0  0  0  0  0  0  0  0
  156.0331  143.8658  164.8126 H   0  0  0  0  0  0  0  0  0  0  0  0
  155.6430  141.3806  166.5738 H   0  0  0  0  0  0  0  0  0  0  0  0
  157.2271  142.0265  166.2149 H   0  0  0  0  0  0  0  0  0  0  0  0
  154.5872  142.3237  168.6863 H   0  0  0  0  0  0  0  0  0  0  0  0
  154.9834  144.5711  170.1822 H   0  0  0  0  0  0  0  0  0  0  0  0
  156.8584  145.9797  168.7056 H   0  0  0  0  0  0  0  0  0  0  0  0
  153.3799  140.8783  160.4225 H   0  0  0  0  0  0  0  0  0  0  0  0
  151.7319  141.3830  160.1911 H   0  0  0  0  0  0  0  0  0  0  0  0
  153.1318  141.9833  158.2144 H   0  0  0  0  0  0  0  0  0  0  0  0
  154.2212  142.8928  159.2347 H   0  0  0  0  0  0  0  0  0  0  0  0
  1  2  1  0  0  0  0
  1 19  1  0  0  0  0
  1 20  1  0  0  0  0
  1 21  1  0  0  0  0
  2 18  1  0  0  0  0
  2  3  1  0  0  0  0
  2 22  1  0  0  0  0
  3  4  1  0  0  0  0
  3 23  1  0  0  0  0
  3 24  1  0  0  0  0
  4  5  1  0  0  0  0
  4 25  1  0  0  0  0
  4 26  1  0  0  0  0
  5  6  1  0  0  0  0
  5 17  1  0  0  0  0
  6  7  2  0  0  0  0
  6  8  1  0  0  0  0
  8  9  1  0  0  0  0
  8 27  1  0  0  0  0
  8 28  1  0  0  0  0
  9 10  1  0  0  0  0
  9 29  1  0  0  0  0
 10 11  1  0  0  0  0
 10 30  1  0  0  0  0
 10 31  1  0  0  0  0
 11 12  1  0  0  0  0
 11 32  1  0  0  0  0
 11 33  1  0  0  0  0
 12 16  1  0  0  0  0
 12 13  1  0  0  0  0
 13 14  2  0  0  0  0
 13 34  1  0  0  0  0
 14 15  1  0  0  0  0
 14 35  1  0  0  0  0
 15 16  2  0  0  0  0
 15 36  1  0  0  0  0
 17 18  1  0  0  0  0
 17 37  1  0  0  0  0
 17 38  1  0  0  0  0
 18 39  1  0  0  0  0
 18 40  1  0  0  0  0
M  END
> <s_m_source_file>
AV-unprocessed.smi

> <i_m_source_file_index>
3236

> <i_lp_mmshare_version>
43012

> <i_f3d_flags>
0

> <s_epik_input>
W0NIM11bQ0hdMVtDSDJdW0NIMl1OKFtDSDJdW0NIMl0xKUMoPU8pW0NIMl1bTkhdW0NIMl1bQ0gyXW4yW2NIXVtjSF1bY0hdbjI=

> <s_epik_cmdline>
J2VwaWtfcHl0aG9uJywgJy1waCcsICc3LjAnLCAnLXRuJywgJzgnLCAnLW1hJywgJzIwMCcsICctbWV0YWxfYmluZGluZycsICctaW1hZScsICc8aW5maWxlLm1hZT4nLCAnLW9tYWUnLCAnPG91dGZpbGUubWFlPic=

> <r_lp_tautomer_probability>
1

> <r_epik_Ionization_Penalty>
0.778591

> <r_epik_Ionization_Penalty_Charging>
0

> <r_epik_Ionization_Penalty_Neutral>
0.778591

> <r_epik_State_Penalty>
0.806071

> <r_epik_Charging_Adjusted_Penalty>
0.806071

> <i_epik_Tot_Q>
0

> <i_epik_Tot_abs_Q>
0

> <r_epik_Metal_State_Penalty>
0.80479

> <b_epik_Metal_Only>
0

> <s_lp_Force_Field>
OPLS_2005

> <r_lp_Energy>
26.1059

> <b_lp_Chiralities_Consistent>
1

> <s_lp_Variant>
AV-unprocessed.smi:3236-2

> <Gold.Version>
5.8.1

> <Gold.Id.Protein>
6NUR|6NUR_protein|mol2

> <Gold.PLP.Fitness>
48.3196

> <Gold.PLP.PLP>
-49.3665

> <Gold.PLP.part.hbond>
-3.0000

> <Gold.PLP.part.metal>
0.0000

> <Gold.PLP.part.buried>
-3.1240

> <Gold.PLP.part.nonpolar>
-39.8081

> <Gold.PLP.part.repulsive>
0.0000

> <Gold.PLP.ligand.clash>
0.0000

> <Gold.PLP.ligand.torsion>
0.5887

> <Gold.PLP.Chemscore.Hbond>
0.0000

> <Gold.PLP.Chemscore.CHOScore>
0.0000

> <Gold.PLP.Chemscore.Metal>
0.0000

> <Gold.PLP.Chemscore.Internal.Correction>
0.1305

> <Gold.Rescore>
     Score         DG    S(hbond)    S(metal)    S(lipo)     H(rot)  DE(clash)    DE(int)     intcor
     13.13     -15.27       0.00        0.00     121.54       1.73       1.50       0.64       ----

> <Gold.Chemscore.Fitness>
13.1269

> <Gold.Chemscore.DG>
-15.2720

> <Gold.Chemscore.ZeroCoef>
-5.4800

> <Gold.Chemscore.Hbond>
0.0000

> <Gold.Chemscore.Metal>
0.0000

> <Gold.Chemscore.Lipo>
121.5370

> <Gold.Chemscore.Internal_Hbond>
0.0000

> <Gold.Chemscore.DEClash>
1.5006

> <Gold.Chemscore.DEInternal>
0.6445

> <Gold.Chemscore.Rot>
1.7296

> <Gold.Chemscore.Internal.Correction>
   9.000000E+99

> <Gold.Chemscore.Hbond.Weighted>
-0.0000

> <Gold.Chemscore.Metal.Weighted>
-0.0000

> <Gold.Chemscore.Lipo.Weighted>
-14.2198

> <Gold.Chemscore.Internal_Hbond.Weighted>
0.0000

> <Gold.Chemscore.DEClash.Weighted>
1.5006

> <Gold.Chemscore.DEInternal.Weighted>
0.6445

> <Gold.Chemscore.Rot.Weighted>
4.4278

> <Gold.Chemscore.Internal.Correction.Weighted>
   9.000000E+99

> <Gold.Protein.RotatedTorsions>
[ 6907 6896 6895 6894 ] final -166.57 input  -60.11 | X-H torsion
[ 7974 7965 7964 7962 ] final  -50.26 input  175.53 | X-H torsion
[ 8008 7997 7996 7995 ] final -142.03 input   59.86 | X-H torsion
[ 10167 10162 10161 10158 ] final  -23.12 input  -65.29 | X-H torsion
[ 10718 10713 10712 10709 ] final   92.76 input   66.30 | X-H torsion
[ 10763 10752 10751 10750 ] final   59.39 input  -60.55 | X-H torsion
[ 11005 11000 10999 10996 ] final  -34.88 input  -57.11 | X-H torsion

> <Gold.Protein.ActiveResidues>
 VAL166  LYS551  ARG553  GLY616  TRP617  ASP618  TYR619  PRO620  LYS621  CYS622 
 ASP623  PHE694  ASN695  SER759  ASP760  ASP761  ALA762  ILE779  LEU786  VAL792 
 PHE793  MET794  SER795  GLU796  ALA797  LYS798  CYS799  TRP800  GLU811  SER814 

> <Gold.Protein.RotatedAtoms>
  151.4457  133.3631  159.2787 H   0  0  0  0  0  0  0  0  0  0  0  0  # atno 6907 bound_to 6896
  150.9126  134.8545  159.7446 H   0  0  0  0  0  0  0  0  0  0  0  0  # atno 6908 bound_to 6896
  152.4940  134.4388  159.9588 H   0  0  0  0  0  0  0  0  0  0  0  0  # atno 6909 bound_to 6896
  145.9317  140.7743  142.9596 H   0  0  0  0  0  0  0  0  0  0  0  0  # atno 7974 bound_to 7965
  155.4876  140.0565  157.2958 H   0  0  0  0  0  0  0  0  0  0  0  0  # atno 8008 bound_to 7997
  154.4636  140.2008  156.0130 H   0  0  0  0  0  0  0  0  0  0  0  0  # atno 8009 bound_to 7997
  156.0934  140.3230  155.7850 H   0  0  0  0  0  0  0  0  0  0  0  0  # atno 8010 bound_to 7997
  140.7287  143.4472  151.0570 H   0  0  0  0  0  0  0  0  0  0  0  0  # atno 10167 bound_to 10162
  157.6957  131.0454  150.3930 H   0  0  0  0  0  0  0  0  0  0  0  0  # atno 10718 bound_to 10713
  152.9893  135.5573  154.5706 H   0  0  0  0  0  0  0  0  0  0  0  0  # atno 10763 bound_to 10752
  154.5107  135.2802  155.1347 H   0  0  0  0  0  0  0  0  0  0  0  0  # atno 10764 bound_to 10752
  154.2740  135.6357  153.5374 H   0  0  0  0  0  0  0  0  0  0  0  0  # atno 10765 bound_to 10752
  140.9751  133.7087  156.1589 H   0  0  0  0  0  0  0  0  0  0  0  0  # atno 11005 bound_to 11000
  144.6766  140.2138  143.7374 LP  0  0  0  0  0  0  0  0  0  0  0  0  # atno 17320 bound_to 7965
  145.8417  139.2133  143.1823 LP  0  0  0  0  0  0  0  0  0  0  0  0  # atno 17321 bound_to 7965
  139.8145  143.7905  152.3173 LP  0  0  0  0  0  0  0  0  0  0  0  0  # atno 17342 bound_to 10162
  139.7966  144.7390  150.9881 LP  0  0  0  0  0  0  0  0  0  0  0  0  # atno 17343 bound_to 10162
  156.4331  130.3976  149.6747 LP  0  0  0  0  0  0  0  0  0  0  0  0  # atno 17370 bound_to 10713
  156.3957  130.7649  151.2654 LP  0  0  0  0  0  0  0  0  0  0  0  0  # atno 17371 bound_to 10713
  140.7270  134.4296  157.5569 LP  0  0  0  0  0  0  0  0  0  0  0  0  # atno 17394 bound_to 11000
  139.8927  134.8747  156.2256 LP  0  0  0  0  0  0  0  0  0  0  0  0  # atno 17395 bound_to 11000

$$$$
