AV-unprocessed.smi:69|AV-procd|sdf|651|dock5
  -GOLD-   2262016553D 1   1.00000     0.00000
 Structure written by MMmdl.
 32 34  0  0  0  0  0  0  0  0  1 V2000
  154.3298  137.4657  161.4603 N   0  0  0  0  0  0  0  0  0  0  0  0
  153.7657  138.3648  160.6421 C   0  0  0  0  0  0  0  0  0  0  0  0
  154.2491  139.6295  160.6450 N   0  0  0  0  0  0  0  0  0  0  0  0
  153.7057  140.5452  159.8354 C   0  0  0  0  0  0  0  0  0  0  0  0
  152.6975  140.4036  158.9702 N   0  0  0  0  0  0  0  0  0  0  0  0
  152.2129  139.1274  158.9731 C   0  0  0  0  0  0  0  0  0  0  0  0
  152.6894  138.0537  159.7736 C   0  0  0  0  0  0  0  0  0  0  0  0
  151.9594  136.9031  159.5036 N   0  0  0  0  0  0  0  0  0  0  0  0
  151.1019  137.2811  158.5926 C   0  0  0  0  0  0  0  0  0  0  0  0
  151.1877  138.6052  158.2171 N   0  0  0  0  0  0  0  0  0  0  0  0
  150.3787  139.3530  157.2070 C   0  0  2  0  0  0  0  0  0  0  0  0
  149.4474  138.4792  156.6628 O   0  0  0  0  0  0  0  0  0  0  0  0
  149.0587  138.9978  155.4013 C   0  0  2  0  0  0  0  0  0  0  0  0
  148.3818  137.8993  154.5680 C   0  0  0  0  0  0  0  0  0  0  0  0
  148.2540  138.3190  153.2264 O   0  0  0  0  0  0  0  0  0  0  0  0
  150.3900  139.4842  154.8098 C   0  0  1  0  0  0  0  0  0  0  0  0
  150.1688  140.5988  153.9690 O   0  0  0  0  0  0  0  0  0  0  0  0
  151.2208  139.8871  156.0297 C   0  0  2  0  0  0  0  0  0  0  0  0
  152.5246  139.3367  155.9537 O   0  0  0  0  0  0  0  0  0  0  0  0
  149.8690  140.1408  157.7648 H   0  0  0  0  0  0  0  0  0  0  0  0
  148.3865  139.8447  155.5590 H   0  0  0  0  0  0  0  0  0  0  0  0
  150.8759  138.6816  154.2523 H   0  0  0  0  0  0  0  0  0  0  0  0
  151.3020  140.9699  156.1377 H   0  0  0  0  0  0  0  0  0  0  0  0
  153.9879  136.5156  161.4752 H   0  0  0  0  0  0  0  0  0  0  0  0
  155.0959  137.7396  162.0582 H   0  0  0  0  0  0  0  0  0  0  0  0
  154.1412  141.5321  159.8881 H   0  0  0  0  0  0  0  0  0  0  0  0
  150.3824  136.5980  158.1649 H   0  0  0  0  0  0  0  0  0  0  0  0
  148.9939  136.9970  154.5708 H   0  0  0  0  0  0  0  0  0  0  0  0
  147.4075  137.6324  154.9785 H   0  0  0  0  0  0  0  0  0  0  0  0
  148.4485  137.5863  152.6621 H   0  0  0  0  0  0  0  0  0  0  0  0
  149.7325  140.3003  153.1853 H   0  0  0  0  0  0  0  0  0  0  0  0
  152.5519  138.7329  155.2274 H   0  0  0  0  0  0  0  0  0  0  0  0
  1  2  1  0  0  0  0
  1 24  1  0  0  0  0
  1 25  1  0  0  0  0
  2  7  1  0  0  0  0
  2  3  2  0  0  0  0
  3  4  1  0  0  0  0
  4  5  2  0  0  0  0
  4 26  1  0  0  0  0
  5  6  1  0  0  0  0
  6 10  1  0  0  0  0
  6  7  2  0  0  0  0
  7  8  1  0  0  0  0
  8  9  2  0  0  0  0
  9 10  1  0  0  0  0
  9 27  1  0  0  0  0
 10 11  1  0  0  0  0
 11 20  1  0  0  0  0
 11 18  1  0  0  0  0
 11 12  1  0  0  0  0
 12 13  1  0  0  0  0
 13 21  1  0  0  0  0
 13 14  1  0  0  0  0
 13 16  1  0  0  0  0
 14 15  1  0  0  0  0
 14 28  1  0  0  0  0
 14 29  1  0  0  0  0
 15 30  1  0  0  0  0
 16 22  1  0  0  0  0
 16 17  1  0  0  0  0
 16 18  1  0  0  0  0
 17 31  1  0  0  0  0
 18 23  1  0  0  0  0
 18 19  1  0  0  0  0
 19 32  1  0  0  0  0
M  END
> <s_m_source_file>
AV-unprocessed.smi

> <i_m_source_file_index>
69

> <i_lp_mmshare_version>
43012

> <i_f3d_flags>
0

> <s_epik_input>
bjFbY0hdbmMoW05IMl0pYyhjMTIpbltjSF1uMltDQEBIXTNPW0NASF0oW0NIMl1bT0hdKVtDQEBIXShbT0hdKVtDQEhdM1tPSF0=

> <s_epik_cmdline>
J2VwaWtfcHl0aG9uJywgJy1waCcsICc3LjAnLCAnLXRuJywgJzgnLCAnLW1hJywgJzIwMCcsICctbWV0YWxfYmluZGluZycsICctaW1hZScsICc8aW5maWxlLm1hZT4nLCAnLW9tYWUnLCAnPG91dGZpbGUubWFlPic=

> <r_lp_tautomer_probability>
1

> <r_epik_Ionization_Penalty>
0.000428445

> <r_epik_Ionization_Penalty_Charging>
0

> <r_epik_Ionization_Penalty_Neutral>
0.000428445

> <r_epik_State_Penalty>
-0

> <r_epik_Charging_Adjusted_Penalty>
0

> <i_epik_Tot_Q>
0

> <i_epik_Tot_abs_Q>
0

> <r_epik_Metal_State_Penalty>
-0

> <b_epik_Metal_Only>
0

> <s_epik_Chemistry_Notes>
This compound contains an acetal/aminal-like group ( X-CH(R)-Y where X, Y are N, S, or O) that may be acid/base labile, releasing an aldehyde.

> <s_lp_Force_Field>
OPLS_2005

> <r_lp_Energy>
36.244

> <b_lp_Chiralities_Consistent>
1

> <s_lp_Variant>
AV-unprocessed.smi:69-9

> <Gold.Version>
5.8.1

> <Gold.Id.Protein>
6NUR|6NUR_protein|mol2

> <Gold.PLP.Fitness>
37.5741

> <Gold.PLP.PLP>
-23.6874

> <Gold.PLP.part.hbond>
-5.4768

> <Gold.PLP.part.metal>
0.0000

> <Gold.PLP.part.buried>
-3.7385

> <Gold.PLP.part.nonpolar>
-14.7977

> <Gold.PLP.part.repulsive>
0.0250

> <Gold.PLP.ligand.clash>
0.0000

> <Gold.PLP.ligand.torsion>
0.0581

> <Gold.PLP.Chemscore.Hbond>
4.6633

> <Gold.PLP.Chemscore.CHOScore>
0.0000

> <Gold.PLP.Chemscore.Metal>
0.0000

> <Gold.Chemscore.Hbonds>
donor molecule, donor type, donor heavy atom, donor atom, acceptor molecule, acceptor atom, score
      L1  H    15    30       P1  7948  1.00
      L1  H    17    31       P1  7957  0.98
      P1  H  6896  6909       L1     8  1.00
      P1  H  7989  7998       L1    17  0.70
      P1  H  7997  8009       L1    19  1.00

> <Gold.PLP.Chemscore.Internal.Correction>
0.0132

> <Gold.Rescore>
     Score         DG    S(hbond)    S(metal)    S(lipo)     H(rot)  DE(clash)    DE(int)     intcor
     10.98     -11.17       3.94        0.00      24.40       4.03       0.03       0.16       ----

> <Gold.Chemscore.Fitness>
10.9801

> <Gold.Chemscore.DG>
-11.1703

> <Gold.Chemscore.ZeroCoef>
-5.4800

> <Gold.Chemscore.Hbond>
3.9361

> <Gold.Chemscore.Metal>
0.0000

> <Gold.Chemscore.Lipo>
24.3981

> <Gold.Chemscore.Internal_Hbond>
0.0000

> <Gold.Chemscore.DEClash>
0.0255

> <Gold.Chemscore.DEInternal>
0.1647

> <Gold.Chemscore.Rot>
4.0277

> <Gold.Chemscore.Internal.Correction>
   9.000000E+99

> <Gold.Chemscore.Hbonds>
donor molecule, donor type, donor heavy atom, donor atom, acceptor molecule, acceptor atom, score
      L1  H    15    30       P1  7948  1.00
      L1  H    17    31       P1  7957  0.88
      P1  H  6896  6909       L1     8  0.82
      P1  H  7989  7998       L1    17  0.08
      P1  H  7997  8009       L1    19  0.71

> <Gold.Chemscore.Hbond.Weighted>
-13.1467

> <Gold.Chemscore.Metal.Weighted>
-0.0000

> <Gold.Chemscore.Lipo.Weighted>
-2.8546

> <Gold.Chemscore.Internal_Hbond.Weighted>
0.0000

> <Gold.Chemscore.DEClash.Weighted>
0.0255

> <Gold.Chemscore.DEInternal.Weighted>
0.1647

> <Gold.Chemscore.Rot.Weighted>
10.3110

> <Gold.Chemscore.Internal.Correction.Weighted>
   9.000000E+99

> <Gold.Protein.RotatedTorsions>
[ 6907 6896 6895 6894 ] final  127.16 input  -60.11 | X-H torsion
[ 7974 7965 7964 7962 ] final   65.27 input  175.53 | X-H torsion
[ 8008 7997 7996 7995 ] final -156.81 input   59.86 | X-H torsion
[ 10167 10162 10161 10158 ] final -134.82 input  -65.29 | X-H torsion
[ 10718 10713 10712 10709 ] final   78.70 input   66.30 | X-H torsion
[ 10763 10752 10751 10750 ] final  176.63 input  -60.55 | X-H torsion
[ 11005 11000 10999 10996 ] final  157.52 input  -57.11 | X-H torsion

> <Gold.Protein.ActiveResidues>
 VAL166  LYS551  ARG553  GLY616  TRP617  ASP618  TYR619  PRO620  LYS621  CYS622 
 ASP623  PHE694  ASN695  SER759  ASP760  ASP761  ALA762  ILE779  LEU786  VAL792 
 PHE793  MET794  SER795  GLU796  ALA797  LYS798  CYS799  TRP800  GLU811  SER814 

> <Gold.Protein.RotatedAtoms>
  152.3838  133.6582  159.6181 H   0  0  0  0  0  0  0  0  0  0  0  0  # atno 6907 bound_to 6896
  150.7762  133.9070  159.3367 H   0  0  0  0  0  0  0  0  0  0  0  0  # atno 6908 bound_to 6896
  151.6870  135.0954  160.0278 H   0  0  0  0  0  0  0  0  0  0  0  0  # atno 6909 bound_to 6896
  145.8404  139.3192  143.0934 H   0  0  0  0  0  0  0  0  0  0  0  0  # atno 7974 bound_to 7965
  155.7228  140.0792  157.2323 H   0  0  0  0  0  0  0  0  0  0  0  0  # atno 8008 bound_to 7997
  154.4043  140.1609  156.2476 H   0  0  0  0  0  0  0  0  0  0  0  0  # atno 8009 bound_to 7997
  155.9180  140.3399  155.6153 H   0  0  0  0  0  0  0  0  0  0  0  0  # atno 8010 bound_to 7997
  139.8842  143.6802  152.2622 H   0  0  0  0  0  0  0  0  0  0  0  0  # atno 10167 bound_to 10162
  157.6753  130.9880  150.1825 H   0  0  0  0  0  0  0  0  0  0  0  0  # atno 10718 bound_to 10713
  154.4837  135.2776  155.1550 H   0  0  0  0  0  0  0  0  0  0  0  0  # atno 10763 bound_to 10752
  154.3250  135.6202  153.5529 H   0  0  0  0  0  0  0  0  0  0  0  0  # atno 10764 bound_to 10752
  152.9878  135.5752  154.5244 H   0  0  0  0  0  0  0  0  0  0  0  0  # atno 10765 bound_to 10752
  140.1777  134.8498  157.2766 H   0  0  0  0  0  0  0  0  0  0  0  0  # atno 11005 bound_to 11000
  145.9471  140.8936  143.0278 LP  0  0  0  0  0  0  0  0  0  0  0  0  # atno 17320 bound_to 7965
  144.6734  140.1629  143.7421 LP  0  0  0  0  0  0  0  0  0  0  0  0  # atno 17321 bound_to 7965
  139.7168  144.7610  151.1020 LP  0  0  0  0  0  0  0  0  0  0  0  0  # atno 17342 bound_to 10162
  140.7739  143.5259  150.9481 LP  0  0  0  0  0  0  0  0  0  0  0  0  # atno 17343 bound_to 10162
  156.2554  130.3705  149.8187 LP  0  0  0  0  0  0  0  0  0  0  0  0  # atno 17370 bound_to 10713
  156.5948  130.8521  151.3417 LP  0  0  0  0  0  0  0  0  0  0  0  0  # atno 17371 bound_to 10713
  140.2303  134.3917  155.7525 LP  0  0  0  0  0  0  0  0  0  0  0  0  # atno 17394 bound_to 11000
  141.2221  133.7211  156.8630 LP  0  0  0  0  0  0  0  0  0  0  0  0  # atno 17395 bound_to 11000

$$$$
