AV-unprocessed.smi:2427|AV-procd|sdf|9579|dock1
  -GOLD-   2272013213D 1   1.00000     0.00000
 Structure written by MMmdl.
 35 36  0  0  0  0  0  0  0  0  3 V2000
  151.1380  140.9335  157.7490 O   0  0  0  0  0  0  0  0  0  0  0  0
  150.6606  142.0672  157.6788 C   0  0  0  0  0  0  0  0  0  0  0  0
  151.4035  143.2786  158.2611 C   0  0  0  0  0  0  0  0  0  0  0  0
  152.0835  142.9944  159.5362 N   0  0  0  0  0  0  0  0  0  0  0  0
  153.1310  142.0528  159.5044 C   0  0  0  0  0  0  0  0  0  0  0  0
  153.8194  141.7098  160.6106 C   0  0  0  0  0  0  0  0  0  0  0  0
  154.8886  140.7370  160.5602 N   0  3  0  0  0  0  0  0  0  0  0  0
  155.1134  140.1640  159.4989 O   0  0  0  0  0  0  0  0  0  0  0  0
  155.5382  140.5126  161.5773 O   0  5  0  0  0  0  0  0  0  0  0  0
  153.4489  142.3469  161.8595 C   0  0  0  0  0  0  0  0  0  0  0  0
  152.4445  143.2447  161.8975 C   0  0  0  0  0  0  0  0  0  0  0  0
  151.6946  143.6138  160.6926 C   0  0  0  0  0  0  0  0  0  0  0  0
  150.7732  144.4299  160.7216 O   0  0  0  0  0  0  0  0  0  0  0  0
  149.4849  142.3320  157.0899 N   0  0  0  0  0  0  0  0  0  0  0  0
  148.6167  141.3419  156.4634 C   0  0  0  0  0  0  0  0  0  0  0  0
  148.2462  141.7381  155.0241 C   0  0  1  0  0  0  0  0  0  0  0  0
  148.1337  140.5530  154.0659 C   0  0  0  0  0  0  0  0  0  0  0  0
  147.1446  141.0306  153.0120 C   0  0  0  0  0  0  0  0  0  0  0  0
  146.5532  142.3123  153.6050 C   0  0  0  0  0  0  0  0  0  0  0  0
  146.9429  142.2963  154.9703 O   0  0  0  0  0  0  0  0  0  0  0  0
  152.1227  143.6276  157.5187 H   0  0  0  0  0  0  0  0  0  0  0  0
  150.6985  144.1032  158.3819 H   0  0  0  0  0  0  0  0  0  0  0  0
  153.3242  141.6309  158.5284 H   0  0  0  0  0  0  0  0  0  0  0  0
  153.9726  142.1075  162.7733 H   0  0  0  0  0  0  0  0  0  0  0  0
  152.1838  143.7054  162.8392 H   0  0  0  0  0  0  0  0  0  0  0  0
  149.1697  143.2911  157.0682 H   0  0  0  0  0  0  0  0  0  0  0  0
  149.1053  140.3662  156.4724 H   0  0  0  0  0  0  0  0  0  0  0  0
  147.7159  141.2428  157.0699 H   0  0  0  0  0  0  0  0  0  0  0  0
  148.9595  142.4621  154.6255 H   0  0  0  0  0  0  0  0  0  0  0  0
  149.0974  140.2659  153.6442 H   0  0  0  0  0  0  0  0  0  0  0  0
  147.7223  139.6846  154.5824 H   0  0  0  0  0  0  0  0  0  0  0  0
  147.6335  141.2329  152.0585 H   0  0  0  0  0  0  0  0  0  0  0  0
  146.3739  140.2782  152.8409 H   0  0  0  0  0  0  0  0  0  0  0  0
  146.9813  143.1917  153.1210 H   0  0  0  0  0  0  0  0  0  0  0  0
  145.4689  142.3618  153.5030 H   0  0  0  0  0  0  0  0  0  0  0  0
  1  2  2  0  0  0  0
  2  3  1  0  0  0  0
  2 14  1  0  0  0  0
  3  4  1  0  0  0  0
  3 21  1  0  0  0  0
  3 22  1  0  0  0  0
  4 12  1  0  0  0  0
  4  5  1  0  0  0  0
  5  6  2  0  0  0  0
  5 23  1  0  0  0  0
  6  7  1  0  0  0  0
  6 10  1  0  0  0  0
  7  8  2  0  0  0  0
  7  9  1  0  0  0  0
 10 11  2  0  0  0  0
 10 24  1  0  0  0  0
 11 12  1  0  0  0  0
 11 25  1  0  0  0  0
 12 13  2  0  0  0  0
 14 15  1  0  0  0  0
 14 26  1  0  0  0  0
 15 16  1  0  0  0  0
 15 27  1  0  0  0  0
 15 28  1  0  0  0  0
 16 20  1  0  0  0  0
 16 17  1  0  0  0  0
 16 29  1  0  0  0  0
 17 18  1  0  0  0  0
 17 30  1  0  0  0  0
 17 31  1  0  0  0  0
 18 19  1  0  0  0  0
 18 32  1  0  0  0  0
 18 33  1  0  0  0  0
 19 20  1  0  0  0  0
 19 34  1  0  0  0  0
 19 35  1  0  0  0  0
M  CHG  1   7   1
M  CHG  1   9  -1
M  END
> <s_m_source_file>
AV-unprocessed.smi

> <i_m_source_file_index>
2427

> <i_lp_mmshare_version>
43012

> <i_f3d_flags>
0

> <s_epik_input>
TzFbQ0gyXVtDSDJdW0NIMl1bQ0BIXTFbQ0gyXVtOSF1DKD1PKVtDSDJdbjJbY0hdYyhbTitdKD1PKVtPLV0pW2NIXVtjSF1jMj1P

> <s_epik_cmdline>
J2VwaWtfcHl0aG9uJywgJy1waCcsICc3LjAnLCAnLXRuJywgJzgnLCAnLW1hJywgJzIwMCcsICctbWV0YWxfYmluZGluZycsICctaW1hZScsICc8aW5maWxlLm1hZT4nLCAnLW9tYWUnLCAnPG91dGZpbGUubWFlPic=

> <r_lp_tautomer_probability>
1

> <r_epik_Ionization_Penalty>
2.69366e-08

> <r_epik_Ionization_Penalty_Charging>
7.76344e-11

> <r_epik_Ionization_Penalty_Neutral>
2.6859e-08

> <r_epik_State_Penalty>
-0

> <r_epik_Charging_Adjusted_Penalty>
7.76344e-11

> <i_epik_Tot_Q>
0

> <i_epik_Tot_abs_Q>
2

> <r_epik_Metal_State_Penalty>
-0

> <b_epik_Metal_Only>
0

> <s_lp_Force_Field>
OPLS_2005

> <r_lp_Energy>
28.9532

> <b_lp_Chiralities_Consistent>
1

> <s_lp_Variant>
AV-unprocessed.smi:2427-2

> <Gold.Version>
5.8.1

> <Gold.Id.Protein>
6NUR|6NUR_protein|mol2

> <Gold.PLP.Fitness>
47.2109

> <Gold.PLP.PLP>
-43.7378

> <Gold.PLP.part.hbond>
-3.0000

> <Gold.PLP.part.metal>
0.0000

> <Gold.PLP.part.buried>
-5.8244

> <Gold.PLP.part.nonpolar>
-34.0214

> <Gold.PLP.part.repulsive>
0.3330

> <Gold.PLP.ligand.clash>
0.0000

> <Gold.PLP.ligand.torsion>
0.8928

> <Gold.PLP.Chemscore.Hbond>
1.7321

> <Gold.PLP.Chemscore.CHOScore>
0.0000

> <Gold.PLP.Chemscore.Metal>
0.0000

> <Gold.Chemscore.Hbonds>
donor molecule, donor type, donor heavy atom, donor atom, acceptor molecule, acceptor atom, score
      L1  H    14    26       P1  8028  0.75
      P1  H  7997  8010       L1     8  0.70

> <Gold.PLP.Chemscore.Internal.Correction>
0.0622

> <Gold.Rescore>
     Score         DG    S(hbond)    S(metal)    S(lipo)     H(rot)  DE(clash)    DE(int)     intcor
     15.01     -17.20       1.88        0.00      88.14       1.90       0.04       2.15       ----

> <Gold.Chemscore.Fitness>
15.0113

> <Gold.Chemscore.DG>
-17.2043

> <Gold.Chemscore.ZeroCoef>
-5.4800

> <Gold.Chemscore.Hbond>
1.8823

> <Gold.Chemscore.Metal>
0.0000

> <Gold.Chemscore.Lipo>
88.1430

> <Gold.Chemscore.Internal_Hbond>
0.0000

> <Gold.Chemscore.DEClash>
0.0437

> <Gold.Chemscore.DEInternal>
2.1494

> <Gold.Chemscore.Rot>
1.9044

> <Gold.Chemscore.Internal.Correction>
   9.000000E+99

> <Gold.Chemscore.Hbonds>
donor molecule, donor type, donor heavy atom, donor atom, acceptor molecule, acceptor atom, score
      L1  H    14    26       P1  8028  0.61
      P1  H  7997  8010       L1     8  0.67

> <Gold.Chemscore.Hbond.Weighted>
-6.2869

> <Gold.Chemscore.Metal.Weighted>
-0.0000

> <Gold.Chemscore.Lipo.Weighted>
-10.3127

> <Gold.Chemscore.Internal_Hbond.Weighted>
0.0000

> <Gold.Chemscore.DEClash.Weighted>
0.0437

> <Gold.Chemscore.DEInternal.Weighted>
2.1494

> <Gold.Chemscore.Rot.Weighted>
4.8753

> <Gold.Chemscore.Internal.Correction.Weighted>
   9.000000E+99

> <Gold.Protein.RotatedTorsions>
[ 6907 6896 6895 6894 ] final  109.30 input  -60.11 | X-H torsion
[ 7974 7965 7964 7962 ] final -171.86 input  175.53 | X-H torsion
[ 8008 7997 7996 7995 ] final  -11.42 input   59.86 | X-H torsion
[ 10167 10162 10161 10158 ] final   40.90 input  -65.29 | X-H torsion
[ 10718 10713 10712 10709 ] final  158.47 input   66.30 | X-H torsion
[ 10763 10752 10751 10750 ] final  -14.39 input  -60.55 | X-H torsion
[ 11005 11000 10999 10996 ] final  -88.01 input  -57.11 | X-H torsion

> <Gold.Protein.ActiveResidues>
 VAL166  LYS551  ARG553  GLY616  TRP617  ASP618  TYR619  PRO620  LYS621  CYS622 
 ASP623  PHE694  ASN695  SER759  ASP760  ASP761  ALA762  ILE779  LEU786  VAL792 
 PHE793  MET794  SER795  GLU796  ALA797  LYS798  CYS799  TRP800  GLU811  SER814 

> <Gold.Protein.RotatedAtoms>
  152.5074  133.8965  159.7419 H   0  0  0  0  0  0  0  0  0  0  0  0  # atno 6907 bound_to 6896
  150.9391  133.6669  159.2801 H   0  0  0  0  0  0  0  0  0  0  0  0  # atno 6908 bound_to 6896
  151.3987  135.0972  159.9601 H   0  0  0  0  0  0  0  0  0  0  0  0  # atno 6909 bound_to 6896
  144.7152  140.1859  143.6353 H   0  0  0  0  0  0  0  0  0  0  0  0  # atno 7974 bound_to 7965
  154.5467  140.2303  155.8552 H   0  0  0  0  0  0  0  0  0  0  0  0  # atno 8008 bound_to 7997
  156.1909  140.3077  155.9292 H   0  0  0  0  0  0  0  0  0  0  0  0  # atno 8009 bound_to 7997
  155.3151  140.0437  157.3027 H   0  0  0  0  0  0  0  0  0  0  0  0  # atno 8010 bound_to 7997
  140.3696  144.2122  150.6134 H   0  0  0  0  0  0  0  0  0  0  0  0  # atno 10167 bound_to 10162
  157.1775  131.0624  151.2150 H   0  0  0  0  0  0  0  0  0  0  0  0  # atno 10718 bound_to 10713
  153.5276  135.7015  153.5699 H   0  0  0  0  0  0  0  0  0  0  0  0  # atno 10763 bound_to 10752
  153.3721  135.3942  155.1796 H   0  0  0  0  0  0  0  0  0  0  0  0  # atno 10764 bound_to 10752
  154.8688  135.3814  154.4770 H   0  0  0  0  0  0  0  0  0  0  0  0  # atno 10765 bound_to 10752
  141.1608  133.7545  156.9390 H   0  0  0  0  0  0  0  0  0  0  0  0  # atno 11005 bound_to 11000
  145.8814  139.2325  143.1603 LP  0  0  0  0  0  0  0  0  0  0  0  0  # atno 17320 bound_to 7965
  145.9991  140.8535  143.0027 LP  0  0  0  0  0  0  0  0  0  0  0  0  # atno 17321 bound_to 7965
  140.5046  143.2308  151.8627 LP  0  0  0  0  0  0  0  0  0  0  0  0  # atno 17342 bound_to 10162
  139.4805  144.5020  151.9048 LP  0  0  0  0  0  0  0  0  0  0  0  0  # atno 17343 bound_to 10162
  157.3984  130.7320  149.6749 LP  0  0  0  0  0  0  0  0  0  0  0  0  # atno 17370 bound_to 10713
  155.9729  130.4127  150.4046 LP  0  0  0  0  0  0  0  0  0  0  0  0  # atno 17371 bound_to 10713
  140.1335  134.9340  157.2369 LP  0  0  0  0  0  0  0  0  0  0  0  0  # atno 17394 bound_to 11000
  140.2924  134.3225  155.7311 LP  0  0  0  0  0  0  0  0  0  0  0  0  # atno 17395 bound_to 11000

$$$$
