AV-unprocessed.smi:3337|AV-procd|sdf|12865|dock4
  -GOLD-   2272019263D 1   1.00000     0.00000
 Structure written by MMmdl.
 46 47  0  0  0  0  0  0  0  0  2 V2000
  144.5203  132.6974  149.6567 C   0  0  0  0  0  0  0  0  0  0  0  0
  145.5637  131.9179  150.4700 C   0  0  2  0  0  0  0  0  0  0  0  0
  144.8942  130.9168  151.4287 C   0  0  0  0  0  0  0  0  0  0  0  0
  145.9305  130.1758  152.2940 C   0  0  1  0  0  0  0  0  0  0  0  0
  146.7117  129.1063  151.5107 C   0  0  0  0  0  0  0  0  0  0  0  0
  146.8638  131.1796  152.9998 C   0  0  0  0  0  0  0  0  0  0  0  0
  147.5049  132.1112  152.0347 N   0  3  2  0  0  0  0  0  0  0  0  0
  148.5160  132.9819  152.6864 C   0  0  0  0  0  0  0  0  0  0  0  0
  147.9562  133.7150  153.9204 C   0  0  0  0  0  0  0  0  0  0  0  0
  147.1592  134.8739  153.5375 N   0  0  0  0  0  0  0  0  0  0  0  0
  145.9386  135.1613  154.0193 C   0  0  0  0  0  0  0  0  0  0  0  0
  145.3511  134.4307  154.8183 O   0  0  0  0  0  0  0  0  0  0  0  0
  145.2878  136.4615  153.5116 C   0  0  1  0  0  0  0  0  0  0  0  0
  145.6617  136.7947  152.0531 C   0  0  0  0  0  0  0  0  0  0  0  0
  143.8409  136.4284  153.6934 N   0  0  0  0  0  0  0  0  0  0  0  0
  142.8610  136.7824  152.8591 C   0  0  0  0  0  0  0  0  0  0  0  0
  141.6447  136.6425  153.3672 N   0  0  0  0  0  0  0  0  0  0  0  0
  141.9679  136.1637  154.6051 C   0  0  0  0  0  0  0  0  0  0  0  0
  143.2695  136.0209  154.8544 N   0  0  0  0  0  0  0  0  0  0  0  0
  146.4912  132.8675  151.2525 C   0  0  0  0  0  0  0  0  0  0  0  0
  143.8708  133.2876  150.3040 H   0  0  0  0  0  0  0  0  0  0  0  0
  143.8892  132.0216  149.0786 H   0  0  0  0  0  0  0  0  0  0  0  0
  144.9989  133.3803  148.9539 H   0  0  0  0  0  0  0  0  0  0  0  0
  146.1738  131.3599  149.7586 H   0  0  0  0  0  0  0  0  0  0  0  0
  144.2048  131.4526  152.0831 H   0  0  0  0  0  0  0  0  0  0  0  0
  144.2882  130.2016  150.8709 H   0  0  0  0  0  0  0  0  0  0  0  0
  145.3799  129.6425  153.0701 H   0  0  0  0  0  0  0  0  0  0  0  0
  147.3237  129.5425  150.7213 H   0  0  0  0  0  0  0  0  0  0  0  0
  146.0351  128.3875  151.0475 H   0  0  0  0  0  0  0  0  0  0  0  0
  147.3770  128.5488  152.1706 H   0  0  0  0  0  0  0  0  0  0  0  0
  146.2995  131.7602  153.7313 H   0  0  0  0  0  0  0  0  0  0  0  0
  147.6261  130.6343  153.5580 H   0  0  0  0  0  0  0  0  0  0  0  0
  149.3966  132.3939  152.9502 H   0  0  0  0  0  0  0  0  0  0  0  0
  148.8507  133.7314  151.9677 H   0  0  0  0  0  0  0  0  0  0  0  0
  147.3590  133.0358  154.5316 H   0  0  0  0  0  0  0  0  0  0  0  0
  148.7603  134.0789  154.5584 H   0  0  0  0  0  0  0  0  0  0  0  0
  147.5751  135.5200  152.8821 H   0  0  0  0  0  0  0  0  0  0  0  0
  145.6715  137.2676  154.1388 H   0  0  0  0  0  0  0  0  0  0  0  0
  146.7406  136.9017  151.9354 H   0  0  0  0  0  0  0  0  0  0  0  0
  145.2065  137.7348  151.7404 H   0  0  0  0  0  0  0  0  0  0  0  0
  145.3274  136.0208  151.3609 H   0  0  0  0  0  0  0  0  0  0  0  0
  143.0405  137.1533  151.8607 H   0  0  0  0  0  0  0  0  0  0  0  0
  141.2219  135.9177  155.3462 H   0  0  0  0  0  0  0  0  0  0  0  0
  146.9820  133.5363  150.5467 H   0  0  0  0  0  0  0  0  0  0  0  0
  145.9082  133.4969  151.9270 H   0  0  0  0  0  0  0  0  0  0  0  0
  148.0099  131.5308  151.3801 H   0  0  0  0  0  0  0  0  0  0  0  0
  1  2  1  0  0  0  0
  1 21  1  0  0  0  0
  1 22  1  0  0  0  0
  1 23  1  0  0  0  0
  2 20  1  0  0  0  0
  2  3  1  0  0  0  0
  2 24  1  0  0  0  0
  3  4  1  0  0  0  0
  3 25  1  0  0  0  0
  3 26  1  0  0  0  0
  4  5  1  0  0  0  0
  4  6  1  0  0  0  0
  4 27  1  0  0  0  0
  5 28  1  0  0  0  0
  5 29  1  0  0  0  0
  5 30  1  0  0  0  0
  6  7  1  0  0  0  0
  6 31  1  0  0  0  0
  6 32  1  0  0  0  0
  7  8  1  0  0  0  0
  7 20  1  0  0  0  0
  7 46  1  0  0  0  0
  8  9  1  0  0  0  0
  8 33  1  0  0  0  0
  8 34  1  0  0  0  0
  9 10  1  0  0  0  0
  9 35  1  0  0  0  0
  9 36  1  0  0  0  0
 10 11  1  0  0  0  0
 10 37  1  0  0  0  0
 11 12  2  0  0  0  0
 11 13  1  0  0  0  0
 13 14  1  0  0  0  0
 13 15  1  0  0  0  0
 13 38  1  0  0  0  0
 14 39  1  0  0  0  0
 14 40  1  0  0  0  0
 14 41  1  0  0  0  0
 15 19  1  0  0  0  0
 15 16  1  0  0  0  0
 16 17  2  0  0  0  0
 16 42  1  0  0  0  0
 17 18  1  0  0  0  0
 18 19  2  0  0  0  0
 18 43  1  0  0  0  0
 20 44  1  0  0  0  0
 20 45  1  0  0  0  0
M  CHG  1   7   1
M  END
> <s_m_source_file>
AV-unprocessed.smi

> <i_m_source_file_index>
3337

> <i_lp_mmshare_version>
43012

> <i_f3d_flags>
0

> <s_epik_input>
W0NIM11bQ0BASF0xW0NIMl1bQ0BASF0oW0NIM10pW0NIMl1OKFtDSDJdMSlbQ0gyXVtDSDJdW05IXUMoPU8pW0NASF0oW0NIM10pbjJbY0hdbltjSF1uMg==

> <s_epik_cmdline>
J2VwaWtfcHl0aG9uJywgJy1waCcsICc3LjAnLCAnLXRuJywgJzgnLCAnLW1hJywgJzIwMCcsICctbWV0YWxfYmluZGluZycsICctaW1hZScsICc8aW5maWxlLm1hZT4nLCAnLW9tYWUnLCAnPG91dGZpbGUubWFlPic=

> <r_lp_tautomer_probability>
1

> <r_epik_Ionization_Penalty>
0.00175613

> <r_epik_Ionization_Penalty_Charging>
0.00174812

> <r_epik_Ionization_Penalty_Neutral>
8.01354e-06

> <r_epik_State_Penalty>
0.00118332

> <r_epik_Charging_Adjusted_Penalty>
0.00293143

> <i_epik_Tot_Q>
1

> <i_epik_Tot_abs_Q>
1

> <r_epik_Metal_State_Penalty>
-0

> <b_epik_Metal_Only>
0

> <s_lp_Force_Field>
OPLS_2005

> <r_lp_Energy>
24.7209

> <b_lp_Chiralities_Consistent>
1

> <s_lp_Variant>
AV-unprocessed.smi:3337-5

> <Gold.Version>
5.8.1

> <Gold.Id.Protein>
6NUR|6NUR_protein|mol2

> <Gold.PLP.Fitness>
41.7180

> <Gold.PLP.PLP>
-31.8445

> <Gold.PLP.part.hbond>
-2.0000

> <Gold.PLP.part.metal>
0.0000

> <Gold.PLP.part.buried>
-3.6805

> <Gold.PLP.part.nonpolar>
-26.5886

> <Gold.PLP.part.repulsive>
0.2893

> <Gold.PLP.ligand.clash>
0.0000

> <Gold.PLP.ligand.torsion>
1.1130

> <Gold.PLP.Chemscore.Hbond>
2.0000

> <Gold.PLP.Chemscore.CHOScore>
1.9896

> <Gold.PLP.Chemscore.Metal>
0.0000

> <Gold.Chemscore.Hbonds>
donor molecule, donor type, donor heavy atom, donor atom, acceptor molecule, acceptor atom, score
      L1  H     7    46       P1 10747  1.00
      L1  H    10    37       P1  7948  1.00
      L1  C    16    42       P1 10171  0.79
      L1  C    18    43       P1 11000  0.83

> <Gold.PLP.Chemscore.Internal.Correction>
0.1307

> <Gold.Rescore>
     Score         DG    S(hbond)    S(metal)    S(lipo)     H(rot)  DE(clash)    DE(int)     intcor
     13.78     -15.50       1.97        0.00      84.25       2.51       0.03       1.69       ----

> <Gold.Chemscore.Fitness>
13.7817

> <Gold.Chemscore.DG>
-15.4963

> <Gold.Chemscore.ZeroCoef>
-5.4800

> <Gold.Chemscore.Hbond>
1.9736

> <Gold.Chemscore.Metal>
0.0000

> <Gold.Chemscore.Lipo>
84.2510

> <Gold.Chemscore.Internal_Hbond>
0.0000

> <Gold.Chemscore.DEClash>
0.0268

> <Gold.Chemscore.DEInternal>
1.6879

> <Gold.Chemscore.Rot>
2.5129

> <Gold.Chemscore.Internal.Correction>
   9.000000E+99

> <Gold.Chemscore.Hbonds>
donor molecule, donor type, donor heavy atom, donor atom, acceptor molecule, acceptor atom, score
      L1  H     7    46       P1 10747  0.99
      L1  H    10    37       P1  7948  0.98

> <Gold.Chemscore.Hbond.Weighted>
-6.5920

> <Gold.Chemscore.Metal.Weighted>
-0.0000

> <Gold.Chemscore.Lipo.Weighted>
-9.8574

> <Gold.Chemscore.Internal_Hbond.Weighted>
0.0000

> <Gold.Chemscore.DEClash.Weighted>
0.0268

> <Gold.Chemscore.DEInternal.Weighted>
1.6879

> <Gold.Chemscore.Rot.Weighted>
6.4331

> <Gold.Chemscore.Internal.Correction.Weighted>
   9.000000E+99

> <Gold.Protein.RotatedTorsions>
[ 6907 6896 6895 6894 ] final -104.06 input  -60.11 | X-H torsion
[ 7974 7965 7964 7962 ] final   42.21 input  175.53 | X-H torsion
[ 8008 7997 7996 7995 ] final  -32.77 input   59.86 | X-H torsion
[ 10167 10162 10161 10158 ] final  -37.38 input  -65.29 | X-H torsion
[ 10718 10713 10712 10709 ] final   47.86 input   66.30 | X-H torsion
[ 10763 10752 10751 10750 ] final  -15.55 input  -60.55 | X-H torsion
[ 11005 11000 10999 10996 ] final -149.82 input  -57.11 | X-H torsion

> <Gold.Protein.ActiveResidues>
 VAL166  LYS551  ARG553  GLY616  TRP617  ASP618  TYR619  PRO620  LYS621  CYS622 
 ASP623  PHE694  ASN695  SER759  ASP760  ASP761  ALA762  ILE779  LEU786  VAL792 
 PHE793  MET794  SER795  GLU796  ALA797  LYS798  CYS799  TRP800  GLU811  SER814 

> <Gold.Protein.RotatedAtoms>
  150.7269  134.0335  159.3741 H   0  0  0  0  0  0  0  0  0  0  0  0  # atno 6907 bound_to 6896
  151.8305  135.0621  160.0445 H   0  0  0  0  0  0  0  0  0  0  0  0  # atno 6908 bound_to 6896
  152.2937  133.5550  159.5610 H   0  0  0  0  0  0  0  0  0  0  0  0  # atno 6909 bound_to 6896
  146.0759  139.5326  142.9568 H   0  0  0  0  0  0  0  0  0  0  0  0  # atno 7974 bound_to 7965
  154.4169  140.1728  156.1780 H   0  0  0  0  0  0  0  0  0  0  0  0  # atno 8008 bound_to 7997
  155.9706  140.3386  155.6548 H   0  0  0  0  0  0  0  0  0  0  0  0  # atno 8009 bound_to 7997
  155.6631  140.0703  157.2538 H   0  0  0  0  0  0  0  0  0  0  0  0  # atno 8010 bound_to 7997
  140.7119  143.3345  151.2493 H   0  0  0  0  0  0  0  0  0  0  0  0  # atno 10167 bound_to 10162
  157.4628  130.8207  149.7904 H   0  0  0  0  0  0  0  0  0  0  0  0  # atno 10718 bound_to 10713
  153.5451  135.7012  153.5618 H   0  0  0  0  0  0  0  0  0  0  0  0  # atno 10763 bound_to 10752
  153.3566  135.3981  155.1687 H   0  0  0  0  0  0  0  0  0  0  0  0  # atno 10764 bound_to 10752
  154.8668  135.3778  154.4958 H   0  0  0  0  0  0  0  0  0  0  0  0  # atno 10765 bound_to 10752
  140.7467  134.3453  157.5135 H   0  0  0  0  0  0  0  0  0  0  0  0  # atno 11005 bound_to 11000
  145.6307  141.0304  143.1865 LP  0  0  0  0  0  0  0  0  0  0  0  0  # atno 17320 bound_to 7965
  144.7261  139.7871  143.7364 LP  0  0  0  0  0  0  0  0  0  0  0  0  # atno 17321 bound_to 7965
  139.6837  143.9811  152.2822 LP  0  0  0  0  0  0  0  0  0  0  0  0  # atno 17342 bound_to 10162
  139.9449  144.6658  150.8229 LP  0  0  0  0  0  0  0  0  0  0  0  0  # atno 17343 bound_to 10162
  156.0036  130.3867  150.2512 LP  0  0  0  0  0  0  0  0  0  0  0  0  # atno 17370 bound_to 10713
  157.0690  131.0111  151.3196 LP  0  0  0  0  0  0  0  0  0  0  0  0  # atno 17371 bound_to 10713
  139.8795  134.9116  156.3040 LP  0  0  0  0  0  0  0  0  0  0  0  0  # atno 17394 bound_to 11000
  140.9788  133.7280  156.0641 LP  0  0  0  0  0  0  0  0  0  0  0  0  # atno 17395 bound_to 11000

$$$$
