AV-unprocessed.smi:69|AV-procd|sdf|646|dock2
  -GOLD-   2262016543D 1   1.00000     0.00000
 Structure written by MMmdl.
 32 34  0  0  0  0  0  0  0  0  1 V2000
  153.8859  142.6004  159.7916 N   0  0  0  0  0  0  0  0  0  0  0  0
  153.1046  141.6327  159.2930 C   0  0  0  0  0  0  0  0  0  0  0  0
  153.4347  140.3449  159.5480 N   0  0  0  0  0  0  0  0  0  0  0  0
  152.6702  139.3615  159.0622 C   0  0  0  0  0  0  0  0  0  0  0  0
  151.5637  139.4527  158.3202 N   0  0  0  0  0  0  0  0  0  0  0  0
  151.2311  140.7521  158.0650 C   0  0  0  0  0  0  0  0  0  0  0  0
  151.9495  141.8949  158.5136 C   0  0  0  0  0  0  0  0  0  0  0  0
  151.3267  143.0520  158.0658 N   0  0  0  0  0  0  0  0  0  0  0  0
  150.2982  142.6131  157.3910 C   0  0  0  0  0  0  0  0  0  0  0  0
  150.1601  141.2428  157.3447 N   0  0  0  0  0  0  0  0  0  0  0  0
  149.0821  140.4562  156.6642 C   0  0  1  0  0  0  0  0  0  0  0  0
  148.0331  141.3176  156.3530 O   0  0  0  0  0  0  0  0  0  0  0  0
  147.4430  140.9065  155.1260 C   0  0  1  0  0  0  0  0  0  0  0  0
  146.6065  142.0408  154.5085 C   0  0  0  0  0  0  0  0  0  0  0  0
  146.2083  141.6923  153.1997 O   0  0  0  0  0  0  0  0  0  0  0  0
  148.6496  140.4418  154.2964 C   0  0  1  0  0  0  0  0  0  0  0  0
  149.2706  141.5340  153.6399 O   0  0  0  0  0  0  0  0  0  0  0  0
  149.5498  139.7963  155.3488 C   0  0  1  0  0  0  0  0  0  0  0  0
  150.9343  139.9070  155.0579 O   0  0  0  0  0  0  0  0  0  0  0  0
  148.7582  139.7274  157.4089 H   0  0  0  0  0  0  0  0  0  0  0  0
  146.8116  140.0373  155.3212 H   0  0  0  0  0  0  0  0  0  0  0  0
  148.3552  139.7220  153.5320 H   0  0  0  0  0  0  0  0  0  0  0  0
  149.3053  138.7358  155.4230 H   0  0  0  0  0  0  0  0  0  0  0  0
  153.6599  143.5692  159.6164 H   0  0  0  0  0  0  0  0  0  0  0  0
  154.6951  142.3594  160.3448 H   0  0  0  0  0  0  0  0  0  0  0  0
  152.9887  138.3581  159.3027 H   0  0  0  0  0  0  0  0  0  0  0  0
  149.6021  143.2837  156.9086 H   0  0  0  0  0  0  0  0  0  0  0  0
  145.7343  142.2702  155.1214 H   0  0  0  0  0  0  0  0  0  0  0  0
  147.2027  142.9508  154.4346 H   0  0  0  0  0  0  0  0  0  0  0  0
  145.4286  141.1612  153.2554 H   0  0  0  0  0  0  0  0  0  0  0  0
  149.6023  141.2308  152.8083 H   0  0  0  0  0  0  0  0  0  0  0  0
  151.3864  140.1686  155.8453 H   0  0  0  0  0  0  0  0  0  0  0  0
  1  2  1  0  0  0  0
  1 24  1  0  0  0  0
  1 25  1  0  0  0  0
  2  7  1  0  0  0  0
  2  3  2  0  0  0  0
  3  4  1  0  0  0  0
  4  5  2  0  0  0  0
  4 26  1  0  0  0  0
  5  6  1  0  0  0  0
  6 10  1  0  0  0  0
  6  7  2  0  0  0  0
  7  8  1  0  0  0  0
  8  9  2  0  0  0  0
  9 10  1  0  0  0  0
  9 27  1  0  0  0  0
 10 11  1  0  0  0  0
 11 20  1  0  0  0  0
 11 18  1  0  0  0  0
 11 12  1  0  0  0  0
 12 13  1  0  0  0  0
 13 21  1  0  0  0  0
 13 14  1  0  0  0  0
 13 16  1  0  0  0  0
 14 15  1  0  0  0  0
 14 28  1  0  0  0  0
 14 29  1  0  0  0  0
 15 30  1  0  0  0  0
 16 22  1  0  0  0  0
 16 17  1  0  0  0  0
 16 18  1  0  0  0  0
 17 31  1  0  0  0  0
 18 23  1  0  0  0  0
 18 19  1  0  0  0  0
 19 32  1  0  0  0  0
M  END
> <s_m_source_file>
AV-unprocessed.smi

> <i_m_source_file_index>
69

> <i_lp_mmshare_version>
43012

> <i_f3d_flags>
0

> <s_epik_input>
bjFbY0hdbmMoW05IMl0pYyhjMTIpbltjSF1uMltDQEBIXTNPW0NASF0oW0NIMl1bT0hdKVtDQEBIXShbT0hdKVtDQEhdM1tPSF0=

> <s_epik_cmdline>
J2VwaWtfcHl0aG9uJywgJy1waCcsICc3LjAnLCAnLXRuJywgJzgnLCAnLW1hJywgJzIwMCcsICctbWV0YWxfYmluZGluZycsICctaW1hZScsICc8aW5maWxlLm1hZT4nLCAnLW9tYWUnLCAnPG91dGZpbGUubWFlPic=

> <r_lp_tautomer_probability>
1

> <r_epik_Ionization_Penalty>
0.000428445

> <r_epik_Ionization_Penalty_Charging>
0

> <r_epik_Ionization_Penalty_Neutral>
0.000428445

> <r_epik_State_Penalty>
-0

> <r_epik_Charging_Adjusted_Penalty>
0

> <i_epik_Tot_Q>
0

> <i_epik_Tot_abs_Q>
0

> <r_epik_Metal_State_Penalty>
-0

> <b_epik_Metal_Only>
0

> <s_epik_Chemistry_Notes>
This compound contains an acetal/aminal-like group ( X-CH(R)-Y where X, Y are N, S, or O) that may be acid/base labile, releasing an aldehyde.

> <s_lp_Force_Field>
OPLS_2005

> <r_lp_Energy>
45.7014

> <b_lp_Chiralities_Consistent>
1

> <s_lp_Variant>
AV-unprocessed.smi:69-4

> <Gold.Version>
5.8.1

> <Gold.Id.Protein>
6NUR|6NUR_protein|mol2

> <Gold.PLP.Fitness>
35.3100

> <Gold.PLP.PLP>
-24.1304

> <Gold.PLP.part.hbond>
-4.9387

> <Gold.PLP.part.metal>
0.0000

> <Gold.PLP.part.buried>
-1.3488

> <Gold.PLP.part.nonpolar>
-17.5730

> <Gold.PLP.part.repulsive>
0.2164

> <Gold.PLP.ligand.clash>
0.0000

> <Gold.PLP.ligand.torsion>
0.4115

> <Gold.PLP.Chemscore.Hbond>
3.0000

> <Gold.PLP.Chemscore.CHOScore>
1.0000

> <Gold.PLP.Chemscore.Metal>
0.0000

> <Gold.Chemscore.Hbonds>
donor molecule, donor type, donor heavy atom, donor atom, acceptor molecule, acceptor atom, score
      L1  H    15    30       P1 10175  1.00
      L1  H    17    31       P1  7957  1.00
      P1  H  7989  7998       L1    19  1.00
      L1  C     9    27       P1  8028  0.99

> <Gold.PLP.Chemscore.Internal.Correction>
0.0026

> <Gold.Rescore>
     Score         DG    S(hbond)    S(metal)    S(lipo)     H(rot)  DE(clash)    DE(int)     intcor
      6.93      -7.85       2.72        0.00      30.61       4.03       0.52       0.40       ----

> <Gold.Chemscore.Fitness>
6.9298

> <Gold.Chemscore.DG>
-7.8472

> <Gold.Chemscore.ZeroCoef>
-5.4800

> <Gold.Chemscore.Hbond>
2.7235

> <Gold.Chemscore.Metal>
0.0000

> <Gold.Chemscore.Lipo>
30.6117

> <Gold.Chemscore.Internal_Hbond>
0.0000

> <Gold.Chemscore.DEClash>
0.5211

> <Gold.Chemscore.DEInternal>
0.3963

> <Gold.Chemscore.Rot>
4.0277

> <Gold.Chemscore.Internal.Correction>
   9.000000E+99

> <Gold.Chemscore.Hbonds>
donor molecule, donor type, donor heavy atom, donor atom, acceptor molecule, acceptor atom, score
      L1  H    15    30       P1 10175  0.27
      L1  H    17    31       P1  7957  0.93
      P1  H  7989  7998       L1    19  0.77

> <Gold.Chemscore.Hbond.Weighted>
-9.0966

> <Gold.Chemscore.Metal.Weighted>
-0.0000

> <Gold.Chemscore.Lipo.Weighted>
-3.5816

> <Gold.Chemscore.Internal_Hbond.Weighted>
0.0000

> <Gold.Chemscore.DEClash.Weighted>
0.5211

> <Gold.Chemscore.DEInternal.Weighted>
0.3963

> <Gold.Chemscore.Rot.Weighted>
10.3110

> <Gold.Chemscore.Internal.Correction.Weighted>
   9.000000E+99

> <Gold.Protein.RotatedTorsions>
[ 6907 6896 6895 6894 ] final  148.10 input  -60.11 | X-H torsion
[ 7974 7965 7964 7962 ] final -112.48 input  175.53 | X-H torsion
[ 8008 7997 7996 7995 ] final  -93.19 input   59.86 | X-H torsion
[ 10167 10162 10161 10158 ] final   59.25 input  -65.29 | X-H torsion
[ 10718 10713 10712 10709 ] final   41.19 input   66.30 | X-H torsion
[ 10763 10752 10751 10750 ] final  -61.04 input  -60.55 | X-H torsion
[ 11005 11000 10999 10996 ] final   38.21 input  -57.11 | X-H torsion

> <Gold.Protein.ActiveResidues>
 VAL166  LYS551  ARG553  GLY616  TRP617  ASP618  TYR619  PRO620  LYS621  CYS622 
 ASP623  PHE694  ASN695  SER759  ASP760  ASP761  ALA762  ILE779  LEU786  VAL792 
 PHE793  MET794  SER795  GLU796  ALA797  LYS798  CYS799  TRP800  GLU811  SER814 

> <Gold.Protein.RotatedAtoms>
  152.1460  133.4493  159.4789 H   0  0  0  0  0  0  0  0  0  0  0  0  # atno 6907 bound_to 6896
  150.6890  134.2247  159.4420 H   0  0  0  0  0  0  0  0  0  0  0  0  # atno 6908 bound_to 6896
  152.0141  134.9859  160.0619 H   0  0  0  0  0  0  0  0  0  0  0  0  # atno 6909 bound_to 6896
  145.1434  140.8790  143.3688 H   0  0  0  0  0  0  0  0  0  0  0  0  # atno 7974 bound_to 7965
  154.7326  140.0501  157.0740 H   0  0  0  0  0  0  0  0  0  0  0  0  # atno 8008 bound_to 7997
  155.0282  140.3155  155.4749 H   0  0  0  0  0  0  0  0  0  0  0  0  # atno 8009 bound_to 7997
  156.2845  140.2154  156.5402 H   0  0  0  0  0  0  0  0  0  0  0  0  # atno 8010 bound_to 7997
  140.1784  144.4206  150.6627 H   0  0  0  0  0  0  0  0  0  0  0  0  # atno 10167 bound_to 10162
  157.3907  130.7805  149.7267 H   0  0  0  0  0  0  0  0  0  0  0  0  # atno 10718 bound_to 10713
  154.2784  135.6276  153.5337 H   0  0  0  0  0  0  0  0  0  0  0  0  # atno 10763 bound_to 10752
  152.9869  135.5627  154.5522 H   0  0  0  0  0  0  0  0  0  0  0  0  # atno 10764 bound_to 10752
  154.5108  135.2877  155.1320 H   0  0  0  0  0  0  0  0  0  0  0  0  # atno 10765 bound_to 10752
  140.2148  134.3711  155.8032 H   0  0  0  0  0  0  0  0  0  0  0  0  # atno 11005 bound_to 11000
  145.0507  139.3184  143.5930 LP  0  0  0  0  0  0  0  0  0  0  0  0  # atno 17320 bound_to 7965
  146.3502  139.9914  142.8685 LP  0  0  0  0  0  0  0  0  0  0  0  0  # atno 17321 bound_to 7965
  140.6536  143.2231  151.6021 LP  0  0  0  0  0  0  0  0  0  0  0  0  # atno 17342 bound_to 10162
  139.5307  144.2926  152.1140 LP  0  0  0  0  0  0  0  0  0  0  0  0  # atno 17343 bound_to 10162
  155.9798  130.4036  150.3568 LP  0  0  0  0  0  0  0  0  0  0  0  0  # atno 17370 bound_to 10713
  157.1683  131.0362  151.2807 LP  0  0  0  0  0  0  0  0  0  0  0  0  # atno 17371 bound_to 10713
  141.2225  133.7162  156.8479 LP  0  0  0  0  0  0  0  0  0  0  0  0  # atno 17394 bound_to 11000
  140.1912  134.8964  157.3062 LP  0  0  0  0  0  0  0  0  0  0  0  0  # atno 17395 bound_to 11000

$$$$
