AV-unprocessed.smi:1254|AV-procd|sdf|5270|dock3
  -GOLD-   22720 4383D 1   1.00000     0.00000
 Structure written by MMmdl.
 46 47  0  0  0  0  0  0  0  0  2 V2000
  144.4579  131.8699  150.5781 C   0  0  0  0  0  0  0  0  0  0  0  0
  144.8101  133.1954  151.1609 C   0  0  0  0  0  0  0  0  0  0  0  0
  145.7784  134.1141  150.8669 C   0  0  0  0  0  0  0  0  0  0  0  0
  145.5427  135.1426  151.8174 C   0  0  0  0  0  0  0  0  0  0  0  0
  146.3572  136.3034  151.8518 N   0  0  0  0  0  0  0  0  0  0  0  0
  146.0000  137.5418  152.2322 C   0  0  0  0  0  0  0  0  0  0  0  0
  144.8705  137.8760  152.5905 O   0  0  0  0  0  0  0  0  0  0  0  0
  147.0397  138.3871  152.1811 N   0  0  0  0  0  0  0  0  0  0  0  0
  146.9929  139.7975  152.5549 C   0  0  0  0  0  0  0  0  0  0  0  0
  147.6827  140.0523  153.9072 C   0  0  1  0  0  0  0  0  0  0  0  0
  148.0800  141.5340  154.0768 C   0  0  0  0  0  0  0  0  0  0  0  0
  148.6899  141.7825  155.4066 N   0  3  2  0  0  0  0  0  0  0  0  0
  150.1022  141.3250  155.5108 C   0  0  0  0  0  0  0  0  0  0  0  0
  150.6546  141.4035  156.9504 C   0  0  0  0  0  0  0  0  0  0  0  0
  151.0430  142.8402  157.3380 C   0  0  0  0  0  0  0  0  0  0  0  0
  151.8553  140.4610  157.1206 C   0  0  0  0  0  0  0  0  0  0  0  0
  147.7959  141.2924  156.4869 C   0  0  0  0  0  0  0  0  0  0  0  0
  147.3647  139.8335  156.2453 C   0  0  0  0  0  0  0  0  0  0  0  0
  146.7796  139.7148  154.9555 O   0  0  0  0  0  0  0  0  0  0  0  0
  144.5216  134.8772  152.6176 N   0  0  0  0  0  0  0  0  0  0  0  0
  144.0467  133.6281  152.2007 O   0  0  0  0  0  0  0  0  0  0  0  0
  145.1116  131.6265  149.7401 H   0  0  0  0  0  0  0  0  0  0  0  0
  143.4294  131.8670  150.2172 H   0  0  0  0  0  0  0  0  0  0  0  0
  144.5574  131.0816  151.3243 H   0  0  0  0  0  0  0  0  0  0  0  0
  146.5336  134.0550  150.0972 H   0  0  0  0  0  0  0  0  0  0  0  0
  147.3187  136.1716  151.5752 H   0  0  0  0  0  0  0  0  0  0  0  0
  147.9303  138.0282  151.8693 H   0  0  0  0  0  0  0  0  0  0  0  0
  147.5054  140.3567  151.7718 H   0  0  0  0  0  0  0  0  0  0  0  0
  145.9644  140.1630  152.5697 H   0  0  0  0  0  0  0  0  0  0  0  0
  148.5708  139.4210  153.9712 H   0  0  0  0  0  0  0  0  0  0  0  0
  148.7574  141.8508  153.2828 H   0  0  0  0  0  0  0  0  0  0  0  0
  147.1919  142.1612  153.9865 H   0  0  0  0  0  0  0  0  0  0  0  0
  150.1935  140.3102  155.1235 H   0  0  0  0  0  0  0  0  0  0  0  0
  150.7334  141.9454  154.8727 H   0  0  0  0  0  0  0  0  0  0  0  0
  149.8885  141.0648  157.6472 H   0  0  0  0  0  0  0  0  0  0  0  0
  151.8197  143.2328  156.6808 H   0  0  0  0  0  0  0  0  0  0  0  0
  151.4221  142.8806  158.3597 H   0  0  0  0  0  0  0  0  0  0  0  0
  150.1885  143.5151  157.2842 H   0  0  0  0  0  0  0  0  0  0  0  0
  152.6750  140.7360  156.4561 H   0  0  0  0  0  0  0  0  0  0  0  0
  151.5804  139.4289  156.9002 H   0  0  0  0  0  0  0  0  0  0  0  0
  152.2336  140.4869  158.1432 H   0  0  0  0  0  0  0  0  0  0  0  0
  148.2605  141.3969  157.4664 H   0  0  0  0  0  0  0  0  0  0  0  0
  146.9086  141.9263  156.5041 H   0  0  0  0  0  0  0  0  0  0  0  0
  148.2040  139.1444  156.3431 H   0  0  0  0  0  0  0  0  0  0  0  0
  146.6273  139.5354  156.9908 H   0  0  0  0  0  0  0  0  0  0  0  0
  148.7355  142.7871  155.5033 H   0  0  0  0  0  0  0  0  0  0  0  0
  1  2  1  0  0  0  0
  1 22  1  0  0  0  0
  1 23  1  0  0  0  0
  1 24  1  0  0  0  0
  2 21  1  0  0  0  0
  2  3  2  0  0  0  0
  3  4  1  0  0  0  0
  3 25  1  0  0  0  0
  4  5  1  0  0  0  0
  4 20  2  0  0  0  0
  5  6  1  0  0  0  0
  5 26  1  0  0  0  0
  6  7  2  0  0  0  0
  6  8  1  0  0  0  0
  8  9  1  0  0  0  0
  8 27  1  0  0  0  0
  9 10  1  0  0  0  0
  9 28  1  0  0  0  0
  9 29  1  0  0  0  0
 10 19  1  0  0  0  0
 10 11  1  0  0  0  0
 10 30  1  0  0  0  0
 11 12  1  0  0  0  0
 11 31  1  0  0  0  0
 11 32  1  0  0  0  0
 12 13  1  0  0  0  0
 12 17  1  0  0  0  0
 12 46  1  0  0  0  0
 13 14  1  0  0  0  0
 13 33  1  0  0  0  0
 13 34  1  0  0  0  0
 14 15  1  0  0  0  0
 14 16  1  0  0  0  0
 14 35  1  0  0  0  0
 15 36  1  0  0  0  0
 15 37  1  0  0  0  0
 15 38  1  0  0  0  0
 16 39  1  0  0  0  0
 16 40  1  0  0  0  0
 16 41  1  0  0  0  0
 17 18  1  0  0  0  0
 17 42  1  0  0  0  0
 17 43  1  0  0  0  0
 18 19  1  0  0  0  0
 18 44  1  0  0  0  0
 18 45  1  0  0  0  0
 20 21  1  0  0  0  0
M  CHG  1  12   1
M  END
> <s_m_source_file>
AV-unprocessed.smi

> <i_m_source_file_index>
1254

> <i_lp_mmshare_version>
43012

> <i_f3d_flags>
0

> <s_epik_input>
W0NIM11jMVtjSF1jKG5vMSlbTkhdQyg9TylbTkhdW0NIMl1bQ0BASF0yW0NIMl1OKFtDSDJdW0NIMl1PMilbQ0gyXVtDSF0oW0NIM10pW0NIM10=

> <s_epik_cmdline>
J2VwaWtfcHl0aG9uJywgJy1waCcsICc3LjAnLCAnLXRuJywgJzgnLCAnLW1hJywgJzIwMCcsICctbWV0YWxfYmluZGluZycsICctaW1hZScsICc8aW5maWxlLm1hZT4nLCAnLW9tYWUnLCAnPG91dGZpbGUubWFlPic=

> <r_epik_Ionization_Penalty>
0.0986825

> <r_epik_Ionization_Penalty_Charging>
0.0986478

> <r_epik_Ionization_Penalty_Neutral>
3.46838e-05

> <r_epik_State_Penalty>
0.0887259

> <r_epik_Charging_Adjusted_Penalty>
0.187374

> <i_epik_Tot_Q>
1

> <i_epik_Tot_abs_Q>
1

> <r_epik_Metal_State_Penalty>
0.103424

> <b_epik_Metal_Only>
0

> <s_lp_Force_Field>
OPLS_2005

> <r_lp_Energy>
18.2179

> <b_lp_Chiralities_Consistent>
1

> <s_lp_Variant>
AV-unprocessed.smi:1254-2

> <Gold.Version>
5.8.1

> <Gold.Id.Protein>
6NUR|6NUR_protein|mol2

> <Gold.PLP.Fitness>
41.8841

> <Gold.PLP.PLP>
-32.0723

> <Gold.PLP.part.hbond>
-3.4093

> <Gold.PLP.part.metal>
0.0000

> <Gold.PLP.part.buried>
-4.1280

> <Gold.PLP.part.nonpolar>
-27.3020

> <Gold.PLP.part.repulsive>
2.3600

> <Gold.PLP.ligand.clash>
0.0000

> <Gold.PLP.ligand.torsion>
0.7435

> <Gold.PLP.Chemscore.Hbond>
3.7360

> <Gold.PLP.Chemscore.CHOScore>
0.0000

> <Gold.PLP.Chemscore.Metal>
0.0000

> <Gold.Chemscore.Hbonds>
donor molecule, donor type, donor heavy atom, donor atom, acceptor molecule, acceptor atom, score
      L1  H     5    26       P1  7948  1.00
      L1  H     8    27       P1  7948  0.79
      L1  H    12    46       P1  8028  2.00

> <Gold.PLP.Chemscore.Internal.Correction>
0.0908

> <Gold.Rescore>
     Score         DG    S(hbond)    S(metal)    S(lipo)     H(rot)  DE(clash)    DE(int)     intcor
     16.69     -19.36       2.79        0.00      76.90       1.73       1.80       0.87       ----

> <Gold.Chemscore.Fitness>
16.6934

> <Gold.Chemscore.DG>
-19.3606

> <Gold.Chemscore.ZeroCoef>
-5.4800

> <Gold.Chemscore.Hbond>
2.7874

> <Gold.Chemscore.Metal>
0.0000

> <Gold.Chemscore.Lipo>
76.8995

> <Gold.Chemscore.Internal_Hbond>
0.0000

> <Gold.Chemscore.DEClash>
1.8000

> <Gold.Chemscore.DEInternal>
0.8672

> <Gold.Chemscore.Rot>
1.7291

> <Gold.Chemscore.Internal.Correction>
   9.000000E+99

> <Gold.Chemscore.Hbonds>
donor molecule, donor type, donor heavy atom, donor atom, acceptor molecule, acceptor atom, score
      L1  H     5    26       P1  7948  0.97
      L1  H     8    27       P1  7948  0.73
      L1  H    12    46       P1  8028  0.99

> <Gold.Chemscore.Hbond.Weighted>
-9.3098

> <Gold.Chemscore.Metal.Weighted>
-0.0000

> <Gold.Chemscore.Lipo.Weighted>
-8.9972

> <Gold.Chemscore.Internal_Hbond.Weighted>
0.0000

> <Gold.Chemscore.DEClash.Weighted>
1.8000

> <Gold.Chemscore.DEInternal.Weighted>
0.8672

> <Gold.Chemscore.Rot.Weighted>
4.4265

> <Gold.Chemscore.Internal.Correction.Weighted>
   9.000000E+99

> <Gold.Protein.RotatedTorsions>
[ 6907 6896 6895 6894 ] final  113.22 input  -60.11 | X-H torsion
[ 7974 7965 7964 7962 ] final -116.26 input  175.53 | X-H torsion
[ 8008 7997 7996 7995 ] final  -94.34 input   59.86 | X-H torsion
[ 10167 10162 10161 10158 ] final   29.30 input  -65.29 | X-H torsion
[ 10718 10713 10712 10709 ] final   22.86 input   66.30 | X-H torsion
[ 10763 10752 10751 10750 ] final -115.04 input  -60.55 | X-H torsion
[ 11005 11000 10999 10996 ] final    9.95 input  -57.11 | X-H torsion

> <Gold.Protein.ActiveResidues>
 VAL166  LYS551  ARG553  GLY616  TRP617  ASP618  TYR619  PRO620  LYS621  CYS622 
 ASP623  PHE694  ASN695  SER759  ASP760  ASP761  ALA762  ILE779  LEU786  VAL792 
 PHE793  MET794  SER795  GLU796  ALA797  LYS798  CYS799  TRP800  GLU811  SER814 

> <Gold.Protein.RotatedAtoms>
  152.4873  133.8406  159.7150 H   0  0  0  0  0  0  0  0  0  0  0  0  # atno 6907 bound_to 6896
  150.8970  133.7158  159.2895 H   0  0  0  0  0  0  0  0  0  0  0  0  # atno 6908 bound_to 6896
  151.4612  135.1042  159.9777 H   0  0  0  0  0  0  0  0  0  0  0  0  # atno 6909 bound_to 6896
  145.0988  140.8538  143.3938 H   0  0  0  0  0  0  0  0  0  0  0  0  # atno 7974 bound_to 7965
  154.7472  140.0490  157.0862 H   0  0  0  0  0  0  0  0  0  0  0  0  # atno 8008 bound_to 7997
  155.0103  140.3135  155.4813 H   0  0  0  0  0  0  0  0  0  0  0  0  # atno 8009 bound_to 7997
  156.2877  140.2185  156.5217 H   0  0  0  0  0  0  0  0  0  0  0  0  # atno 8010 bound_to 7997
  140.4778  144.0663  150.6256 H   0  0  0  0  0  0  0  0  0  0  0  0  # atno 10167 bound_to 10162
  157.1581  130.6705  149.6035 H   0  0  0  0  0  0  0  0  0  0  0  0  # atno 10718 bound_to 10713
  154.8465  135.4396  154.1601 H   0  0  0  0  0  0  0  0  0  0  0  0  # atno 10763 bound_to 10752
  153.2740  135.6947  153.7458 H   0  0  0  0  0  0  0  0  0  0  0  0  # atno 10764 bound_to 10752
  153.6688  135.3422  155.3122 H   0  0  0  0  0  0  0  0  0  0  0  0  # atno 10765 bound_to 10752
  140.5200  134.0568  155.7842 H   0  0  0  0  0  0  0  0  0  0  0  0  # atno 11005 bound_to 11000
  145.0980  139.2843  143.5701 LP  0  0  0  0  0  0  0  0  0  0  0  0  # atno 17320 bound_to 7965
  146.3530  140.0538  142.8634 LP  0  0  0  0  0  0  0  0  0  0  0  0  # atno 17321 bound_to 7965
  140.3896  143.2759  152.0075 LP  0  0  0  0  0  0  0  0  0  0  0  0  # atno 17342 bound_to 10162
  139.4828  144.6088  151.7472 LP  0  0  0  0  0  0  0  0  0  0  0  0  # atno 17343 bound_to 10162
  155.9758  130.4721  150.6487 LP  0  0  0  0  0  0  0  0  0  0  0  0  # atno 17370 bound_to 10713
  157.4158  131.0830  151.1178 LP  0  0  0  0  0  0  0  0  0  0  0  0  # atno 17371 bound_to 10713
  141.1339  133.9254  157.2475 LP  0  0  0  0  0  0  0  0  0  0  0  0  # atno 17394 bound_to 11000
  139.9611  135.0154  156.9264 LP  0  0  0  0  0  0  0  0  0  0  0  0  # atno 17395 bound_to 11000

$$$$
