AV-unprocessed.smi:242|AV-procd|sdf|1845|dock6
  -GOLD-   2262020463D 1   1.00000     0.00000
 Structure written by MMmdl.
 58 61  0  0  0  0  0  0  0  0  2 V2000
  146.1928  131.9493  152.9504 C   0  0  0  0  0  0  0  0  0  0  0  0
  147.3027  132.8458  152.3685 C   0  0  0  0  0  0  0  0  0  0  0  0
  148.3522  133.1368  153.4582 C   0  0  0  0  0  0  0  0  0  0  0  0
  146.7524  134.1101  151.8032 N   0  3  1  0  0  0  0  0  0  0  0  0
  145.8462  133.9409  150.6382 C   0  0  0  0  0  0  0  0  0  0  0  0
  144.6772  134.9142  150.8331 C   0  0  0  0  0  0  0  0  0  0  0  0
  145.1768  135.8961  151.8967 C   0  0  1  0  0  0  0  0  0  0  0  0
  144.1208  136.5835  152.6430 N   0  0  0  0  0  0  0  0  0  0  0  0
  142.9682  135.7823  153.0370 C   0  0  0  0  0  0  0  0  0  0  0  0
  144.5669  137.3369  153.6720 C   0  0  0  0  0  0  0  0  0  0  0  0
  143.9793  137.1494  154.8787 N   0  0  0  0  0  0  0  0  0  0  0  0
  144.3704  137.8767  155.9299 C   0  0  0  0  0  0  0  0  0  0  0  0
  145.3100  138.8234  155.9878 N   0  0  0  0  0  0  0  0  0  0  0  0
  145.9040  139.0093  154.7739 C   0  0  0  0  0  0  0  0  0  0  0  0
  145.5995  138.3111  153.5724 C   0  0  0  0  0  0  0  0  0  0  0  0
  146.4129  138.7625  152.5402 N   0  0  0  0  0  0  0  0  0  0  0  0
  147.1573  139.6765  153.1008 C   0  0  0  0  0  0  0  0  0  0  0  0
  146.9094  139.8985  154.4370 N   0  0  0  0  0  0  0  0  0  0  0  0
  147.5779  140.8584  155.3021 C   0  0  0  0  0  0  0  0  0  0  0  0
  148.9412  140.3678  155.8510 C   0  0  0  0  0  0  0  0  0  0  0  0
  148.7087  139.7361  157.0983 O   0  0  0  0  0  0  0  0  0  0  0  0
  149.5660  139.3359  154.8904 C   0  0  0  0  0  0  0  0  0  0  0  0
  150.9986  138.9516  155.3011 C   0  0  0  0  0  0  0  0  0  0  0  0
  151.8050  140.1189  155.3991 O   0  0  0  0  0  0  0  0  0  0  0  0
  151.3534  141.0114  156.4102 C   0  0  0  0  0  0  0  0  0  0  0  0
  149.9414  141.5235  156.0736 C   0  0  0  0  0  0  0  0  0  0  0  0
  146.0466  134.9865  152.7634 C   0  0  0  0  0  0  0  0  0  0  0  0
  146.6145  131.0494  153.3993 H   0  0  0  0  0  0  0  0  0  0  0  0
  145.4907  131.6174  152.1856 H   0  0  0  0  0  0  0  0  0  0  0  0
  145.6266  132.4690  153.7242 H   0  0  0  0  0  0  0  0  0  0  0  0
  147.7892  132.2971  151.5604 H   0  0  0  0  0  0  0  0  0  0  0  0
  148.7359  132.2111  153.8882 H   0  0  0  0  0  0  0  0  0  0  0  0
  147.9251  133.7247  154.2713 H   0  0  0  0  0  0  0  0  0  0  0  0
  149.2108  133.6831  153.0683 H   0  0  0  0  0  0  0  0  0  0  0  0
  146.3997  134.1683  149.7267 H   0  0  0  0  0  0  0  0  0  0  0  0
  145.4673  132.9216  150.5530 H   0  0  0  0  0  0  0  0  0  0  0  0
  144.3839  135.4071  149.9053 H   0  0  0  0  0  0  0  0  0  0  0  0
  143.8106  134.3658  151.2064 H   0  0  0  0  0  0  0  0  0  0  0  0
  145.8219  136.6363  151.4209 H   0  0  0  0  0  0  0  0  0  0  0  0
  142.3033  136.3391  153.6993 H   0  0  0  0  0  0  0  0  0  0  0  0
  143.2837  134.8744  153.5526 H   0  0  0  0  0  0  0  0  0  0  0  0
  142.3897  135.4932  152.1596 H   0  0  0  0  0  0  0  0  0  0  0  0
  143.8557  137.6718  156.8572 H   0  0  0  0  0  0  0  0  0  0  0  0
  147.9073  140.2251  152.5494 H   0  0  0  0  0  0  0  0  0  0  0  0
  147.7064  141.7880  154.7456 H   0  0  0  0  0  0  0  0  0  0  0  0
  146.9046  141.0923  156.1278 H   0  0  0  0  0  0  0  0  0  0  0  0
  148.3217  140.3658  157.6875 H   0  0  0  0  0  0  0  0  0  0  0  0
  148.9426  138.4428  154.8290 H   0  0  0  0  0  0  0  0  0  0  0  0
  149.5983  139.7542  153.8835 H   0  0  0  0  0  0  0  0  0  0  0  0
  151.0058  138.4089  156.2477 H   0  0  0  0  0  0  0  0  0  0  0  0
  151.4338  138.2872  154.5545 H   0  0  0  0  0  0  0  0  0  0  0  0
  151.3702  140.5161  157.3822 H   0  0  0  0  0  0  0  0  0  0  0  0
  152.0475  141.8495  156.4727 H   0  0  0  0  0  0  0  0  0  0  0  0
  149.9988  142.1288  155.1681 H   0  0  0  0  0  0  0  0  0  0  0  0
  149.5980  142.1887  156.8666 H   0  0  0  0  0  0  0  0  0  0  0  0
  145.4197  134.3823  153.4224 H   0  0  0  0  0  0  0  0  0  0  0  0
  146.7467  135.5526  153.3787 H   0  0  0  0  0  0  0  0  0  0  0  0
  147.5373  134.6494  151.4669 H   0  0  0  0  0  0  0  0  0  0  0  0
  1  2  1  0  0  0  0
  1 28  1  0  0  0  0
  1 29  1  0  0  0  0
  1 30  1  0  0  0  0
  2  3  1  0  0  0  0
  2  4  1  0  0  0  0
  2 31  1  0  0  0  0
  3 32  1  0  0  0  0
  3 33  1  0  0  0  0
  3 34  1  0  0  0  0
  4 27  1  0  0  0  0
  4  5  1  0  0  0  0
  4 58  1  0  0  0  0
  5  6  1  0  0  0  0
  5 35  1  0  0  0  0
  5 36  1  0  0  0  0
  6  7  1  0  0  0  0
  6 37  1  0  0  0  0
  6 38  1  0  0  0  0
  7  8  1  0  0  0  0
  7 27  1  0  0  0  0
  7 39  1  0  0  0  0
  8  9  1  0  0  0  0
  8 10  1  0  0  0  0
  9 40  1  0  0  0  0
  9 41  1  0  0  0  0
  9 42  1  0  0  0  0
 10 15  1  0  0  0  0
 10 11  2  0  0  0  0
 11 12  1  0  0  0  0
 12 13  2  0  0  0  0
 12 43  1  0  0  0  0
 13 14  1  0  0  0  0
 14 18  1  0  0  0  0
 14 15  2  0  0  0  0
 15 16  1  0  0  0  0
 16 17  2  0  0  0  0
 17 18  1  0  0  0  0
 17 44  1  0  0  0  0
 18 19  1  0  0  0  0
 19 20  1  0  0  0  0
 19 45  1  0  0  0  0
 19 46  1  0  0  0  0
 20 26  1  0  0  0  0
 20 21  1  0  0  0  0
 20 22  1  0  0  0  0
 21 47  1  0  0  0  0
 22 23  1  0  0  0  0
 22 48  1  0  0  0  0
 22 49  1  0  0  0  0
 23 24  1  0  0  0  0
 23 50  1  0  0  0  0
 23 51  1  0  0  0  0
 24 25  1  0  0  0  0
 25 26  1  0  0  0  0
 25 52  1  0  0  0  0
 25 53  1  0  0  0  0
 26 54  1  0  0  0  0
 26 55  1  0  0  0  0
 27 56  1  0  0  0  0
 27 57  1  0  0  0  0
M  CHG  1   4   1
M  END
> <s_m_source_file>
AV-unprocessed.smi

> <i_m_source_file_index>
242

> <i_lp_mmshare_version>
43012

> <i_f3d_flags>
0

> <s_epik_input>
W0NIM11bQ0hdKFtDSDNdKU4xW0NIMl1bQ0gyXVtDQEhdKFtDSDJdMSlOKFtDSDNdKWMobltjSF1uMiljKGMyMyluW2NIXW4zW0NIMl1DNChbT0hdKVtDSDJdW0NIMl1PW0NIMl1bQ0gyXTQ=

> <s_epik_cmdline>
J2VwaWtfcHl0aG9uJywgJy1waCcsICc3LjAnLCAnLXRuJywgJzgnLCAnLW1hJywgJzIwMCcsICctbWV0YWxfYmluZGluZycsICctaW1hZScsICc8aW5maWxlLm1hZT4nLCAnLW9tYWUnLCAnPG91dGZpbGUubWFlPic=

> <r_lp_tautomer_probability>
1

> <r_epik_Ionization_Penalty>
0.000825961

> <r_epik_Ionization_Penalty_Charging>
0.00034898

> <r_epik_Ionization_Penalty_Neutral>
0.000476981

> <r_epik_State_Penalty>
-0

> <r_epik_Charging_Adjusted_Penalty>
0.00034898

> <i_epik_Tot_Q>
1

> <i_epik_Tot_abs_Q>
1

> <r_epik_Metal_State_Penalty>
-0

> <b_epik_Metal_Only>
0

> <s_lp_Force_Field>
OPLS_2005

> <r_lp_Energy>
46.4754

> <b_lp_Chiralities_Consistent>
1

> <s_lp_Variant>
AV-unprocessed.smi:242-2

> <Gold.Version>
5.8.1

> <Gold.Id.Protein>
6NUR|6NUR_protein|mol2

> <Gold.PLP.Fitness>
42.0985

> <Gold.PLP.PLP>
-32.9065

> <Gold.PLP.part.hbond>
-2.0000

> <Gold.PLP.part.metal>
0.0000

> <Gold.PLP.part.buried>
-3.9009

> <Gold.PLP.part.nonpolar>
-28.4999

> <Gold.PLP.part.repulsive>
0.5855

> <Gold.PLP.ligand.clash>
0.0000

> <Gold.PLP.ligand.torsion>
1.2180

> <Gold.PLP.Chemscore.Hbond>
2.7360

> <Gold.PLP.Chemscore.CHOScore>
1.0000

> <Gold.PLP.Chemscore.Metal>
0.0000

> <Gold.Chemscore.Hbonds>
donor molecule, donor type, donor heavy atom, donor atom, acceptor molecule, acceptor atom, score
      L1  H     4    58       P1  7948  1.62
      P1  H  7989  7998       L1    24  0.84
      L1  C    17    44       P1  7957  1.00

> <Gold.PLP.Chemscore.Internal.Correction>
0.4200

> <Gold.Rescore>
     Score         DG    S(hbond)    S(metal)    S(lipo)     H(rot)  DE(clash)    DE(int)     intcor
     12.04     -13.00       1.83        0.00      66.62       2.50       0.12       0.84       ----

> <Gold.Chemscore.Fitness>
12.0394

> <Gold.Chemscore.DG>
-13.0021

> <Gold.Chemscore.ZeroCoef>
-5.4800

> <Gold.Chemscore.Hbond>
1.8344

> <Gold.Chemscore.Metal>
0.0000

> <Gold.Chemscore.Lipo>
66.6177

> <Gold.Chemscore.Internal_Hbond>
0.0000

> <Gold.Chemscore.DEClash>
0.1191

> <Gold.Chemscore.DEInternal>
0.8435

> <Gold.Chemscore.Rot>
2.4996

> <Gold.Chemscore.Internal.Correction>
   9.000000E+99

> <Gold.Chemscore.Hbonds>
donor molecule, donor type, donor heavy atom, donor atom, acceptor molecule, acceptor atom, score
      L1  H     4    58       P1  7948  0.20
      P1  H  7989  7998       L1    24  0.24

> <Gold.Chemscore.Hbond.Weighted>
-6.1267

> <Gold.Chemscore.Metal.Weighted>
-0.0000

> <Gold.Chemscore.Lipo.Weighted>
-7.7943

> <Gold.Chemscore.Internal_Hbond.Weighted>
0.0000

> <Gold.Chemscore.DEClash.Weighted>
0.1191

> <Gold.Chemscore.DEInternal.Weighted>
0.8435

> <Gold.Chemscore.Rot.Weighted>
6.3990

> <Gold.Chemscore.Internal.Correction.Weighted>
   9.000000E+99

> <Gold.Protein.RotatedTorsions>
[ 6907 6896 6895 6894 ] final    8.18 input  -60.11 | X-H torsion
[ 7974 7965 7964 7962 ] final  -89.64 input  175.53 | X-H torsion
[ 8008 7997 7996 7995 ] final   92.07 input   59.86 | X-H torsion
[ 10167 10162 10161 10158 ] final  -17.81 input  -65.29 | X-H torsion
[ 10718 10713 10712 10709 ] final   50.03 input   66.30 | X-H torsion
[ 10763 10752 10751 10750 ] final   14.26 input  -60.55 | X-H torsion
[ 11005 11000 10999 10996 ] final -174.43 input  -57.11 | X-H torsion

> <Gold.Protein.ActiveResidues>
 VAL166  LYS551  ARG553  GLY616  TRP617  ASP618  TYR619  PRO620  LYS621  CYS622 
 ASP623  PHE694  ASN695  SER759  ASP760  ASP761  ALA762  ILE779  LEU786  VAL792 
 PHE793  MET794  SER795  GLU796  ALA797  LYS798  CYS799  TRP800  GLU811  SER814 

> <Gold.Protein.RotatedAtoms>
  151.7018  135.0928  160.0251 H   0  0  0  0  0  0  0  0  0  0  0  0  # atno 6907 bound_to 6896
  152.3716  133.6422  159.6100 H   0  0  0  0  0  0  0  0  0  0  0  0  # atno 6908 bound_to 6896
  150.7677  133.9178  159.3430 H   0  0  0  0  0  0  0  0  0  0  0  0  # atno 6909 bound_to 6896
  145.4372  140.9558  143.2095 H   0  0  0  0  0  0  0  0  0  0  0  0  # atno 7974 bound_to 7965
  156.0311  140.3330  155.7140 H   0  0  0  0  0  0  0  0  0  0  0  0  # atno 8008 bound_to 7997
  155.5884  140.0644  157.2783 H   0  0  0  0  0  0  0  0  0  0  0  0  # atno 8009 bound_to 7997
  154.4353  140.1831  156.1037 H   0  0  0  0  0  0  0  0  0  0  0  0  # atno 8010 bound_to 7997
  140.7251  143.4978  150.9908 H   0  0  0  0  0  0  0  0  0  0  0  0  # atno 10167 bound_to 10162
  157.4845  130.8336  149.8131 H   0  0  0  0  0  0  0  0  0  0  0  0  # atno 10718 bound_to 10713
  153.1640  135.6801  153.8702 H   0  0  0  0  0  0  0  0  0  0  0  0  # atno 10763 bound_to 10752
  153.8088  135.3146  155.3399 H   0  0  0  0  0  0  0  0  0  0  0  0  # atno 10764 bound_to 10752
  154.7952  135.4811  154.0235 H   0  0  0  0  0  0  0  0  0  0  0  0  # atno 10765 bound_to 10752
  140.4746  134.6133  157.4896 H   0  0  0  0  0  0  0  0  0  0  0  0  # atno 11005 bound_to 11000
  144.8145  139.5902  143.7014 LP  0  0  0  0  0  0  0  0  0  0  0  0  # atno 17320 bound_to 7965
  146.2576  139.6337  142.9384 LP  0  0  0  0  0  0  0  0  0  0  0  0  # atno 17321 bound_to 7965
  139.8686  143.7221  152.3168 LP  0  0  0  0  0  0  0  0  0  0  0  0  # atno 17342 bound_to 10162
  139.7462  144.7546  151.0576 LP  0  0  0  0  0  0  0  0  0  0  0  0  # atno 17343 bound_to 10162
  156.0139  130.3821  150.2173 LP  0  0  0  0  0  0  0  0  0  0  0  0  # atno 17370 bound_to 10713
  157.0360  131.0021  151.3298 LP  0  0  0  0  0  0  0  0  0  0  0  0  # atno 17371 bound_to 10713
  139.9864  134.7055  155.9767 LP  0  0  0  0  0  0  0  0  0  0  0  0  # atno 17394 bound_to 11000
  141.1560  133.6543  156.4164 LP  0  0  0  0  0  0  0  0  0  0  0  0  # atno 17395 bound_to 11000

$$$$
