AV-unprocessed.smi:2166|AV-procd|sdf|8814|dock4
  -GOLD-   2272012 03D 1   1.00000     0.00000
 Structure written by MMmdl.
 38 39  0  0  0  0  0  0  0  0  1 V2000
  151.9948  144.0796  161.0884 C   0  0  0  0  0  0  0  0  0  0  0  0
  152.8051  142.9540  159.9189 S   0  0  0  0  0  0  0  0  0  0  0  0
  152.1573  143.5701  158.3355 C   0  0  2  0  0  0  0  0  0  0  0  0
  151.6652  145.0184  158.4892 C   0  0  0  0  0  0  0  0  0  0  0  0
  151.0528  142.6637  157.7764 C   0  0  0  0  0  0  0  0  0  0  0  0
  150.0060  142.5136  158.4076 O   0  0  0  0  0  0  0  0  0  0  0  0
  151.3255  142.0716  156.5980 N   0  0  0  0  0  0  0  0  0  0  0  0
  150.5163  141.1744  155.8527 C   0  0  0  0  0  0  0  0  0  0  0  0
  149.1260  141.4017  155.9543 C   0  0  0  0  0  0  0  0  0  0  0  0
  148.2344  140.5716  155.2487 C   0  0  0  0  0  0  0  0  0  0  0  0
  148.7521  139.5304  154.4550 C   0  0  0  0  0  0  0  0  0  0  0  0
  147.8782  138.6967  153.7429 N   0  0  0  0  0  0  0  0  0  0  0  0
  147.0075  137.9001  154.5985 C   0  0  0  0  0  0  0  0  0  0  0  0
  146.1701  136.9330  153.7430 C   0  0  0  0  0  0  0  0  0  0  0  0
  145.4419  137.6688  152.7638 O   0  0  0  0  0  0  0  0  0  0  0  0
  146.3037  138.3870  151.8850 C   0  0  0  0  0  0  0  0  0  0  0  0
  147.1446  139.3915  152.6927 C   0  0  0  0  0  0  0  0  0  0  0  0
  150.1553  139.3726  154.4141 C   0  0  0  0  0  0  0  0  0  0  0  0
  151.0106  140.1679  155.0905 N   0  0  0  0  0  0  0  0  0  0  0  0
  152.2512  143.8029  162.1110 H   0  0  0  0  0  0  0  0  0  0  0  0
  150.9115  144.0300  160.9790 H   0  0  0  0  0  0  0  0  0  0  0  0
  152.3168  145.1076  160.9228 H   0  0  0  0  0  0  0  0  0  0  0  0
  152.9905  143.5820  157.6311 H   0  0  0  0  0  0  0  0  0  0  0  0
  151.2652  145.4035  157.5504 H   0  0  0  0  0  0  0  0  0  0  0  0
  152.4814  145.6756  158.7901 H   0  0  0  0  0  0  0  0  0  0  0  0
  150.8822  145.1001  159.2443 H   0  0  0  0  0  0  0  0  0  0  0  0
  152.2258  142.2828  156.1933 H   0  0  0  0  0  0  0  0  0  0  0  0
  148.7407  142.2056  156.5646 H   0  0  0  0  0  0  0  0  0  0  0  0
  147.1688  140.7358  155.3160 H   0  0  0  0  0  0  0  0  0  0  0  0
  147.6074  137.3402  155.3170 H   0  0  0  0  0  0  0  0  0  0  0  0
  146.3460  138.5540  155.1682 H   0  0  0  0  0  0  0  0  0  0  0  0
  146.8067  136.1920  153.2569 H   0  0  0  0  0  0  0  0  0  0  0  0
  145.4678  136.3860  154.3722 H   0  0  0  0  0  0  0  0  0  0  0  0
  146.9450  137.6922  151.3400 H   0  0  0  0  0  0  0  0  0  0  0  0
  145.7001  138.9112  151.1441 H   0  0  0  0  0  0  0  0  0  0  0  0
  146.4932  140.1477  153.1330 H   0  0  0  0  0  0  0  0  0  0  0  0
  147.8429  139.9094  152.0340 H   0  0  0  0  0  0  0  0  0  0  0  0
  150.6082  138.5893  153.8243 H   0  0  0  0  0  0  0  0  0  0  0  0
  1  2  1  0  0  0  0
  1 20  1  0  0  0  0
  1 21  1  0  0  0  0
  1 22  1  0  0  0  0
  2  3  1  0  0  0  0
  3  4  1  0  0  0  0
  3  5  1  0  0  0  0
  3 23  1  0  0  0  0
  4 24  1  0  0  0  0
  4 25  1  0  0  0  0
  4 26  1  0  0  0  0
  5  6  2  0  0  0  0
  5  7  1  0  0  0  0
  7  8  1  0  0  0  0
  7 27  1  0  0  0  0
  8 19  1  0  0  0  0
  8  9  2  0  0  0  0
  9 10  1  0  0  0  0
  9 28  1  0  0  0  0
 10 11  2  0  0  0  0
 10 29  1  0  0  0  0
 11 12  1  0  0  0  0
 11 18  1  0  0  0  0
 12 17  1  0  0  0  0
 12 13  1  0  0  0  0
 13 14  1  0  0  0  0
 13 30  1  0  0  0  0
 13 31  1  0  0  0  0
 14 15  1  0  0  0  0
 14 32  1  0  0  0  0
 14 33  1  0  0  0  0
 15 16  1  0  0  0  0
 16 17  1  0  0  0  0
 16 34  1  0  0  0  0
 16 35  1  0  0  0  0
 17 36  1  0  0  0  0
 17 37  1  0  0  0  0
 18 19  2  0  0  0  0
 18 38  1  0  0  0  0
M  END
> <s_m_source_file>
AV-unprocessed.smi

> <i_m_source_file_index>
2166

> <i_lp_mmshare_version>
43012

> <i_f3d_flags>
0

> <s_epik_input>
W0NIM11TW0NASF0oW0NIM10pQyg9TylbTkhdYzFbY0hdW2NIXWMoW2NIXW4xKU4yW0NIMl1bQ0gyXU9bQ0gyXVtDSDJdMg==

> <s_epik_cmdline>
J2VwaWtfcHl0aG9uJywgJy1waCcsICc3LjAnLCAnLXRuJywgJzgnLCAnLW1hJywgJzIwMCcsICctbWV0YWxfYmluZGluZycsICctaW1hZScsICc8aW5maWxlLm1hZT4nLCAnLW9tYWUnLCAnPG91dGZpbGUubWFlPic=

> <r_lp_tautomer_probability>
1

> <r_epik_Ionization_Penalty>
0.0038652

> <r_epik_Ionization_Penalty_Charging>
0

> <r_epik_Ionization_Penalty_Neutral>
0.0038652

> <r_epik_State_Penalty>
0.00681294

> <r_epik_Charging_Adjusted_Penalty>
0.00681294

> <i_epik_Tot_Q>
0

> <i_epik_Tot_abs_Q>
0

> <r_epik_Metal_State_Penalty>
-0

> <b_epik_Metal_Only>
0

> <s_lp_Force_Field>
OPLS_2005

> <r_lp_Energy>
27.7309

> <b_lp_Chiralities_Consistent>
1

> <s_lp_Variant>
AV-unprocessed.smi:2166-1

> <Gold.Version>
5.8.1

> <Gold.Id.Protein>
6NUR|6NUR_protein|mol2

> <Gold.PLP.Fitness>
34.7406

> <Gold.PLP.PLP>
-34.6783

> <Gold.PLP.part.hbond>
-1.0000

> <Gold.PLP.part.metal>
0.0000

> <Gold.PLP.part.buried>
-1.5043

> <Gold.PLP.part.nonpolar>
-33.3534

> <Gold.PLP.part.repulsive>
0.6796

> <Gold.PLP.ligand.clash>
0.0000

> <Gold.PLP.ligand.torsion>
0.8611

> <Gold.PLP.Chemscore.Hbond>
0.5500

> <Gold.PLP.Chemscore.CHOScore>
0.0000

> <Gold.PLP.Chemscore.Metal>
0.0000

> <Gold.Chemscore.Hbonds>
donor molecule, donor type, donor heavy atom, donor atom, acceptor molecule, acceptor atom, score
      P1  H  7989  7998       L1    19  0.55

> <Gold.PLP.Chemscore.Internal.Correction>
0.1346

> <Gold.Rescore>
     Score         DG    S(hbond)    S(metal)    S(lipo)     H(rot)  DE(clash)    DE(int)     intcor
      9.78     -13.10       0.00        0.00      93.69       1.31       1.11       2.21       ----

> <Gold.Chemscore.Fitness>
9.7796

> <Gold.Chemscore.DG>
-13.1006

> <Gold.Chemscore.ZeroCoef>
-5.4800

> <Gold.Chemscore.Hbond>
0.0042

> <Gold.Chemscore.Metal>
0.0000

> <Gold.Chemscore.Lipo>
93.6899

> <Gold.Chemscore.Internal_Hbond>
0.0000

> <Gold.Chemscore.DEClash>
1.1081

> <Gold.Chemscore.DEInternal>
2.2130

> <Gold.Chemscore.Rot>
1.3105

> <Gold.Chemscore.Internal.Correction>
   9.000000E+99

> <Gold.Chemscore.Hbonds>
donor molecule, donor type, donor heavy atom, donor atom, acceptor molecule, acceptor atom, score
      P1  H  7989  7998       L1    19  0.02

> <Gold.Chemscore.Hbond.Weighted>
-0.0139

> <Gold.Chemscore.Metal.Weighted>
-0.0000

> <Gold.Chemscore.Lipo.Weighted>
-10.9617

> <Gold.Chemscore.Internal_Hbond.Weighted>
0.0000

> <Gold.Chemscore.DEClash.Weighted>
1.1081

> <Gold.Chemscore.DEInternal.Weighted>
2.2130

> <Gold.Chemscore.Rot.Weighted>
3.3549

> <Gold.Chemscore.Internal.Correction.Weighted>
   9.000000E+99

> <Gold.Protein.RotatedTorsions>
[ 6907 6896 6895 6894 ] final  125.34 input  -60.11 | X-H torsion
[ 7974 7965 7964 7962 ] final   32.07 input  175.53 | X-H torsion
[ 8008 7997 7996 7995 ] final   67.59 input   59.86 | X-H torsion
[ 10167 10162 10161 10158 ] final  124.67 input  -65.29 | X-H torsion
[ 10718 10713 10712 10709 ] final  162.92 input   66.30 | X-H torsion
[ 10763 10752 10751 10750 ] final -159.97 input  -60.55 | X-H torsion
[ 11005 11000 10999 10996 ] final   28.95 input  -57.11 | X-H torsion

> <Gold.Protein.ActiveResidues>
 VAL166  LYS551  ARG553  GLY616  TRP617  ASP618  TYR619  PRO620  LYS621  CYS622 
 ASP623  PHE694  ASN695  SER759  ASP760  ASP761  ALA762  ILE779  LEU786  VAL792 
 PHE793  MET794  SER795  GLU796  ALA797  LYS798  CYS799  TRP800  GLU811  SER814 

> <Gold.Protein.RotatedAtoms>
  152.4000  133.6804  159.6308 H   0  0  0  0  0  0  0  0  0  0  0  0  # atno 6907 bound_to 6896
  150.7893  133.8807  159.3294 H   0  0  0  0  0  0  0  0  0  0  0  0  # atno 6908 bound_to 6896
  151.6574  135.0995  160.0224 H   0  0  0  0  0  0  0  0  0  0  0  0  # atno 6909 bound_to 6896
  146.1510  139.6574  142.9099 H   0  0  0  0  0  0  0  0  0  0  0  0  # atno 7974 bound_to 7965
  155.6953  140.3496  155.4910 H   0  0  0  0  0  0  0  0  0  0  0  0  # atno 8008 bound_to 7997
  155.9488  140.1115  157.1016 H   0  0  0  0  0  0  0  0  0  0  0  0  # atno 8009 bound_to 7997
  154.4117  140.1198  156.5011 H   0  0  0  0  0  0  0  0  0  0  0  0  # atno 8010 bound_to 7997
  139.5728  144.6948  151.3732 H   0  0  0  0  0  0  0  0  0  0  0  0  # atno 10167 bound_to 10162
  157.1158  131.0479  151.2437 H   0  0  0  0  0  0  0  0  0  0  0  0  # atno 10718 bound_to 10713
  154.7430  135.3073  154.8694 H   0  0  0  0  0  0  0  0  0  0  0  0  # atno 10763 bound_to 10752
  153.9503  135.6764  153.4748 H   0  0  0  0  0  0  0  0  0  0  0  0  # atno 10764 bound_to 10752
  153.1028  135.4904  154.8823 H   0  0  0  0  0  0  0  0  0  0  0  0  # atno 10765 bound_to 10752
  140.3101  134.2659  155.7736 H   0  0  0  0  0  0  0  0  0  0  0  0  # atno 11005 bound_to 11000
  145.4823  141.0438  143.2639 LP  0  0  0  0  0  0  0  0  0  0  0  0  # atno 17320 bound_to 7965
  144.7904  139.6340  143.7116 LP  0  0  0  0  0  0  0  0  0  0  0  0  # atno 17321 bound_to 7965
  140.7012  143.7626  150.7406 LP  0  0  0  0  0  0  0  0  0  0  0  0  # atno 17342 bound_to 10162
  140.1138  143.4675  152.2354 LP  0  0  0  0  0  0  0  0  0  0  0  0  # atno 17343 bound_to 10162
  157.4520  130.7603  149.7159 LP  0  0  0  0  0  0  0  0  0  0  0  0  # atno 17370 bound_to 10713
  155.9840  130.3995  150.3335 LP  0  0  0  0  0  0  0  0  0  0  0  0  # atno 17371 bound_to 10713
  141.2110  133.7703  156.9895 LP  0  0  0  0  0  0  0  0  0  0  0  0  # atno 17394 bound_to 11000
  140.1032  134.9522  157.1954 LP  0  0  0  0  0  0  0  0  0  0  0  0  # atno 17395 bound_to 11000

$$$$
