AV-unprocessed.smi:1005|AV-procd|sdf|4384|dock1
  -GOLD-   22720 2303D 1   1.00000     0.00000
 Structure written by MMmdl.
 58 60  0  0  0  0  0  0  0  0  4 V2000
  151.7975  145.0771  160.4082 C   0  0  0  0  0  0  0  0  0  0  0  0
  151.6993  143.8486  159.5196 C   0  0  0  0  0  0  0  0  0  0  0  0
  150.9108  143.9236  158.3495 C   0  0  0  0  0  0  0  0  0  0  0  0
  150.8372  142.7822  157.5598 C   0  0  0  0  0  0  0  0  0  0  0  0
  150.1531  142.5390  156.3672 N   0  3  0  0  0  0  0  0  0  0  0  0
  150.3823  141.2590  155.9640 C   0  0  0  0  0  0  0  0  0  0  0  0
  151.1996  140.6778  156.8843 N   0  0  0  0  0  0  0  0  0  0  0  0
  151.7490  139.3138  156.9224 C   0  0  0  0  0  0  0  0  0  0  0  0
  152.1207  138.7759  155.5259 C   0  0  2  0  0  0  0  0  0  0  0  0
  152.7161  139.8071  154.7623 O   0  0  0  0  0  0  0  0  0  0  0  0
  150.8829  138.2540  154.7683 C   0  0  0  0  0  0  0  0  0  0  0  0
  150.1671  137.1784  155.5023 N   0  3  2  0  0  0  0  0  0  0  0  0
  151.0814  136.1185  155.9880 C   0  0  0  0  0  0  0  0  0  0  0  0
  150.3030  135.0725  156.8016 C   0  0  0  0  0  0  0  0  0  0  0  0
  149.2570  134.5325  156.0029 O   0  0  0  0  0  0  0  0  0  0  0  0
  148.3135  135.5213  155.6023 C   0  0  2  0  0  0  0  0  0  0  0  0
  147.1945  134.8173  154.8114 C   0  0  0  0  0  0  0  0  0  0  0  0
  147.6775  134.2195  153.5399 N   0  3  0  0  0  0  0  0  0  0  0  0
  148.6124  133.0878  153.7391 C   0  0  0  0  0  0  0  0  0  0  0  0
  146.5633  133.8480  152.6397 C   0  0  0  0  0  0  0  0  0  0  0  0
  149.0404  136.5779  154.7452 C   0  0  0  0  0  0  0  0  0  0  0  0
  151.5144  141.5938  157.8964 C   0  0  0  0  0  0  0  0  0  0  0  0
  152.2983  141.5045  159.0446 C   0  0  0  0  0  0  0  0  0  0  0  0
  152.3856  142.6545  159.8614 C   0  0  0  0  0  0  0  0  0  0  0  0
  153.2319  142.5851  161.1212 C   0  0  0  0  0  0  0  0  0  0  0  0
  151.1779  145.8920  160.0329 H   0  0  0  0  0  0  0  0  0  0  0  0
  152.8266  145.4340  160.4539 H   0  0  0  0  0  0  0  0  0  0  0  0
  151.4649  144.8468  161.4206 H   0  0  0  0  0  0  0  0  0  0  0  0
  150.3866  144.8295  158.0820 H   0  0  0  0  0  0  0  0  0  0  0  0
  149.9864  140.7909  155.0740 H   0  0  0  0  0  0  0  0  0  0  0  0
  152.6380  139.3467  157.5536 H   0  0  0  0  0  0  0  0  0  0  0  0
  151.0425  138.6554  157.4284 H   0  0  0  0  0  0  0  0  0  0  0  0
  152.8540  137.9798  155.6502 H   0  0  0  0  0  0  0  0  0  0  0  0
  152.0993  140.0861  154.1021 H   0  0  0  0  0  0  0  0  0  0  0  0
  150.1900  139.0699  154.5566 H   0  0  0  0  0  0  0  0  0  0  0  0
  151.2092  137.8732  153.7989 H   0  0  0  0  0  0  0  0  0  0  0  0
  151.5746  135.6424  155.1389 H   0  0  0  0  0  0  0  0  0  0  0  0
  151.8634  136.5566  156.6094 H   0  0  0  0  0  0  0  0  0  0  0  0
  150.9672  134.2643  157.1086 H   0  0  0  0  0  0  0  0  0  0  0  0
  149.8935  135.5118  157.7128 H   0  0  0  0  0  0  0  0  0  0  0  0
  147.8988  136.0102  156.4843 H   0  0  0  0  0  0  0  0  0  0  0  0
  146.7233  134.0422  155.4179 H   0  0  0  0  0  0  0  0  0  0  0  0
  146.4162  135.5513  154.5964 H   0  0  0  0  0  0  0  0  0  0  0  0
  148.1276  132.2700  154.2738 H   0  0  0  0  0  0  0  0  0  0  0  0
  149.4942  133.3888  154.3030 H   0  0  0  0  0  0  0  0  0  0  0  0
  148.9597  132.7047  152.7790 H   0  0  0  0  0  0  0  0  0  0  0  0
  145.9403  133.0727  153.0875 H   0  0  0  0  0  0  0  0  0  0  0  0
  146.9435  133.4743  151.6883 H   0  0  0  0  0  0  0  0  0  0  0  0
  145.9339  134.7120  152.4237 H   0  0  0  0  0  0  0  0  0  0  0  0
  148.3296  137.3485  154.4495 H   0  0  0  0  0  0  0  0  0  0  0  0
  149.4194  136.1244  153.8278 H   0  0  0  0  0  0  0  0  0  0  0  0
  152.8185  140.5962  159.3105 H   0  0  0  0  0  0  0  0  0  0  0  0
  153.7425  141.6256  161.2077 H   0  0  0  0  0  0  0  0  0  0  0  0
  152.6091  142.7128  162.0067 H   0  0  0  0  0  0  0  0  0  0  0  0
  153.9930  143.3657  161.1168 H   0  0  0  0  0  0  0  0  0  0  0  0
  148.1907  134.9441  153.0578 H   0  0  0  0  0  0  0  0  0  0  0  0
  149.7764  137.6133  156.3266 H   0  0  0  0  0  0  0  0  0  0  0  0
  149.5738  143.1974  155.8619 H   0  0  0  0  0  0  0  0  0  0  0  0
  1  2  1  0  0  0  0
  1 26  1  0  0  0  0
  1 27  1  0  0  0  0
  1 28  1  0  0  0  0
  2 24  1  0  0  0  0
  2  3  2  0  0  0  0
  3  4  1  0  0  0  0
  3 29  1  0  0  0  0
  4 22  2  0  0  0  0
  4  5  1  0  0  0  0
  5  6  2  0  0  0  0
  5 58  1  0  0  0  0
  6  7  1  0  0  0  0
  6 30  1  0  0  0  0
  7  8  1  0  0  0  0
  7 22  1  0  0  0  0
  8  9  1  0  0  0  0
  8 31  1  0  0  0  0
  8 32  1  0  0  0  0
  9 10  1  0  0  0  0
  9 11  1  0  0  0  0
  9 33  1  0  0  0  0
 10 34  1  0  0  0  0
 11 12  1  0  0  0  0
 11 35  1  0  0  0  0
 11 36  1  0  0  0  0
 12 21  1  0  0  0  0
 12 13  1  0  0  0  0
 12 57  1  0  0  0  0
 13 14  1  0  0  0  0
 13 37  1  0  0  0  0
 13 38  1  0  0  0  0
 14 15  1  0  0  0  0
 14 39  1  0  0  0  0
 14 40  1  0  0  0  0
 15 16  1  0  0  0  0
 16 17  1  0  0  0  0
 16 21  1  0  0  0  0
 16 41  1  0  0  0  0
 17 18  1  0  0  0  0
 17 42  1  0  0  0  0
 17 43  1  0  0  0  0
 18 19  1  0  0  0  0
 18 20  1  0  0  0  0
 18 56  1  0  0  0  0
 19 44  1  0  0  0  0
 19 45  1  0  0  0  0
 19 46  1  0  0  0  0
 20 47  1  0  0  0  0
 20 48  1  0  0  0  0
 20 49  1  0  0  0  0
 21 50  1  0  0  0  0
 21 51  1  0  0  0  0
 22 23  1  0  0  0  0
 23 24  2  0  0  0  0
 23 52  1  0  0  0  0
 24 25  1  0  0  0  0
 25 53  1  0  0  0  0
 25 54  1  0  0  0  0
 25 55  1  0  0  0  0
M  CHG  1   5   1
M  CHG  1  12   1
M  CHG  1  18   1
M  END
> <s_m_source_file>
AV-unprocessed.smi

> <i_m_source_file_index>
1005

> <i_lp_mmshare_version>
43012

> <i_f3d_flags>
0

> <s_epik_input>
W0NIM11jKFtjSF0xKWMoW0NIM10pW2NIXWMoYzEyKW4oW2NIXW4yKVtDSDJdW0NASF0oW09IXSlbQ0gyXU4zW0NIMl1bQ0gyXU9bQ0BIXShbQ0gyXTMpW0NIMl1OKFtDSDNdKVtDSDNd

> <s_epik_cmdline>
J2VwaWtfcHl0aG9uJywgJy1waCcsICc3LjAnLCAnLXRuJywgJzgnLCAnLW1hJywgJzIwMCcsICctbWV0YWxfYmluZGluZycsICctaW1hZScsICc8aW5maWxlLm1hZT4nLCAnLW9tYWUnLCAnPG91dGZpbGUubWFlPic=

> <r_epik_Ionization_Penalty>
2.30802

> <r_epik_Ionization_Penalty_Charging>
2.30798

> <r_epik_Ionization_Penalty_Neutral>
3.4851e-05

> <r_epik_State_Penalty>
2.52618

> <r_epik_Charging_Adjusted_Penalty>
4.83416

> <i_epik_Tot_Q>
3

> <i_epik_Tot_abs_Q>
3

> <r_epik_Metal_State_Penalty>
6.53149

> <b_epik_Metal_Only>
0

> <s_lp_Force_Field>
OPLS_2005

> <r_lp_Energy>
42.4593

> <b_lp_Chiralities_Consistent>
1

> <s_lp_Variant>
AV-unprocessed.smi:1005-23

> <Gold.Version>
5.8.1

> <Gold.Id.Protein>
6NUR|6NUR_protein|mol2

> <Gold.PLP.Fitness>
61.2906

> <Gold.PLP.PLP>
-47.3877

> <Gold.PLP.part.hbond>
-4.0000

> <Gold.PLP.part.metal>
0.0000

> <Gold.PLP.part.buried>
-2.2092

> <Gold.PLP.part.nonpolar>
-41.2474

> <Gold.PLP.part.repulsive>
0.1796

> <Gold.PLP.ligand.clash>
0.0062

> <Gold.PLP.ligand.torsion>
0.6276

> <Gold.PLP.Chemscore.Hbond>
5.0000

> <Gold.PLP.Chemscore.CHOScore>
0.0000

> <Gold.PLP.Chemscore.Metal>
0.0000

> <Gold.Chemscore.Hbonds>
donor molecule, donor type, donor heavy atom, donor atom, acceptor molecule, acceptor atom, score
      L1  H     5    58       P1  8028  2.00
      L1  H    18    56       P1  7948  2.00
      P1  H  7997  8009       L1    10  0.81

> <Gold.PLP.Chemscore.Internal.Correction>
0.1643

> <Gold.Rescore>
     Score         DG    S(hbond)    S(metal)    S(lipo)     H(rot)  DE(clash)    DE(int)     intcor
     20.08     -23.06       2.93        0.00     122.70       2.56       0.11       2.88       ----

> <Gold.Chemscore.Fitness>
20.0781

> <Gold.Chemscore.DG>
-23.0624

> <Gold.Chemscore.ZeroCoef>
-5.4800

> <Gold.Chemscore.Hbond>
2.9256

> <Gold.Chemscore.Metal>
0.0000

> <Gold.Chemscore.Lipo>
122.6984

> <Gold.Chemscore.Internal_Hbond>
0.0000

> <Gold.Chemscore.DEClash>
0.1088

> <Gold.Chemscore.DEInternal>
2.8756

> <Gold.Chemscore.Rot>
2.5566

> <Gold.Chemscore.Internal.Correction>
   9.000000E+99

> <Gold.Chemscore.Hbonds>
donor molecule, donor type, donor heavy atom, donor atom, acceptor molecule, acceptor atom, score
      L1  H     5    58       P1  8028  0.96
      L1  H    18    56       P1  7948  0.88
      P1  H  7997  8009       L1    10  0.32

> <Gold.Chemscore.Hbond.Weighted>
-9.7716

> <Gold.Chemscore.Metal.Weighted>
-0.0000

> <Gold.Chemscore.Lipo.Weighted>
-14.3557

> <Gold.Chemscore.Internal_Hbond.Weighted>
0.0000

> <Gold.Chemscore.DEClash.Weighted>
0.1088

> <Gold.Chemscore.DEInternal.Weighted>
2.8756

> <Gold.Chemscore.Rot.Weighted>
6.5450

> <Gold.Chemscore.Internal.Correction.Weighted>
   9.000000E+99

> <Gold.Protein.RotatedTorsions>
[ 6907 6896 6895 6894 ] final -162.74 input  -60.11 | X-H torsion
[ 7974 7965 7964 7962 ] final  108.14 input  175.53 | X-H torsion
[ 8008 7997 7996 7995 ] final -129.76 input   59.86 | X-H torsion
[ 10167 10162 10161 10158 ] final   93.00 input  -65.29 | X-H torsion
[ 10718 10713 10712 10709 ] final  -33.23 input   66.30 | X-H torsion
[ 10763 10752 10751 10750 ] final  -25.79 input  -60.55 | X-H torsion
[ 11005 11000 10999 10996 ] final   57.49 input  -57.11 | X-H torsion

> <Gold.Protein.ActiveResidues>
 VAL166  LYS551  ARG553  GLY616  TRP617  ASP618  TYR619  PRO620  LYS621  CYS622 
 ASP623  PHE694  ASN695  SER759  ASP760  ASP761  ALA762  ILE779  LEU786  VAL792 
 PHE793  MET794  SER795  GLU796  ALA797  LYS798  CYS799  TRP800  GLU811  SER814 

> <Gold.Protein.RotatedAtoms>
  151.3851  133.3808  159.2714 H   0  0  0  0  0  0  0  0  0  0  0  0  # atno 6907 bound_to 6896
  150.9548  134.8944  159.7704 H   0  0  0  0  0  0  0  0  0  0  0  0  # atno 6908 bound_to 6896
  152.5126  134.3808  159.9402 H   0  0  0  0  0  0  0  0  0  0  0  0  # atno 6909 bound_to 6896
  145.2846  139.2621  143.3897 H   0  0  0  0  0  0  0  0  0  0  0  0  # atno 7974 bound_to 7965
  155.2845  140.0445  157.3018 H   0  0  0  0  0  0  0  0  0  0  0  0  # atno 8008 bound_to 7997
  154.5577  140.2337  155.8352 H   0  0  0  0  0  0  0  0  0  0  0  0  # atno 8009 bound_to 7997
  156.2021  140.3022  155.9556 H   0  0  0  0  0  0  0  0  0  0  0  0  # atno 8010 bound_to 7997
  139.8222  144.6726  150.9504 H   0  0  0  0  0  0  0  0  0  0  0  0  # atno 10167 bound_to 10162
  156.3652  130.4330  149.7590 H   0  0  0  0  0  0  0  0  0  0  0  0  # atno 10718 bound_to 10713
  153.7055  135.6954  153.5051 H   0  0  0  0  0  0  0  0  0  0  0  0  # atno 10763 bound_to 10752
  153.2311  135.4337  155.0595 H   0  0  0  0  0  0  0  0  0  0  0  0  # atno 10764 bound_to 10752
  154.8331  135.3484  154.6593 H   0  0  0  0  0  0  0  0  0  0  0  0  # atno 10765 bound_to 10752
  140.0449  134.5820  155.9335 H   0  0  0  0  0  0  0  0  0  0  0  0  # atno 11005 bound_to 11000
  146.3205  140.3321  142.8641 LP  0  0  0  0  0  0  0  0  0  0  0  0  # atno 17320 bound_to 7965
  144.9224  140.7883  143.5740 LP  0  0  0  0  0  0  0  0  0  0  0  0  # atno 17321 bound_to 7965
  140.7812  143.4081  151.1038 LP  0  0  0  0  0  0  0  0  0  0  0  0  # atno 17342 bound_to 10162
  139.7740  143.8452  152.3126 LP  0  0  0  0  0  0  0  0  0  0  0  0  # atno 17343 bound_to 10162
  156.4739  130.8009  151.3026 LP  0  0  0  0  0  0  0  0  0  0  0  0  # atno 17370 bound_to 10713
  157.7478  131.0027  150.3011 LP  0  0  0  0  0  0  0  0  0  0  0  0  # atno 17371 bound_to 10713
  141.1902  133.6567  156.5400 LP  0  0  0  0  0  0  0  0  0  0  0  0  # atno 17394 bound_to 11000
  140.4010  134.7357  157.4779 LP  0  0  0  0  0  0  0  0  0  0  0  0  # atno 17395 bound_to 11000

$$$$
