AV-unprocessed.smi:1644|AV-procd|sdf|6587|dock2
  -GOLD-   22720 7283D 1   1.00000     0.00000
 Structure written by MMmdl.
 49 51  0  0  0  0  0  0  0  0  1 V2000
  141.6461  137.3703  153.0449 C   0  0  0  0  0  0  0  0  0  0  0  0
  143.0384  136.8110  153.3548 C   0  0  0  0  0  0  0  0  0  0  0  0
  143.8888  137.7846  154.1958 C   0  0  0  0  0  0  0  0  0  0  0  0
  145.4183  137.6857  153.9958 C   0  0  1  0  0  0  0  0  0  0  0  0
  145.8181  137.7305  152.6048 N   0  0  0  0  0  0  0  0  0  0  0  0
  146.6732  138.7288  152.3490 C   0  0  0  0  0  0  0  0  0  0  0  0
  147.1494  138.9827  151.2438 O   0  0  0  0  0  0  0  0  0  0  0  0
  146.9140  139.3914  153.4973 N   0  0  0  0  0  0  0  0  0  0  0  0
  147.8076  140.5527  153.6183 C   0  0  0  0  0  0  0  0  0  0  0  0
  149.1315  140.2635  154.3722 C   0  0  1  0  0  0  0  0  0  0  0  0
  150.0326  139.6858  153.4513 O   0  0  0  0  0  0  0  0  0  0  0  0
  149.8394  141.4826  155.0076 C   0  0  0  0  0  0  0  0  0  0  0  0
  150.8317  141.1448  156.0135 N   0  0  0  0  0  0  0  0  0  0  0  0
  151.6345  140.0629  156.0172 C   0  0  0  0  0  0  0  0  0  0  0  0
  152.4873  139.9391  157.0297 N   0  0  0  0  0  0  0  0  0  0  0  0
  152.1881  141.0598  157.7835 C   0  0  0  0  0  0  0  0  0  0  0  0
  152.7525  141.5260  158.9905 C   0  0  0  0  0  0  0  0  0  0  0  0
  152.2900  142.7164  159.5945 C   0  0  0  0  0  0  0  0  0  0  0  0
  152.9320  143.1864  160.8877 C   0  0  0  0  0  0  0  0  0  0  0  0
  151.2387  143.4545  158.9947 C   0  0  0  0  0  0  0  0  0  0  0  0
  150.7249  144.7372  159.6240 C   0  0  0  0  0  0  0  0  0  0  0  0
  150.6597  142.9994  157.7921 C   0  0  0  0  0  0  0  0  0  0  0  0
  151.1413  141.8239  157.1888 C   0  0  0  0  0  0  0  0  0  0  0  0
  146.1969  138.8826  154.5092 C   0  0  0  0  0  0  0  0  0  0  0  0
  146.1529  139.2830  155.6722 O   0  0  0  0  0  0  0  0  0  0  0  0
  141.0628  136.6572  152.4622 H   0  0  0  0  0  0  0  0  0  0  0  0
  141.7119  138.2946  152.4703 H   0  0  0  0  0  0  0  0  0  0  0  0
  141.0937  137.5822  153.9607 H   0  0  0  0  0  0  0  0  0  0  0  0
  142.9273  135.8629  153.8816 H   0  0  0  0  0  0  0  0  0  0  0  0
  143.5431  136.5850  152.4151 H   0  0  0  0  0  0  0  0  0  0  0  0
  143.5718  138.8077  153.9890 H   0  0  0  0  0  0  0  0  0  0  0  0
  143.6696  137.6176  155.2511 H   0  0  0  0  0  0  0  0  0  0  0  0
  145.8084  136.7775  154.4570 H   0  0  0  0  0  0  0  0  0  0  0  0
  145.4769  137.0786  151.9133 H   0  0  0  0  0  0  0  0  0  0  0  0
  148.0348  140.8756  152.6007 H   0  0  0  0  0  0  0  0  0  0  0  0
  147.3007  141.4005  154.0819 H   0  0  0  0  0  0  0  0  0  0  0  0
  148.9675  139.5032  155.1335 H   0  0  0  0  0  0  0  0  0  0  0  0
  149.6571  139.7456  152.5860 H   0  0  0  0  0  0  0  0  0  0  0  0
  150.3386  142.0678  154.2341 H   0  0  0  0  0  0  0  0  0  0  0  0
  149.0989  142.1416  155.4637 H   0  0  0  0  0  0  0  0  0  0  0  0
  151.6066  139.3343  155.2201 H   0  0  0  0  0  0  0  0  0  0  0  0
  153.5503  140.9605  159.4487 H   0  0  0  0  0  0  0  0  0  0  0  0
  152.1883  143.2511  161.6821 H   0  0  0  0  0  0  0  0  0  0  0  0
  153.3835  144.1696  160.7542 H   0  0  0  0  0  0  0  0  0  0  0  0
  153.7141  142.5015  161.2165 H   0  0  0  0  0  0  0  0  0  0  0  0
  149.9376  145.1888  159.0201 H   0  0  0  0  0  0  0  0  0  0  0  0
  151.5304  145.4653  159.7204 H   0  0  0  0  0  0  0  0  0  0  0  0
  150.3154  144.5389  160.6145 H   0  0  0  0  0  0  0  0  0  0  0  0
  149.8603  143.5568  157.3282 H   0  0  0  0  0  0  0  0  0  0  0  0
  1  2  1  0  0  0  0
  1 26  1  0  0  0  0
  1 27  1  0  0  0  0
  1 28  1  0  0  0  0
  2  3  1  0  0  0  0
  2 29  1  0  0  0  0
  2 30  1  0  0  0  0
  3  4  1  0  0  0  0
  3 31  1  0  0  0  0
  3 32  1  0  0  0  0
  4 24  1  0  0  0  0
  4  5  1  0  0  0  0
  4 33  1  0  0  0  0
  5  6  1  0  0  0  0
  5 34  1  0  0  0  0
  6  7  2  0  0  0  0
  6  8  1  0  0  0  0
  8  9  1  0  0  0  0
  8 24  1  0  0  0  0
  9 10  1  0  0  0  0
  9 35  1  0  0  0  0
  9 36  1  0  0  0  0
 10 11  1  0  0  0  0
 10 12  1  0  0  0  0
 10 37  1  0  0  0  0
 11 38  1  0  0  0  0
 12 13  1  0  0  0  0
 12 39  1  0  0  0  0
 12 40  1  0  0  0  0
 13 23  1  0  0  0  0
 13 14  1  0  0  0  0
 14 15  2  0  0  0  0
 14 41  1  0  0  0  0
 15 16  1  0  0  0  0
 16 23  2  0  0  0  0
 16 17  1  0  0  0  0
 17 18  2  0  0  0  0
 17 42  1  0  0  0  0
 18 19  1  0  0  0  0
 18 20  1  0  0  0  0
 19 43  1  0  0  0  0
 19 44  1  0  0  0  0
 19 45  1  0  0  0  0
 20 21  1  0  0  0  0
 20 22  2  0  0  0  0
 21 46  1  0  0  0  0
 21 47  1  0  0  0  0
 21 48  1  0  0  0  0
 22 23  1  0  0  0  0
 22 49  1  0  0  0  0
 24 25  2  0  0  0  0
M  END
> <s_m_source_file>
AV-unprocessed.smi

> <i_m_source_file_index>
1644

> <i_lp_mmshare_version>
43012

> <i_f3d_flags>
0

> <s_epik_input>
W0NIM11bQ0gyXVtDSDJdW0NAQEhdMVtOSF1DKD1PKU4oQzE9TylbQ0gyXVtDQEhdKFtPSF0pW0NIMl1uKFtjSF1uMiljKGMyMylbY0hdYyhbQ0gzXSljKFtjSF0zKVtDSDNd

> <s_epik_cmdline>
J2VwaWtfcHl0aG9uJywgJy1waCcsICc3LjAnLCAnLXRuJywgJzgnLCAnLW1hJywgJzIwMCcsICctbWV0YWxfYmluZGluZycsICctaW1hZScsICc8aW5maWxlLm1hZT4nLCAnLW9tYWUnLCAnPG91dGZpbGUubWFlPic=

> <r_lp_tautomer_probability>
1

> <r_epik_Ionization_Penalty>
0.10693

> <r_epik_Ionization_Penalty_Charging>
0

> <r_epik_Ionization_Penalty_Neutral>
0.10693

> <r_epik_State_Penalty>
0.096713

> <r_epik_Charging_Adjusted_Penalty>
0.096713

> <i_epik_Tot_Q>
0

> <i_epik_Tot_abs_Q>
0

> <r_epik_Metal_State_Penalty>
0.102757

> <b_epik_Metal_Only>
0

> <s_lp_Force_Field>
OPLS_2005

> <r_lp_Energy>
20.3603

> <b_lp_Chiralities_Consistent>
1

> <s_lp_Variant>
AV-unprocessed.smi:1644-4

> <Gold.Version>
5.8.1

> <Gold.Id.Protein>
6NUR|6NUR_protein|mol2

> <Gold.PLP.Fitness>
53.6953

> <Gold.PLP.PLP>
-44.5769

> <Gold.PLP.part.hbond>
-3.6124

> <Gold.PLP.part.metal>
0.0000

> <Gold.PLP.part.buried>
-5.0518

> <Gold.PLP.part.nonpolar>
-36.9987

> <Gold.PLP.part.repulsive>
2.8677

> <Gold.PLP.ligand.clash>
0.0000

> <Gold.PLP.ligand.torsion>
1.1238

> <Gold.PLP.Chemscore.Hbond>
3.6721

> <Gold.PLP.Chemscore.CHOScore>
0.0000

> <Gold.PLP.Chemscore.Metal>
0.0000

> <Gold.Chemscore.Hbonds>
donor molecule, donor type, donor heavy atom, donor atom, acceptor molecule, acceptor atom, score
      L1  H    11    38       P1  7957  0.81
      P1  H  7954  7966       L1     7  0.85
      P1  H  7989  7998       L1    11  0.72
      P1  H  7997  8009       L1    15  1.00

> <Gold.PLP.Chemscore.Internal.Correction>
0.3499

> <Gold.Rescore>
     Score         DG    S(hbond)    S(metal)    S(lipo)     H(rot)  DE(clash)    DE(int)     intcor
     16.68     -20.61       2.85        0.00     107.56       2.72       2.11       1.81       ----

> <Gold.Chemscore.Fitness>
16.6819

> <Gold.Chemscore.DG>
-20.6090

> <Gold.Chemscore.ZeroCoef>
-5.4800

> <Gold.Chemscore.Hbond>
2.8477

> <Gold.Chemscore.Metal>
0.0000

> <Gold.Chemscore.Lipo>
107.5552

> <Gold.Chemscore.Internal_Hbond>
0.0000

> <Gold.Chemscore.DEClash>
2.1143

> <Gold.Chemscore.DEInternal>
1.8128

> <Gold.Chemscore.Rot>
2.7212

> <Gold.Chemscore.Internal.Correction>
   9.000000E+99

> <Gold.Chemscore.Hbonds>
donor molecule, donor type, donor heavy atom, donor atom, acceptor molecule, acceptor atom, score
      L1  H    11    38       P1  7957  0.80
      P1  H  7954  7966       L1     7  0.79
      P1  H  7989  7998       L1    11  0.22
      P1  H  7997  8009       L1    15  0.51

> <Gold.Chemscore.Hbond.Weighted>
-9.5113

> <Gold.Chemscore.Metal.Weighted>
-0.0000

> <Gold.Chemscore.Lipo.Weighted>
-12.5840

> <Gold.Chemscore.Internal_Hbond.Weighted>
0.0000

> <Gold.Chemscore.DEClash.Weighted>
2.1143

> <Gold.Chemscore.DEInternal.Weighted>
1.8128

> <Gold.Chemscore.Rot.Weighted>
6.9663

> <Gold.Chemscore.Internal.Correction.Weighted>
   9.000000E+99

> <Gold.Protein.RotatedTorsions>
[ 6907 6896 6895 6894 ] final   75.44 input  -60.11 | X-H torsion
[ 7974 7965 7964 7962 ] final  -95.75 input  175.53 | X-H torsion
[ 8008 7997 7996 7995 ] final -169.51 input   59.86 | X-H torsion
[ 10167 10162 10161 10158 ] final  -55.68 input  -65.29 | X-H torsion
[ 10718 10713 10712 10709 ] final  -96.46 input   66.30 | X-H torsion
[ 10763 10752 10751 10750 ] final   96.80 input  -60.55 | X-H torsion
[ 11005 11000 10999 10996 ] final -127.48 input  -57.11 | X-H torsion

> <Gold.Protein.ActiveResidues>
 VAL166  LYS551  ARG553  GLY616  TRP617  ASP618  TYR619  PRO620  LYS621  CYS622 
 ASP623  PHE694  ASN695  SER759  ASP760  ASP761  ALA762  ILE779  LEU786  VAL792 
 PHE793  MET794  SER795  GLU796  ALA797  LYS798  CYS799  TRP800  GLU811  SER814 

> <Gold.Protein.RotatedAtoms>
  152.5026  134.4119  159.9451 H   0  0  0  0  0  0  0  0  0  0  0  0  # atno 6907 bound_to 6896
  151.4088  133.3728  159.2749 H   0  0  0  0  0  0  0  0  0  0  0  0  # atno 6908 bound_to 6896
  150.9307  134.8744  159.7608 H   0  0  0  0  0  0  0  0  0  0  0  0  # atno 6909 bound_to 6896
  145.3559  140.9484  143.2528 H   0  0  0  0  0  0  0  0  0  0  0  0  # atno 7974 bound_to 7965
  155.9059  140.1049  157.1316 H   0  0  0  0  0  0  0  0  0  0  0  0  # atno 8008 bound_to 7997
  154.4032  140.1283  156.4560 H   0  0  0  0  0  0  0  0  0  0  0  0  # atno 8009 bound_to 7997
  155.7368  140.3467  155.5087 H   0  0  0  0  0  0  0  0  0  0  0  0  # atno 8010 bound_to 7997
  140.6361  143.2483  151.5115 H   0  0  0  0  0  0  0  0  0  0  0  0  # atno 10167 bound_to 10162
  156.0062  130.5152  150.6229 H   0  0  0  0  0  0  0  0  0  0  0  0  # atno 10718 bound_to 10713
  153.2693  135.4206  155.0971 H   0  0  0  0  0  0  0  0  0  0  0  0  # atno 10763 bound_to 10752
  154.8450  135.3468  154.6267 H   0  0  0  0  0  0  0  0  0  0  0  0  # atno 10764 bound_to 10752
  153.6687  135.7045  153.5211 H   0  0  0  0  0  0  0  0  0  0  0  0  # atno 10765 bound_to 10752
  140.9595  134.0955  157.3982 H   0  0  0  0  0  0  0  0  0  0  0  0  # atno 11005 bound_to 11000
  144.8682  139.5076  143.6780 LP  0  0  0  0  0  0  0  0  0  0  0  0  # atno 17320 bound_to 7965
  146.2948  139.7245  142.9134 LP  0  0  0  0  0  0  0  0  0  0  0  0  # atno 17321 bound_to 7965
  139.5571  144.2248  152.1631 LP  0  0  0  0  0  0  0  0  0  0  0  0  # atno 17342 bound_to 10162
  140.1505  144.5119  150.6690 LP  0  0  0  0  0  0  0  0  0  0  0  0  # atno 17343 bound_to 10162
  157.4041  131.0814  151.1282 LP  0  0  0  0  0  0  0  0  0  0  0  0  # atno 17370 bound_to 10713
  157.1934  130.6362  149.5712 LP  0  0  0  0  0  0  0  0  0  0  0  0  # atno 17371 bound_to 10713
  139.8873  135.0089  156.6554 LP  0  0  0  0  0  0  0  0  0  0  0  0  # atno 17394 bound_to 11000
  140.7487  133.8915  155.8331 LP  0  0  0  0  0  0  0  0  0  0  0  0  # atno 17395 bound_to 11000

$$$$
