AV-unprocessed.smi:196|AV-procd|sdf|1529|dock7
  -GOLD-   2262019383D 1   1.00000     0.00000
 Structure written by MMmdl.
 47 50  0  0  0  0  0  0  0  0  1 V2000
  150.2406  138.5321  154.0696 C   0  0  0  0  0  0  0  0  0  0  0  0
  149.8031  139.5846  155.1014 C   0  0  1  0  0  0  0  0  0  0  0  0
  150.9161  140.0364  155.8587 O   0  0  0  0  0  0  0  0  0  0  0  0
  150.5232  141.2405  156.4919 C   0  0  0  0  0  0  0  0  0  0  0  0
  149.7988  141.9866  155.3780 C   0  0  0  0  0  0  0  0  0  0  0  0
  149.1356  140.8758  154.5571 C   0  0  1  0  0  0  0  0  0  0  0  0
  149.4478  141.0908  153.1902 O   0  0  0  0  0  0  0  0  0  0  0  0
  147.5939  140.8789  154.7082 C   0  0  0  0  0  0  0  0  0  0  0  0
  146.9571  139.6853  154.1717 N   0  0  0  0  0  0  0  0  0  0  0  0
  146.9817  139.2553  152.8644 C   0  0  0  0  0  0  0  0  0  0  0  0
  146.3472  138.1391  152.6339 N   0  0  0  0  0  0  0  0  0  0  0  0
  145.8290  137.7773  153.8721 C   0  0  0  0  0  0  0  0  0  0  0  0
  145.0513  136.6795  154.3422 C   0  0  0  0  0  0  0  0  0  0  0  0
  144.6262  135.6668  153.5388 N   0  0  0  0  0  0  0  0  0  0  0  0
  145.6072  134.9613  152.7207 C   0  0  0  0  0  0  0  0  0  0  0  0
  144.9010  134.6524  151.4013 C   0  0  2  0  0  0  0  0  0  0  0  0
  145.1008  135.6562  150.5455 F   0  0  0  0  0  0  0  0  0  0  0  0
  143.4291  134.6049  151.7967 C   0  0  0  0  0  0  0  0  0  0  0  0
  143.3063  135.6762  152.8926 C   0  0  1  0  0  0  0  0  0  0  0  0
  142.1211  135.3718  153.8301 C   0  0  0  0  0  0  0  0  0  0  0  0
  142.0808  134.1917  154.4578 N   0  0  0  0  0  0  0  0  0  0  0  0
  141.2399  136.2137  153.9880 O   0  0  0  0  0  0  0  0  0  0  0  0
  144.7484  136.6564  155.6673 N   0  0  0  0  0  0  0  0  0  0  0  0
  145.1582  137.6379  156.4752 C   0  0  0  0  0  0  0  0  0  0  0  0
  145.8792  138.7185  156.1740 N   0  0  0  0  0  0  0  0  0  0  0  0
  146.2015  138.7441  154.8494 C   0  0  0  0  0  0  0  0  0  0  0  0
  145.2545  133.7378  150.9243 H   0  0  0  0  0  0  0  0  0  0  0  0
  143.1436  136.6445  152.4163 H   0  0  0  0  0  0  0  0  0  0  0  0
  149.3955  138.1931  153.4702 H   0  0  0  0  0  0  0  0  0  0  0  0
  150.6636  137.6592  154.5664 H   0  0  0  0  0  0  0  0  0  0  0  0
  151.0004  138.9241  153.3930 H   0  0  0  0  0  0  0  0  0  0  0  0
  149.1332  139.1072  155.8170 H   0  0  0  0  0  0  0  0  0  0  0  0
  149.8477  141.0188  157.3198 H   0  0  0  0  0  0  0  0  0  0  0  0
  151.3797  141.7911  156.8813 H   0  0  0  0  0  0  0  0  0  0  0  0
  149.0934  142.7220  155.7664 H   0  0  0  0  0  0  0  0  0  0  0  0
  150.5362  142.5279  154.7826 H   0  0  0  0  0  0  0  0  0  0  0  0
  150.2567  140.6441  152.9932 H   0  0  0  0  0  0  0  0  0  0  0  0
  147.3216  140.9687  155.7606 H   0  0  0  0  0  0  0  0  0  0  0  0
  147.1640  141.7484  154.2090 H   0  0  0  0  0  0  0  0  0  0  0  0
  147.4993  139.7927  152.0832 H   0  0  0  0  0  0  0  0  0  0  0  0
  146.5201  135.5349  152.5520 H   0  0  0  0  0  0  0  0  0  0  0  0
  145.8790  134.0372  153.2319 H   0  0  0  0  0  0  0  0  0  0  0  0
  142.7621  134.7863  150.9531 H   0  0  0  0  0  0  0  0  0  0  0  0
  143.1978  133.6147  152.1946 H   0  0  0  0  0  0  0  0  0  0  0  0
  141.3089  133.9752  155.0717 H   0  0  0  0  0  0  0  0  0  0  0  0
  142.8203  133.5203  154.3115 H   0  0  0  0  0  0  0  0  0  0  0  0
  144.8680  137.5422  157.5111 H   0  0  0  0  0  0  0  0  0  0  0  0
  1  2  1  0  0  0  0
  1 29  1  0  0  0  0
  1 30  1  0  0  0  0
  1 31  1  0  0  0  0
  2  6  1  0  0  0  0
  2  3  1  0  0  0  0
  2 32  1  0  0  0  0
  3  4  1  0  0  0  0
  4  5  1  0  0  0  0
  4 33  1  0  0  0  0
  4 34  1  0  0  0  0
  5  6  1  0  0  0  0
  5 35  1  0  0  0  0
  5 36  1  0  0  0  0
  6  7  1  0  0  0  0
  6  8  1  0  0  0  0
  7 37  1  0  0  0  0
  8  9  1  0  0  0  0
  8 38  1  0  0  0  0
  8 39  1  0  0  0  0
  9 26  1  0  0  0  0
  9 10  1  0  0  0  0
 10 11  2  0  0  0  0
 10 40  1  0  0  0  0
 11 12  1  0  0  0  0
 12 26  2  0  0  0  0
 12 13  1  0  0  0  0
 13 14  1  0  0  0  0
 13 23  2  0  0  0  0
 14 19  1  0  0  0  0
 14 15  1  0  0  0  0
 15 16  1  0  0  0  0
 15 41  1  0  0  0  0
 15 42  1  0  0  0  0
 16 27  1  0  0  0  0
 16 17  1  0  0  0  0
 16 18  1  0  0  0  0
 18 19  1  0  0  0  0
 18 43  1  0  0  0  0
 18 44  1  0  0  0  0
 19 28  1  0  0  0  0
 19 20  1  0  0  0  0
 20 21  1  0  0  0  0
 20 22  2  0  0  0  0
 21 45  1  0  0  0  0
 21 46  1  0  0  0  0
 23 24  1  0  0  0  0
 24 25  2  0  0  0  0
 24 47  1  0  0  0  0
 25 26  1  0  0  0  0
M  END
> <s_m_source_file>
AV-unprocessed.smi

> <i_m_source_file_index>
196

> <i_lp_mmshare_version>
43012

> <i_f3d_flags>
0

> <s_epik_input>
W0NIMl0xW0NIMl1PW0NAQEhdKFtDSDNdKVtDQEBdMShbT0hdKVtDSDJdbihbY0hdbjIpYyhjMjMpbltjSF1uYzNONFtDSDJdW0NASF0oRilbQ0gyXVtDQEhdNEMoPU8pW05IMl0=

> <s_epik_cmdline>
J2VwaWtfcHl0aG9uJywgJy1waCcsICc3LjAnLCAnLXRuJywgJzgnLCAnLW1hJywgJzIwMCcsICctbWV0YWxfYmluZGluZycsICctaW1hZScsICc8aW5maWxlLm1hZT4nLCAnLW9tYWUnLCAnPG91dGZpbGUubWFlPic=

> <r_lp_tautomer_probability>
1

> <r_epik_Ionization_Penalty>
0.000857933

> <r_epik_Ionization_Penalty_Charging>
0

> <r_epik_Ionization_Penalty_Neutral>
0.000857933

> <r_epik_State_Penalty>
0.000462053

> <r_epik_Charging_Adjusted_Penalty>
0.000462053

> <i_epik_Tot_Q>
0

> <i_epik_Tot_abs_Q>
0

> <r_epik_Metal_State_Penalty>
-0

> <b_epik_Metal_Only>
0

> <s_lp_Force_Field>
OPLS_2005

> <r_lp_Energy>
42.3272

> <b_lp_Chiralities_Consistent>
1

> <s_lp_Variant>
AV-unprocessed.smi:196-2

> <Gold.Version>
5.8.1

> <Gold.Id.Protein>
6NUR|6NUR_protein|mol2

> <Gold.PLP.Fitness>
42.9583

> <Gold.PLP.PLP>
-34.7802

> <Gold.PLP.part.hbond>
-4.1010

> <Gold.PLP.part.metal>
0.0000

> <Gold.PLP.part.buried>
-3.8189

> <Gold.PLP.part.nonpolar>
-27.4251

> <Gold.PLP.part.repulsive>
0.4587

> <Gold.PLP.ligand.clash>
0.0000

> <Gold.PLP.ligand.torsion>
1.3382

> <Gold.PLP.Chemscore.Hbond>
2.5280

> <Gold.PLP.Chemscore.CHOScore>
1.0000

> <Gold.PLP.Chemscore.Metal>
0.0000

> <Gold.Chemscore.Hbonds>
donor molecule, donor type, donor heavy atom, donor atom, acceptor molecule, acceptor atom, score
      L1  H    21    45       P1 11000  1.00
      L1  H    21    46       P1 10957  0.43
      P1  H  8011  8017       L1     7  0.75
      L1  C    10    40       P1  7957  1.00

> <Gold.PLP.Chemscore.Internal.Correction>
0.2704

> <Gold.Rescore>
     Score         DG    S(hbond)    S(metal)    S(lipo)     H(rot)  DE(clash)    DE(int)     intcor
     13.07     -14.61       2.67        0.00      58.61       2.60       0.17       1.37       ----

> <Gold.Chemscore.Fitness>
13.0721

> <Gold.Chemscore.DG>
-14.6073

> <Gold.Chemscore.ZeroCoef>
-5.4800

> <Gold.Chemscore.Hbond>
2.6701

> <Gold.Chemscore.Metal>
0.0000

> <Gold.Chemscore.Lipo>
58.6073

> <Gold.Chemscore.Internal_Hbond>
0.0000

> <Gold.Chemscore.DEClash>
0.1666

> <Gold.Chemscore.DEInternal>
1.3686

> <Gold.Chemscore.Rot>
2.5968

> <Gold.Chemscore.Internal.Correction>
   9.000000E+99

> <Gold.Chemscore.Hbonds>
donor molecule, donor type, donor heavy atom, donor atom, acceptor molecule, acceptor atom, score
      L1  H     7    37       P1  7957  0.01
      L1  H    21    45       P1 11000  0.94
      L1  H    21    46       P1 10957  0.44
      P1  H  8011  8017       L1     7  0.09

> <Gold.Chemscore.Hbond.Weighted>
-8.9180

> <Gold.Chemscore.Metal.Weighted>
-0.0000

> <Gold.Chemscore.Lipo.Weighted>
-6.8571

> <Gold.Chemscore.Internal_Hbond.Weighted>
0.0000

> <Gold.Chemscore.DEClash.Weighted>
0.1666

> <Gold.Chemscore.DEInternal.Weighted>
1.3686

> <Gold.Chemscore.Rot.Weighted>
6.6477

> <Gold.Chemscore.Internal.Correction.Weighted>
   9.000000E+99

> <Gold.Protein.RotatedTorsions>
[ 6907 6896 6895 6894 ] final  166.91 input  -60.11 | X-H torsion
[ 7974 7965 7964 7962 ] final -137.41 input  175.53 | X-H torsion
[ 8008 7997 7996 7995 ] final  -93.34 input   59.86 | X-H torsion
[ 10167 10162 10161 10158 ] final -113.25 input  -65.29 | X-H torsion
[ 10718 10713 10712 10709 ] final  -97.61 input   66.30 | X-H torsion
[ 10763 10752 10751 10750 ] final  -37.19 input  -60.55 | X-H torsion
[ 11005 11000 10999 10996 ] final -168.64 input  -57.11 | X-H torsion

> <Gold.Protein.ActiveResidues>
 VAL166  LYS551  ARG553  GLY616  TRP617  ASP618  TYR619  PRO620  LYS621  CYS622 
 ASP623  PHE694  ASN695  SER759  ASP760  ASP761  ALA762  ILE779  LEU786  VAL792 
 PHE793  MET794  SER795  GLU796  ALA797  LYS798  CYS799  TRP800  GLU811  SER814 

> <Gold.Protein.RotatedAtoms>
  151.8716  133.3477  159.3736 H   0  0  0  0  0  0  0  0  0  0  0  0  # atno 6907 bound_to 6896
  150.7151  134.5107  159.5615 H   0  0  0  0  0  0  0  0  0  0  0  0  # atno 6908 bound_to 6896
  152.2641  134.8003  160.0476 H   0  0  0  0  0  0  0  0  0  0  0  0  # atno 6909 bound_to 6896
  144.8844  140.6554  143.5185 H   0  0  0  0  0  0  0  0  0  0  0  0  # atno 7974 bound_to 7965
  154.7344  140.0500  157.0755 H   0  0  0  0  0  0  0  0  0  0  0  0  # atno 8008 bound_to 7997
  155.0260  140.3152  155.4757 H   0  0  0  0  0  0  0  0  0  0  0  0  # atno 8009 bound_to 7997
  156.2849  140.2158  156.5379 H   0  0  0  0  0  0  0  0  0  0  0  0  # atno 8010 bound_to 7997
  140.1139  143.4503  152.1735 H   0  0  0  0  0  0  0  0  0  0  0  0  # atno 10167 bound_to 10162
  156.0087  130.5202  150.6400 H   0  0  0  0  0  0  0  0  0  0  0  0  # atno 10718 bound_to 10713
  153.8922  135.6811  153.4760 H   0  0  0  0  0  0  0  0  0  0  0  0  # atno 10763 bound_to 10752
  153.1175  135.4755  154.9137 H   0  0  0  0  0  0  0  0  0  0  0  0  # atno 10764 bound_to 10752
  154.7617  135.3212  154.8319 H   0  0  0  0  0  0  0  0  0  0  0  0  # atno 10765 bound_to 10752
  140.5398  134.5534  157.5096 H   0  0  0  0  0  0  0  0  0  0  0  0  # atno 11005 bound_to 11000
  145.3895  139.1619  143.4237 LP  0  0  0  0  0  0  0  0  0  0  0  0  # atno 17320 bound_to 7965
  146.3015  140.3983  142.8702 LP  0  0  0  0  0  0  0  0  0  0  0  0  # atno 17321 bound_to 7965
  139.5605  144.7402  151.4170 LP  0  0  0  0  0  0  0  0  0  0  0  0  # atno 17342 bound_to 10162
  140.6910  143.7861  150.7256 LP  0  0  0  0  0  0  0  0  0  0  0  0  # atno 17343 bound_to 10162
  157.4182  131.0833  151.1157 LP  0  0  0  0  0  0  0  0  0  0  0  0  # atno 17370 bound_to 10713
  157.1767  130.6291  149.5658 LP  0  0  0  0  0  0  0  0  0  0  0  0  # atno 17371 bound_to 10713
  139.9510  134.7617  156.0449 LP  0  0  0  0  0  0  0  0  0  0  0  0  # atno 17394 bound_to 11000
  141.1234  133.6606  156.3273 LP  0  0  0  0  0  0  0  0  0  0  0  0  # atno 17395 bound_to 11000

$$$$
