AV-unprocessed.smi:1485|AV-procd|sdf|6003|dock10
  -GOLD-   22720 6 93D 1   1.00000     0.00000
 Structure written by MMmdl.
 44 45  0  0  0  0  0  0  0  0  1 V2000
  147.5168  136.5568  162.7646 C   0  0  0  0  0  0  0  0  0  0  0  0
  147.7292  137.1590  161.4998 O   0  0  0  0  0  0  0  0  0  0  0  0
  147.9299  136.2045  160.4714 C   0  0  0  0  0  0  0  0  0  0  0  0
  147.7670  136.8983  159.1108 C   0  0  0  0  0  0  0  0  0  0  0  0
  148.9602  136.7286  158.2756 N   0  0  0  0  0  0  0  0  0  0  0  0
  149.7825  137.8420  158.2352 N   0  0  0  0  0  0  0  0  0  0  0  0
  150.8745  137.8191  157.5412 C   0  0  0  0  0  0  0  0  0  0  0  0
  151.7862  138.9946  157.4731 C   0  0  0  0  0  0  0  0  0  0  0  0
  152.7024  139.0609  156.6518 O   0  0  0  0  0  0  0  0  0  0  0  0
  151.5339  139.9692  158.3656 N   0  0  0  0  0  0  0  0  0  0  0  0
  152.2792  141.2174  158.4924 C   0  0  2  0  0  0  0  0  0  0  0  0
  152.9700  141.2648  159.8672 C   0  0  0  0  0  0  0  0  0  0  0  0
  153.7154  142.5921  160.0733 C   0  0  0  0  0  0  0  0  0  0  0  0
  152.7748  143.7933  159.8898 C   0  0  0  0  0  0  0  0  0  0  0  0
  152.0865  143.7640  158.5118 C   0  0  2  0  0  0  0  0  0  0  0  0
  151.1461  144.9633  158.3271 C   0  0  0  0  0  0  0  0  0  0  0  0
  151.3428  142.4296  158.3082 C   0  0  0  0  0  0  0  0  0  0  0  0
  151.2566  136.6324  156.7944 C   0  0  0  0  0  0  0  0  0  0  0  0
  150.4468  135.5523  156.8479 C   0  0  0  0  0  0  0  0  0  0  0  0
  149.2095  135.5496  157.6300 C   0  0  0  0  0  0  0  0  0  0  0  0
  148.4626  134.5745  157.7049 O   0  0  0  0  0  0  0  0  0  0  0  0
  147.3745  137.3298  163.5197 H   0  0  0  0  0  0  0  0  0  0  0  0
  148.3731  135.9498  163.0618 H   0  0  0  0  0  0  0  0  0  0  0  0
  146.6264  135.9267  162.7566 H   0  0  0  0  0  0  0  0  0  0  0  0
  148.9285  135.7726  160.5548 H   0  0  0  0  0  0  0  0  0  0  0  0
  147.2091  135.3916  160.5727 H   0  0  0  0  0  0  0  0  0  0  0  0
  146.8830  136.5151  158.5980 H   0  0  0  0  0  0  0  0  0  0  0  0
  147.5724  137.9610  159.2674 H   0  0  0  0  0  0  0  0  0  0  0  0
  150.7629  139.8335  159.0036 H   0  0  0  0  0  0  0  0  0  0  0  0
  153.0532  141.2479  157.7228 H   0  0  0  0  0  0  0  0  0  0  0  0
  152.2292  141.1414  160.6586 H   0  0  0  0  0  0  0  0  0  0  0  0
  153.6684  140.4329  159.9645 H   0  0  0  0  0  0  0  0  0  0  0  0
  154.1606  142.6172  161.0682 H   0  0  0  0  0  0  0  0  0  0  0  0
  154.5407  142.6623  159.3634 H   0  0  0  0  0  0  0  0  0  0  0  0
  152.0220  143.7893  160.6793 H   0  0  0  0  0  0  0  0  0  0  0  0
  153.3391  144.7192  160.0065 H   0  0  0  0  0  0  0  0  0  0  0  0
  152.8620  143.8350  157.7476 H   0  0  0  0  0  0  0  0  0  0  0  0
  150.3428  144.9545  159.0645 H   0  0  0  0  0  0  0  0  0  0  0  0
  150.6896  144.9544  157.3370 H   0  0  0  0  0  0  0  0  0  0  0  0
  151.6850  145.9052  158.4321 H   0  0  0  0  0  0  0  0  0  0  0  0
  150.8995  142.4074  157.3118 H   0  0  0  0  0  0  0  0  0  0  0  0
  150.5138  142.3625  159.0147 H   0  0  0  0  0  0  0  0  0  0  0  0
  152.1641  136.6063  156.2088 H   0  0  0  0  0  0  0  0  0  0  0  0
  150.7187  134.6633  156.2978 H   0  0  0  0  0  0  0  0  0  0  0  0
  1  2  1  0  0  0  0
  1 22  1  0  0  0  0
  1 23  1  0  0  0  0
  1 24  1  0  0  0  0
  2  3  1  0  0  0  0
  3  4  1  0  0  0  0
  3 25  1  0  0  0  0
  3 26  1  0  0  0  0
  4  5  1  0  0  0  0
  4 27  1  0  0  0  0
  4 28  1  0  0  0  0
  5 20  1  0  0  0  0
  5  6  1  0  0  0  0
  6  7  2  0  0  0  0
  7  8  1  0  0  0  0
  7 18  1  0  0  0  0
  8  9  2  0  0  0  0
  8 10  1  0  0  0  0
 10 11  1  0  0  0  0
 10 29  1  0  0  0  0
 11 17  1  0  0  0  0
 11 12  1  0  0  0  0
 11 30  1  0  0  0  0
 12 13  1  0  0  0  0
 12 31  1  0  0  0  0
 12 32  1  0  0  0  0
 13 14  1  0  0  0  0
 13 33  1  0  0  0  0
 13 34  1  0  0  0  0
 14 15  1  0  0  0  0
 14 35  1  0  0  0  0
 14 36  1  0  0  0  0
 15 16  1  0  0  0  0
 15 17  1  0  0  0  0
 15 37  1  0  0  0  0
 16 38  1  0  0  0  0
 16 39  1  0  0  0  0
 16 40  1  0  0  0  0
 17 41  1  0  0  0  0
 17 42  1  0  0  0  0
 18 19  2  0  0  0  0
 18 43  1  0  0  0  0
 19 20  1  0  0  0  0
 19 44  1  0  0  0  0
 20 21  2  0  0  0  0
M  END
> <s_m_source_file>
AV-unprocessed.smi

> <i_m_source_file_index>
1485

> <i_lp_mmshare_version>
43012

> <i_f3d_flags>
0

> <s_epik_input>
W0NIM11PW0NIMl1bQ0gyXW4xbmMoW2NIXVtjSF1jMT1PKUMoPU8pW05IXVtDQEBIXTJbQ0gyXVtDSDJdW0NIMl1bQ0BASF0oW0NIM10pW0NIMl0y

> <s_epik_cmdline>
J2VwaWtfcHl0aG9uJywgJy1waCcsICc3LjAnLCAnLXRuJywgJzgnLCAnLW1hJywgJzIwMCcsICctbWV0YWxfYmluZGluZycsICctaW1hZScsICc8aW5maWxlLm1hZT4nLCAnLW9tYWUnLCAnPG91dGZpbGUubWFlPic=

> <r_lp_tautomer_probability>
1

> <r_epik_Ionization_Penalty>
6.4688e-07

> <r_epik_Ionization_Penalty_Charging>
6.63567e-09

> <r_epik_Ionization_Penalty_Neutral>
6.40245e-07

> <r_epik_State_Penalty>
-0

> <r_epik_Charging_Adjusted_Penalty>
6.63567e-09

> <i_epik_Tot_Q>
0

> <i_epik_Tot_abs_Q>
0

> <r_epik_Metal_State_Penalty>
-0

> <b_epik_Metal_Only>
0

> <s_lp_Force_Field>
OPLS_2005

> <r_lp_Energy>
28.6474

> <b_lp_Chiralities_Consistent>
1

> <s_lp_Variant>
AV-unprocessed.smi:1485-3

> <Gold.Version>
5.8.1

> <Gold.Id.Protein>
6NUR|6NUR_protein|mol2

> <Gold.PLP.Fitness>
44.4868

> <Gold.PLP.PLP>
-37.6476

> <Gold.PLP.part.hbond>
-3.0000

> <Gold.PLP.part.metal>
0.0000

> <Gold.PLP.part.buried>
-5.2477

> <Gold.PLP.part.nonpolar>
-28.3482

> <Gold.PLP.part.repulsive>
0.1186

> <Gold.PLP.ligand.clash>
0.0000

> <Gold.PLP.ligand.torsion>
0.7391

> <Gold.PLP.Chemscore.Hbond>
2.7680

> <Gold.PLP.Chemscore.CHOScore>
0.0000

> <Gold.PLP.Chemscore.Metal>
0.0000

> <Gold.Chemscore.Hbonds>
donor molecule, donor type, donor heavy atom, donor atom, acceptor molecule, acceptor atom, score
      P1  H  6931  6943       L1     2  1.00
      P1  H  6934  6947       L1     2  0.77
      P1  H  7997  8010       L1     9  1.00

> <Gold.PLP.Chemscore.Internal.Correction>
0.0133

> <Gold.Rescore>
     Score         DG    S(hbond)    S(metal)    S(lipo)     H(rot)  DE(clash)    DE(int)     intcor
     21.61     -22.37       2.62        0.00     103.52       1.55       0.01       0.75       ----

> <Gold.Chemscore.Fitness>
21.6087

> <Gold.Chemscore.DG>
-22.3694

> <Gold.Chemscore.ZeroCoef>
-5.4800

> <Gold.Chemscore.Hbond>
2.6169

> <Gold.Chemscore.Metal>
0.0000

> <Gold.Chemscore.Lipo>
103.5157

> <Gold.Chemscore.Internal_Hbond>
0.0000

> <Gold.Chemscore.DEClash>
0.0117

> <Gold.Chemscore.DEInternal>
0.7489

> <Gold.Chemscore.Rot>
1.5478

> <Gold.Chemscore.Internal.Correction>
   9.000000E+99

> <Gold.Chemscore.Hbonds>
donor molecule, donor type, donor heavy atom, donor atom, acceptor molecule, acceptor atom, score
      P1  H  6931  6943       L1     2  0.24
      P1  H  6934  6947       L1     2  0.68
      P1  H  7997  8010       L1     9  0.98

> <Gold.Chemscore.Hbond.Weighted>
-8.7403

> <Gold.Chemscore.Metal.Weighted>
-0.0000

> <Gold.Chemscore.Lipo.Weighted>
-12.1113

> <Gold.Chemscore.Internal_Hbond.Weighted>
0.0000

> <Gold.Chemscore.DEClash.Weighted>
0.0117

> <Gold.Chemscore.DEInternal.Weighted>
0.7489

> <Gold.Chemscore.Rot.Weighted>
3.9623

> <Gold.Chemscore.Internal.Correction.Weighted>
   9.000000E+99

> <Gold.Protein.RotatedTorsions>
[ 6907 6896 6895 6894 ] final    3.87 input  -60.11 | X-H torsion
[ 7974 7965 7964 7962 ] final  -99.98 input  175.53 | X-H torsion
[ 8008 7997 7996 7995 ] final   55.75 input   59.86 | X-H torsion
[ 10167 10162 10161 10158 ] final  142.68 input  -65.29 | X-H torsion
[ 10718 10713 10712 10709 ] final   83.78 input   66.30 | X-H torsion
[ 10763 10752 10751 10750 ] final  -53.19 input  -60.55 | X-H torsion
[ 11005 11000 10999 10996 ] final -155.98 input  -57.11 | X-H torsion

> <Gold.Protein.ActiveResidues>
 VAL166  LYS551  ARG553  GLY616  TRP617  ASP618  TYR619  PRO620  LYS621  CYS622 
 ASP623  PHE694  ASN695  SER759  ASP760  ASP761  ALA762  ILE779  LEU786  VAL792 
 PHE793  MET794  SER795  GLU796  ALA797  LYS798  CYS799  TRP800  GLU811  SER814 

> <Gold.Protein.RotatedAtoms>
  151.6322  135.1022  160.0123 H   0  0  0  0  0  0  0  0  0  0  0  0  # atno 6907 bound_to 6896
  152.4100  133.6945  159.6398 H   0  0  0  0  0  0  0  0  0  0  0  0  # atno 6908 bound_to 6896
  150.7991  133.8558  159.3259 H   0  0  0  0  0  0  0  0  0  0  0  0  # atno 6909 bound_to 6896
  145.3005  140.9376  143.2826 H   0  0  0  0  0  0  0  0  0  0  0  0  # atno 7974 bound_to 7965
  155.5062  140.3476  155.4380 H   0  0  0  0  0  0  0  0  0  0  0  0  # atno 8008 bound_to 7997
  156.0880  140.1403  156.9656 H   0  0  0  0  0  0  0  0  0  0  0  0  # atno 8009 bound_to 7997
  154.4618  140.0932  156.6890 H   0  0  0  0  0  0  0  0  0  0  0  0  # atno 8010 bound_to 7997
  139.4988  144.6091  151.6312 H   0  0  0  0  0  0  0  0  0  0  0  0  # atno 10167 bound_to 10162
  157.6885  131.0105  150.2574 H   0  0  0  0  0  0  0  0  0  0  0  0  # atno 10718 bound_to 10713
  154.1548  135.6484  153.4972 H   0  0  0  0  0  0  0  0  0  0  0  0  # atno 10763 bound_to 10752
  153.0127  135.5346  154.6771 H   0  0  0  0  0  0  0  0  0  0  0  0  # atno 10764 bound_to 10752
  154.6069  135.2949  155.0447 H   0  0  0  0  0  0  0  0  0  0  0  0  # atno 10765 bound_to 10752
  140.6806  134.4149  157.5227 H   0  0  0  0  0  0  0  0  0  0  0  0  # atno 11005 bound_to 11000
  144.9097  139.4544  143.6593 LP  0  0  0  0  0  0  0  0  0  0  0  0  # atno 17320 bound_to 7965
  146.3153  139.7899  142.8988 LP  0  0  0  0  0  0  0  0  0  0  0  0  # atno 17321 bound_to 7965
  140.5761  144.0027  150.6242 LP  0  0  0  0  0  0  0  0  0  0  0  0  # atno 17342 bound_to 10162
  140.3160  143.3167  152.0831 LP  0  0  0  0  0  0  0  0  0  0  0  0  # atno 17343 bound_to 10162
  156.3160  130.3779  149.7618 LP  0  0  0  0  0  0  0  0  0  0  0  0  # atno 17370 bound_to 10713
  156.5204  130.8212  151.3201 LP  0  0  0  0  0  0  0  0  0  0  0  0  # atno 17371 bound_to 10713
  139.8953  134.8686  156.2138 LP  0  0  0  0  0  0  0  0  0  0  0  0  # atno 17394 bound_to 11000
  141.0321  133.6983  156.1448 LP  0  0  0  0  0  0  0  0  0  0  0  0  # atno 17395 bound_to 11000

$$$$
