AV-unprocessed.smi:2953|AV-procd|sdf|11296|dock4
  -GOLD-   2272016193D 1   1.00000     0.00000
 Structure written by MMmdl.
 46 48  0  0  0  0  0  0  0  0  2 V2000
  155.2722  140.8627  160.1019 C   0  0  0  0  0  0  0  0  0  0  0  0
  154.5285  139.5814  160.4272 C   0  0  0  0  0  0  0  0  0  0  0  0
  154.6660  139.0172  161.7128 C   0  0  0  0  0  0  0  0  0  0  0  0
  153.9907  137.8291  162.0438 C   0  0  0  0  0  0  0  0  0  0  0  0
  153.1761  137.1994  161.0869 C   0  0  0  0  0  0  0  0  0  0  0  0
  153.0364  137.7566  159.8017 C   0  0  0  0  0  0  0  0  0  0  0  0
  153.7111  138.9560  159.4550 C   0  0  0  0  0  0  0  0  0  0  0  0
  153.6170  139.5510  158.2124 O   0  0  0  0  0  0  0  0  0  0  0  0
  152.5215  139.1953  157.3782 C   0  0  0  0  0  0  0  0  0  0  0  0
  151.2118  139.6944  158.0034 C   0  0  0  0  0  0  0  0  0  0  0  0
  150.9558  141.1161  157.7243 N   0  0  0  0  0  0  0  0  0  0  0  0
  150.1728  141.7173  156.7795 C   0  0  0  0  0  0  0  0  0  0  0  0
  149.3470  141.0454  155.7202 C   0  0  1  0  0  0  0  0  0  0  0  0
  148.2791  140.1358  156.3461 C   0  0  0  0  0  0  0  0  0  0  0  0
  148.6975  142.0171  154.8486 N   0  0  0  0  0  0  0  0  0  0  0  0
  147.8804  141.7030  153.8357 C   0  0  0  0  0  0  0  0  0  0  0  0
  147.5931  140.5462  153.5398 O   0  0  0  0  0  0  0  0  0  0  0  0
  150.3148  143.0647  156.9428 N   0  3  0  0  0  0  0  0  0  0  0  0
  151.1761  143.3275  158.0074 C   0  0  0  0  0  0  0  0  0  0  0  0
  151.6146  144.5318  158.5494 C   0  0  0  0  0  0  0  0  0  0  0  0
  152.5041  144.4476  159.6407 C   0  0  0  0  0  0  0  0  0  0  0  0
  152.9226  143.2020  160.1521 C   0  0  0  0  0  0  0  0  0  0  0  0
  152.4699  141.9881  159.5942 C   0  0  0  0  0  0  0  0  0  0  0  0
  151.5917  142.0804  158.5145 C   0  0  0  0  0  0  0  0  0  0  0  0
  155.5324  141.4068  161.0103 H   0  0  0  0  0  0  0  0  0  0  0  0
  154.6677  141.5247  159.4812 H   0  0  0  0  0  0  0  0  0  0  0  0
  156.1942  140.6299  159.5703 H   0  0  0  0  0  0  0  0  0  0  0  0
  155.2923  139.4946  162.4522 H   0  0  0  0  0  0  0  0  0  0  0  0
  154.0984  137.4015  163.0298 H   0  0  0  0  0  0  0  0  0  0  0  0
  152.6575  136.2859  161.3380 H   0  0  0  0  0  0  0  0  0  0  0  0
  152.4045  137.2377  159.0972 H   0  0  0  0  0  0  0  0  0  0  0  0
  152.6480  139.6287  156.3850 H   0  0  0  0  0  0  0  0  0  0  0  0
  152.4700  138.1110  157.2678 H   0  0  0  0  0  0  0  0  0  0  0  0
  150.3638  139.1107  157.6438 H   0  0  0  0  0  0  0  0  0  0  0  0
  151.2385  139.5551  159.0831 H   0  0  0  0  0  0  0  0  0  0  0  0
  150.0001  140.4152  155.1148 H   0  0  0  0  0  0  0  0  0  0  0  0
  148.7317  139.4020  157.0120 H   0  0  0  0  0  0  0  0  0  0  0  0
  147.7297  139.5899  155.5783 H   0  0  0  0  0  0  0  0  0  0  0  0
  147.5540  140.7057  156.9285 H   0  0  0  0  0  0  0  0  0  0  0  0
  148.8794  142.9943  155.0275 H   0  0  0  0  0  0  0  0  0  0  0  0
  147.5057  142.5968  153.3147 H   0  0  0  0  0  0  0  0  0  0  0  0
  151.2956  145.4871  158.1589 H   0  0  0  0  0  0  0  0  0  0  0  0
  152.8731  145.3564  160.0943 H   0  0  0  0  0  0  0  0  0  0  0  0
  153.6059  143.1766  160.9888 H   0  0  0  0  0  0  0  0  0  0  0  0
  152.7960  141.0394  159.9940 H   0  0  0  0  0  0  0  0  0  0  0  0
  149.8517  143.7530  156.3638 H   0  0  0  0  0  0  0  0  0  0  0  0
  1  2  1  0  0  0  0
  1 25  1  0  0  0  0
  1 26  1  0  0  0  0
  1 27  1  0  0  0  0
  2  7  1  0  0  0  0
  2  3  2  0  0  0  0
  3  4  1  0  0  0  0
  3 28  1  0  0  0  0
  4  5  2  0  0  0  0
  4 29  1  0  0  0  0
  5  6  1  0  0  0  0
  5 30  1  0  0  0  0
  6  7  2  0  0  0  0
  6 31  1  0  0  0  0
  7  8  1  0  0  0  0
  8  9  1  0  0  0  0
  9 10  1  0  0  0  0
  9 32  1  0  0  0  0
  9 33  1  0  0  0  0
 10 11  1  0  0  0  0
 10 34  1  0  0  0  0
 10 35  1  0  0  0  0
 11 24  1  0  0  0  0
 11 12  1  0  0  0  0
 12 13  1  0  0  0  0
 12 18  2  0  0  0  0
 13 14  1  0  0  0  0
 13 15  1  0  0  0  0
 13 36  1  0  0  0  0
 14 37  1  0  0  0  0
 14 38  1  0  0  0  0
 14 39  1  0  0  0  0
 15 16  1  0  0  0  0
 15 40  1  0  0  0  0
 16 17  2  0  0  0  0
 16 41  1  0  0  0  0
 18 19  1  0  0  0  0
 18 46  1  0  0  0  0
 19 24  2  0  0  0  0
 19 20  1  0  0  0  0
 20 21  2  0  0  0  0
 20 42  1  0  0  0  0
 21 22  1  0  0  0  0
 21 43  1  0  0  0  0
 22 23  2  0  0  0  0
 22 44  1  0  0  0  0
 23 24  1  0  0  0  0
 23 45  1  0  0  0  0
M  CHG  1  18   1
M  END
> <s_m_source_file>
AV-unprocessed.smi

> <i_m_source_file_index>
2953

> <i_lp_mmshare_version>
43012

> <i_f3d_flags>
0

> <s_epik_input>
W0NIM11jMVtjSF1bY0hdW2NIXVtjSF1jMU9bQ0gyXVtDSDJdbihjKG4yKVtDQEhdKFtDSDNdKVtOSF1bQ0hdPU8pYyhjMjMpW2NIXVtjSF1bY0hdW2NIXTM=

> <s_epik_cmdline>
J2VwaWtfcHl0aG9uJywgJy1waCcsICc3LjAnLCAnLXRuJywgJzgnLCAnLW1hJywgJzIwMCcsICctbWV0YWxfYmluZGluZycsICctaW1hZScsICc8aW5maWxlLm1hZT4nLCAnLW9tYWUnLCAnPG91dGZpbGUubWFlPic=

> <r_lp_tautomer_probability>
1

> <r_epik_Ionization_Penalty>
1.14644

> <r_epik_Ionization_Penalty_Charging>
1.14644

> <r_epik_Ionization_Penalty_Neutral>
5.5802e-08

> <r_epik_State_Penalty>
1.20743

> <r_epik_Charging_Adjusted_Penalty>
2.35387

> <i_epik_Tot_Q>
1

> <i_epik_Tot_abs_Q>
1

> <r_epik_Metal_State_Penalty>
1.28856

> <b_epik_Metal_Only>
0

> <s_lp_Force_Field>
OPLS_2005

> <r_lp_Energy>
17.243

> <b_lp_Chiralities_Consistent>
1

> <s_lp_Variant>
AV-unprocessed.smi:2953-4

> <Gold.Version>
5.8.1

> <Gold.Id.Protein>
6NUR|6NUR_protein|mol2

> <Gold.PLP.Fitness>
58.3601

> <Gold.PLP.PLP>
-47.6837

> <Gold.PLP.part.hbond>
-2.9958

> <Gold.PLP.part.metal>
0.0000

> <Gold.PLP.part.buried>
-5.8429

> <Gold.PLP.part.nonpolar>
-39.0287

> <Gold.PLP.part.repulsive>
0.3782

> <Gold.PLP.ligand.clash>
0.0000

> <Gold.PLP.ligand.torsion>
0.7102

> <Gold.PLP.Chemscore.Hbond>
4.0000

> <Gold.PLP.Chemscore.CHOScore>
0.0000

> <Gold.PLP.Chemscore.Metal>
0.0000

> <Gold.Chemscore.Hbonds>
donor molecule, donor type, donor heavy atom, donor atom, acceptor molecule, acceptor atom, score
      L1  H    15    40       P1  8028  1.00
      L1  H    18    46       P1  8028  2.00
      P1  H  7997  8009       L1     8  1.00

> <Gold.PLP.Chemscore.Internal.Correction>
0.0967

> <Gold.Rescore>
     Score         DG    S(hbond)    S(metal)    S(lipo)     H(rot)  DE(clash)    DE(int)     intcor
     23.26     -24.17       2.96        0.00     126.14       2.32       0.06       0.84       ----

> <Gold.Chemscore.Fitness>
23.2580

> <Gold.Chemscore.DG>
-24.1652

> <Gold.Chemscore.ZeroCoef>
-5.4800

> <Gold.Chemscore.Hbond>
2.9556

> <Gold.Chemscore.Metal>
0.0000

> <Gold.Chemscore.Lipo>
126.1400

> <Gold.Chemscore.Internal_Hbond>
0.0000

> <Gold.Chemscore.DEClash>
0.0626

> <Gold.Chemscore.DEInternal>
0.8447

> <Gold.Chemscore.Rot>
2.3223

> <Gold.Chemscore.Internal.Correction>
   9.000000E+99

> <Gold.Chemscore.Hbonds>
donor molecule, donor type, donor heavy atom, donor atom, acceptor molecule, acceptor atom, score
      L1  H    15    40       P1  8028  1.00
      L1  H    18    46       P1  8028  0.93
      P1  H  7997  8009       L1     8  0.39

> <Gold.Chemscore.Hbond.Weighted>
-9.8718

> <Gold.Chemscore.Metal.Weighted>
-0.0000

> <Gold.Chemscore.Lipo.Weighted>
-14.7584

> <Gold.Chemscore.Internal_Hbond.Weighted>
0.0000

> <Gold.Chemscore.DEClash.Weighted>
0.0626

> <Gold.Chemscore.DEInternal.Weighted>
0.8447

> <Gold.Chemscore.Rot.Weighted>
5.9450

> <Gold.Chemscore.Internal.Correction.Weighted>
   9.000000E+99

> <Gold.Protein.RotatedTorsions>
[ 6907 6896 6895 6894 ] final    1.71 input  -60.11 | X-H torsion
[ 7974 7965 7964 7962 ] final  -17.37 input  175.53 | X-H torsion
[ 8008 7997 7996 7995 ] final  143.36 input   59.86 | X-H torsion
[ 10167 10162 10161 10158 ] final   17.87 input  -65.29 | X-H torsion
[ 10718 10713 10712 10709 ] final  147.24 input   66.30 | X-H torsion
[ 10763 10752 10751 10750 ] final   28.95 input  -60.55 | X-H torsion
[ 11005 11000 10999 10996 ] final  -78.60 input  -57.11 | X-H torsion

> <Gold.Protein.ActiveResidues>
 VAL166  LYS551  ARG553  GLY616  TRP617  ASP618  TYR619  PRO620  LYS621  CYS622 
 ASP623  PHE694  ASN695  SER759  ASP760  ASP761  ALA762  ILE779  LEU786  VAL792 
 PHE793  MET794  SER795  GLU796  ALA797  LYS798  CYS799  TRP800  GLU811  SER814 

> <Gold.Protein.RotatedAtoms>
  151.5971  135.1050  160.0051 H   0  0  0  0  0  0  0  0  0  0  0  0  # atno 6907 bound_to 6896
  152.4277  133.7219  159.6549 H   0  0  0  0  0  0  0  0  0  0  0  0  # atno 6908 bound_to 6896
  150.8167  133.8253  159.3180 H   0  0  0  0  0  0  0  0  0  0  0  0  # atno 6909 bound_to 6896
  146.1944  140.3770  142.8446 H   0  0  0  0  0  0  0  0  0  0  0  0  # atno 7974 bound_to 7965
  156.2932  140.2264  156.4877 H   0  0  0  0  0  0  0  0  0  0  0  0  # atno 8008 bound_to 7997
  154.7798  140.0461  157.1139 H   0  0  0  0  0  0  0  0  0  0  0  0  # atno 8009 bound_to 7997
  154.9773  140.3074  155.4965 H   0  0  0  0  0  0  0  0  0  0  0  0  # atno 8010 bound_to 7997
  140.5694  143.9189  150.6701 H   0  0  0  0  0  0  0  0  0  0  0  0  # atno 10167 bound_to 10162
  157.3234  131.0908  151.1222 H   0  0  0  0  0  0  0  0  0  0  0  0  # atno 10718 bound_to 10713
  153.0460  135.6501  154.0816 H   0  0  0  0  0  0  0  0  0  0  0  0  # atno 10763 bound_to 10752
  154.0513  135.2895  155.3341 H   0  0  0  0  0  0  0  0  0  0  0  0  # atno 10764 bound_to 10752
  154.6718  135.5353  153.8213 H   0  0  0  0  0  0  0  0  0  0  0  0  # atno 10765 bound_to 10752
  141.1665  133.7070  156.7996 H   0  0  0  0  0  0  0  0  0  0  0  0  # atno 11005 bound_to 11000
  144.8550  140.7057  143.6144 LP  0  0  0  0  0  0  0  0  0  0  0  0  # atno 17320 bound_to 7965
  145.3691  139.1663  143.4342 LP  0  0  0  0  0  0  0  0  0  0  0  0  # atno 17321 bound_to 7965
  140.2660  143.3490  152.1280 LP  0  0  0  0  0  0  0  0  0  0  0  0  # atno 17342 bound_to 10162
  139.5110  144.6893  151.5803 LP  0  0  0  0  0  0  0  0  0  0  0  0  # atno 17343 bound_to 10162
  157.2499  130.6609  149.5926 LP  0  0  0  0  0  0  0  0  0  0  0  0  # atno 17370 bound_to 10713
  155.9688  130.4542  150.5840 LP  0  0  0  0  0  0  0  0  0  0  0  0  # atno 17371 bound_to 10713
  140.2266  134.8717  157.3433 LP  0  0  0  0  0  0  0  0  0  0  0  0  # atno 17394 bound_to 11000
  140.1934  134.4344  155.7703 LP  0  0  0  0  0  0  0  0  0  0  0  0  # atno 17395 bound_to 11000

$$$$
