AV-unprocessed.smi:2440|AV-procd|sdf|9618|dock3
  -GOLD-   2272013253D 1   1.00000     0.00000
 Structure written by MMmdl.
 53 55  0  0  0  0  0  0  0  0  3 V2000
  146.0779  134.3648  150.9331 C   0  0  0  0  0  0  0  0  0  0  0  0
  144.9390  134.7439  151.8641 C   0  0  0  0  0  0  0  0  0  0  0  0
  143.7825  133.9350  151.9139 C   0  0  0  0  0  0  0  0  0  0  0  0
  142.7615  134.2609  152.7344 N   0  3  0  0  0  0  0  0  0  0  0  0
  142.7834  135.3511  153.5290 C   0  0  0  0  0  0  0  0  0  0  0  0
  143.9080  136.1996  153.5265 C   0  0  0  0  0  0  0  0  0  0  0  0
  145.0144  135.8924  152.6935 C   0  0  0  0  0  0  0  0  0  0  0  0
  146.1753  136.7134  152.6200 N   0  0  0  0  0  0  0  0  0  0  0  0
  146.3731  137.9297  153.1569 C   0  0  0  0  0  0  0  0  0  0  0  0
  145.5568  138.5405  153.8464 O   0  0  0  0  0  0  0  0  0  0  0  0
  147.5956  138.3967  152.8628 N   0  0  0  0  0  0  0  0  0  0  0  0
  148.1438  139.6820  153.2898 C   0  0  2  0  0  0  0  0  0  0  0  0
  148.5471  139.6123  154.7741 C   0  0  0  0  0  0  0  0  0  0  0  0
  148.9755  140.9974  155.2962 C   0  0  0  0  0  0  0  0  0  0  0  0
  147.8988  142.0136  155.1151 N   0  3  2  0  0  0  0  0  0  0  0  0
  146.7041  141.8623  156.0169 C   0  0  0  0  0  0  0  0  0  0  0  0
  145.5678  142.8513  155.6397 C   0  0  0  0  0  0  0  0  0  0  0  0
  144.3598  142.7662  156.5860 C   0  0  0  0  0  0  0  0  0  0  0  0
  144.7744  142.9902  158.0429 C   0  0  0  0  0  0  0  0  0  0  0  0
  145.8537  141.9819  158.4464 C   0  0  0  0  0  0  0  0  0  0  0  0
  147.0721  142.0603  157.5128 C   0  0  0  0  0  0  0  0  0  0  0  0
  147.5911  142.1364  153.6603 C   0  0  0  0  0  0  0  0  0  0  0  0
  147.1105  140.8007  153.0587 C   0  0  0  0  0  0  0  0  0  0  0  0
  145.8486  133.4555  150.3765 H   0  0  0  0  0  0  0  0  0  0  0  0
  146.9919  134.1896  151.5014 H   0  0  0  0  0  0  0  0  0  0  0  0
  146.2653  135.1618  150.2130 H   0  0  0  0  0  0  0  0  0  0  0  0
  143.6414  133.0412  151.3235 H   0  0  0  0  0  0  0  0  0  0  0  0
  141.9041  135.5152  154.1347 H   0  0  0  0  0  0  0  0  0  0  0  0
  143.8950  137.0776  154.1541 H   0  0  0  0  0  0  0  0  0  0  0  0
  146.9715  136.2962  152.1603 H   0  0  0  0  0  0  0  0  0  0  0  0
  148.1974  137.8166  152.2965 H   0  0  0  0  0  0  0  0  0  0  0  0
  149.0391  139.9259  152.7146 H   0  0  0  0  0  0  0  0  0  0  0  0
  147.7222  139.2267  155.3743 H   0  0  0  0  0  0  0  0  0  0  0  0
  149.3682  138.9049  154.8990 H   0  0  0  0  0  0  0  0  0  0  0  0
  149.3243  140.9402  156.3249 H   0  0  0  0  0  0  0  0  0  0  0  0
  149.8501  141.3283  154.7342 H   0  0  0  0  0  0  0  0  0  0  0  0
  146.3119  140.8511  155.9080 H   0  0  0  0  0  0  0  0  0  0  0  0
  145.9536  143.8716  155.6365 H   0  0  0  0  0  0  0  0  0  0  0  0
  145.1913  142.6556  154.6374 H   0  0  0  0  0  0  0  0  0  0  0  0
  143.6105  143.5042  156.2978 H   0  0  0  0  0  0  0  0  0  0  0  0
  143.8845  141.7894  156.4865 H   0  0  0  0  0  0  0  0  0  0  0  0
  145.1494  144.0067  158.1704 H   0  0  0  0  0  0  0  0  0  0  0  0
  143.9081  142.8928  158.6978 H   0  0  0  0  0  0  0  0  0  0  0  0
  146.1634  142.1646  159.4759 H   0  0  0  0  0  0  0  0  0  0  0  0
  145.4393  140.9730  158.4238 H   0  0  0  0  0  0  0  0  0  0  0  0
  147.7698  141.2955  157.8498 H   0  0  0  0  0  0  0  0  0  0  0  0
  147.5692  143.0220  157.6465 H   0  0  0  0  0  0  0  0  0  0  0  0
  146.8841  142.9358  153.4512 H   0  0  0  0  0  0  0  0  0  0  0  0
  148.5044  142.4425  153.1478 H   0  0  0  0  0  0  0  0  0  0  0  0
  146.9359  140.9244  151.9891 H   0  0  0  0  0  0  0  0  0  0  0  0
  146.1484  140.5231  153.4905 H   0  0  0  0  0  0  0  0  0  0  0  0
  148.3129  142.8958  155.3812 H   0  0  0  0  0  0  0  0  0  0  0  0
  141.9365  133.6607  152.7508 H   0  0  0  0  0  0  0  0  0  0  0  0
  1  2  1  0  0  0  0
  1 24  1  0  0  0  0
  1 25  1  0  0  0  0
  1 26  1  0  0  0  0
  2  7  1  0  0  0  0
  2  3  2  0  0  0  0
  3  4  1  0  0  0  0
  3 27  1  0  0  0  0
  4  5  2  0  0  0  0
  4 53  1  0  0  0  0
  5  6  1  0  0  0  0
  5 28  1  0  0  0  0
  6  7  2  0  0  0  0
  6 29  1  0  0  0  0
  7  8  1  0  0  0  0
  8  9  1  0  0  0  0
  8 30  1  0  0  0  0
  9 10  2  0  0  0  0
  9 11  1  0  0  0  0
 11 12  1  0  0  0  0
 11 31  1  0  0  0  0
 12 23  1  0  0  0  0
 12 13  1  0  0  0  0
 12 32  1  0  0  0  0
 13 14  1  0  0  0  0
 13 33  1  0  0  0  0
 13 34  1  0  0  0  0
 14 15  1  0  0  0  0
 14 35  1  0  0  0  0
 14 36  1  0  0  0  0
 15 16  1  0  0  0  0
 15 22  1  0  0  0  0
 15 52  1  0  0  0  0
 16 21  1  0  0  0  0
 16 17  1  0  0  0  0
 16 37  1  0  0  0  0
 17 18  1  0  0  0  0
 17 38  1  0  0  0  0
 17 39  1  0  0  0  0
 18 19  1  0  0  0  0
 18 40  1  0  0  0  0
 18 41  1  0  0  0  0
 19 20  1  0  0  0  0
 19 42  1  0  0  0  0
 19 43  1  0  0  0  0
 20 21  1  0  0  0  0
 20 44  1  0  0  0  0
 20 45  1  0  0  0  0
 21 46  1  0  0  0  0
 21 47  1  0  0  0  0
 22 23  1  0  0  0  0
 22 48  1  0  0  0  0
 22 49  1  0  0  0  0
 23 50  1  0  0  0  0
 23 51  1  0  0  0  0
M  CHG  1   4   1
M  CHG  1  15   1
M  END
> <s_m_source_file>
AV-unprocessed.smi

> <i_m_source_file_index>
2440

> <i_lp_mmshare_version>
43012

> <i_f3d_flags>
0

> <s_epik_input>
W0NIM11jMVtjSF1uW2NIXVtjSF1jMVtOSF1DKD1PKVtOSF1bQ0hdMltDSDJdW0NIMl1OKFtDSDJdW0NIMl0yKVtDSF0zW0NIMl1bQ0gyXVtDSDJdW0NIMl1bQ0gyXTM=

> <s_epik_cmdline>
J2VwaWtfcHl0aG9uJywgJy1waCcsICc3LjAnLCAnLXRuJywgJzgnLCAnLW1hJywgJzIwMCcsICctbWV0YWxfYmluZGluZycsICctaW1hZScsICc8aW5maWxlLm1hZT4nLCAnLW9tYWUnLCAnPG91dGZpbGUubWFlPic=

> <r_epik_Ionization_Penalty>
0.799454

> <r_epik_Ionization_Penalty_Charging>
0.799436

> <r_epik_Ionization_Penalty_Neutral>
1.84398e-05

> <r_epik_State_Penalty>
0.81805

> <r_epik_Charging_Adjusted_Penalty>
1.61749

> <i_epik_Tot_Q>
2

> <i_epik_Tot_abs_Q>
2

> <r_epik_Metal_State_Penalty>
0.955144

> <b_epik_Metal_Only>
0

> <s_lp_Force_Field>
OPLS_2005

> <r_lp_Energy>
43.248

> <b_lp_Chiralities_Consistent>
1

> <s_lp_Variant>
AV-unprocessed.smi:2440-4

> <Gold.Version>
5.8.1

> <Gold.Id.Protein>
6NUR|6NUR_protein|mol2

> <Gold.PLP.Fitness>
40.0504

> <Gold.PLP.PLP>
-28.6407

> <Gold.PLP.part.hbond>
-4.5324

> <Gold.PLP.part.metal>
0.0000

> <Gold.PLP.part.buried>
-3.3534

> <Gold.PLP.part.nonpolar>
-21.3155

> <Gold.PLP.part.repulsive>
0.6687

> <Gold.PLP.ligand.clash>
0.0000

> <Gold.PLP.ligand.torsion>
0.3193

> <Gold.PLP.Chemscore.Hbond>
4.0000

> <Gold.PLP.Chemscore.CHOScore>
0.0000

> <Gold.PLP.Chemscore.Metal>
0.0000

> <Gold.Chemscore.Hbonds>
donor molecule, donor type, donor heavy atom, donor atom, acceptor molecule, acceptor atom, score
      L1  H     8    30       P1  7948  1.00
      L1  H    11    31       P1  7948  1.00
      L1  H    15    52       P1  8028  2.00

> <Gold.PLP.Chemscore.Internal.Correction>
0.0483

> <Gold.Rescore>
     Score         DG    S(hbond)    S(metal)    S(lipo)     H(rot)  DE(clash)    DE(int)     intcor
     16.78     -20.05       3.14        0.00      60.81       1.18       0.55       2.72       ----

> <Gold.Chemscore.Fitness>
16.7832

> <Gold.Chemscore.DG>
-20.0539

> <Gold.Chemscore.ZeroCoef>
-5.4800

> <Gold.Chemscore.Hbond>
3.1413

> <Gold.Chemscore.Metal>
0.0000

> <Gold.Chemscore.Lipo>
60.8094

> <Gold.Chemscore.Internal_Hbond>
0.0000

> <Gold.Chemscore.DEClash>
0.5478

> <Gold.Chemscore.DEInternal>
2.7229

> <Gold.Chemscore.Rot>
1.1846

> <Gold.Chemscore.Internal.Correction>
   9.000000E+99

> <Gold.Chemscore.Hbonds>
donor molecule, donor type, donor heavy atom, donor atom, acceptor molecule, acceptor atom, score
      L1  H     8    30       P1  7948  0.92
      L1  H    11    31       P1  7948  0.98
      L1  H    15    52       P1  8028  0.99

> <Gold.Chemscore.Hbond.Weighted>
-10.4918

> <Gold.Chemscore.Metal.Weighted>
-0.0000

> <Gold.Chemscore.Lipo.Weighted>
-7.1147

> <Gold.Chemscore.Internal_Hbond.Weighted>
0.0000

> <Gold.Chemscore.DEClash.Weighted>
0.5478

> <Gold.Chemscore.DEInternal.Weighted>
2.7229

> <Gold.Chemscore.Rot.Weighted>
3.0326

> <Gold.Chemscore.Internal.Correction.Weighted>
   9.000000E+99

> <Gold.Protein.RotatedTorsions>
[ 6907 6896 6895 6894 ] final    8.51 input  -60.11 | X-H torsion
[ 7974 7965 7964 7962 ] final    8.66 input  175.53 | X-H torsion
[ 8008 7997 7996 7995 ] final   36.96 input   59.86 | X-H torsion
[ 10167 10162 10161 10158 ] final  -37.13 input  -65.29 | X-H torsion
[ 10718 10713 10712 10709 ] final  -82.59 input   66.30 | X-H torsion
[ 10763 10752 10751 10750 ] final   33.00 input  -60.55 | X-H torsion
[ 11005 11000 10999 10996 ] final -102.60 input  -57.11 | X-H torsion

> <Gold.Protein.ActiveResidues>
 VAL166  LYS551  ARG553  GLY616  TRP617  ASP618  TYR619  PRO620  LYS621  CYS622 
 ASP623  PHE694  ASN695  SER759  ASP760  ASP761  ALA762  ILE779  LEU786  VAL792 
 PHE793  MET794  SER795  GLU796  ALA797  LYS798  CYS799  TRP800  GLU811  SER814 

> <Gold.Protein.RotatedAtoms>
  151.7072  135.0919  160.0261 H   0  0  0  0  0  0  0  0  0  0  0  0  # atno 6907 bound_to 6896
  152.3684  133.6383  159.6077 H   0  0  0  0  0  0  0  0  0  0  0  0  # atno 6908 bound_to 6896
  150.7655  133.9226  159.3444 H   0  0  0  0  0  0  0  0  0  0  0  0  # atno 6909 bound_to 6896
  146.2413  139.9900  142.8427 H   0  0  0  0  0  0  0  0  0  0  0  0  # atno 7974 bound_to 7965
  155.1960  140.3312  155.4351 H   0  0  0  0  0  0  0  0  0  0  0  0  # atno 8008 bound_to 7997
  156.2425  140.1902  156.6999 H   0  0  0  0  0  0  0  0  0  0  0  0  # atno 8009 bound_to 7997
  154.6174  140.0600  156.9557 H   0  0  0  0  0  0  0  0  0  0  0  0  # atno 8010 bound_to 7997
  140.7126  143.3362  151.2457 H   0  0  0  0  0  0  0  0  0  0  0  0  # atno 10167 bound_to 10162
  156.0031  130.4639  150.4128 H   0  0  0  0  0  0  0  0  0  0  0  0  # atno 10718 bound_to 10713
  153.0234  135.6398  154.1443 H   0  0  0  0  0  0  0  0  0  0  0  0  # atno 10763 bound_to 10752
  154.1174  135.2849  155.3218 H   0  0  0  0  0  0  0  0  0  0  0  0  # atno 10764 bound_to 10752
  154.6288  135.5500  153.7719 H   0  0  0  0  0  0  0  0  0  0  0  0  # atno 10765 bound_to 10752
  141.1182  133.8571  157.1380 H   0  0  0  0  0  0  0  0  0  0  0  0  # atno 11005 bound_to 11000
  145.1512  140.9624  143.4431 LP  0  0  0  0  0  0  0  0  0  0  0  0  # atno 17320 bound_to 7965
  145.0203  139.3430  143.6075 LP  0  0  0  0  0  0  0  0  0  0  0  0  # atno 17321 bound_to 7965
  139.6858  143.9776  152.2833 LP  0  0  0  0  0  0  0  0  0  0  0  0  # atno 17342 bound_to 10162
  139.9421  144.6675  150.8256 LP  0  0  0  0  0  0  0  0  0  0  0  0  # atno 17343 bound_to 10162
  157.2190  131.0478  151.2557 LP  0  0  0  0  0  0  0  0  0  0  0  0  # atno 17370 bound_to 10713
  157.3818  130.7235  149.6635 LP  0  0  0  0  0  0  0  0  0  0  0  0  # atno 17371 bound_to 10713
  140.0120  134.9984  157.0414 LP  0  0  0  0  0  0  0  0  0  0  0  0  # atno 17394 bound_to 11000
  140.4584  134.1510  155.7188 LP  0  0  0  0  0  0  0  0  0  0  0  0  # atno 17395 bound_to 11000

$$$$
