AV-unprocessed.smi:609|AV-procd|sdf|3049|dock9
  -GOLD-   2262023573D 1   1.00000     0.00000
 Structure written by MMmdl.
 44 46  0  0  0  0  0  0  0  0  3 V2000
  145.3776  129.8885  151.9877 C   0  0  0  0  0  0  0  0  0  0  0  0
  145.4751  131.4047  151.9845 C   0  0  0  0  0  0  0  0  0  0  0  0
  144.4799  132.1432  151.3052 C   0  0  0  0  0  0  0  0  0  0  0  0
  144.5948  133.5281  151.3235 C   0  0  0  0  0  0  0  0  0  0  0  0
  143.7868  134.5216  150.7657 N   0  3  0  0  0  0  0  0  0  0  0  0
  144.3068  135.7464  151.0560 C   0  0  0  0  0  0  0  0  0  0  0  0
  145.4415  135.5484  151.7812 N   0  0  0  0  0  0  0  0  0  0  0  0
  146.3830  136.5217  152.3494 C   0  0  0  0  0  0  0  0  0  0  0  0
  146.1570  137.9608  151.8414 C   0  0  2  0  0  0  0  0  0  0  0  0
  146.5337  138.0011  150.4807 O   0  0  0  0  0  0  0  0  0  0  0  0
  146.9493  139.0261  152.6216 C   0  0  0  0  0  0  0  0  0  0  0  0
  147.3278  138.4939  154.3153 S   0  0  0  0  0  0  0  0  0  0  0  0
  149.0859  138.5850  154.4500 C   0  0  0  0  0  0  0  0  0  0  0  0
  149.9373  137.7231  153.8882 N   0  3  0  0  0  0  0  0  0  0  0  0
  151.2247  138.0791  154.1877 C   0  0  0  0  0  0  0  0  0  0  0  0
  151.1474  139.2115  154.9591 C   0  0  0  0  0  0  0  0  0  0  0  0
  149.8147  139.5052  155.1012 N   0  0  0  0  0  0  0  0  0  0  0  0
  149.2474  140.6382  155.8362 C   0  0  0  0  0  0  0  0  0  0  0  0
  145.6546  134.1809  151.9820 C   0  0  0  0  0  0  0  0  0  0  0  0
  146.6430  133.4692  152.6567 C   0  0  0  0  0  0  0  0  0  0  0  0
  146.5419  132.0596  152.6532 C   0  0  0  0  0  0  0  0  0  0  0  0
  147.6034  131.2558  153.3848 C   0  0  0  0  0  0  0  0  0  0  0  0
  144.5172  129.5425  151.4143 H   0  0  0  0  0  0  0  0  0  0  0  0
  145.2709  129.5148  153.0064 H   0  0  0  0  0  0  0  0  0  0  0  0
  146.2709  129.4453  151.5472 H   0  0  0  0  0  0  0  0  0  0  0  0
  143.6634  131.6515  150.7969 H   0  0  0  0  0  0  0  0  0  0  0  0
  143.8951  136.7012  150.7619 H   0  0  0  0  0  0  0  0  0  0  0  0
  146.2704  136.4838  153.4341 H   0  0  0  0  0  0  0  0  0  0  0  0
  147.3974  136.1840  152.1313 H   0  0  0  0  0  0  0  0  0  0  0  0
  145.0945  138.1989  151.8977 H   0  0  0  0  0  0  0  0  0  0  0  0
  145.8606  138.4532  149.9948 H   0  0  0  0  0  0  0  0  0  0  0  0
  147.8927  139.2341  152.1200 H   0  0  0  0  0  0  0  0  0  0  0  0
  146.3957  139.9651  152.6586 H   0  0  0  0  0  0  0  0  0  0  0  0
  152.0778  137.5163  153.8373 H   0  0  0  0  0  0  0  0  0  0  0  0
  151.9246  139.8169  155.4032 H   0  0  0  0  0  0  0  0  0  0  0  0
  149.9899  141.4341  155.8999 H   0  0  0  0  0  0  0  0  0  0  0  0
  148.9793  140.3150  156.8419 H   0  0  0  0  0  0  0  0  0  0  0  0
  148.3660  141.0175  155.3185 H   0  0  0  0  0  0  0  0  0  0  0  0
  147.4538  133.9685  153.1666 H   0  0  0  0  0  0  0  0  0  0  0  0
  148.3257  131.9057  153.8799 H   0  0  0  0  0  0  0  0  0  0  0  0
  148.1493  130.6196  152.6878 H   0  0  0  0  0  0  0  0  0  0  0  0
  147.1486  130.6241  154.1482 H   0  0  0  0  0  0  0  0  0  0  0  0
  149.6664  136.9253  153.3271 H   0  0  0  0  0  0  0  0  0  0  0  0
  142.9385  134.3770  150.2330 H   0  0  0  0  0  0  0  0  0  0  0  0
  1  2  1  0  0  0  0
  1 23  1  0  0  0  0
  1 24  1  0  0  0  0
  1 25  1  0  0  0  0
  2 21  1  0  0  0  0
  2  3  2  0  0  0  0
  3  4  1  0  0  0  0
  3 26  1  0  0  0  0
  4 19  2  0  0  0  0
  4  5  1  0  0  0  0
  5  6  2  0  0  0  0
  5 44  1  0  0  0  0
  6  7  1  0  0  0  0
  6 27  1  0  0  0  0
  7  8  1  0  0  0  0
  7 19  1  0  0  0  0
  8  9  1  0  0  0  0
  8 28  1  0  0  0  0
  8 29  1  0  0  0  0
  9 10  1  0  0  0  0
  9 11  1  0  0  0  0
  9 30  1  0  0  0  0
 10 31  1  0  0  0  0
 11 12  1  0  0  0  0
 11 32  1  0  0  0  0
 11 33  1  0  0  0  0
 12 13  1  0  0  0  0
 13 17  1  0  0  0  0
 13 14  2  0  0  0  0
 14 15  1  0  0  0  0
 14 43  1  0  0  0  0
 15 16  2  0  0  0  0
 15 34  1  0  0  0  0
 16 17  1  0  0  0  0
 16 35  1  0  0  0  0
 17 18  1  0  0  0  0
 18 36  1  0  0  0  0
 18 37  1  0  0  0  0
 18 38  1  0  0  0  0
 19 20  1  0  0  0  0
 20 21  2  0  0  0  0
 20 39  1  0  0  0  0
 21 22  1  0  0  0  0
 22 40  1  0  0  0  0
 22 41  1  0  0  0  0
 22 42  1  0  0  0  0
M  CHG  1   5   1
M  CHG  1  14   1
M  END
> <s_m_source_file>
AV-unprocessed.smi

> <i_m_source_file_index>
609

> <i_lp_mmshare_version>
43012

> <i_f3d_flags>
0

> <s_epik_input>
W0NIM11jKFtjSF0xKWMoW0NIM10pW2NIXWMoYzEyKW4oW2NIXW4yKVtDSDJdW0NASF0oW09IXSlbQ0gyXVNjM25bY0hdW2NIXW4zW0NIM10=

> <s_epik_cmdline>
J2VwaWtfcHl0aG9uJywgJy1waCcsICc3LjAnLCAnLXRuJywgJzgnLCAnLW1hJywgJzIwMCcsICctbWV0YWxfYmluZGluZycsICctaW1hZScsICc8aW5maWxlLm1hZT4nLCAnLW9tYWUnLCAnPG91dGZpbGUubWFlPic=

> <r_lp_tautomer_probability>
1

> <r_epik_Ionization_Penalty>
1.19058

> <r_epik_Ionization_Penalty_Charging>
1.07615

> <r_epik_Ionization_Penalty_Neutral>
0.114429

> <r_epik_State_Penalty>
1.23473

> <r_epik_Charging_Adjusted_Penalty>
2.31088

> <i_epik_Tot_Q>
2

> <i_epik_Tot_abs_Q>
2

> <r_epik_Metal_State_Penalty>
4.63867

> <b_epik_Metal_Only>
0

> <s_lp_Force_Field>
OPLS_2005

> <r_lp_Energy>
20.2349

> <b_lp_Chiralities_Consistent>
1

> <s_lp_Variant>
AV-unprocessed.smi:609-5

> <Gold.Version>
5.8.1

> <Gold.Id.Protein>
6NUR|6NUR_protein|mol2

> <Gold.PLP.Fitness>
59.4102

> <Gold.PLP.PLP>
-41.3555

> <Gold.PLP.part.hbond>
-4.6918

> <Gold.PLP.part.metal>
0.0000

> <Gold.PLP.part.buried>
-0.1327

> <Gold.PLP.part.nonpolar>
-36.4307

> <Gold.PLP.part.repulsive>
0.0506

> <Gold.PLP.ligand.clash>
0.0000

> <Gold.PLP.ligand.torsion>
1.1538

> <Gold.PLP.Chemscore.Hbond>
5.7745

> <Gold.PLP.Chemscore.CHOScore>
1.0000

> <Gold.PLP.Chemscore.Metal>
0.0000

> <Gold.Chemscore.Hbonds>
donor molecule, donor type, donor heavy atom, donor atom, acceptor molecule, acceptor atom, score
      L1  H     5    44       P1 10186  1.95
      L1  H    10    31       P1 10171  0.86
      L1  H    14    43       P1  7948  2.00
      P1  H  7954  7966       L1    10  0.91
      L1  C     6    27       P1 10171  1.00

> <Gold.PLP.Chemscore.Internal.Correction>
0.0387

> <Gold.Rescore>
     Score         DG    S(hbond)    S(metal)    S(lipo)     H(rot)  DE(clash)    DE(int)     intcor
     18.16     -20.58       3.34        0.00      90.19       2.59       1.30       1.12       ----

> <Gold.Chemscore.Fitness>
18.1581

> <Gold.Chemscore.DG>
-20.5759

> <Gold.Chemscore.ZeroCoef>
-5.4800

> <Gold.Chemscore.Hbond>
3.3426

> <Gold.Chemscore.Metal>
0.0000

> <Gold.Chemscore.Lipo>
90.1922

> <Gold.Chemscore.Internal_Hbond>
0.0000

> <Gold.Chemscore.DEClash>
1.3012

> <Gold.Chemscore.DEInternal>
1.1166

> <Gold.Chemscore.Rot>
2.5863

> <Gold.Chemscore.Internal.Correction>
   9.000000E+99

> <Gold.Chemscore.Hbonds>
donor molecule, donor type, donor heavy atom, donor atom, acceptor molecule, acceptor atom, score
      L1  H     5    44       P1 10186  0.75
      L1  H    10    31       P1 10171  0.83
      L1  H    14    43       P1  7948  0.58
      P1  H  7954  7966       L1    10  0.88

> <Gold.Chemscore.Hbond.Weighted>
-11.1644

> <Gold.Chemscore.Metal.Weighted>
-0.0000

> <Gold.Chemscore.Lipo.Weighted>
-10.5525

> <Gold.Chemscore.Internal_Hbond.Weighted>
0.0000

> <Gold.Chemscore.DEClash.Weighted>
1.3012

> <Gold.Chemscore.DEInternal.Weighted>
1.1166

> <Gold.Chemscore.Rot.Weighted>
6.6210

> <Gold.Chemscore.Internal.Correction.Weighted>
   9.000000E+99

> <Gold.Protein.RotatedTorsions>
[ 6907 6896 6895 6894 ] final -141.02 input  -60.11 | X-H torsion
[ 7974 7965 7964 7962 ] final -111.14 input  175.53 | X-H torsion
[ 8008 7997 7996 7995 ] final -113.98 input   59.86 | X-H torsion
[ 10167 10162 10161 10158 ] final  128.71 input  -65.29 | X-H torsion
[ 10718 10713 10712 10709 ] final  121.77 input   66.30 | X-H torsion
[ 10763 10752 10751 10750 ] final  -41.73 input  -60.55 | X-H torsion
[ 11005 11000 10999 10996 ] final -105.32 input  -57.11 | X-H torsion

> <Gold.Protein.ActiveResidues>
 VAL166  LYS551  ARG553  GLY616  TRP617  ASP618  TYR619  PRO620  LYS621  CYS622 
 ASP623  PHE694  ASN695  SER759  ASP760  ASP761  ALA762  ILE779  LEU786  VAL792 
 PHE793  MET794  SER795  GLU796  ALA797  LYS798  CYS799  TRP800  GLU811  SER814 

> <Gold.Protein.RotatedAtoms>
  151.0683  133.5487  159.2628 H   0  0  0  0  0  0  0  0  0  0  0  0  # atno 6907 bound_to 6896
  151.2436  135.0597  159.9044 H   0  0  0  0  0  0  0  0  0  0  0  0  # atno 6908 bound_to 6896
  152.5408  134.0454  159.8140 H   0  0  0  0  0  0  0  0  0  0  0  0  # atno 6909 bound_to 6896
  145.1597  140.8872  143.3598 H   0  0  0  0  0  0  0  0  0  0  0  0  # atno 7974 bound_to 7965
  155.0291  140.0393  157.2467 H   0  0  0  0  0  0  0  0  0  0  0  0  # atno 8008 bound_to 7997
  154.7312  140.2731  155.6431 H   0  0  0  0  0  0  0  0  0  0  0  0  # atno 8009 bound_to 7997
  156.2842  140.2684  156.2012 H   0  0  0  0  0  0  0  0  0  0  0  0  # atno 8010 bound_to 7997
  139.5513  144.6815  151.4314 H   0  0  0  0  0  0  0  0  0  0  0  0  # atno 10167 bound_to 10162
  157.5793  131.1076  150.8218 H   0  0  0  0  0  0  0  0  0  0  0  0  # atno 10718 bound_to 10713
  153.9673  135.6732  153.4746 H   0  0  0  0  0  0  0  0  0  0  0  0  # atno 10763 bound_to 10752
  153.0809  135.4924  154.8498 H   0  0  0  0  0  0  0  0  0  0  0  0  # atno 10764 bound_to 10752
  154.7239  135.3123  154.8964 H   0  0  0  0  0  0  0  0  0  0  0  0  # atno 10765 bound_to 10752
  141.1059  133.8798  157.1720 H   0  0  0  0  0  0  0  0  0  0  0  0  # atno 11005 bound_to 11000
  145.0344  139.3313  143.6008 LP  0  0  0  0  0  0  0  0  0  0  0  0  # atno 17320 bound_to 7965
  146.3484  139.9694  142.8708 LP  0  0  0  0  0  0  0  0  0  0  0  0  # atno 17321 bound_to 7965
  140.6776  143.8153  150.7079 LP  0  0  0  0  0  0  0  0  0  0  0  0  # atno 17342 bound_to 10162
  140.1597  143.4286  152.2075 LP  0  0  0  0  0  0  0  0  0  0  0  0  # atno 17343 bound_to 10162
  156.8669  130.5132  149.5299 LP  0  0  0  0  0  0  0  0  0  0  0  0  # atno 17370 bound_to 10713
  156.0838  130.5842  150.9612 LP  0  0  0  0  0  0  0  0  0  0  0  0  # atno 17371 bound_to 10713
  139.9929  135.0058  157.0016 LP  0  0  0  0  0  0  0  0  0  0  0  0  # atno 17394 bound_to 11000
  140.4904  134.1199  155.7231 LP  0  0  0  0  0  0  0  0  0  0  0  0  # atno 17395 bound_to 11000

$$$$
