AV-unprocessed.smi:1213|AV-procd|sdf|5091|dock3
  -GOLD-   22720 4143D 1   1.00000     0.00000
 Structure written by MMmdl.
 36 37  0  0  0  0  0  0  0  0  3 V2000
  148.9540  133.9007  153.5611 N   0  0  0  0  0  0  0  0  0  0  0  0
  149.0330  134.1529  154.8698 C   0  0  0  0  0  0  0  0  0  0  0  0
  149.5522  133.3654  155.6590 O   0  0  0  0  0  0  0  0  0  0  0  0
  148.4642  135.4918  155.3513 C   0  0  0  0  0  0  0  0  0  0  0  0
  149.0885  136.6640  154.6853 N   0  3  2  0  0  0  0  0  0  0  0  0
  150.5397  136.7982  154.9843 C   0  0  0  0  0  0  0  0  0  0  0  0
  151.1695  137.9480  154.1785 C   0  0  0  0  0  0  0  0  0  0  0  0
  150.4421  139.2843  154.4258 C   0  0  2  0  0  0  0  0  0  0  0  0
  150.6519  139.7702  155.7892 N   0  0  0  0  0  0  0  0  0  0  0  0
  151.8288  139.8968  156.4177 C   0  0  0  0  0  0  0  0  0  0  0  0
  152.8745  139.6045  155.8340 O   0  0  0  0  0  0  0  0  0  0  0  0
  151.7145  140.3469  157.6873 N   0  5  0  0  0  0  0  0  0  0  0  0
  151.8130  141.6609  157.9464 C   0  0  0  0  0  0  0  0  0  0  0  0
  151.1911  142.5960  157.2197 N   0  0  0  0  0  0  0  0  0  0  0  0
  151.4237  143.8960  157.6724 C   0  0  0  0  0  0  0  0  0  0  0  0
  152.2360  143.9513  158.7737 C   0  0  0  0  0  0  0  0  0  0  0  0
  152.7347  142.3624  159.2796 S   0  0  0  0  0  0  0  0  0  0  0  0
  148.9391  139.1027  154.1562 C   0  0  0  0  0  0  0  0  0  0  0  0
  148.3511  137.9251  154.9562 C   0  0  0  0  0  0  0  0  0  0  0  0
  149.3169  133.0318  153.1953 H   0  0  0  0  0  0  0  0  0  0  0  0
  148.5347  134.5761  152.9382 H   0  0  0  0  0  0  0  0  0  0  0  0
  147.3959  135.4711  155.1319 H   0  0  0  0  0  0  0  0  0  0  0  0
  148.5593  135.5832  156.4347 H   0  0  0  0  0  0  0  0  0  0  0  0
  150.6799  136.9658  156.0535 H   0  0  0  0  0  0  0  0  0  0  0  0
  151.0595  135.8707  154.7434 H   0  0  0  0  0  0  0  0  0  0  0  0
  152.2295  138.0357  154.4192 H   0  0  0  0  0  0  0  0  0  0  0  0
  151.1231  137.7064  153.1159 H   0  0  0  0  0  0  0  0  0  0  0  0
  150.8271  140.0355  153.7339 H   0  0  0  0  0  0  0  0  0  0  0  0
  149.8291  140.0366  156.3095 H   0  0  0  0  0  0  0  0  0  0  0  0
  150.9686  144.7241  157.1498 H   0  0  0  0  0  0  0  0  0  0  0  0
  152.5679  144.8230  159.3169 H   0  0  0  0  0  0  0  0  0  0  0  0
  148.3999  140.0215  154.3908 H   0  0  0  0  0  0  0  0  0  0  0  0
  148.7843  138.9245  153.0911 H   0  0  0  0  0  0  0  0  0  0  0  0
  147.3019  137.8022  154.6856 H   0  0  0  0  0  0  0  0  0  0  0  0
  148.3772  138.1394  156.0260 H   0  0  0  0  0  0  0  0  0  0  0  0
  149.0084  136.4978  153.6920 H   0  0  0  0  0  0  0  0  0  0  0  0
  1  2  1  0  0  0  0
  1 20  1  0  0  0  0
  1 21  1  0  0  0  0
  2  3  2  0  0  0  0
  2  4  1  0  0  0  0
  4  5  1  0  0  0  0
  4 22  1  0  0  0  0
  4 23  1  0  0  0  0
  5 19  1  0  0  0  0
  5  6  1  0  0  0  0
  5 36  1  0  0  0  0
  6  7  1  0  0  0  0
  6 24  1  0  0  0  0
  6 25  1  0  0  0  0
  7  8  1  0  0  0  0
  7 26  1  0  0  0  0
  7 27  1  0  0  0  0
  8  9  1  0  0  0  0
  8 18  1  0  0  0  0
  8 28  1  0  0  0  0
  9 10  1  0  0  0  0
  9 29  1  0  0  0  0
 10 11  2  0  0  0  0
 10 12  1  0  0  0  0
 12 13  1  0  0  0  0
 13 17  1  0  0  0  0
 13 14  2  0  0  0  0
 14 15  1  0  0  0  0
 15 16  2  0  0  0  0
 15 30  1  0  0  0  0
 16 17  1  0  0  0  0
 16 31  1  0  0  0  0
 18 19  1  0  0  0  0
 18 32  1  0  0  0  0
 18 33  1  0  0  0  0
 19 34  1  0  0  0  0
 19 35  1  0  0  0  0
M  CHG  1   5   1
M  CHG  1  12  -1
M  END
> <s_m_source_file>
AV-unprocessed.smi

> <i_m_source_file_index>
1213

> <i_lp_mmshare_version>
43012

> <i_f3d_flags>
0

> <s_epik_input>
W05IMl1DKD1PKVtDSDJdTjFbQ0gyXVtDSDJdW0NIXShbQ0gyXVtDSDJdMSlbTkhdQyg9TylbTkhdYzJuW2NIXVtjSF1zMg==

> <s_epik_cmdline>
J2VwaWtfcHl0aG9uJywgJy1waCcsICc3LjAnLCAnLXRuJywgJzgnLCAnLW1hJywgJzIwMCcsICctbWV0YWxfYmluZGluZycsICctaW1hZScsICc8aW5maWxlLm1hZT4nLCAnLW9tYWUnLCAnPG91dGZpbGUubWFlPic=

> <r_lp_tautomer_probability>
0.999

> <r_epik_Ionization_Penalty>
7.1168

> <r_epik_Ionization_Penalty_Charging>
6.25003

> <r_epik_Ionization_Penalty_Neutral>
0.866763

> <r_epik_State_Penalty>
6.33484

> <r_epik_Charging_Adjusted_Penalty>
12.5849

> <i_epik_Tot_Q>
0

> <i_epik_Tot_abs_Q>
2

> <r_epik_Metal_State_Penalty>
2.3501

> <b_epik_Metal_Only>
1

> <s_lp_Force_Field>
OPLS_2005

> <r_lp_Energy>
4.12503

> <b_lp_Chiralities_Consistent>
1

> <s_lp_Variant>
AV-unprocessed.smi:1213-8

> <Gold.Version>
5.8.1

> <Gold.Id.Protein>
6NUR|6NUR_protein|mol2

> <Gold.PLP.Fitness>
45.0831

> <Gold.PLP.PLP>
-32.9771

> <Gold.PLP.part.hbond>
-3.0000

> <Gold.PLP.part.metal>
0.0000

> <Gold.PLP.part.buried>
-2.4361

> <Gold.PLP.part.nonpolar>
-26.9054

> <Gold.PLP.part.repulsive>
0.1850

> <Gold.PLP.ligand.clash>
0.0000

> <Gold.PLP.ligand.torsion>
1.2348

> <Gold.PLP.Chemscore.Hbond>
3.8320

> <Gold.PLP.Chemscore.CHOScore>
0.9998

> <Gold.PLP.Chemscore.Metal>
0.0000

> <Gold.Chemscore.Hbonds>
donor molecule, donor type, donor heavy atom, donor atom, acceptor molecule, acceptor atom, score
      L1  H     1    21       P1  7948  0.83
      L1  H     5    36       P1  7948  2.00
      P1  H  7997  8009       L1    11  1.00
      L1  C    15    30       P1  8028  1.00

> <Gold.PLP.Chemscore.Internal.Correction>
0.0801

> <Gold.Rescore>
     Score         DG    S(hbond)    S(metal)    S(lipo)     H(rot)  DE(clash)    DE(int)     intcor
     14.10     -16.55       2.43        0.00      69.92       2.04       0.18       2.27       ----

> <Gold.Chemscore.Fitness>
14.1047

> <Gold.Chemscore.DG>
-16.5530

> <Gold.Chemscore.ZeroCoef>
-5.4800

> <Gold.Chemscore.Hbond>
2.4275

> <Gold.Chemscore.Metal>
0.0000

> <Gold.Chemscore.Lipo>
69.9186

> <Gold.Chemscore.Internal_Hbond>
0.0000

> <Gold.Chemscore.DEClash>
0.1759

> <Gold.Chemscore.DEInternal>
2.2724

> <Gold.Chemscore.Rot>
2.0373

> <Gold.Chemscore.Internal.Correction>
   9.000000E+99

> <Gold.Chemscore.Hbonds>
donor molecule, donor type, donor heavy atom, donor atom, acceptor molecule, acceptor atom, score
      L1  H     1    21       P1  7948  0.21
      L1  H     5    36       P1  7948  1.00
      P1  H  7997  8009       L1    11  0.99

> <Gold.Chemscore.Hbond.Weighted>
-8.1079

> <Gold.Chemscore.Metal.Weighted>
-0.0000

> <Gold.Chemscore.Lipo.Weighted>
-8.1805

> <Gold.Chemscore.Internal_Hbond.Weighted>
0.0000

> <Gold.Chemscore.DEClash.Weighted>
0.1759

> <Gold.Chemscore.DEInternal.Weighted>
2.2724

> <Gold.Chemscore.Rot.Weighted>
5.2154

> <Gold.Chemscore.Internal.Correction.Weighted>
   9.000000E+99

> <Gold.Protein.RotatedTorsions>
[ 6907 6896 6895 6894 ] final  -86.40 input  -60.11 | X-H torsion
[ 7974 7965 7964 7962 ] final   13.11 input  175.53 | X-H torsion
[ 8008 7997 7996 7995 ] final -152.25 input   59.86 | X-H torsion
[ 10167 10162 10161 10158 ] final  116.92 input  -65.29 | X-H torsion
[ 10718 10713 10712 10709 ] final  163.98 input   66.30 | X-H torsion
[ 10763 10752 10751 10750 ] final   -1.05 input  -60.55 | X-H torsion
[ 11005 11000 10999 10996 ] final   37.20 input  -57.11 | X-H torsion

> <Gold.Protein.ActiveResidues>
 VAL166  LYS551  ARG553  GLY616  TRP617  ASP618  TYR619  PRO620  LYS621  CYS622 
 ASP623  PHE694  ASN695  SER759  ASP760  ASP761  ALA762  ILE779  LEU786  VAL792 
 PHE793  MET794  SER795  GLU796  ALA797  LYS798  CYS799  TRP800  GLU811  SER814 

> <Gold.Protein.RotatedAtoms>
  150.6867  134.3056  159.4724 H   0  0  0  0  0  0  0  0  0  0  0  0  # atno 6907 bound_to 6896
  152.0947  134.9380  160.0580 H   0  0  0  0  0  0  0  0  0  0  0  0  # atno 6908 bound_to 6896
  152.0682  133.4059  159.4484 H   0  0  0  0  0  0  0  0  0  0  0  0  # atno 6909 bound_to 6896
  146.2337  139.9238  142.8506 H   0  0  0  0  0  0  0  0  0  0  0  0  # atno 7974 bound_to 7965
  155.6521  140.0713  157.2583 H   0  0  0  0  0  0  0  0  0  0  0  0  # atno 8008 bound_to 7997
  154.4160  140.1731  156.1736 H   0  0  0  0  0  0  0  0  0  0  0  0  # atno 8009 bound_to 7997
  155.9768  140.3357  155.6629 H   0  0  0  0  0  0  0  0  0  0  0  0  # atno 8010 bound_to 7997
  139.6214  144.7101  151.2626 H   0  0  0  0  0  0  0  0  0  0  0  0  # atno 10167 bound_to 10162
  157.1008  131.0442  151.2499 H   0  0  0  0  0  0  0  0  0  0  0  0  # atno 10718 bound_to 10713
  153.3398  135.6980  153.6877 H   0  0  0  0  0  0  0  0  0  0  0  0  # atno 10763 bound_to 10752
  153.5646  135.3528  155.2814 H   0  0  0  0  0  0  0  0  0  0  0  0  # atno 10764 bound_to 10752
  154.8634  135.4257  154.2607 H   0  0  0  0  0  0  0  0  0  0  0  0  # atno 10765 bound_to 10752
  140.2249  134.3597  155.7989 H   0  0  0  0  0  0  0  0  0  0  0  0  # atno 11005 bound_to 11000
  145.2111  140.9896  143.4100 LP  0  0  0  0  0  0  0  0  0  0  0  0  # atno 17320 bound_to 7965
  144.9690  139.3899  143.6318 LP  0  0  0  0  0  0  0  0  0  0  0  0  # atno 17321 bound_to 7965
  140.7384  143.6648  150.8132 LP  0  0  0  0  0  0  0  0  0  0  0  0  # atno 17342 bound_to 10162
  140.0260  143.5493  152.2780 LP  0  0  0  0  0  0  0  0  0  0  0  0  # atno 17343 bound_to 10162
  157.4642  130.7671  149.7264 LP  0  0  0  0  0  0  0  0  0  0  0  0  # atno 17370 bound_to 10713
  155.9874  130.3967  150.3166 LP  0  0  0  0  0  0  0  0  0  0  0  0  # atno 17371 bound_to 10713
  141.2221  133.7213  156.8636 LP  0  0  0  0  0  0  0  0  0  0  0  0  # atno 17394 bound_to 11000
  140.1811  134.9033  157.2949 LP  0  0  0  0  0  0  0  0  0  0  0  0  # atno 17395 bound_to 11000

$$$$
