AV-unprocessed.smi:1638|AV-procd|sdf|6547|dock1
  -GOLD-   22720 7233D 1   1.00000     0.00000
 Structure written by MMmdl.
 40 41  0  0  0  0  0  0  0  0  3 V2000
  152.4850  141.8803  159.1514 C   0  0  0  0  0  0  0  0  0  0  0  0
  152.1250  141.2554  157.8472 C   0  0  0  0  0  0  0  0  0  0  0  0
  152.5937  140.0661  157.4604 N   0  0  0  0  0  0  0  0  0  0  0  0
  152.1144  139.6971  156.2126 N   0  0  0  0  0  0  0  0  0  0  0  0
  151.2794  140.6023  155.6815 C   0  0  0  0  0  0  0  0  0  0  0  0
  150.6940  140.4224  154.4862 N   0  5  0  0  0  0  0  0  0  0  0  0
  149.4030  140.0299  154.4302 C   0  0  0  0  0  0  0  0  0  0  0  0
  148.6336  139.9176  155.3868 O   0  0  0  0  0  0  0  0  0  0  0  0
  148.9933  139.6955  153.1983 N   0  0  0  0  0  0  0  0  0  0  0  0
  147.7421  139.0164  152.8643 C   0  0  0  0  0  0  0  0  0  0  0  0
  147.4220  137.9080  153.8888 C   0  0  0  0  0  0  0  0  0  0  0  0
  146.7462  136.7391  153.2620 N   0  3  0  0  0  0  0  0  0  0  0  0
  145.6877  137.0863  152.2808 C   0  0  0  0  0  0  0  0  0  0  0  0
  145.8804  136.2601  150.9977 C   0  0  0  0  0  0  0  0  0  0  0  0
  145.4527  134.7885  151.1148 C   0  0  0  0  0  0  0  0  0  0  0  0
  146.1100  134.0163  152.2724 C   0  0  0  0  0  0  0  0  0  0  0  0
  145.6137  134.4844  153.6521 C   0  0  0  0  0  0  0  0  0  0  0  0
  146.3613  135.6951  154.2485 C   0  0  0  0  0  0  0  0  0  0  0  0
  151.0418  142.0223  156.6977 S   0  0  0  0  0  0  0  0  0  0  0  0
  151.7804  141.5655  159.9214 H   0  0  0  0  0  0  0  0  0  0  0  0
  152.4534  142.9669  159.0697 H   0  0  0  0  0  0  0  0  0  0  0  0
  153.4904  141.5831  159.4515 H   0  0  0  0  0  0  0  0  0  0  0  0
  149.6517  139.8300  152.4443 H   0  0  0  0  0  0  0  0  0  0  0  0
  146.9173  139.7265  152.7900 H   0  0  0  0  0  0  0  0  0  0  0  0
  147.8485  138.5771  151.8723 H   0  0  0  0  0  0  0  0  0  0  0  0
  148.3227  137.5912  154.4161 H   0  0  0  0  0  0  0  0  0  0  0  0
  146.7758  138.3586  154.6424 H   0  0  0  0  0  0  0  0  0  0  0  0
  144.6904  136.9582  152.7037 H   0  0  0  0  0  0  0  0  0  0  0  0
  145.7535  138.1373  151.9998 H   0  0  0  0  0  0  0  0  0  0  0  0
  145.3027  136.7180  150.1942 H   0  0  0  0  0  0  0  0  0  0  0  0
  146.9232  136.3155  150.6807 H   0  0  0  0  0  0  0  0  0  0  0  0
  144.3678  134.7314  151.2095 H   0  0  0  0  0  0  0  0  0  0  0  0
  145.6941  134.2856  150.1776 H   0  0  0  0  0  0  0  0  0  0  0  0
  145.8523  132.9631  152.1564 H   0  0  0  0  0  0  0  0  0  0  0  0
  147.1972  134.0638  152.2078 H   0  0  0  0  0  0  0  0  0  0  0  0
  144.5454  134.6969  153.6000 H   0  0  0  0  0  0  0  0  0  0  0  0
  145.7037  133.6580  154.3579 H   0  0  0  0  0  0  0  0  0  0  0  0
  147.2672  135.3394  154.7389 H   0  0  0  0  0  0  0  0  0  0  0  0
  145.7458  136.1395  155.0315 H   0  0  0  0  0  0  0  0  0  0  0  0
  147.4675  136.3181  152.6921 H   0  0  0  0  0  0  0  0  0  0  0  0
  1  2  1  0  0  0  0
  1 20  1  0  0  0  0
  1 21  1  0  0  0  0
  1 22  1  0  0  0  0
  2 19  1  0  0  0  0
  2  3  2  0  0  0  0
  3  4  1  0  0  0  0
  4  5  2  0  0  0  0
  5  6  1  0  0  0  0
  5 19  1  0  0  0  0
  6  7  1  0  0  0  0
  7  8  2  0  0  0  0
  7  9  1  0  0  0  0
  9 10  1  0  0  0  0
  9 23  1  0  0  0  0
 10 11  1  0  0  0  0
 10 24  1  0  0  0  0
 10 25  1  0  0  0  0
 11 12  1  0  0  0  0
 11 26  1  0  0  0  0
 11 27  1  0  0  0  0
 12 18  1  0  0  0  0
 12 13  1  0  0  0  0
 12 40  1  0  0  0  0
 13 14  1  0  0  0  0
 13 28  1  0  0  0  0
 13 29  1  0  0  0  0
 14 15  1  0  0  0  0
 14 30  1  0  0  0  0
 14 31  1  0  0  0  0
 15 16  1  0  0  0  0
 15 32  1  0  0  0  0
 15 33  1  0  0  0  0
 16 17  1  0  0  0  0
 16 34  1  0  0  0  0
 16 35  1  0  0  0  0
 17 18  1  0  0  0  0
 17 36  1  0  0  0  0
 17 37  1  0  0  0  0
 18 38  1  0  0  0  0
 18 39  1  0  0  0  0
M  CHG  1   6  -1
M  CHG  1  12   1
M  END
> <s_m_source_file>
AV-unprocessed.smi

> <i_m_source_file_index>
1638

> <i_lp_mmshare_version>
43012

> <i_f3d_flags>
0

> <s_epik_input>
W0NIM11jMW5uYyhzMSlbTkhdQyg9TylbTkhdW0NIMl1bQ0gyXU4yW0NIMl1bQ0gyXVtDSDJdW0NIMl1bQ0gyXVtDSDJdMg==

> <s_epik_cmdline>
J2VwaWtfcHl0aG9uJywgJy1waCcsICc3LjAnLCAnLXRuJywgJzgnLCAnLW1hJywgJzIwMCcsICctbWV0YWxfYmluZGluZycsICctaW1hZScsICc8aW5maWxlLm1hZT4nLCAnLW9tYWUnLCAnPG91dGZpbGUubWFlPic=

> <r_lp_tautomer_probability>
1

> <r_epik_Ionization_Penalty>
3.03755

> <r_epik_Ionization_Penalty_Charging>
2.92994

> <r_epik_Ionization_Penalty_Neutral>
0.107609

> <r_epik_State_Penalty>
2.92594

> <r_epik_Charging_Adjusted_Penalty>
5.85589

> <i_epik_Tot_Q>
0

> <i_epik_Tot_abs_Q>
2

> <r_epik_Metal_State_Penalty>
0.448256

> <b_epik_Metal_Only>
1

> <s_lp_Force_Field>
OPLS_2005

> <r_lp_Energy>
18.025

> <b_lp_Chiralities_Consistent>
1

> <s_lp_Variant>
AV-unprocessed.smi:1638-2

> <Gold.Version>
5.8.1

> <Gold.Id.Protein>
6NUR|6NUR_protein|mol2

> <Gold.PLP.Fitness>
41.5870

> <Gold.PLP.PLP>
-28.8152

> <Gold.PLP.part.hbond>
-4.0731

> <Gold.PLP.part.metal>
0.0000

> <Gold.PLP.part.buried>
-2.6446

> <Gold.PLP.part.nonpolar>
-22.0118

> <Gold.PLP.part.repulsive>
0.2209

> <Gold.PLP.ligand.clash>
0.0000

> <Gold.PLP.ligand.torsion>
1.1782

> <Gold.PLP.Chemscore.Hbond>
4.9920

> <Gold.PLP.Chemscore.CHOScore>
0.0000

> <Gold.PLP.Chemscore.Metal>
0.0000

> <Gold.Chemscore.Hbonds>
donor molecule, donor type, donor heavy atom, donor atom, acceptor molecule, acceptor atom, score
      L1  H     9    23       P1  7957  0.32
      L1  H    12    40       P1  7948  2.00
      P1  H  7989  7998       L1     6  0.75
      P1  H  7997  8009       L1     3  0.60

> <Gold.PLP.Chemscore.Internal.Correction>
0.1523

> <Gold.Rescore>
     Score         DG    S(hbond)    S(metal)    S(lipo)     H(rot)  DE(clash)    DE(int)     intcor
     15.01     -17.79       2.62        0.00      64.80       1.57       0.21       2.56       ----

> <Gold.Chemscore.Fitness>
15.0129

> <Gold.Chemscore.DG>
-17.7851

> <Gold.Chemscore.ZeroCoef>
-5.4800

> <Gold.Chemscore.Hbond>
2.6166

> <Gold.Chemscore.Metal>
0.0000

> <Gold.Chemscore.Lipo>
64.7983

> <Gold.Chemscore.Internal_Hbond>
0.0000

> <Gold.Chemscore.DEClash>
0.2082

> <Gold.Chemscore.DEInternal>
2.5641

> <Gold.Chemscore.Rot>
1.5686

> <Gold.Chemscore.Internal.Correction>
   9.000000E+99

> <Gold.Chemscore.Hbonds>
donor molecule, donor type, donor heavy atom, donor atom, acceptor molecule, acceptor atom, score
      L1  H     9    23       P1  7957  0.31
      L1  H    12    40       P1  7948  0.99
      P1  H  7989  7998       L1     6  0.44
      P1  H  7997  8009       L1     3  0.04

> <Gold.Chemscore.Hbond.Weighted>
-8.7394

> <Gold.Chemscore.Metal.Weighted>
-0.0000

> <Gold.Chemscore.Lipo.Weighted>
-7.5814

> <Gold.Chemscore.Internal_Hbond.Weighted>
0.0000

> <Gold.Chemscore.DEClash.Weighted>
0.2082

> <Gold.Chemscore.DEInternal.Weighted>
2.5641

> <Gold.Chemscore.Rot.Weighted>
4.0157

> <Gold.Chemscore.Internal.Correction.Weighted>
   9.000000E+99

> <Gold.Protein.RotatedTorsions>
[ 6907 6896 6895 6894 ] final -167.54 input  -60.11 | X-H torsion
[ 7974 7965 7964 7962 ] final   60.30 input  175.53 | X-H torsion
[ 8008 7997 7996 7995 ] final  169.59 input   59.86 | X-H torsion
[ 10167 10162 10161 10158 ] final  166.27 input  -65.29 | X-H torsion
[ 10718 10713 10712 10709 ] final  115.02 input   66.30 | X-H torsion
[ 10763 10752 10751 10750 ] final   12.41 input  -60.55 | X-H torsion
[ 11005 11000 10999 10996 ] final  -66.07 input  -57.11 | X-H torsion

> <Gold.Protein.ActiveResidues>
 VAL166  LYS551  ARG553  GLY616  TRP617  ASP618  TYR619  PRO620  LYS621  CYS622 
 ASP623  PHE694  ASN695  SER759  ASP760  ASP761  ALA762  ILE779  LEU786  VAL792 
 PHE793  MET794  SER795  GLU796  ALA797  LYS798  CYS799  TRP800  GLU811  SER814 

> <Gold.Protein.RotatedAtoms>
  151.4611  133.3592  159.2809 H   0  0  0  0  0  0  0  0  0  0  0  0  # atno 6907 bound_to 6896
  150.9025  134.8439  159.7380 H   0  0  0  0  0  0  0  0  0  0  0  0  # atno 6908 bound_to 6896
  152.4887  134.4533  159.9633 H   0  0  0  0  0  0  0  0  0  0  0  0  # atno 6909 bound_to 6896
  145.8976  139.3557  143.0612 H   0  0  0  0  0  0  0  0  0  0  0  0  # atno 7974 bound_to 7965
  156.1443  140.1560  156.8872 H   0  0  0  0  0  0  0  0  0  0  0  0  # atno 8008 bound_to 7997
  154.5014  140.0824  156.7844 H   0  0  0  0  0  0  0  0  0  0  0  0  # atno 8009 bound_to 7997
  155.4019  140.3415  155.4260 H   0  0  0  0  0  0  0  0  0  0  0  0  # atno 8010 bound_to 7997
  139.4921  144.4045  151.9371 H   0  0  0  0  0  0  0  0  0  0  0  0  # atno 10167 bound_to 10162
  157.6247  131.1007  150.7269 H   0  0  0  0  0  0  0  0  0  0  0  0  # atno 10718 bound_to 10713
  153.1825  135.6830  153.8459 H   0  0  0  0  0  0  0  0  0  0  0  0  # atno 10763 bound_to 10752
  153.7786  135.3185  155.3363 H   0  0  0  0  0  0  0  0  0  0  0  0  # atno 10764 bound_to 10752
  154.8068  135.4743  154.0509 H   0  0  0  0  0  0  0  0  0  0  0  0  # atno 10765 bound_to 10752
  141.1472  133.6693  156.6084 H   0  0  0  0  0  0  0  0  0  0  0  0  # atno 11005 bound_to 11000
  145.8831  140.9350  143.0591 LP  0  0  0  0  0  0  0  0  0  0  0  0  # atno 17320 bound_to 7965
  144.6734  140.0807  143.7469 LP  0  0  0  0  0  0  0  0  0  0  0  0  # atno 17321 bound_to 7965
  140.3485  144.3118  150.5953 LP  0  0  0  0  0  0  0  0  0  0  0  0  # atno 17342 bound_to 10162
  140.5505  143.2207  151.7934 LP  0  0  0  0  0  0  0  0  0  0  0  0  # atno 17343 bound_to 10162
  156.7620  130.4801  149.5435 LP  0  0  0  0  0  0  0  0  0  0  0  0  # atno 17370 bound_to 10713
  156.1412  130.6246  151.0469 LP  0  0  0  0  0  0  0  0  0  0  0  0  # atno 17371 bound_to 10713
  140.3634  134.7668  157.4549 LP  0  0  0  0  0  0  0  0  0  0  0  0  # atno 17394 bound_to 11000
  140.0767  134.5787  155.8583 LP  0  0  0  0  0  0  0  0  0  0  0  0  # atno 17395 bound_to 11000

$$$$
