AV-unprocessed.smi:1893|AV-procd|sdf|7678|dock10
  -GOLD-   22720 9423D 1   1.00000     0.00000
 Structure written by MMmdl.
 43 44  0  0  0  0  0  0  0  0  2 V2000
  145.9274  137.6222  152.2644 C   0  0  0  0  0  0  0  0  0  0  0  0
  145.5798  136.1183  152.2840 C   0  0  1  0  0  0  0  0  0  0  0  0
  145.3268  135.6594  150.8298 C   0  0  0  0  0  0  0  0  0  0  0  0
  144.9775  134.1721  150.7449 C   0  0  0  0  0  0  0  0  0  0  0  0
  146.0876  133.3565  151.4056 C   0  0  0  0  0  0  0  0  0  0  0  0
  146.3037  133.8199  152.8523 C   0  0  0  0  0  0  0  0  0  0  0  0
  146.6357  135.2725  152.9344 N   0  3  2  0  0  0  0  0  0  0  0  0
  146.9725  135.6768  154.3305 C   0  0  0  0  0  0  0  0  0  0  0  0
  148.2453  134.9927  154.8619 C   0  0  0  0  0  0  0  0  0  0  0  0
  148.9721  135.8862  155.7527 N   0  0  0  0  0  0  0  0  0  0  0  0
  150.2859  136.1424  155.6617 C   0  0  0  0  0  0  0  0  0  0  0  0
  151.0115  135.6254  154.8115 O   0  0  0  0  0  0  0  0  0  0  0  0
  150.8550  137.1386  156.6839 C   0  0  1  0  0  0  0  0  0  0  0  0
  152.1939  136.6781  157.2899 C   0  0  0  0  0  0  0  0  0  0  0  0
  150.9797  138.4589  156.0819 N   0  0  0  0  0  0  0  0  0  0  0  0
  150.7440  138.8799  154.8359 C   0  0  0  0  0  0  0  0  0  0  0  0
  150.9591  140.1756  154.6575 N   0  0  0  0  0  0  0  0  0  0  0  0
  151.3535  140.5173  155.9200 C   0  0  0  0  0  0  0  0  0  0  0  0
  151.3780  139.5276  156.8127 N   0  0  0  0  0  0  0  0  0  0  0  0
  145.2363  138.1724  151.6250 H   0  0  0  0  0  0  0  0  0  0  0  0
  146.9337  137.7945  151.8811 H   0  0  0  0  0  0  0  0  0  0  0  0
  145.8507  138.0828  153.2484 H   0  0  0  0  0  0  0  0  0  0  0  0
  144.6538  135.9914  152.8475 H   0  0  0  0  0  0  0  0  0  0  0  0
  144.5166  136.2413  150.3886 H   0  0  0  0  0  0  0  0  0  0  0  0
  146.2115  135.8572  150.2222 H   0  0  0  0  0  0  0  0  0  0  0  0
  144.0258  133.9819  151.2428 H   0  0  0  0  0  0  0  0  0  0  0  0
  144.8546  133.8707  149.7042 H   0  0  0  0  0  0  0  0  0  0  0  0
  145.8316  132.2967  151.3875 H   0  0  0  0  0  0  0  0  0  0  0  0
  147.0146  133.4619  150.8400 H   0  0  0  0  0  0  0  0  0  0  0  0
  145.4096  133.6177  153.4444 H   0  0  0  0  0  0  0  0  0  0  0  0
  147.1017  133.2145  153.2774 H   0  0  0  0  0  0  0  0  0  0  0  0
  147.1588  136.7462  154.3913 H   0  0  0  0  0  0  0  0  0  0  0  0
  146.1228  135.4777  154.9857 H   0  0  0  0  0  0  0  0  0  0  0  0
  148.0141  134.0861  155.4201 H   0  0  0  0  0  0  0  0  0  0  0  0
  148.8869  134.7061  154.0268 H   0  0  0  0  0  0  0  0  0  0  0  0
  148.4450  136.3500  156.4788 H   0  0  0  0  0  0  0  0  0  0  0  0
  150.1349  137.2071  157.5017 H   0  0  0  0  0  0  0  0  0  0  0  0
  152.0990  135.6988  157.7605 H   0  0  0  0  0  0  0  0  0  0  0  0
  152.5326  137.3763  158.0558 H   0  0  0  0  0  0  0  0  0  0  0  0
  152.9796  136.6107  156.5361 H   0  0  0  0  0  0  0  0  0  0  0  0
  150.4057  138.2260  154.0452 H   0  0  0  0  0  0  0  0  0  0  0  0
  151.6263  141.5268  156.1908 H   0  0  0  0  0  0  0  0  0  0  0  0
  147.4747  135.4111  152.3893 H   0  0  0  0  0  0  0  0  0  0  0  0
  1  2  1  0  0  0  0
  1 20  1  0  0  0  0
  1 21  1  0  0  0  0
  1 22  1  0  0  0  0
  2  7  1  0  0  0  0
  2  3  1  0  0  0  0
  2 23  1  0  0  0  0
  3  4  1  0  0  0  0
  3 24  1  0  0  0  0
  3 25  1  0  0  0  0
  4  5  1  0  0  0  0
  4 26  1  0  0  0  0
  4 27  1  0  0  0  0
  5  6  1  0  0  0  0
  5 28  1  0  0  0  0
  5 29  1  0  0  0  0
  6  7  1  0  0  0  0
  6 30  1  0  0  0  0
  6 31  1  0  0  0  0
  7  8  1  0  0  0  0
  7 43  1  0  0  0  0
  8  9  1  0  0  0  0
  8 32  1  0  0  0  0
  8 33  1  0  0  0  0
  9 10  1  0  0  0  0
  9 34  1  0  0  0  0
  9 35  1  0  0  0  0
 10 11  1  0  0  0  0
 10 36  1  0  0  0  0
 11 12  2  0  0  0  0
 11 13  1  0  0  0  0
 13 14  1  0  0  0  0
 13 15  1  0  0  0  0
 13 37  1  0  0  0  0
 14 38  1  0  0  0  0
 14 39  1  0  0  0  0
 14 40  1  0  0  0  0
 15 19  1  0  0  0  0
 15 16  1  0  0  0  0
 16 17  2  0  0  0  0
 16 41  1  0  0  0  0
 17 18  1  0  0  0  0
 18 19  2  0  0  0  0
 18 42  1  0  0  0  0
M  CHG  1   7   1
M  END
> <s_m_source_file>
AV-unprocessed.smi

> <i_m_source_file_index>
1893

> <i_lp_mmshare_version>
43012

> <i_f3d_flags>
0

> <s_epik_input>
W0NIM11bQ0BASF0xW0NIMl1bQ0gyXVtDSDJdW0NIMl1OMVtDSDJdW0NIMl1bTkhdQyg9TylbQ0BIXShbQ0gzXSluMltjSF1uW2NIXW4y

> <s_epik_cmdline>
J2VwaWtfcHl0aG9uJywgJy1waCcsICc3LjAnLCAnLXRuJywgJzgnLCAnLW1hJywgJzIwMCcsICctbWV0YWxfYmluZGluZycsICctaW1hZScsICc8aW5maWxlLm1hZT4nLCAnLW9tYWUnLCAnPG91dGZpbGUubWFlPic=

> <r_lp_tautomer_probability>
1

> <r_epik_Ionization_Penalty>
0.00266409

> <r_epik_Ionization_Penalty_Charging>
0.00265606

> <r_epik_Ionization_Penalty_Neutral>
8.02794e-06

> <r_epik_State_Penalty>
0.00184955

> <r_epik_Charging_Adjusted_Penalty>
0.00450561

> <i_epik_Tot_Q>
1

> <i_epik_Tot_abs_Q>
1

> <r_epik_Metal_State_Penalty>
-0

> <b_epik_Metal_Only>
0

> <s_lp_Force_Field>
OPLS_2005

> <r_lp_Energy>
26.1161

> <b_lp_Chiralities_Consistent>
1

> <s_lp_Variant>
AV-unprocessed.smi:1893-8

> <Gold.Version>
5.8.1

> <Gold.Id.Protein>
6NUR|6NUR_protein|mol2

> <Gold.PLP.Fitness>
37.2183

> <Gold.PLP.PLP>
-26.7769

> <Gold.PLP.part.hbond>
-2.9497

> <Gold.PLP.part.metal>
0.0000

> <Gold.PLP.part.buried>
-4.1594

> <Gold.PLP.part.nonpolar>
-20.5593

> <Gold.PLP.part.repulsive>
0.2467

> <Gold.PLP.ligand.clash>
0.0000

> <Gold.PLP.ligand.torsion>
0.8361

> <Gold.PLP.Chemscore.Hbond>
4.0000

> <Gold.PLP.Chemscore.CHOScore>
0.0000

> <Gold.PLP.Chemscore.Metal>
0.0000

> <Gold.Chemscore.Hbonds>
donor molecule, donor type, donor heavy atom, donor atom, acceptor molecule, acceptor atom, score
      L1  H     7    43       P1  7948  2.00
      P1  H  7989  7998       L1    17  0.94
      P1  H 10752 10763       L1    12  1.00

> <Gold.PLP.Chemscore.Internal.Correction>
0.1136

> <Gold.Rescore>
     Score         DG    S(hbond)    S(metal)    S(lipo)     H(rot)  DE(clash)    DE(int)     intcor
     13.55     -14.39       2.97        0.00      46.94       2.54       0.03       0.82       ----

> <Gold.Chemscore.Fitness>
13.5452

> <Gold.Chemscore.DG>
-14.3884

> <Gold.Chemscore.ZeroCoef>
-5.4800

> <Gold.Chemscore.Hbond>
2.9681

> <Gold.Chemscore.Metal>
0.0000

> <Gold.Chemscore.Lipo>
46.9368

> <Gold.Chemscore.Internal_Hbond>
0.0000

> <Gold.Chemscore.DEClash>
0.0256

> <Gold.Chemscore.DEInternal>
0.8176

> <Gold.Chemscore.Rot>
2.5377

> <Gold.Chemscore.Internal.Correction>
   9.000000E+99

> <Gold.Chemscore.Hbonds>
donor molecule, donor type, donor heavy atom, donor atom, acceptor molecule, acceptor atom, score
      L1  H     7    43       P1  7948  0.99
      P1  H  7989  7998       L1    17  0.86
      P1  H 10752 10763       L1    12  0.99

> <Gold.Chemscore.Hbond.Weighted>
-9.9134

> <Gold.Chemscore.Metal.Weighted>
-0.0000

> <Gold.Chemscore.Lipo.Weighted>
-5.4916

> <Gold.Chemscore.Internal_Hbond.Weighted>
0.0000

> <Gold.Chemscore.DEClash.Weighted>
0.0256

> <Gold.Chemscore.DEInternal.Weighted>
0.8176

> <Gold.Chemscore.Rot.Weighted>
6.4966

> <Gold.Chemscore.Internal.Correction.Weighted>
   9.000000E+99

> <Gold.Protein.RotatedTorsions>
[ 6907 6896 6895 6894 ] final    4.52 input  -60.11 | X-H torsion
[ 7974 7965 7964 7962 ] final  -24.60 input  175.53 | X-H torsion
[ 8008 7997 7996 7995 ] final  132.54 input   59.86 | X-H torsion
[ 10167 10162 10161 10158 ] final   71.24 input  -65.29 | X-H torsion
[ 10718 10713 10712 10709 ] final   98.81 input   66.30 | X-H torsion
[ 10763 10752 10751 10750 ] final   61.07 input  -60.55 | X-H torsion
[ 11005 11000 10999 10996 ] final -174.87 input  -57.11 | X-H torsion

> <Gold.Protein.ActiveResidues>
 VAL166  LYS551  ARG553  GLY616  TRP617  ASP618  TYR619  PRO620  LYS621  CYS622 
 ASP623  PHE694  ASN695  SER759  ASP760  ASP761  ALA762  ILE779  LEU786  VAL792 
 PHE793  MET794  SER795  GLU796  ALA797  LYS798  CYS799  TRP800  GLU811  SER814 

> <Gold.Protein.RotatedAtoms>
  151.6425  135.1011  160.0144 H   0  0  0  0  0  0  0  0  0  0  0  0  # atno 6907 bound_to 6896
  152.4046  133.6865  159.6353 H   0  0  0  0  0  0  0  0  0  0  0  0  # atno 6908 bound_to 6896
  150.7942  133.8649  159.3283 H   0  0  0  0  0  0  0  0  0  0  0  0  # atno 6909 bound_to 6896
  146.1544  140.4773  142.8597 H   0  0  0  0  0  0  0  0  0  0  0  0  # atno 7974 bound_to 7965
  156.2983  140.2544  156.3106 H   0  0  0  0  0  0  0  0  0  0  0  0  # atno 8008 bound_to 7997
  154.9330  140.0398  157.2077 H   0  0  0  0  0  0  0  0  0  0  0  0  # atno 8009 bound_to 7997
  154.8200  140.2858  155.5798 H   0  0  0  0  0  0  0  0  0  0  0  0  # atno 8010 bound_to 7997
  140.0482  144.5333  150.7382 H   0  0  0  0  0  0  0  0  0  0  0  0  # atno 10167 bound_to 10162
  157.6888  131.0651  150.4853 H   0  0  0  0  0  0  0  0  0  0  0  0  # atno 10718 bound_to 10713
  152.9939  135.5514  154.5974 H   0  0  0  0  0  0  0  0  0  0  0  0  # atno 10763 bound_to 10752
  154.5323  135.2814  155.1171 H   0  0  0  0  0  0  0  0  0  0  0  0  # atno 10764 bound_to 10752
  154.2481  135.6404  153.5283 H   0  0  0  0  0  0  0  0  0  0  0  0  # atno 10765 bound_to 10752
  140.4697  134.6177  157.4877 H   0  0  0  0  0  0  0  0  0  0  0  0  # atno 11005 bound_to 11000
  144.7945  140.6096  143.6519 LP  0  0  0  0  0  0  0  0  0  0  0  0  # atno 17320 bound_to 7965
  145.4744  139.1500  143.3796 LP  0  0  0  0  0  0  0  0  0  0  0  0  # atno 17321 bound_to 7965
  140.7229  143.2606  151.4219 LP  0  0  0  0  0  0  0  0  0  0  0  0  # atno 17342 bound_to 10162
  139.5970  144.1377  152.2154 LP  0  0  0  0  0  0  0  0  0  0  0  0  # atno 17343 bound_to 10162
  156.5182  130.4155  149.6264 LP  0  0  0  0  0  0  0  0  0  0  0  0  # atno 17370 bound_to 10713
  156.3178  130.7264  151.2170 LP  0  0  0  0  0  0  0  0  0  0  0  0  # atno 17371 bound_to 10713
  139.9893  134.7011  155.9718 LP  0  0  0  0  0  0  0  0  0  0  0  0  # atno 17394 bound_to 11000
  141.1583  133.6541  156.4233 LP  0  0  0  0  0  0  0  0  0  0  0  0  # atno 17395 bound_to 11000

$$$$
