AV-unprocessed.smi:235|AV-procd|sdf|1804|dock4
  -GOLD-   2262020383D 1   1.00000     0.00000
 Structure written by MMmdl.
 54 58  0  0  0  0  0  0  0  0  1 V2000
  151.7600  141.6384  157.3047 O   0  0  0  0  0  0  0  0  0  0  0  0
  150.8162  142.2555  156.8085 C   0  0  0  0  0  0  0  0  0  0  0  0
  150.8290  143.5791  156.5946 N   0  0  0  0  0  0  0  0  0  0  0  0
  151.9084  144.4585  156.9066 C   0  0  0  0  0  0  0  0  0  0  0  0
  152.7331  144.1496  158.1374 C   0  0  0  0  0  0  0  0  0  0  0  0
  151.7802  145.3130  158.1492 C   0  0  0  0  0  0  0  0  0  0  0  0
  149.5367  141.5148  156.3883 C   0  0  1  0  0  0  0  0  0  0  0  0
  148.4378  142.4941  155.9436 C   0  0  0  0  0  0  0  0  0  0  0  0
  147.6144  141.6872  154.9446 C   0  0  0  0  0  0  0  0  0  0  0  0
  148.6609  140.8194  154.2476 C   0  0  0  0  0  0  0  0  0  0  0  0
  149.7463  140.6701  155.2089 N   0  0  0  0  0  0  0  0  0  0  0  0
  150.4504  139.5073  155.2565 C   0  0  0  0  0  0  0  0  0  0  0  0
  151.8020  139.5397  155.1094 N   0  0  0  0  0  0  0  0  0  0  0  0
  152.5174  138.4125  155.1505 C   0  0  0  0  0  0  0  0  0  0  0  0
  152.0912  137.1608  155.3227 N   0  0  0  0  0  0  0  0  0  0  0  0
  150.7357  137.1170  155.4644 C   0  0  0  0  0  0  0  0  0  0  0  0
  149.8468  138.2298  155.4437 C   0  0  0  0  0  0  0  0  0  0  0  0
  148.5382  137.7868  155.6038 N   0  0  0  0  0  0  0  0  0  0  0  0
  148.6483  136.4916  155.7170 C   0  0  0  0  0  0  0  0  0  0  0  0
  149.9340  136.0052  155.6520 N   0  0  0  0  0  0  0  0  0  0  0  0
  150.3457  134.6138  155.7478 C   0  0  0  0  0  0  0  0  0  0  0  0
  151.1480  134.2880  157.0272 C   0  0  1  0  0  0  0  0  0  0  0  0
  150.2861  134.3562  158.1461 O   0  0  0  0  0  0  0  0  0  0  0  0
  151.8163  132.8982  157.0096 C   0  0  2  0  0  0  0  0  0  0  0  0
  150.8377  131.7222  156.9912 C   0  0  0  0  0  0  0  0  0  0  0  0
  151.6168  130.5907  157.6459 C   0  0  0  0  0  0  0  0  0  0  0  0
  152.8328  131.2833  158.2667 C   0  0  0  0  0  0  0  0  0  0  0  0
  152.5279  132.6688  158.2158 O   0  0  0  0  0  0  0  0  0  0  0  0
  150.0067  143.9973  156.1845 H   0  0  0  0  0  0  0  0  0  0  0  0
  152.4444  144.9090  156.0723 H   0  0  0  0  0  0  0  0  0  0  0  0
  152.4631  143.2735  158.7241 H   0  0  0  0  0  0  0  0  0  0  0  0
  153.7973  144.3722  158.0962 H   0  0  0  0  0  0  0  0  0  0  0  0
  152.2076  146.3133  158.1159 H   0  0  0  0  0  0  0  0  0  0  0  0
  150.8748  145.2136  158.7450 H   0  0  0  0  0  0  0  0  0  0  0  0
  149.1579  140.9019  157.2088 H   0  0  0  0  0  0  0  0  0  0  0  0
  147.8379  142.8556  156.7792 H   0  0  0  0  0  0  0  0  0  0  0  0
  148.8626  143.3640  155.4389 H   0  0  0  0  0  0  0  0  0  0  0  0
  146.9080  141.0529  155.4820 H   0  0  0  0  0  0  0  0  0  0  0  0
  147.0486  142.3108  154.2520 H   0  0  0  0  0  0  0  0  0  0  0  0
  148.2319  139.8644  153.9403 H   0  0  0  0  0  0  0  0  0  0  0  0
  149.0474  141.3222  153.3603 H   0  0  0  0  0  0  0  0  0  0  0  0
  153.5836  138.5309  155.0263 H   0  0  0  0  0  0  0  0  0  0  0  0
  147.7897  135.8511  155.8580 H   0  0  0  0  0  0  0  0  0  0  0  0
  149.4508  133.9921  155.7027 H   0  0  0  0  0  0  0  0  0  0  0  0
  150.9310  134.3635  154.8621 H   0  0  0  0  0  0  0  0  0  0  0  0
  151.9143  135.0537  157.1531 H   0  0  0  0  0  0  0  0  0  0  0  0
  149.5117  133.8473  157.9608 H   0  0  0  0  0  0  0  0  0  0  0  0
  152.5086  132.8089  156.1701 H   0  0  0  0  0  0  0  0  0  0  0  0
  149.9569  131.9513  157.5926 H   0  0  0  0  0  0  0  0  0  0  0  0
  150.5004  131.4764  155.9837 H   0  0  0  0  0  0  0  0  0  0  0  0
  151.0094  130.0950  158.4042 H   0  0  0  0  0  0  0  0  0  0  0  0
  151.9273  129.8392  156.9192 H   0  0  0  0  0  0  0  0  0  0  0  0
  153.0257  130.9583  159.2892 H   0  0  0  0  0  0  0  0  0  0  0  0
  153.7279  131.0919  157.6733 H   0  0  0  0  0  0  0  0  0  0  0  0
  1  2  2  0  0  0  0
  2  3  1  0  0  0  0
  2  7  1  0  0  0  0
  3  4  1  0  0  0  0
  3 29  1  0  0  0  0
  4  6  1  0  0  0  0
  4  5  1  0  0  0  0
  4 30  1  0  0  0  0
  5  6  1  0  0  0  0
  5 31  1  0  0  0  0
  5 32  1  0  0  0  0
  6 33  1  0  0  0  0
  6 34  1  0  0  0  0
  7 11  1  0  0  0  0
  7  8  1  0  0  0  0
  7 35  1  0  0  0  0
  8  9  1  0  0  0  0
  8 36  1  0  0  0  0
  8 37  1  0  0  0  0
  9 10  1  0  0  0  0
  9 38  1  0  0  0  0
  9 39  1  0  0  0  0
 10 11  1  0  0  0  0
 10 40  1  0  0  0  0
 10 41  1  0  0  0  0
 11 12  1  0  0  0  0
 12 17  1  0  0  0  0
 12 13  2  0  0  0  0
 13 14  1  0  0  0  0
 14 15  2  0  0  0  0
 14 42  1  0  0  0  0
 15 16  1  0  0  0  0
 16 20  1  0  0  0  0
 16 17  2  0  0  0  0
 17 18  1  0  0  0  0
 18 19  2  0  0  0  0
 19 20  1  0  0  0  0
 19 43  1  0  0  0  0
 20 21  1  0  0  0  0
 21 22  1  0  0  0  0
 21 44  1  0  0  0  0
 21 45  1  0  0  0  0
 22 23  1  0  0  0  0
 22 24  1  0  0  0  0
 22 46  1  0  0  0  0
 23 47  1  0  0  0  0
 24 28  1  0  0  0  0
 24 25  1  0  0  0  0
 24 48  1  0  0  0  0
 25 26  1  0  0  0  0
 25 49  1  0  0  0  0
 25 50  1  0  0  0  0
 26 27  1  0  0  0  0
 26 51  1  0  0  0  0
 26 52  1  0  0  0  0
 27 28  1  0  0  0  0
 27 53  1  0  0  0  0
 27 54  1  0  0  0  0
M  END
> <s_m_source_file>
AV-unprocessed.smi

> <i_m_source_file_index>
235

> <i_lp_mmshare_version>
43012

> <i_f3d_flags>
0

> <s_epik_input>
W0NIMl0xW0NIMl1bQ0hdMVtOSF1DKD1PKVtDQEBIXTJbQ0gyXVtDSDJdW0NIMl1OMmMobltjSF1uMyljKGMzNCluW2NIXW40W0NIMl1bQ0BIXShbT0hdKVtDQEBIXTVbQ0gyXVtDSDJdW0NIMl1PNQ==

> <s_epik_cmdline>
J2VwaWtfcHl0aG9uJywgJy1waCcsICc3LjAnLCAnLXRuJywgJzgnLCAnLW1hJywgJzIwMCcsICctbWV0YWxfYmluZGluZycsICctaW1hZScsICc8aW5maWxlLm1hZT4nLCAnLW9tYWUnLCAnPG91dGZpbGUubWFlPic=

> <r_lp_tautomer_probability>
1

> <r_epik_Ionization_Penalty>
0.000526714

> <r_epik_Ionization_Penalty_Charging>
0

> <r_epik_Ionization_Penalty_Neutral>
0.000526714

> <r_epik_State_Penalty>
0.000272704

> <r_epik_Charging_Adjusted_Penalty>
0.000272704

> <i_epik_Tot_Q>
0

> <i_epik_Tot_abs_Q>
0

> <r_epik_Metal_State_Penalty>
-0

> <b_epik_Metal_Only>
0

> <s_lp_Force_Field>
OPLS_2005

> <r_lp_Energy>
57.0845

> <b_lp_Chiralities_Consistent>
1

> <s_lp_Variant>
AV-unprocessed.smi:235-4

> <Gold.Version>
5.8.1

> <Gold.Id.Protein>
6NUR|6NUR_protein|mol2

> <Gold.PLP.Fitness>
52.2186

> <Gold.PLP.PLP>
-45.5212

> <Gold.PLP.part.hbond>
-5.0000

> <Gold.PLP.part.metal>
0.0000

> <Gold.PLP.part.buried>
-2.2934

> <Gold.PLP.part.nonpolar>
-39.7959

> <Gold.PLP.part.repulsive>
0.2283

> <Gold.PLP.ligand.clash>
1.6100

> <Gold.PLP.ligand.torsion>
1.8260

> <Gold.PLP.Chemscore.Hbond>
3.8396

> <Gold.PLP.Chemscore.CHOScore>
0.0000

> <Gold.PLP.Chemscore.Metal>
0.0000

> <Gold.Chemscore.Hbonds>
donor molecule, donor type, donor heavy atom, donor atom, acceptor molecule, acceptor atom, score
      L1  H     3    29       P1  8028  0.73
      P1  H  6896  6908       L1    28  0.81
      P1  H  6896  6909       L1    23  0.32
      P1  H  7989  7998       L1    13  0.52
      P1  H 10752 10765       L1    15  0.90

> <Gold.PLP.Chemscore.Internal.Correction>
0.4407

> <Gold.Rescore>
     Score         DG    S(hbond)    S(metal)    S(lipo)     H(rot)  DE(clash)    DE(int)     intcor
     14.95     -20.71       3.37        0.00      92.58       2.68       1.70       4.07       ----

> <Gold.Chemscore.Fitness>
14.9495

> <Gold.Chemscore.DG>
-20.7142

> <Gold.Chemscore.ZeroCoef>
-5.4800

> <Gold.Chemscore.Hbond>
3.3690

> <Gold.Chemscore.Metal>
0.0000

> <Gold.Chemscore.Lipo>
92.5849

> <Gold.Chemscore.Internal_Hbond>
0.0000

> <Gold.Chemscore.DEClash>
1.6992

> <Gold.Chemscore.DEInternal>
4.0655

> <Gold.Chemscore.Rot>
2.6760

> <Gold.Chemscore.Internal.Correction>
   9.000000E+99

> <Gold.Chemscore.Hbonds>
donor molecule, donor type, donor heavy atom, donor atom, acceptor molecule, acceptor atom, score
      L1  H     3    29       P1  8028  0.73
      P1  H  6896  6908       L1    28  0.74
      P1  H  6896  6909       L1    23  0.27
      P1  H  7989  7998       L1    13  0.03
      P1  H 10752 10765       L1    15  0.84

> <Gold.Chemscore.Hbond.Weighted>
-11.2524

> <Gold.Chemscore.Metal.Weighted>
-0.0000

> <Gold.Chemscore.Lipo.Weighted>
-10.8324

> <Gold.Chemscore.Internal_Hbond.Weighted>
0.0000

> <Gold.Chemscore.DEClash.Weighted>
1.6992

> <Gold.Chemscore.DEInternal.Weighted>
4.0655

> <Gold.Chemscore.Rot.Weighted>
6.8506

> <Gold.Chemscore.Internal.Correction.Weighted>
   9.000000E+99

> <Gold.Protein.RotatedTorsions>
[ 6907 6896 6895 6894 ] final   29.52 input  -60.11 | X-H torsion
[ 7974 7965 7964 7962 ] final  -45.13 input  175.53 | X-H torsion
[ 8008 7997 7996 7995 ] final  104.52 input   59.86 | X-H torsion
[ 10167 10162 10161 10158 ] final   51.27 input  -65.29 | X-H torsion
[ 10718 10713 10712 10709 ] final  -32.20 input   66.30 | X-H torsion
[ 10763 10752 10751 10750 ] final -176.61 input  -60.55 | X-H torsion
[ 11005 11000 10999 10996 ] final    0.70 input  -57.11 | X-H torsion

> <Gold.Protein.ActiveResidues>
 VAL166  LYS551  ARG553  GLY616  TRP617  ASP618  TYR619  PRO620  LYS621  CYS622 
 ASP623  PHE694  ASN695  SER759  ASP760  ASP761  ALA762  ILE779  LEU786  VAL792 
 PHE793  MET794  SER795  GLU796  ALA797  LYS798  CYS799  TRP800  GLU811  SER814 

> <Gold.Protein.RotatedAtoms>
  152.0327  134.9758  160.0572 H   0  0  0  0  0  0  0  0  0  0  0  0  # atno 6907 bound_to 6896
  152.1228  133.4358  159.4692 H   0  0  0  0  0  0  0  0  0  0  0  0  # atno 6908 bound_to 6896
  150.6850  134.2433  159.4524 H   0  0  0  0  0  0  0  0  0  0  0  0  # atno 6909 bound_to 6896
  145.9851  140.7242  142.9344 H   0  0  0  0  0  0  0  0  0  0  0  0  # atno 7974 bound_to 7965
  156.1580  140.3146  155.8759 H   0  0  0  0  0  0  0  0  0  0  0  0  # atno 8008 bound_to 7997
  155.3839  140.0489  157.3060 H   0  0  0  0  0  0  0  0  0  0  0  0  # atno 8009 bound_to 7997
  154.5120  140.2168  155.9150 H   0  0  0  0  0  0  0  0  0  0  0  0  # atno 8010 bound_to 7997
  140.2636  144.3345  150.6310 H   0  0  0  0  0  0  0  0  0  0  0  0  # atno 10167 bound_to 10162
  156.3778  130.4350  149.7493 H   0  0  0  0  0  0  0  0  0  0  0  0  # atno 10718 bound_to 10713
  154.5703  135.2827  155.0834 H   0  0  0  0  0  0  0  0  0  0  0  0  # atno 10763 bound_to 10752
  154.2209  135.6391  153.5148 H   0  0  0  0  0  0  0  0  0  0  0  0  # atno 10764 bound_to 10752
  153.0055  135.5514  154.6324 H   0  0  0  0  0  0  0  0  0  0  0  0  # atno 10765 bound_to 10752
  140.6236  133.9639  155.8237 H   0  0  0  0  0  0  0  0  0  0  0  0  # atno 11005 bound_to 11000
  144.6872  140.2974  143.7268 LP  0  0  0  0  0  0  0  0  0  0  0  0  # atno 17320 bound_to 7965
  145.7713  139.1858  143.2211 LP  0  0  0  0  0  0  0  0  0  0  0  0  # atno 17321 bound_to 7965
  140.5946  143.2167  151.7189 LP  0  0  0  0  0  0  0  0  0  0  0  0  # atno 17342 bound_to 10162
  139.5009  144.3887  152.0302 LP  0  0  0  0  0  0  0  0  0  0  0  0  # atno 17343 bound_to 10162
  156.4596  130.7945  151.2966 LP  0  0  0  0  0  0  0  0  0  0  0  0  # atno 17370 bound_to 10713
  157.7490  131.0070  150.3173 LP  0  0  0  0  0  0  0  0  0  0  0  0  # atno 17371 bound_to 10713
  141.0725  134.0184  157.3506 LP  0  0  0  0  0  0  0  0  0  0  0  0  # atno 17394 bound_to 11000
  139.9143  135.0195  156.7820 LP  0  0  0  0  0  0  0  0  0  0  0  0  # atno 17395 bound_to 11000

$$$$
