AV-unprocessed.smi:1412|AV-procd|sdf|5745|dock1
  -GOLD-   22720 5383D 1   1.00000     0.00000
 Structure written by MMmdl.
 40 41  0  0  0  0  0  0  0  0  2 V2000
  153.1535  136.8878  156.8946 C   0  0  0  0  0  0  0  0  0  0  0  0
  152.8600  138.3708  157.1867 C   0  0  0  0  0  0  0  0  0  0  0  0
  151.8302  138.6437  158.3294 C   0  0  2  0  0  0  0  0  0  0  0  0
  152.3809  137.9280  159.5922 C   0  0  0  0  0  0  0  0  0  0  0  0
  150.4689  137.9840  157.9317 C   0  0  0  0  0  0  0  0  0  0  0  0
  149.4818  137.9572  159.0126 N   0  0  0  0  0  0  0  0  0  0  0  0
  148.8130  136.8850  159.4614 C   0  0  0  0  0  0  0  0  0  0  0  0
  149.0155  135.7756  158.9624 O   0  0  0  0  0  0  0  0  0  0  0  0
  147.9407  137.1677  160.4552 N   0  5  0  0  0  0  0  0  0  0  0  0
  147.3577  136.1699  161.1396 C   0  0  0  0  0  0  0  0  0  0  0  0
  147.6946  134.8827  160.9605 N   0  0  0  0  0  0  0  0  0  0  0  0
  146.9752  134.0126  161.7686 N   0  0  0  0  0  0  0  0  0  0  0  0
  146.1165  134.6703  162.5470 C   0  0  0  0  0  0  0  0  0  0  0  0
  146.1091  136.4116  162.3645 S   0  0  0  0  0  0  0  0  0  0  0  0
  151.6885  140.1059  158.5852 N   0  0  0  0  0  0  0  0  0  0  0  0
  151.3001  140.9095  157.4198 C   0  0  0  0  0  0  0  0  0  0  0  0
  151.0320  142.3768  157.7957 C   0  0  0  0  0  0  0  0  0  0  0  0
  152.1819  142.9303  158.4244 O   0  0  0  0  0  0  0  0  0  0  0  0
  152.5620  142.2111  159.5917 C   0  0  0  0  0  0  0  0  0  0  0  0
  152.8440  140.7436  159.2277 C   0  0  0  0  0  0  0  0  0  0  0  0
  153.8982  136.7965  156.1038 H   0  0  0  0  0  0  0  0  0  0  0  0
  152.2620  136.3575  156.5611 H   0  0  0  0  0  0  0  0  0  0  0  0
  153.5450  136.3701  157.7701 H   0  0  0  0  0  0  0  0  0  0  0  0
  153.8004  138.8807  157.3955 H   0  0  0  0  0  0  0  0  0  0  0  0
  152.5108  138.8194  156.2561 H   0  0  0  0  0  0  0  0  0  0  0  0
  152.7263  136.9174  159.3722 H   0  0  0  0  0  0  0  0  0  0  0  0
  151.6228  137.8305  160.3694 H   0  0  0  0  0  0  0  0  0  0  0  0
  153.2235  138.4664  160.0263 H   0  0  0  0  0  0  0  0  0  0  0  0
  150.0377  138.4673  157.0551 H   0  0  0  0  0  0  0  0  0  0  0  0
  150.6216  136.9441  157.6456 H   0  0  0  0  0  0  0  0  0  0  0  0
  149.2785  138.8402  159.4575 H   0  0  0  0  0  0  0  0  0  0  0  0
  145.4849  134.1272  163.2339 H   0  0  0  0  0  0  0  0  0  0  0  0
  152.0828  140.8818  156.6621 H   0  0  0  0  0  0  0  0  0  0  0  0
  150.3971  140.5154  156.9572 H   0  0  0  0  0  0  0  0  0  0  0  0
  150.7990  142.9595  156.9045 H   0  0  0  0  0  0  0  0  0  0  0  0
  150.1716  142.4530  158.4623 H   0  0  0  0  0  0  0  0  0  0  0  0
  153.4518  142.6729  160.0196 H   0  0  0  0  0  0  0  0  0  0  0  0
  151.7733  142.2776  160.3427 H   0  0  0  0  0  0  0  0  0  0  0  0
  153.1215  140.2220  160.1416 H   0  0  0  0  0  0  0  0  0  0  0  0
  153.7109  140.7093  158.5680 H   0  0  0  0  0  0  0  0  0  0  0  0
  1  2  1  0  0  0  0
  1 21  1  0  0  0  0
  1 22  1  0  0  0  0
  1 23  1  0  0  0  0
  2  3  1  0  0  0  0
  2 24  1  0  0  0  0
  2 25  1  0  0  0  0
  3  4  1  0  0  0  0
  3  5  1  0  0  0  0
  3 15  1  0  0  0  0
  4 26  1  0  0  0  0
  4 27  1  0  0  0  0
  4 28  1  0  0  0  0
  5  6  1  0  0  0  0
  5 29  1  0  0  0  0
  5 30  1  0  0  0  0
  6  7  1  0  0  0  0
  6 31  1  0  0  0  0
  7  8  2  0  0  0  0
  7  9  1  0  0  0  0
  9 10  1  0  0  0  0
 10 14  1  0  0  0  0
 10 11  2  0  0  0  0
 11 12  1  0  0  0  0
 12 13  2  0  0  0  0
 13 14  1  0  0  0  0
 13 32  1  0  0  0  0
 15 20  1  0  0  0  0
 15 16  1  0  0  0  0
 16 17  1  0  0  0  0
 16 33  1  0  0  0  0
 16 34  1  0  0  0  0
 17 18  1  0  0  0  0
 17 35  1  0  0  0  0
 17 36  1  0  0  0  0
 18 19  1  0  0  0  0
 19 20  1  0  0  0  0
 19 37  1  0  0  0  0
 19 38  1  0  0  0  0
 20 39  1  0  0  0  0
 20 40  1  0  0  0  0
M  CHG  1   9  -1
M  END
> <s_m_source_file>
AV-unprocessed.smi

> <i_m_source_file_index>
1412

> <i_lp_mmshare_version>
43012

> <i_f3d_flags>
0

> <s_epik_input>
W0NIMl0xW0NIMl1PW0NIMl1bQ0gyXU4xW0NAQF0oW0NIM10pKFtDSDJdW0NIM10pW0NIMl1bTkhdQyg9TylbTkhdYzJubltjSF1zMg==

> <s_epik_cmdline>
J2VwaWtfcHl0aG9uJywgJy1waCcsICc3LjAnLCAnLXRuJywgJzgnLCAnLW1hJywgJzIwMCcsICctbWV0YWxfYmluZGluZycsICctaW1hZScsICc8aW5maWxlLm1hZT4nLCAnLW9tYWUnLCAnPG91dGZpbGUubWFlPic=

> <r_lp_tautomer_probability>
1

> <r_epik_Ionization_Penalty>
4.84662

> <r_epik_Ionization_Penalty_Charging>
4.3852

> <r_epik_Ionization_Penalty_Neutral>
0.461421

> <r_epik_State_Penalty>
4.67356

> <r_epik_Charging_Adjusted_Penalty>
9.05877

> <i_epik_Tot_Q>
-1

> <i_epik_Tot_abs_Q>
1

> <r_epik_Metal_State_Penalty>
1.08474

> <b_epik_Metal_Only>
1

> <s_lp_Force_Field>
OPLS_2005

> <r_lp_Energy>
39.9544

> <b_lp_Chiralities_Consistent>
1

> <s_lp_Variant>
AV-unprocessed.smi:1412-6

> <Gold.Version>
5.8.1

> <Gold.Id.Protein>
6NUR|6NUR_protein|mol2

> <Gold.PLP.Fitness>
41.5310

> <Gold.PLP.PLP>
-29.9216

> <Gold.PLP.part.hbond>
-3.0000

> <Gold.PLP.part.metal>
0.0000

> <Gold.PLP.part.buried>
-5.3939

> <Gold.PLP.part.nonpolar>
-22.4756

> <Gold.PLP.part.repulsive>
0.2740

> <Gold.PLP.ligand.clash>
0.0000

> <Gold.PLP.ligand.torsion>
0.2412

> <Gold.PLP.Chemscore.Hbond>
3.9460

> <Gold.PLP.Chemscore.CHOScore>
0.0000

> <Gold.PLP.Chemscore.Metal>
0.0000

> <Gold.Chemscore.Hbonds>
donor molecule, donor type, donor heavy atom, donor atom, acceptor molecule, acceptor atom, score
      P1  H  6896  6909       L1     8  0.71
      P1  H  6931  6943       L1     9  1.22
      P1  H  6934  6947       L1     9  1.51

> <Gold.PLP.Chemscore.Internal.Correction>
0.2540

> <Gold.Rescore>
     Score         DG    S(hbond)    S(metal)    S(lipo)     H(rot)  DE(clash)    DE(int)     intcor
     12.88     -14.81       1.74        0.00      69.97       1.82       0.04       1.89       ----

> <Gold.Chemscore.Fitness>
12.8786

> <Gold.Chemscore.DG>
-14.8053

> <Gold.Chemscore.ZeroCoef>
-5.4800

> <Gold.Chemscore.Hbond>
1.7392

> <Gold.Chemscore.Metal>
0.0000

> <Gold.Chemscore.Lipo>
69.9701

> <Gold.Chemscore.Internal_Hbond>
0.0000

> <Gold.Chemscore.DEClash>
0.0382

> <Gold.Chemscore.DEInternal>
1.8885

> <Gold.Chemscore.Rot>
1.8243

> <Gold.Chemscore.Internal.Correction>
   9.000000E+99

> <Gold.Chemscore.Hbonds>
donor molecule, donor type, donor heavy atom, donor atom, acceptor molecule, acceptor atom, score
      P1  H  6896  6909       L1     8  0.62
      P1  H  6931  6943       L1     9  0.19
      P1  H  6934  6947       L1     9  0.63

> <Gold.Chemscore.Hbond.Weighted>
-5.8091

> <Gold.Chemscore.Metal.Weighted>
-0.0000

> <Gold.Chemscore.Lipo.Weighted>
-8.1865

> <Gold.Chemscore.Internal_Hbond.Weighted>
0.0000

> <Gold.Chemscore.DEClash.Weighted>
0.0382

> <Gold.Chemscore.DEInternal.Weighted>
1.8885

> <Gold.Chemscore.Rot.Weighted>
4.6702

> <Gold.Chemscore.Internal.Correction.Weighted>
   9.000000E+99

> <Gold.Protein.RotatedTorsions>
[ 6907 6896 6895 6894 ] final   67.42 input  -60.11 | X-H torsion
[ 7974 7965 7964 7962 ] final  157.99 input  175.53 | X-H torsion
[ 8008 7997 7996 7995 ] final  165.69 input   59.86 | X-H torsion
[ 10167 10162 10161 10158 ] final  -15.94 input  -65.29 | X-H torsion
[ 10718 10713 10712 10709 ] final    3.93 input   66.30 | X-H torsion
[ 10763 10752 10751 10750 ] final   58.53 input  -60.55 | X-H torsion
[ 11005 11000 10999 10996 ] final   11.29 input  -57.11 | X-H torsion

> <Gold.Protein.ActiveResidues>
 VAL166  LYS551  ARG553  GLY616  TRP617  ASP618  TYR619  PRO620  LYS621  CYS622 
 ASP623  PHE694  ASN695  SER759  ASP760  ASP761  ALA762  ILE779  LEU786  VAL792 
 PHE793  MET794  SER795  GLU796  ALA797  LYS798  CYS799  TRP800  GLU811  SER814 

> <Gold.Protein.RotatedAtoms>
  152.4551  134.5310  159.9810 H   0  0  0  0  0  0  0  0  0  0  0  0  # atno 6907 bound_to 6896
  151.5373  133.3433  159.2937 H   0  0  0  0  0  0  0  0  0  0  0  0  # atno 6908 bound_to 6896
  150.8492  134.7842  159.7058 H   0  0  0  0  0  0  0  0  0  0  0  0  # atno 6909 bound_to 6896
  144.7871  139.7416  143.6236 H   0  0  0  0  0  0  0  0  0  0  0  0  # atno 7974 bound_to 7965
  156.1780  140.1663  156.8328 H   0  0  0  0  0  0  0  0  0  0  0  0  # atno 8008 bound_to 7997
  154.5328  140.0753  156.8408 H   0  0  0  0  0  0  0  0  0  0  0  0  # atno 8009 bound_to 7997
  155.3372  140.3382  155.4241 H   0  0  0  0  0  0  0  0  0  0  0  0  # atno 8010 bound_to 7997
  140.7226  143.5167  150.9683 H   0  0  0  0  0  0  0  0  0  0  0  0  # atno 10167 bound_to 10162
  156.8851  130.5667  149.5651 H   0  0  0  0  0  0  0  0  0  0  0  0  # atno 10718 bound_to 10713
  152.9873  135.5603  154.5567 H   0  0  0  0  0  0  0  0  0  0  0  0  # atno 10763 bound_to 10752
  154.4994  135.2796  155.1435 H   0  0  0  0  0  0  0  0  0  0  0  0  # atno 10764 bound_to 10752
  154.2872  135.6333  153.5423 H   0  0  0  0  0  0  0  0  0  0  0  0  # atno 10765 bound_to 10752
  140.5049  134.0709  155.7803 H   0  0  0  0  0  0  0  0  0  0  0  0  # atno 11005 bound_to 11000
  146.2108  139.5463  142.9682 LP  0  0  0  0  0  0  0  0  0  0  0  0  # atno 17320 bound_to 7965
  145.5892  141.0372  143.2080 LP  0  0  0  0  0  0  0  0  0  0  0  0  # atno 17321 bound_to 7965
  139.8883  143.6985  152.3148 LP  0  0  0  0  0  0  0  0  0  0  0  0  # atno 17342 bound_to 10162
  139.7292  144.7586  151.0829 LP  0  0  0  0  0  0  0  0  0  0  0  0  # atno 17343 bound_to 10162
  156.0657  130.5701  150.9284 LP  0  0  0  0  0  0  0  0  0  0  0  0  # atno 17370 bound_to 10713
  157.6117  131.0936  150.8782 LP  0  0  0  0  0  0  0  0  0  0  0  0  # atno 17371 bound_to 10713
  141.1416  133.9128  157.2313 LP  0  0  0  0  0  0  0  0  0  0  0  0  # atno 17394 bound_to 11000
  139.9692  135.0133  156.9467 LP  0  0  0  0  0  0  0  0  0  0  0  0  # atno 17395 bound_to 11000

$$$$
