AV-unprocessed.smi:2737|AV-procd|sdf|10547|dock9
  -GOLD-   2272014593D 1   1.00000     0.00000
 Structure written by MMmdl.
 43 44  0  0  0  0  0  0  0  0  1 V2000
  146.4332  136.6485  162.0001 C   0  0  0  0  0  0  0  0  0  0  0  0
  147.4612  137.0196  161.0862 O   0  0  0  0  0  0  0  0  0  0  0  0
  147.3652  136.5393  159.7395 C   0  0  0  0  0  0  0  0  0  0  0  0
  147.2252  135.0016  159.7014 C   0  0  0  0  0  0  0  0  0  0  0  0
  146.0977  137.1972  159.1718 C   0  0  0  0  0  0  0  0  0  0  0  0
  148.5752  137.0213  158.9834 C   0  0  0  0  0  0  0  0  0  0  0  0
  148.6415  138.0783  158.1743 N   0  0  0  0  0  0  0  0  0  0  0  0
  149.9759  138.1291  157.9074 C   0  0  0  0  0  0  0  0  0  0  0  0
  150.5824  139.1470  156.9957 C   0  0  0  0  0  0  0  0  0  0  0  0
  151.5057  140.0834  157.7767 C   0  0  0  0  0  0  0  0  0  0  0  0
  152.4112  139.6186  158.4690 O   0  0  0  0  0  0  0  0  0  0  0  0
  151.2659  141.3990  157.6572 N   0  0  0  0  0  0  0  0  0  0  0  0
  152.0098  142.4579  158.3327 C   0  0  0  0  0  0  0  0  0  0  0  0
  151.9753  142.2217  159.8547 C   0  0  0  0  0  0  0  0  0  0  0  0
  152.7058  143.3415  160.6139 C   0  0  0  0  0  0  0  0  0  0  0  0
  152.1297  144.7219  160.2607 C   0  0  0  0  0  0  0  0  0  0  0  0
  152.1626  144.9649  158.7437 C   0  0  0  0  0  0  0  0  0  0  0  0
  151.4328  143.8461  157.9828 C   0  0  0  0  0  0  0  0  0  0  0  0
  150.7215  137.2137  158.5134 N   0  0  0  0  0  0  0  0  0  0  0  0
  149.7908  136.4918  159.2731 O   0  0  0  0  0  0  0  0  0  0  0  0
  146.7177  136.9669  163.0029 H   0  0  0  0  0  0  0  0  0  0  0  0
  146.2708  135.5710  162.0315 H   0  0  0  0  0  0  0  0  0  0  0  0
  145.4890  137.1388  161.7631 H   0  0  0  0  0  0  0  0  0  0  0  0
  147.0451  134.6499  158.6850 H   0  0  0  0  0  0  0  0  0  0  0  0
  146.3887  134.6672  160.3154 H   0  0  0  0  0  0  0  0  0  0  0  0
  148.1246  134.4975  160.0557 H   0  0  0  0  0  0  0  0  0  0  0  0
  145.9430  136.9246  158.1272 H   0  0  0  0  0  0  0  0  0  0  0  0
  146.1607  138.2849  159.2234 H   0  0  0  0  0  0  0  0  0  0  0  0
  145.2114  136.8918  159.7287 H   0  0  0  0  0  0  0  0  0  0  0  0
  151.1477  138.6481  156.2070 H   0  0  0  0  0  0  0  0  0  0  0  0
  149.7930  139.7184  156.5055 H   0  0  0  0  0  0  0  0  0  0  0  0
  150.4994  141.6881  157.0668 H   0  0  0  0  0  0  0  0  0  0  0  0
  153.0516  142.4168  158.0081 H   0  0  0  0  0  0  0  0  0  0  0  0
  150.9409  142.1691  160.1979 H   0  0  0  0  0  0  0  0  0  0  0  0
  152.4293  141.2592  160.0946 H   0  0  0  0  0  0  0  0  0  0  0  0
  152.6324  143.1713  161.6885 H   0  0  0  0  0  0  0  0  0  0  0  0
  153.7684  143.3153  160.3689 H   0  0  0  0  0  0  0  0  0  0  0  0
  151.1021  144.7921  160.6197 H   0  0  0  0  0  0  0  0  0  0  0  0
  152.6912  145.5023  160.7748 H   0  0  0  0  0  0  0  0  0  0  0  0
  151.7096  145.9291  158.5115 H   0  0  0  0  0  0  0  0  0  0  0  0
  153.1979  145.0207  158.4050 H   0  0  0  0  0  0  0  0  0  0  0  0
  151.5081  144.0286  156.9103 H   0  0  0  0  0  0  0  0  0  0  0  0
  150.3699  143.8771  158.2270 H   0  0  0  0  0  0  0  0  0  0  0  0
  1  2  1  0  0  0  0
  1 21  1  0  0  0  0
  1 22  1  0  0  0  0
  1 23  1  0  0  0  0
  2  3  1  0  0  0  0
  3  4  1  0  0  0  0
  3  5  1  0  0  0  0
  3  6  1  0  0  0  0
  4 24  1  0  0  0  0
  4 25  1  0  0  0  0
  4 26  1  0  0  0  0
  5 27  1  0  0  0  0
  5 28  1  0  0  0  0
  5 29  1  0  0  0  0
  6 20  1  0  0  0  0
  6  7  2  0  0  0  0
  7  8  1  0  0  0  0
  8  9  1  0  0  0  0
  8 19  2  0  0  0  0
  9 10  1  0  0  0  0
  9 30  1  0  0  0  0
  9 31  1  0  0  0  0
 10 11  2  0  0  0  0
 10 12  1  0  0  0  0
 12 13  1  0  0  0  0
 12 32  1  0  0  0  0
 13 18  1  0  0  0  0
 13 14  1  0  0  0  0
 13 33  1  0  0  0  0
 14 15  1  0  0  0  0
 14 34  1  0  0  0  0
 14 35  1  0  0  0  0
 15 16  1  0  0  0  0
 15 36  1  0  0  0  0
 15 37  1  0  0  0  0
 16 17  1  0  0  0  0
 16 38  1  0  0  0  0
 16 39  1  0  0  0  0
 17 18  1  0  0  0  0
 17 40  1  0  0  0  0
 17 41  1  0  0  0  0
 18 42  1  0  0  0  0
 18 43  1  0  0  0  0
 19 20  1  0  0  0  0
M  END
> <s_m_source_file>
AV-unprocessed.smi

> <i_m_source_file_index>
2737

> <i_lp_mmshare_version>
43012

> <i_f3d_flags>
0

> <s_epik_input>
W0NIM11PQyhbQ0gzXSkoW0NIM10pYzFuYyhubzEpW0NIMl1DKD1PKVtOSF1bQ0hdMltDSDJdW0NIMl1bQ0gyXVtDSDJdW0NIMl0y

> <s_epik_cmdline>
J2VwaWtfcHl0aG9uJywgJy1waCcsICc3LjAnLCAnLXRuJywgJzgnLCAnLW1hJywgJzIwMCcsICctbWV0YWxfYmluZGluZycsICctaW1hZScsICc8aW5maWxlLm1hZT4nLCAnLW9tYWUnLCAnPG91dGZpbGUubWFlPic=

> <r_lp_tautomer_probability>
1

> <r_epik_Ionization_Penalty>
6.23621e-08

> <r_epik_Ionization_Penalty_Charging>
0

> <r_epik_Ionization_Penalty_Neutral>
6.23621e-08

> <r_epik_State_Penalty>
-0

> <r_epik_Charging_Adjusted_Penalty>
0

> <i_epik_Tot_Q>
0

> <i_epik_Tot_abs_Q>
0

> <r_epik_Metal_State_Penalty>
-0

> <b_epik_Metal_Only>
0

> <s_lp_Force_Field>
OPLS_2005

> <r_lp_Energy>
12.1287

> <b_lp_Chiralities_Consistent>
1

> <s_lp_Variant>
AV-unprocessed.smi:2737-1

> <Gold.Version>
5.8.1

> <Gold.Id.Protein>
6NUR|6NUR_protein|mol2

> <Gold.PLP.Fitness>
44.3646

> <Gold.PLP.PLP>
-36.6428

> <Gold.PLP.part.hbond>
-3.0000

> <Gold.PLP.part.metal>
0.0000

> <Gold.PLP.part.buried>
-6.4791

> <Gold.PLP.part.nonpolar>
-26.7002

> <Gold.PLP.part.repulsive>
0.0617

> <Gold.PLP.ligand.clash>
0.0000

> <Gold.PLP.ligand.torsion>
0.5474

> <Gold.PLP.Chemscore.Hbond>
2.8640

> <Gold.PLP.Chemscore.CHOScore>
0.0000

> <Gold.PLP.Chemscore.Metal>
0.0000

> <Gold.Chemscore.Hbonds>
donor molecule, donor type, donor heavy atom, donor atom, acceptor molecule, acceptor atom, score
      P1  H  6896  6907       L1    20  1.00
      P1  H  6931  6943       L1     2  0.64
      P1  H  6934  6947       L1     2  1.00

> <Gold.PLP.Chemscore.Internal.Correction>
0.2246

> <Gold.Rescore>
     Score         DG    S(hbond)    S(metal)    S(lipo)     H(rot)  DE(clash)    DE(int)     intcor
     19.86     -20.48       2.64        0.00      93.45       1.86       0.02       0.61       ----

> <Gold.Chemscore.Fitness>
19.8554

> <Gold.Chemscore.DG>
-20.4848

> <Gold.Chemscore.ZeroCoef>
-5.4800

> <Gold.Chemscore.Hbond>
2.6442

> <Gold.Chemscore.Metal>
0.0000

> <Gold.Chemscore.Lipo>
93.4498

> <Gold.Chemscore.Internal_Hbond>
0.0000

> <Gold.Chemscore.DEClash>
0.0234

> <Gold.Chemscore.DEInternal>
0.6059

> <Gold.Chemscore.Rot>
1.8596

> <Gold.Chemscore.Internal.Correction>
   9.000000E+99

> <Gold.Chemscore.Hbonds>
donor molecule, donor type, donor heavy atom, donor atom, acceptor molecule, acceptor atom, score
      P1  H  6896  6907       L1    20  0.33
      P1  H  6931  6943       L1     2  0.57
      P1  H  6934  6947       L1     2  0.15

> <Gold.Chemscore.Hbond.Weighted>
-8.8316

> <Gold.Chemscore.Metal.Weighted>
-0.0000

> <Gold.Chemscore.Lipo.Weighted>
-10.9336

> <Gold.Chemscore.Internal_Hbond.Weighted>
0.0000

> <Gold.Chemscore.DEClash.Weighted>
0.0234

> <Gold.Chemscore.DEInternal.Weighted>
0.6059

> <Gold.Chemscore.Rot.Weighted>
4.7605

> <Gold.Chemscore.Internal.Correction.Weighted>
   9.000000E+99

> <Gold.Protein.RotatedTorsions>
[ 6907 6896 6895 6894 ] final  -55.21 input  -60.11 | X-H torsion
[ 7974 7965 7964 7962 ] final   18.06 input  175.53 | X-H torsion
[ 8008 7997 7996 7995 ] final -172.46 input   59.86 | X-H torsion
[ 10167 10162 10161 10158 ] final  146.98 input  -65.29 | X-H torsion
[ 10718 10713 10712 10709 ] final  -84.69 input   66.30 | X-H torsion
[ 10763 10752 10751 10750 ] final  -33.66 input  -60.55 | X-H torsion
[ 11005 11000 10999 10996 ] final   86.33 input  -57.11 | X-H torsion

> <Gold.Protein.ActiveResidues>
 VAL166  LYS551  ARG553  GLY616  TRP617  ASP618  TYR619  PRO620  LYS621  CYS622 
 ASP623  PHE694  ASN695  SER759  ASP760  ASP761  ALA762  ILE779  LEU786  VAL792 
 PHE793  MET794  SER795  GLU796  ALA797  LYS798  CYS799  TRP800  GLU811  SER814 

> <Gold.Protein.RotatedAtoms>
  150.8271  134.7507  159.6821 H   0  0  0  0  0  0  0  0  0  0  0  0  # atno 6907 bound_to 6896
  152.4380  134.5644  159.9913 H   0  0  0  0  0  0  0  0  0  0  0  0  # atno 6908 bound_to 6896
  151.5814  133.3340  159.3045 H   0  0  0  0  0  0  0  0  0  0  0  0  # atno 6909 bound_to 6896
  146.2197  139.8511  142.8622 H   0  0  0  0  0  0  0  0  0  0  0  0  # atno 7974 bound_to 7965
  155.9449  140.1115  157.1025 H   0  0  0  0  0  0  0  0  0  0  0  0  # atno 8008 bound_to 7997
  154.4097  140.1212  156.5041 H   0  0  0  0  0  0  0  0  0  0  0  0  # atno 8009 bound_to 7997
  155.6916  140.3472  155.4898 H   0  0  0  0  0  0  0  0  0  0  0  0  # atno 8010 bound_to 7997
  139.4897  144.5789  151.6911 H   0  0  0  0  0  0  0  0  0  0  0  0  # atno 10167 bound_to 10162
  156.0004  130.4706  150.4449 H   0  0  0  0  0  0  0  0  0  0  0  0  # atno 10718 bound_to 10713
  153.8338  135.6863  153.4811 H   0  0  0  0  0  0  0  0  0  0  0  0  # atno 10763 bound_to 10752
  153.1494  135.4624  154.9613 H   0  0  0  0  0  0  0  0  0  0  0  0  # atno 10764 bound_to 10752
  154.7875  135.3290  154.7799 H   0  0  0  0  0  0  0  0  0  0  0  0  # atno 10765 bound_to 10752
  139.8947  134.8348  156.2706 H   0  0  0  0  0  0  0  0  0  0  0  0  # atno 11005 bound_to 11000
  145.2800  141.0136  143.3723 LP  0  0  0  0  0  0  0  0  0  0  0  0  # atno 17320 bound_to 7965
  144.9157  139.4473  143.6565 LP  0  0  0  0  0  0  0  0  0  0  0  0  # atno 17321 bound_to 7965
  140.5391  144.0608  150.6081 LP  0  0  0  0  0  0  0  0  0  0  0  0  # atno 17342 bound_to 10162
  140.3624  143.2900  152.0369 LP  0  0  0  0  0  0  0  0  0  0  0  0  # atno 17343 bound_to 10162
  157.2487  131.0541  151.2393 LP  0  0  0  0  0  0  0  0  0  0  0  0  # atno 17370 bound_to 10713
  157.3550  130.7101  149.6465 LP  0  0  0  0  0  0  0  0  0  0  0  0  # atno 17371 bound_to 10713
  141.0103  133.7099  156.1101 LP  0  0  0  0  0  0  0  0  0  0  0  0  # atno 17394 bound_to 11000
  140.7376  134.4185  157.5558 LP  0  0  0  0  0  0  0  0  0  0  0  0  # atno 17395 bound_to 11000

$$$$
