AV-unprocessed.smi:55|AV-procd|sdf|570|dock1
  -GOLD-   2262016473D 1   1.00000     0.00000
 Structure written by MMmdl.
 30 31  0  0  0  0  0  0  0  0  2 V2000
  152.3680  143.0013  160.0996 C   0  0  0  0  0  0  0  0  0  0  0  0
  152.3750  141.7415  159.2515 C   0  0  0  0  0  0  0  0  0  0  0  0
  151.3554  141.4236  158.4236 C   0  0  0  0  0  0  0  0  0  0  0  0
  151.3642  140.2735  157.6546 N   0  0  0  0  0  0  0  0  0  0  0  0
  150.1983  139.9530  156.7468 C   0  0  1  0  0  0  0  0  0  0  0  0
  150.6117  140.0509  155.2765 C   0  0  0  0  0  0  0  0  0  0  0  0
  149.8571  138.8859  154.6707 C   0  0  1  0  0  0  0  0  0  0  0  0
  150.4943  138.4306  153.4947 O   0  0  0  0  0  0  0  0  0  0  0  0
  149.9070  137.8553  155.8028 C   0  0  2  0  0  0  0  0  0  0  0  0
  148.7846  136.8065  155.7706 C   0  0  0  0  0  0  0  0  0  0  0  0
  148.9761  135.9039  154.7017 O   0  0  0  0  0  0  0  0  0  0  0  0
  149.7812  138.6396  156.9867 O   0  0  0  0  0  0  0  0  0  0  0  0
  152.4612  139.3768  157.7457 C   0  0  0  0  0  0  0  0  0  0  0  0
  152.4266  138.3421  157.0797 O   0  0  0  0  0  0  0  0  0  0  0  0
  153.4991  139.6940  158.5715 N   0  5  0  0  0  0  0  0  0  0  0  0
  153.5217  140.8285  159.3285 C   0  0  0  0  0  0  0  0  0  0  0  0
  154.4668  141.1032  160.0673 O   0  0  0  0  0  0  0  0  0  0  0  0
  149.3724  140.6131  157.0132 H   0  0  0  0  0  0  0  0  0  0  0  0
  148.8279  139.1774  154.4565 H   0  0  0  0  0  0  0  0  0  0  0  0
  150.8838  137.3691  155.8299 H   0  0  0  0  0  0  0  0  0  0  0  0
  151.4595  143.5821  159.9387 H   0  0  0  0  0  0  0  0  0  0  0  0
  153.2212  143.6329  159.8505 H   0  0  0  0  0  0  0  0  0  0  0  0
  152.4243  142.7480  161.1588 H   0  0  0  0  0  0  0  0  0  0  0  0
  150.5064  142.0875  158.3674 H   0  0  0  0  0  0  0  0  0  0  0  0
  150.3473  141.0206  154.8538 H   0  0  0  0  0  0  0  0  0  0  0  0
  151.6897  139.9046  155.1860 H   0  0  0  0  0  0  0  0  0  0  0  0
  150.2184  138.9791  152.7759 H   0  0  0  0  0  0  0  0  0  0  0  0
  148.7810  136.2372  156.7003 H   0  0  0  0  0  0  0  0  0  0  0  0
  147.8074  137.2815  155.6804 H   0  0  0  0  0  0  0  0  0  0  0  0
  148.9743  136.3926  153.8927 H   0  0  0  0  0  0  0  0  0  0  0  0
  1  2  1  0  0  0  0
  1 21  1  0  0  0  0
  1 22  1  0  0  0  0
  1 23  1  0  0  0  0
  2 16  1  0  0  0  0
  2  3  2  0  0  0  0
  3  4  1  0  0  0  0
  3 24  1  0  0  0  0
  4  5  1  0  0  0  0
  4 13  1  0  0  0  0
  5 18  1  0  0  0  0
  5 12  1  0  0  0  0
  5  6  1  0  0  0  0
  6  7  1  0  0  0  0
  6 25  1  0  0  0  0
  6 26  1  0  0  0  0
  7 19  1  0  0  0  0
  7  8  1  0  0  0  0
  7  9  1  0  0  0  0
  8 27  1  0  0  0  0
  9 20  1  0  0  0  0
  9 10  1  0  0  0  0
  9 12  1  0  0  0  0
 10 11  1  0  0  0  0
 10 28  1  0  0  0  0
 10 29  1  0  0  0  0
 11 30  1  0  0  0  0
 13 14  2  0  0  0  0
 13 15  1  0  0  0  0
 15 16  1  0  0  0  0
 16 17  2  0  0  0  0
M  CHG  1  15  -1
M  END
> <s_m_source_file>
AV-unprocessed.smi

> <i_m_source_file_index>
55

> <i_lp_mmshare_version>
43012

> <i_f3d_flags>
0

> <s_epik_input>
Tz1jMVtuSF1jKD1PKW4oW2NIXWMxW0NIM10pW0NAQEhdMltDSDJdW0NAQEhdKFtPSF0pW0NAQEhdKE8yKVtDSDJdW09IXQ==

> <s_epik_cmdline>
J2VwaWtfcHl0aG9uJywgJy1waCcsICc3LjAnLCAnLXRuJywgJzgnLCAnLW1hJywgJzIwMCcsICctbWV0YWxfYmluZGluZycsICctaW1hZScsICc8aW5maWxlLm1hZT4nLCAnLW9tYWUnLCAnPG91dGZpbGUubWFlPic=

> <r_lp_tautomer_probability>
0.999537

> <r_epik_Ionization_Penalty>
3.66603

> <r_epik_Ionization_Penalty_Charging>
1.09773e-07

> <r_epik_Ionization_Penalty_Neutral>
3.66603

> <r_epik_State_Penalty>
3.66562

> <r_epik_Charging_Adjusted_Penalty>
3.66562

> <i_epik_Tot_Q>
-1

> <i_epik_Tot_abs_Q>
1

> <r_epik_Metal_State_Penalty>
0.234536

> <b_epik_Metal_Only>
1

> <s_epik_Chemistry_Notes>
This compound contains an acetal/aminal-like group ( X-CH(R)-Y where X, Y are N, S, or O) that may be acid/base labile, releasing an aldehyde.

> <s_lp_Force_Field>
OPLS_2005

> <r_lp_Energy>
34.2111

> <b_lp_Chiralities_Consistent>
1

> <s_lp_Variant>
AV-unprocessed.smi:55-10

> <Gold.Version>
5.8.1

> <Gold.Id.Protein>
6NUR|6NUR_protein|mol2

> <Gold.PLP.Fitness>
35.2341

> <Gold.PLP.PLP>
-23.9136

> <Gold.PLP.part.hbond>
-4.2683

> <Gold.PLP.part.metal>
0.0000

> <Gold.PLP.part.buried>
-1.8501

> <Gold.PLP.part.nonpolar>
-17.3682

> <Gold.PLP.part.repulsive>
0.0000

> <Gold.PLP.ligand.clash>
0.0000

> <Gold.PLP.ligand.torsion>
0.2125

> <Gold.PLP.Chemscore.Hbond>
3.9120

> <Gold.PLP.Chemscore.CHOScore>
0.0000

> <Gold.PLP.Chemscore.Metal>
0.0000

> <Gold.Chemscore.Hbonds>
donor molecule, donor type, donor heavy atom, donor atom, acceptor molecule, acceptor atom, score
      L1  H     8    27       P1  7957  1.00
      L1  H    11    30       P1  7948  0.88
      P1  H  7997  8009       L1    15  2.00

> <Gold.PLP.Chemscore.Internal.Correction>
0.0096

> <Gold.Rescore>
     Score         DG    S(hbond)    S(metal)    S(lipo)     H(rot)  DE(clash)    DE(int)     intcor
      6.89     -10.13       1.95        0.00      42.87       2.69       0.02       3.22       ----

> <Gold.Chemscore.Fitness>
6.8868

> <Gold.Chemscore.DG>
-10.1262

> <Gold.Chemscore.ZeroCoef>
-5.4800

> <Gold.Chemscore.Hbond>
1.9491

> <Gold.Chemscore.Metal>
0.0000

> <Gold.Chemscore.Lipo>
42.8651

> <Gold.Chemscore.Internal_Hbond>
0.0000

> <Gold.Chemscore.DEClash>
0.0234

> <Gold.Chemscore.DEInternal>
3.2159

> <Gold.Chemscore.Rot>
2.6871

> <Gold.Chemscore.Internal.Correction>
   9.000000E+99

> <Gold.Chemscore.Hbonds>
donor molecule, donor type, donor heavy atom, donor atom, acceptor molecule, acceptor atom, score
      L1  H     8    27       P1  7957  0.58
      L1  H    11    30       P1  7948  0.81
      P1  H  7997  8009       L1    15  0.11

> <Gold.Chemscore.Hbond.Weighted>
-6.5100

> <Gold.Chemscore.Metal.Weighted>
-0.0000

> <Gold.Chemscore.Lipo.Weighted>
-5.0152

> <Gold.Chemscore.Internal_Hbond.Weighted>
0.0000

> <Gold.Chemscore.DEClash.Weighted>
0.0234

> <Gold.Chemscore.DEInternal.Weighted>
3.2159

> <Gold.Chemscore.Rot.Weighted>
6.8791

> <Gold.Chemscore.Internal.Correction.Weighted>
   9.000000E+99

> <Gold.Protein.RotatedTorsions>
[ 6907 6896 6895 6894 ] final -150.66 input  -60.11 | X-H torsion
[ 7974 7965 7964 7962 ] final    1.80 input  175.53 | X-H torsion
[ 8008 7997 7996 7995 ] final  130.73 input   59.86 | X-H torsion
[ 10167 10162 10161 10158 ] final  -92.40 input  -65.29 | X-H torsion
[ 10718 10713 10712 10709 ] final   26.91 input   66.30 | X-H torsion
[ 10763 10752 10751 10750 ] final   57.61 input  -60.55 | X-H torsion
[ 11005 11000 10999 10996 ] final -158.93 input  -57.11 | X-H torsion

> <Gold.Protein.ActiveResidues>
 VAL166  LYS551  ARG553  GLY616  TRP617  ASP618  TYR619  PRO620  LYS621  CYS622 
 ASP623  PHE694  ASN695  SER759  ASP760  ASP761  ALA762  ILE779  LEU786  VAL792 
 PHE793  MET794  SER795  GLU796  ALA797  LYS798  CYS799  TRP800  GLU811  SER814 

> <Gold.Protein.RotatedAtoms>
  151.2018  133.4606  159.2596 H   0  0  0  0  0  0  0  0  0  0  0  0  # atno 6907 bound_to 6896
  151.1062  135.0000  159.8482 H   0  0  0  0  0  0  0  0  0  0  0  0  # atno 6908 bound_to 6896
  152.5447  134.1941  159.8739 H   0  0  0  0  0  0  0  0  0  0  0  0  # atno 6909 bound_to 6896
  146.2442  140.0932  142.8351 H   0  0  0  0  0  0  0  0  0  0  0  0  # atno 7974 bound_to 7965
  156.2959  140.2589  156.2810 H   0  0  0  0  0  0  0  0  0  0  0  0  # atno 8008 bound_to 7997
  154.9602  140.0392  157.2205 H   0  0  0  0  0  0  0  0  0  0  0  0  # atno 8009 bound_to 7997
  154.7954  140.2819  155.5965 H   0  0  0  0  0  0  0  0  0  0  0  0  # atno 8010 bound_to 7997
  140.3352  143.2972  151.9897 H   0  0  0  0  0  0  0  0  0  0  0  0  # atno 10167 bound_to 10162
  157.2132  130.6944  149.6237 H   0  0  0  0  0  0  0  0  0  0  0  0  # atno 10718 bound_to 10713
  152.9853  135.5635  154.5419 H   0  0  0  0  0  0  0  0  0  0  0  0  # atno 10763 bound_to 10752
  154.4872  135.2791  155.1527 H   0  0  0  0  0  0  0  0  0  0  0  0  # atno 10764 bound_to 10752
  154.3011  135.6307  153.5478 H   0  0  0  0  0  0  0  0  0  0  0  0  # atno 10765 bound_to 10752
  140.6482  134.4479  157.5234 H   0  0  0  0  0  0  0  0  0  0  0  0  # atno 11005 bound_to 11000
  145.0632  140.9103  143.4926 LP  0  0  0  0  0  0  0  0  0  0  0  0  # atno 17320 bound_to 7965
  145.1052  139.2795  143.5666 LP  0  0  0  0  0  0  0  0  0  0  0  0  # atno 17321 bound_to 7965
  139.4849  144.6202  151.7269 LP  0  0  0  0  0  0  0  0  0  0  0  0  # atno 17342 bound_to 10162
  140.5360  144.0655  150.6070 LP  0  0  0  0  0  0  0  0  0  0  0  0  # atno 17343 bound_to 10162
  155.9689  130.4544  150.5849 LP  0  0  0  0  0  0  0  0  0  0  0  0  # atno 17370 bound_to 10713
  157.3651  131.0756  151.1604 LP  0  0  0  0  0  0  0  0  0  0  0  0  # atno 17371 bound_to 10713
  139.9055  134.8458  156.1723 LP  0  0  0  0  0  0  0  0  0  0  0  0  # atno 17394 bound_to 11000
  141.0556  133.6867  156.1855 LP  0  0  0  0  0  0  0  0  0  0  0  0  # atno 17395 bound_to 11000

$$$$
