AV-unprocessed.smi:221|AV-procd|sdf|1695|dock5
  -GOLD-   2262020143D 1   1.00000     0.00000
 Structure written by MMmdl.
 50 53  0  0  0  0  0  0  0  0  1 V2000
  148.7449  143.5596  158.0805 N   0  0  0  0  0  0  0  0  0  0  0  0
  149.7926  143.5021  158.9060 C   0  0  0  0  0  0  0  0  0  0  0  0
  149.6562  143.3879  160.1232 O   0  0  0  0  0  0  0  0  0  0  0  0
  151.1874  143.5876  158.2582 C   0  0  1  0  0  0  0  0  0  0  0  0
  152.0698  144.6578  158.9268 C   0  0  0  0  0  0  0  0  0  0  0  0
  152.8429  143.9094  160.0133 C   0  0  1  0  0  0  0  0  0  0  0  0
  152.1082  143.8297  161.1238 F   0  0  0  0  0  0  0  0  0  0  0  0
  153.0315  142.5142  159.4153 C   0  0  0  0  0  0  0  0  0  0  0  0
  151.9619  142.3584  158.4332 N   0  0  0  0  0  0  0  0  0  0  0  0
  151.7979  141.2148  157.7109 C   0  0  0  0  0  0  0  0  0  0  0  0
  152.5359  140.1300  158.0689 N   0  0  0  0  0  0  0  0  0  0  0  0
  152.4252  138.9760  157.4067 C   0  0  0  0  0  0  0  0  0  0  0  0
  151.6485  138.6865  156.3634 N   0  0  0  0  0  0  0  0  0  0  0  0
  150.9051  139.7657  155.9900 C   0  0  0  0  0  0  0  0  0  0  0  0
  150.9135  141.0552  156.5992 C   0  0  0  0  0  0  0  0  0  0  0  0
  150.0168  141.8824  155.9289 N   0  0  0  0  0  0  0  0  0  0  0  0
  149.5102  141.1311  154.9911 C   0  0  0  0  0  0  0  0  0  0  0  0
  149.9969  139.8462  154.9495 N   0  0  0  0  0  0  0  0  0  0  0  0
  149.6210  138.7988  154.0159 C   0  0  0  0  0  0  0  0  0  0  0  0
  148.1160  138.4346  154.0955 C   0  0  2  0  0  0  0  0  0  0  0  0
  147.2284  139.6052  153.6115 C   0  0  0  0  0  0  0  0  0  0  0  0
  147.0186  139.5453  152.2160 O   0  0  0  0  0  0  0  0  0  0  0  0
  147.6758  137.9217  155.4948 C   0  0  1  0  0  0  0  0  0  0  0  0
  146.2142  137.5217  155.6313 C   0  0  0  0  0  0  0  0  0  0  0  0
  146.2163  136.5768  156.8378 C   0  0  0  0  0  0  0  0  0  0  0  0
  147.5831  136.3063  157.1393 O   0  0  0  0  0  0  0  0  0  0  0  0
  148.3858  136.6794  156.0301 C   0  0  0  0  0  0  0  0  0  0  0  0
  151.0861  143.8318  157.2005 H   0  0  0  0  0  0  0  0  0  0  0  0
  153.7837  144.3906  160.2815 H   0  0  0  0  0  0  0  0  0  0  0  0
  147.8095  143.5051  158.4566 H   0  0  0  0  0  0  0  0  0  0  0  0
  148.8900  143.6546  157.0860 H   0  0  0  0  0  0  0  0  0  0  0  0
  152.7740  145.0504  158.1921 H   0  0  0  0  0  0  0  0  0  0  0  0
  151.5097  145.5077  159.3195 H   0  0  0  0  0  0  0  0  0  0  0  0
  153.9933  142.4485  158.9049 H   0  0  0  0  0  0  0  0  0  0  0  0
  152.9996  141.7415  160.1848 H   0  0  0  0  0  0  0  0  0  0  0  0
  153.0492  138.1700  157.7637 H   0  0  0  0  0  0  0  0  0  0  0  0
  148.7702  141.4990  154.2952 H   0  0  0  0  0  0  0  0  0  0  0  0
  149.8960  139.1421  153.0200 H   0  0  0  0  0  0  0  0  0  0  0  0
  150.2372  137.9231  154.2217 H   0  0  0  0  0  0  0  0  0  0  0  0
  147.9521  137.6090  153.4014 H   0  0  0  0  0  0  0  0  0  0  0  0
  146.2659  139.6014  154.1232 H   0  0  0  0  0  0  0  0  0  0  0  0
  147.6943  140.5675  153.8207 H   0  0  0  0  0  0  0  0  0  0  0  0
  147.8470  139.6767  151.7803 H   0  0  0  0  0  0  0  0  0  0  0  0
  147.8363  138.7196  156.2212 H   0  0  0  0  0  0  0  0  0  0  0  0
  145.5624  138.3834  155.7784 H   0  0  0  0  0  0  0  0  0  0  0  0
  145.8558  136.9854  154.7540 H   0  0  0  0  0  0  0  0  0  0  0  0
  145.7380  137.0310  157.7060 H   0  0  0  0  0  0  0  0  0  0  0  0
  145.6904  135.6493  156.6092 H   0  0  0  0  0  0  0  0  0  0  0  0
  148.3835  135.8620  155.3085 H   0  0  0  0  0  0  0  0  0  0  0  0
  149.4151  136.8735  156.3318 H   0  0  0  0  0  0  0  0  0  0  0  0
  1  2  1  0  0  0  0
  1 30  1  0  0  0  0
  1 31  1  0  0  0  0
  2  3  2  0  0  0  0
  2  4  1  0  0  0  0
  4 28  1  0  0  0  0
  4  9  1  0  0  0  0
  4  5  1  0  0  0  0
  5  6  1  0  0  0  0
  5 32  1  0  0  0  0
  5 33  1  0  0  0  0
  6 29  1  0  0  0  0
  6  7  1  0  0  0  0
  6  8  1  0  0  0  0
  8  9  1  0  0  0  0
  8 34  1  0  0  0  0
  8 35  1  0  0  0  0
  9 10  1  0  0  0  0
 10 15  1  0  0  0  0
 10 11  2  0  0  0  0
 11 12  1  0  0  0  0
 12 13  2  0  0  0  0
 12 36  1  0  0  0  0
 13 14  1  0  0  0  0
 14 18  1  0  0  0  0
 14 15  2  0  0  0  0
 15 16  1  0  0  0  0
 16 17  2  0  0  0  0
 17 18  1  0  0  0  0
 17 37  1  0  0  0  0
 18 19  1  0  0  0  0
 19 20  1  0  0  0  0
 19 38  1  0  0  0  0
 19 39  1  0  0  0  0
 20 21  1  0  0  0  0
 20 23  1  0  0  0  0
 20 40  1  0  0  0  0
 21 22  1  0  0  0  0
 21 41  1  0  0  0  0
 21 42  1  0  0  0  0
 22 43  1  0  0  0  0
 23 27  1  0  0  0  0
 23 24  1  0  0  0  0
 23 44  1  0  0  0  0
 24 25  1  0  0  0  0
 24 45  1  0  0  0  0
 24 46  1  0  0  0  0
 25 26  1  0  0  0  0
 25 47  1  0  0  0  0
 25 48  1  0  0  0  0
 26 27  1  0  0  0  0
 27 49  1  0  0  0  0
 27 50  1  0  0  0  0
M  END
> <s_m_source_file>
AV-unprocessed.smi

> <i_m_source_file_index>
221

> <i_lp_mmshare_version>
43012

> <i_f3d_flags>
0

> <s_epik_input>
W05IMl1DKD1PKVtDQEBIXTFbQ0gyXVtDQEBIXShGKVtDSDJdTjFjKG5bY0hdbjIpYyhjMjMpbltjSF1uM1tDSDJdW0NASF0oW0NIMl1bT0hdKVtDQEBIXTRbQ0gyXVtDSDJdT1tDSDJdNA==

> <s_epik_cmdline>
J2VwaWtfcHl0aG9uJywgJy1waCcsICc3LjAnLCAnLXRuJywgJzgnLCAnLW1hJywgJzIwMCcsICctbWV0YWxfYmluZGluZycsICctaW1hZScsICc8aW5maWxlLm1hZT4nLCAnLW9tYWUnLCAnPG91dGZpbGUubWFlPic=

> <r_lp_tautomer_probability>
1

> <r_epik_Ionization_Penalty>
0.000818822

> <r_epik_Ionization_Penalty_Charging>
0

> <r_epik_Ionization_Penalty_Neutral>
0.000818822

> <r_epik_State_Penalty>
0.000440551

> <r_epik_Charging_Adjusted_Penalty>
0.000440551

> <i_epik_Tot_Q>
0

> <i_epik_Tot_abs_Q>
0

> <r_epik_Metal_State_Penalty>
-0

> <b_epik_Metal_Only>
0

> <s_lp_Force_Field>
OPLS_2005

> <r_lp_Energy>
49.0425

> <b_lp_Chiralities_Consistent>
1

> <s_lp_Variant>
AV-unprocessed.smi:221-10

> <Gold.Version>
5.8.1

> <Gold.Id.Protein>
6NUR|6NUR_protein|mol2

> <Gold.PLP.Fitness>
47.1624

> <Gold.PLP.PLP>
-41.8132

> <Gold.PLP.part.hbond>
-3.8794

> <Gold.PLP.part.metal>
0.0000

> <Gold.PLP.part.buried>
-1.9296

> <Gold.PLP.part.nonpolar>
-35.9750

> <Gold.PLP.part.repulsive>
0.6612

> <Gold.PLP.ligand.clash>
0.0000

> <Gold.PLP.ligand.torsion>
0.5727

> <Gold.PLP.Chemscore.Hbond>
2.1040

> <Gold.PLP.Chemscore.CHOScore>
0.0000

> <Gold.PLP.Chemscore.Metal>
0.0000

> <Gold.Chemscore.Hbonds>
donor molecule, donor type, donor heavy atom, donor atom, acceptor molecule, acceptor atom, score
      L1  H     1    31       P1  8028  0.93
      L1  H    22    43       P1  7957  1.00
      P1  H  6933  6944       L1     3  0.14

> <Gold.PLP.Chemscore.Internal.Correction>
0.1826

> <Gold.Rescore>
     Score         DG    S(hbond)    S(metal)    S(lipo)     H(rot)  DE(clash)    DE(int)     intcor
      8.54     -11.24       1.57        0.00      76.90       3.31       0.41       2.29       ----

> <Gold.Chemscore.Fitness>
8.5435

> <Gold.Chemscore.DG>
-11.2421

> <Gold.Chemscore.ZeroCoef>
-5.4800

> <Gold.Chemscore.Hbond>
1.5676

> <Gold.Chemscore.Metal>
0.0000

> <Gold.Chemscore.Lipo>
76.8981

> <Gold.Chemscore.Internal_Hbond>
0.0000

> <Gold.Chemscore.DEClash>
0.4120

> <Gold.Chemscore.DEInternal>
2.2866

> <Gold.Chemscore.Rot>
3.3089

> <Gold.Chemscore.Internal.Correction>
   9.000000E+99

> <Gold.Chemscore.Hbonds>
donor molecule, donor type, donor heavy atom, donor atom, acceptor molecule, acceptor atom, score
      L1  H     1    31       P1  8028  0.27
      L1  H    22    43       P1  7957  1.00
      P1  H  6933  6944       L1     3  0.15

> <Gold.Chemscore.Hbond.Weighted>
-5.2359

> <Gold.Chemscore.Metal.Weighted>
-0.0000

> <Gold.Chemscore.Lipo.Weighted>
-8.9971

> <Gold.Chemscore.Internal_Hbond.Weighted>
0.0000

> <Gold.Chemscore.DEClash.Weighted>
0.4120

> <Gold.Chemscore.DEInternal.Weighted>
2.2866

> <Gold.Chemscore.Rot.Weighted>
8.4709

> <Gold.Chemscore.Internal.Correction.Weighted>
   9.000000E+99

> <Gold.Protein.RotatedTorsions>
[ 6907 6896 6895 6894 ] final  -51.93 input  -60.11 | X-H torsion
[ 7974 7965 7964 7962 ] final -164.28 input  175.53 | X-H torsion
[ 8008 7997 7996 7995 ] final    6.26 input   59.86 | X-H torsion
[ 10167 10162 10161 10158 ] final -166.88 input  -65.29 | X-H torsion
[ 10718 10713 10712 10709 ] final  -27.21 input   66.30 | X-H torsion
[ 10763 10752 10751 10750 ] final -112.80 input  -60.55 | X-H torsion
[ 11005 11000 10999 10996 ] final  130.35 input  -57.11 | X-H torsion

> <Gold.Protein.ActiveResidues>
 VAL166  LYS551  ARG553  GLY616  TRP617  ASP618  TYR619  PRO620  LYS621  CYS622 
 ASP623  PHE694  ASN695  SER759  ASP760  ASP761  ALA762  ILE779  LEU786  VAL792 
 PHE793  MET794  SER795  GLU796  ALA797  LYS798  CYS799  TRP800  GLU811  SER814 

> <Gold.Protein.RotatedAtoms>
  150.8565  134.7905  159.7049 H   0  0  0  0  0  0  0  0  0  0  0  0  # atno 6907 bound_to 6896
  152.4615  134.5170  159.9781 H   0  0  0  0  0  0  0  0  0  0  0  0  # atno 6908 bound_to 6896
  151.5281  133.3416  159.2949 H   0  0  0  0  0  0  0  0  0  0  0  0  # atno 6909 bound_to 6896
  144.7301  140.2983  143.6209 H   0  0  0  0  0  0  0  0  0  0  0  0  # atno 7974 bound_to 7965
  154.7387  140.2745  155.6392 H   0  0  0  0  0  0  0  0  0  0  0  0  # atno 8008 bound_to 7997
  156.2868  140.2701  156.2034 H   0  0  0  0  0  0  0  0  0  0  0  0  # atno 8009 bound_to 7997
  155.0286  140.0371  157.2455 H   0  0  0  0  0  0  0  0  0  0  0  0  # atno 8010 bound_to 7997
  139.6086  144.0862  152.1818 H   0  0  0  0  0  0  0  0  0  0  0  0  # atno 10167 bound_to 10162
  156.4411  130.4464  149.7052 H   0  0  0  0  0  0  0  0  0  0  0  0  # atno 10718 bound_to 10713
  154.8367  135.4477  154.1250 H   0  0  0  0  0  0  0  0  0  0  0  0  # atno 10763 bound_to 10752
  153.2476  135.6923  153.7720 H   0  0  0  0  0  0  0  0  0  0  0  0  # atno 10764 bound_to 10752
  153.7045  135.3366  155.3208 H   0  0  0  0  0  0  0  0  0  0  0  0  # atno 10765 bound_to 10752
  139.9667  134.9588  156.9281 H   0  0  0  0  0  0  0  0  0  0  0  0  # atno 11005 bound_to 11000
  145.7786  139.1883  143.2171 LP  0  0  0  0  0  0  0  0  0  0  0  0  # atno 17320 bound_to 7965
  146.0853  140.7718  142.9622 LP  0  0  0  0  0  0  0  0  0  0  0  0  # atno 17321 bound_to 7965
  140.0475  144.5959  150.7362 LP  0  0  0  0  0  0  0  0  0  0  0  0  # atno 17342 bound_to 10162
  140.7303  143.2681  151.3977 LP  0  0  0  0  0  0  0  0  0  0  0  0  # atno 17343 bound_to 10162
  156.3916  130.7630  151.2631 LP  0  0  0  0  0  0  0  0  0  0  0  0  # atno 17370 bound_to 10713
  157.7506  131.0266  150.3969 LP  0  0  0  0  0  0  0  0  0  0  0  0  # atno 17371 bound_to 10713
  140.5381  134.0747  155.7334 LP  0  0  0  0  0  0  0  0  0  0  0  0  # atno 17394 bound_to 11000
  141.1347  133.9242  157.2460 LP  0  0  0  0  0  0  0  0  0  0  0  0  # atno 17395 bound_to 11000

$$$$
