AV-unprocessed.smi:1088|AV-procd|sdf|4732|dock2
  -GOLD-   22720 3263D 1   1.00000     0.00000
 Structure written by MMmdl.
 47 48  0  0  0  0  0  0  0  0  1 V2000
  150.6445  136.5337  154.8463 C   0  0  0  0  0  0  0  0  0  0  0  0
  151.2063  137.7917  155.1744 O   0  0  0  0  0  0  0  0  0  0  0  0
  150.4145  138.8770  154.7188 C   0  0  0  0  0  0  0  0  0  0  0  0
  149.0158  138.8118  155.3513 C   0  0  0  0  0  0  0  0  0  0  0  0
  148.0176  139.7840  154.8869 N   0  0  0  0  0  0  0  0  0  0  0  0
  147.8508  139.6668  153.4481 C   0  0  0  0  0  0  0  0  0  0  0  0
  147.1250  140.9246  152.9867 C   0  0  0  0  0  0  0  0  0  0  0  0
  147.5083  141.9643  154.0418 C   0  0  0  0  0  0  0  0  0  0  0  0
  148.3542  141.1971  155.0793 C   0  0  1  0  0  0  0  0  0  0  0  0
  148.1473  141.7595  156.5048 C   0  0  0  0  0  0  0  0  0  0  0  0
  149.2551  142.6225  156.9047 N   0  0  0  0  0  0  0  0  0  0  0  0
  150.4366  142.2122  157.3898 C   0  0  0  0  0  0  0  0  0  0  0  0
  150.7228  141.0277  157.5695 O   0  0  0  0  0  0  0  0  0  0  0  0
  151.4339  143.3230  157.7466 C   0  0  0  0  0  0  0  0  0  0  0  0
  151.8418  143.3045  159.1572 N   0  0  0  0  0  0  0  0  0  0  0  0
  151.4596  144.3358  159.9954 C   0  0  0  0  0  0  0  0  0  0  0  0
  151.7847  144.3904  161.3054 C   0  0  0  0  0  0  0  0  0  0  0  0
  152.5801  143.3372  161.9250 C   0  0  0  0  0  0  0  0  0  0  0  0
  152.8852  143.3425  163.1180 O   0  0  0  0  0  0  0  0  0  0  0  0
  152.9667  142.2998  161.0426 N   0  0  0  0  0  0  0  0  0  0  0  0
  153.7491  141.1960  161.5585 C   0  0  0  0  0  0  0  0  0  0  0  0
  152.6122  142.2421  159.6765 C   0  0  0  0  0  0  0  0  0  0  0  0
  152.9534  141.3014  158.9551 O   0  0  0  0  0  0  0  0  0  0  0  0
  151.2840  135.7371  155.2264 H   0  0  0  0  0  0  0  0  0  0  0  0
  150.5604  136.4109  153.7657 H   0  0  0  0  0  0  0  0  0  0  0  0
  149.6559  136.4138  155.2914 H   0  0  0  0  0  0  0  0  0  0  0  0
  150.8911  139.8332  154.9285 H   0  0  0  0  0  0  0  0  0  0  0  0
  150.3175  138.8258  153.6333 H   0  0  0  0  0  0  0  0  0  0  0  0
  148.6251  137.7976  155.2581 H   0  0  0  0  0  0  0  0  0  0  0  0
  149.1586  138.9711  156.4212 H   0  0  0  0  0  0  0  0  0  0  0  0
  148.8266  139.6240  152.9609 H   0  0  0  0  0  0  0  0  0  0  0  0
  147.3095  138.7587  153.1804 H   0  0  0  0  0  0  0  0  0  0  0  0
  147.4188  141.2199  151.9791 H   0  0  0  0  0  0  0  0  0  0  0  0
  146.0462  140.7637  152.9915 H   0  0  0  0  0  0  0  0  0  0  0  0
  148.0682  142.7955  153.6118 H   0  0  0  0  0  0  0  0  0  0  0  0
  146.6014  142.3744  154.4883 H   0  0  0  0  0  0  0  0  0  0  0  0
  149.4018  141.3354  154.8055 H   0  0  0  0  0  0  0  0  0  0  0  0
  147.1894  142.2783  156.5688 H   0  0  0  0  0  0  0  0  0  0  0  0
  148.1090  140.9708  157.2480 H   0  0  0  0  0  0  0  0  0  0  0  0
  149.1117  143.6163  156.7995 H   0  0  0  0  0  0  0  0  0  0  0  0
  152.3133  143.2497  157.1041 H   0  0  0  0  0  0  0  0  0  0  0  0
  150.9726  144.2818  157.5056 H   0  0  0  0  0  0  0  0  0  0  0  0
  150.8647  145.1389  159.5854 H   0  0  0  0  0  0  0  0  0  0  0  0
  151.4491  145.2239  161.9047 H   0  0  0  0  0  0  0  0  0  0  0  0
  154.5752  141.0164  160.8680 H   0  0  0  0  0  0  0  0  0  0  0  0
  153.0822  140.3344  161.6166 H   0  0  0  0  0  0  0  0  0  0  0  0
  154.1612  141.4331  162.5390 H   0  0  0  0  0  0  0  0  0  0  0  0
  1  2  1  0  0  0  0
  1 24  1  0  0  0  0
  1 25  1  0  0  0  0
  1 26  1  0  0  0  0
  2  3  1  0  0  0  0
  3  4  1  0  0  0  0
  3 27  1  0  0  0  0
  3 28  1  0  0  0  0
  4  5  1  0  0  0  0
  4 29  1  0  0  0  0
  4 30  1  0  0  0  0
  5  9  1  0  0  0  0
  5  6  1  0  0  0  0
  6  7  1  0  0  0  0
  6 31  1  0  0  0  0
  6 32  1  0  0  0  0
  7  8  1  0  0  0  0
  7 33  1  0  0  0  0
  7 34  1  0  0  0  0
  8  9  1  0  0  0  0
  8 35  1  0  0  0  0
  8 36  1  0  0  0  0
  9 10  1  0  0  0  0
  9 37  1  0  0  0  0
 10 11  1  0  0  0  0
 10 38  1  0  0  0  0
 10 39  1  0  0  0  0
 11 12  1  0  0  0  0
 11 40  1  0  0  0  0
 12 13  2  0  0  0  0
 12 14  1  0  0  0  0
 14 15  1  0  0  0  0
 14 41  1  0  0  0  0
 14 42  1  0  0  0  0
 15 22  1  0  0  0  0
 15 16  1  0  0  0  0
 16 17  2  0  0  0  0
 16 43  1  0  0  0  0
 17 18  1  0  0  0  0
 17 44  1  0  0  0  0
 18 19  2  0  0  0  0
 18 20  1  0  0  0  0
 20 21  1  0  0  0  0
 20 22  1  0  0  0  0
 21 45  1  0  0  0  0
 21 46  1  0  0  0  0
 21 47  1  0  0  0  0
 22 23  2  0  0  0  0
M  END
> <s_m_source_file>
AV-unprocessed.smi

> <i_m_source_file_index>
1088

> <i_lp_mmshare_version>
43012

> <i_f3d_flags>
0

> <s_epik_input>
W0NIM11PW0NIMl1bQ0gyXU4xW0NIMl1bQ0gyXVtDSDJdW0NASF0xW0NIMl1bTkhdQyg9TylbQ0gyXW4yW2NIXVtjSF1jKD1PKW4oW0NIM10pYzI9Tw==

> <s_epik_cmdline>
J2VwaWtfcHl0aG9uJywgJy1waCcsICc3LjAnLCAnLXRuJywgJzgnLCAnLW1hJywgJzIwMCcsICctbWV0YWxfYmluZGluZycsICctaW1hZScsICc8aW5maWxlLm1hZT4nLCAnLW9tYWUnLCAnPG91dGZpbGUubWFlPic=

> <r_lp_tautomer_probability>
1

> <r_epik_Ionization_Penalty>
2.28131

> <r_epik_Ionization_Penalty_Charging>
1.22971e-08

> <r_epik_Ionization_Penalty_Neutral>
2.28131

> <r_epik_State_Penalty>
2.43063

> <r_epik_Charging_Adjusted_Penalty>
2.43063

> <i_epik_Tot_Q>
0

> <i_epik_Tot_abs_Q>
0

> <r_epik_Metal_State_Penalty>
2.43056

> <b_epik_Metal_Only>
0

> <s_lp_Force_Field>
OPLS_2005

> <r_lp_Energy>
52.4092

> <b_lp_Chiralities_Consistent>
1

> <s_lp_Variant>
AV-unprocessed.smi:1088-5

> <Gold.Version>
5.8.1

> <Gold.Id.Protein>
6NUR|6NUR_protein|mol2

> <Gold.PLP.Fitness>
48.4056

> <Gold.PLP.PLP>
-47.3550

> <Gold.PLP.part.hbond>
-1.0000

> <Gold.PLP.part.metal>
0.0000

> <Gold.PLP.part.buried>
-4.1829

> <Gold.PLP.part.nonpolar>
-41.4666

> <Gold.PLP.part.repulsive>
0.3059

> <Gold.PLP.ligand.clash>
0.0000

> <Gold.PLP.ligand.torsion>
0.8103

> <Gold.PLP.Chemscore.Hbond>
0.8640

> <Gold.PLP.Chemscore.CHOScore>
0.0000

> <Gold.PLP.Chemscore.Metal>
0.0000

> <Gold.Chemscore.Hbonds>
donor molecule, donor type, donor heavy atom, donor atom, acceptor molecule, acceptor atom, score
      L1  H    11    40       P1  8028  0.83

> <Gold.PLP.Chemscore.Internal.Correction>
0.0793

> <Gold.Rescore>
     Score         DG    S(hbond)    S(metal)    S(lipo)     H(rot)  DE(clash)    DE(int)     intcor
      9.96     -12.65       0.95        0.00      88.86       2.49       0.37       2.33       ----

> <Gold.Chemscore.Fitness>
9.9561

> <Gold.Chemscore.DG>
-12.6545

> <Gold.Chemscore.ZeroCoef>
-5.4800

> <Gold.Chemscore.Hbond>
0.9467

> <Gold.Chemscore.Metal>
0.0000

> <Gold.Chemscore.Lipo>
88.8606

> <Gold.Chemscore.Internal_Hbond>
0.0000

> <Gold.Chemscore.DEClash>
0.3726

> <Gold.Chemscore.DEInternal>
2.3257

> <Gold.Chemscore.Rot>
2.4938

> <Gold.Chemscore.Internal.Correction>
   9.000000E+99

> <Gold.Chemscore.Hbonds>
donor molecule, donor type, donor heavy atom, donor atom, acceptor molecule, acceptor atom, score
      L1  H    11    40       P1  8028  0.67

> <Gold.Chemscore.Hbond.Weighted>
-3.1618

> <Gold.Chemscore.Metal.Weighted>
-0.0000

> <Gold.Chemscore.Lipo.Weighted>
-10.3967

> <Gold.Chemscore.Internal_Hbond.Weighted>
0.0000

> <Gold.Chemscore.DEClash.Weighted>
0.3726

> <Gold.Chemscore.DEInternal.Weighted>
2.3257

> <Gold.Chemscore.Rot.Weighted>
6.3841

> <Gold.Chemscore.Internal.Correction.Weighted>
   9.000000E+99

> <Gold.Protein.RotatedTorsions>
[ 6907 6896 6895 6894 ] final  179.27 input  -60.11 | X-H torsion
[ 7974 7965 7964 7962 ] final  166.52 input  175.53 | X-H torsion
[ 8008 7997 7996 7995 ] final -116.79 input   59.86 | X-H torsion
[ 10167 10162 10161 10158 ] final  -90.37 input  -65.29 | X-H torsion
[ 10718 10713 10712 10709 ] final  -22.14 input   66.30 | X-H torsion
[ 10763 10752 10751 10750 ] final   56.97 input  -60.55 | X-H torsion
[ 11005 11000 10999 10996 ] final  120.81 input  -57.11 | X-H torsion

> <Gold.Protein.ActiveResidues>
 VAL166  LYS551  ARG553  GLY616  TRP617  ASP618  TYR619  PRO620  LYS621  CYS622 
 ASP623  PHE694  ASN695  SER759  ASP760  ASP761  ALA762  ILE779  LEU786  VAL792 
 PHE793  MET794  SER795  GLU796  ALA797  LYS798  CYS799  TRP800  GLU811  SER814 

> <Gold.Protein.RotatedAtoms>
  151.6743  133.3313  159.3203 H   0  0  0  0  0  0  0  0  0  0  0  0  # atno 6907 bound_to 6896
  150.7853  134.6836  159.6467 H   0  0  0  0  0  0  0  0  0  0  0  0  # atno 6908 bound_to 6896
  152.3921  134.6428  160.0155 H   0  0  0  0  0  0  0  0  0  0  0  0  # atno 6909 bound_to 6896
  144.7459  139.8627  143.6382 H   0  0  0  0  0  0  0  0  0  0  0  0  # atno 7974 bound_to 7965
  155.0734  140.0393  157.2616 H   0  0  0  0  0  0  0  0  0  0  0  0  # atno 8008 bound_to 7997
  154.6964  140.2664  155.6737 H   0  0  0  0  0  0  0  0  0  0  0  0  # atno 8009 bound_to 7997
  156.2746  140.2749  156.1560 H   0  0  0  0  0  0  0  0  0  0  0  0  # atno 8010 bound_to 7997
  140.3556  143.2868  151.9675 H   0  0  0  0  0  0  0  0  0  0  0  0  # atno 10167 bound_to 10162
  156.5086  130.4605  149.6661 H   0  0  0  0  0  0  0  0  0  0  0  0  # atno 10718 bound_to 10713
  152.9841  135.5658  154.5316 H   0  0  0  0  0  0  0  0  0  0  0  0  # atno 10763 bound_to 10752
  154.4786  135.2787  155.1590 H   0  0  0  0  0  0  0  0  0  0  0  0  # atno 10764 bound_to 10752
  154.3108  135.6288  153.5518 H   0  0  0  0  0  0  0  0  0  0  0  0  # atno 10765 bound_to 10752
  139.9200  134.9636  156.7863 H   0  0  0  0  0  0  0  0  0  0  0  0  # atno 11005 bound_to 11000
  146.1337  139.4377  143.0153 LP  0  0  0  0  0  0  0  0  0  0  0  0  # atno 17320 bound_to 7965
  145.7125  141.0101  143.1446 LP  0  0  0  0  0  0  0  0  0  0  0  0  # atno 17321 bound_to 7965
  139.4820  144.6038  151.7558 LP  0  0  0  0  0  0  0  0  0  0  0  0  # atno 17342 bound_to 10162
  140.5177  144.0928  150.6013 LP  0  0  0  0  0  0  0  0  0  0  0  0  # atno 17343 bound_to 10162
  156.3262  130.7307  151.2228 LP  0  0  0  0  0  0  0  0  0  0  0  0  # atno 17370 bound_to 10713
  157.7453  131.0442  150.4782 LP  0  0  0  0  0  0  0  0  0  0  0  0  # atno 17371 bound_to 10713
  140.6503  133.9737  155.7752 LP  0  0  0  0  0  0  0  0  0  0  0  0  # atno 17394 bound_to 11000
  141.0712  134.0202  157.3523 LP  0  0  0  0  0  0  0  0  0  0  0  0  # atno 17395 bound_to 11000

$$$$
