AV-unprocessed.smi:1679|AV-procd|sdf|6736|dock9
  -GOLD-   22720 7483D 1   1.00000     0.00000
 Structure written by MMmdl.
 44 45  0  0  0  0  0  0  0  0  2 V2000
  153.1901  140.9900  159.7351 C   0  0  0  0  0  0  0  0  0  0  0  0
  152.3091  142.2361  159.9246 C   0  0  1  0  0  0  0  0  0  0  0  0
  152.8361  143.1031  161.0862 C   0  0  0  0  0  0  0  0  0  0  0  0
  151.9775  144.3597  161.2945 C   0  0  0  0  0  0  0  0  0  0  0  0
  151.8871  145.1849  160.0035 C   0  0  0  0  0  0  0  0  0  0  0  0
  151.3512  144.3346  158.8423 C   0  0  0  0  0  0  0  0  0  0  0  0
  152.2054  143.0673  158.6255 C   0  0  2  0  0  0  0  0  0  0  0  0
  151.6043  142.2437  157.6339 O   0  0  0  0  0  0  0  0  0  0  0  0
  150.2619  141.8676  157.9063 C   0  0  0  0  0  0  0  0  0  0  0  0
  149.7479  141.0023  156.7510 C   0  0  0  0  0  0  0  0  0  0  0  0
  150.5409  139.7865  156.6331 N   0  0  0  0  0  0  0  0  0  0  0  0
  150.9642  139.2633  155.4747 C   0  0  0  0  0  0  0  0  0  0  0  0
  150.7421  139.7834  154.3804 O   0  0  0  0  0  0  0  0  0  0  0  0
  151.7865  137.9713  155.5810 C   0  0  0  0  0  0  0  0  0  0  0  0
  150.9933  136.8171  156.0338 N   0  0  0  0  0  0  0  0  0  0  0  0
  150.1467  136.1978  155.0974 C   0  0  0  0  0  0  0  0  0  0  0  0
  149.3818  135.1383  155.4228 C   0  0  0  0  0  0  0  0  0  0  0  0
  149.4469  134.6333  156.7889 C   0  0  0  0  0  0  0  0  0  0  0  0
  148.7594  133.6633  157.1023 O   0  0  0  0  0  0  0  0  0  0  0  0
  150.2797  135.2715  157.6623 N   0  5  0  0  0  0  0  0  0  0  0  0
  151.0500  136.3502  157.3177 C   0  0  0  0  0  0  0  0  0  0  0  0
  151.7930  136.9132  158.1227 O   0  0  0  0  0  0  0  0  0  0  0  0
  154.2072  141.2626  159.4519 H   0  0  0  0  0  0  0  0  0  0  0  0
  152.7931  140.3358  158.9583 H   0  0  0  0  0  0  0  0  0  0  0  0
  153.2458  140.4057  160.6539 H   0  0  0  0  0  0  0  0  0  0  0  0
  151.3068  141.8953  160.1898 H   0  0  0  0  0  0  0  0  0  0  0  0
  152.8558  142.5197  162.0075 H   0  0  0  0  0  0  0  0  0  0  0  0
  153.8672  143.3985  160.8872 H   0  0  0  0  0  0  0  0  0  0  0  0
  150.9762  144.0707  161.6164 H   0  0  0  0  0  0  0  0  0  0  0  0
  152.3971  144.9682  162.0963 H   0  0  0  0  0  0  0  0  0  0  0  0
  151.2423  146.0502  160.1595 H   0  0  0  0  0  0  0  0  0  0  0  0
  152.8731  145.5748  159.7475 H   0  0  0  0  0  0  0  0  0  0  0  0
  150.3192  144.0483  159.0491 H   0  0  0  0  0  0  0  0  0  0  0  0
  151.3268  144.9414  157.9375 H   0  0  0  0  0  0  0  0  0  0  0  0
  153.2135  143.3528  158.3181 H   0  0  0  0  0  0  0  0  0  0  0  0
  150.2074  141.3037  158.8373 H   0  0  0  0  0  0  0  0  0  0  0  0
  149.6300  142.7499  158.0197 H   0  0  0  0  0  0  0  0  0  0  0  0
  148.6996  140.7442  156.9078 H   0  0  0  0  0  0  0  0  0  0  0  0
  149.8065  141.5648  155.8181 H   0  0  0  0  0  0  0  0  0  0  0  0
  150.7627  139.2980  157.4884 H   0  0  0  0  0  0  0  0  0  0  0  0
  152.2276  137.7697  154.6039 H   0  0  0  0  0  0  0  0  0  0  0  0
  152.6344  138.1285  156.2508 H   0  0  0  0  0  0  0  0  0  0  0  0
  150.1533  136.6367  154.1104 H   0  0  0  0  0  0  0  0  0  0  0  0
  148.7345  134.6757  154.6923 H   0  0  0  0  0  0  0  0  0  0  0  0
  1  2  1  0  0  0  0
  1 23  1  0  0  0  0
  1 24  1  0  0  0  0
  1 25  1  0  0  0  0
  2  7  1  0  0  0  0
  2  3  1  0  0  0  0
  2 26  1  0  0  0  0
  3  4  1  0  0  0  0
  3 27  1  0  0  0  0
  3 28  1  0  0  0  0
  4  5  1  0  0  0  0
  4 29  1  0  0  0  0
  4 30  1  0  0  0  0
  5  6  1  0  0  0  0
  5 31  1  0  0  0  0
  5 32  1  0  0  0  0
  6  7  1  0  0  0  0
  6 33  1  0  0  0  0
  6 34  1  0  0  0  0
  7  8  1  0  0  0  0
  7 35  1  0  0  0  0
  8  9  1  0  0  0  0
  9 10  1  0  0  0  0
  9 36  1  0  0  0  0
  9 37  1  0  0  0  0
 10 11  1  0  0  0  0
 10 38  1  0  0  0  0
 10 39  1  0  0  0  0
 11 12  1  0  0  0  0
 11 40  1  0  0  0  0
 12 13  2  0  0  0  0
 12 14  1  0  0  0  0
 14 15  1  0  0  0  0
 14 41  1  0  0  0  0
 14 42  1  0  0  0  0
 15 21  1  0  0  0  0
 15 16  1  0  0  0  0
 16 17  2  0  0  0  0
 16 43  1  0  0  0  0
 17 18  1  0  0  0  0
 17 44  1  0  0  0  0
 18 19  2  0  0  0  0
 18 20  1  0  0  0  0
 20 21  1  0  0  0  0
 21 22  2  0  0  0  0
M  CHG  1  20  -1
M  END
> <s_m_source_file>
AV-unprocessed.smi

> <i_m_source_file_index>
1679

> <i_lp_mmshare_version>
43012

> <i_f3d_flags>
0

> <s_epik_input>
W0NIM11bQ0BASF0xW0NIMl1bQ0gyXVtDSDJdW0NIMl1bQ0BIXTFPW0NIMl1bQ0gyXVtOSF1DKD1PKVtDSDJdbjJbY0hdW2NIXWMoPU8pW25IXWMyPU8=

> <s_epik_cmdline>
J2VwaWtfcHl0aG9uJywgJy1waCcsICc3LjAnLCAnLXRuJywgJzgnLCAnLW1hJywgJzIwMCcsICctbWV0YWxfYmluZGluZycsICctaW1hZScsICc8aW5maWxlLm1hZT4nLCAnLW9tYWUnLCAnPG91dGZpbGUubWFlPic=

> <r_lp_tautomer_probability>
0.999537

> <r_epik_Ionization_Penalty>
3.07454

> <r_epik_Ionization_Penalty_Charging>
2.80088e-08

> <r_epik_Ionization_Penalty_Neutral>
3.07454

> <r_epik_State_Penalty>
3.07357

> <r_epik_Charging_Adjusted_Penalty>
3.07357

> <i_epik_Tot_Q>
-1

> <i_epik_Tot_abs_Q>
1

> <r_epik_Metal_State_Penalty>
0.45948

> <b_epik_Metal_Only>
1

> <s_lp_Force_Field>
OPLS_2005

> <r_lp_Energy>
20.702

> <b_lp_Chiralities_Consistent>
1

> <s_lp_Variant>
AV-unprocessed.smi:1679-8

> <Gold.Version>
5.8.1

> <Gold.Id.Protein>
6NUR|6NUR_protein|mol2

> <Gold.PLP.Fitness>
49.0893

> <Gold.PLP.PLP>
-39.6405

> <Gold.PLP.part.hbond>
-2.0973

> <Gold.PLP.part.metal>
0.0000

> <Gold.PLP.part.buried>
-6.0068

> <Gold.PLP.part.nonpolar>
-33.0594

> <Gold.PLP.part.repulsive>
0.2013

> <Gold.PLP.ligand.clash>
0.0000

> <Gold.PLP.ligand.torsion>
0.4227

> <Gold.PLP.Chemscore.Hbond>
2.3760

> <Gold.PLP.Chemscore.CHOScore>
1.0285

> <Gold.PLP.Chemscore.Metal>
0.0000

> <Gold.Chemscore.Hbonds>
donor molecule, donor type, donor heavy atom, donor atom, acceptor molecule, acceptor atom, score
      P1  H  6896  6907       L1    20  1.34
      P1  H  7989  7998       L1    13  1.00
      L1  C    16    43       P1  7948  0.97
      L1  C    16    43       P1  7949  0.03

> <Gold.PLP.Chemscore.Internal.Correction>
0.0809

> <Gold.Rescore>
     Score         DG    S(hbond)    S(metal)    S(lipo)     H(rot)  DE(clash)    DE(int)     intcor
     16.53     -17.10       1.69        0.00     104.64       2.45       0.14       0.43       ----

> <Gold.Chemscore.Fitness>
16.5280

> <Gold.Chemscore.DG>
-17.1028

> <Gold.Chemscore.ZeroCoef>
-5.4800

> <Gold.Chemscore.Hbond>
1.6914

> <Gold.Chemscore.Metal>
0.0000

> <Gold.Chemscore.Lipo>
104.6396

> <Gold.Chemscore.Internal_Hbond>
0.0000

> <Gold.Chemscore.DEClash>
0.1430

> <Gold.Chemscore.DEInternal>
0.4318

> <Gold.Chemscore.Rot>
2.4490

> <Gold.Chemscore.Internal.Correction>
   9.000000E+99

> <Gold.Chemscore.Hbonds>
donor molecule, donor type, donor heavy atom, donor atom, acceptor molecule, acceptor atom, score
      P1  H  6896  6907       L1    20  0.58
      P1  H  7989  7998       L1    13  1.00

> <Gold.Chemscore.Hbond.Weighted>
-5.6494

> <Gold.Chemscore.Metal.Weighted>
-0.0000

> <Gold.Chemscore.Lipo.Weighted>
-12.2428

> <Gold.Chemscore.Internal_Hbond.Weighted>
0.0000

> <Gold.Chemscore.DEClash.Weighted>
0.1430

> <Gold.Chemscore.DEInternal.Weighted>
0.4318

> <Gold.Chemscore.Rot.Weighted>
6.2694

> <Gold.Chemscore.Internal.Correction.Weighted>
   9.000000E+99

> <Gold.Protein.RotatedTorsions>
[ 6907 6896 6895 6894 ] final  -79.75 input  -60.11 | X-H torsion
[ 7974 7965 7964 7962 ] final  -80.60 input  175.53 | X-H torsion
[ 8008 7997 7996 7995 ] final  -45.36 input   59.86 | X-H torsion
[ 10167 10162 10161 10158 ] final  124.41 input  -65.29 | X-H torsion
[ 10718 10713 10712 10709 ] final  -80.03 input   66.30 | X-H torsion
[ 10763 10752 10751 10750 ] final  -63.74 input  -60.55 | X-H torsion
[ 11005 11000 10999 10996 ] final   50.75 input  -57.11 | X-H torsion

> <Gold.Protein.ActiveResidues>
 VAL166  LYS551  ARG553  GLY616  TRP617  ASP618  TYR619  PRO620  LYS621  CYS622 
 ASP623  PHE694  ASN695  SER759  ASP760  ASP761  ALA762  ILE779  LEU786  VAL792 
 PHE793  MET794  SER795  GLU796  ALA797  LYS798  CYS799  TRP800  GLU811  SER814 

> <Gold.Protein.RotatedAtoms>
  150.6943  134.4074  159.5145 H   0  0  0  0  0  0  0  0  0  0  0  0  # atno 6907 bound_to 6896
  152.1838  134.8729  160.0533 H   0  0  0  0  0  0  0  0  0  0  0  0  # atno 6908 bound_to 6896
  151.9710  133.3691  159.4108 H   0  0  0  0  0  0  0  0  0  0  0  0  # atno 6909 bound_to 6896
  145.5578  140.9487  143.1464 H   0  0  0  0  0  0  0  0  0  0  0  0  # atno 7974 bound_to 7965
  154.4000  140.1399  156.3835 H   0  0  0  0  0  0  0  0  0  0  0  0  # atno 8008 bound_to 7997
  155.7982  140.3477  155.5367 H   0  0  0  0  0  0  0  0  0  0  0  0  # atno 8009 bound_to 7997
  155.8511  140.0941  157.1665 H   0  0  0  0  0  0  0  0  0  0  0  0  # atno 8010 bound_to 7997
  139.5743  144.6955  151.3694 H   0  0  0  0  0  0  0  0  0  0  0  0  # atno 10167 bound_to 10162
  156.0079  130.4562  150.3738 H   0  0  0  0  0  0  0  0  0  0  0  0  # atno 10718 bound_to 10713
  154.3195  135.6199  153.5501 H   0  0  0  0  0  0  0  0  0  0  0  0  # atno 10763 bound_to 10752
  152.9821  135.5720  154.5085 H   0  0  0  0  0  0  0  0  0  0  0  0  # atno 10764 bound_to 10752
  154.4751  135.2861  155.1590 H   0  0  0  0  0  0  0  0  0  0  0  0  # atno 10765 bound_to 10752
  140.0991  134.5105  155.8779 H   0  0  0  0  0  0  0  0  0  0  0  0  # atno 11005 bound_to 11000
  144.7498  139.7225  143.7278 LP  0  0  0  0  0  0  0  0  0  0  0  0  # atno 17320 bound_to 7965
  146.1872  139.5094  142.9828 LP  0  0  0  0  0  0  0  0  0  0  0  0  # atno 17321 bound_to 7965
  140.7027  143.7592  150.7429 LP  0  0  0  0  0  0  0  0  0  0  0  0  # atno 17342 bound_to 10162
  140.1107  143.4701  152.2371 LP  0  0  0  0  0  0  0  0  0  0  0  0  # atno 17343 bound_to 10162
  157.1822  131.0395  151.2743 LP  0  0  0  0  0  0  0  0  0  0  0  0  # atno 17370 bound_to 10713
  157.4136  130.7398  149.6858 LP  0  0  0  0  0  0  0  0  0  0  0  0  # atno 17371 bound_to 10713
  141.2100  133.6690  156.6482 LP  0  0  0  0  0  0  0  0  0  0  0  0  # atno 17394 bound_to 11000
  140.3245  134.7980  157.4278 LP  0  0  0  0  0  0  0  0  0  0  0  0  # atno 17395 bound_to 11000

$$$$
