AV-unprocessed.smi:356|AV-procd|sdf|2409|dock3
  -GOLD-   2262022343D 1   1.00000     0.00000
 Structure written by MMmdl.
 41 43  0  0  0  0  0  0  0  0  1 V2000
  151.0124  145.2995  159.1545 C   0  0  0  0  0  0  0  0  0  0  0  0
  151.7512  144.1117  159.6844 C   0  0  0  0  0  0  0  0  0  0  0  0
  152.2701  144.0889  160.9125 N   0  0  0  0  0  0  0  0  0  0  0  0
  152.8475  142.8352  160.9741 C   0  0  0  0  0  0  0  0  0  0  0  0
  153.5597  142.2015  162.0175 C   0  0  0  0  0  0  0  0  0  0  0  0
  154.0651  140.8958  161.8466 C   0  0  0  0  0  0  0  0  0  0  0  0
  153.8666  140.2065  160.6328 C   0  0  0  0  0  0  0  0  0  0  0  0
  153.1598  140.8193  159.5803 C   0  0  0  0  0  0  0  0  0  0  0  0
  152.6574  142.1225  159.7562 C   0  0  0  0  0  0  0  0  0  0  0  0
  151.9364  142.9910  158.9433 N   0  0  0  0  0  0  0  0  0  0  0  0
  151.4927  142.7221  157.5819 C   0  0  0  0  0  0  0  0  0  0  0  0
  150.2474  141.8155  157.5320 C   0  0  1  0  0  0  0  0  0  0  0  0
  149.0824  142.6132  157.6070 O   0  0  0  0  0  0  0  0  0  0  0  0
  150.1968  140.9997  156.2251 C   0  0  0  0  0  0  0  0  0  0  0  0
  151.2920  140.0477  156.0302 N   0  0  0  0  0  0  0  0  0  0  0  0
  151.1699  139.2864  154.7878 C   0  0  0  0  0  0  0  0  0  0  0  0
  152.3147  138.2712  154.6215 C   0  0  0  0  0  0  0  0  0  0  0  0
  152.3548  137.4028  155.7488 O   0  0  0  0  0  0  0  0  0  0  0  0
  152.5211  138.1051  156.9759 C   0  0  0  0  0  0  0  0  0  0  0  0
  151.3728  139.1137  157.1487 C   0  0  0  0  0  0  0  0  0  0  0  0
  150.9113  146.0631  159.9264 H   0  0  0  0  0  0  0  0  0  0  0  0
  150.0136  145.0118  158.8265 H   0  0  0  0  0  0  0  0  0  0  0  0
  151.5513  145.7323  158.3115 H   0  0  0  0  0  0  0  0  0  0  0  0
  153.7171  142.7212  162.9510 H   0  0  0  0  0  0  0  0  0  0  0  0
  154.6081  140.4214  162.6508 H   0  0  0  0  0  0  0  0  0  0  0  0
  154.2569  139.2067  160.5102 H   0  0  0  0  0  0  0  0  0  0  0  0
  153.0048  140.2943  158.6496 H   0  0  0  0  0  0  0  0  0  0  0  0
  151.3040  143.6628  157.0646 H   0  0  0  0  0  0  0  0  0  0  0  0
  152.3176  142.2464  157.0500 H   0  0  0  0  0  0  0  0  0  0  0  0
  150.2683  141.1554  158.3983 H   0  0  0  0  0  0  0  0  0  0  0  0
  149.2563  143.4334  157.1698 H   0  0  0  0  0  0  0  0  0  0  0  0
  149.2470  140.4629  156.2026 H   0  0  0  0  0  0  0  0  0  0  0  0
  150.1670  141.6850  155.3766 H   0  0  0  0  0  0  0  0  0  0  0  0
  150.2151  138.7587  154.7688 H   0  0  0  0  0  0  0  0  0  0  0  0
  151.1758  139.9539  153.9274 H   0  0  0  0  0  0  0  0  0  0  0  0
  152.1671  137.6774  153.7193 H   0  0  0  0  0  0  0  0  0  0  0  0
  153.2723  138.7833  154.5152 H   0  0  0  0  0  0  0  0  0  0  0  0
  152.5258  137.3900  157.7986 H   0  0  0  0  0  0  0  0  0  0  0  0
  153.4869  138.6131  156.9859 H   0  0  0  0  0  0  0  0  0  0  0  0
  151.5154  139.6627  158.0802 H   0  0  0  0  0  0  0  0  0  0  0  0
  150.4305  138.5723  157.2477 H   0  0  0  0  0  0  0  0  0  0  0  0
  1  2  1  0  0  0  0
  1 21  1  0  0  0  0
  1 22  1  0  0  0  0
  1 23  1  0  0  0  0
  2 10  1  0  0  0  0
  2  3  2  0  0  0  0
  3  4  1  0  0  0  0
  4  9  2  0  0  0  0
  4  5  1  0  0  0  0
  5  6  2  0  0  0  0
  5 24  1  0  0  0  0
  6  7  1  0  0  0  0
  6 25  1  0  0  0  0
  7  8  2  0  0  0  0
  7 26  1  0  0  0  0
  8  9  1  0  0  0  0
  8 27  1  0  0  0  0
  9 10  1  0  0  0  0
 10 11  1  0  0  0  0
 11 12  1  0  0  0  0
 11 28  1  0  0  0  0
 11 29  1  0  0  0  0
 12 13  1  0  0  0  0
 12 14  1  0  0  0  0
 12 30  1  0  0  0  0
 13 31  1  0  0  0  0
 14 15  1  0  0  0  0
 14 32  1  0  0  0  0
 14 33  1  0  0  0  0
 15 20  1  0  0  0  0
 15 16  1  0  0  0  0
 16 17  1  0  0  0  0
 16 34  1  0  0  0  0
 16 35  1  0  0  0  0
 17 18  1  0  0  0  0
 17 36  1  0  0  0  0
 17 37  1  0  0  0  0
 18 19  1  0  0  0  0
 19 20  1  0  0  0  0
 19 38  1  0  0  0  0
 19 39  1  0  0  0  0
 20 40  1  0  0  0  0
 20 41  1  0  0  0  0
M  END
> <s_m_source_file>
AV-unprocessed.smi

> <i_m_source_file_index>
356

> <i_lp_mmshare_version>
43012

> <i_f3d_flags>
0

> <s_epik_input>
W2NIXTFbY0hdW2NIXVtjSF1jKGMxMiluKGMobjIpW0NIM10pW0NIMl1bQ0BIXShbT0hdKVtDSDJdTjNbQ0gyXVtDSDJdT1tDSDJdW0NIMl0z

> <s_epik_cmdline>
J2VwaWtfcHl0aG9uJywgJy1waCcsICc3LjAnLCAnLXRuJywgJzgnLCAnLW1hJywgJzIwMCcsICctbWV0YWxfYmluZGluZycsICctaW1hZScsICc8aW5maWxlLm1hZT4nLCAnLW9tYWUnLCAnPG91dGZpbGUubWFlPic=

> <r_epik_Ionization_Penalty>
0.355661

> <r_epik_Ionization_Penalty_Charging>
0

> <r_epik_Ionization_Penalty_Neutral>
0.355661

> <r_epik_State_Penalty>
0.325123

> <r_epik_Charging_Adjusted_Penalty>
0.325123

> <i_epik_Tot_Q>
0

> <i_epik_Tot_abs_Q>
0

> <r_epik_Metal_State_Penalty>
0.239925

> <b_epik_Metal_Only>
0

> <s_lp_Force_Field>
OPLS_2005

> <r_lp_Energy>
29.7319

> <b_lp_Chiralities_Consistent>
1

> <s_lp_Variant>
AV-unprocessed.smi:356-2

> <Gold.Version>
5.8.1

> <Gold.Id.Protein>
6NUR|6NUR_protein|mol2

> <Gold.PLP.Fitness>
49.2470

> <Gold.PLP.PLP>
-46.0654

> <Gold.PLP.part.hbond>
-2.0000

> <Gold.PLP.part.metal>
0.0000

> <Gold.PLP.part.buried>
-5.6069

> <Gold.PLP.part.nonpolar>
-39.1796

> <Gold.PLP.part.repulsive>
0.1240

> <Gold.PLP.ligand.clash>
0.0000

> <Gold.PLP.ligand.torsion>
0.5887

> <Gold.PLP.Chemscore.Hbond>
1.4472

> <Gold.PLP.Chemscore.CHOScore>
0.0000

> <Gold.PLP.Chemscore.Metal>
0.0000

> <Gold.Chemscore.Hbonds>
donor molecule, donor type, donor heavy atom, donor atom, acceptor molecule, acceptor atom, score
      L1  H    13    31       P1  8028  1.00
      P1  H 10752 10763       L1    18  0.50

> <Gold.PLP.Chemscore.Internal.Correction>
0.0174

> <Gold.Rescore>
     Score         DG    S(hbond)    S(metal)    S(lipo)     H(rot)  DE(clash)    DE(int)     intcor
     18.21     -18.66       1.35        0.00     117.69       1.99       0.04       0.41       ----

> <Gold.Chemscore.Fitness>
18.2103

> <Gold.Chemscore.DG>
-18.6580

> <Gold.Chemscore.ZeroCoef>
-5.4800

> <Gold.Chemscore.Hbond>
1.3453

> <Gold.Chemscore.Metal>
0.0000

> <Gold.Chemscore.Lipo>
117.6912

> <Gold.Chemscore.Internal_Hbond>
0.0000

> <Gold.Chemscore.DEClash>
0.0353

> <Gold.Chemscore.DEInternal>
0.4124

> <Gold.Chemscore.Rot>
1.9863

> <Gold.Chemscore.Internal.Correction>
   9.000000E+99

> <Gold.Chemscore.Hbonds>
donor molecule, donor type, donor heavy atom, donor atom, acceptor molecule, acceptor atom, score
      L1  H    13    31       P1  8028  0.67
      P1  H 10752 10763       L1    18  0.18

> <Gold.Chemscore.Hbond.Weighted>
-4.4932

> <Gold.Chemscore.Metal.Weighted>
-0.0000

> <Gold.Chemscore.Lipo.Weighted>
-13.7699

> <Gold.Chemscore.Internal_Hbond.Weighted>
0.0000

> <Gold.Chemscore.DEClash.Weighted>
0.0353

> <Gold.Chemscore.DEInternal.Weighted>
0.4124

> <Gold.Chemscore.Rot.Weighted>
5.0850

> <Gold.Chemscore.Internal.Correction.Weighted>
   9.000000E+99

> <Gold.Protein.RotatedTorsions>
[ 6907 6896 6895 6894 ] final -105.20 input  -60.11 | X-H torsion
[ 7974 7965 7964 7962 ] final   66.78 input  175.53 | X-H torsion
[ 8008 7997 7996 7995 ] final   58.35 input   59.86 | X-H torsion
[ 10167 10162 10161 10158 ] final   83.76 input  -65.29 | X-H torsion
[ 10718 10713 10712 10709 ] final -150.44 input   66.30 | X-H torsion
[ 10763 10752 10751 10750 ] final   77.00 input  -60.55 | X-H torsion
[ 11005 11000 10999 10996 ] final   45.45 input  -57.11 | X-H torsion

> <Gold.Protein.ActiveResidues>
 VAL166  LYS551  ARG553  GLY616  TRP617  ASP618  TYR619  PRO620  LYS621  CYS622 
 ASP623  PHE694  ASN695  SER759  ASP760  ASP761  ALA762  ILE779  LEU786  VAL792 
 PHE793  MET794  SER795  GLU796  ALA797  LYS798  CYS799  TRP800  GLU811  SER814 

> <Gold.Protein.RotatedAtoms>
  150.7325  134.0163  159.3686 H   0  0  0  0  0  0  0  0  0  0  0  0  # atno 6907 bound_to 6896
  151.8125  135.0674  160.0424 H   0  0  0  0  0  0  0  0  0  0  0  0  # atno 6908 bound_to 6896
  152.3062  133.5669  159.5687 H   0  0  0  0  0  0  0  0  0  0  0  0  # atno 6909 bound_to 6896
  145.8225  139.3093  143.1035 H   0  0  0  0  0  0  0  0  0  0  0  0  # atno 7974 bound_to 7965
  155.5486  140.3486  155.4463 H   0  0  0  0  0  0  0  0  0  0  0  0  # atno 8008 bound_to 7997
  156.0599  140.1338  156.9979 H   0  0  0  0  0  0  0  0  0  0  0  0  # atno 8009 bound_to 7997
  154.4475  140.0987  156.6487 H   0  0  0  0  0  0  0  0  0  0  0  0  # atno 8010 bound_to 7997
  139.9150  144.6248  150.8498 H   0  0  0  0  0  0  0  0  0  0  0  0  # atno 10167 bound_to 10162
  156.4461  130.8145  151.2376 H   0  0  0  0  0  0  0  0  0  0  0  0  # atno 10718 bound_to 10713
  153.0766  135.4930  154.8417 H   0  0  0  0  0  0  0  0  0  0  0  0  # atno 10763 bound_to 10752
  154.7096  135.3017  154.9220 H   0  0  0  0  0  0  0  0  0  0  0  0  # atno 10764 bound_to 10752
  153.9918  135.6777  153.4807 H   0  0  0  0  0  0  0  0  0  0  0  0  # atno 10765 bound_to 10752
  140.1458  134.4524  155.8416 H   0  0  0  0  0  0  0  0  0  0  0  0  # atno 11005 bound_to 11000
  145.9659  140.8798  143.0187 LP  0  0  0  0  0  0  0  0  0  0  0  0  # atno 17320 bound_to 7965
  144.6746  140.1878  143.7399 LP  0  0  0  0  0  0  0  0  0  0  0  0  # atno 17321 bound_to 7965
  140.7676  143.3338  151.2353 LP  0  0  0  0  0  0  0  0  0  0  0  0  # atno 17342 bound_to 10162
  139.6910  143.9693  152.2859 LP  0  0  0  0  0  0  0  0  0  0  0  0  # atno 17343 bound_to 10162
  157.7504  131.0153  150.3497 LP  0  0  0  0  0  0  0  0  0  0  0  0  # atno 17370 bound_to 10713
  156.3865  130.3890  149.7062 LP  0  0  0  0  0  0  0  0  0  0  0  0  # atno 17371 bound_to 10713
  141.2192  133.6852  156.7332 LP  0  0  0  0  0  0  0  0  0  0  0  0  # atno 17394 bound_to 11000
  140.2665  134.8426  157.3807 LP  0  0  0  0  0  0  0  0  0  0  0  0  # atno 17395 bound_to 11000

$$$$
