AV-unprocessed.smi:2902|AV-procd|sdf|11151|dock1
  -GOLD-   2272016 33D 1   1.00000     0.00000
 Structure written by MMmdl.
 47 48  0  0  0  0  0  0  0  0  1 V2000
  153.3163  137.1949  157.0142 C   0  0  0  0  0  0  0  0  0  0  0  0
  154.0919  137.7907  158.1957 C   0  0  0  0  0  0  0  0  0  0  0  0
  153.2494  138.7803  159.0223 C   0  0  2  0  0  0  0  0  0  0  0  0
  153.0148  139.9348  158.2130 O   0  0  0  0  0  0  0  0  0  0  0  0
  152.1108  140.9148  158.7199 C   0  0  0  0  0  0  0  0  0  0  0  0
  151.1956  141.5219  157.6525 C   0  0  0  0  0  0  0  0  0  0  0  0
  150.7845  142.8860  158.2182 C   0  0  0  0  0  0  0  0  0  0  0  0
  151.8570  143.2646  159.2523 C   0  0  0  0  0  0  0  0  0  0  0  0
  152.8819  142.1254  159.2413 C   0  0  0  0  0  0  0  0  0  0  0  0
  153.9628  139.1733  160.3264 C   0  0  0  0  0  0  0  0  0  0  0  0
  153.5496  138.7637  161.4113 O   0  0  0  0  0  0  0  0  0  0  0  0
  155.0492  139.9505  160.1946 N   0  0  0  0  0  0  0  0  0  0  0  0
  155.9235  140.3851  161.2813 C   0  0  2  0  0  0  0  0  0  0  0  0
  156.8435  139.2211  161.6975 C   0  0  0  0  0  0  0  0  0  0  0  0
  155.0746  140.9451  162.4515 C   0  0  2  0  0  0  0  0  0  0  0  0
  154.1249  142.0795  162.0220 C   0  0  0  0  0  0  0  0  0  0  0  0
  155.9119  141.3920  163.5559 N   0  0  0  0  0  0  0  0  0  0  0  0
  157.2407  141.4390  163.6796 C   0  0  0  0  0  0  0  0  0  0  0  0
  157.6550  141.9160  164.8449 N   0  0  0  0  0  0  0  0  0  0  0  0
  156.4466  142.1647  165.4313 C   0  0  0  0  0  0  0  0  0  0  0  0
  155.3707  141.8711  164.7011 N   0  0  0  0  0  0  0  0  0  0  0  0
  153.9393  136.4975  156.4541 H   0  0  0  0  0  0  0  0  0  0  0  0
  152.9861  137.9725  156.3249 H   0  0  0  0  0  0  0  0  0  0  0  0
  152.4343  136.6527  157.3557 H   0  0  0  0  0  0  0  0  0  0  0  0
  154.4336  136.9741  158.8334 H   0  0  0  0  0  0  0  0  0  0  0  0
  154.9900  138.2855  157.8235 H   0  0  0  0  0  0  0  0  0  0  0  0
  152.3012  138.2983  159.2654 H   0  0  0  0  0  0  0  0  0  0  0  0
  151.5122  140.5180  159.5406 H   0  0  0  0  0  0  0  0  0  0  0  0
  151.7571  141.6665  156.7283 H   0  0  0  0  0  0  0  0  0  0  0  0
  150.3364  140.8909  157.4233 H   0  0  0  0  0  0  0  0  0  0  0  0
  150.6983  143.6326  157.4284 H   0  0  0  0  0  0  0  0  0  0  0  0
  149.8118  142.8135  158.7062 H   0  0  0  0  0  0  0  0  0  0  0  0
  152.3236  144.2239  159.0268 H   0  0  0  0  0  0  0  0  0  0  0  0
  151.4016  143.3476  160.2399 H   0  0  0  0  0  0  0  0  0  0  0  0
  153.3265  141.9497  160.2211 H   0  0  0  0  0  0  0  0  0  0  0  0
  153.6901  142.3714  158.5511 H   0  0  0  0  0  0  0  0  0  0  0  0
  155.3100  140.2375  159.2624 H   0  0  0  0  0  0  0  0  0  0  0  0
  156.5567  141.1958  160.9155 H   0  0  0  0  0  0  0  0  0  0  0  0
  157.5690  139.5284  162.4506 H   0  0  0  0  0  0  0  0  0  0  0  0
  157.4095  138.8423  160.8458 H   0  0  0  0  0  0  0  0  0  0  0  0
  156.2681  138.3914  162.1092 H   0  0  0  0  0  0  0  0  0  0  0  0
  154.4515  140.1311  162.8275 H   0  0  0  0  0  0  0  0  0  0  0  0
  153.3861  141.7337  161.2994 H   0  0  0  0  0  0  0  0  0  0  0  0
  154.6720  142.9067  161.5688 H   0  0  0  0  0  0  0  0  0  0  0  0
  153.5750  142.4734  162.8774 H   0  0  0  0  0  0  0  0  0  0  0  0
  157.9175  141.1167  162.9022 H   0  0  0  0  0  0  0  0  0  0  0  0
  156.3574  142.5759  166.4260 H   0  0  0  0  0  0  0  0  0  0  0  0
  1  2  1  0  0  0  0
  1 22  1  0  0  0  0
  1 23  1  0  0  0  0
  1 24  1  0  0  0  0
  2  3  1  0  0  0  0
  2 25  1  0  0  0  0
  2 26  1  0  0  0  0
  3  4  1  0  0  0  0
  3 10  1  0  0  0  0
  3 27  1  0  0  0  0
  4  5  1  0  0  0  0
  5  9  1  0  0  0  0
  5  6  1  0  0  0  0
  5 28  1  0  0  0  0
  6  7  1  0  0  0  0
  6 29  1  0  0  0  0
  6 30  1  0  0  0  0
  7  8  1  0  0  0  0
  7 31  1  0  0  0  0
  7 32  1  0  0  0  0
  8  9  1  0  0  0  0
  8 33  1  0  0  0  0
  8 34  1  0  0  0  0
  9 35  1  0  0  0  0
  9 36  1  0  0  0  0
 10 11  2  0  0  0  0
 10 12  1  0  0  0  0
 12 13  1  0  0  0  0
 12 37  1  0  0  0  0
 13 14  1  0  0  0  0
 13 15  1  0  0  0  0
 13 38  1  0  0  0  0
 14 39  1  0  0  0  0
 14 40  1  0  0  0  0
 14 41  1  0  0  0  0
 15 16  1  0  0  0  0
 15 17  1  0  0  0  0
 15 42  1  0  0  0  0
 16 43  1  0  0  0  0
 16 44  1  0  0  0  0
 16 45  1  0  0  0  0
 17 21  1  0  0  0  0
 17 18  1  0  0  0  0
 18 19  2  0  0  0  0
 18 46  1  0  0  0  0
 19 20  1  0  0  0  0
 20 21  2  0  0  0  0
 20 47  1  0  0  0  0
M  END
> <s_m_source_file>
AV-unprocessed.smi

> <i_m_source_file_index>
2902

> <i_lp_mmshare_version>
43012

> <i_f3d_flags>
0

> <s_epik_input>
W0NIMl0xW0NIMl1bQ0gyXVtDSDJdW0NIXTFPW0NAQEhdKFtDSDJdW0NIM10pQyg9TylbTkhdW0NASF0oW0NIM10pW0NASF0oW0NIM10pbjJbY0hdbltjSF1uMg==

> <s_epik_cmdline>
J2VwaWtfcHl0aG9uJywgJy1waCcsICc3LjAnLCAnLXRuJywgJzgnLCAnLW1hJywgJzIwMCcsICctbWV0YWxfYmluZGluZycsICctaW1hZScsICc8aW5maWxlLm1hZT4nLCAnLW9tYWUnLCAnPG91dGZpbGUubWFlPic=

> <r_lp_tautomer_probability>
1

> <r_epik_Ionization_Penalty>
6.95617e-05

> <r_epik_Ionization_Penalty_Charging>
0

> <r_epik_Ionization_Penalty_Neutral>
6.95617e-05

> <r_epik_State_Penalty>
-0

> <r_epik_Charging_Adjusted_Penalty>
0

> <i_epik_Tot_Q>
0

> <i_epik_Tot_abs_Q>
0

> <r_epik_Metal_State_Penalty>
-0

> <b_epik_Metal_Only>
0

> <s_lp_Force_Field>
OPLS_2005

> <r_lp_Energy>
29.4531

> <b_lp_Chiralities_Consistent>
1

> <s_lp_Variant>
AV-unprocessed.smi:2902-1

> <Gold.Version>
5.8.1

> <Gold.Id.Protein>
6NUR|6NUR_protein|mol2

> <Gold.PLP.Fitness>
39.9245

> <Gold.PLP.PLP>
-35.5136

> <Gold.PLP.part.hbond>
-2.0000

> <Gold.PLP.part.metal>
0.0000

> <Gold.PLP.part.buried>
-3.0616

> <Gold.PLP.part.nonpolar>
-30.0150

> <Gold.PLP.part.repulsive>
0.1436

> <Gold.PLP.ligand.clash>
0.0000

> <Gold.PLP.ligand.torsion>
1.0759

> <Gold.PLP.Chemscore.Hbond>
2.0000

> <Gold.PLP.Chemscore.CHOScore>
0.0000

> <Gold.PLP.Chemscore.Metal>
0.0000

> <Gold.Chemscore.Hbonds>
donor molecule, donor type, donor heavy atom, donor atom, acceptor molecule, acceptor atom, score
      P1  H  7997  8010       L1     4  0.94

> <Gold.PLP.Chemscore.Internal.Correction>
0.5627

> <Gold.Rescore>
     Score         DG    S(hbond)    S(metal)    S(lipo)     H(rot)  DE(clash)    DE(int)     intcor
     12.25     -14.42       1.91        0.00      80.84       2.69       0.10       2.07       ----

> <Gold.Chemscore.Fitness>
12.2523

> <Gold.Chemscore.DG>
-14.4173

> <Gold.Chemscore.ZeroCoef>
-5.4800

> <Gold.Chemscore.Hbond>
1.9086

> <Gold.Chemscore.Metal>
0.0000

> <Gold.Chemscore.Lipo>
80.8378

> <Gold.Chemscore.Internal_Hbond>
0.0000

> <Gold.Chemscore.DEClash>
0.0990

> <Gold.Chemscore.DEInternal>
2.0661

> <Gold.Chemscore.Rot>
2.6935

> <Gold.Chemscore.Internal.Correction>
   9.000000E+99

> <Gold.Chemscore.Hbonds>
donor molecule, donor type, donor heavy atom, donor atom, acceptor molecule, acceptor atom, score
      P1  H  7997  8010       L1     4  0.26

> <Gold.Chemscore.Hbond.Weighted>
-6.3746

> <Gold.Chemscore.Metal.Weighted>
-0.0000

> <Gold.Chemscore.Lipo.Weighted>
-9.4580

> <Gold.Chemscore.Internal_Hbond.Weighted>
0.0000

> <Gold.Chemscore.DEClash.Weighted>
0.0990

> <Gold.Chemscore.DEInternal.Weighted>
2.0661

> <Gold.Chemscore.Rot.Weighted>
6.8954

> <Gold.Chemscore.Internal.Correction.Weighted>
   9.000000E+99

> <Gold.Protein.RotatedTorsions>
[ 6907 6896 6895 6894 ] final    3.55 input  -60.11 | X-H torsion
[ 7974 7965 7964 7962 ] final  -84.35 input  175.53 | X-H torsion
[ 8008 7997 7996 7995 ] final   22.35 input   59.86 | X-H torsion
[ 10167 10162 10161 10158 ] final -156.61 input  -65.29 | X-H torsion
[ 10718 10713 10712 10709 ] final   98.45 input   66.30 | X-H torsion
[ 10763 10752 10751 10750 ] final   66.51 input  -60.55 | X-H torsion
[ 11005 11000 10999 10996 ] final   64.01 input  -57.11 | X-H torsion

> <Gold.Protein.ActiveResidues>
 VAL166  LYS551  ARG553  GLY616  TRP617  ASP618  TYR619  PRO620  LYS621  CYS622 
 ASP623  PHE694  ASN695  SER759  ASP760  ASP761  ALA762  ILE779  LEU786  VAL792 
 PHE793  MET794  SER795  GLU796  ALA797  LYS798  CYS799  TRP800  GLU811  SER814 

> <Gold.Protein.RotatedAtoms>
  151.6268  135.1027  160.0113 H   0  0  0  0  0  0  0  0  0  0  0  0  # atno 6907 bound_to 6896
  152.4128  133.6986  159.6421 H   0  0  0  0  0  0  0  0  0  0  0  0  # atno 6908 bound_to 6896
  150.8017  133.8511  159.3246 H   0  0  0  0  0  0  0  0  0  0  0  0  # atno 6909 bound_to 6896
  145.5078  140.9542  143.1724 H   0  0  0  0  0  0  0  0  0  0  0  0  # atno 7974 bound_to 7965
  154.9643  140.3082  155.5016 H   0  0  0  0  0  0  0  0  0  0  0  0  # atno 8008 bound_to 7997
  156.2973  140.2295  156.4670 H   0  0  0  0  0  0  0  0  0  0  0  0  # atno 8009 bound_to 7997
  154.7935  140.0438  157.1207 H   0  0  0  0  0  0  0  0  0  0  0  0  # atno 8010 bound_to 7997
  139.6837  143.9538  152.2350 H   0  0  0  0  0  0  0  0  0  0  0  0  # atno 10167 bound_to 10162
  157.6895  131.0640  150.4798 H   0  0  0  0  0  0  0  0  0  0  0  0  # atno 10718 bound_to 10713
  153.0143  135.5318  154.6835 H   0  0  0  0  0  0  0  0  0  0  0  0  # atno 10763 bound_to 10752
  154.5989  135.2866  155.0559 H   0  0  0  0  0  0  0  0  0  0  0  0  # atno 10764 bound_to 10752
  154.1623  135.6545  153.5041 H   0  0  0  0  0  0  0  0  0  0  0  0  # atno 10765 bound_to 10752
  139.9987  134.6476  155.9967 H   0  0  0  0  0  0  0  0  0  0  0  0  # atno 11005 bound_to 11000
  144.7744  139.6663  143.7181 LP  0  0  0  0  0  0  0  0  0  0  0  0  # atno 17320 bound_to 7965
  146.2186  139.5594  142.9634 LP  0  0  0  0  0  0  0  0  0  0  0  0  # atno 17321 bound_to 7965
  139.9335  144.6726  150.8338 LP  0  0  0  0  0  0  0  0  0  0  0  0  # atno 17342 bound_to 10162
  140.7660  143.3292  151.2447 LP  0  0  0  0  0  0  0  0  0  0  0  0  # atno 17343 bound_to 10162
  156.5130  130.4144  149.6291 LP  0  0  0  0  0  0  0  0  0  0  0  0  # atno 17370 bound_to 10713
  156.3223  130.7287  151.2201 LP  0  0  0  0  0  0  0  0  0  0  0  0  # atno 17371 bound_to 10713
  141.1625  133.6538  156.4366 LP  0  0  0  0  0  0  0  0  0  0  0  0  # atno 17394 bound_to 11000
  140.4769  134.6701  157.5154 LP  0  0  0  0  0  0  0  0  0  0  0  0  # atno 17395 bound_to 11000

$$$$
