AV-unprocessed.smi:356|AV-procd|sdf|2413|dock3
  -GOLD-   2262022343D 1   1.00000     0.00000
 Structure written by MMmdl.
 42 44  0  0  0  0  0  0  0  0  2 V2000
  149.4251  141.0310  154.9978 C   0  0  0  0  0  0  0  0  0  0  0  0
  150.1093  141.6630  156.1631 C   0  0  0  0  0  0  0  0  0  0  0  0
  149.9591  142.9528  156.5779 N   0  3  0  0  0  0  0  0  0  0  0  0
  150.7579  143.1842  157.6990 C   0  0  0  0  0  0  0  0  0  0  0  0
  150.9411  144.3295  158.4680 C   0  0  0  0  0  0  0  0  0  0  0  0
  151.8353  144.2260  159.5540 C   0  0  0  0  0  0  0  0  0  0  0  0
  152.5067  143.0194  159.8404 C   0  0  0  0  0  0  0  0  0  0  0  0
  152.3132  141.8650  159.0533 C   0  0  0  0  0  0  0  0  0  0  0  0
  151.4273  141.9762  157.9823 C   0  0  0  0  0  0  0  0  0  0  0  0
  150.9956  141.0669  157.0112 N   0  0  0  0  0  0  0  0  0  0  0  0
  151.5140  139.6904  157.0342 C   0  0  0  0  0  0  0  0  0  0  0  0
  151.7697  139.1210  155.6248 C   0  0  1  0  0  0  0  0  0  0  0  0
  152.7627  139.8968  154.9837 O   0  0  0  0  0  0  0  0  0  0  0  0
  152.2549  137.6595  155.6879 C   0  0  0  0  0  0  0  0  0  0  0  0
  151.2873  136.6938  156.2128 N   0  0  0  0  0  0  0  0  0  0  0  0
  151.1252  136.7813  157.6634 C   0  0  0  0  0  0  0  0  0  0  0  0
  150.1296  135.7350  158.1949 C   0  0  0  0  0  0  0  0  0  0  0  0
  150.5517  134.4313  157.8091 O   0  0  0  0  0  0  0  0  0  0  0  0
  150.6748  134.2909  156.3978 C   0  0  0  0  0  0  0  0  0  0  0  0
  151.6748  135.3306  155.8638 C   0  0  0  0  0  0  0  0  0  0  0  0
  148.7527  141.7411  154.5160 H   0  0  0  0  0  0  0  0  0  0  0  0
  148.8428  140.1692  155.3240 H   0  0  0  0  0  0  0  0  0  0  0  0
  150.1604  140.6975  154.2653 H   0  0  0  0  0  0  0  0  0  0  0  0
  150.4280  145.2548  158.2507 H   0  0  0  0  0  0  0  0  0  0  0  0
  152.0097  145.0892  160.1799 H   0  0  0  0  0  0  0  0  0  0  0  0
  153.1842  142.9784  160.6810 H   0  0  0  0  0  0  0  0  0  0  0  0
  152.8315  140.9450  159.2805 H   0  0  0  0  0  0  0  0  0  0  0  0
  152.4373  139.6933  157.6148 H   0  0  0  0  0  0  0  0  0  0  0  0
  150.8090  139.0664  157.5849 H   0  0  0  0  0  0  0  0  0  0  0  0
  150.8495  139.1973  155.0477 H   0  0  0  0  0  0  0  0  0  0  0  0
  153.1956  139.3526  154.3431 H   0  0  0  0  0  0  0  0  0  0  0  0
  152.5496  137.3606  154.6806 H   0  0  0  0  0  0  0  0  0  0  0  0
  153.1655  137.6113  156.2871 H   0  0  0  0  0  0  0  0  0  0  0  0
  152.0900  136.6413  158.1531 H   0  0  0  0  0  0  0  0  0  0  0  0
  150.7691  137.7699  157.9494 H   0  0  0  0  0  0  0  0  0  0  0  0
  150.0726  135.7838  159.2824 H   0  0  0  0  0  0  0  0  0  0  0  0
  149.1259  135.9275  157.8126 H   0  0  0  0  0  0  0  0  0  0  0  0
  151.0176  133.2818  156.1683 H   0  0  0  0  0  0  0  0  0  0  0  0
  149.6992  134.4142  155.9252 H   0  0  0  0  0  0  0  0  0  0  0  0
  151.7480  135.2323  154.7802 H   0  0  0  0  0  0  0  0  0  0  0  0
  152.6666  135.1139  156.2639 H   0  0  0  0  0  0  0  0  0  0  0  0
  149.3522  143.6240  156.1251 H   0  0  0  0  0  0  0  0  0  0  0  0
  1  2  1  0  0  0  0
  1 21  1  0  0  0  0
  1 22  1  0  0  0  0
  1 23  1  0  0  0  0
  2 10  1  0  0  0  0
  2  3  2  0  0  0  0
  3  4  1  0  0  0  0
  3 42  1  0  0  0  0
  4  9  2  0  0  0  0
  4  5  1  0  0  0  0
  5  6  2  0  0  0  0
  5 24  1  0  0  0  0
  6  7  1  0  0  0  0
  6 25  1  0  0  0  0
  7  8  2  0  0  0  0
  7 26  1  0  0  0  0
  8  9  1  0  0  0  0
  8 27  1  0  0  0  0
  9 10  1  0  0  0  0
 10 11  1  0  0  0  0
 11 12  1  0  0  0  0
 11 28  1  0  0  0  0
 11 29  1  0  0  0  0
 12 13  1  0  0  0  0
 12 14  1  0  0  0  0
 12 30  1  0  0  0  0
 13 31  1  0  0  0  0
 14 15  1  0  0  0  0
 14 32  1  0  0  0  0
 14 33  1  0  0  0  0
 15 20  1  0  0  0  0
 15 16  1  0  0  0  0
 16 17  1  0  0  0  0
 16 34  1  0  0  0  0
 16 35  1  0  0  0  0
 17 18  1  0  0  0  0
 17 36  1  0  0  0  0
 17 37  1  0  0  0  0
 18 19  1  0  0  0  0
 19 20  1  0  0  0  0
 19 38  1  0  0  0  0
 19 39  1  0  0  0  0
 20 40  1  0  0  0  0
 20 41  1  0  0  0  0
M  CHG  1   3   1
M  END
> <s_m_source_file>
AV-unprocessed.smi

> <i_m_source_file_index>
356

> <i_lp_mmshare_version>
43012

> <i_f3d_flags>
0

> <s_epik_input>
W2NIXTFbY0hdW2NIXVtjSF1jKGMxMiluKGMobjIpW0NIM10pW0NIMl1bQ0BIXShbT0hdKVtDSDJdTjNbQ0gyXVtDSDJdT1tDSDJdW0NIMl0z

> <s_epik_cmdline>
J2VwaWtfcHl0aG9uJywgJy1waCcsICc3LjAnLCAnLXRuJywgJzgnLCAnLW1hJywgJzIwMCcsICctbWV0YWxfYmluZGluZycsICctaW1hZScsICc8aW5maWxlLm1hZT4nLCAnLW9tYWUnLCAnPG91dGZpbGUubWFlPic=

> <r_epik_Ionization_Penalty>
1.35865

> <r_epik_Ionization_Penalty_Charging>
1.14429

> <r_epik_Ionization_Penalty_Neutral>
0.214359

> <r_epik_State_Penalty>
1.39809

> <r_epik_Charging_Adjusted_Penalty>
2.54238

> <i_epik_Tot_Q>
1

> <i_epik_Tot_abs_Q>
1

> <r_epik_Metal_State_Penalty>
5.40564

> <b_epik_Metal_Only>
0

> <s_lp_Force_Field>
OPLS_2005

> <r_lp_Energy>
32.3817

> <b_lp_Chiralities_Consistent>
1

> <s_lp_Variant>
AV-unprocessed.smi:356-6

> <Gold.Version>
5.8.1

> <Gold.Id.Protein>
6NUR|6NUR_protein|mol2

> <Gold.PLP.Fitness>
52.0874

> <Gold.PLP.PLP>
-40.4147

> <Gold.PLP.part.hbond>
-3.8925

> <Gold.PLP.part.metal>
0.0000

> <Gold.PLP.part.buried>
-5.2017

> <Gold.PLP.part.nonpolar>
-31.3245

> <Gold.PLP.part.repulsive>
0.0871

> <Gold.PLP.ligand.clash>
0.0000

> <Gold.PLP.ligand.torsion>
0.4530

> <Gold.PLP.Chemscore.Hbond>
4.1784

> <Gold.PLP.Chemscore.CHOScore>
0.0000

> <Gold.PLP.Chemscore.Metal>
0.0000

> <Gold.Chemscore.Hbonds>
donor molecule, donor type, donor heavy atom, donor atom, acceptor molecule, acceptor atom, score
      L1  H     3    42       P1  8028  0.75
      P1  H  6896  6909       L1    18  0.32
      P1  H  7989  7998       L1    13  0.24
      P1  H  7997  8010       L1    13  0.65

> <Gold.PLP.Chemscore.Internal.Correction>
0.0435

> <Gold.Rescore>
     Score         DG    S(hbond)    S(metal)    S(lipo)     H(rot)  DE(clash)    DE(int)     intcor
     18.01     -20.64       2.38        0.00     106.63       2.05       0.06       2.57       ----

> <Gold.Chemscore.Fitness>
18.0078

> <Gold.Chemscore.DG>
-20.6371

> <Gold.Chemscore.ZeroCoef>
-5.4800

> <Gold.Chemscore.Hbond>
2.3771

> <Gold.Chemscore.Metal>
0.0000

> <Gold.Chemscore.Lipo>
106.6279

> <Gold.Chemscore.Internal_Hbond>
0.0000

> <Gold.Chemscore.DEClash>
0.0598

> <Gold.Chemscore.DEInternal>
2.5695

> <Gold.Chemscore.Rot>
2.0539

> <Gold.Chemscore.Internal.Correction>
   9.000000E+99

> <Gold.Chemscore.Hbonds>
donor molecule, donor type, donor heavy atom, donor atom, acceptor molecule, acceptor atom, score
      L1  H     3    42       P1  8028  0.37
      P1  H  6896  6909       L1    18  0.02
      P1  H  7989  7998       L1    13  0.01
      P1  H  7997  8010       L1    13  0.05

> <Gold.Chemscore.Hbond.Weighted>
-7.9395

> <Gold.Chemscore.Metal.Weighted>
-0.0000

> <Gold.Chemscore.Lipo.Weighted>
-12.4755

> <Gold.Chemscore.Internal_Hbond.Weighted>
0.0000

> <Gold.Chemscore.DEClash.Weighted>
0.0598

> <Gold.Chemscore.DEInternal.Weighted>
2.5695

> <Gold.Chemscore.Rot.Weighted>
5.2579

> <Gold.Chemscore.Internal.Correction.Weighted>
   9.000000E+99

> <Gold.Protein.RotatedTorsions>
[ 6907 6896 6895 6894 ] final   14.01 input  -60.11 | X-H torsion
[ 7974 7965 7964 7962 ] final   33.03 input  175.53 | X-H torsion
[ 8008 7997 7996 7995 ] final   97.12 input   59.86 | X-H torsion
[ 10167 10162 10161 10158 ] final   68.63 input  -65.29 | X-H torsion
[ 10718 10713 10712 10709 ] final  170.59 input   66.30 | X-H torsion
[ 10763 10752 10751 10750 ] final  -14.50 input  -60.55 | X-H torsion
[ 11005 11000 10999 10996 ] final  156.48 input  -57.11 | X-H torsion

> <Gold.Protein.ActiveResidues>
 VAL166  LYS551  ARG553  GLY616  TRP617  ASP618  TYR619  PRO620  LYS621  CYS622 
 ASP623  PHE694  ASN695  SER759  ASP760  ASP761  ALA762  ILE779  LEU786  VAL792 
 PHE793  MET794  SER795  GLU796  ALA797  LYS798  CYS799  TRP800  GLU811  SER814 

> <Gold.Protein.RotatedAtoms>
  151.7954  135.0724  160.0392 H   0  0  0  0  0  0  0  0  0  0  0  0  # atno 6907 bound_to 6896
  152.3127  133.5765  159.5700 H   0  0  0  0  0  0  0  0  0  0  0  0  # atno 6908 bound_to 6896
  150.7328  134.0045  159.3691 H   0  0  0  0  0  0  0  0  0  0  0  0  # atno 6909 bound_to 6896
  146.1448  139.6450  142.9139 H   0  0  0  0  0  0  0  0  0  0  0  0  # atno 7974 bound_to 7965
  156.0868  140.3263  155.7764 H   0  0  0  0  0  0  0  0  0  0  0  0  # atno 8008 bound_to 7997
  155.5063  140.0573  157.2948 H   0  0  0  0  0  0  0  0  0  0  0  0  # atno 8009 bound_to 7997
  154.4614  140.1968  156.0251 H   0  0  0  0  0  0  0  0  0  0  0  0  # atno 8010 bound_to 7997
  140.0766  144.5107  150.7190 H   0  0  0  0  0  0  0  0  0  0  0  0  # atno 10167 bound_to 10162
  157.0059  131.0190  151.2817 H   0  0  0  0  0  0  0  0  0  0  0  0  # atno 10718 bound_to 10713
  153.5292  135.7015  153.5692 H   0  0  0  0  0  0  0  0  0  0  0  0  # atno 10763 bound_to 10752
  153.3707  135.3945  155.1786 H   0  0  0  0  0  0  0  0  0  0  0  0  # atno 10764 bound_to 10752
  154.8686  135.3811  154.4787 H   0  0  0  0  0  0  0  0  0  0  0  0  # atno 10765 bound_to 10752
  140.1679  134.8564  157.2654 H   0  0  0  0  0  0  0  0  0  0  0  0  # atno 11005 bound_to 11000
  145.4963  141.0438  143.2565 LP  0  0  0  0  0  0  0  0  0  0  0  0  # atno 17320 bound_to 7965
  144.7833  139.6479  143.7145 LP  0  0  0  0  0  0  0  0  0  0  0  0  # atno 17321 bound_to 7965
  140.7099  143.2496  151.4614 LP  0  0  0  0  0  0  0  0  0  0  0  0  # atno 17342 bound_to 10162
  139.5804  144.1723  152.1960 LP  0  0  0  0  0  0  0  0  0  0  0  0  # atno 17343 bound_to 10162
  157.5356  130.8086  149.7968 LP  0  0  0  0  0  0  0  0  0  0  0  0  # atno 17370 bound_to 10713
  156.0154  130.3816  150.2129 LP  0  0  0  0  0  0  0  0  0  0  0  0  # atno 17371 bound_to 10713
  140.2412  134.3793  155.7480 LP  0  0  0  0  0  0  0  0  0  0  0  0  # atno 17394 bound_to 11000
  141.2215  133.7266  156.8792 LP  0  0  0  0  0  0  0  0  0  0  0  0  # atno 17395 bound_to 11000

$$$$
