AV-unprocessed.smi:2061|AV-procd|sdf|8385|dock2
  -GOLD-   2272011 63D 1   1.00000     0.00000
 Structure written by MMmdl.
 45 46  0  0  0  0  0  0  0  0  3 V2000
  152.1285  140.5481  158.8305 C   0  0  0  0  0  0  0  0  0  0  0  0
  152.3490  139.3660  157.9498 C   0  0  0  0  0  0  0  0  0  0  0  0
  151.5058  138.4206  157.4387 C   0  0  0  0  0  0  0  0  0  0  0  0
  152.3715  137.5926  156.6731 C   0  0  0  0  0  0  0  0  0  0  0  0
  152.0094  136.5052  155.9751 N   0  5  0  0  0  0  0  0  0  0  0  0
  150.8375  136.4893  155.3009 C   0  0  0  0  0  0  0  0  0  0  0  0
  150.4142  137.3701  154.5488 O   0  0  0  0  0  0  0  0  0  0  0  0
  150.1050  135.3881  155.5236 N   0  0  0  0  0  0  0  0  0  0  0  0
  148.7979  135.0851  154.9454 C   0  0  0  0  0  0  0  0  0  0  0  0
  148.8623  134.0045  153.8344 C   0  0  1  0  0  0  0  0  0  0  0  0
  148.9788  132.5869  154.4472 C   0  0  0  0  0  0  0  0  0  0  0  0
  147.6928  134.1605  152.9081 N   0  3  1  0  0  0  0  0  0  0  0  0
  147.3709  132.9056  152.1784 C   0  0  0  0  0  0  0  0  0  0  0  0
  146.2862  133.1495  151.1164 C   0  0  1  0  0  0  0  0  0  0  0  0
  145.8924  131.8586  150.3902 C   0  0  0  0  0  0  0  0  0  0  0  0
  145.1212  133.6676  151.7482 O   0  0  0  0  0  0  0  0  0  0  0  0
  145.3292  134.8813  152.4664 C   0  0  2  0  0  0  0  0  0  0  0  0
  145.5455  136.0825  151.5281 C   0  0  0  0  0  0  0  0  0  0  0  0
  146.4482  134.7092  153.5140 C   0  0  0  0  0  0  0  0  0  0  0  0
  153.6317  137.9887  156.7309 N   0  0  0  0  0  0  0  0  0  0  0  0
  153.6251  139.1295  157.5425 O   0  0  0  0  0  0  0  0  0  0  0  0
  151.7920  140.2341  159.8185 H   0  0  0  0  0  0  0  0  0  0  0  0
  151.3700  141.2069  158.4077 H   0  0  0  0  0  0  0  0  0  0  0  0
  153.0456  141.1249  158.9530 H   0  0  0  0  0  0  0  0  0  0  0  0
  150.4391  138.3374  157.5833 H   0  0  0  0  0  0  0  0  0  0  0  0
  150.4966  134.6982  156.1483 H   0  0  0  0  0  0  0  0  0  0  0  0
  148.0864  134.7853  155.7166 H   0  0  0  0  0  0  0  0  0  0  0  0
  148.4255  136.0298  154.5545 H   0  0  0  0  0  0  0  0  0  0  0  0
  149.7708  134.1636  153.2509 H   0  0  0  0  0  0  0  0  0  0  0  0
  149.8394  132.5023  155.1098 H   0  0  0  0  0  0  0  0  0  0  0  0
  149.1280  131.8203  153.6870 H   0  0  0  0  0  0  0  0  0  0  0  0
  148.0927  132.3295  155.0285 H   0  0  0  0  0  0  0  0  0  0  0  0
  148.2522  132.5007  151.6849 H   0  0  0  0  0  0  0  0  0  0  0  0
  147.0362  132.1489  152.8900 H   0  0  0  0  0  0  0  0  0  0  0  0
  146.6527  133.8559  150.3712 H   0  0  0  0  0  0  0  0  0  0  0  0
  146.7483  131.4205  149.8760 H   0  0  0  0  0  0  0  0  0  0  0  0
  145.1210  132.0512  149.6440 H   0  0  0  0  0  0  0  0  0  0  0  0
  145.5034  131.1153  151.0866 H   0  0  0  0  0  0  0  0  0  0  0  0
  144.4006  135.0716  153.0057 H   0  0  0  0  0  0  0  0  0  0  0  0
  145.5601  137.0152  152.0923 H   0  0  0  0  0  0  0  0  0  0  0  0
  144.7402  136.1544  150.7966 H   0  0  0  0  0  0  0  0  0  0  0  0
  146.4880  136.0203  150.9847 H   0  0  0  0  0  0  0  0  0  0  0  0
  146.1128  134.0367  154.3052 H   0  0  0  0  0  0  0  0  0  0  0  0
  146.6246  135.6825  153.9708 H   0  0  0  0  0  0  0  0  0  0  0  0
  147.9799  134.8380  152.2160 H   0  0  0  0  0  0  0  0  0  0  0  0
  1  2  1  0  0  0  0
  1 22  1  0  0  0  0
  1 23  1  0  0  0  0
  1 24  1  0  0  0  0
  2 21  1  0  0  0  0
  2  3  2  0  0  0  0
  3  4  1  0  0  0  0
  3 25  1  0  0  0  0
  4  5  1  0  0  0  0
  4 20  2  0  0  0  0
  5  6  1  0  0  0  0
  6  7  2  0  0  0  0
  6  8  1  0  0  0  0
  8  9  1  0  0  0  0
  8 26  1  0  0  0  0
  9 10  1  0  0  0  0
  9 27  1  0  0  0  0
  9 28  1  0  0  0  0
 10 11  1  0  0  0  0
 10 12  1  0  0  0  0
 10 29  1  0  0  0  0
 11 30  1  0  0  0  0
 11 31  1  0  0  0  0
 11 32  1  0  0  0  0
 12 19  1  0  0  0  0
 12 13  1  0  0  0  0
 12 45  1  0  0  0  0
 13 14  1  0  0  0  0
 13 33  1  0  0  0  0
 13 34  1  0  0  0  0
 14 15  1  0  0  0  0
 14 16  1  0  0  0  0
 14 35  1  0  0  0  0
 15 36  1  0  0  0  0
 15 37  1  0  0  0  0
 15 38  1  0  0  0  0
 16 17  1  0  0  0  0
 17 18  1  0  0  0  0
 17 19  1  0  0  0  0
 17 39  1  0  0  0  0
 18 40  1  0  0  0  0
 18 41  1  0  0  0  0
 18 42  1  0  0  0  0
 19 43  1  0  0  0  0
 19 44  1  0  0  0  0
 20 21  1  0  0  0  0
M  CHG  1   5  -1
M  CHG  1  12   1
M  END
> <s_m_source_file>
AV-unprocessed.smi

> <i_m_source_file_index>
2061

> <i_lp_mmshare_version>
43012

> <i_f3d_flags>
0

> <s_epik_input>
W0NIM11jMVtjSF1jKG5vMSlbTkhdQyg9TylbTkhdW0NIMl1bQ0BIXShbQ0gzXSlOMltDSDJdW0NAQEhdKFtDSDNdKU9bQ0BASF0oW0NIM10pW0NIMl0y

> <s_epik_cmdline>
J2VwaWtfcHl0aG9uJywgJy1waCcsICc3LjAnLCAnLXRuJywgJzgnLCAnLW1hJywgJzIwMCcsICctbWV0YWxfYmluZGluZycsICctaW1hZScsICc8aW5maWxlLm1hZT4nLCAnLW9tYWUnLCAnPG91dGZpbGUubWFlPic=

> <r_epik_Ionization_Penalty>
6.73511

> <r_epik_Ionization_Penalty_Charging>
6.73502

> <r_epik_Ionization_Penalty_Neutral>
9.50841e-05

> <r_epik_State_Penalty>
6.93549

> <r_epik_Charging_Adjusted_Penalty>
13.6705

> <i_epik_Tot_Q>
0

> <i_epik_Tot_abs_Q>
2

> <r_epik_Metal_State_Penalty>
2.87211

> <b_epik_Metal_Only>
1

> <s_lp_Force_Field>
OPLS_2005

> <r_lp_Energy>
11.2627

> <b_lp_Chiralities_Consistent>
1

> <s_lp_Variant>
AV-unprocessed.smi:2061-26

> <Gold.Version>
5.8.1

> <Gold.Id.Protein>
6NUR|6NUR_protein|mol2

> <Gold.PLP.Fitness>
39.1856

> <Gold.PLP.PLP>
-27.4450

> <Gold.PLP.part.hbond>
-3.8121

> <Gold.PLP.part.metal>
0.0000

> <Gold.PLP.part.buried>
-2.6258

> <Gold.PLP.part.nonpolar>
-21.3155

> <Gold.PLP.part.repulsive>
0.3697

> <Gold.PLP.ligand.clash>
0.0000

> <Gold.PLP.ligand.torsion>
1.6979

> <Gold.PLP.Chemscore.Hbond>
5.0000

> <Gold.PLP.Chemscore.CHOScore>
0.0000

> <Gold.PLP.Chemscore.Metal>
0.0000

> <Gold.Chemscore.Hbonds>
donor molecule, donor type, donor heavy atom, donor atom, acceptor molecule, acceptor atom, score
      L1  H    12    45       P1  7948  1.92
      P1  H  7997  8010       L1    21  0.87
      P1  H 10752 10764       L1     5  2.00

> <Gold.PLP.Chemscore.Internal.Correction>
0.1364

> <Gold.Rescore>
     Score         DG    S(hbond)    S(metal)    S(lipo)     H(rot)  DE(clash)    DE(int)     intcor
     15.34     -17.10       2.48        0.00      62.46       1.56       0.28       1.48       ----

> <Gold.Chemscore.Fitness>
15.3391

> <Gold.Chemscore.DG>
-17.0973

> <Gold.Chemscore.ZeroCoef>
-5.4800

> <Gold.Chemscore.Hbond>
2.4820

> <Gold.Chemscore.Metal>
0.0000

> <Gold.Chemscore.Lipo>
62.4632

> <Gold.Chemscore.Internal_Hbond>
0.0000

> <Gold.Chemscore.DEClash>
0.2767

> <Gold.Chemscore.DEInternal>
1.4814

> <Gold.Chemscore.Rot>
1.5550

> <Gold.Chemscore.Internal.Correction>
   9.000000E+99

> <Gold.Chemscore.Hbonds>
donor molecule, donor type, donor heavy atom, donor atom, acceptor molecule, acceptor atom, score
      L1  H    12    45       P1  7948  0.51
      P1  H  7997  8010       L1    21  0.56
      P1  H 10752 10764       L1     5  0.60

> <Gold.Chemscore.Hbond.Weighted>
-8.2900

> <Gold.Chemscore.Metal.Weighted>
-0.0000

> <Gold.Chemscore.Lipo.Weighted>
-7.3082

> <Gold.Chemscore.Internal_Hbond.Weighted>
0.0000

> <Gold.Chemscore.DEClash.Weighted>
0.2767

> <Gold.Chemscore.DEInternal.Weighted>
1.4814

> <Gold.Chemscore.Rot.Weighted>
3.9809

> <Gold.Chemscore.Internal.Correction.Weighted>
   9.000000E+99

> <Gold.Protein.RotatedTorsions>
[ 6907 6896 6895 6894 ] final  -39.42 input  -60.11 | X-H torsion
[ 7974 7965 7964 7962 ] final -175.04 input  175.53 | X-H torsion
[ 8008 7997 7996 7995 ] final   20.08 input   59.86 | X-H torsion
[ 10167 10162 10161 10158 ] final  -95.07 input  -65.29 | X-H torsion
[ 10718 10713 10712 10709 ] final  -62.62 input   66.30 | X-H torsion
[ 10763 10752 10751 10750 ] final  -28.76 input  -60.55 | X-H torsion
[ 11005 11000 10999 10996 ] final  -58.03 input  -57.11 | X-H torsion

> <Gold.Protein.ActiveResidues>
 VAL166  LYS551  ARG553  GLY616  TRP617  ASP618  TYR619  PRO620  LYS621  CYS622 
 ASP623  PHE694  ASN695  SER759  ASP760  ASP761  ALA762  ILE779  LEU786  VAL792 
 PHE793  MET794  SER795  GLU796  ALA797  LYS798  CYS799  TRP800  GLU811  SER814 

> <Gold.Protein.RotatedAtoms>
  150.9906  134.9242  159.7897 H   0  0  0  0  0  0  0  0  0  0  0  0  # atno 6907 bound_to 6896
  152.5250  134.3286  159.9185 H   0  0  0  0  0  0  0  0  0  0  0  0  # atno 6908 bound_to 6896
  151.3292  133.3966  159.2695 H   0  0  0  0  0  0  0  0  0  0  0  0  # atno 6909 bound_to 6896
  144.7129  140.1381  143.6394 H   0  0  0  0  0  0  0  0  0  0  0  0  # atno 7974 bound_to 7965
  154.9303  140.3039  155.5171 H   0  0  0  0  0  0  0  0  0  0  0  0  # atno 8008 bound_to 7997
  156.3004  140.2355  156.4299 H   0  0  0  0  0  0  0  0  0  0  0  0  # atno 8009 bound_to 7997
  154.8244  140.0421  157.1422 H   0  0  0  0  0  0  0  0  0  0  0  0  # atno 8010 bound_to 7997
  140.3080  143.3122  152.0179 H   0  0  0  0  0  0  0  0  0  0  0  0  # atno 10167 bound_to 10162
  156.0843  130.4211  150.1161 H   0  0  0  0  0  0  0  0  0  0  0  0  # atno 10718 bound_to 10713
  153.7537  135.6924  153.4940 H   0  0  0  0  0  0  0  0  0  0  0  0  # atno 10763 bound_to 10752
  153.1986  135.4445  155.0237 H   0  0  0  0  0  0  0  0  0  0  0  0  # atno 10764 bound_to 10752
  154.8178  135.3407  154.7056 H   0  0  0  0  0  0  0  0  0  0  0  0  # atno 10765 bound_to 10752
  141.1190  133.6611  156.4859 H   0  0  0  0  0  0  0  0  0  0  0  0  # atno 11005 bound_to 11000
  145.9227  139.2556  143.1372 LP  0  0  0  0  0  0  0  0  0  0  0  0  # atno 17320 bound_to 7965
  145.9604  140.8840  143.0214 LP  0  0  0  0  0  0  0  0  0  0  0  0  # atno 17321 bound_to 7965
  139.4900  144.6406  151.6884 LP  0  0  0  0  0  0  0  0  0  0  0  0  # atno 17342 bound_to 10162
  140.5593  144.0295  150.6162 LP  0  0  0  0  0  0  0  0  0  0  0  0  # atno 17343 bound_to 10162
  156.9185  130.9675  151.3552 LP  0  0  0  0  0  0  0  0  0  0  0  0  # atno 17370 bound_to 10713
  157.5972  130.8486  149.8747 LP  0  0  0  0  0  0  0  0  0  0  0  0  # atno 17371 bound_to 10713
  140.4562  134.6883  157.5064 LP  0  0  0  0  0  0  0  0  0  0  0  0  # atno 17394 bound_to 11000
  140.0133  134.6657  155.9348 LP  0  0  0  0  0  0  0  0  0  0  0  0  # atno 17395 bound_to 11000

$$$$
