AV-unprocessed.smi:862|AV-procd|sdf|3982|dock1
  -GOLD-   22720 1463D 1   1.00000     0.00000
 Structure written by MMmdl.
 45 47  0  0  0  0  0  0  0  0  3 V2000
  149.2281  130.7001  157.0944 N   0  0  0  0  0  0  0  0  0  0  0  0
  149.7396  131.8934  156.7775 C   0  0  0  0  0  0  0  0  0  0  0  0
  150.0874  132.6862  157.6505 O   0  0  0  0  0  0  0  0  0  0  0  0
  149.8885  132.1242  155.4488 N   0  0  0  0  0  0  0  0  0  0  0  0
  149.6347  131.1562  154.3693 C   0  0  0  0  0  0  0  0  0  0  0  0
  148.2968  131.5049  153.6901 C   0  0  0  0  0  0  0  0  0  0  0  0
  148.2940  132.9620  153.1684 C   0  0  0  0  0  0  0  0  0  0  0  0
  146.9630  133.3700  152.6616 N   0  3  0  0  0  0  0  0  0  0  0  0
  146.3213  132.4628  151.6788 C   0  0  2  0  0  0  0  0  0  0  0  0
  146.7520  132.7066  150.2279 C   0  0  0  0  0  0  0  0  0  0  0  0
  145.6268  132.1088  149.3721 C   0  0  0  0  0  0  0  0  0  0  0  0
  144.4152  131.9200  150.3022 C   0  0  0  0  0  0  0  0  0  0  0  0
  144.7843  132.5695  151.6466 C   0  0  2  0  0  0  0  0  0  0  0  0
  144.2738  133.9539  151.7520 N   0  0  0  0  0  0  0  0  0  0  0  0
  143.4101  134.4831  152.6817 C   0  0  0  0  0  0  0  0  0  0  0  0
  143.2291  135.8005  152.3492 C   0  0  0  0  0  0  0  0  0  0  0  0
  143.9813  136.0235  151.2286 N   0  3  0  0  0  0  0  0  0  0  0  0
  144.6124  134.9022  150.8661 C   0  0  0  0  0  0  0  0  0  0  0  0
  148.7479  133.9398  154.2721 C   0  0  0  0  0  0  0  0  0  0  0  0
  150.0677  133.4795  154.9153 C   0  0  0  0  0  0  0  0  0  0  0  0
  149.1018  130.4538  158.0656 H   0  0  0  0  0  0  0  0  0  0  0  0
  148.9826  130.0447  156.3673 H   0  0  0  0  0  0  0  0  0  0  0  0
  150.4469  131.2105  153.6427 H   0  0  0  0  0  0  0  0  0  0  0  0
  149.6160  130.1192  154.7040 H   0  0  0  0  0  0  0  0  0  0  0  0
  148.1218  130.8034  152.8746 H   0  0  0  0  0  0  0  0  0  0  0  0
  147.4831  131.3635  154.4030 H   0  0  0  0  0  0  0  0  0  0  0  0
  149.0161  133.0390  152.3548 H   0  0  0  0  0  0  0  0  0  0  0  0
  146.3483  133.4710  153.4567 H   0  0  0  0  0  0  0  0  0  0  0  0
  146.5639  131.4326  151.9403 H   0  0  0  0  0  0  0  0  0  0  0  0
  146.8374  133.7759  150.0308 H   0  0  0  0  0  0  0  0  0  0  0  0
  147.7186  132.2557  150.0001 H   0  0  0  0  0  0  0  0  0  0  0  0
  145.3890  132.7638  148.5335 H   0  0  0  0  0  0  0  0  0  0  0  0
  145.9293  131.1480  148.9537 H   0  0  0  0  0  0  0  0  0  0  0  0
  143.4960  132.3223  149.8742 H   0  0  0  0  0  0  0  0  0  0  0  0
  144.2482  130.8526  150.4533 H   0  0  0  0  0  0  0  0  0  0  0  0
  144.3461  132.0001  152.4684 H   0  0  0  0  0  0  0  0  0  0  0  0
  143.0001  133.9066  153.4980 H   0  0  0  0  0  0  0  0  0  0  0  0
  142.6372  136.5757  152.8145 H   0  0  0  0  0  0  0  0  0  0  0  0
  145.2711  134.7897  150.0233 H   0  0  0  0  0  0  0  0  0  0  0  0
  148.8687  134.9419  153.8591 H   0  0  0  0  0  0  0  0  0  0  0  0
  147.9802  134.0139  155.0443 H   0  0  0  0  0  0  0  0  0  0  0  0
  150.3813  134.1915  155.6803 H   0  0  0  0  0  0  0  0  0  0  0  0
  150.8674  133.4742  154.1733 H   0  0  0  0  0  0  0  0  0  0  0  0
  147.0659  134.2731  152.2215 H   0  0  0  0  0  0  0  0  0  0  0  0
  144.0549  136.9103  150.7451 H   0  0  0  0  0  0  0  0  0  0  0  0
  1  2  1  0  0  0  0
  1 21  1  0  0  0  0
  1 22  1  0  0  0  0
  2  3  2  0  0  0  0
  2  4  1  0  0  0  0
  4 20  1  0  0  0  0
  4  5  1  0  0  0  0
  5  6  1  0  0  0  0
  5 23  1  0  0  0  0
  5 24  1  0  0  0  0
  6  7  1  0  0  0  0
  6 25  1  0  0  0  0
  6 26  1  0  0  0  0
  7  8  1  0  0  0  0
  7 19  1  0  0  0  0
  7 27  1  0  0  0  0
  8  9  1  0  0  0  0
  8 28  1  0  0  0  0
  8 44  1  0  0  0  0
  9 13  1  0  0  0  0
  9 10  1  0  0  0  0
  9 29  1  0  0  0  0
 10 11  1  0  0  0  0
 10 30  1  0  0  0  0
 10 31  1  0  0  0  0
 11 12  1  0  0  0  0
 11 32  1  0  0  0  0
 11 33  1  0  0  0  0
 12 13  1  0  0  0  0
 12 34  1  0  0  0  0
 12 35  1  0  0  0  0
 13 14  1  0  0  0  0
 13 36  1  0  0  0  0
 14 18  1  0  0  0  0
 14 15  1  0  0  0  0
 15 16  2  0  0  0  0
 15 37  1  0  0  0  0
 16 17  1  0  0  0  0
 16 38  1  0  0  0  0
 17 18  2  0  0  0  0
 17 45  1  0  0  0  0
 18 39  1  0  0  0  0
 19 20  1  0  0  0  0
 19 40  1  0  0  0  0
 19 41  1  0  0  0  0
 20 42  1  0  0  0  0
 20 43  1  0  0  0  0
M  CHG  1   8   1
M  CHG  1  17   1
M  END
> <s_m_source_file>
AV-unprocessed.smi

> <i_m_source_file_index>
862

> <i_lp_mmshare_version>
43012

> <i_f3d_flags>
0

> <s_epik_input>
W05IMl1DKD1PKU4xW0NIMl1bQ0gyXVtDSF0oW0NIMl1bQ0gyXTEpW05IXVtDQEBIXTJbQ0gyXVtDSDJdW0NIMl1bQ0BIXTJuM1tjSF1bY0hdbltjSF0z

> <s_epik_cmdline>
J2VwaWtfcHl0aG9uJywgJy1waCcsICc3LjAnLCAnLXRuJywgJzgnLCAnLW1hJywgJzIwMCcsICctbWV0YWxfYmluZGluZycsICctaW1hZScsICc8aW5maWxlLm1hZT4nLCAnLW9tYWUnLCAnPG91dGZpbGUubWFlPic=

> <r_lp_tautomer_probability>
1

> <r_epik_Ionization_Penalty>
1.30217

> <r_epik_Ionization_Penalty_Charging>
0.00439521

> <r_epik_Ionization_Penalty_Neutral>
1.29777

> <r_epik_State_Penalty>
0.977606

> <r_epik_Charging_Adjusted_Penalty>
0.982001

> <i_epik_Tot_Q>
2

> <i_epik_Tot_abs_Q>
2

> <r_epik_Metal_State_Penalty>
1.03289

> <b_epik_Metal_Only>
0

> <s_lp_Force_Field>
OPLS_2005

> <r_lp_Energy>
66.0454

> <b_lp_Chiralities_Consistent>
1

> <s_lp_Variant>
AV-unprocessed.smi:862-7

> <Gold.Version>
5.8.1

> <Gold.Id.Protein>
6NUR|6NUR_protein|mol2

> <Gold.PLP.Fitness>
48.8738

> <Gold.PLP.PLP>
-37.5012

> <Gold.PLP.part.hbond>
-2.0000

> <Gold.PLP.part.metal>
0.0000

> <Gold.PLP.part.buried>
-2.7026

> <Gold.PLP.part.nonpolar>
-33.3604

> <Gold.PLP.part.repulsive>
0.0475

> <Gold.PLP.ligand.clash>
0.0000

> <Gold.PLP.ligand.torsion>
0.4018

> <Gold.PLP.Chemscore.Hbond>
2.0000

> <Gold.PLP.Chemscore.CHOScore>
1.9897

> <Gold.PLP.Chemscore.Metal>
0.0000

> <Gold.Chemscore.Hbonds>
donor molecule, donor type, donor heavy atom, donor atom, acceptor molecule, acceptor atom, score
      L1  H    17    45       P1 10171  1.00
      P1  H  6896  6909       L1     3  0.91
      L1  C    15    37       P1 10957  1.00
      L1  C    18    39       P1  7921  0.98

> <Gold.PLP.Chemscore.Internal.Correction>
0.2071

> <Gold.Rescore>
     Score         DG    S(hbond)    S(metal)    S(lipo)     H(rot)  DE(clash)    DE(int)     intcor
     16.47     -17.18       1.98        0.00      80.26       1.68       0.40       0.32       ----

> <Gold.Chemscore.Fitness>
16.4652

> <Gold.Chemscore.DG>
-17.1845

> <Gold.Chemscore.ZeroCoef>
-5.4800

> <Gold.Chemscore.Hbond>
1.9814

> <Gold.Chemscore.Metal>
0.0000

> <Gold.Chemscore.Lipo>
80.2629

> <Gold.Chemscore.Internal_Hbond>
0.0000

> <Gold.Chemscore.DEClash>
0.4028

> <Gold.Chemscore.DEInternal>
0.3165

> <Gold.Chemscore.Rot>
1.6814

> <Gold.Chemscore.Internal.Correction>
   9.000000E+99

> <Gold.Chemscore.Hbonds>
donor molecule, donor type, donor heavy atom, donor atom, acceptor molecule, acceptor atom, score
      L1  H    17    45       P1 10171  1.00
      P1  H  6896  6909       L1     3  0.85

> <Gold.Chemscore.Hbond.Weighted>
-6.6180

> <Gold.Chemscore.Metal.Weighted>
-0.0000

> <Gold.Chemscore.Lipo.Weighted>
-9.3908

> <Gold.Chemscore.Internal_Hbond.Weighted>
0.0000

> <Gold.Chemscore.DEClash.Weighted>
0.4028

> <Gold.Chemscore.DEInternal.Weighted>
0.3165

> <Gold.Chemscore.Rot.Weighted>
4.3043

> <Gold.Chemscore.Internal.Correction.Weighted>
   9.000000E+99

> <Gold.Protein.RotatedTorsions>
[ 6907 6896 6895 6894 ] final  -36.54 input  -60.11 | X-H torsion
[ 7974 7965 7964 7962 ] final   72.51 input  175.53 | X-H torsion
[ 8008 7997 7996 7995 ] final  164.88 input   59.86 | X-H torsion
[ 10167 10162 10161 10158 ] final  146.29 input  -65.29 | X-H torsion
[ 10718 10713 10712 10709 ] final  117.08 input   66.30 | X-H torsion
[ 10763 10752 10751 10750 ] final   83.70 input  -60.55 | X-H torsion
[ 11005 11000 10999 10996 ] final   30.11 input  -57.11 | X-H torsion

> <Gold.Protein.ActiveResidues>
 VAL166  LYS551  ARG553  GLY616  TRP617  ASP618  TYR619  PRO620  LYS621  CYS622 
 ASP623  PHE694  ASN695  SER759  ASP760  ASP761  ALA762  ILE779  LEU786  VAL792 
 PHE793  MET794  SER795  GLU796  ALA797  LYS798  CYS799  TRP800  GLU811  SER814 

> <Gold.Protein.RotatedAtoms>
  151.0259  134.9503  159.8084 H   0  0  0  0  0  0  0  0  0  0  0  0  # atno 6907 bound_to 6896
  152.5335  134.2843  159.9029 H   0  0  0  0  0  0  0  0  0  0  0  0  # atno 6908 bound_to 6896
  151.2851  133.4149  159.2663 H   0  0  0  0  0  0  0  0  0  0  0  0  # atno 6909 bound_to 6896
  145.7525  139.2766  143.1423 H   0  0  0  0  0  0  0  0  0  0  0  0  # atno 7974 bound_to 7965
  156.1845  140.1685  156.8211 H   0  0  0  0  0  0  0  0  0  0  0  0  # atno 8008 bound_to 7997
  154.5398  140.0739  156.8523 H   0  0  0  0  0  0  0  0  0  0  0  0  # atno 8009 bound_to 7997
  155.3237  140.3375  155.4243 H   0  0  0  0  0  0  0  0  0  0  0  0  # atno 8010 bound_to 7997
  139.4910  144.5840  151.6814 H   0  0  0  0  0  0  0  0  0  0  0  0  # atno 10167 bound_to 10162
  157.6119  131.1033  150.7564 H   0  0  0  0  0  0  0  0  0  0  0  0  # atno 10718 bound_to 10713
  153.1315  135.4681  154.9356 H   0  0  0  0  0  0  0  0  0  0  0  0  # atno 10763 bound_to 10752
  154.7668  135.3147  154.8272 H   0  0  0  0  0  0  0  0  0  0  0  0  # atno 10764 bound_to 10752
  153.8813  135.6894  153.4820 H   0  0  0  0  0  0  0  0  0  0  0  0  # atno 10765 bound_to 10752
  140.2979  134.2790  155.7760 H   0  0  0  0  0  0  0  0  0  0  0  0  # atno 11005 bound_to 11000
  146.0343  140.8228  142.9860 LP  0  0  0  0  0  0  0  0  0  0  0  0  # atno 17320 bound_to 7965
  144.6847  140.2815  143.7291 LP  0  0  0  0  0  0  0  0  0  0  0  0  # atno 17321 bound_to 7965
  140.5453  144.0514  150.6104 LP  0  0  0  0  0  0  0  0  0  0  0  0  # atno 17342 bound_to 10162
  140.3550  143.2941  152.0446 LP  0  0  0  0  0  0  0  0  0  0  0  0  # atno 17343 bound_to 10162
  156.7939  130.4899  149.5380 LP  0  0  0  0  0  0  0  0  0  0  0  0  # atno 17370 bound_to 10713
  156.1226  130.6121  151.0216 LP  0  0  0  0  0  0  0  0  0  0  0  0  # atno 17371 bound_to 10713
  141.2134  133.7627  156.9722 LP  0  0  0  0  0  0  0  0  0  0  0  0  # atno 17394 bound_to 11000
  140.1136  134.9461  157.2102 LP  0  0  0  0  0  0  0  0  0  0  0  0  # atno 17395 bound_to 11000

$$$$
