AV-unprocessed.smi:2269|AV-procd|sdf|9152|dock3
  -GOLD-   2272012363D 1   1.00000     0.00000
 Structure written by MMmdl.
 41 42  0  0  0  0  0  0  0  0  1 V2000
  144.0131  144.5950  155.7413 C   0  0  0  0  0  0  0  0  0  0  0  0
  145.0343  143.5012  155.4836 C   0  0  0  0  0  0  0  0  0  0  0  0
  145.4084  143.3272  154.1481 N   0  0  0  0  0  0  0  0  0  0  0  0
  146.2763  142.4218  153.8343 C   0  0  0  0  0  0  0  0  0  0  0  0
  146.8621  141.5928  154.8051 N   0  0  0  0  0  0  0  0  0  0  0  0
  147.8443  140.6096  154.3170 C   0  0  0  0  0  0  0  0  0  0  0  0
  149.2929  141.0051  154.6839 C   0  0  2  0  0  0  0  0  0  0  0  0
  150.1652  140.3288  153.7995 O   0  0  0  0  0  0  0  0  0  0  0  0
  149.6674  140.5617  156.1077 C   0  0  0  0  0  0  0  0  0  0  0  0
  150.9508  141.0791  156.4270 O   0  0  0  0  0  0  0  0  0  0  0  0
  150.9756  142.4896  156.5864 C   0  0  0  0  0  0  0  0  0  0  0  0
  151.4591  142.9145  157.9670 C   0  0  0  0  0  0  0  0  0  0  0  0
  151.5427  144.2946  158.2512 C   0  0  0  0  0  0  0  0  0  0  0  0
  151.9808  144.7411  159.5122 C   0  0  0  0  0  0  0  0  0  0  0  0
  152.3381  143.8075  160.5019 C   0  0  0  0  0  0  0  0  0  0  0  0
  152.2588  142.4293  160.2273 C   0  0  0  0  0  0  0  0  0  0  0  0
  151.8224  141.9763  158.9656 C   0  0  0  0  0  0  0  0  0  0  0  0
  151.7594  140.2722  158.6804 Cl  0  0  0  0  0  0  0  0  0  0  0  0
  146.5573  141.6992  156.1309 C   0  0  0  0  0  0  0  0  0  0  0  0
  147.0869  140.9753  156.9765 O   0  0  0  0  0  0  0  0  0  0  0  0
  145.5656  142.7317  156.4727 C   0  0  0  0  0  0  0  0  0  0  0  0
  145.1972  142.8767  157.9441 C   0  0  0  0  0  0  0  0  0  0  0  0
  143.1082  144.1768  156.1828 H   0  0  0  0  0  0  0  0  0  0  0  0
  143.7312  145.1014  154.8173 H   0  0  0  0  0  0  0  0  0  0  0  0
  144.4196  145.3443  156.4210 H   0  0  0  0  0  0  0  0  0  0  0  0
  146.6065  142.2501  152.8083 H   0  0  0  0  0  0  0  0  0  0  0  0
  147.6056  139.6421  154.7621 H   0  0  0  0  0  0  0  0  0  0  0  0
  147.7534  140.4355  153.2427 H   0  0  0  0  0  0  0  0  0  0  0  0
  149.4299  142.0833  154.5912 H   0  0  0  0  0  0  0  0  0  0  0  0
  149.7723  140.3170  152.9402 H   0  0  0  0  0  0  0  0  0  0  0  0
  148.9557  140.9709  156.8262 H   0  0  0  0  0  0  0  0  0  0  0  0
  149.6273  139.4751  156.2007 H   0  0  0  0  0  0  0  0  0  0  0  0
  151.6798  142.8884  155.8559 H   0  0  0  0  0  0  0  0  0  0  0  0
  150.0083  142.9160  156.3232 H   0  0  0  0  0  0  0  0  0  0  0  0
  151.2713  145.0175  157.4957 H   0  0  0  0  0  0  0  0  0  0  0  0
  152.0421  145.7994  159.7194 H   0  0  0  0  0  0  0  0  0  0  0  0
  152.6737  144.1478  161.4705 H   0  0  0  0  0  0  0  0  0  0  0  0
  152.5366  141.7163  160.9897 H   0  0  0  0  0  0  0  0  0  0  0  0
  146.0775  143.1515  158.5260 H   0  0  0  0  0  0  0  0  0  0  0  0
  144.8166  141.9311  158.3319 H   0  0  0  0  0  0  0  0  0  0  0  0
  144.4348  143.6328  158.1237 H   0  0  0  0  0  0  0  0  0  0  0  0
  1  2  1  0  0  0  0
  1 23  1  0  0  0  0
  1 24  1  0  0  0  0
  1 25  1  0  0  0  0
  2 21  2  0  0  0  0
  2  3  1  0  0  0  0
  3  4  2  0  0  0  0
  4  5  1  0  0  0  0
  4 26  1  0  0  0  0
  5  6  1  0  0  0  0
  5 19  1  0  0  0  0
  6  7  1  0  0  0  0
  6 27  1  0  0  0  0
  6 28  1  0  0  0  0
  7  8  1  0  0  0  0
  7  9  1  0  0  0  0
  7 29  1  0  0  0  0
  8 30  1  0  0  0  0
  9 10  1  0  0  0  0
  9 31  1  0  0  0  0
  9 32  1  0  0  0  0
 10 11  1  0  0  0  0
 11 12  1  0  0  0  0
 11 33  1  0  0  0  0
 11 34  1  0  0  0  0
 12 17  1  0  0  0  0
 12 13  2  0  0  0  0
 13 14  1  0  0  0  0
 13 35  1  0  0  0  0
 14 15  2  0  0  0  0
 14 36  1  0  0  0  0
 15 16  1  0  0  0  0
 15 37  1  0  0  0  0
 16 17  2  0  0  0  0
 16 38  1  0  0  0  0
 17 18  1  0  0  0  0
 19 20  2  0  0  0  0
 19 21  1  0  0  0  0
 21 22  1  0  0  0  0
 22 39  1  0  0  0  0
 22 40  1  0  0  0  0
 22 41  1  0  0  0  0
M  END
> <s_m_source_file>
AV-unprocessed.smi

> <i_m_source_file_index>
2269

> <i_lp_mmshare_version>
43012

> <i_f3d_flags>
0

> <s_epik_input>
W0NIM11jMW5bY0hdbihjKD1PKWMxW0NIM10pW0NIMl1bQ0BIXShbT0hdKVtDSDJdT1tDSDJdYzJbY0hdW2NIXVtjSF1bY0hdYzJDbA==

> <s_epik_cmdline>
J2VwaWtfcHl0aG9uJywgJy1waCcsICc3LjAnLCAnLXRuJywgJzgnLCAnLW1hJywgJzIwMCcsICctbWV0YWxfYmluZGluZycsICctaW1hZScsICc8aW5maWxlLm1hZT4nLCAnLW9tYWUnLCAnPG91dGZpbGUubWFlPic=

> <r_lp_tautomer_probability>
1

> <r_epik_Ionization_Penalty>
5.36022e-05

> <r_epik_Ionization_Penalty_Charging>
1.17753e-07

> <r_epik_Ionization_Penalty_Neutral>
5.34845e-05

> <r_epik_State_Penalty>
-0

> <r_epik_Charging_Adjusted_Penalty>
1.17753e-07

> <i_epik_Tot_Q>
0

> <i_epik_Tot_abs_Q>
0

> <r_epik_Metal_State_Penalty>
-0

> <b_epik_Metal_Only>
0

> <s_lp_Force_Field>
OPLS_2005

> <r_lp_Energy>
24.1822

> <b_lp_Chiralities_Consistent>
1

> <s_lp_Variant>
AV-unprocessed.smi:2269-1

> <Gold.Version>
5.8.1

> <Gold.Id.Protein>
6NUR|6NUR_protein|mol2

> <Gold.PLP.Fitness>
50.4712

> <Gold.PLP.PLP>
-46.5384

> <Gold.PLP.part.hbond>
-2.0000

> <Gold.PLP.part.metal>
0.0000

> <Gold.PLP.part.buried>
-8.6407

> <Gold.PLP.part.nonpolar>
-36.2322

> <Gold.PLP.part.repulsive>
0.3102

> <Gold.PLP.ligand.clash>
0.0000

> <Gold.PLP.ligand.torsion>
0.8009

> <Gold.PLP.Chemscore.Hbond>
1.8000

> <Gold.PLP.Chemscore.CHOScore>
0.0000

> <Gold.PLP.Chemscore.Metal>
0.0000

> <Gold.Chemscore.Hbonds>
donor molecule, donor type, donor heavy atom, donor atom, acceptor molecule, acceptor atom, score
      L1  H     8    30       P1  7957  1.00
      P1  H  7989  7998       L1     8  0.75

> <Gold.PLP.Chemscore.Internal.Correction>
0.1346

> <Gold.Rescore>
     Score         DG    S(hbond)    S(metal)    S(lipo)     H(rot)  DE(clash)    DE(int)     intcor
     12.82     -17.11       1.34        0.00     116.10       2.52       0.31       3.98       ----

> <Gold.Chemscore.Fitness>
12.8168

> <Gold.Chemscore.DG>
-17.1073

> <Gold.Chemscore.ZeroCoef>
-5.4800

> <Gold.Chemscore.Hbond>
1.3427

> <Gold.Chemscore.Metal>
0.0000

> <Gold.Chemscore.Lipo>
116.1040

> <Gold.Chemscore.Internal_Hbond>
0.0000

> <Gold.Chemscore.DEClash>
0.3141

> <Gold.Chemscore.DEInternal>
3.9763

> <Gold.Chemscore.Rot>
2.5162

> <Gold.Chemscore.Internal.Correction>
   9.000000E+99

> <Gold.Chemscore.Hbonds>
donor molecule, donor type, donor heavy atom, donor atom, acceptor molecule, acceptor atom, score
      L1  H     8    30       P1  7957  0.99
      P1  H  7989  7998       L1     8  0.22

> <Gold.Chemscore.Hbond.Weighted>
-4.4845

> <Gold.Chemscore.Metal.Weighted>
-0.0000

> <Gold.Chemscore.Lipo.Weighted>
-13.5842

> <Gold.Chemscore.Internal_Hbond.Weighted>
0.0000

> <Gold.Chemscore.DEClash.Weighted>
0.3141

> <Gold.Chemscore.DEInternal.Weighted>
3.9763

> <Gold.Chemscore.Rot.Weighted>
6.4414

> <Gold.Chemscore.Internal.Correction.Weighted>
   9.000000E+99

> <Gold.Protein.RotatedTorsions>
[ 6907 6896 6895 6894 ] final  103.48 input  -60.11 | X-H torsion
[ 7974 7965 7964 7962 ] final   -4.44 input  175.53 | X-H torsion
[ 8008 7997 7996 7995 ] final -132.01 input   59.86 | X-H torsion
[ 10167 10162 10161 10158 ] final  -54.45 input  -65.29 | X-H torsion
[ 10718 10713 10712 10709 ] final -108.22 input   66.30 | X-H torsion
[ 10763 10752 10751 10750 ] final  -99.25 input  -60.55 | X-H torsion
[ 11005 11000 10999 10996 ] final  156.88 input  -57.11 | X-H torsion

> <Gold.Protein.ActiveResidues>
 VAL166  LYS551  ARG553  GLY616  TRP617  ASP618  TYR619  PRO620  LYS621  CYS622 
 ASP623  PHE694  ASN695  SER759  ASP760  ASP761  ALA762  ILE779  LEU786  VAL792 
 PHE793  MET794  SER795  GLU796  ALA797  LYS798  CYS799  TRP800  GLU811  SER814 

> <Gold.Protein.RotatedAtoms>
  152.5294  133.9819  159.7810 H   0  0  0  0  0  0  0  0  0  0  0  0  # atno 6907 bound_to 6896
  151.0071  133.5992  159.2694 H   0  0  0  0  0  0  0  0  0  0  0  0  # atno 6908 bound_to 6896
  151.3080  135.0793  159.9315 H   0  0  0  0  0  0  0  0  0  0  0  0  # atno 6909 bound_to 6896
  146.2372  140.1872  142.8332 H   0  0  0  0  0  0  0  0  0  0  0  0  # atno 7974 bound_to 7965
  155.3217  140.0462  157.3039 H   0  0  0  0  0  0  0  0  0  0  0  0  # atno 8008 bound_to 7997
  154.5376  140.2277  155.8662 H   0  0  0  0  0  0  0  0  0  0  0  0  # atno 8009 bound_to 7997
  156.1850  140.3064  155.9227 H   0  0  0  0  0  0  0  0  0  0  0  0  # atno 8010 bound_to 7997
  140.6430  143.2518  151.4938 H   0  0  0  0  0  0  0  0  0  0  0  0  # atno 10167 bound_to 10162
  156.0475  130.5702  150.7930 H   0  0  0  0  0  0  0  0  0  0  0  0  # atno 10718 bound_to 10713
  154.7482  135.4979  153.9241 H   0  0  0  0  0  0  0  0  0  0  0  0  # atno 10763 bound_to 10752
  153.1114  135.6710  153.9501 H   0  0  0  0  0  0  0  0  0  0  0  0  # atno 10764 bound_to 10752
  153.9259  135.3083  155.3426 H   0  0  0  0  0  0  0  0  0  0  0  0  # atno 10765 bound_to 10752
  140.1716  134.8539  157.2697 H   0  0  0  0  0  0  0  0  0  0  0  0  # atno 11005 bound_to 11000
  144.9887  140.8527  143.5353 LP  0  0  0  0  0  0  0  0  0  0  0  0  # atno 17320 bound_to 7965
  145.1875  139.2319  143.5260 LP  0  0  0  0  0  0  0  0  0  0  0  0  # atno 17321 bound_to 7965
  139.5639  144.2089  152.1735 LP  0  0  0  0  0  0  0  0  0  0  0  0  # atno 17342 bound_to 10162
  140.1365  144.5241  150.6770 LP  0  0  0  0  0  0  0  0  0  0  0  0  # atno 17343 bound_to 10162
  157.5365  131.0939  150.9885 LP  0  0  0  0  0  0  0  0  0  0  0  0  # atno 17370 bound_to 10713
  157.0178  130.5662  149.5328 LP  0  0  0  0  0  0  0  0  0  0  0  0  # atno 17371 bound_to 10713
  140.2370  134.3840  155.7496 LP  0  0  0  0  0  0  0  0  0  0  0  0  # atno 17394 bound_to 11000
  141.2218  133.7245  156.8730 LP  0  0  0  0  0  0  0  0  0  0  0  0  # atno 17395 bound_to 11000

$$$$
