AV-unprocessed.smi:72|AV-procd|sdf|734|dock8
  -GOLD-   2262017 63D 1   1.00000     0.00000
 Structure written by MMmdl.
 28 29  0  0  0  0  0  0  0  0  2 V2000
  153.9621  137.4815  156.1482 N   0  0  0  0  0  0  0  0  0  0  0  0
  152.9075  138.0500  155.7548 C   0  0  0  0  0  0  0  0  0  0  0  0
  152.0100  137.3643  154.8502 N   0  0  0  0  0  0  0  0  0  0  0  0
  150.9446  137.9952  154.4613 C   0  0  0  0  0  0  0  0  0  0  0  0
  150.6541  139.3534  154.9002 N   0  0  0  0  0  0  0  0  0  0  0  0
  149.4029  140.0779  154.4460 C   0  0  1  0  0  0  0  0  0  0  0  0
  148.7807  139.3401  153.4420 O   0  0  0  0  0  0  0  0  0  0  0  0
  147.3977  139.6544  153.4542 C   0  0  1  0  0  0  0  0  0  0  0  0
  146.6037  138.5669  152.7141 C   0  0  0  0  0  0  0  0  0  0  0  0
  147.1923  138.3033  151.4584 O   0  0  0  0  0  0  0  0  0  0  0  0
  147.0834  139.7277  154.9538 C   0  0  2  0  0  0  0  0  0  0  0  0
  145.9938  140.6002  155.1797 O   0  0  0  0  0  0  0  0  0  0  0  0
  148.3640  140.2890  155.5705 C   0  0  1  0  0  0  0  0  0  0  0  0
  148.6670  139.6166  156.7797 O   0  0  0  0  0  0  0  0  0  0  0  0
  151.5365  139.9916  155.8108 C   0  0  0  0  0  0  0  0  0  0  0  0
  151.2466  141.1216  156.2044 O   0  0  0  0  0  0  0  0  0  0  0  0
  152.6520  139.3230  156.2165 N   0  5  0  0  0  0  0  0  0  0  0  0
  149.7341  141.0164  153.9980 H   0  0  0  0  0  0  0  0  0  0  0  0
  147.2525  140.6343  152.9937 H   0  0  0  0  0  0  0  0  0  0  0  0
  146.8649  138.7316  155.3437 H   0  0  0  0  0  0  0  0  0  0  0  0
  148.2950  141.3610  155.7612 H   0  0  0  0  0  0  0  0  0  0  0  0
  154.5051  138.0560  156.7761 H   0  0  0  0  0  0  0  0  0  0  0  0
  150.2047  137.5517  153.7940 H   0  0  0  0  0  0  0  0  0  0  0  0
  146.5375  137.6526  153.3048 H   0  0  0  0  0  0  0  0  0  0  0  0
  145.5844  138.9077  152.5299 H   0  0  0  0  0  0  0  0  0  0  0  0
  147.9528  138.8556  151.3611 H   0  0  0  0  0  0  0  0  0  0  0  0
  145.3334  140.4290  154.5258 H   0  0  0  0  0  0  0  0  0  0  0  0
  148.3214  138.7379  156.7265 H   0  0  0  0  0  0  0  0  0  0  0  0
  1  2  2  0  0  0  0
  1 22  1  0  0  0  0
  2 17  1  0  0  0  0
  2  3  1  0  0  0  0
  3  4  2  0  0  0  0
  4  5  1  0  0  0  0
  4 23  1  0  0  0  0
  5  6  1  0  0  0  0
  5 15  1  0  0  0  0
  6 18  1  0  0  0  0
  6 13  1  0  0  0  0
  6  7  1  0  0  0  0
  7  8  1  0  0  0  0
  8 19  1  0  0  0  0
  8  9  1  0  0  0  0
  8 11  1  0  0  0  0
  9 10  1  0  0  0  0
  9 24  1  0  0  0  0
  9 25  1  0  0  0  0
 10 26  1  0  0  0  0
 11 20  1  0  0  0  0
 11 12  1  0  0  0  0
 11 13  1  0  0  0  0
 12 27  1  0  0  0  0
 13 21  1  0  0  0  0
 13 14  1  0  0  0  0
 14 28  1  0  0  0  0
 15 16  2  0  0  0  0
 15 17  1  0  0  0  0
M  CHG  1  17  -1
M  END
> <s_m_source_file>
AV-unprocessed.smi

> <i_m_source_file_index>
72

> <i_lp_mmshare_version>
43012

> <i_f3d_flags>
0

> <s_epik_input>
W05IMl1jMW5bY0hdbihjKD1PKW4xKVtDQEBIXTJPW0NASF0oW0NIMl1bT0hdKVtDQEBIXShbT0hdKVtDQEhdMltPSF0=

> <s_epik_cmdline>
J2VwaWtfcHl0aG9uJywgJy1waCcsICc3LjAnLCAnLXRuJywgJzgnLCAnLW1hJywgJzIwMCcsICctbWV0YWxfYmluZGluZycsICctaW1hZScsICc8aW5maWxlLm1hZT4nLCAnLW9tYWUnLCAnPG91dGZpbGUubWFlPic=

> <r_lp_tautomer_probability>
7.17554e-07

> <r_epik_Ionization_Penalty>
12.8705

> <r_epik_Ionization_Penalty_Charging>
5.64144

> <r_epik_Ionization_Penalty_Neutral>
7.22905

> <r_epik_State_Penalty>
3.30104

> <r_epik_Charging_Adjusted_Penalty>
8.94249

> <i_epik_Tot_Q>
-1

> <i_epik_Tot_abs_Q>
1

> <r_epik_Metal_State_Penalty>
0.529074

> <b_epik_Metal_Only>
1

> <s_epik_Chemistry_Notes>
This compound contains an acetal/aminal-like group ( X-CH(R)-Y where X, Y are N, S, or O) that may be acid/base labile, releasing an aldehyde.

> <s_lp_Force_Field>
OPLS_2005

> <r_lp_Energy>
37.9918

> <b_lp_Chiralities_Consistent>
1

> <s_lp_Variant>
AV-unprocessed.smi:72-72

> <Gold.Version>
5.8.1

> <Gold.Id.Protein>
6NUR|6NUR_protein|mol2

> <Gold.PLP.Fitness>
39.5995

> <Gold.PLP.PLP>
-25.1553

> <Gold.PLP.part.hbond>
-6.6451

> <Gold.PLP.part.metal>
0.0000

> <Gold.PLP.part.buried>
-4.5170

> <Gold.PLP.part.nonpolar>
-18.6263

> <Gold.PLP.part.repulsive>
4.5378

> <Gold.PLP.ligand.clash>
0.0000

> <Gold.PLP.ligand.torsion>
0.2282

> <Gold.PLP.Chemscore.Hbond>
3.8190

> <Gold.PLP.Chemscore.CHOScore>
1.0868

> <Gold.PLP.Chemscore.Metal>
0.0000

> <Gold.Chemscore.Hbonds>
donor molecule, donor type, donor heavy atom, donor atom, acceptor molecule, acceptor atom, score
      L1  H    10    26       P1  7957  1.00
      P1  H  7997  8008       L1    17  2.00
      P1  H 10752 10763       L1     1  0.09
      P1  H 10752 10765       L1     3  0.78
      L1  C     4    23       P1  7948  0.80

> <Gold.PLP.Chemscore.Internal.Correction>
0.1833

> <Gold.Rescore>
     Score         DG    S(hbond)    S(metal)    S(lipo)     H(rot)  DE(clash)    DE(int)     intcor
      2.92      -4.90       2.29        0.00      18.15       4.04       1.49       0.50       ----

> <Gold.Chemscore.Fitness>
2.9190

> <Gold.Chemscore.DG>
-4.9048

> <Gold.Chemscore.ZeroCoef>
-5.4800

> <Gold.Chemscore.Hbond>
2.2886

> <Gold.Chemscore.Metal>
0.0000

> <Gold.Chemscore.Lipo>
18.1528

> <Gold.Chemscore.Internal_Hbond>
0.0000

> <Gold.Chemscore.DEClash>
1.4872

> <Gold.Chemscore.DEInternal>
0.4985

> <Gold.Chemscore.Rot>
4.0403

> <Gold.Chemscore.Internal.Correction>
   9.000000E+99

> <Gold.Chemscore.Hbonds>
donor molecule, donor type, donor heavy atom, donor atom, acceptor molecule, acceptor atom, score
      L1  H    10    26       P1  7957  0.53
      P1  H  7997  8008       L1    17  0.44
      P1  H 10752 10763       L1     1  0.08
      P1  H 10752 10765       L1     3  0.44

> <Gold.Chemscore.Hbond.Weighted>
-7.6440

> <Gold.Chemscore.Metal.Weighted>
-0.0000

> <Gold.Chemscore.Lipo.Weighted>
-2.1239

> <Gold.Chemscore.Internal_Hbond.Weighted>
0.0000

> <Gold.Chemscore.DEClash.Weighted>
1.4872

> <Gold.Chemscore.DEInternal.Weighted>
0.4985

> <Gold.Chemscore.Rot.Weighted>
10.3431

> <Gold.Chemscore.Internal.Correction.Weighted>
   9.000000E+99

> <Gold.Protein.RotatedTorsions>
[ 6907 6896 6895 6894 ] final   22.47 input  -60.11 | X-H torsion
[ 7974 7965 7964 7962 ] final   71.61 input  175.53 | X-H torsion
[ 8008 7997 7996 7995 ] final  -40.83 input   59.86 | X-H torsion
[ 10167 10162 10161 10158 ] final   -6.10 input  -65.29 | X-H torsion
[ 10718 10713 10712 10709 ] final  -74.98 input   66.30 | X-H torsion
[ 10763 10752 10751 10750 ] final  156.77 input  -60.55 | X-H torsion
[ 11005 11000 10999 10996 ] final   -9.80 input  -57.11 | X-H torsion

> <Gold.Protein.ActiveResidues>
 VAL166  LYS551  ARG553  GLY616  TRP617  ASP618  TYR619  PRO620  LYS621  CYS622 
 ASP623  PHE694  ASN695  SER759  ASP760  ASP761  ALA762  ILE779  LEU786  VAL792 
 PHE793  MET794  SER795  GLU796  ALA797  LYS798  CYS799  TRP800  GLU811  SER814 

> <Gold.Protein.RotatedAtoms>
  151.9275  135.0271  160.0526 H   0  0  0  0  0  0  0  0  0  0  0  0  # atno 6907 bound_to 6896
  152.2146  133.4933  159.5137 H   0  0  0  0  0  0  0  0  0  0  0  0  # atno 6908 bound_to 6896
  150.6984  134.1339  159.4122 H   0  0  0  0  0  0  0  0  0  0  0  0  # atno 6909 bound_to 6896
  145.7637  139.2812  143.1361 H   0  0  0  0  0  0  0  0  0  0  0  0  # atno 7974 bound_to 7965
  154.4009  140.1515  156.3091 H   0  0  0  0  0  0  0  0  0  0  0  0  # atno 8008 bound_to 7997
  155.8631  140.3452  155.5748 H   0  0  0  0  0  0  0  0  0  0  0  0  # atno 8009 bound_to 7997
  155.7858  140.0849  157.2026 H   0  0  0  0  0  0  0  0  0  0  0  0  # atno 8010 bound_to 7997
  140.6986  143.6232  150.8592 H   0  0  0  0  0  0  0  0  0  0  0  0  # atno 10167 bound_to 10162
  156.0223  130.4430  150.2973 H   0  0  0  0  0  0  0  0  0  0  0  0  # atno 10718 bound_to 10713
  154.1896  135.2795  155.3026 H   0  0  0  0  0  0  0  0  0  0  0  0  # atno 10763 bound_to 10752
  154.5939  135.5551  153.7309 H   0  0  0  0  0  0  0  0  0  0  0  0  # atno 10764 bound_to 10752
  153.0116  135.6375  154.2035 H   0  0  0  0  0  0  0  0  0  0  0  0  # atno 10765 bound_to 10752
  140.7380  133.8694  155.8945 H   0  0  0  0  0  0  0  0  0  0  0  0  # atno 11005 bound_to 11000
  146.0239  140.8322  142.9909 LP  0  0  0  0  0  0  0  0  0  0  0  0  # atno 17320 bound_to 7965
  144.6825  140.2669  143.7311 LP  0  0  0  0  0  0  0  0  0  0  0  0  # atno 17321 bound_to 7965
  139.9952  143.5803  152.2896 LP  0  0  0  0  0  0  0  0  0  0  0  0  # atno 17342 bound_to 10162
  139.6473  144.7659  151.2218 LP  0  0  0  0  0  0  0  0  0  0  0  0  # atno 17343 bound_to 10162
  157.1076  131.0213  151.3061 LP  0  0  0  0  0  0  0  0  0  0  0  0  # atno 17370 bound_to 10713
  157.4730  130.7720  149.7341 LP  0  0  0  0  0  0  0  0  0  0  0  0  # atno 17371 bound_to 10713
  140.9862  134.1339  157.4450 LP  0  0  0  0  0  0  0  0  0  0  0  0  # atno 17394 bound_to 11000
  139.8812  135.0026  156.6137 LP  0  0  0  0  0  0  0  0  0  0  0  0  # atno 17395 bound_to 11000

$$$$
