AV-unprocessed.smi:153|AV-procd|sdf|1265|dock1
  -GOLD-   2262018513D 1   1.00000     0.00000
 Structure written by MMmdl.
 59 62  0  0  0  0  0  0  0  0  1 V2000
  152.6111  142.1573  160.0857 C   0  0  0  0  0  0  0  0  0  0  0  0
  151.6170  143.3183  159.9199 C   0  0  1  0  0  0  0  0  0  0  0  0
  152.1916  144.4004  160.6562 O   0  0  0  0  0  0  0  0  0  0  0  0
  152.1873  145.5918  159.8860 C   0  0  0  0  0  0  0  0  0  0  0  0
  152.2807  145.0944  158.4510 C   0  0  0  0  0  0  0  0  0  0  0  0
  151.4034  143.8511  158.4751 C   0  0  2  0  0  0  0  0  0  0  0  0
  150.0582  144.2850  158.3647 O   0  0  0  0  0  0  0  0  0  0  0  0
  151.6954  142.8968  157.2837 C   0  0  0  0  0  0  0  0  0  0  0  0
  150.9180  141.6613  157.2535 N   0  0  0  0  0  0  0  0  0  0  0  0
  149.5989  141.4972  156.8902 C   0  0  0  0  0  0  0  0  0  0  0  0
  149.1566  140.2715  156.9358 N   0  0  0  0  0  0  0  0  0  0  0  0
  150.2539  139.5194  157.3379 C   0  0  0  0  0  0  0  0  0  0  0  0
  150.4802  138.1319  157.5867 C   0  0  0  0  0  0  0  0  0  0  0  0
  149.5160  137.1727  157.5021 N   0  0  0  0  0  0  0  0  0  0  0  0
  148.2336  137.5351  156.9026 C   0  0  0  0  0  0  0  0  0  0  0  0
  149.9430  135.7786  157.3776 C   0  0  0  0  0  0  0  0  0  0  0  0
  150.3110  135.3756  155.9312 C   0  0  1  0  0  0  0  0  0  0  0  0
  151.3433  136.1975  155.4229 O   0  0  0  0  0  0  0  0  0  0  0  0
  150.7386  133.8968  155.7930 C   0  0  0  0  0  0  0  0  0  0  0  0
  149.7128  132.9501  155.3434 N   0  0  0  0  0  0  0  0  0  0  0  0
  150.1482  131.5565  155.4130 C   0  0  0  0  0  0  0  0  0  0  0  0
  149.0634  130.5892  154.9079 C   0  0  0  0  0  0  0  0  0  0  0  0
  148.6887  130.9383  153.5796 O   0  0  0  0  0  0  0  0  0  0  0  0
  148.2123  132.2758  153.4792 C   0  0  0  0  0  0  0  0  0  0  0  0
  149.2978  133.2459  153.9760 C   0  0  0  0  0  0  0  0  0  0  0  0
  151.7439  137.7674  157.9356 N   0  0  0  0  0  0  0  0  0  0  0  0
  152.7098  138.6812  158.0553 C   0  0  0  0  0  0  0  0  0  0  0  0
  152.6355  139.9995  157.8750 N   0  0  0  0  0  0  0  0  0  0  0  0
  151.3767  140.3794  157.5131 C   0  0  0  0  0  0  0  0  0  0  0  0
  152.2060  141.2198  159.7115 H   0  0  0  0  0  0  0  0  0  0  0  0
  152.8388  141.9968  161.1396 H   0  0  0  0  0  0  0  0  0  0  0  0
  153.5518  142.3576  159.5721 H   0  0  0  0  0  0  0  0  0  0  0  0
  150.6680  143.0359  160.3788 H   0  0  0  0  0  0  0  0  0  0  0  0
  151.2521  146.1275  160.0541 H   0  0  0  0  0  0  0  0  0  0  0  0
  153.0125  146.2495  160.1599 H   0  0  0  0  0  0  0  0  0  0  0  0
  151.9690  145.8397  157.7181 H   0  0  0  0  0  0  0  0  0  0  0  0
  153.3147  144.8238  158.2324 H   0  0  0  0  0  0  0  0  0  0  0  0
  149.8007  144.2356  157.4570 H   0  0  0  0  0  0  0  0  0  0  0  0
  151.5286  143.4170  156.3398 H   0  0  0  0  0  0  0  0  0  0  0  0
  152.7530  142.6322  157.2878 H   0  0  0  0  0  0  0  0  0  0  0  0
  148.9598  142.3115  156.5849 H   0  0  0  0  0  0  0  0  0  0  0  0
  147.8315  138.4391  157.3618 H   0  0  0  0  0  0  0  0  0  0  0  0
  147.5015  136.7406  157.0471 H   0  0  0  0  0  0  0  0  0  0  0  0
  148.3392  137.7067  155.8309 H   0  0  0  0  0  0  0  0  0  0  0  0
  150.7388  135.5268  158.0749 H   0  0  0  0  0  0  0  0  0  0  0  0
  149.0972  135.1688  157.6974 H   0  0  0  0  0  0  0  0  0  0  0  0
  149.4476  135.5222  155.2813 H   0  0  0  0  0  0  0  0  0  0  0  0
  151.4937  136.9002  156.0365 H   0  0  0  0  0  0  0  0  0  0  0  0
  151.5451  133.8827  155.0587 H   0  0  0  0  0  0  0  0  0  0  0  0
  151.1923  133.5490  156.7226 H   0  0  0  0  0  0  0  0  0  0  0  0
  151.0566  131.4219  154.8240 H   0  0  0  0  0  0  0  0  0  0  0  0
  150.3953  131.2868  156.4388 H   0  0  0  0  0  0  0  0  0  0  0  0
  149.4350  129.5645  154.9156 H   0  0  0  0  0  0  0  0  0  0  0  0
  148.1885  130.6179  155.5596 H   0  0  0  0  0  0  0  0  0  0  0  0
  147.9608  132.4882  152.4403 H   0  0  0  0  0  0  0  0  0  0  0  0
  147.2964  132.3891  154.0615 H   0  0  0  0  0  0  0  0  0  0  0  0
  148.9191  134.2669  153.9161 H   0  0  0  0  0  0  0  0  0  0  0  0
  150.1593  133.1939  153.3083 H   0  0  0  0  0  0  0  0  0  0  0  0
  153.6795  138.3016  158.3417 H   0  0  0  0  0  0  0  0  0  0  0  0
  1  2  1  0  0  0  0
  1 30  1  0  0  0  0
  1 31  1  0  0  0  0
  1 32  1  0  0  0  0
  2  6  1  0  0  0  0
  2  3  1  0  0  0  0
  2 33  1  0  0  0  0
  3  4  1  0  0  0  0
  4  5  1  0  0  0  0
  4 34  1  0  0  0  0
  4 35  1  0  0  0  0
  5  6  1  0  0  0  0
  5 36  1  0  0  0  0
  5 37  1  0  0  0  0
  6  7  1  0  0  0  0
  6  8  1  0  0  0  0
  7 38  1  0  0  0  0
  8  9  1  0  0  0  0
  8 39  1  0  0  0  0
  8 40  1  0  0  0  0
  9 29  1  0  0  0  0
  9 10  1  0  0  0  0
 10 11  2  0  0  0  0
 10 41  1  0  0  0  0
 11 12  1  0  0  0  0
 12 29  2  0  0  0  0
 12 13  1  0  0  0  0
 13 14  1  0  0  0  0
 13 26  2  0  0  0  0
 14 15  1  0  0  0  0
 14 16  1  0  0  0  0
 15 42  1  0  0  0  0
 15 43  1  0  0  0  0
 15 44  1  0  0  0  0
 16 17  1  0  0  0  0
 16 45  1  0  0  0  0
 16 46  1  0  0  0  0
 17 18  1  0  0  0  0
 17 19  1  0  0  0  0
 17 47  1  0  0  0  0
 18 48  1  0  0  0  0
 19 20  1  0  0  0  0
 19 49  1  0  0  0  0
 19 50  1  0  0  0  0
 20 25  1  0  0  0  0
 20 21  1  0  0  0  0
 21 22  1  0  0  0  0
 21 51  1  0  0  0  0
 21 52  1  0  0  0  0
 22 23  1  0  0  0  0
 22 53  1  0  0  0  0
 22 54  1  0  0  0  0
 23 24  1  0  0  0  0
 24 25  1  0  0  0  0
 24 55  1  0  0  0  0
 24 56  1  0  0  0  0
 25 57  1  0  0  0  0
 25 58  1  0  0  0  0
 26 27  1  0  0  0  0
 27 28  2  0  0  0  0
 27 59  1  0  0  0  0
 28 29  1  0  0  0  0
M  END
> <s_m_source_file>
AV-unprocessed.smi

> <i_m_source_file_index>
153

> <i_lp_mmshare_version>
43012

> <i_f3d_flags>
0

> <s_epik_input>
W0NIMl0xW0NIMl1PW0NAQEhdKFtDSDNdKVtDQEBdMShbT0hdKVtDSDJdbihbY0hdbjIpYyhjMjMpbltjSF1uYzNOKFtDSDNdKVtDSDJdW0NASF0oW09IXSlbQ0gyXU40W0NIMl1bQ0gyXU9bQ0gyXVtDSDJdNA==

> <s_epik_cmdline>
J2VwaWtfcHl0aG9uJywgJy1waCcsICc3LjAnLCAnLXRuJywgJzgnLCAnLW1hJywgJzIwMCcsICctbWV0YWxfYmluZGluZycsICctaW1hZScsICc8aW5maWxlLm1hZT4nLCAnLW9tYWUnLCAnPG91dGZpbGUubWFlPic=

> <r_lp_tautomer_probability>
1

> <r_epik_Ionization_Penalty>
0.424123

> <r_epik_Ionization_Penalty_Charging>
0

> <r_epik_Ionization_Penalty_Neutral>
0.424123

> <r_epik_State_Penalty>
0.421495

> <r_epik_Charging_Adjusted_Penalty>
0.421495

> <i_epik_Tot_Q>
0

> <i_epik_Tot_abs_Q>
0

> <r_epik_Metal_State_Penalty>
0.421223

> <b_epik_Metal_Only>
0

> <s_lp_Force_Field>
OPLS_2005

> <r_lp_Energy>
59.9447

> <b_lp_Chiralities_Consistent>
1

> <s_lp_Variant>
AV-unprocessed.smi:153-16

> <Gold.Version>
5.8.1

> <Gold.Id.Protein>
6NUR|6NUR_protein|mol2

> <Gold.PLP.Fitness>
54.2305

> <Gold.PLP.PLP>
-45.0049

> <Gold.PLP.part.hbond>
-4.0000

> <Gold.PLP.part.metal>
0.0000

> <Gold.PLP.part.buried>
-8.0926

> <Gold.PLP.part.nonpolar>
-33.0017

> <Gold.PLP.part.repulsive>
0.6768

> <Gold.PLP.ligand.clash>
0.0000

> <Gold.PLP.ligand.torsion>
1.0463

> <Gold.PLP.Chemscore.Hbond>
2.5440

> <Gold.PLP.Chemscore.CHOScore>
1.0000

> <Gold.PLP.Chemscore.Metal>
0.0000

> <Gold.Chemscore.Hbonds>
donor molecule, donor type, donor heavy atom, donor atom, acceptor molecule, acceptor atom, score
      L1  H     7    38       P1  8028  0.96
      P1  H  7997  8010       L1    28  0.51
      P1  H 10752 10763       L1    18  1.00
      L1  C    10    41       P1  8028  0.88

> <Gold.PLP.Chemscore.Internal.Correction>
0.6861

> <Gold.Rescore>
     Score         DG    S(hbond)    S(metal)    S(lipo)     H(rot)  DE(clash)    DE(int)     intcor
      9.21     -13.38       1.43        0.00     103.53       3.52       0.69       3.48       ----

> <Gold.Chemscore.Fitness>
9.2136

> <Gold.Chemscore.DG>
-13.3774

> <Gold.Chemscore.ZeroCoef>
-5.4800

> <Gold.Chemscore.Hbond>
1.4335

> <Gold.Chemscore.Metal>
0.0000

> <Gold.Chemscore.Lipo>
103.5312

> <Gold.Chemscore.Internal_Hbond>
0.0000

> <Gold.Chemscore.DEClash>
0.6850

> <Gold.Chemscore.DEInternal>
3.4788

> <Gold.Chemscore.Rot>
3.5170

> <Gold.Chemscore.Internal.Correction>
   9.000000E+99

> <Gold.Chemscore.Hbonds>
donor molecule, donor type, donor heavy atom, donor atom, acceptor molecule, acceptor atom, score
      L1  H     7    38       P1  8028  0.31
      P1  H  7997  8010       L1    28  0.06
      P1  H 10752 10763       L1    18  0.78

> <Gold.Chemscore.Hbond.Weighted>
-4.7879

> <Gold.Chemscore.Metal.Weighted>
-0.0000

> <Gold.Chemscore.Lipo.Weighted>
-12.1132

> <Gold.Chemscore.Internal_Hbond.Weighted>
0.0000

> <Gold.Chemscore.DEClash.Weighted>
0.6850

> <Gold.Chemscore.DEInternal.Weighted>
3.4788

> <Gold.Chemscore.Rot.Weighted>
9.0036

> <Gold.Chemscore.Internal.Correction.Weighted>
   9.000000E+99

> <Gold.Protein.RotatedTorsions>
[ 6907 6896 6895 6894 ] final  138.86 input  -60.11 | X-H torsion
[ 7974 7965 7964 7962 ] final  -78.68 input  175.53 | X-H torsion
[ 8008 7997 7996 7995 ] final   62.41 input   59.86 | X-H torsion
[ 10167 10162 10161 10158 ] final -149.35 input  -65.29 | X-H torsion
[ 10718 10713 10712 10709 ] final   17.20 input   66.30 | X-H torsion
[ 10763 10752 10751 10750 ] final   67.35 input  -60.55 | X-H torsion
[ 11005 11000 10999 10996 ] final -137.26 input  -57.11 | X-H torsion

> <Gold.Protein.ActiveResidues>
 VAL166  LYS551  ARG553  GLY616  TRP617  ASP618  TYR619  PRO620  LYS621  CYS622 
 ASP623  PHE694  ASN695  SER759  ASP760  ASP761  ALA762  ILE779  LEU786  VAL792 
 PHE793  MET794  SER795  GLU796  ALA797  LYS798  CYS799  TRP800  GLU811  SER814 

> <Gold.Protein.RotatedAtoms>
  152.2616  133.5303  159.5385 H   0  0  0  0  0  0  0  0  0  0  0  0  # atno 6907 bound_to 6896
  150.7127  134.0821  159.3910 H   0  0  0  0  0  0  0  0  0  0  0  0  # atno 6908 bound_to 6896
  151.8739  135.0479  160.0533 H   0  0  0  0  0  0  0  0  0  0  0  0  # atno 6909 bound_to 6896
  145.5832  140.9444  143.1332 H   0  0  0  0  0  0  0  0  0  0  0  0  # atno 7974 bound_to 7965
  155.6139  140.3495  155.4631 H   0  0  0  0  0  0  0  0  0  0  0  0  # atno 8008 bound_to 7997
  156.0133  140.1238  157.0456 H   0  0  0  0  0  0  0  0  0  0  0  0  # atno 8009 bound_to 7997
  154.4288  140.1077  156.5846 H   0  0  0  0  0  0  0  0  0  0  0  0  # atno 8010 bound_to 7997
  139.7450  143.8604  152.2572 H   0  0  0  0  0  0  0  0  0  0  0  0  # atno 10167 bound_to 10162
  157.0787  130.6378  149.5821 H   0  0  0  0  0  0  0  0  0  0  0  0  # atno 10718 bound_to 10713
  153.0182  135.5287  154.6966 H   0  0  0  0  0  0  0  0  0  0  0  0  # atno 10763 bound_to 10752
  154.6086  135.2876  155.0459 H   0  0  0  0  0  0  0  0  0  0  0  0  # atno 10764 bound_to 10752
  154.1489  135.6566  153.5011 H   0  0  0  0  0  0  0  0  0  0  0  0  # atno 10765 bound_to 10752
  140.8727  134.2030  157.4641 H   0  0  0  0  0  0  0  0  0  0  0  0  # atno 11005 bound_to 11000
  144.7384  139.7518  143.7320 LP  0  0  0  0  0  0  0  0  0  0  0  0  # atno 17320 bound_to 7965
  146.1701  139.4848  142.9933 LP  0  0  0  0  0  0  0  0  0  0  0  0  # atno 17321 bound_to 7965
  139.8566  144.7138  150.9150 LP  0  0  0  0  0  0  0  0  0  0  0  0  # atno 17342 bound_to 10162
  140.7791  143.3853  151.1404 LP  0  0  0  0  0  0  0  0  0  0  0  0  # atno 17343 bound_to 10162
  155.9930  130.4989  150.7361 LP  0  0  0  0  0  0  0  0  0  0  0  0  # atno 17370 bound_to 10713
  157.4818  131.0903  151.0527 LP  0  0  0  0  0  0  0  0  0  0  0  0  # atno 17371 bound_to 10713
  139.8713  134.9782  156.4987 LP  0  0  0  0  0  0  0  0  0  0  0  0  # atno 17394 bound_to 11000
  140.8554  133.8100  155.9210 LP  0  0  0  0  0  0  0  0  0  0  0  0  # atno 17395 bound_to 11000

$$$$
