AV-unprocessed.smi:262|AV-procd|sdf|1999|dock2
  -GOLD-   2262021193D 1   1.00000     0.00000
 Structure written by MMmdl.
 60 64  0  0  0  0  0  0  0  0  2 V2000
  149.7928  142.7413  158.4242 O   0  0  0  0  0  0  0  0  0  0  0  0
  151.0372  142.5385  157.7763 C   0  0  0  0  0  0  0  0  0  0  0  0
  150.7736  141.7107  156.4939 C   0  0  0  0  0  0  0  0  0  0  0  0
  150.4781  140.3077  156.7431 N   0  0  0  0  0  0  0  0  0  0  0  0
  149.9251  139.7731  157.8858 C   0  0  0  0  0  0  0  0  0  0  0  0
  149.7515  138.4790  157.8689 N   0  0  0  0  0  0  0  0  0  0  0  0
  150.2135  138.0958  156.6169 C   0  0  0  0  0  0  0  0  0  0  0  0
  150.3164  136.8515  155.9429 C   0  0  0  0  0  0  0  0  0  0  0  0
  149.9089  135.6967  156.5131 N   0  0  0  0  0  0  0  0  0  0  0  0
  148.4729  135.4442  156.4743 C   0  0  0  0  0  0  0  0  0  0  0  0
  148.0625  134.6399  155.2259 C   0  0  0  0  0  0  0  0  0  0  0  0
  148.8877  133.4107  155.0829 N   0  3  0  0  0  0  0  0  0  0  0  0
  148.4867  132.5489  153.9407 C   0  0  0  0  0  0  0  0  0  0  0  0
  148.5737  131.0418  154.2560 C   0  0  2  0  0  0  0  0  0  0  0  0
  149.9841  130.4879  154.3145 C   0  0  0  0  0  0  0  0  0  0  0  0
  149.7438  128.9908  154.1418 C   0  0  0  0  0  0  0  0  0  0  0  0
  148.5717  128.8743  153.3401 O   0  0  0  0  0  0  0  0  0  0  0  0
  147.9644  130.1515  153.1729 C   0  0  0  0  0  0  0  0  0  0  0  0
  150.3400  133.7249  155.0588 C   0  0  0  0  0  0  0  0  0  0  0  0
  150.7642  134.5347  156.2993 C   0  0  0  0  0  0  0  0  0  0  0  0
  150.8356  136.8461  154.6882 N   0  0  0  0  0  0  0  0  0  0  0  0
  151.2264  137.9938  154.1246 C   0  0  0  0  0  0  0  0  0  0  0  0
  151.1860  139.2287  154.6306 N   0  0  0  0  0  0  0  0  0  0  0  0
  150.6696  139.2320  155.8933 C   0  0  0  0  0  0  0  0  0  0  0  0
  151.6253  143.9165  157.4124 C   0  0  0  0  0  0  0  0  0  0  0  0
  152.0657  144.7081  158.6569 C   0  0  0  0  0  0  0  0  0  0  0  0
  152.9872  143.9401  159.4210 O   0  0  0  0  0  0  0  0  0  0  0  0
  152.4152  142.7389  159.9237 C   0  0  0  0  0  0  0  0  0  0  0  0
  151.9916  141.8260  158.7595 C   0  0  0  0  0  0  0  0  0  0  0  0
  149.8858  143.4556  159.0359 H   0  0  0  0  0  0  0  0  0  0  0  0
  149.9407  142.1379  155.9334 H   0  0  0  0  0  0  0  0  0  0  0  0
  151.6389  141.7613  155.8316 H   0  0  0  0  0  0  0  0  0  0  0  0
  149.6553  140.3780  158.7396 H   0  0  0  0  0  0  0  0  0  0  0  0
  148.2042  134.8890  157.3737 H   0  0  0  0  0  0  0  0  0  0  0  0
  147.9207  136.3843  156.5159 H   0  0  0  0  0  0  0  0  0  0  0  0
  147.0069  134.3881  155.3128 H   0  0  0  0  0  0  0  0  0  0  0  0
  148.1649  135.2514  154.3284 H   0  0  0  0  0  0  0  0  0  0  0  0
  147.4761  132.8116  153.6246 H   0  0  0  0  0  0  0  0  0  0  0  0
  149.1379  132.7616  153.0913 H   0  0  0  0  0  0  0  0  0  0  0  0
  148.0641  130.8148  155.1924 H   0  0  0  0  0  0  0  0  0  0  0  0
  150.5798  130.8686  153.4834 H   0  0  0  0  0  0  0  0  0  0  0  0
  150.5015  130.7264  155.2441 H   0  0  0  0  0  0  0  0  0  0  0  0
  150.5933  128.4833  153.6843 H   0  0  0  0  0  0  0  0  0  0  0  0
  149.5498  128.5230  155.1077 H   0  0  0  0  0  0  0  0  0  0  0  0
  146.8783  130.0877  153.2447 H   0  0  0  0  0  0  0  0  0  0  0  0
  148.2150  130.5214  152.1776 H   0  0  0  0  0  0  0  0  0  0  0  0
  150.9190  132.8015  155.0215 H   0  0  0  0  0  0  0  0  0  0  0  0
  150.5736  134.2772  154.1477 H   0  0  0  0  0  0  0  0  0  0  0  0
  151.8072  134.8431  156.2108 H   0  0  0  0  0  0  0  0  0  0  0  0
  150.7039  133.9055  157.1879 H   0  0  0  0  0  0  0  0  0  0  0  0
  151.6289  137.9124  153.1253 H   0  0  0  0  0  0  0  0  0  0  0  0
  152.4946  143.7782  156.7681 H   0  0  0  0  0  0  0  0  0  0  0  0
  150.9074  144.4991  156.8339 H   0  0  0  0  0  0  0  0  0  0  0  0
  152.5513  145.6360  158.3538 H   0  0  0  0  0  0  0  0  0  0  0  0
  151.2083  144.9872  159.2713 H   0  0  0  0  0  0  0  0  0  0  0  0
  153.1557  142.2316  160.5422 H   0  0  0  0  0  0  0  0  0  0  0  0
  151.5681  142.9691  160.5717 H   0  0  0  0  0  0  0  0  0  0  0  0
  151.5371  140.9172  159.1552 H   0  0  0  0  0  0  0  0  0  0  0  0
  152.8885  141.5126  158.2237 H   0  0  0  0  0  0  0  0  0  0  0  0
  148.7370  132.8634  155.9181 H   0  0  0  0  0  0  0  0  0  0  0  0
  1  2  1  0  0  0  0
  1 30  1  0  0  0  0
  2 29  1  0  0  0  0
  2  3  1  0  0  0  0
  2 25  1  0  0  0  0
  3  4  1  0  0  0  0
  3 31  1  0  0  0  0
  3 32  1  0  0  0  0
  4 24  1  0  0  0  0
  4  5  1  0  0  0  0
  5  6  2  0  0  0  0
  5 33  1  0  0  0  0
  6  7  1  0  0  0  0
  7 24  2  0  0  0  0
  7  8  1  0  0  0  0
  8  9  1  0  0  0  0
  8 21  2  0  0  0  0
  9 20  1  0  0  0  0
  9 10  1  0  0  0  0
 10 11  1  0  0  0  0
 10 34  1  0  0  0  0
 10 35  1  0  0  0  0
 11 12  1  0  0  0  0
 11 36  1  0  0  0  0
 11 37  1  0  0  0  0
 12 13  1  0  0  0  0
 12 19  1  0  0  0  0
 12 60  1  0  0  0  0
 13 14  1  0  0  0  0
 13 38  1  0  0  0  0
 13 39  1  0  0  0  0
 14 18  1  0  0  0  0
 14 15  1  0  0  0  0
 14 40  1  0  0  0  0
 15 16  1  0  0  0  0
 15 41  1  0  0  0  0
 15 42  1  0  0  0  0
 16 17  1  0  0  0  0
 16 43  1  0  0  0  0
 16 44  1  0  0  0  0
 17 18  1  0  0  0  0
 18 45  1  0  0  0  0
 18 46  1  0  0  0  0
 19 20  1  0  0  0  0
 19 47  1  0  0  0  0
 19 48  1  0  0  0  0
 20 49  1  0  0  0  0
 20 50  1  0  0  0  0
 21 22  1  0  0  0  0
 22 23  2  0  0  0  0
 22 51  1  0  0  0  0
 23 24  1  0  0  0  0
 25 26  1  0  0  0  0
 25 52  1  0  0  0  0
 25 53  1  0  0  0  0
 26 27  1  0  0  0  0
 26 54  1  0  0  0  0
 26 55  1  0  0  0  0
 27 28  1  0  0  0  0
 28 29  1  0  0  0  0
 28 56  1  0  0  0  0
 28 57  1  0  0  0  0
 29 58  1  0  0  0  0
 29 59  1  0  0  0  0
M  CHG  1  12   1
M  END
> <s_m_source_file>
AV-unprocessed.smi

> <i_m_source_file_index>
262

> <i_lp_mmshare_version>
43012

> <i_f3d_flags>
0

> <s_epik_input>
W0NIMl0xW0NIMl1PW0NIMl1bQ0gyXUMxKFtPSF0pW0NIMl1uKFtjSF1uMiljKGMyMyluW2NIXW5jM040W0NIMl1bQ0gyXU4oW0NIMl1bQ0gyXTQpW0NIMl1bQ0BASF01W0NIMl1bQ0gyXU9bQ0gyXTU=

> <s_epik_cmdline>
J2VwaWtfcHl0aG9uJywgJy1waCcsICc3LjAnLCAnLXRuJywgJzgnLCAnLW1hJywgJzIwMCcsICctbWV0YWxfYmluZGluZycsICctaW1hZScsICc8aW5maWxlLm1hZT4nLCAnLW9tYWUnLCAnPG91dGZpbGUubWFlPic=

> <r_lp_tautomer_probability>
1

> <r_epik_Ionization_Penalty>
0.010889

> <r_epik_Ionization_Penalty_Charging>
0.0108222

> <r_epik_Ionization_Penalty_Neutral>
6.6801e-05

> <r_epik_State_Penalty>
0.00829663

> <r_epik_Charging_Adjusted_Penalty>
0.0191189

> <i_epik_Tot_Q>
1

> <i_epik_Tot_abs_Q>
1

> <r_epik_Metal_State_Penalty>
0.00842341

> <b_epik_Metal_Only>
0

> <s_lp_Force_Field>
OPLS_2005

> <r_lp_Energy>
57.8888

> <b_lp_Chiralities_Consistent>
1

> <s_lp_Variant>
AV-unprocessed.smi:262-1

> <Gold.Version>
5.8.1

> <Gold.Id.Protein>
6NUR|6NUR_protein|mol2

> <Gold.PLP.Fitness>
46.7254

> <Gold.PLP.PLP>
-43.6350

> <Gold.PLP.part.hbond>
-1.0000

> <Gold.PLP.part.metal>
0.0000

> <Gold.PLP.part.buried>
-6.8053

> <Gold.PLP.part.nonpolar>
-36.3663

> <Gold.PLP.part.repulsive>
0.4174

> <Gold.PLP.ligand.clash>
0.0000

> <Gold.PLP.ligand.torsion>
1.5578

> <Gold.PLP.Chemscore.Hbond>
1.0000

> <Gold.PLP.Chemscore.CHOScore>
0.8965

> <Gold.PLP.Chemscore.Metal>
0.0000

> <Gold.Chemscore.Hbonds>
donor molecule, donor type, donor heavy atom, donor atom, acceptor molecule, acceptor atom, score
      P1  H  7989  7998       L1    23  0.99
      L1  C    22    51       P1  7949  0.85

> <Gold.PLP.Chemscore.Internal.Correction>
0.5166

> <Gold.Rescore>
     Score         DG    S(hbond)    S(metal)    S(lipo)     H(rot)  DE(clash)    DE(int)     intcor
     11.39     -14.38       0.90        0.00     105.72       2.53       0.07       2.92       ----

> <Gold.Chemscore.Fitness>
11.3881

> <Gold.Chemscore.DG>
-14.3835

> <Gold.Chemscore.ZeroCoef>
-5.4800

> <Gold.Chemscore.Hbond>
0.9005

> <Gold.Chemscore.Metal>
0.0000

> <Gold.Chemscore.Lipo>
105.7227

> <Gold.Chemscore.Internal_Hbond>
0.0000

> <Gold.Chemscore.DEClash>
0.0710

> <Gold.Chemscore.DEInternal>
2.9244

> <Gold.Chemscore.Rot>
2.5288

> <Gold.Chemscore.Internal.Correction>
   9.000000E+99

> <Gold.Chemscore.Hbonds>
donor molecule, donor type, donor heavy atom, donor atom, acceptor molecule, acceptor atom, score
      P1  H  7989  7998       L1    23  0.91

> <Gold.Chemscore.Hbond.Weighted>
-3.0078

> <Gold.Chemscore.Metal.Weighted>
-0.0000

> <Gold.Chemscore.Lipo.Weighted>
-12.3696

> <Gold.Chemscore.Internal_Hbond.Weighted>
0.0000

> <Gold.Chemscore.DEClash.Weighted>
0.0710

> <Gold.Chemscore.DEInternal.Weighted>
2.9244

> <Gold.Chemscore.Rot.Weighted>
6.4738

> <Gold.Chemscore.Internal.Correction.Weighted>
   9.000000E+99

> <Gold.Protein.RotatedTorsions>
[ 6907 6896 6895 6894 ] final  -34.47 input  -60.11 | X-H torsion
[ 7974 7965 7964 7962 ] final   62.33 input  175.53 | X-H torsion
[ 8008 7997 7996 7995 ] final   22.84 input   59.86 | X-H torsion
[ 10167 10162 10161 10158 ] final  138.76 input  -65.29 | X-H torsion
[ 10718 10713 10712 10709 ] final -142.94 input   66.30 | X-H torsion
[ 10763 10752 10751 10750 ] final -117.27 input  -60.55 | X-H torsion
[ 11005 11000 10999 10996 ] final   -4.99 input  -57.11 | X-H torsion

> <Gold.Protein.ActiveResidues>
 VAL166  LYS551  ARG553  GLY616  TRP617  ASP618  TYR619  PRO620  LYS621  CYS622 
 ASP623  PHE694  ASN695  SER759  ASP760  ASP761  ALA762  ILE779  LEU786  VAL792 
 PHE793  MET794  SER795  GLU796  ALA797  LYS798  CYS799  TRP800  GLU811  SER814 

> <Gold.Protein.RotatedAtoms>
  151.0522  134.9680  159.8216 H   0  0  0  0  0  0  0  0  0  0  0  0  # atno 6907 bound_to 6896
  152.5382  134.2523  159.8913 H   0  0  0  0  0  0  0  0  0  0  0  0  # atno 6908 bound_to 6896
  151.2539  133.4293  159.2646 H   0  0  0  0  0  0  0  0  0  0  0  0  # atno 6909 bound_to 6896
  145.8746  139.3401  143.0742 H   0  0  0  0  0  0  0  0  0  0  0  0  # atno 7974 bound_to 7965
  154.9718  140.3091  155.4985 H   0  0  0  0  0  0  0  0  0  0  0  0  # atno 8008 bound_to 7997
  156.2965  140.2282  156.4750 H   0  0  0  0  0  0  0  0  0  0  0  0  # atno 8009 bound_to 7997
  154.7870  140.0442  157.1160 H   0  0  0  0  0  0  0  0  0  0  0  0  # atno 8010 bound_to 7997
  139.5100  144.6334  151.5758 H   0  0  0  0  0  0  0  0  0  0  0  0  # atno 10167 bound_to 10162
  156.3519  130.7692  151.1846 H   0  0  0  0  0  0  0  0  0  0  0  0  # atno 10718 bound_to 10713
  154.8549  135.4316  154.1953 H   0  0  0  0  0  0  0  0  0  0  0  0  # atno 10763 bound_to 10752
  153.3012  135.6969  153.7207 H   0  0  0  0  0  0  0  0  0  0  0  0  # atno 10764 bound_to 10752
  153.6337  135.3480  155.3024 H   0  0  0  0  0  0  0  0  0  0  0  0  # atno 10765 bound_to 10752
  140.6863  133.9109  155.8588 H   0  0  0  0  0  0  0  0  0  0  0  0  # atno 11005 bound_to 11000
  145.9097  140.9188  143.0460 LP  0  0  0  0  0  0  0  0  0  0  0  0  # atno 17320 bound_to 7965
  144.6726  140.1143  143.7453 LP  0  0  0  0  0  0  0  0  0  0  0  0  # atno 17321 bound_to 7965
  140.6075  143.9497  150.6429 LP  0  0  0  0  0  0  0  0  0  0  0  0  # atno 17342 bound_to 10162
  140.2729  143.3443  152.1221 LP  0  0  0  0  0  0  0  0  0  0  0  0  # atno 17343 bound_to 10162
  157.7462  131.0425  150.4698 LP  0  0  0  0  0  0  0  0  0  0  0  0  # atno 17370 bound_to 10713
  156.4894  130.4092  149.6415 LP  0  0  0  0  0  0  0  0  0  0  0  0  # atno 17371 bound_to 10713
  141.0277  134.0800  157.4050 LP  0  0  0  0  0  0  0  0  0  0  0  0  # atno 17394 bound_to 11000
  139.8936  135.0131  156.6910 LP  0  0  0  0  0  0  0  0  0  0  0  0  # atno 17395 bound_to 11000

$$$$
