AV-unprocessed.smi:2527|AV-procd|sdf|9947|dock7
  -GOLD-   2272013593D 1   1.00000     0.00000
 Structure written by MMmdl.
 36 38  0  0  0  0  0  0  0  0  3 V2000
  151.3936  137.3504  154.5452 C   0  0  0  0  0  0  0  0  0  0  0  0
  152.6186  138.0395  154.7225 O   0  0  0  0  0  0  0  0  0  0  0  0
  152.4326  139.3741  155.1658 C   0  0  0  0  0  0  0  0  0  0  0  0
  151.6057  139.3857  156.4594 C   0  0  0  0  0  0  0  0  0  0  0  0
  151.0971  140.7269  156.7821 N   0  0  0  0  0  0  0  0  0  0  0  0
  150.2061  141.5117  156.1142 C   0  0  0  0  0  0  0  0  0  0  0  0
  149.3881  141.1065  154.6053 S   0  0  0  0  0  0  0  0  0  0  0  0
  147.6943  140.6578  155.0727 C   0  0  0  0  0  0  0  0  0  0  0  0
  146.7193  141.7958  154.9893 C   0  0  0  0  0  0  0  0  0  0  0  0
  146.4820  142.3764  153.7833 N   0  5  0  0  0  0  0  0  0  0  0  0
  145.5777  143.3324  154.0619 C   0  0  0  0  0  0  0  0  0  0  0  0
  145.0350  144.1409  153.3121 O   0  0  0  0  0  0  0  0  0  0  0  0
  145.3402  143.2673  155.3740 N   0  0  0  0  0  0  0  0  0  0  0  0
  146.0588  142.2980  155.9646 N   0  0  0  0  0  0  0  0  0  0  0  0
  150.0580  142.6644  156.8239 N   0  3  0  0  0  0  0  0  0  0  0  0
  150.8611  142.6159  157.9648 C   0  0  0  0  0  0  0  0  0  0  0  0
  151.0460  143.5406  158.9880 C   0  0  0  0  0  0  0  0  0  0  0  0
  151.9394  143.1784  160.0177 C   0  0  0  0  0  0  0  0  0  0  0  0
  152.2163  144.2742  161.3210 Cl  0  0  0  0  0  0  0  0  0  0  0  0
  152.6086  141.9370  160.0026 C   0  0  0  0  0  0  0  0  0  0  0  0
  152.4147  141.0072  158.9600 C   0  0  0  0  0  0  0  0  0  0  0  0
  151.5306  141.3740  157.9454 C   0  0  0  0  0  0  0  0  0  0  0  0
  144.7118  143.8388  155.9193 H   0  0  0  0  0  0  0  0  0  0  0  0
  151.5909  136.3344  154.2036 H   0  0  0  0  0  0  0  0  0  0  0  0
  150.7688  137.8419  153.7983 H   0  0  0  0  0  0  0  0  0  0  0  0
  150.8374  137.2889  155.4815 H   0  0  0  0  0  0  0  0  0  0  0  0
  153.4001  139.8462  155.3426 H   0  0  0  0  0  0  0  0  0  0  0  0
  151.9226  139.9555  154.3958 H   0  0  0  0  0  0  0  0  0  0  0  0
  150.7705  138.6882  156.3987 H   0  0  0  0  0  0  0  0  0  0  0  0
  152.2197  139.0540  157.2971 H   0  0  0  0  0  0  0  0  0  0  0  0
  147.3642  139.8455  154.4246 H   0  0  0  0  0  0  0  0  0  0  0  0
  147.7113  140.2546  156.0862 H   0  0  0  0  0  0  0  0  0  0  0  0
  150.5323  144.4907  159.0010 H   0  0  0  0  0  0  0  0  0  0  0  0
  153.2848  141.6903  160.8083 H   0  0  0  0  0  0  0  0  0  0  0  0
  152.9287  140.0575  158.9639 H   0  0  0  0  0  0  0  0  0  0  0  0
  149.4517  143.4248  156.5441 H   0  0  0  0  0  0  0  0  0  0  0  0
  1  2  1  0  0  0  0
  1 24  1  0  0  0  0
  1 25  1  0  0  0  0
  1 26  1  0  0  0  0
  2  3  1  0  0  0  0
  3  4  1  0  0  0  0
  3 27  1  0  0  0  0
  3 28  1  0  0  0  0
  4  5  1  0  0  0  0
  4 29  1  0  0  0  0
  4 30  1  0  0  0  0
  5 22  1  0  0  0  0
  5  6  1  0  0  0  0
  6  7  1  0  0  0  0
  6 15  2  0  0  0  0
  7  8  1  0  0  0  0
  8 31  1  0  0  0  0
  8 32  1  0  0  0  0
  8  9  1  0  0  0  0
  9 14  2  0  0  0  0
  9 10  1  0  0  0  0
 10 11  1  0  0  0  0
 11 13  1  0  0  0  0
 11 12  2  0  0  0  0
 13 14  1  0  0  0  0
 13 23  1  0  0  0  0
 15 16  1  0  0  0  0
 15 36  1  0  0  0  0
 16 22  2  0  0  0  0
 16 17  1  0  0  0  0
 17 18  2  0  0  0  0
 17 33  1  0  0  0  0
 18 19  1  0  0  0  0
 18 20  1  0  0  0  0
 20 21  2  0  0  0  0
 20 34  1  0  0  0  0
 21 22  1  0  0  0  0
 21 35  1  0  0  0  0
M  CHG  1  10  -1
M  CHG  1  15   1
M  END
> <s_m_source_file>
AV-unprocessed.smi

> <i_m_source_file_index>
2527

> <i_lp_mmshare_version>
43012

> <i_f3d_flags>
0

> <s_epik_input>
W2NIXTFjKENsKVtjSF1bY0hdYyhjMTIpbihbQ0gyXVtDSDJdT1tDSDNdKWMobjIpU1tDSDJdYzNuYyg9TylbbkhdW25IXTM=

> <s_epik_cmdline>
J2VwaWtfcHl0aG9uJywgJy1waCcsICc3LjAnLCAnLXRuJywgJzgnLCAnLW1hJywgJzIwMCcsICctbWV0YWxfYmluZGluZycsICctaW1hZScsICc8aW5maWxlLm1hZT4nLCAnLW9tYWUnLCAnPG91dGZpbGUubWFlPic=

> <r_lp_tautomer_probability>
0.999897

> <r_epik_Ionization_Penalty>
3.64286

> <r_epik_Ionization_Penalty_Charging>
2.48685

> <r_epik_Ionization_Penalty_Neutral>
1.15601

> <r_epik_State_Penalty>
3.71863

> <r_epik_Charging_Adjusted_Penalty>
6.20549

> <i_epik_Tot_Q>
0

> <i_epik_Tot_abs_Q>
2

> <r_epik_Metal_State_Penalty>
2.92967

> <b_epik_Metal_Only>
1

> <s_lp_Force_Field>
OPLS_2005

> <r_lp_Energy>
23.3692

> <b_lp_Chiralities_Consistent>
1

> <s_lp_Variant>
AV-unprocessed.smi:2527-6

> <Gold.Version>
5.8.1

> <Gold.Id.Protein>
6NUR|6NUR_protein|mol2

> <Gold.PLP.Fitness>
48.9631

> <Gold.PLP.PLP>
-43.9669

> <Gold.PLP.part.hbond>
-1.3250

> <Gold.PLP.part.metal>
0.0000

> <Gold.PLP.part.buried>
-5.6802

> <Gold.PLP.part.nonpolar>
-38.2391

> <Gold.PLP.part.repulsive>
0.6244

> <Gold.PLP.ligand.clash>
0.0000

> <Gold.PLP.ligand.torsion>
0.5261

> <Gold.PLP.Chemscore.Hbond>
2.0000

> <Gold.PLP.Chemscore.CHOScore>
0.0000

> <Gold.PLP.Chemscore.Metal>
0.0000

> <Gold.Chemscore.Hbonds>
donor molecule, donor type, donor heavy atom, donor atom, acceptor molecule, acceptor atom, score
      L1  H    15    36       P1  8028  2.00

> <Gold.PLP.Chemscore.Internal.Correction>
0.0485

> <Gold.Rescore>
     Score         DG    S(hbond)    S(metal)    S(lipo)     H(rot)  DE(clash)    DE(int)     intcor
     12.54     -13.05       0.98        0.00      99.70       2.88       0.04       0.47       ----

> <Gold.Chemscore.Fitness>
12.5405

> <Gold.Chemscore.DG>
-13.0480

> <Gold.Chemscore.ZeroCoef>
-5.4800

> <Gold.Chemscore.Hbond>
0.9786

> <Gold.Chemscore.Metal>
0.0000

> <Gold.Chemscore.Lipo>
99.6955

> <Gold.Chemscore.Internal_Hbond>
0.0000

> <Gold.Chemscore.DEClash>
0.0398

> <Gold.Chemscore.DEInternal>
0.4677

> <Gold.Chemscore.Rot>
2.8770

> <Gold.Chemscore.Internal.Correction>
   9.000000E+99

> <Gold.Chemscore.Hbonds>
donor molecule, donor type, donor heavy atom, donor atom, acceptor molecule, acceptor atom, score
      L1  H    15    36       P1  8028  0.99

> <Gold.Chemscore.Hbond.Weighted>
-3.2686

> <Gold.Chemscore.Metal.Weighted>
-0.0000

> <Gold.Chemscore.Lipo.Weighted>
-11.6644

> <Gold.Chemscore.Internal_Hbond.Weighted>
0.0000

> <Gold.Chemscore.DEClash.Weighted>
0.0398

> <Gold.Chemscore.DEInternal.Weighted>
0.4677

> <Gold.Chemscore.Rot.Weighted>
7.3650

> <Gold.Chemscore.Internal.Correction.Weighted>
   9.000000E+99

> <Gold.Protein.RotatedTorsions>
[ 6907 6896 6895 6894 ] final -122.47 input  -60.11 | X-H torsion
[ 7974 7965 7964 7962 ] final -157.80 input  175.53 | X-H torsion
[ 8008 7997 7996 7995 ] final  -24.76 input   59.86 | X-H torsion
[ 10167 10162 10161 10158 ] final   -1.77 input  -65.29 | X-H torsion
[ 10718 10713 10712 10709 ] final  137.96 input   66.30 | X-H torsion
[ 10763 10752 10751 10750 ] final -172.52 input  -60.55 | X-H torsion
[ 11005 11000 10999 10996 ] final   82.75 input  -57.11 | X-H torsion

> <Gold.Protein.ActiveResidues>
 VAL166  LYS551  ARG553  GLY616  TRP617  ASP618  TYR619  PRO620  LYS621  CYS622 
 ASP623  PHE694  ASN695  SER759  ASP760  ASP761  ALA762  ILE779  LEU786  VAL792 
 PHE793  MET794  SER795  GLU796  ALA797  LYS798  CYS799  TRP800  GLU811  SER814 

> <Gold.Protein.RotatedAtoms>
  150.8579  133.7688  159.3002 H   0  0  0  0  0  0  0  0  0  0  0  0  # atno 6907 bound_to 6896
  151.5339  135.1067  159.9919 H   0  0  0  0  0  0  0  0  0  0  0  0  # atno 6908 bound_to 6896
  152.4604  133.7766  159.6883 H   0  0  0  0  0  0  0  0  0  0  0  0  # atno 6909 bound_to 6896
  144.7533  140.3918  143.6032 H   0  0  0  0  0  0  0  0  0  0  0  0  # atno 7974 bound_to 7965
  154.4512  140.1945  156.0514 H   0  0  0  0  0  0  0  0  0  0  0  0  # atno 8008 bound_to 7997
  156.0651  140.3292  155.7481 H   0  0  0  0  0  0  0  0  0  0  0  0  # atno 8009 bound_to 7997
  155.5351  140.0581  157.2872 H   0  0  0  0  0  0  0  0  0  0  0  0  # atno 8010 bound_to 7997
  140.6824  143.6736  150.8164 H   0  0  0  0  0  0  0  0  0  0  0  0  # atno 10167 bound_to 10162
  157.4305  131.1048  151.0255 H   0  0  0  0  0  0  0  0  0  0  0  0  # atno 10718 bound_to 10713
  154.6183  135.2872  155.0355 H   0  0  0  0  0  0  0  0  0  0  0  0  # atno 10763 bound_to 10752
  154.1559  135.6496  153.4978 H   0  0  0  0  0  0  0  0  0  0  0  0  # atno 10764 bound_to 10752
  153.0225  135.5366  154.6963 H   0  0  0  0  0  0  0  0  0  0  0  0  # atno 10765 bound_to 10752
  139.9053  134.8094  156.2217 H   0  0  0  0  0  0  0  0  0  0  0  0  # atno 11005 bound_to 11000
  145.6868  139.1630  143.2669 LP  0  0  0  0  0  0  0  0  0  0  0  0  # atno 17320 bound_to 7965
  146.1511  140.6924  142.9322 LP  0  0  0  0  0  0  0  0  0  0  0  0  # atno 17321 bound_to 7965
  140.0438  143.5318  152.2705 LP  0  0  0  0  0  0  0  0  0  0  0  0  # atno 17342 bound_to 10162
  139.6155  144.7618  151.2855 LP  0  0  0  0  0  0  0  0  0  0  0  0  # atno 17343 bound_to 10162
  157.1154  130.6039  149.5492 LP  0  0  0  0  0  0  0  0  0  0  0  0  # atno 17370 bound_to 10713
  155.9911  130.4965  150.7287 LP  0  0  0  0  0  0  0  0  0  0  0  0  # atno 17371 bound_to 10713
  141.0401  133.6942  156.1583 LP  0  0  0  0  0  0  0  0  0  0  0  0  # atno 17394 bound_to 11000
  140.6968  134.4607  157.5587 LP  0  0  0  0  0  0  0  0  0  0  0  0  # atno 17395 bound_to 11000

$$$$
