AV-unprocessed.smi:1026|AV-procd|sdf|4468|dock9
  -GOLD-   22720 2443D 1   1.00000     0.00000
 Structure written by MMmdl.
 40 41  0  0  0  0  0  0  0  0  1 V2000
  144.9873  145.3222  152.1288 C   0  0  0  0  0  0  0  0  0  0  0  0
  144.4142  144.8579  153.4721 C   0  0  0  0  0  0  0  0  0  0  0  0
  145.1005  143.6418  153.9980 C   0  0  0  0  0  0  0  0  0  0  0  0
  146.0691  143.0009  153.3387 N   0  0  0  0  0  0  0  0  0  0  0  0
  146.5299  141.8705  154.0207 C   0  0  0  0  0  0  0  0  0  0  0  0
  147.6243  141.0360  153.4278 C   0  0  0  0  0  0  0  0  0  0  0  0
  148.7134  140.6870  154.4557 C   0  0  0  0  0  0  0  0  0  0  0  0
  149.0622  141.8398  155.2778 N   0  0  0  0  0  0  0  0  0  0  0  0
  150.0777  141.8800  156.1571 C   0  0  0  0  0  0  0  0  0  0  0  0
  150.8401  140.9356  156.3535 O   0  0  0  0  0  0  0  0  0  0  0  0
  150.2089  143.0442  156.8185 N   0  0  0  0  0  0  0  0  0  0  0  0
  151.1994  143.4137  157.8322 C   0  0  0  0  0  0  0  0  0  0  0  0
  151.2467  142.3525  158.9522 C   0  0  0  0  0  0  0  0  0  0  0  0
  152.3108  142.6657  160.0143 C   0  0  0  0  0  0  0  0  0  0  0  0
  151.9597  144.2319  160.8585 S   0  0  0  0  0  0  0  0  0  0  0  0
  151.8903  145.3116  159.4035 C   0  0  0  0  0  0  0  0  0  0  0  0
  150.8551  144.8096  158.3864 C   0  0  0  0  0  0  0  0  0  0  0  0
  145.8835  141.6574  155.2128 C   0  0  0  0  0  0  0  0  0  0  0  0
  144.6676  142.8677  155.5181 S   0  0  0  0  0  0  0  0  0  0  0  0
  144.4690  146.2126  151.7724 H   0  0  0  0  0  0  0  0  0  0  0  0
  144.8831  144.5483  151.3680 H   0  0  0  0  0  0  0  0  0  0  0  0
  146.0465  145.5662  152.2168 H   0  0  0  0  0  0  0  0  0  0  0  0
  144.4989  145.6572  154.2093 H   0  0  0  0  0  0  0  0  0  0  0  0
  143.3507  144.6409  153.3677 H   0  0  0  0  0  0  0  0  0  0  0  0
  147.2078  140.1163  153.0154 H   0  0  0  0  0  0  0  0  0  0  0  0
  148.0703  141.5645  152.5843 H   0  0  0  0  0  0  0  0  0  0  0  0
  148.3919  139.8592  155.0903 H   0  0  0  0  0  0  0  0  0  0  0  0
  149.6147  140.3517  153.9420 H   0  0  0  0  0  0  0  0  0  0  0  0
  148.4884  142.6641  155.1766 H   0  0  0  0  0  0  0  0  0  0  0  0
  149.5470  143.7675  156.5763 H   0  0  0  0  0  0  0  0  0  0  0  0
  152.1831  143.4816  157.3642 H   0  0  0  0  0  0  0  0  0  0  0  0
  150.2686  142.2683  159.4280 H   0  0  0  0  0  0  0  0  0  0  0  0
  151.4605  141.3725  158.5242 H   0  0  0  0  0  0  0  0  0  0  0  0
  152.3456  141.8703  160.7587 H   0  0  0  0  0  0  0  0  0  0  0  0
  153.2995  142.7206  159.5581 H   0  0  0  0  0  0  0  0  0  0  0  0
  151.6387  146.3207  159.7303 H   0  0  0  0  0  0  0  0  0  0  0  0
  152.8802  145.3605  158.9486 H   0  0  0  0  0  0  0  0  0  0  0  0
  150.7991  145.5228  157.5629 H   0  0  0  0  0  0  0  0  0  0  0  0
  149.8661  144.7974  158.8468 H   0  0  0  0  0  0  0  0  0  0  0  0
  146.0454  140.8626  155.9258 H   0  0  0  0  0  0  0  0  0  0  0  0
  1  2  1  0  0  0  0
  1 20  1  0  0  0  0
  1 21  1  0  0  0  0
  1 22  1  0  0  0  0
  2  3  1  0  0  0  0
  2 23  1  0  0  0  0
  2 24  1  0  0  0  0
  3 19  1  0  0  0  0
  3  4  2  0  0  0  0
  4  5  1  0  0  0  0
  5  6  1  0  0  0  0
  5 18  2  0  0  0  0
  6  7  1  0  0  0  0
  6 25  1  0  0  0  0
  6 26  1  0  0  0  0
  7  8  1  0  0  0  0
  7 27  1  0  0  0  0
  7 28  1  0  0  0  0
  8  9  1  0  0  0  0
  8 29  1  0  0  0  0
  9 10  2  0  0  0  0
  9 11  1  0  0  0  0
 11 12  1  0  0  0  0
 11 30  1  0  0  0  0
 12 17  1  0  0  0  0
 12 13  1  0  0  0  0
 12 31  1  0  0  0  0
 13 14  1  0  0  0  0
 13 32  1  0  0  0  0
 13 33  1  0  0  0  0
 14 15  1  0  0  0  0
 14 34  1  0  0  0  0
 14 35  1  0  0  0  0
 15 16  1  0  0  0  0
 16 17  1  0  0  0  0
 16 36  1  0  0  0  0
 16 37  1  0  0  0  0
 17 38  1  0  0  0  0
 17 39  1  0  0  0  0
 18 19  1  0  0  0  0
 18 40  1  0  0  0  0
M  END
> <s_m_source_file>
AV-unprocessed.smi

> <i_m_source_file_index>
1026

> <i_lp_mmshare_version>
43012

> <i_f3d_flags>
0

> <s_epik_input>
W0NIM11bQ0gyXWMxbmMoW2NIXXMxKVtDSDJdW0NIMl1bTkhdQyg9TylbTkhdW0NIXTJbQ0gyXVtDSDJdU1tDSDJdW0NIMl0y

> <s_epik_cmdline>
J2VwaWtfcHl0aG9uJywgJy1waCcsICc3LjAnLCAnLXRuJywgJzgnLCAnLW1hJywgJzIwMCcsICctbWV0YWxfYmluZGluZycsICctaW1hZScsICc8aW5maWxlLm1hZT4nLCAnLW9tYWUnLCAnPG91dGZpbGUubWFlPic=

> <r_epik_Ionization_Penalty>
0.00199316

> <r_epik_Ionization_Penalty_Charging>
0

> <r_epik_Ionization_Penalty_Neutral>
0.00199316

> <r_epik_State_Penalty>
0.00132065

> <r_epik_Charging_Adjusted_Penalty>
0.00132065

> <i_epik_Tot_Q>
0

> <i_epik_Tot_abs_Q>
0

> <r_epik_Metal_State_Penalty>
-0

> <b_epik_Metal_Only>
0

> <s_lp_Force_Field>
OPLS_2005

> <r_lp_Energy>
4.0728

> <b_lp_Chiralities_Consistent>
1

> <s_lp_Variant>
AV-unprocessed.smi:1026-1

> <Gold.Version>
5.8.1

> <Gold.Id.Protein>
6NUR|6NUR_protein|mol2

> <Gold.PLP.Fitness>
50.9942

> <Gold.PLP.PLP>
-46.7218

> <Gold.PLP.part.hbond>
-1.9800

> <Gold.PLP.part.metal>
0.0000

> <Gold.PLP.part.buried>
-5.4052

> <Gold.PLP.part.nonpolar>
-40.4372

> <Gold.PLP.part.repulsive>
0.4379

> <Gold.PLP.ligand.clash>
0.0000

> <Gold.PLP.ligand.torsion>
0.3083

> <Gold.PLP.Chemscore.Hbond>
1.6201

> <Gold.PLP.Chemscore.CHOScore>
0.0000

> <Gold.PLP.Chemscore.Metal>
0.0000

> <Gold.Chemscore.Hbonds>
donor molecule, donor type, donor heavy atom, donor atom, acceptor molecule, acceptor atom, score
      L1  H     8    29       P1  8028  0.48
      L1  H    11    30       P1  8028  0.84

> <Gold.PLP.Chemscore.Internal.Correction>
0.0287

> <Gold.Rescore>
     Score         DG    S(hbond)    S(metal)    S(lipo)     H(rot)  DE(clash)    DE(int)     intcor
     20.39     -20.76       1.58        0.00     120.00       1.58       0.20       0.17       ----

> <Gold.Chemscore.Fitness>
20.3943

> <Gold.Chemscore.DG>
-20.7630

> <Gold.Chemscore.ZeroCoef>
-5.4800

> <Gold.Chemscore.Hbond>
1.5807

> <Gold.Chemscore.Metal>
0.0000

> <Gold.Chemscore.Lipo>
120.0016

> <Gold.Chemscore.Internal_Hbond>
0.0000

> <Gold.Chemscore.DEClash>
0.1972

> <Gold.Chemscore.DEInternal>
0.1714

> <Gold.Chemscore.Rot>
1.5768

> <Gold.Chemscore.Internal.Correction>
   9.000000E+99

> <Gold.Chemscore.Hbonds>
donor molecule, donor type, donor heavy atom, donor atom, acceptor molecule, acceptor atom, score
      L1  H     8    29       P1  8028  0.48
      L1  H    11    30       P1  8028  0.82

> <Gold.Chemscore.Hbond.Weighted>
-5.2795

> <Gold.Chemscore.Metal.Weighted>
-0.0000

> <Gold.Chemscore.Lipo.Weighted>
-14.0402

> <Gold.Chemscore.Internal_Hbond.Weighted>
0.0000

> <Gold.Chemscore.DEClash.Weighted>
0.1972

> <Gold.Chemscore.DEInternal.Weighted>
0.1714

> <Gold.Chemscore.Rot.Weighted>
4.0367

> <Gold.Chemscore.Internal.Correction.Weighted>
   9.000000E+99

> <Gold.Protein.RotatedTorsions>
[ 6907 6896 6895 6894 ] final  176.15 input  -60.11 | X-H torsion
[ 7974 7965 7964 7962 ] final  125.55 input  175.53 | X-H torsion
[ 8008 7997 7996 7995 ] final   80.26 input   59.86 | X-H torsion
[ 10167 10162 10161 10158 ] final -174.54 input  -65.29 | X-H torsion
[ 10718 10713 10712 10709 ] final -158.90 input   66.30 | X-H torsion
[ 10763 10752 10751 10750 ] final  -68.33 input  -60.55 | X-H torsion
[ 11005 11000 10999 10996 ] final   59.83 input  -57.11 | X-H torsion

> <Gold.Protein.ActiveResidues>
 VAL166  LYS551  ARG553  GLY616  TRP617  ASP618  TYR619  PRO620  LYS621  CYS622 
 ASP623  PHE694  ASN695  SER759  ASP760  ASP761  ALA762  ILE779  LEU786  VAL792 
 PHE793  MET794  SER795  GLU796  ALA797  LYS798  CYS799  TRP800  GLU811  SER814 

> <Gold.Protein.RotatedAtoms>
  151.7247  133.3315  159.3324 H   0  0  0  0  0  0  0  0  0  0  0  0  # atno 6907 bound_to 6896
  150.7638  134.6417  159.6250 H   0  0  0  0  0  0  0  0  0  0  0  0  # atno 6908 bound_to 6896
  152.3630  134.6848  160.0253 H   0  0  0  0  0  0  0  0  0  0  0  0  # atno 6909 bound_to 6896
  145.0717  139.3724  143.4954 H   0  0  0  0  0  0  0  0  0  0  0  0  # atno 7974 bound_to 7965
  155.8810  140.3444  155.5888 H   0  0  0  0  0  0  0  0  0  0  0  0  # atno 8008 bound_to 7997
  155.7720  140.0846  157.2122 H   0  0  0  0  0  0  0  0  0  0  0  0  # atno 8009 bound_to 7997
  154.4024  140.1516  156.2940 H   0  0  0  0  0  0  0  0  0  0  0  0  # atno 8010 bound_to 7997
  139.5628  144.1828  152.1266 H   0  0  0  0  0  0  0  0  0  0  0  0  # atno 10167 bound_to 10162
  156.5606  130.8645  151.2808 H   0  0  0  0  0  0  0  0  0  0  0  0  # atno 10718 bound_to 10713
  154.3874  135.6060  153.5824 H   0  0  0  0  0  0  0  0  0  0  0  0  # atno 10763 bound_to 10752
  152.9787  135.5875  154.4338 H   0  0  0  0  0  0  0  0  0  0  0  0  # atno 10764 bound_to 10752
  154.4117  135.2844  155.2010 H   0  0  0  0  0  0  0  0  0  0  0  0  # atno 10765 bound_to 10752
  140.0276  134.6060  155.9552 H   0  0  0  0  0  0  0  0  0  0  0  0  # atno 11005 bound_to 11000
  146.3529  140.0465  142.8639 LP  0  0  0  0  0  0  0  0  0  0  0  0  # atno 17320 bound_to 7965
  145.1284  140.9503  143.4559 LP  0  0  0  0  0  0  0  0  0  0  0  0  # atno 17321 bound_to 7965
  140.1345  144.5258  150.6782 LP  0  0  0  0  0  0  0  0  0  0  0  0  # atno 17342 bound_to 10162
  140.6909  143.2376  151.5132 LP  0  0  0  0  0  0  0  0  0  0  0  0  # atno 17343 bound_to 10162
  157.7369  130.9787  150.2163 LP  0  0  0  0  0  0  0  0  0  0  0  0  # atno 17370 bound_to 10713
  156.2802  130.3732  149.7943 LP  0  0  0  0  0  0  0  0  0  0  0  0  # atno 17371 bound_to 10713
  141.1812  133.6547  156.5027 LP  0  0  0  0  0  0  0  0  0  0  0  0  # atno 17394 bound_to 11000
  140.4280  134.7127  157.4926 LP  0  0  0  0  0  0  0  0  0  0  0  0  # atno 17395 bound_to 11000

$$$$
