AV-unprocessed.smi:1641|AV-procd|sdf|6566|dock6
  -GOLD-   22720 7253D 1   1.00000     0.00000
 Structure written by MMmdl.
 41 42  0  0  0  0  0  0  0  0  3 V2000
  152.5213  141.1310  159.3218 C   0  0  0  0  0  0  0  0  0  0  0  0
  152.0972  140.7450  157.9464 C   0  0  0  0  0  0  0  0  0  0  0  0
  152.6942  139.7715  157.2547 N   0  0  0  0  0  0  0  0  0  0  0  0
  152.1256  139.5962  156.0014 N   0  0  0  0  0  0  0  0  0  0  0  0
  151.1036  140.4312  155.7661 C   0  0  0  0  0  0  0  0  0  0  0  0
  150.4213  140.4242  154.6090 N   0  5  0  0  0  0  0  0  0  0  0  0
  149.0736  140.3191  154.6198 C   0  0  0  0  0  0  0  0  0  0  0  0
  148.3512  140.2512  155.6167 O   0  0  0  0  0  0  0  0  0  0  0  0
  148.5262  140.2929  153.3981 N   0  0  0  0  0  0  0  0  0  0  0  0
  147.1004  140.1897  153.1224 C   0  0  0  0  0  0  0  0  0  0  0  0
  146.8353  139.0875  152.0854 C   0  0  0  0  0  0  0  0  0  0  0  0
  145.6614  138.2506  152.4375 N   0  3  1  0  0  0  0  0  0  0  0  0
  145.5402  137.0559  151.5690 C   0  0  0  0  0  0  0  0  0  0  0  0
  144.2754  136.2529  151.9258 C   0  0  1  0  0  0  0  0  0  0  0  0
  144.1545  134.9676  151.1000 C   0  0  0  0  0  0  0  0  0  0  0  0
  144.3275  135.8933  153.3018 O   0  0  0  0  0  0  0  0  0  0  0  0
  144.3545  137.0272  154.1618 C   0  0  1  0  0  0  0  0  0  0  0  0
  144.3134  136.5289  155.6107 C   0  0  0  0  0  0  0  0  0  0  0  0
  145.6199  137.8548  153.8669 C   0  0  0  0  0  0  0  0  0  0  0  0
  150.7759  141.5351  157.1022 S   0  0  0  0  0  0  0  0  0  0  0  0
  152.4813  140.2650  159.9827 H   0  0  0  0  0  0  0  0  0  0  0  0
  151.8637  141.9043  159.7192 H   0  0  0  0  0  0  0  0  0  0  0  0
  153.5415  141.5144  159.3041 H   0  0  0  0  0  0  0  0  0  0  0  0
  149.1499  140.3473  152.6063 H   0  0  0  0  0  0  0  0  0  0  0  0
  146.5828  139.9807  154.0589 H   0  0  0  0  0  0  0  0  0  0  0  0
  146.7325  141.1484  152.7535 H   0  0  0  0  0  0  0  0  0  0  0  0
  146.6535  139.5667  151.1220 H   0  0  0  0  0  0  0  0  0  0  0  0
  147.7160  138.4560  151.9556 H   0  0  0  0  0  0  0  0  0  0  0  0
  145.4953  137.3637  150.5234 H   0  0  0  0  0  0  0  0  0  0  0  0
  146.4291  136.4327  151.6823 H   0  0  0  0  0  0  0  0  0  0  0  0
  143.3884  136.8637  151.7474 H   0  0  0  0  0  0  0  0  0  0  0  0
  144.0934  135.1894  150.0343 H   0  0  0  0  0  0  0  0  0  0  0  0
  143.2580  134.4111  151.3745 H   0  0  0  0  0  0  0  0  0  0  0  0
  145.0129  134.3140  151.2575 H   0  0  0  0  0  0  0  0  0  0  0  0
  143.4667  137.6358  153.9806 H   0  0  0  0  0  0  0  0  0  0  0  0
  144.3230  137.3624  156.3134 H   0  0  0  0  0  0  0  0  0  0  0  0
  145.1697  135.8921  155.8346 H   0  0  0  0  0  0  0  0  0  0  0  0
  143.4096  135.9483  155.7972 H   0  0  0  0  0  0  0  0  0  0  0  0
  146.5131  137.2769  154.1108 H   0  0  0  0  0  0  0  0  0  0  0  0
  145.6273  138.7376  154.5052 H   0  0  0  0  0  0  0  0  0  0  0  0
  144.8425  138.8147  152.2606 H   0  0  0  0  0  0  0  0  0  0  0  0
  1  2  1  0  0  0  0
  1 21  1  0  0  0  0
  1 22  1  0  0  0  0
  1 23  1  0  0  0  0
  2 20  1  0  0  0  0
  2  3  2  0  0  0  0
  3  4  1  0  0  0  0
  4  5  2  0  0  0  0
  5  6  1  0  0  0  0
  5 20  1  0  0  0  0
  6  7  1  0  0  0  0
  7  8  2  0  0  0  0
  7  9  1  0  0  0  0
  9 10  1  0  0  0  0
  9 24  1  0  0  0  0
 10 11  1  0  0  0  0
 10 25  1  0  0  0  0
 10 26  1  0  0  0  0
 11 12  1  0  0  0  0
 11 27  1  0  0  0  0
 11 28  1  0  0  0  0
 12 19  1  0  0  0  0
 12 13  1  0  0  0  0
 12 41  1  0  0  0  0
 13 14  1  0  0  0  0
 13 29  1  0  0  0  0
 13 30  1  0  0  0  0
 14 15  1  0  0  0  0
 14 16  1  0  0  0  0
 14 31  1  0  0  0  0
 15 32  1  0  0  0  0
 15 33  1  0  0  0  0
 15 34  1  0  0  0  0
 16 17  1  0  0  0  0
 17 18  1  0  0  0  0
 17 19  1  0  0  0  0
 17 35  1  0  0  0  0
 18 36  1  0  0  0  0
 18 37  1  0  0  0  0
 18 38  1  0  0  0  0
 19 39  1  0  0  0  0
 19 40  1  0  0  0  0
M  CHG  1   6  -1
M  CHG  1  12   1
M  END
> <s_m_source_file>
AV-unprocessed.smi

> <i_m_source_file_index>
1641

> <i_lp_mmshare_version>
43012

> <i_f3d_flags>
0

> <s_epik_input>
W0NIM11jMW5uYyhzMSlbTkhdQyg9TylbTkhdW0NIMl1bQ0gyXU4yW0NIMl1bQ0BASF0oW0NIM10pT1tDQEBIXShbQ0gzXSlbQ0gyXTI=

> <s_epik_cmdline>
J2VwaWtfcHl0aG9uJywgJy1waCcsICc3LjAnLCAnLXRuJywgJzgnLCAnLW1hJywgJzIwMCcsICctbWV0YWxfYmluZGluZycsICctaW1hZScsICc8aW5maWxlLm1hZT4nLCAnLW9tYWUnLCAnPG91dGZpbGUubWFlPic=

> <r_lp_tautomer_probability>
1

> <r_epik_Ionization_Penalty>
3.5343

> <r_epik_Ionization_Penalty_Charging>
3.42778

> <r_epik_Ionization_Penalty_Neutral>
0.106519

> <r_epik_State_Penalty>
3.62118

> <r_epik_Charging_Adjusted_Penalty>
7.04896

> <i_epik_Tot_Q>
0

> <i_epik_Tot_abs_Q>
2

> <r_epik_Metal_State_Penalty>
1.13984

> <b_epik_Metal_Only>
1

> <s_lp_Force_Field>
OPLS_2005

> <r_lp_Energy>
7.34164

> <b_lp_Chiralities_Consistent>
1

> <s_lp_Variant>
AV-unprocessed.smi:1641-11

> <Gold.Version>
5.8.1

> <Gold.Id.Protein>
6NUR|6NUR_protein|mol2

> <Gold.PLP.Fitness>
43.4686

> <Gold.PLP.PLP>
-30.2689

> <Gold.PLP.part.hbond>
-4.3537

> <Gold.PLP.part.metal>
0.0000

> <Gold.PLP.part.buried>
-1.0652

> <Gold.PLP.part.nonpolar>
-24.4913

> <Gold.PLP.part.repulsive>
0.3622

> <Gold.PLP.ligand.clash>
0.0000

> <Gold.PLP.ligand.torsion>
0.9212

> <Gold.PLP.Chemscore.Hbond>
5.0000

> <Gold.PLP.Chemscore.CHOScore>
0.0000

> <Gold.PLP.Chemscore.Metal>
0.0000

> <Gold.Chemscore.Hbonds>
donor molecule, donor type, donor heavy atom, donor atom, acceptor molecule, acceptor atom, score
      L1  H     9    24       P1  7957  1.00
      L1  H    12    41       P1 10175  2.00
      P1  H  7989  7998       L1     6  1.00
      P1  H  7997  8008       L1     3  1.00

> <Gold.PLP.Chemscore.Internal.Correction>
0.0421

> <Gold.Rescore>
     Score         DG    S(hbond)    S(metal)    S(lipo)     H(rot)  DE(clash)    DE(int)     intcor
     16.81     -17.77       2.96        0.00      55.72       1.61       0.04       0.92       ----

> <Gold.Chemscore.Fitness>
16.8117

> <Gold.Chemscore.DG>
-17.7656

> <Gold.Chemscore.ZeroCoef>
-5.4800

> <Gold.Chemscore.Hbond>
2.9580

> <Gold.Chemscore.Metal>
0.0000

> <Gold.Chemscore.Lipo>
55.7248

> <Gold.Chemscore.Internal_Hbond>
0.0000

> <Gold.Chemscore.DEClash>
0.0383

> <Gold.Chemscore.DEInternal>
0.9156

> <Gold.Chemscore.Rot>
1.6070

> <Gold.Chemscore.Internal.Correction>
   9.000000E+99

> <Gold.Chemscore.Hbonds>
donor molecule, donor type, donor heavy atom, donor atom, acceptor molecule, acceptor atom, score
      L1  H     9    24       P1  7957  0.93
      L1  H    12    41       P1 10175  0.93
      P1  H  7989  7998       L1     6  0.33
      P1  H  7997  8008       L1     3  0.36

> <Gold.Chemscore.Hbond.Weighted>
-9.8797

> <Gold.Chemscore.Metal.Weighted>
-0.0000

> <Gold.Chemscore.Lipo.Weighted>
-6.5198

> <Gold.Chemscore.Internal_Hbond.Weighted>
0.0000

> <Gold.Chemscore.DEClash.Weighted>
0.0383

> <Gold.Chemscore.DEInternal.Weighted>
0.9156

> <Gold.Chemscore.Rot.Weighted>
4.1139

> <Gold.Chemscore.Internal.Correction.Weighted>
   9.000000E+99

> <Gold.Protein.RotatedTorsions>
[ 6907 6896 6895 6894 ] final    9.88 input  -60.11 | X-H torsion
[ 7974 7965 7964 7962 ] final  -35.74 input  175.53 | X-H torsion
[ 8008 7997 7996 7995 ] final  -74.83 input   59.86 | X-H torsion
[ 10167 10162 10161 10158 ] final  -36.58 input  -65.29 | X-H torsion
[ 10718 10713 10712 10709 ] final  -12.03 input   66.30 | X-H torsion
[ 10763 10752 10751 10750 ] final   58.90 input  -60.55 | X-H torsion
[ 11005 11000 10999 10996 ] final   51.50 input  -57.11 | X-H torsion

> <Gold.Protein.ActiveResidues>
 VAL166  LYS551  ARG553  GLY616  TRP617  ASP618  TYR619  PRO620  LYS621  CYS622 
 ASP623  PHE694  ASN695  SER759  ASP760  ASP761  ALA762  ILE779  LEU786  VAL792 
 PHE793  MET794  SER795  GLU796  ALA797  LYS798  CYS799  TRP800  GLU811  SER814 

> <Gold.Protein.RotatedAtoms>
  151.7293  135.0878  160.0297 H   0  0  0  0  0  0  0  0  0  0  0  0  # atno 6907 bound_to 6896
  152.3551  133.6223  159.5982 H   0  0  0  0  0  0  0  0  0  0  0  0  # atno 6908 bound_to 6896
  150.7566  133.9428  159.3503 H   0  0  0  0  0  0  0  0  0  0  0  0  # atno 6909 bound_to 6896
  146.0720  140.6196  142.8948 H   0  0  0  0  0  0  0  0  0  0  0  0  # atno 7974 bound_to 7965
  154.5364  140.0754  156.8434 H   0  0  0  0  0  0  0  0  0  0  0  0  # atno 8008 bound_to 7997
  155.3270  140.3399  155.4222 H   0  0  0  0  0  0  0  0  0  0  0  0  # atno 8009 bound_to 7997
  156.1832  140.1659  156.8221 H   0  0  0  0  0  0  0  0  0  0  0  0  # atno 8010 bound_to 7997
  140.7139  143.3399  151.2381 H   0  0  0  0  0  0  0  0  0  0  0  0  # atno 10167 bound_to 10162
  156.6505  130.4953  149.6063 H   0  0  0  0  0  0  0  0  0  0  0  0  # atno 10718 bound_to 10713
  152.9881  135.5590  154.5627 H   0  0  0  0  0  0  0  0  0  0  0  0  # atno 10763 bound_to 10752
  154.5043  135.2799  155.1397 H   0  0  0  0  0  0  0  0  0  0  0  0  # atno 10764 bound_to 10752
  154.2815  135.6344  153.5402 H   0  0  0  0  0  0  0  0  0  0  0  0  # atno 10765 bound_to 10752
  140.0928  134.5186  155.8836 H   0  0  0  0  0  0  0  0  0  0  0  0  # atno 11005 bound_to 11000
  144.7238  140.4459  143.6988 LP  0  0  0  0  0  0  0  0  0  0  0  0  # atno 17320 bound_to 7965
  145.6373  139.1545  143.2935 LP  0  0  0  0  0  0  0  0  0  0  0  0  # atno 17321 bound_to 7965
  139.6904  143.9702  152.2856 LP  0  0  0  0  0  0  0  0  0  0  0  0  # atno 17342 bound_to 10162
  139.9362  144.6710  150.8312 LP  0  0  0  0  0  0  0  0  0  0  0  0  # atno 17343 bound_to 10162
  156.2088  130.6666  151.1247 LP  0  0  0  0  0  0  0  0  0  0  0  0  # atno 17370 bound_to 10713
  157.7142  131.0718  150.6388 LP  0  0  0  0  0  0  0  0  0  0  0  0  # atno 17371 bound_to 10713
  141.2083  133.6672  156.6361 LP  0  0  0  0  0  0  0  0  0  0  0  0  # atno 17394 bound_to 11000
  140.3329  134.7914  157.4339 LP  0  0  0  0  0  0  0  0  0  0  0  0  # atno 17395 bound_to 11000

$$$$
