AV-unprocessed.smi:539|AV-procd|sdf|2868|dock7
  -GOLD-   2262023363D 1   1.00000     0.00000
 Structure written by MMmdl.
 39 41  0  0  0  0  0  0  0  0  2 V2000
  147.8985  141.1771  153.6650 C   0  0  0  0  0  0  0  0  0  0  0  0
  149.1419  141.6815  154.1169 O   0  0  0  0  0  0  0  0  0  0  0  0
  149.3955  141.3736  155.4777 C   0  0  0  0  0  0  0  0  0  0  0  0
  150.7292  141.9985  155.9151 C   0  0  0  0  0  0  0  0  0  0  0  0
  151.4469  141.1503  156.8673 N   0  0  0  0  0  0  0  0  0  0  0  0
  151.9556  141.4763  158.0938 C   0  0  0  0  0  0  0  0  0  0  0  0
  151.8502  142.7433  158.6885 N   0  0  0  0  0  0  0  0  0  0  0  0
  151.9621  143.1529  160.0895 C   0  0  0  0  0  0  0  0  0  0  0  0
  152.1186  144.6710  160.1414 C   0  0  0  0  0  0  0  0  0  0  0  0
  151.3892  145.1094  158.8909 C   0  0  0  0  0  0  0  0  0  0  0  0
  151.7417  143.9849  157.9241 C   0  0  0  0  0  0  0  0  0  0  0  0
  152.6056  140.4777  158.6961 N   0  0  0  0  0  0  0  0  0  0  0  0
  152.4995  139.4314  157.7977 C   0  0  0  0  0  0  0  0  0  0  0  0
  151.8162  139.8083  156.6845 C   0  0  0  0  0  0  0  0  0  0  0  0
  151.5777  138.9044  155.5318 C   0  0  0  0  0  0  0  0  0  0  0  0
  150.9872  139.2890  154.5251 O   0  0  0  0  0  0  0  0  0  0  0  0
  152.0872  137.6493  155.7407 N   0  5  0  0  0  0  0  0  0  0  0  0
  152.7723  137.2279  156.8585 C   0  0  0  0  0  0  0  0  0  0  0  0
  153.1928  136.0753  156.9677 O   0  0  0  0  0  0  0  0  0  0  0  0
  152.9987  138.1036  157.8865 N   0  0  0  0  0  0  0  0  0  0  0  0
  153.7327  137.6870  159.0850 C   0  0  0  0  0  0  0  0  0  0  0  0
  147.7574  141.4397  152.6166 H   0  0  0  0  0  0  0  0  0  0  0  0
  147.0706  141.6029  154.2333 H   0  0  0  0  0  0  0  0  0  0  0  0
  147.8597  140.0904  153.7484 H   0  0  0  0  0  0  0  0  0  0  0  0
  148.5810  141.7531  156.0958 H   0  0  0  0  0  0  0  0  0  0  0  0
  149.4325  140.2920  155.6147 H   0  0  0  0  0  0  0  0  0  0  0  0
  151.3584  142.2169  155.0586 H   0  0  0  0  0  0  0  0  0  0  0  0
  150.5548  142.9794  156.3482 H   0  0  0  0  0  0  0  0  0  0  0  0
  151.0554  142.8640  160.6199 H   0  0  0  0  0  0  0  0  0  0  0  0
  152.8124  142.6703  160.5718 H   0  0  0  0  0  0  0  0  0  0  0  0
  151.7134  145.1110  161.0530 H   0  0  0  0  0  0  0  0  0  0  0  0
  153.1733  144.9412  160.0710 H   0  0  0  0  0  0  0  0  0  0  0  0
  150.3133  145.1294  159.0706 H   0  0  0  0  0  0  0  0  0  0  0  0
  151.6977  146.0922  158.5337 H   0  0  0  0  0  0  0  0  0  0  0  0
  152.7023  144.1827  157.4466 H   0  0  0  0  0  0  0  0  0  0  0  0
  150.9931  143.8951  157.1360 H   0  0  0  0  0  0  0  0  0  0  0  0
  154.7061  137.2731  158.8168 H   0  0  0  0  0  0  0  0  0  0  0  0
  153.1734  136.9217  159.6248 H   0  0  0  0  0  0  0  0  0  0  0  0
  153.9135  138.5107  159.7757 H   0  0  0  0  0  0  0  0  0  0  0  0
  1  2  1  0  0  0  0
  1 22  1  0  0  0  0
  1 23  1  0  0  0  0
  1 24  1  0  0  0  0
  2  3  1  0  0  0  0
  3  4  1  0  0  0  0
  3 25  1  0  0  0  0
  3 26  1  0  0  0  0
  4  5  1  0  0  0  0
  4 27  1  0  0  0  0
  4 28  1  0  0  0  0
  5 14  1  0  0  0  0
  5  6  1  0  0  0  0
  6  7  1  0  0  0  0
  6 12  2  0  0  0  0
  7 11  1  0  0  0  0
  7  8  1  0  0  0  0
  8  9  1  0  0  0  0
  8 29  1  0  0  0  0
  8 30  1  0  0  0  0
  9 10  1  0  0  0  0
  9 31  1  0  0  0  0
  9 32  1  0  0  0  0
 10 11  1  0  0  0  0
 10 33  1  0  0  0  0
 10 34  1  0  0  0  0
 11 35  1  0  0  0  0
 11 36  1  0  0  0  0
 12 13  1  0  0  0  0
 13 20  1  0  0  0  0
 13 14  2  0  0  0  0
 14 15  1  0  0  0  0
 15 16  2  0  0  0  0
 15 17  1  0  0  0  0
 17 18  1  0  0  0  0
 18 19  2  0  0  0  0
 18 20  1  0  0  0  0
 20 21  1  0  0  0  0
 21 37  1  0  0  0  0
 21 38  1  0  0  0  0
 21 39  1  0  0  0  0
M  CHG  1  17  -1
M  END
> <s_m_source_file>
AV-unprocessed.smi

> <i_m_source_file_index>
539

> <i_lp_mmshare_version>
43012

> <i_f3d_flags>
0

> <s_epik_input>
W0NIM11uMWMoPU8pW25IXWMoPU8pYyhjMTIpbihbQ0gyXVtDSDJdT1tDSDNdKWMobjIpTjNbQ0gyXVtDSDJdW0NIMl1bQ0gyXTM=

> <s_epik_cmdline>
J2VwaWtfcHl0aG9uJywgJy1waCcsICc3LjAnLCAnLXRuJywgJzgnLCAnLW1hJywgJzIwMCcsICctbWV0YWxfYmluZGluZycsICctaW1hZScsICc8aW5maWxlLm1hZT4nLCAnLW9tYWUnLCAnPG91dGZpbGUubWFlPic=

> <r_lp_tautomer_probability>
1

> <r_epik_Ionization_Penalty>
6.13244

> <r_epik_Ionization_Penalty_Charging>
0.078064

> <r_epik_Ionization_Penalty_Neutral>
6.05438

> <r_epik_State_Penalty>
6.05106

> <r_epik_Charging_Adjusted_Penalty>
6.12912

> <i_epik_Tot_Q>
-1

> <i_epik_Tot_abs_Q>
1

> <r_epik_Metal_State_Penalty>
2.00027

> <b_epik_Metal_Only>
1

> <s_lp_Force_Field>
OPLS_2005

> <r_lp_Energy>
49.7723

> <b_lp_Chiralities_Consistent>
1

> <s_lp_Variant>
AV-unprocessed.smi:539-2

> <Gold.Version>
5.8.1

> <Gold.Id.Protein>
6NUR|6NUR_protein|mol2

> <Gold.PLP.Fitness>
47.7667

> <Gold.PLP.PLP>
-41.2990

> <Gold.PLP.part.hbond>
-3.7114

> <Gold.PLP.part.metal>
0.0000

> <Gold.PLP.part.buried>
-6.3089

> <Gold.PLP.part.nonpolar>
-31.8133

> <Gold.PLP.part.repulsive>
0.3299

> <Gold.PLP.ligand.clash>
0.0000

> <Gold.PLP.ligand.torsion>
0.5561

> <Gold.PLP.Chemscore.Hbond>
2.5184

> <Gold.PLP.Chemscore.CHOScore>
0.0000

> <Gold.PLP.Chemscore.Metal>
0.0000

> <Gold.Chemscore.Hbonds>
donor molecule, donor type, donor heavy atom, donor atom, acceptor molecule, acceptor atom, score
      P1  H  7989  7998       L1    16  1.00
      P1  H  8011  8017       L1     2  0.51
      P1  H 10752 10764       L1    19  1.00

> <Gold.PLP.Chemscore.Internal.Correction>
0.0247

> <Gold.Rescore>
     Score         DG    S(hbond)    S(metal)    S(lipo)     H(rot)  DE(clash)    DE(int)     intcor
     14.92     -17.74       2.02        0.00      79.98       1.50       0.01       2.81       ----

> <Gold.Chemscore.Fitness>
14.9156

> <Gold.Chemscore.DG>
-17.7407

> <Gold.Chemscore.ZeroCoef>
-5.4800

> <Gold.Chemscore.Hbond>
2.0154

> <Gold.Chemscore.Metal>
0.0000

> <Gold.Chemscore.Lipo>
79.9841

> <Gold.Chemscore.Internal_Hbond>
0.0000

> <Gold.Chemscore.DEClash>
0.0143

> <Gold.Chemscore.DEInternal>
2.8108

> <Gold.Chemscore.Rot>
1.4957

> <Gold.Chemscore.Internal.Correction>
   9.000000E+99

> <Gold.Chemscore.Hbonds>
donor molecule, donor type, donor heavy atom, donor atom, acceptor molecule, acceptor atom, score
      P1  H  7989  7998       L1    16  0.96
      P1  H  8011  8017       L1     2  0.09
      P1  H 10752 10764       L1    19  0.87

> <Gold.Chemscore.Hbond.Weighted>
-6.7316

> <Gold.Chemscore.Metal.Weighted>
-0.0000

> <Gold.Chemscore.Lipo.Weighted>
-9.3581

> <Gold.Chemscore.Internal_Hbond.Weighted>
0.0000

> <Gold.Chemscore.DEClash.Weighted>
0.0143

> <Gold.Chemscore.DEInternal.Weighted>
2.8108

> <Gold.Chemscore.Rot.Weighted>
3.8290

> <Gold.Chemscore.Internal.Correction.Weighted>
   9.000000E+99

> <Gold.Protein.RotatedTorsions>
[ 6907 6896 6895 6894 ] final -177.08 input  -60.11 | X-H torsion
[ 7974 7965 7964 7962 ] final   18.98 input  175.53 | X-H torsion
[ 8008 7997 7996 7995 ] final -134.10 input   59.86 | X-H torsion
[ 10167 10162 10161 10158 ] final   70.92 input  -65.29 | X-H torsion
[ 10718 10713 10712 10709 ] final  129.40 input   66.30 | X-H torsion
[ 10763 10752 10751 10750 ] final   19.73 input  -60.55 | X-H torsion
[ 11005 11000 10999 10996 ] final -175.64 input  -57.11 | X-H torsion

> <Gold.Protein.ActiveResidues>
 VAL166  LYS551  ARG553  GLY616  TRP617  ASP618  TYR619  PRO620  LYS621  CYS622 
 ASP623  PHE694  ASN695  SER759  ASP760  ASP761  ALA762  ILE779  LEU786  VAL792 
 PHE793  MET794  SER795  GLU796  ALA797  LYS798  CYS799  TRP800  GLU811  SER814 

> <Gold.Protein.RotatedAtoms>
  151.6153  133.3343  159.3075 H   0  0  0  0  0  0  0  0  0  0  0  0  # atno 6907 bound_to 6896
  150.8135  134.7307  159.6720 H   0  0  0  0  0  0  0  0  0  0  0  0  # atno 6908 bound_to 6896
  152.4231  134.5923  160.0029 H   0  0  0  0  0  0  0  0  0  0  0  0  # atno 6909 bound_to 6896
  146.2165  139.8378  142.8647 H   0  0  0  0  0  0  0  0  0  0  0  0  # atno 7974 bound_to 7965
  155.3564  140.0480  157.3046 H   0  0  0  0  0  0  0  0  0  0  0  0  # atno 8008 bound_to 7997
  154.5200  140.2222  155.8957 H   0  0  0  0  0  0  0  0  0  0  0  0  # atno 8009 bound_to 7997
  156.1679  140.3102  155.8928 H   0  0  0  0  0  0  0  0  0  0  0  0  # atno 8010 bound_to 7997
  140.0517  144.5306  150.7358 H   0  0  0  0  0  0  0  0  0  0  0  0  # atno 10167 bound_to 10162
  157.5158  131.1097  150.9227 H   0  0  0  0  0  0  0  0  0  0  0  0  # atno 10718 bound_to 10713
  153.1137  135.6703  153.9456 H   0  0  0  0  0  0  0  0  0  0  0  0  # atno 10763 bound_to 10752
  153.8992  135.3038  155.3449 H   0  0  0  0  0  0  0  0  0  0  0  0  # atno 10764 bound_to 10752
  154.7555  135.5014  153.9444 H   0  0  0  0  0  0  0  0  0  0  0  0  # atno 10765 bound_to 10752
  140.4611  134.6254  157.4843 H   0  0  0  0  0  0  0  0  0  0  0  0  # atno 11005 bound_to 11000
  145.2930  141.0172  143.3652 LP  0  0  0  0  0  0  0  0  0  0  0  0  # atno 17320 bound_to 7965
  144.9063  139.4585  143.6608 LP  0  0  0  0  0  0  0  0  0  0  0  0  # atno 17321 bound_to 7965
  140.7213  143.2592  151.4268 LP  0  0  0  0  0  0  0  0  0  0  0  0  # atno 17342 bound_to 10162
  139.5949  144.1420  152.2131 LP  0  0  0  0  0  0  0  0  0  0  0  0  # atno 17343 bound_to 10162
  156.9853  130.5542  149.5299 LP  0  0  0  0  0  0  0  0  0  0  0  0  # atno 17370 bound_to 10713
  156.0319  130.5410  150.8556 LP  0  0  0  0  0  0  0  0  0  0  0  0  # atno 17371 bound_to 10713
  139.9945  134.6933  155.9633 LP  0  0  0  0  0  0  0  0  0  0  0  0  # atno 17394 bound_to 11000
  141.1621  133.6538  156.4353 LP  0  0  0  0  0  0  0  0  0  0  0  0  # atno 17395 bound_to 11000

$$$$
