AV-unprocessed.smi:340|AV-procd|sdf|2380|dock2
  -GOLD-   2262022303D 1   1.00000     0.00000
 Structure written by MMmdl.
 35 36  0  0  0  0  0  0  0  0  1 V2000
  150.3384  134.2526  154.9490 C   0  0  0  0  0  0  0  0  0  0  0  0
  150.8844  135.8647  155.6478 S   0  0  0  0  0  0  0  0  0  0  0  0
  149.7685  136.4190  156.4286 O   0  0  0  0  0  0  0  0  0  0  0  0
  152.2105  135.6934  156.2609 O   0  0  0  0  0  0  0  0  0  0  0  0
  151.0658  136.8567  154.2454 N   0  0  0  0  0  0  0  0  0  0  0  0
  150.6091  138.2461  154.1806 C   0  0  0  0  0  0  0  0  0  0  0  0
  151.0455  139.0777  155.3706 C   0  0  0  0  0  0  0  0  0  0  0  0
  150.1194  139.8645  156.0818 C   0  0  0  0  0  0  0  0  0  0  0  0
  150.5738  140.6366  157.1677 C   0  0  0  0  0  0  0  0  0  0  0  0
  151.9453  140.5989  157.5165 C   0  0  0  0  0  0  0  0  0  0  0  0
  152.4236  141.3680  158.5997 N   0  0  0  0  0  0  0  0  0  0  0  0
  151.5004  142.3731  159.1216 C   0  0  0  0  0  0  0  0  0  0  0  0
  152.2372  143.3380  160.0667 C   0  0  0  0  0  0  0  0  0  0  0  0
  152.8931  142.6017  161.0938 O   0  0  0  0  0  0  0  0  0  0  0  0
  153.8683  141.7091  160.5652 C   0  0  0  0  0  0  0  0  0  0  0  0
  153.1861  140.6848  159.6432 C   0  0  0  0  0  0  0  0  0  0  0  0
  152.8325  139.8409  156.8248 N   0  0  0  0  0  0  0  0  0  0  0  0
  152.3919  139.1008  155.7858 C   0  0  0  0  0  0  0  0  0  0  0  0
  150.1137  133.5651  155.7640 H   0  0  0  0  0  0  0  0  0  0  0  0
  151.1285  133.8258  154.3328 H   0  0  0  0  0  0  0  0  0  0  0  0
  149.4440  134.4001  154.3441 H   0  0  0  0  0  0  0  0  0  0  0  0
  151.3238  136.3922  153.3748 H   0  0  0  0  0  0  0  0  0  0  0  0
  151.0066  138.7011  153.2732 H   0  0  0  0  0  0  0  0  0  0  0  0
  149.5227  138.2612  154.0856 H   0  0  0  0  0  0  0  0  0  0  0  0
  149.0785  139.8853  155.7944 H   0  0  0  0  0  0  0  0  0  0  0  0
  149.8730  141.2579  157.7050 H   0  0  0  0  0  0  0  0  0  0  0  0
  151.0334  142.9477  158.3232 H   0  0  0  0  0  0  0  0  0  0  0  0
  150.6974  141.8668  159.6588 H   0  0  0  0  0  0  0  0  0  0  0  0
  152.9616  143.9421  159.5180 H   0  0  0  0  0  0  0  0  0  0  0  0
  151.5286  144.0288  160.5235 H   0  0  0  0  0  0  0  0  0  0  0  0
  154.6349  142.2682  160.0259 H   0  0  0  0  0  0  0  0  0  0  0  0
  154.3669  141.1986  161.3892 H   0  0  0  0  0  0  0  0  0  0  0  0
  152.5157  140.0490  160.2231 H   0  0  0  0  0  0  0  0  0  0  0  0
  153.9444  140.0399  159.1970 H   0  0  0  0  0  0  0  0  0  0  0  0
  153.1395  138.5200  155.2654 H   0  0  0  0  0  0  0  0  0  0  0  0
  1  2  1  0  0  0  0
  1 19  1  0  0  0  0
  1 20  1  0  0  0  0
  1 21  1  0  0  0  0
  2  3  2  0  0  0  0
  2  4  2  0  0  0  0
  2  5  1  0  0  0  0
  5  6  1  0  0  0  0
  5 22  1  0  0  0  0
  6  7  1  0  0  0  0
  6 23  1  0  0  0  0
  6 24  1  0  0  0  0
  7 18  1  0  0  0  0
  7  8  2  0  0  0  0
  8  9  1  0  0  0  0
  8 25  1  0  0  0  0
  9 10  2  0  0  0  0
  9 26  1  0  0  0  0
 10 11  1  0  0  0  0
 10 17  1  0  0  0  0
 11 16  1  0  0  0  0
 11 12  1  0  0  0  0
 12 13  1  0  0  0  0
 12 27  1  0  0  0  0
 12 28  1  0  0  0  0
 13 14  1  0  0  0  0
 13 29  1  0  0  0  0
 13 30  1  0  0  0  0
 14 15  1  0  0  0  0
 15 16  1  0  0  0  0
 15 31  1  0  0  0  0
 15 32  1  0  0  0  0
 16 33  1  0  0  0  0
 16 34  1  0  0  0  0
 17 18  2  0  0  0  0
 18 35  1  0  0  0  0
M  END
> <s_m_source_file>
AV-unprocessed.smi

> <i_m_source_file_index>
340

> <i_lp_mmshare_version>
43012

> <i_f3d_flags>
0

> <s_epik_input>
W0NIM11TKD1PKSg9TylbTkhdW0NIMl1jMVtjSF1bY0hdYyhuW2NIXTEpTjJbQ0gyXVtDSDJdT1tDSDJdW0NIMl0y

> <s_epik_cmdline>
J2VwaWtfcHl0aG9uJywgJy1waCcsICc3LjAnLCAnLXRuJywgJzgnLCAnLW1hJywgJzIwMCcsICctbWV0YWxfYmluZGluZycsICctaW1hZScsICc8aW5maWxlLm1hZT4nLCAnLW9tYWUnLCAnPG91dGZpbGUubWFlPic=

> <r_lp_tautomer_probability>
1

> <r_epik_Ionization_Penalty>
0.00676355

> <r_epik_Ionization_Penalty_Charging>
0

> <r_epik_Ionization_Penalty_Neutral>
0.00676355

> <r_epik_State_Penalty>
0.00499739

> <r_epik_Charging_Adjusted_Penalty>
0.00499739

> <i_epik_Tot_Q>
0

> <i_epik_Tot_abs_Q>
0

> <r_epik_Metal_State_Penalty>
0.025736

> <b_epik_Metal_Only>
0

> <s_lp_Force_Field>
OPLS_2005

> <r_lp_Energy>
12.1718

> <b_lp_Chiralities_Consistent>
1

> <s_lp_Variant>
AV-unprocessed.smi:340-1

> <Gold.Version>
5.8.1

> <Gold.Id.Protein>
6NUR|6NUR_protein|mol2

> <Gold.PLP.Fitness>
42.7493

> <Gold.PLP.PLP>
-34.1966

> <Gold.PLP.part.hbond>
-3.9517

> <Gold.PLP.part.metal>
0.0000

> <Gold.PLP.part.buried>
-4.2829

> <Gold.PLP.part.nonpolar>
-26.0754

> <Gold.PLP.part.repulsive>
0.1696

> <Gold.PLP.ligand.clash>
0.0000

> <Gold.PLP.ligand.torsion>
0.9051

> <Gold.PLP.Chemscore.Hbond>
3.0000

> <Gold.PLP.Chemscore.CHOScore>
0.0000

> <Gold.PLP.Chemscore.Metal>
0.0000

> <Gold.Chemscore.Hbonds>
donor molecule, donor type, donor heavy atom, donor atom, acceptor molecule, acceptor atom, score
      L1  H     5    22       P1  7949  1.00
      P1  H  7997  8008       L1    17  1.00
      P1  H 10752 10763       L1     4  0.85

> <Gold.PLP.Chemscore.Internal.Correction>
1.3627

> <Gold.Rescore>
     Score         DG    S(hbond)    S(metal)    S(lipo)     H(rot)  DE(clash)    DE(int)     intcor
     17.07     -18.11       2.22        0.00      79.43       1.59       0.01       1.02       ----

> <Gold.Chemscore.Fitness>
17.0728

> <Gold.Chemscore.DG>
-18.1102

> <Gold.Chemscore.ZeroCoef>
-5.4800

> <Gold.Chemscore.Hbond>
2.2194

> <Gold.Chemscore.Metal>
0.0000

> <Gold.Chemscore.Lipo>
79.4286

> <Gold.Chemscore.Internal_Hbond>
0.0000

> <Gold.Chemscore.DEClash>
0.0141

> <Gold.Chemscore.DEInternal>
1.0233

> <Gold.Chemscore.Rot>
1.5921

> <Gold.Chemscore.Internal.Correction>
   9.000000E+99

> <Gold.Chemscore.Hbonds>
donor molecule, donor type, donor heavy atom, donor atom, acceptor molecule, acceptor atom, score
      L1  H     5    22       P1  7949  0.69
      P1  H  7997  8008       L1    17  0.58
      P1  H 10752 10763       L1     4  0.14

> <Gold.Chemscore.Hbond.Weighted>
-7.4128

> <Gold.Chemscore.Metal.Weighted>
-0.0000

> <Gold.Chemscore.Lipo.Weighted>
-9.2931

> <Gold.Chemscore.Internal_Hbond.Weighted>
0.0000

> <Gold.Chemscore.DEClash.Weighted>
0.0141

> <Gold.Chemscore.DEInternal.Weighted>
1.0233

> <Gold.Chemscore.Rot.Weighted>
4.0757

> <Gold.Chemscore.Internal.Correction.Weighted>
   9.000000E+99

> <Gold.Protein.RotatedTorsions>
[ 6907 6896 6895 6894 ] final   63.80 input  -60.11 | X-H torsion
[ 7974 7965 7964 7962 ] final   46.24 input  175.53 | X-H torsion
[ 8008 7997 7996 7995 ] final  -58.08 input   59.86 | X-H torsion
[ 10167 10162 10161 10158 ] final -163.84 input  -65.29 | X-H torsion
[ 10718 10713 10712 10709 ] final  150.53 input   66.30 | X-H torsion
[ 10763 10752 10751 10750 ] final   76.42 input  -60.55 | X-H torsion
[ 11005 11000 10999 10996 ] final  -45.08 input  -57.11 | X-H torsion

> <Gold.Protein.ActiveResidues>
 VAL166  LYS551  ARG553  GLY616  TRP617  ASP618  TYR619  PRO620  LYS621  CYS622 
 ASP623  PHE694  ASN695  SER759  ASP760  ASP761  ALA762  ILE779  LEU786  VAL792 
 PHE793  MET794  SER795  GLU796  ALA797  LYS798  CYS799  TRP800  GLU811  SER814 

> <Gold.Protein.RotatedAtoms>
  152.4281  134.5829  159.9952 H   0  0  0  0  0  0  0  0  0  0  0  0  # atno 6907 bound_to 6896
  151.5960  133.3355  159.3045 H   0  0  0  0  0  0  0  0  0  0  0  0  # atno 6908 bound_to 6896
  150.8172  134.7397  159.6806 H   0  0  0  0  0  0  0  0  0  0  0  0  # atno 6909 bound_to 6896
  146.0407  139.4877  142.9780 H   0  0  0  0  0  0  0  0  0  0  0  0  # atno 7974 bound_to 7965
  154.4294  140.1092  156.5899 H   0  0  0  0  0  0  0  0  0  0  0  0  # atno 8008 bound_to 7997
  155.6022  140.3493  155.4578 H   0  0  0  0  0  0  0  0  0  0  0  0  # atno 8009 bound_to 7997
  156.0164  140.1230  157.0391 H   0  0  0  0  0  0  0  0  0  0  0  0  # atno 8010 bound_to 7997
  139.6292  144.0472  152.2001 H   0  0  0  0  0  0  0  0  0  0  0  0  # atno 10167 bound_to 10162
  157.2823  131.0838  151.1522 H   0  0  0  0  0  0  0  0  0  0  0  0  # atno 10718 bound_to 10713
  153.0724  135.4952  154.8333 H   0  0  0  0  0  0  0  0  0  0  0  0  # atno 10763 bound_to 10752
  154.7041  135.3007  154.9299 H   0  0  0  0  0  0  0  0  0  0  0  0  # atno 10764 bound_to 10752
  154.0014  135.6766  153.4812 H   0  0  0  0  0  0  0  0  0  0  0  0  # atno 10765 bound_to 10752
  141.0492  133.6749  156.2963 H   0  0  0  0  0  0  0  0  0  0  0  0  # atno 11005 bound_to 11000
  145.6888  141.0170  143.1566 LP  0  0  0  0  0  0  0  0  0  0  0  0  # atno 17320 bound_to 7965
  144.7073  139.8508  143.7426 LP  0  0  0  0  0  0  0  0  0  0  0  0  # atno 17321 bound_to 7965
  140.0133  144.6208  150.7629 LP  0  0  0  0  0  0  0  0  0  0  0  0  # atno 17342 bound_to 10162
  140.7429  143.2839  151.3520 LP  0  0  0  0  0  0  0  0  0  0  0  0  # atno 17343 bound_to 10162
  157.2952  130.6815  149.6135 LP  0  0  0  0  0  0  0  0  0  0  0  0  # atno 17370 bound_to 10713
  155.9664  130.4409  150.5317 LP  0  0  0  0  0  0  0  0  0  0  0  0  # atno 17371 bound_to 10713
  140.6087  134.5480  157.5530 LP  0  0  0  0  0  0  0  0  0  0  0  0  # atno 17394 bound_to 11000
  139.9337  134.7916  156.0862 LP  0  0  0  0  0  0  0  0  0  0  0  0  # atno 17395 bound_to 11000

$$$$
