AV-unprocessed.smi:1849|AV-procd|sdf|7521|dock6
  -GOLD-   22720 9233D 1   1.00000     0.00000
 Structure written by MMmdl.
 40 41  0  0  0  0  0  0  0  0  1 V2000
  147.0236  142.4265  154.0185 C   0  0  0  0  0  0  0  0  0  0  0  0
  148.0641  141.4507  154.2810 N   0  0  0  0  0  0  0  0  0  0  0  0
  149.2157  141.6654  155.0267 C   0  0  0  0  0  0  0  0  0  0  0  0
  149.9209  140.4863  155.0106 C   0  0  0  0  0  0  0  0  0  0  0  0
  149.2236  139.5414  154.2654 N   0  0  0  0  0  0  0  0  0  0  0  0
  148.1231  140.1710  153.8645 C   0  0  0  0  0  0  0  0  0  0  0  0
  147.0714  139.5417  153.0057 C   0  0  0  0  0  0  0  0  0  0  0  0
  146.4040  138.3360  153.6868 C   0  0  0  0  0  0  0  0  0  0  0  0
  146.7239  137.0887  153.0034 N   0  0  0  0  0  0  0  0  0  0  0  0
  145.8194  136.1920  152.5860 C   0  0  0  0  0  0  0  0  0  0  0  0
  144.6034  136.3203  152.7324 O   0  0  0  0  0  0  0  0  0  0  0  0
  146.3997  135.1383  151.9950 N   0  0  0  0  0  0  0  0  0  0  0  0
  145.6921  133.9902  151.4361 C   0  0  0  0  0  0  0  0  0  0  0  0
  146.6809  133.0148  150.7636 C   0  0  0  0  0  0  0  0  0  0  0  0
  145.9474  131.8401  150.0963 C   0  0  0  0  0  0  0  0  0  0  0  0
  144.8940  132.3364  149.0935 C   0  0  0  0  0  0  0  0  0  0  0  0
  143.9026  133.3002  149.7642 C   0  0  0  0  0  0  0  0  0  0  0  0
  144.6343  134.4779  150.4278 C   0  0  0  0  0  0  0  0  0  0  0  0
  147.3292  143.4088  154.3797 H   0  0  0  0  0  0  0  0  0  0  0  0
  146.1058  142.1322  154.5279 H   0  0  0  0  0  0  0  0  0  0  0  0
  146.8346  142.4899  152.9465 H   0  0  0  0  0  0  0  0  0  0  0  0
  149.4340  142.6152  155.4920 H   0  0  0  0  0  0  0  0  0  0  0  0
  150.8679  140.2475  155.4717 H   0  0  0  0  0  0  0  0  0  0  0  0
  146.3191  140.2967  152.7737 H   0  0  0  0  0  0  0  0  0  0  0  0
  147.5114  139.2507  152.0515 H   0  0  0  0  0  0  0  0  0  0  0  0
  146.7039  138.2724  154.7342 H   0  0  0  0  0  0  0  0  0  0  0  0
  145.3207  138.4596  153.6820 H   0  0  0  0  0  0  0  0  0  0  0  0
  147.7011  136.8952  152.8396 H   0  0  0  0  0  0  0  0  0  0  0  0
  147.4067  135.1281  151.9255 H   0  0  0  0  0  0  0  0  0  0  0  0
  145.1744  133.4665  152.2423 H   0  0  0  0  0  0  0  0  0  0  0  0
  147.2709  133.5447  150.0144 H   0  0  0  0  0  0  0  0  0  0  0  0
  147.3899  132.6298  151.4975 H   0  0  0  0  0  0  0  0  0  0  0  0
  146.6647  131.1920  149.5920 H   0  0  0  0  0  0  0  0  0  0  0  0
  145.4643  131.2306  150.8610 H   0  0  0  0  0  0  0  0  0  0  0  0
  145.3889  132.8404  148.2623 H   0  0  0  0  0  0  0  0  0  0  0  0
  144.3585  131.4879  148.6667 H   0  0  0  0  0  0  0  0  0  0  0  0
  143.1900  133.6730  149.0278 H   0  0  0  0  0  0  0  0  0  0  0  0
  143.3200  132.7626  150.5135 H   0  0  0  0  0  0  0  0  0  0  0  0
  143.9111  135.1240  150.9271 H   0  0  0  0  0  0  0  0  0  0  0  0
  145.1105  135.0853  149.6565 H   0  0  0  0  0  0  0  0  0  0  0  0
  1  2  1  0  0  0  0
  1 19  1  0  0  0  0
  1 20  1  0  0  0  0
  1 21  1  0  0  0  0
  2  6  1  0  0  0  0
  2  3  1  0  0  0  0
  3  4  2  0  0  0  0
  3 22  1  0  0  0  0
  4  5  1  0  0  0  0
  4 23  1  0  0  0  0
  5  6  2  0  0  0  0
  6  7  1  0  0  0  0
  7  8  1  0  0  0  0
  7 24  1  0  0  0  0
  7 25  1  0  0  0  0
  8  9  1  0  0  0  0
  8 26  1  0  0  0  0
  8 27  1  0  0  0  0
  9 10  1  0  0  0  0
  9 28  1  0  0  0  0
 10 11  2  0  0  0  0
 10 12  1  0  0  0  0
 12 13  1  0  0  0  0
 12 29  1  0  0  0  0
 13 18  1  0  0  0  0
 13 14  1  0  0  0  0
 13 30  1  0  0  0  0
 14 15  1  0  0  0  0
 14 31  1  0  0  0  0
 14 32  1  0  0  0  0
 15 16  1  0  0  0  0
 15 33  1  0  0  0  0
 15 34  1  0  0  0  0
 16 17  1  0  0  0  0
 16 35  1  0  0  0  0
 16 36  1  0  0  0  0
 17 18  1  0  0  0  0
 17 37  1  0  0  0  0
 17 38  1  0  0  0  0
 18 39  1  0  0  0  0
 18 40  1  0  0  0  0
M  END
> <s_m_source_file>
AV-unprocessed.smi

> <i_m_source_file_index>
1849

> <i_lp_mmshare_version>
43012

> <i_f3d_flags>
0

> <s_epik_input>
W0NIM11uMVtjSF1bY0hdbmMxW0NIMl1bQ0gyXVtOSF1DKD1PKVtOSF1bQ0hdMltDSDJdW0NIMl1bQ0gyXVtDSDJdW0NIMl0y

> <s_epik_cmdline>
J2VwaWtfcHl0aG9uJywgJy1waCcsICc3LjAnLCAnLXRuJywgJzgnLCAnLW1hJywgJzIwMCcsICctbWV0YWxfYmluZGluZycsICctaW1hZScsICc8aW5maWxlLm1hZT4nLCAnLW9tYWUnLCAnPG91dGZpbGUubWFlPic=

> <r_lp_tautomer_probability>
1

> <r_epik_Ionization_Penalty>
1.48237

> <r_epik_Ionization_Penalty_Charging>
1.48231

> <r_epik_Ionization_Penalty_Neutral>
5.84917e-05

> <r_epik_State_Penalty>
1.57104

> <r_epik_Charging_Adjusted_Penalty>
3.05335

> <i_epik_Tot_Q>
0

> <i_epik_Tot_abs_Q>
0

> <r_epik_Metal_State_Penalty>
0.437242

> <b_epik_Metal_Only>
0

> <s_lp_Force_Field>
OPLS_2005

> <r_lp_Energy>
3.77176

> <b_lp_Chiralities_Consistent>
1

> <s_lp_Variant>
AV-unprocessed.smi:1849-2

> <Gold.Version>
5.8.1

> <Gold.Id.Protein>
6NUR|6NUR_protein|mol2

> <Gold.PLP.Fitness>
42.4181

> <Gold.PLP.PLP>
-34.4603

> <Gold.PLP.part.hbond>
-2.0000

> <Gold.PLP.part.metal>
0.0000

> <Gold.PLP.part.buried>
1.3059

> <Gold.PLP.part.nonpolar>
-33.2704

> <Gold.PLP.part.repulsive>
0.3358

> <Gold.PLP.ligand.clash>
0.0000

> <Gold.PLP.ligand.torsion>
0.4181

> <Gold.PLP.Chemscore.Hbond>
1.9280

> <Gold.PLP.Chemscore.CHOScore>
1.0000

> <Gold.PLP.Chemscore.Metal>
0.0000

> <Gold.Chemscore.Hbonds>
donor molecule, donor type, donor heavy atom, donor atom, acceptor molecule, acceptor atom, score
      L1  H     9    28       P1  7948  1.00
      L1  H    12    29       P1  7948  0.90
      L1  C     3    22       P1  8028  1.00

> <Gold.PLP.Chemscore.Internal.Correction>
0.0101

> <Gold.Rescore>
     Score         DG    S(hbond)    S(metal)    S(lipo)     H(rot)  DE(clash)    DE(int)     intcor
     16.91     -17.39       1.86        0.00      85.08       1.66       0.02       0.46       ----

> <Gold.Chemscore.Fitness>
16.9080

> <Gold.Chemscore.DG>
-17.3933

> <Gold.Chemscore.ZeroCoef>
-5.4800

> <Gold.Chemscore.Hbond>
1.8569

> <Gold.Chemscore.Metal>
0.0000

> <Gold.Chemscore.Lipo>
85.0790

> <Gold.Chemscore.Internal_Hbond>
0.0000

> <Gold.Chemscore.DEClash>
0.0228

> <Gold.Chemscore.DEInternal>
0.4625

> <Gold.Chemscore.Rot>
1.6575

> <Gold.Chemscore.Internal.Correction>
   9.000000E+99

> <Gold.Chemscore.Hbonds>
donor molecule, donor type, donor heavy atom, donor atom, acceptor molecule, acceptor atom, score
      L1  H     9    28       P1  7948  0.94
      L1  H    12    29       P1  7948  0.84

> <Gold.Chemscore.Hbond.Weighted>
-6.2022

> <Gold.Chemscore.Metal.Weighted>
-0.0000

> <Gold.Chemscore.Lipo.Weighted>
-9.9542

> <Gold.Chemscore.Internal_Hbond.Weighted>
0.0000

> <Gold.Chemscore.DEClash.Weighted>
0.0228

> <Gold.Chemscore.DEInternal.Weighted>
0.4625

> <Gold.Chemscore.Rot.Weighted>
4.2432

> <Gold.Chemscore.Internal.Correction.Weighted>
   9.000000E+99

> <Gold.Protein.RotatedTorsions>
[ 6907 6896 6895 6894 ] final  144.05 input  -60.11 | X-H torsion
[ 7974 7965 7964 7962 ] final  -71.63 input  175.53 | X-H torsion
[ 8008 7997 7996 7995 ] final -127.73 input   59.86 | X-H torsion
[ 10167 10162 10161 10158 ] final   86.39 input  -65.29 | X-H torsion
[ 10718 10713 10712 10709 ] final -122.51 input   66.30 | X-H torsion
[ 10763 10752 10751 10750 ] final   17.19 input  -60.55 | X-H torsion
[ 11005 11000 10999 10996 ] final  178.62 input  -57.11 | X-H torsion

> <Gold.Protein.ActiveResidues>
 VAL166  LYS551  ARG553  GLY616  TRP617  ASP618  TYR619  PRO620  LYS621  CYS622 
 ASP623  PHE694  ASN695  SER759  ASP760  ASP761  ALA762  ILE779  LEU786  VAL792 
 PHE793  MET794  SER795  GLU796  ALA797  LYS798  CYS799  TRP800  GLU811  SER814 

> <Gold.Protein.RotatedAtoms>
  152.1985  133.4824  159.5045 H   0  0  0  0  0  0  0  0  0  0  0  0  # atno 6907 bound_to 6896
  150.6965  134.1620  159.4189 H   0  0  0  0  0  0  0  0  0  0  0  0  # atno 6908 bound_to 6896
  151.9537  135.0156  160.0594 H   0  0  0  0  0  0  0  0  0  0  0  0  # atno 6909 bound_to 6896
  145.6756  140.9206  143.0860 H   0  0  0  0  0  0  0  0  0  0  0  0  # atno 7974 bound_to 7965
  155.2510  140.0432  157.2986 H   0  0  0  0  0  0  0  0  0  0  0  0  # atno 8008 bound_to 7997
  154.5769  140.2389  155.8080 H   0  0  0  0  0  0  0  0  0  0  0  0  # atno 8009 bound_to 7997
  156.2164  140.2983  155.9858 H   0  0  0  0  0  0  0  0  0  0  0  0  # atno 8010 bound_to 7997
  139.8880  144.6402  150.8770 H   0  0  0  0  0  0  0  0  0  0  0  0  # atno 10167 bound_to 10162
  156.1425  130.6476  150.9792 H   0  0  0  0  0  0  0  0  0  0  0  0  # atno 10718 bound_to 10713
  153.1362  135.6750  153.9100 H   0  0  0  0  0  0  0  0  0  0  0  0  # atno 10763 bound_to 10752
  153.8571  135.3086  155.3437 H   0  0  0  0  0  0  0  0  0  0  0  0  # atno 10764 bound_to 10752
  154.7749  135.4919  153.9807 H   0  0  0  0  0  0  0  0  0  0  0  0  # atno 10765 bound_to 10752
  140.3971  134.6811  157.4540 H   0  0  0  0  0  0  0  0  0  0  0  0  # atno 11005 bound_to 11000
  144.7043  139.8629  143.7435 LP  0  0  0  0  0  0  0  0  0  0  0  0  # atno 17320 bound_to 7965
  146.1008  139.4004  143.0348 LP  0  0  0  0  0  0  0  0  0  0  0  0  # atno 17321 bound_to 7965
  140.7732  143.3533  151.1971 LP  0  0  0  0  0  0  0  0  0  0  0  0  # atno 17342 bound_to 10162
  139.7136  143.9337  152.2957 LP  0  0  0  0  0  0  0  0  0  0  0  0  # atno 17343 bound_to 10162
  157.6588  131.0884  150.7887 LP  0  0  0  0  0  0  0  0  0  0  0  0  # atno 17370 bound_to 10713
  156.7961  130.4906  149.5377 LP  0  0  0  0  0  0  0  0  0  0  0  0  # atno 17371 bound_to 10713
  140.0364  134.6331  155.9038 LP  0  0  0  0  0  0  0  0  0  0  0  0  # atno 17394 bound_to 11000
  141.1870  133.6559  156.5264 LP  0  0  0  0  0  0  0  0  0  0  0  0  # atno 17395 bound_to 11000

$$$$
