AV-unprocessed.smi:92|AV-procd|sdf|846|dock5
  -GOLD-   2262017283D 1   1.00000     0.00000
 Structure written by MMmdl.
 61 64  0  0  0  0  0  0  0  0  2 V2000
  150.5393  143.2215  158.3048 C   0  0  0  0  0  0  0  0  0  0  0  0
  151.0396  142.2484  157.2277 C   0  0  0  0  0  0  0  0  0  0  0  0
  150.9788  140.8293  157.6695 N   0  3  1  0  0  0  0  0  0  0  0  0
  149.6349  140.4154  158.1466 C   0  0  0  0  0  0  0  0  0  0  0  0
  148.6537  140.2202  156.9800 C   0  0  0  0  0  0  0  0  0  0  0  0
  149.1981  139.1940  155.9649 C   0  0  1  0  0  0  0  0  0  0  0  0
  148.2641  138.9881  154.8484 N   0  0  0  0  0  0  0  0  0  0  0  0
  147.6832  140.1317  154.1487 C   0  0  0  0  0  0  0  0  0  0  0  0
  147.6385  137.7879  154.6946 C   0  0  0  0  0  0  0  0  0  0  0  0
  147.7739  136.8374  155.6580 N   0  0  0  0  0  0  0  0  0  0  0  0
  147.1641  135.6553  155.5390 C   0  0  0  0  0  0  0  0  0  0  0  0
  146.3843  135.2166  154.5511 N   0  0  0  0  0  0  0  0  0  0  0  0
  146.2461  136.1554  153.5722 C   0  0  0  0  0  0  0  0  0  0  0  0
  146.8332  137.4544  153.5647 C   0  0  0  0  0  0  0  0  0  0  0  0
  146.4789  138.1193  152.3961 N   0  0  0  0  0  0  0  0  0  0  0  0
  145.7212  137.2708  151.7579 C   0  0  0  0  0  0  0  0  0  0  0  0
  145.5260  136.0645  152.3910 N   0  0  0  0  0  0  0  0  0  0  0  0
  144.7405  134.9650  151.9012 C   0  0  0  0  0  0  0  0  0  0  0  0
  145.0307  133.5225  152.3290 C   0  0  0  0  0  0  0  0  0  0  0  0
  144.6745  133.0253  150.9077 C   0  0  0  0  0  0  0  0  0  0  0  0
  145.6351  131.9952  150.2838 C   0  0  0  0  0  0  0  0  0  0  0  0
  146.9935  132.3689  150.3997 O   0  0  0  0  0  0  0  0  0  0  0  0
  143.2669  132.4162  150.7318 C   0  0  0  0  0  0  0  0  0  0  0  0
  142.9336  132.1452  149.3851 O   0  0  0  0  0  0  0  0  0  0  0  0
  144.8463  134.4925  150.4472 C   0  0  0  0  0  0  0  0  0  0  0  0
  150.6158  139.5983  155.4877 C   0  0  2  0  0  0  0  0  0  0  0  0
  151.2362  138.5352  154.5639 C   0  0  0  0  0  0  0  0  0  0  0  0
  151.5402  139.8464  156.7032 C   0  0  0  0  0  0  0  0  0  0  0  0
  150.5051  144.2385  157.9137 H   0  0  0  0  0  0  0  0  0  0  0  0
  151.1882  143.2356  159.1796 H   0  0  0  0  0  0  0  0  0  0  0  0
  149.5329  142.9617  158.6339 H   0  0  0  0  0  0  0  0  0  0  0  0
  150.4021  142.3731  156.3517 H   0  0  0  0  0  0  0  0  0  0  0  0
  152.0464  142.5175  156.9094 H   0  0  0  0  0  0  0  0  0  0  0  0
  149.7362  139.4786  158.6964 H   0  0  0  0  0  0  0  0  0  0  0  0
  149.2442  141.1430  158.8588 H   0  0  0  0  0  0  0  0  0  0  0  0
  147.6924  139.8858  157.3707 H   0  0  0  0  0  0  0  0  0  0  0  0
  148.4659  141.1790  156.4963 H   0  0  0  0  0  0  0  0  0  0  0  0
  149.3238  138.2463  156.4902 H   0  0  0  0  0  0  0  0  0  0  0  0
  146.6005  140.0337  154.0613 H   0  0  0  0  0  0  0  0  0  0  0  0
  148.1049  140.2131  153.1469 H   0  0  0  0  0  0  0  0  0  0  0  0
  147.8830  141.0676  154.6685 H   0  0  0  0  0  0  0  0  0  0  0  0
  147.3225  134.9616  156.3513 H   0  0  0  0  0  0  0  0  0  0  0  0
  145.2831  137.5058  150.7988 H   0  0  0  0  0  0  0  0  0  0  0  0
  143.7026  135.2108  152.1306 H   0  0  0  0  0  0  0  0  0  0  0  0
  146.0755  133.3652  152.5985 H   0  0  0  0  0  0  0  0  0  0  0  0
  144.3748  133.1529  153.1177 H   0  0  0  0  0  0  0  0  0  0  0  0
  145.5190  131.0204  150.7588 H   0  0  0  0  0  0  0  0  0  0  0  0
  145.4193  131.8562  149.2239 H   0  0  0  0  0  0  0  0  0  0  0  0
  147.5294  131.6015  150.2694 H   0  0  0  0  0  0  0  0  0  0  0  0
  143.1789  131.4812  151.2863 H   0  0  0  0  0  0  0  0  0  0  0  0
  142.5046  133.0870  151.1295 H   0  0  0  0  0  0  0  0  0  0  0  0
  142.3005  132.7851  149.0971 H   0  0  0  0  0  0  0  0  0  0  0  0
  144.0495  134.8629  149.8014 H   0  0  0  0  0  0  0  0  0  0  0  0
  145.8213  134.7017  150.0064 H   0  0  0  0  0  0  0  0  0  0  0  0
  150.5528  140.5240  154.9168 H   0  0  0  0  0  0  0  0  0  0  0  0
  151.3048  137.5675  155.0619 H   0  0  0  0  0  0  0  0  0  0  0  0
  152.2418  138.8222  154.2553 H   0  0  0  0  0  0  0  0  0  0  0  0
  150.6475  138.3997  153.6564 H   0  0  0  0  0  0  0  0  0  0  0  0
  152.5294  140.1605  156.3723 H   0  0  0  0  0  0  0  0  0  0  0  0
  151.6930  138.9070  157.2364 H   0  0  0  0  0  0  0  0  0  0  0  0
  151.5736  140.7882  158.4847 H   0  0  0  0  0  0  0  0  0  0  0  0
  1  2  1  0  0  0  0
  1 29  1  0  0  0  0
  1 30  1  0  0  0  0
  1 31  1  0  0  0  0
  2  3  1  0  0  0  0
  2 32  1  0  0  0  0
  2 33  1  0  0  0  0
  3 28  1  0  0  0  0
  3  4  1  0  0  0  0
  3 61  1  0  0  0  0
  4  5  1  0  0  0  0
  4 34  1  0  0  0  0
  4 35  1  0  0  0  0
  5  6  1  0  0  0  0
  5 36  1  0  0  0  0
  5 37  1  0  0  0  0
  6  7  1  0  0  0  0
  6 26  1  0  0  0  0
  6 38  1  0  0  0  0
  7  8  1  0  0  0  0
  7  9  1  0  0  0  0
  8 39  1  0  0  0  0
  8 40  1  0  0  0  0
  8 41  1  0  0  0  0
  9 14  1  0  0  0  0
  9 10  2  0  0  0  0
 10 11  1  0  0  0  0
 11 12  2  0  0  0  0
 11 42  1  0  0  0  0
 12 13  1  0  0  0  0
 13 17  1  0  0  0  0
 13 14  2  0  0  0  0
 14 15  1  0  0  0  0
 15 16  2  0  0  0  0
 16 17  1  0  0  0  0
 16 43  1  0  0  0  0
 17 18  1  0  0  0  0
 18 25  1  0  0  0  0
 18 19  1  0  0  0  0
 18 44  1  0  0  0  0
 19 20  1  0  0  0  0
 19 45  1  0  0  0  0
 19 46  1  0  0  0  0
 20 21  1  0  0  0  0
 20 23  1  0  0  0  0
 20 25  1  0  0  0  0
 21 22  1  0  0  0  0
 21 47  1  0  0  0  0
 21 48  1  0  0  0  0
 22 49  1  0  0  0  0
 23 24  1  0  0  0  0
 23 50  1  0  0  0  0
 23 51  1  0  0  0  0
 24 52  1  0  0  0  0
 25 53  1  0  0  0  0
 25 54  1  0  0  0  0
 26 27  1  0  0  0  0
 26 28  1  0  0  0  0
 26 55  1  0  0  0  0
 27 56  1  0  0  0  0
 27 57  1  0  0  0  0
 27 58  1  0  0  0  0
 28 59  1  0  0  0  0
 28 60  1  0  0  0  0
M  CHG  1   3   1
M  END
> <s_m_source_file>
AV-unprocessed.smi

> <i_m_source_file_index>
92

> <i_lp_mmshare_version>
43012

> <i_f3d_flags>
0

> <s_epik_input>
W0NIM11bQ0gyXU4xW0NIMl1bQ0gyXVtDQEhdKFtDQEBIXShbQ0gzXSlbQ0gyXTEpTihbQ0gzXSljKG5bY0hdbjIpYyhjMjMpbltjSF1uM1tDSF0oW0NIMl00KVtDSDJdQzQoW0NIMl1bT0hdKVtDSDJdW09IXQ==

> <s_epik_cmdline>
J2VwaWtfcHl0aG9uJywgJy1waCcsICc3LjAnLCAnLXRuJywgJzgnLCAnLW1hJywgJzIwMCcsICctbWV0YWxfYmluZGluZycsICctaW1hZScsICc8aW5maWxlLm1hZT4nLCAnLW9tYWUnLCAnPG91dGZpbGUubWFlPic=

> <r_lp_tautomer_probability>
1

> <r_epik_Ionization_Penalty>
0.00235514

> <r_epik_Ionization_Penalty_Charging>
0.00137877

> <r_epik_Ionization_Penalty_Neutral>
0.000976366

> <r_epik_State_Penalty>
-0

> <r_epik_Charging_Adjusted_Penalty>
0.00137877

> <i_epik_Tot_Q>
1

> <i_epik_Tot_abs_Q>
1

> <r_epik_Metal_State_Penalty>
-0

> <b_epik_Metal_Only>
0

> <s_lp_Force_Field>
OPLS_2005

> <r_lp_Energy>
55.2069

> <b_lp_Chiralities_Consistent>
1

> <s_lp_Variant>
AV-unprocessed.smi:92-6

> <Gold.Version>
5.8.1

> <Gold.Id.Protein>
6NUR|6NUR_protein|mol2

> <Gold.PLP.Fitness>
47.2102

> <Gold.PLP.PLP>
-37.5774

> <Gold.PLP.part.hbond>
-3.5783

> <Gold.PLP.part.metal>
0.0000

> <Gold.PLP.part.buried>
-3.9038

> <Gold.PLP.part.nonpolar>
-31.3689

> <Gold.PLP.part.repulsive>
0.5458

> <Gold.PLP.ligand.clash>
0.0000

> <Gold.PLP.ligand.torsion>
1.0040

> <Gold.PLP.Chemscore.Hbond>
2.5925

> <Gold.PLP.Chemscore.CHOScore>
0.9814

> <Gold.PLP.Chemscore.Metal>
0.0000

> <Gold.Chemscore.Hbonds>
donor molecule, donor type, donor heavy atom, donor atom, acceptor molecule, acceptor atom, score
      L1  H    22    49       P1 10747  1.00
      L1  H    24    52       P1 10186  0.76
      P1  H 10785 10796       L1    24  0.78
      L1  C    16    43       P1 10171  1.00

> <Gold.PLP.Chemscore.Internal.Correction>
0.9191

> <Gold.Rescore>
     Score         DG    S(hbond)    S(metal)    S(lipo)     H(rot)  DE(clash)    DE(int)     intcor
     13.18     -15.64       2.32        0.00      91.21       3.22       0.10       2.36       ----

> <Gold.Chemscore.Fitness>
13.1825

> <Gold.Chemscore.DG>
-15.6445

> <Gold.Chemscore.ZeroCoef>
-5.4800

> <Gold.Chemscore.Hbond>
2.3178

> <Gold.Chemscore.Metal>
0.0000

> <Gold.Chemscore.Lipo>
91.2065

> <Gold.Chemscore.Internal_Hbond>
0.0000

> <Gold.Chemscore.DEClash>
0.1049

> <Gold.Chemscore.DEInternal>
2.3571

> <Gold.Chemscore.Rot>
3.2219

> <Gold.Chemscore.Internal.Correction>
   9.000000E+99

> <Gold.Chemscore.Hbonds>
donor molecule, donor type, donor heavy atom, donor atom, acceptor molecule, acceptor atom, score
      L1  H    22    49       P1 10747  0.95
      L1  H    24    52       P1 10186  0.72
      P1  H 10785 10796       L1    24  0.71

> <Gold.Chemscore.Hbond.Weighted>
-7.7416

> <Gold.Chemscore.Metal.Weighted>
-0.0000

> <Gold.Chemscore.Lipo.Weighted>
-10.6712

> <Gold.Chemscore.Internal_Hbond.Weighted>
0.0000

> <Gold.Chemscore.DEClash.Weighted>
0.1049

> <Gold.Chemscore.DEInternal.Weighted>
2.3571

> <Gold.Chemscore.Rot.Weighted>
8.2482

> <Gold.Chemscore.Internal.Correction.Weighted>
   9.000000E+99

> <Gold.Protein.RotatedTorsions>
[ 6907 6896 6895 6894 ] final   16.34 input  -60.11 | X-H torsion
[ 7974 7965 7964 7962 ] final    9.04 input  175.53 | X-H torsion
[ 8008 7997 7996 7995 ] final -121.25 input   59.86 | X-H torsion
[ 10167 10162 10161 10158 ] final -156.71 input  -65.29 | X-H torsion
[ 10718 10713 10712 10709 ] final    9.74 input   66.30 | X-H torsion
[ 10763 10752 10751 10750 ] final   40.55 input  -60.55 | X-H torsion
[ 11005 11000 10999 10996 ] final  169.31 input  -57.11 | X-H torsion

> <Gold.Protein.ActiveResidues>
 VAL166  LYS551  ARG553  GLY616  TRP617  ASP618  TYR619  PRO620  LYS621  CYS622 
 ASP623  PHE694  ASN695  SER759  ASP760  ASP761  ALA762  ILE779  LEU786  VAL792 
 PHE793  MET794  SER795  GLU796  ALA797  LYS798  CYS799  TRP800  GLU811  SER814 

> <Gold.Protein.RotatedAtoms>
  151.8323  135.0617  160.0437 H   0  0  0  0  0  0  0  0  0  0  0  0  # atno 6907 bound_to 6896
  152.2871  133.5521  159.5542 H   0  0  0  0  0  0  0  0  0  0  0  0  # atno 6908 bound_to 6896
  150.7214  134.0397  159.3804 H   0  0  0  0  0  0  0  0  0  0  0  0  # atno 6909 bound_to 6896
  146.2409  139.9843  142.8432 H   0  0  0  0  0  0  0  0  0  0  0  0  # atno 7974 bound_to 7965
  155.1450  140.0402  157.2807 H   0  0  0  0  0  0  0  0  0  0  0  0  # atno 8008 bound_to 7997
  154.6446  140.2555  155.7257 H   0  0  0  0  0  0  0  0  0  0  0  0  # atno 8009 bound_to 7997
  156.2548  140.2849  156.0854 H   0  0  0  0  0  0  0  0  0  0  0  0  # atno 8010 bound_to 7997
  139.6828  143.9551  152.2346 H   0  0  0  0  0  0  0  0  0  0  0  0  # atno 10167 bound_to 10162
  156.9708  130.5968  149.5668 H   0  0  0  0  0  0  0  0  0  0  0  0  # atno 10718 bound_to 10713
  152.9933  135.6188  154.2644 H   0  0  0  0  0  0  0  0  0  0  0  0  # atno 10763 bound_to 10752
  154.2379  135.2789  155.2867 H   0  0  0  0  0  0  0  0  0  0  0  0  # atno 10764 bound_to 10752
  154.5394  135.5765  153.6884 H   0  0  0  0  0  0  0  0  0  0  0  0  # atno 10765 bound_to 10752
  140.2965  134.7631  157.3881 H   0  0  0  0  0  0  0  0  0  0  0  0  # atno 11005 bound_to 11000
  145.1562  140.9649  143.4404 LP  0  0  0  0  0  0  0  0  0  0  0  0  # atno 17320 bound_to 7965
  145.0159  139.3468  143.6097 LP  0  0  0  0  0  0  0  0  0  0  0  0  # atno 17321 bound_to 7965
  139.9346  144.6720  150.8328 LP  0  0  0  0  0  0  0  0  0  0  0  0  # atno 17342 bound_to 10162
  140.7658  143.3285  151.2462 LP  0  0  0  0  0  0  0  0  0  0  0  0  # atno 17343 bound_to 10162
  156.0284  130.5376  150.8468 LP  0  0  0  0  0  0  0  0  0  0  0  0  # atno 17370 bound_to 10713
  157.5594  131.0945  150.9581 LP  0  0  0  0  0  0  0  0  0  0  0  0  # atno 17371 bound_to 10713
  140.1148  134.5297  155.8234 LP  0  0  0  0  0  0  0  0  0  0  0  0  # atno 17394 bound_to 11000
  141.2136  133.6736  156.6757 LP  0  0  0  0  0  0  0  0  0  0  0  0  # atno 17395 bound_to 11000

$$$$
