AV-unprocessed.smi:1944|AV-procd|sdf|7853|dock3
  -GOLD-   2272010 03D 1   1.00000     0.00000
 Structure written by MMmdl.
 46 47  0  0  0  0  0  0  0  0  2 V2000
  151.8986  138.4595  154.8158 C   0  0  0  0  0  0  0  0  0  0  0  0
  150.5317  138.3004  154.4519 O   0  0  0  0  0  0  0  0  0  0  0  0
  149.7200  139.4187  154.4295 C   0  0  0  0  0  0  0  0  0  0  0  0
  150.2730  140.6232  154.7196 N   0  0  0  0  0  0  0  0  0  0  0  0
  149.4834  141.7164  154.6925 C   0  0  0  0  0  0  0  0  0  0  0  0
  148.1145  141.6697  154.3717 C   0  0  0  0  0  0  0  0  0  0  0  0
  147.5384  140.4217  154.0708 C   0  0  0  0  0  0  0  0  0  0  0  0
  148.3508  139.2623  154.1094 C   0  0  0  0  0  0  0  0  0  0  0  0
  147.8792  137.9553  153.8039 N   0  0  0  0  0  0  0  0  0  0  0  0
  146.6835  137.4069  154.0780 C   0  0  0  0  0  0  0  0  0  0  0  0
  145.7666  137.9582  154.6868 O   0  0  0  0  0  0  0  0  0  0  0  0
  146.6097  136.1495  153.6193 N   0  0  0  0  0  0  0  0  0  0  0  0
  145.4457  135.2816  153.7536 C   0  0  0  0  0  0  0  0  0  0  0  0
  145.8211  133.7979  153.5420 C   0  0  0  0  0  0  0  0  0  0  0  0
  145.5629  133.2902  152.1653 N   0  3  2  0  0  0  0  0  0  0  0  0
  144.4487  134.0120  151.4934 C   0  0  0  0  0  0  0  0  0  0  0  0
  144.3765  133.6583  150.0008 C   0  0  0  0  0  0  0  0  0  0  0  0
  144.2259  132.1456  149.8135 C   0  0  0  0  0  0  0  0  0  0  0  0
  145.3669  131.4163  150.5333 C   0  0  0  0  0  0  0  0  0  0  0  0
  145.4462  131.8042  152.0259 C   0  0  1  0  0  0  0  0  0  0  0  0
  146.6106  131.0469  152.6943 C   0  0  0  0  0  0  0  0  0  0  0  0
  152.3967  137.4911  154.7755 H   0  0  0  0  0  0  0  0  0  0  0  0
  151.9995  138.8412  155.8326 H   0  0  0  0  0  0  0  0  0  0  0  0
  152.4195  139.1278  154.1289 H   0  0  0  0  0  0  0  0  0  0  0  0
  149.9585  142.6575  154.9271 H   0  0  0  0  0  0  0  0  0  0  0  0
  147.5210  142.5715  154.3519 H   0  0  0  0  0  0  0  0  0  0  0  0
  146.4941  140.3834  153.8034 H   0  0  0  0  0  0  0  0  0  0  0  0
  148.5590  137.3464  153.3718 H   0  0  0  0  0  0  0  0  0  0  0  0
  147.4102  135.7714  153.1335 H   0  0  0  0  0  0  0  0  0  0  0  0
  144.9920  135.4438  154.7320 H   0  0  0  0  0  0  0  0  0  0  0  0
  144.7118  135.6009  153.0141 H   0  0  0  0  0  0  0  0  0  0  0  0
  146.8786  133.6570  153.7703 H   0  0  0  0  0  0  0  0  0  0  0  0
  145.2954  133.1664  154.2577 H   0  0  0  0  0  0  0  0  0  0  0  0
  143.5014  133.7655  151.9746 H   0  0  0  0  0  0  0  0  0  0  0  0
  144.5879  135.0884  151.5994 H   0  0  0  0  0  0  0  0  0  0  0  0
  143.5390  134.1776  149.5339 H   0  0  0  0  0  0  0  0  0  0  0  0
  145.2784  134.0053  149.4946 H   0  0  0  0  0  0  0  0  0  0  0  0
  143.2655  131.8159  150.2115 H   0  0  0  0  0  0  0  0  0  0  0  0
  144.2279  131.8948  148.7523 H   0  0  0  0  0  0  0  0  0  0  0  0
  145.2268  130.3395  150.4332 H   0  0  0  0  0  0  0  0  0  0  0  0
  146.3124  131.6494  150.0409 H   0  0  0  0  0  0  0  0  0  0  0  0
  144.5176  131.4858  152.5016 H   0  0  0  0  0  0  0  0  0  0  0  0
  146.5401  129.9766  152.4989 H   0  0  0  0  0  0  0  0  0  0  0  0
  146.6098  131.1637  153.7779 H   0  0  0  0  0  0  0  0  0  0  0  0
  147.5756  131.3873  152.3180 H   0  0  0  0  0  0  0  0  0  0  0  0
  146.3905  133.5393  151.6424 H   0  0  0  0  0  0  0  0  0  0  0  0
  1  2  1  0  0  0  0
  1 22  1  0  0  0  0
  1 23  1  0  0  0  0
  1 24  1  0  0  0  0
  2  3  1  0  0  0  0
  3  8  1  0  0  0  0
  3  4  2  0  0  0  0
  4  5  1  0  0  0  0
  5  6  2  0  0  0  0
  5 25  1  0  0  0  0
  6  7  1  0  0  0  0
  6 26  1  0  0  0  0
  7  8  2  0  0  0  0
  7 27  1  0  0  0  0
  8  9  1  0  0  0  0
  9 10  1  0  0  0  0
  9 28  1  0  0  0  0
 10 11  2  0  0  0  0
 10 12  1  0  0  0  0
 12 13  1  0  0  0  0
 12 29  1  0  0  0  0
 13 14  1  0  0  0  0
 13 30  1  0  0  0  0
 13 31  1  0  0  0  0
 14 15  1  0  0  0  0
 14 32  1  0  0  0  0
 14 33  1  0  0  0  0
 15 20  1  0  0  0  0
 15 16  1  0  0  0  0
 15 46  1  0  0  0  0
 16 17  1  0  0  0  0
 16 34  1  0  0  0  0
 16 35  1  0  0  0  0
 17 18  1  0  0  0  0
 17 36  1  0  0  0  0
 17 37  1  0  0  0  0
 18 19  1  0  0  0  0
 18 38  1  0  0  0  0
 18 39  1  0  0  0  0
 19 20  1  0  0  0  0
 19 40  1  0  0  0  0
 19 41  1  0  0  0  0
 20 21  1  0  0  0  0
 20 42  1  0  0  0  0
 21 43  1  0  0  0  0
 21 44  1  0  0  0  0
 21 45  1  0  0  0  0
M  CHG  1  15   1
M  END
> <s_m_source_file>
AV-unprocessed.smi

> <i_m_source_file_index>
1944

> <i_lp_mmshare_version>
43012

> <i_f3d_flags>
0

> <s_epik_input>
W0NIM11PYzFuW2NIXVtjSF1bY0hdYzFbTkhdQyg9TylbTkhdW0NIMl1bQ0gyXU4yW0NIMl1bQ0gyXVtDSDJdW0NIMl1bQ0BIXTJbQ0gzXQ==

> <s_epik_cmdline>
J2VwaWtfcHl0aG9uJywgJy1waCcsICc3LjAnLCAnLXRuJywgJzgnLCAnLW1hJywgJzIwMCcsICctbWV0YWxfYmluZGluZycsICctaW1hZScsICc8aW5maWxlLm1hZT4nLCAnLW9tYWUnLCAnPG91dGZpbGUubWFlPic=

> <r_lp_tautomer_probability>
1

> <r_epik_Ionization_Penalty>
0.00219525

> <r_epik_Ionization_Penalty_Charging>
0.00211816

> <r_epik_Ionization_Penalty_Neutral>
7.7088e-05

> <r_epik_State_Penalty>
0.00145254

> <r_epik_Charging_Adjusted_Penalty>
0.0035707

> <i_epik_Tot_Q>
1

> <i_epik_Tot_abs_Q>
1

> <r_epik_Metal_State_Penalty>
-0

> <b_epik_Metal_Only>
0

> <s_lp_Force_Field>
OPLS_2005

> <r_lp_Energy>
22.1071

> <b_lp_Chiralities_Consistent>
1

> <s_lp_Variant>
AV-unprocessed.smi:1944-1

> <Gold.Version>
5.8.1

> <Gold.Id.Protein>
6NUR|6NUR_protein|mol2

> <Gold.PLP.Fitness>
44.1272

> <Gold.PLP.PLP>
-34.6781

> <Gold.PLP.part.hbond>
-3.0000

> <Gold.PLP.part.metal>
0.0000

> <Gold.PLP.part.buried>
-3.0383

> <Gold.PLP.part.nonpolar>
-27.5625

> <Gold.PLP.part.repulsive>
0.3841

> <Gold.PLP.ligand.clash>
0.0000

> <Gold.PLP.ligand.torsion>
0.9458

> <Gold.PLP.Chemscore.Hbond>
2.8000

> <Gold.PLP.Chemscore.CHOScore>
0.9548

> <Gold.PLP.Chemscore.Metal>
0.0000

> <Gold.Chemscore.Hbonds>
donor molecule, donor type, donor heavy atom, donor atom, acceptor molecule, acceptor atom, score
      L1  H     9    28       P1  7948  0.93
      L1  H    12    29       P1  7948  0.86
      P1  H  7989  7998       L1     4  0.90
      L1  C     5    25       P1  8028  0.95

> <Gold.PLP.Chemscore.Internal.Correction>
0.0762

> <Gold.Rescore>
     Score         DG    S(hbond)    S(metal)    S(lipo)     H(rot)  DE(clash)    DE(int)     intcor
     18.36     -19.42       2.29        0.00      91.29       1.71       0.10       0.96       ----

> <Gold.Chemscore.Fitness>
18.3645

> <Gold.Chemscore.DG>
-19.4227

> <Gold.Chemscore.ZeroCoef>
-5.4800

> <Gold.Chemscore.Hbond>
2.2880

> <Gold.Chemscore.Metal>
0.0000

> <Gold.Chemscore.Lipo>
91.2852

> <Gold.Chemscore.Internal_Hbond>
0.0000

> <Gold.Chemscore.DEClash>
0.0973

> <Gold.Chemscore.DEInternal>
0.9609

> <Gold.Chemscore.Rot>
1.7107

> <Gold.Chemscore.Internal.Correction>
   9.000000E+99

> <Gold.Chemscore.Hbonds>
donor molecule, donor type, donor heavy atom, donor atom, acceptor molecule, acceptor atom, score
      L1  H     9    28       P1  7948  0.89
      L1  H    12    29       P1  7948  0.80
      P1  H  7989  7998       L1     4  0.32

> <Gold.Chemscore.Hbond.Weighted>
-7.6418

> <Gold.Chemscore.Metal.Weighted>
-0.0000

> <Gold.Chemscore.Lipo.Weighted>
-10.6804

> <Gold.Chemscore.Internal_Hbond.Weighted>
0.0000

> <Gold.Chemscore.DEClash.Weighted>
0.0973

> <Gold.Chemscore.DEInternal.Weighted>
0.9609

> <Gold.Chemscore.Rot.Weighted>
4.3794

> <Gold.Chemscore.Internal.Correction.Weighted>
   9.000000E+99

> <Gold.Protein.RotatedTorsions>
[ 6907 6896 6895 6894 ] final   98.42 input  -60.11 | X-H torsion
[ 7974 7965 7964 7962 ] final -145.93 input  175.53 | X-H torsion
[ 8008 7997 7996 7995 ] final    2.95 input   59.86 | X-H torsion
[ 10167 10162 10161 10158 ] final  130.09 input  -65.29 | X-H torsion
[ 10718 10713 10712 10709 ] final  146.91 input   66.30 | X-H torsion
[ 10763 10752 10751 10750 ] final   39.71 input  -60.55 | X-H torsion
[ 11005 11000 10999 10996 ] final -131.24 input  -57.11 | X-H torsion

> <Gold.Protein.ActiveResidues>
 VAL166  LYS551  ARG553  GLY616  TRP617  ASP618  TYR619  PRO620  LYS621  CYS622 
 ASP623  PHE694  ASN695  SER759  ASP760  ASP761  ALA762  ILE779  LEU786  VAL792 
 PHE793  MET794  SER795  GLU796  ALA797  LYS798  CYS799  TRP800  GLU811  SER814 

> <Gold.Protein.RotatedAtoms>
  152.5409  134.0583  159.8140 H   0  0  0  0  0  0  0  0  0  0  0  0  # atno 6907 bound_to 6896
  151.0714  133.5455  159.2634 H   0  0  0  0  0  0  0  0  0  0  0  0  # atno 6908 bound_to 6896
  151.2317  135.0565  159.9044 H   0  0  0  0  0  0  0  0  0  0  0  0  # atno 6909 bound_to 6896
  144.8194  140.5521  143.5589 H   0  0  0  0  0  0  0  0  0  0  0  0  # atno 7974 bound_to 7965
  154.6977  140.2666  155.6750 H   0  0  0  0  0  0  0  0  0  0  0  0  # atno 8008 bound_to 7997
  156.2754  140.2778  156.1501 H   0  0  0  0  0  0  0  0  0  0  0  0  # atno 8009 bound_to 7997
  155.0807  140.0372  157.2628 H   0  0  0  0  0  0  0  0  0  0  0  0  # atno 8010 bound_to 7997
  139.5446  144.6762  151.4513 H   0  0  0  0  0  0  0  0  0  0  0  0  # atno 10167 bound_to 10162
  157.3274  131.0914  151.1191 H   0  0  0  0  0  0  0  0  0  0  0  0  # atno 10718 bound_to 10713
  152.9958  135.6212  154.2509 H   0  0  0  0  0  0  0  0  0  0  0  0  # atno 10763 bound_to 10752
  154.2248  135.2794  155.2913 H   0  0  0  0  0  0  0  0  0  0  0  0  # atno 10764 bound_to 10752
  154.5499  135.5736  153.6971 H   0  0  0  0  0  0  0  0  0  0  0  0  # atno 10765 bound_to 10752
  140.9276  134.1362  157.4262 H   0  0  0  0  0  0  0  0  0  0  0  0  # atno 11005 bound_to 11000
  145.5140  139.1478  143.3589 LP  0  0  0  0  0  0  0  0  0  0  0  0  # atno 17320 bound_to 7965
  146.2498  140.5281  142.8898 LP  0  0  0  0  0  0  0  0  0  0  0  0  # atno 17321 bound_to 7965
  140.6690  143.8336  150.6976 LP  0  0  0  0  0  0  0  0  0  0  0  0  # atno 17342 bound_to 10162
  140.1754  143.4159  152.1971 LP  0  0  0  0  0  0  0  0  0  0  0  0  # atno 17343 bound_to 10162
  157.2452  130.6588  149.5907 LP  0  0  0  0  0  0  0  0  0  0  0  0  # atno 17370 bound_to 10713
  155.9692  130.4556  150.5892 LP  0  0  0  0  0  0  0  0  0  0  0  0  # atno 17371 bound_to 10713
  139.8789  134.9994  156.5951 LP  0  0  0  0  0  0  0  0  0  0  0  0  # atno 17394 bound_to 11000
  140.7905  133.8586  155.8642 LP  0  0  0  0  0  0  0  0  0  0  0  0  # atno 17395 bound_to 11000

$$$$
