AV-unprocessed.smi:3001|AV-procd|sdf|11431|dock2
  -GOLD-   2272016353D 1   1.00000     0.00000
 Structure written by MMmdl.
 41 42  0  0  0  0  0  0  0  0  1 V2000
  147.1770  141.2819  153.2486 C   0  0  0  0  0  0  0  0  0  0  0  0
  147.9329  140.9709  154.1557 C   0  0  0  0  0  0  0  0  0  0  0  0
  148.8416  140.6088  155.2539 C   0  0  0  0  0  0  0  0  0  0  0  0
  149.5897  139.3983  154.9542 N   0  0  0  0  0  0  0  0  0  0  0  0
  150.9298  139.3093  154.9361 C   0  0  0  0  0  0  0  0  0  0  0  0
  151.6618  140.2658  155.1878 O   0  0  0  0  0  0  0  0  0  0  0  0
  151.5643  137.9526  154.5871 C   0  0  0  0  0  0  0  0  0  0  0  0
  150.6066  136.9183  154.1952 N   0  0  0  0  0  0  0  0  0  0  0  0
  150.5053  135.7057  154.7584 C   0  0  0  0  0  0  0  0  0  0  0  0
  151.1731  135.3439  155.7274 O   0  0  0  0  0  0  0  0  0  0  0  0
  149.6169  134.9399  154.1055 N   0  0  0  0  0  0  0  0  0  0  0  0
  149.3733  133.5545  154.3069 C   0  0  0  0  0  0  0  0  0  0  0  0
  150.2065  132.7847  155.1535 C   0  0  0  0  0  0  0  0  0  0  0  0
  149.8925  131.4343  155.3850 C   0  0  0  0  0  0  0  0  0  0  0  0
  148.7439  130.9053  154.7725 C   0  0  0  0  0  0  0  0  0  0  0  0
  147.9349  131.6294  153.9728 N   0  0  0  0  0  0  0  0  0  0  0  0
  148.2332  132.9292  153.7267 C   0  0  0  0  0  0  0  0  0  0  0  0
  147.3657  133.6328  152.8592 N   0  0  0  0  0  0  0  0  0  0  0  0
  146.0344  134.0294  153.3060 C   0  0  0  0  0  0  0  0  0  0  0  0
  145.2785  134.3868  152.0296 C   0  0  0  0  0  0  0  0  0  0  0  0
  145.8381  133.3815  151.0281 C   0  0  0  0  0  0  0  0  0  0  0  0
  147.2972  133.2097  151.4630 C   0  0  0  0  0  0  0  0  0  0  0  0
  146.5144  141.5585  152.4593 H   0  0  0  0  0  0  0  0  0  0  0  0
  149.5254  141.4420  155.4210 H   0  0  0  0  0  0  0  0  0  0  0  0
  148.2488  140.4729  156.1593 H   0  0  0  0  0  0  0  0  0  0  0  0
  149.0551  138.5714  154.7318 H   0  0  0  0  0  0  0  0  0  0  0  0
  152.3078  138.0968  153.8014 H   0  0  0  0  0  0  0  0  0  0  0  0
  152.1069  137.5941  155.4619 H   0  0  0  0  0  0  0  0  0  0  0  0
  150.0122  137.1274  153.4066 H   0  0  0  0  0  0  0  0  0  0  0  0
  149.2087  135.3379  153.2722 H   0  0  0  0  0  0  0  0  0  0  0  0
  151.0669  133.2186  155.6412 H   0  0  0  0  0  0  0  0  0  0  0  0
  150.5102  130.8231  156.0263 H   0  0  0  0  0  0  0  0  0  0  0  0
  148.4640  129.8745  154.9318 H   0  0  0  0  0  0  0  0  0  0  0  0
  145.5305  133.2007  153.8050 H   0  0  0  0  0  0  0  0  0  0  0  0
  146.0815  134.8701  153.9985 H   0  0  0  0  0  0  0  0  0  0  0  0
  144.1962  134.3207  152.1433 H   0  0  0  0  0  0  0  0  0  0  0  0
  145.5279  135.4021  151.7180 H   0  0  0  0  0  0  0  0  0  0  0  0
  145.3111  132.4317  151.1296 H   0  0  0  0  0  0  0  0  0  0  0  0
  145.7410  133.7104  149.9931 H   0  0  0  0  0  0  0  0  0  0  0  0
  147.9395  133.8585  150.8671 H   0  0  0  0  0  0  0  0  0  0  0  0
  147.6348  132.1813  151.3261 H   0  0  0  0  0  0  0  0  0  0  0  0
  1  2  3  0  0  0  0
  1 23  1  0  0  0  0
  2  3  1  0  0  0  0
  3  4  1  0  0  0  0
  3 24  1  0  0  0  0
  3 25  1  0  0  0  0
  4  5  1  0  0  0  0
  4 26  1  0  0  0  0
  5  6  2  0  0  0  0
  5  7  1  0  0  0  0
  7  8  1  0  0  0  0
  7 27  1  0  0  0  0
  7 28  1  0  0  0  0
  8  9  1  0  0  0  0
  8 29  1  0  0  0  0
  9 10  2  0  0  0  0
  9 11  1  0  0  0  0
 11 12  1  0  0  0  0
 11 30  1  0  0  0  0
 12 17  1  0  0  0  0
 12 13  2  0  0  0  0
 13 14  1  0  0  0  0
 13 31  1  0  0  0  0
 14 15  2  0  0  0  0
 14 32  1  0  0  0  0
 15 16  1  0  0  0  0
 15 33  1  0  0  0  0
 16 17  2  0  0  0  0
 17 18  1  0  0  0  0
 18 22  1  0  0  0  0
 18 19  1  0  0  0  0
 19 20  1  0  0  0  0
 19 34  1  0  0  0  0
 19 35  1  0  0  0  0
 20 21  1  0  0  0  0
 20 36  1  0  0  0  0
 20 37  1  0  0  0  0
 21 22  1  0  0  0  0
 21 38  1  0  0  0  0
 21 39  1  0  0  0  0
 22 40  1  0  0  0  0
 22 41  1  0  0  0  0
M  END
> <s_m_source_file>
AV-unprocessed.smi

> <i_m_source_file_index>
3001

> <i_lp_mmshare_version>
43012

> <i_f3d_flags>
0

> <s_epik_input>
W0NIXSNDW0NIMl1bTkhdQyg9TylbQ0gyXVtOSF1DKD1PKVtOSF1jMVtjSF1bY0hdW2NIXW5jMU4yW0NIMl1bQ0gyXVtDSDJdW0NIMl0y

> <s_epik_cmdline>
J2VwaWtfcHl0aG9uJywgJy1waCcsICc3LjAnLCAnLXRuJywgJzgnLCAnLW1hJywgJzIwMCcsICctbWV0YWxfYmluZGluZycsICctaW1hZScsICc8aW5maWxlLm1hZT4nLCAnLW9tYWUnLCAnPG91dGZpbGUubWFlPic=

> <r_lp_tautomer_probability>
1

> <r_epik_Ionization_Penalty>
0.243831

> <r_epik_Ionization_Penalty_Charging>
0

> <r_epik_Ionization_Penalty_Neutral>
0.243831

> <r_epik_State_Penalty>
0.234327

> <r_epik_Charging_Adjusted_Penalty>
0.234327

> <i_epik_Tot_Q>
0

> <i_epik_Tot_abs_Q>
0

> <r_epik_Metal_State_Penalty>
0.165313

> <b_epik_Metal_Only>
0

> <s_lp_Force_Field>
OPLS_2005

> <r_lp_Energy>
26.7815

> <b_lp_Chiralities_Consistent>
1

> <s_lp_Variant>
AV-unprocessed.smi:3001-1

> <Gold.Version>
5.8.1

> <Gold.Id.Protein>
6NUR|6NUR_protein|mol2

> <Gold.PLP.Fitness>
46.4911

> <Gold.PLP.PLP>
-36.1477

> <Gold.PLP.part.hbond>
-5.5493

> <Gold.PLP.part.metal>
0.0000

> <Gold.PLP.part.buried>
-2.3640

> <Gold.PLP.part.nonpolar>
-28.3143

> <Gold.PLP.part.repulsive>
0.4798

> <Gold.PLP.ligand.clash>
0.0000

> <Gold.PLP.ligand.torsion>
0.2415

> <Gold.PLP.Chemscore.Hbond>
3.4760

> <Gold.PLP.Chemscore.CHOScore>
0.0000

> <Gold.PLP.Chemscore.Metal>
0.0000

> <Gold.Chemscore.Hbonds>
donor molecule, donor type, donor heavy atom, donor atom, acceptor molecule, acceptor atom, score
      L1  H     8    29       P1  7948  0.84
      L1  H    11    30       P1  7948  0.95
      P1  H  7989  7998       L1     6  0.63
      P1  H 10752 10765       L1    10  0.96

> <Gold.PLP.Chemscore.Internal.Correction>
0.3985

> <Gold.Rescore>
     Score         DG    S(hbond)    S(metal)    S(lipo)     H(rot)  DE(clash)    DE(int)     intcor
     14.22     -16.41       2.48        0.00      62.42       1.82       0.39       1.80       ----

> <Gold.Chemscore.Fitness>
14.2204

> <Gold.Chemscore.DG>
-16.4079

> <Gold.Chemscore.ZeroCoef>
-5.4800

> <Gold.Chemscore.Hbond>
2.4830

> <Gold.Chemscore.Metal>
0.0000

> <Gold.Chemscore.Lipo>
62.4200

> <Gold.Chemscore.Internal_Hbond>
0.0000

> <Gold.Chemscore.DEClash>
0.3880

> <Gold.Chemscore.DEInternal>
1.7995

> <Gold.Chemscore.Rot>
1.8236

> <Gold.Chemscore.Internal.Correction>
   9.000000E+99

> <Gold.Chemscore.Hbonds>
donor molecule, donor type, donor heavy atom, donor atom, acceptor molecule, acceptor atom, score
      L1  H     8    29       P1  7948  0.20
      L1  H    11    30       P1  7948  0.21
      P1  H  7989  7998       L1     6  0.06
      P1  H 10752 10765       L1    10  0.26

> <Gold.Chemscore.Hbond.Weighted>
-8.2932

> <Gold.Chemscore.Metal.Weighted>
-0.0000

> <Gold.Chemscore.Lipo.Weighted>
-7.3031

> <Gold.Chemscore.Internal_Hbond.Weighted>
0.0000

> <Gold.Chemscore.DEClash.Weighted>
0.3880

> <Gold.Chemscore.DEInternal.Weighted>
1.7995

> <Gold.Chemscore.Rot.Weighted>
4.6685

> <Gold.Chemscore.Internal.Correction.Weighted>
   9.000000E+99

> <Gold.Protein.RotatedTorsions>
[ 6907 6896 6895 6894 ] final   14.12 input  -60.11 | X-H torsion
[ 7974 7965 7964 7962 ] final  -61.57 input  175.53 | X-H torsion
[ 8008 7997 7996 7995 ] final  -55.14 input   59.86 | X-H torsion
[ 10167 10162 10161 10158 ] final   33.96 input  -65.29 | X-H torsion
[ 10718 10713 10712 10709 ] final  126.43 input   66.30 | X-H torsion
[ 10763 10752 10751 10750 ] final -156.94 input  -60.55 | X-H torsion
[ 11005 11000 10999 10996 ] final  -87.57 input  -57.11 | X-H torsion

> <Gold.Protein.ActiveResidues>
 VAL166  LYS551  ARG553  GLY616  TRP617  ASP618  TYR619  PRO620  LYS621  CYS622 
 ASP623  PHE694  ASN695  SER759  ASP760  ASP761  ALA762  ILE779  LEU786  VAL792 
 PHE793  MET794  SER795  GLU796  ALA797  LYS798  CYS799  TRP800  GLU811  SER814 

> <Gold.Protein.RotatedAtoms>
  151.7972  135.0719  160.0395 H   0  0  0  0  0  0  0  0  0  0  0  0  # atno 6907 bound_to 6896
  152.3115  133.5753  159.5692 H   0  0  0  0  0  0  0  0  0  0  0  0  # atno 6908 bound_to 6896
  150.7322  134.0061  159.3696 H   0  0  0  0  0  0  0  0  0  0  0  0  # atno 6909 bound_to 6896
  145.8018  140.8651  143.0227 H   0  0  0  0  0  0  0  0  0  0  0  0  # atno 7974 bound_to 7965
  154.4185  140.1160  156.5429 H   0  0  0  0  0  0  0  0  0  0  0  0  # atno 8008 bound_to 7997
  155.6490  140.3496  155.4722 H   0  0  0  0  0  0  0  0  0  0  0  0  # atno 8009 bound_to 7997
  155.9808  140.1160  157.0718 H   0  0  0  0  0  0  0  0  0  0  0  0  # atno 8010 bound_to 7997
  140.4359  144.1257  150.6166 H   0  0  0  0  0  0  0  0  0  0  0  0  # atno 10167 bound_to 10162
  157.5419  131.1096  150.8844 H   0  0  0  0  0  0  0  0  0  0  0  0  # atno 10718 bound_to 10713
  154.7675  135.3135  154.8257 H   0  0  0  0  0  0  0  0  0  0  0  0  # atno 10763 bound_to 10752
  153.9002  135.6816  153.4760 H   0  0  0  0  0  0  0  0  0  0  0  0  # atno 10764 bound_to 10752
  153.1283  135.4791  154.9241 H   0  0  0  0  0  0  0  0  0  0  0  0  # atno 10765 bound_to 10752
  141.1615  133.7519  156.9326 H   0  0  0  0  0  0  0  0  0  0  0  0  # atno 11005 bound_to 11000
  144.6768  140.0270  143.7483 LP  0  0  0  0  0  0  0  0  0  0  0  0  # atno 17320 bound_to 7965
  145.9870  139.2985  143.1008 LP  0  0  0  0  0  0  0  0  0  0  0  0  # atno 17321 bound_to 7965
  140.4374  143.2541  151.9518 LP  0  0  0  0  0  0  0  0  0  0  0  0  # atno 17342 bound_to 10162
  139.4787  144.5687  151.8123 LP  0  0  0  0  0  0  0  0  0  0  0  0  # atno 17343 bound_to 10162
  156.9394  130.5379  149.5280 LP  0  0  0  0  0  0  0  0  0  0  0  0  # atno 17370 bound_to 10713
  156.0504  130.5574  150.8976 LP  0  0  0  0  0  0  0  0  0  0  0  0  # atno 17371 bound_to 10713
  140.1376  134.9315  157.2422 LP  0  0  0  0  0  0  0  0  0  0  0  0  # atno 17394 bound_to 11000
  140.2876  134.3277  155.7324 LP  0  0  0  0  0  0  0  0  0  0  0  0  # atno 17395 bound_to 11000

$$$$
