AV-unprocessed.smi:2920|AV-procd|sdf|11196|dock2
  -GOLD-   2272016 83D 1   1.00000     0.00000
 Structure written by MMmdl.
 30 32  0  0  0  0  0  0  0  0  1 V2000
  150.3600  140.3094  155.2297 O   0  0  0  0  0  0  0  0  0  0  0  0
  149.8962  141.4261  155.4592 C   0  0  0  0  0  0  0  0  0  0  0  0
  150.3636  142.2862  156.3802 N   0  0  0  0  0  0  0  0  0  0  0  0
  151.4238  142.0986  157.3075 C   0  0  0  0  0  0  0  0  0  0  0  0
  152.0687  143.2321  157.8457 C   0  0  0  0  0  0  0  0  0  0  0  0
  153.0712  143.1277  158.7441 N   0  0  0  0  0  0  0  0  0  0  0  0
  153.4319  141.8927  159.1034 C   0  0  0  0  0  0  0  0  0  0  0  0
  154.5171  141.7792  160.1287 C   0  0  0  0  0  0  0  0  0  0  0  0
  155.0487  140.4246  160.5506 C   0  0  0  0  0  0  0  0  0  0  0  0
  154.2225  141.2336  161.5113 C   0  0  0  0  0  0  0  0  0  0  0  0
  152.8829  140.7497  158.6838 N   0  0  0  0  0  0  0  0  0  0  0  0
  151.8806  140.8444  157.7834 C   0  0  0  0  0  0  0  0  0  0  0  0
  148.8555  141.9477  154.7958 N   0  0  0  0  0  0  0  0  0  0  0  0
  148.1319  141.3004  153.7492 C   0  0  0  0  0  0  0  0  0  0  0  0
  146.6211  141.2977  153.8369 C   0  0  0  0  0  0  0  0  0  0  0  0
  147.3864  140.0288  154.0930 C   0  0  0  0  0  0  0  0  0  0  0  0
  149.9283  143.1969  156.3995 H   0  0  0  0  0  0  0  0  0  0  0  0
  151.7795  144.2316  157.5545 H   0  0  0  0  0  0  0  0  0  0  0  0
  155.2263  142.6006  160.0472 H   0  0  0  0  0  0  0  0  0  0  0  0
  154.5875  139.5395  160.1167 H   0  0  0  0  0  0  0  0  0  0  0  0
  156.1156  140.3449  160.7481 H   0  0  0  0  0  0  0  0  0  0  0  0
  154.7358  141.6961  162.3517 H   0  0  0  0  0  0  0  0  0  0  0  0
  153.2115  140.8865  161.7164 H   0  0  0  0  0  0  0  0  0  0  0  0
  151.4456  139.9067  157.4756 H   0  0  0  0  0  0  0  0  0  0  0  0
  148.5478  142.8746  155.0514 H   0  0  0  0  0  0  0  0  0  0  0  0
  148.5518  141.3502  152.7454 H   0  0  0  0  0  0  0  0  0  0  0  0
  146.1589  141.7865  154.6926 H   0  0  0  0  0  0  0  0  0  0  0  0
  146.0648  141.3689  152.9043 H   0  0  0  0  0  0  0  0  0  0  0  0
  147.3411  139.2529  153.3313 H   0  0  0  0  0  0  0  0  0  0  0  0
  147.4353  139.6705  155.1198 H   0  0  0  0  0  0  0  0  0  0  0  0
  1  2  2  0  0  0  0
  2  3  1  0  0  0  0
  2 13  1  0  0  0  0
  3  4  1  0  0  0  0
  3 17  1  0  0  0  0
  4 12  1  0  0  0  0
  4  5  2  0  0  0  0
  5  6  1  0  0  0  0
  5 18  1  0  0  0  0
  6  7  2  0  0  0  0
  7  8  1  0  0  0  0
  7 11  1  0  0  0  0
  8 10  1  0  0  0  0
  8  9  1  0  0  0  0
  8 19  1  0  0  0  0
  9 10  1  0  0  0  0
  9 20  1  0  0  0  0
  9 21  1  0  0  0  0
 10 22  1  0  0  0  0
 10 23  1  0  0  0  0
 11 12  2  0  0  0  0
 12 24  1  0  0  0  0
 13 14  1  0  0  0  0
 13 25  1  0  0  0  0
 14 16  1  0  0  0  0
 14 15  1  0  0  0  0
 14 26  1  0  0  0  0
 15 16  1  0  0  0  0
 15 27  1  0  0  0  0
 15 28  1  0  0  0  0
 16 29  1  0  0  0  0
 16 30  1  0  0  0  0
M  END
> <s_m_source_file>
AV-unprocessed.smi

> <i_m_source_file_index>
2920

> <i_lp_mmshare_version>
43012

> <i_f3d_flags>
0

> <s_epik_input>
W0NIMl0xW0NIMl1bQ0hdMVtOSF1DKD1PKVtOSF1jMltjSF1uYyhuW2NIXTIpW0NIXTNbQ0gyXVtDSDJdMw==

> <s_epik_cmdline>
J2VwaWtfcHl0aG9uJywgJy1waCcsICc3LjAnLCAnLXRuJywgJzgnLCAnLW1hJywgJzIwMCcsICctbWV0YWxfYmluZGluZycsICctaW1hZScsICc8aW5maWxlLm1hZT4nLCAnLW9tYWUnLCAnPG91dGZpbGUubWFlPic=

> <r_lp_tautomer_probability>
1

> <r_epik_Ionization_Penalty>
2.90508e-05

> <r_epik_Ionization_Penalty_Charging>
0

> <r_epik_Ionization_Penalty_Neutral>
2.90508e-05

> <r_epik_State_Penalty>
-0

> <r_epik_Charging_Adjusted_Penalty>
0

> <i_epik_Tot_Q>
0

> <i_epik_Tot_abs_Q>
0

> <r_epik_Metal_State_Penalty>
-0

> <b_epik_Metal_Only>
0

> <s_lp_Force_Field>
OPLS_2005

> <r_lp_Energy>
15.3097

> <b_lp_Chiralities_Consistent>
1

> <s_lp_Variant>
AV-unprocessed.smi:2920-1

> <Gold.Version>
5.8.1

> <Gold.Id.Protein>
6NUR|6NUR_protein|mol2

> <Gold.PLP.Fitness>
40.2605

> <Gold.PLP.PLP>
-31.8062

> <Gold.PLP.part.hbond>
-3.0000

> <Gold.PLP.part.metal>
0.0000

> <Gold.PLP.part.buried>
-3.7767

> <Gold.PLP.part.nonpolar>
-24.6391

> <Gold.PLP.part.repulsive>
0.3566

> <Gold.PLP.ligand.clash>
0.0000

> <Gold.PLP.ligand.torsion>
0.2405

> <Gold.PLP.Chemscore.Hbond>
2.9273

> <Gold.PLP.Chemscore.CHOScore>
0.0000

> <Gold.PLP.Chemscore.Metal>
0.0000

> <Gold.Chemscore.Hbonds>
donor molecule, donor type, donor heavy atom, donor atom, acceptor molecule, acceptor atom, score
      L1  H     3    17       P1  8028  1.00
      L1  H    13    25       P1  8028  1.00
      P1  H  7989  7998       L1     1  0.46

> <Gold.PLP.Chemscore.Internal.Correction>
0.1536

> <Gold.Rescore>
     Score         DG    S(hbond)    S(metal)    S(lipo)     H(rot)  DE(clash)    DE(int)     intcor
     16.97     -18.31       2.24        0.00      72.14       1.20       0.03       1.31       ----

> <Gold.Chemscore.Fitness>
16.9712

> <Gold.Chemscore.DG>
-18.3130

> <Gold.Chemscore.ZeroCoef>
-5.4800

> <Gold.Chemscore.Hbond>
2.2383

> <Gold.Chemscore.Metal>
0.0000

> <Gold.Chemscore.Lipo>
72.1421

> <Gold.Chemscore.Internal_Hbond>
0.0000

> <Gold.Chemscore.DEClash>
0.0321

> <Gold.Chemscore.DEInternal>
1.3097

> <Gold.Chemscore.Rot>
1.2045

> <Gold.Chemscore.Internal.Correction>
   9.000000E+99

> <Gold.Chemscore.Hbonds>
donor molecule, donor type, donor heavy atom, donor atom, acceptor molecule, acceptor atom, score
      L1  H     3    17       P1  8028  0.96
      L1  H    13    25       P1  8028  0.96
      P1  H  7989  7998       L1     1  0.08

> <Gold.Chemscore.Hbond.Weighted>
-7.4760

> <Gold.Chemscore.Metal.Weighted>
-0.0000

> <Gold.Chemscore.Lipo.Weighted>
-8.4406

> <Gold.Chemscore.Internal_Hbond.Weighted>
0.0000

> <Gold.Chemscore.DEClash.Weighted>
0.0321

> <Gold.Chemscore.DEInternal.Weighted>
1.3097

> <Gold.Chemscore.Rot.Weighted>
3.0836

> <Gold.Chemscore.Internal.Correction.Weighted>
   9.000000E+99

> <Gold.Protein.RotatedTorsions>
[ 6907 6896 6895 6894 ] final  -43.98 input  -60.11 | X-H torsion
[ 7974 7965 7964 7962 ] final  -19.90 input  175.53 | X-H torsion
[ 8008 7997 7996 7995 ] final   17.34 input   59.86 | X-H torsion
[ 10167 10162 10161 10158 ] final   83.76 input  -65.29 | X-H torsion
[ 10718 10713 10712 10709 ] final  100.59 input   66.30 | X-H torsion
[ 10763 10752 10751 10750 ] final  104.34 input  -60.55 | X-H torsion
[ 11005 11000 10999 10996 ] final  -51.82 input  -57.11 | X-H torsion

> <Gold.Protein.ActiveResidues>
 VAL166  LYS551  ARG553  GLY616  TRP617  ASP618  TYR619  PRO620  LYS621  CYS622 
 ASP623  PHE694  ASN695  SER759  ASP760  ASP761  ALA762  ILE779  LEU786  VAL792 
 PHE793  MET794  SER795  GLU796  ALA797  LYS798  CYS799  TRP800  GLU811  SER814 

> <Gold.Protein.RotatedAtoms>
  150.9379  134.8790  159.7592 H   0  0  0  0  0  0  0  0  0  0  0  0  # atno 6907 bound_to 6896
  152.5067  134.3985  159.9418 H   0  0  0  0  0  0  0  0  0  0  0  0  # atno 6908 bound_to 6896
  151.4007  133.3718  159.2767 H   0  0  0  0  0  0  0  0  0  0  0  0  # atno 6909 bound_to 6896
  146.1817  140.4127  142.8492 H   0  0  0  0  0  0  0  0  0  0  0  0  # atno 7974 bound_to 7965
  154.8900  140.2985  155.5376 H   0  0  0  0  0  0  0  0  0  0  0  0  # atno 8008 bound_to 7997
  156.3021  140.2426  156.3849 H   0  0  0  0  0  0  0  0  0  0  0  0  # atno 8009 bound_to 7997
  154.8628  140.0404  157.1665 H   0  0  0  0  0  0  0  0  0  0  0  0  # atno 8010 bound_to 7997
  139.9150  144.6248  150.8498 H   0  0  0  0  0  0  0  0  0  0  0  0  # atno 10167 bound_to 10162
  157.6850  131.0702  150.5123 H   0  0  0  0  0  0  0  0  0  0  0  0  # atno 10718 bound_to 10713
  153.3646  135.3946  155.1744 H   0  0  0  0  0  0  0  0  0  0  0  0  # atno 10763 bound_to 10752
  154.8685  135.3688  154.5055 H   0  0  0  0  0  0  0  0  0  0  0  0  # atno 10764 bound_to 10752
  153.5518  135.7083  153.5648 H   0  0  0  0  0  0  0  0  0  0  0  0  # atno 10765 bound_to 10752
  141.0892  133.6636  156.3934 H   0  0  0  0  0  0  0  0  0  0  0  0  # atno 11005 bound_to 11000
  144.8326  140.6731  143.6281 LP  0  0  0  0  0  0  0  0  0  0  0  0  # atno 17320 bound_to 7965
  145.4058  139.1589  143.4153 LP  0  0  0  0  0  0  0  0  0  0  0  0  # atno 17321 bound_to 7965
  140.7676  143.3338  151.2354 LP  0  0  0  0  0  0  0  0  0  0  0  0  # atno 17342 bound_to 10162
  139.6910  143.9693  152.2859 LP  0  0  0  0  0  0  0  0  0  0  0  0  # atno 17343 bound_to 10162
  156.5440  130.4215  149.6140 LP  0  0  0  0  0  0  0  0  0  0  0  0  # atno 17370 bound_to 10713
  156.2960  130.7151  151.2011 LP  0  0  0  0  0  0  0  0  0  0  0  0  # atno 17371 bound_to 10713
  140.5292  134.6229  157.5344 LP  0  0  0  0  0  0  0  0  0  0  0  0  # atno 17394 bound_to 11000
  139.9715  134.7286  156.0033 LP  0  0  0  0  0  0  0  0  0  0  0  0  # atno 17395 bound_to 11000

$$$$
