AV-unprocessed.smi:456|AV-procd|sdf|2618|dock9
  -GOLD-   2262023 23D 1   1.00000     0.00000
 Structure written by MMmdl.
 33 35  0  0  0  0  0  0  0  0  2 V2000
  151.7545  139.6355  154.6657 O   0  0  0  0  0  0  0  0  0  0  0  0
  150.6615  140.0408  155.4677 C   0  0  1  0  0  0  0  0  0  0  0  0
  151.0464  141.2991  156.2701 C   0  0  0  0  0  0  0  0  0  0  0  0
  151.7562  140.9856  157.5171 N   0  0  0  0  0  0  0  0  0  0  0  0
  152.3886  139.8435  157.9006 C   0  0  0  0  0  0  0  0  0  0  0  0
  152.8897  140.0516  159.1500 N   0  3  0  0  0  0  0  0  0  0  0  0
  152.5712  141.3451  159.5708 C   0  0  0  0  0  0  0  0  0  0  0  0
  152.8569  142.0164  160.7552 C   0  0  0  0  0  0  0  0  0  0  0  0
  152.3809  143.3396  160.8661 C   0  0  0  0  0  0  0  0  0  0  0  0
  152.6320  144.0391  161.9978 F   0  0  0  0  0  0  0  0  0  0  0  0
  151.6498  143.9469  159.8227 C   0  0  0  0  0  0  0  0  0  0  0  0
  151.2110  145.2193  159.9703 F   0  0  0  0  0  0  0  0  0  0  0  0
  151.3655  143.2558  158.6265 C   0  0  0  0  0  0  0  0  0  0  0  0
  151.8417  141.9498  158.5258 C   0  0  0  0  0  0  0  0  0  0  0  0
  149.4001  140.2726  154.6514 C   0  0  0  0  0  0  0  0  0  0  0  0
  148.7521  139.1812  154.0336 C   0  0  0  0  0  0  0  0  0  0  0  0
  147.5776  139.3846  153.2834 C   0  0  0  0  0  0  0  0  0  0  0  0
  147.0421  140.6800  153.1494 C   0  0  0  0  0  0  0  0  0  0  0  0
  147.6815  141.7721  153.7669 C   0  0  0  0  0  0  0  0  0  0  0  0
  148.8566  141.5695  154.5164 C   0  0  0  0  0  0  0  0  0  0  0  0
  151.4842  138.8945  154.1449 H   0  0  0  0  0  0  0  0  0  0  0  0
  150.4694  139.2227  156.1631 H   0  0  0  0  0  0  0  0  0  0  0  0
  151.6951  141.9457  155.6774 H   0  0  0  0  0  0  0  0  0  0  0  0
  150.1631  141.8902  156.5160 H   0  0  0  0  0  0  0  0  0  0  0  0
  152.4736  138.9362  157.3199 H   0  0  0  0  0  0  0  0  0  0  0  0
  153.4154  141.5554  161.5566 H   0  0  0  0  0  0  0  0  0  0  0  0
  150.8041  143.7285  157.8344 H   0  0  0  0  0  0  0  0  0  0  0  0
  149.1524  138.1827  154.1333 H   0  0  0  0  0  0  0  0  0  0  0  0
  147.0867  138.5460  152.8117 H   0  0  0  0  0  0  0  0  0  0  0  0
  146.1409  140.8356  152.5750 H   0  0  0  0  0  0  0  0  0  0  0  0
  147.2698  142.7657  153.6669 H   0  0  0  0  0  0  0  0  0  0  0  0
  149.3374  142.4132  154.9895 H   0  0  0  0  0  0  0  0  0  0  0  0
  153.4089  139.3589  159.6744 H   0  0  0  0  0  0  0  0  0  0  0  0
  1  2  1  0  0  0  0
  1 21  1  0  0  0  0
  2  3  1  0  0  0  0
  2 15  1  0  0  0  0
  2 22  1  0  0  0  0
  3  4  1  0  0  0  0
  3 23  1  0  0  0  0
  3 24  1  0  0  0  0
  4 14  1  0  0  0  0
  4  5  1  0  0  0  0
  5  6  2  0  0  0  0
  5 25  1  0  0  0  0
  6  7  1  0  0  0  0
  6 33  1  0  0  0  0
  7 14  2  0  0  0  0
  7  8  1  0  0  0  0
  8  9  2  0  0  0  0
  8 26  1  0  0  0  0
  9 10  1  0  0  0  0
  9 11  1  0  0  0  0
 11 12  1  0  0  0  0
 11 13  2  0  0  0  0
 13 14  1  0  0  0  0
 13 27  1  0  0  0  0
 15 20  1  0  0  0  0
 15 16  2  0  0  0  0
 16 17  1  0  0  0  0
 16 28  1  0  0  0  0
 17 18  2  0  0  0  0
 17 29  1  0  0  0  0
 18 19  1  0  0  0  0
 18 30  1  0  0  0  0
 19 20  2  0  0  0  0
 19 31  1  0  0  0  0
 20 32  1  0  0  0  0
M  CHG  1   6   1
M  END
> <s_m_source_file>
AV-unprocessed.smi

> <i_m_source_file_index>
456

> <i_lp_mmshare_version>
43012

> <i_f3d_flags>
0

> <s_epik_input>
W2NIXTFbY0hdW2NIXVtjSF1bY0hdYzFbQ0BIXShbT0hdKVtDSDJdbihbY0hdbjIpYyhjMjMpW2NIXWMoRiljKEYpW2NIXTM=

> <s_epik_cmdline>
J2VwaWtfcHl0aG9uJywgJy1waCcsICc3LjAnLCAnLXRuJywgJzgnLCAnLW1hJywgJzIwMCcsICctbWV0YWxfYmluZGluZycsICctaW1hZScsICc8aW5maWxlLm1hZT4nLCAnLW9tYWUnLCAnPG91dGZpbGUubWFlPic=

> <r_epik_Ionization_Penalty>
2.16139

> <r_epik_Ionization_Penalty_Charging>
2.16138

> <r_epik_Ionization_Penalty_Neutral>
1.34362e-06

> <r_epik_State_Penalty>
2.30198

> <r_epik_Charging_Adjusted_Penalty>
4.46337

> <i_epik_Tot_Q>
1

> <i_epik_Tot_abs_Q>
1

> <r_epik_Metal_State_Penalty>
6.38245

> <b_epik_Metal_Only>
0

> <s_lp_Force_Field>
OPLS_2005

> <r_lp_Energy>
14.9755

> <b_lp_Chiralities_Consistent>
1

> <s_lp_Variant>
AV-unprocessed.smi:456-4

> <Gold.Version>
5.8.1

> <Gold.Id.Protein>
6NUR|6NUR_protein|mol2

> <Gold.PLP.Fitness>
50.8099

> <Gold.PLP.PLP>
-49.2111

> <Gold.PLP.part.hbond>
-1.0000

> <Gold.PLP.part.metal>
0.0000

> <Gold.PLP.part.buried>
-5.3951

> <Gold.PLP.part.nonpolar>
-42.6939

> <Gold.PLP.part.repulsive>
0.1060

> <Gold.PLP.ligand.clash>
0.0000

> <Gold.PLP.ligand.torsion>
0.7102

> <Gold.PLP.Chemscore.Hbond>
1.0000

> <Gold.PLP.Chemscore.CHOScore>
0.0000

> <Gold.PLP.Chemscore.Metal>
0.0000

> <Gold.Chemscore.Hbonds>
donor molecule, donor type, donor heavy atom, donor atom, acceptor molecule, acceptor atom, score
      P1  H  7989  7998       L1     1  0.90

> <Gold.PLP.Chemscore.Internal.Correction>
0.0192

> <Gold.Rescore>
     Score         DG    S(hbond)    S(metal)    S(lipo)     H(rot)  DE(clash)    DE(int)     intcor
     14.12     -14.83       0.31        0.00     115.42       2.03       0.05       0.66       ----

> <Gold.Chemscore.Fitness>
14.1243

> <Gold.Chemscore.DG>
-14.8259

> <Gold.Chemscore.ZeroCoef>
-5.4800

> <Gold.Chemscore.Hbond>
0.3074

> <Gold.Chemscore.Metal>
0.0000

> <Gold.Chemscore.Lipo>
115.4236

> <Gold.Chemscore.Internal_Hbond>
0.0000

> <Gold.Chemscore.DEClash>
0.0460

> <Gold.Chemscore.DEInternal>
0.6556

> <Gold.Chemscore.Rot>
2.0256

> <Gold.Chemscore.Internal.Correction>
   9.000000E+99

> <Gold.Chemscore.Hbonds>
donor molecule, donor type, donor heavy atom, donor atom, acceptor molecule, acceptor atom, score
      P1  H  7989  7998       L1     1  0.04

> <Gold.Chemscore.Hbond.Weighted>
-1.0269

> <Gold.Chemscore.Metal.Weighted>
-0.0000

> <Gold.Chemscore.Lipo.Weighted>
-13.5046

> <Gold.Chemscore.Internal_Hbond.Weighted>
0.0000

> <Gold.Chemscore.DEClash.Weighted>
0.0460

> <Gold.Chemscore.DEInternal.Weighted>
0.6556

> <Gold.Chemscore.Rot.Weighted>
5.1855

> <Gold.Chemscore.Internal.Correction.Weighted>
   9.000000E+99

> <Gold.Protein.RotatedTorsions>
[ 6907 6896 6895 6894 ] final   66.18 input  -60.11 | X-H torsion
[ 7974 7965 7964 7962 ] final   -9.27 input  175.53 | X-H torsion
[ 8008 7997 7996 7995 ] final   54.70 input   59.86 | X-H torsion
[ 10167 10162 10161 10158 ] final   82.99 input  -65.29 | X-H torsion
[ 10718 10713 10712 10709 ] final -134.00 input   66.30 | X-H torsion
[ 10763 10752 10751 10750 ] final  152.04 input  -60.55 | X-H torsion
[ 11005 11000 10999 10996 ] final   86.43 input  -57.11 | X-H torsion

> <Gold.Protein.ActiveResidues>
 VAL166  LYS551  ARG553  GLY616  TRP617  ASP618  TYR619  PRO620  LYS621  CYS622 
 ASP623  PHE694  ASN695  SER759  ASP760  ASP761  ALA762  ILE779  LEU786  VAL792 
 PHE793  MET794  SER795  GLU796  ALA797  LYS798  CYS799  TRP800  GLU811  SER814 

> <Gold.Protein.RotatedAtoms>
  152.4462  134.5490  159.9860 H   0  0  0  0  0  0  0  0  0  0  0  0  # atno 6907 bound_to 6896
  151.5574  133.3402  159.2972 H   0  0  0  0  0  0  0  0  0  0  0  0  # atno 6908 bound_to 6896
  150.8379  134.7692  159.6971 H   0  0  0  0  0  0  0  0  0  0  0  0  # atno 6909 bound_to 6896
  146.2256  140.2591  142.8351 H   0  0  0  0  0  0  0  0  0  0  0  0  # atno 7974 bound_to 7965
  155.4890  140.3471  155.4352 H   0  0  0  0  0  0  0  0  0  0  0  0  # atno 8008 bound_to 7997
  156.0989  140.1430  156.9521 H   0  0  0  0  0  0  0  0  0  0  0  0  # atno 8009 bound_to 7997
  154.4681  140.0910  156.7052 H   0  0  0  0  0  0  0  0  0  0  0  0  # atno 8010 bound_to 7997
  139.9231  144.6200  150.8420 H   0  0  0  0  0  0  0  0  0  0  0  0  # atno 10167 bound_to 10162
  156.2509  130.7152  151.1050 H   0  0  0  0  0  0  0  0  0  0  0  0  # atno 10718 bound_to 10713
  154.1136  135.2837  155.3225 H   0  0  0  0  0  0  0  0  0  0  0  0  # atno 10763 bound_to 10752
  154.6472  135.5381  153.7862 H   0  0  0  0  0  0  0  0  0  0  0  0  # atno 10764 bound_to 10752
  153.0337  135.6501  154.1294 H   0  0  0  0  0  0  0  0  0  0  0  0  # atno 10765 bound_to 10752
  139.8945  134.8355  156.2720 H   0  0  0  0  0  0  0  0  0  0  0  0  # atno 11005 bound_to 11000
  144.9353  140.8020  143.5664 LP  0  0  0  0  0  0  0  0  0  0  0  0  # atno 17320 bound_to 7965
  145.2538  139.2020  143.4928 LP  0  0  0  0  0  0  0  0  0  0  0  0  # atno 17321 bound_to 7965
  140.7657  143.3283  151.2467 LP  0  0  0  0  0  0  0  0  0  0  0  0  # atno 17342 bound_to 10162
  139.6845  143.9797  152.2826 LP  0  0  0  0  0  0  0  0  0  0  0  0  # atno 17343 bound_to 10162
  157.7214  131.0679  150.6120 LP  0  0  0  0  0  0  0  0  0  0  0  0  # atno 17370 bound_to 10713
  156.6200  130.4403  149.5826 LP  0  0  0  0  0  0  0  0  0  0  0  0  # atno 17371 bound_to 10713
  141.0095  133.7104  156.1088 LP  0  0  0  0  0  0  0  0  0  0  0  0  # atno 17394 bound_to 11000
  140.7387  134.4174  157.5557 LP  0  0  0  0  0  0  0  0  0  0  0  0  # atno 17395 bound_to 11000

$$$$
