AV-unprocessed.smi:2141|AV-procd|sdf|8718|dock8
  -GOLD-   2272011483D 1   1.00000     0.00000
 Structure written by MMmdl.
 42 43  0  0  0  0  0  0  0  0  1 V2000
  144.2915  134.7670  150.4532 C   0  0  0  0  0  0  0  0  0  0  0  0
  144.4063  135.6705  152.0525 S   0  0  0  0  0  0  0  0  0  0  0  0
  143.0452  135.9535  152.5326 O   0  0  0  0  0  0  0  0  0  0  0  0
  145.3643  134.9605  152.9131 O   0  0  0  0  0  0  0  0  0  0  0  0
  145.1315  137.1747  151.6117 N   0  0  0  0  0  0  0  0  0  0  0  0
  146.1336  137.8128  152.4728 C   0  0  0  0  0  0  0  0  0  0  0  0
  146.6655  139.1316  151.8750 C   0  0  0  0  0  0  0  0  0  0  0  0
  147.3218  140.0457  152.9128 C   0  0  0  0  0  0  0  0  0  0  0  0
  146.7735  141.1038  153.2199 O   0  0  0  0  0  0  0  0  0  0  0  0
  148.4794  139.6010  153.4343 N   0  0  0  0  0  0  0  0  0  0  0  0
  149.2500  140.1792  154.4771 C   0  0  0  0  0  0  0  0  0  0  0  0
  148.9546  141.4171  155.0929 C   0  0  0  0  0  0  0  0  0  0  0  0
  149.7986  141.8863  156.1176 C   0  0  0  0  0  0  0  0  0  0  0  0
  150.9215  141.1143  156.4986 C   0  0  0  0  0  0  0  0  0  0  0  0
  151.7735  141.5622  157.5306 N   0  0  0  0  0  0  0  0  0  0  0  0
  152.0088  140.6136  158.6161 C   0  0  0  0  0  0  0  0  0  0  0  0
  153.1783  141.0868  159.4970 C   0  0  0  0  0  0  0  0  0  0  0  0
  152.9306  142.4104  159.9598 O   0  0  0  0  0  0  0  0  0  0  0  0
  152.8178  143.3353  158.8836 C   0  0  0  0  0  0  0  0  0  0  0  0
  151.6308  142.9432  157.9878 C   0  0  0  0  0  0  0  0  0  0  0  0
  151.2070  139.9338  155.8964 N   0  0  0  0  0  0  0  0  0  0  0  0
  150.3985  139.4898  154.9122 C   0  0  0  0  0  0  0  0  0  0  0  0
  143.8631  133.7804  150.6271 H   0  0  0  0  0  0  0  0  0  0  0  0
  145.2864  134.6546  150.0227 H   0  0  0  0  0  0  0  0  0  0  0  0
  143.6539  135.3165  149.7619 H   0  0  0  0  0  0  0  0  0  0  0  0
  144.5051  137.8146  151.1231 H   0  0  0  0  0  0  0  0  0  0  0  0
  145.7072  137.9942  153.4601 H   0  0  0  0  0  0  0  0  0  0  0  0
  146.9580  137.1145  152.6176 H   0  0  0  0  0  0  0  0  0  0  0  0
  147.3804  138.9129  151.0806 H   0  0  0  0  0  0  0  0  0  0  0  0
  145.8469  139.6761  151.4022 H   0  0  0  0  0  0  0  0  0  0  0  0
  148.7776  138.6852  153.1307 H   0  0  0  0  0  0  0  0  0  0  0  0
  148.1070  142.0159  154.7975 H   0  0  0  0  0  0  0  0  0  0  0  0
  149.5670  142.8209  156.6064 H   0  0  0  0  0  0  0  0  0  0  0  0
  151.1005  140.5332  159.2147 H   0  0  0  0  0  0  0  0  0  0  0  0
  152.2289  139.6155  158.2399 H   0  0  0  0  0  0  0  0  0  0  0  0
  153.2911  140.4262  160.3566 H   0  0  0  0  0  0  0  0  0  0  0  0
  154.1189  141.0536  158.9448 H   0  0  0  0  0  0  0  0  0  0  0  0
  152.6683  144.3363  159.2884 H   0  0  0  0  0  0  0  0  0  0  0  0
  153.7462  143.3591  158.3106 H   0  0  0  0  0  0  0  0  0  0  0  0
  151.5832  143.6207  157.1342 H   0  0  0  0  0  0  0  0  0  0  0  0
  150.6959  143.0466  158.5402 H   0  0  0  0  0  0  0  0  0  0  0  0
  150.6730  138.5446  154.4666 H   0  0  0  0  0  0  0  0  0  0  0  0
  1  2  1  0  0  0  0
  1 23  1  0  0  0  0
  1 24  1  0  0  0  0
  1 25  1  0  0  0  0
  2  3  2  0  0  0  0
  2  4  2  0  0  0  0
  2  5  1  0  0  0  0
  5  6  1  0  0  0  0
  5 26  1  0  0  0  0
  6  7  1  0  0  0  0
  6 27  1  0  0  0  0
  6 28  1  0  0  0  0
  7  8  1  0  0  0  0
  7 29  1  0  0  0  0
  7 30  1  0  0  0  0
  8  9  2  0  0  0  0
  8 10  1  0  0  0  0
 10 11  1  0  0  0  0
 10 31  1  0  0  0  0
 11 22  1  0  0  0  0
 11 12  2  0  0  0  0
 12 13  1  0  0  0  0
 12 32  1  0  0  0  0
 13 14  2  0  0  0  0
 13 33  1  0  0  0  0
 14 15  1  0  0  0  0
 14 21  1  0  0  0  0
 15 20  1  0  0  0  0
 15 16  1  0  0  0  0
 16 17  1  0  0  0  0
 16 34  1  0  0  0  0
 16 35  1  0  0  0  0
 17 18  1  0  0  0  0
 17 36  1  0  0  0  0
 17 37  1  0  0  0  0
 18 19  1  0  0  0  0
 19 20  1  0  0  0  0
 19 38  1  0  0  0  0
 19 39  1  0  0  0  0
 20 40  1  0  0  0  0
 20 41  1  0  0  0  0
 21 22  2  0  0  0  0
 22 42  1  0  0  0  0
M  END
> <s_m_source_file>
AV-unprocessed.smi

> <i_m_source_file_index>
2141

> <i_lp_mmshare_version>
43012

> <i_f3d_flags>
0

> <s_epik_input>
W0NIM11TKD1PKSg9TylbTkhdW0NIMl1bQ0gyXUMoPU8pW05IXWMxW2NIXVtjSF1jKG5bY0hdMSlOMltDSDJdW0NIMl1PW0NIMl1bQ0gyXTI=

> <s_epik_cmdline>
J2VwaWtfcHl0aG9uJywgJy1waCcsICc3LjAnLCAnLXRuJywgJzgnLCAnLW1hJywgJzIwMCcsICctbWV0YWxfYmluZGluZycsICctaW1hZScsICc8aW5maWxlLm1hZT4nLCAnLW9tYWUnLCAnPG91dGZpbGUubWFlPic=

> <r_lp_tautomer_probability>
1

> <r_epik_Ionization_Penalty>
0.000610192

> <r_epik_Ionization_Penalty_Charging>
0

> <r_epik_Ionization_Penalty_Neutral>
0.000610192

> <r_epik_State_Penalty>
0.000370803

> <r_epik_Charging_Adjusted_Penalty>
0.000370803

> <i_epik_Tot_Q>
0

> <i_epik_Tot_abs_Q>
0

> <r_epik_Metal_State_Penalty>
0.0170256

> <b_epik_Metal_Only>
0

> <s_lp_Force_Field>
OPLS_2005

> <r_lp_Energy>
9.95274

> <b_lp_Chiralities_Consistent>
1

> <s_lp_Variant>
AV-unprocessed.smi:2141-1

> <Gold.Version>
5.8.1

> <Gold.Id.Protein>
6NUR|6NUR_protein|mol2

> <Gold.PLP.Fitness>
40.4813

> <Gold.PLP.PLP>
-37.9506

> <Gold.PLP.part.hbond>
-2.0000

> <Gold.PLP.part.metal>
0.0000

> <Gold.PLP.part.buried>
0.0618

> <Gold.PLP.part.nonpolar>
-36.0362

> <Gold.PLP.part.repulsive>
0.6297

> <Gold.PLP.ligand.clash>
0.0000

> <Gold.PLP.ligand.torsion>
0.9227

> <Gold.PLP.Chemscore.Hbond>
1.0000

> <Gold.PLP.Chemscore.CHOScore>
0.0000

> <Gold.PLP.Chemscore.Metal>
0.0000

> <Gold.Chemscore.Hbonds>
donor molecule, donor type, donor heavy atom, donor atom, acceptor molecule, acceptor atom, score
      L1  H     5    26       P1 10171  1.00

> <Gold.PLP.Chemscore.Internal.Correction>
1.3762

> <Gold.Rescore>
     Score         DG    S(hbond)    S(metal)    S(lipo)     H(rot)  DE(clash)    DE(int)     intcor
     11.41     -13.80       1.00        0.00      86.32       1.99       0.17       2.22       ----

> <Gold.Chemscore.Fitness>
11.4055

> <Gold.Chemscore.DG>
-13.8030

> <Gold.Chemscore.ZeroCoef>
-5.4800

> <Gold.Chemscore.Hbond>
0.9952

> <Gold.Chemscore.Metal>
0.0000

> <Gold.Chemscore.Lipo>
86.3234

> <Gold.Chemscore.Internal_Hbond>
0.0000

> <Gold.Chemscore.DEClash>
0.1736

> <Gold.Chemscore.DEInternal>
2.2239

> <Gold.Chemscore.Rot>
1.9925

> <Gold.Chemscore.Internal.Correction>
   9.000000E+99

> <Gold.Chemscore.Hbonds>
donor molecule, donor type, donor heavy atom, donor atom, acceptor molecule, acceptor atom, score
      L1  H     5    26       P1 10171  0.98

> <Gold.Chemscore.Hbond.Weighted>
-3.3240

> <Gold.Chemscore.Metal.Weighted>
-0.0000

> <Gold.Chemscore.Lipo.Weighted>
-10.0998

> <Gold.Chemscore.Internal_Hbond.Weighted>
0.0000

> <Gold.Chemscore.DEClash.Weighted>
0.1736

> <Gold.Chemscore.DEInternal.Weighted>
2.2239

> <Gold.Chemscore.Rot.Weighted>
5.1008

> <Gold.Chemscore.Internal.Correction.Weighted>
   9.000000E+99

> <Gold.Protein.RotatedTorsions>
[ 6907 6896 6895 6894 ] final  -28.18 input  -60.11 | X-H torsion
[ 7974 7965 7964 7962 ] final   -3.96 input  175.53 | X-H torsion
[ 8008 7997 7996 7995 ] final  156.48 input   59.86 | X-H torsion
[ 10167 10162 10161 10158 ] final  163.09 input  -65.29 | X-H torsion
[ 10718 10713 10712 10709 ] final   12.49 input   66.30 | X-H torsion
[ 10763 10752 10751 10750 ] final  -28.26 input  -60.55 | X-H torsion
[ 11005 11000 10999 10996 ] final  -35.76 input  -57.11 | X-H torsion

> <Gold.Protein.ActiveResidues>
 VAL166  LYS551  ARG553  GLY616  TRP617  ASP618  TYR619  PRO620  LYS621  CYS622 
 ASP623  PHE694  ASN695  SER759  ASP760  ASP761  ALA762  ILE779  LEU786  VAL792 
 PHE793  MET794  SER795  GLU796  ALA797  LYS798  CYS799  TRP800  GLU811  SER814 

> <Gold.Protein.RotatedAtoms>
  151.1365  135.0157  159.8605 H   0  0  0  0  0  0  0  0  0  0  0  0  # atno 6907 bound_to 6896
  152.5452  134.1549  159.8544 H   0  0  0  0  0  0  0  0  0  0  0  0  # atno 6908 bound_to 6896
  151.1621  133.4793  159.2627 H   0  0  0  0  0  0  0  0  0  0  0  0  # atno 6909 bound_to 6896
  146.2381  140.1799  142.8332 H   0  0  0  0  0  0  0  0  0  0  0  0  # atno 7974 bound_to 7965
  156.2420  140.1911  156.6962 H   0  0  0  0  0  0  0  0  0  0  0  0  # atno 8008 bound_to 7997
  154.6215  140.0608  156.9647 H   0  0  0  0  0  0  0  0  0  0  0  0  # atno 8009 bound_to 7997
  155.1854  140.3280  155.4370 H   0  0  0  0  0  0  0  0  0  0  0  0  # atno 8010 bound_to 7997
  139.4869  144.4372  151.8997 H   0  0  0  0  0  0  0  0  0  0  0  0  # atno 10167 bound_to 10162
  157.0108  130.6116  149.5708 H   0  0  0  0  0  0  0  0  0  0  0  0  # atno 10718 bound_to 10713
  153.7454  135.6929  153.4957 H   0  0  0  0  0  0  0  0  0  0  0  0  # atno 10763 bound_to 10752
  153.2040  135.4426  155.0299 H   0  0  0  0  0  0  0  0  0  0  0  0  # atno 10764 bound_to 10752
  154.8206  135.3420  154.6977 H   0  0  0  0  0  0  0  0  0  0  0  0  # atno 10765 bound_to 10752
  140.9822  133.7050  156.1703 H   0  0  0  0  0  0  0  0  0  0  0  0  # atno 11005 bound_to 11000
  144.9943  140.8575  143.5320 LP  0  0  0  0  0  0  0  0  0  0  0  0  # atno 17320 bound_to 7965
  145.1809  139.2352  143.5293 LP  0  0  0  0  0  0  0  0  0  0  0  0  # atno 17321 bound_to 7965
  140.3823  144.2721  150.5907 LP  0  0  0  0  0  0  0  0  0  0  0  0  # atno 17342 bound_to 10162
  140.5222  143.2263  151.8370 LP  0  0  0  0  0  0  0  0  0  0  0  0  # atno 17343 bound_to 10162
  156.0137  130.5230  150.8067 LP  0  0  0  0  0  0  0  0  0  0  0  0  # atno 17370 bound_to 10713
  157.5321  131.0937  150.9940 LP  0  0  0  0  0  0  0  0  0  0  0  0  # atno 17371 bound_to 10713
  140.7169  134.4400  157.5578 LP  0  0  0  0  0  0  0  0  0  0  0  0  # atno 17394 bound_to 11000
  139.8955  134.8681  156.2129 LP  0  0  0  0  0  0  0  0  0  0  0  0  # atno 17395 bound_to 11000

$$$$
