AV-unprocessed.smi:1986|AV-procd|sdf|8052|dock7
  -GOLD-   2272010253D 1   1.00000     0.00000
 Structure written by MMmdl.
 48 49  0  0  0  0  0  0  0  0  2 V2000
  143.2445  137.5155  152.8630 C   0  0  0  0  0  0  0  0  0  0  0  0
  144.0399  136.3036  152.3459 C   0  0  0  0  0  0  0  0  0  0  0  0
  145.5876  136.4808  152.2787 C   0  0  1  0  0  0  0  0  0  0  0  0
  145.9345  137.4693  151.1348 C   0  0  0  0  0  0  0  0  0  0  0  0
  146.0985  137.1041  153.6190 C   0  0  0  0  0  0  0  0  0  0  0  0
  147.4963  137.5299  153.5739 N   0  0  0  0  0  0  0  0  0  0  0  0
  148.1437  138.2158  154.5263 C   0  0  0  0  0  0  0  0  0  0  0  0
  147.6514  138.4991  155.6180 O   0  0  0  0  0  0  0  0  0  0  0  0
  149.5680  138.6643  154.1802 C   0  0  0  0  0  0  0  0  0  0  0  0
  150.0847  139.6389  155.1508 N   0  0  0  0  0  0  0  0  0  0  0  0
  150.7850  139.0745  156.2056 N   0  0  0  0  0  0  0  0  0  0  0  0
  151.2808  139.8291  157.1274 C   0  0  0  0  0  0  0  0  0  0  0  0
  151.9658  139.2289  158.1550 O   0  0  0  0  0  0  0  0  0  0  0  0
  151.1226  141.2662  157.0838 C   0  0  0  0  0  0  0  0  0  0  0  0
  150.4426  141.8080  156.0498 C   0  0  0  0  0  0  0  0  0  0  0  0
  149.8687  140.9815  154.9868 C   0  0  0  0  0  0  0  0  0  0  0  0
  149.2436  141.4474  154.0330 O   0  0  0  0  0  0  0  0  0  0  0  0
  146.2729  135.1593  152.0217 N   0  3  0  0  0  0  0  0  0  0  0  0
  146.4034  134.2591  153.2017 C   0  0  0  0  0  0  0  0  0  0  0  0
  147.3158  133.0696  152.8645 C   0  0  0  0  0  0  0  0  0  0  0  0
  146.7658  132.3530  151.7683 O   0  0  0  0  0  0  0  0  0  0  0  0
  146.6889  133.1559  150.5984 C   0  0  0  0  0  0  0  0  0  0  0  0
  145.7834  134.3744  150.8521 C   0  0  0  0  0  0  0  0  0  0  0  0
  151.7032  139.6920  158.9356 H   0  0  0  0  0  0  0  0  0  0  0  0
  142.1780  137.2899  152.8751 H   0  0  0  0  0  0  0  0  0  0  0  0
  143.3785  138.3921  152.2298 H   0  0  0  0  0  0  0  0  0  0  0  0
  143.5272  137.7847  153.8803 H   0  0  0  0  0  0  0  0  0  0  0  0
  143.7889  135.4583  152.9862 H   0  0  0  0  0  0  0  0  0  0  0  0
  143.6499  136.0537  151.3597 H   0  0  0  0  0  0  0  0  0  0  0  0
  145.6859  138.4979  151.3971 H   0  0  0  0  0  0  0  0  0  0  0  0
  145.3863  137.2456  150.2192 H   0  0  0  0  0  0  0  0  0  0  0  0
  146.9978  137.4511  150.8940 H   0  0  0  0  0  0  0  0  0  0  0  0
  145.4688  137.9384  153.9324 H   0  0  0  0  0  0  0  0  0  0  0  0
  146.0176  136.3759  154.4261 H   0  0  0  0  0  0  0  0  0  0  0  0
  148.0015  137.3263  152.7235 H   0  0  0  0  0  0  0  0  0  0  0  0
  150.2046  137.7785  154.1455 H   0  0  0  0  0  0  0  0  0  0  0  0
  149.6017  139.0908  153.1755 H   0  0  0  0  0  0  0  0  0  0  0  0
  151.5431  141.8830  157.8646 H   0  0  0  0  0  0  0  0  0  0  0  0
  150.3174  142.8800  156.0055 H   0  0  0  0  0  0  0  0  0  0  0  0
  146.8220  134.7799  154.0610 H   0  0  0  0  0  0  0  0  0  0  0  0
  145.4249  133.8834  153.5013 H   0  0  0  0  0  0  0  0  0  0  0  0
  148.3282  133.4050  152.6321 H   0  0  0  0  0  0  0  0  0  0  0  0
  147.3906  132.3990  153.7206 H   0  0  0  0  0  0  0  0  0  0  0  0
  147.6881  133.4670  150.2915 H   0  0  0  0  0  0  0  0  0  0  0  0
  146.2841  132.5525  149.7857 H   0  0  0  0  0  0  0  0  0  0  0  0
  144.7619  134.0358  151.0258 H   0  0  0  0  0  0  0  0  0  0  0  0
  145.7752  134.9693  149.9407 H   0  0  0  0  0  0  0  0  0  0  0  0
  147.2201  135.4153  151.7795 H   0  0  0  0  0  0  0  0  0  0  0  0
  1  2  1  0  0  0  0
  1 25  1  0  0  0  0
  1 26  1  0  0  0  0
  1 27  1  0  0  0  0
  2  3  1  0  0  0  0
  2 28  1  0  0  0  0
  2 29  1  0  0  0  0
  3  4  1  0  0  0  0
  3  5  1  0  0  0  0
  3 18  1  0  0  0  0
  4 30  1  0  0  0  0
  4 31  1  0  0  0  0
  4 32  1  0  0  0  0
  5  6  1  0  0  0  0
  5 33  1  0  0  0  0
  5 34  1  0  0  0  0
  6  7  1  0  0  0  0
  6 35  1  0  0  0  0
  7  8  2  0  0  0  0
  7  9  1  0  0  0  0
  9 36  1  0  0  0  0
  9 37  1  0  0  0  0
  9 10  1  0  0  0  0
 10 11  1  0  0  0  0
 10 16  1  0  0  0  0
 11 12  2  0  0  0  0
 12 13  1  0  0  0  0
 12 14  1  0  0  0  0
 13 24  1  0  0  0  0
 14 38  1  0  0  0  0
 14 15  2  0  0  0  0
 15 39  1  0  0  0  0
 15 16  1  0  0  0  0
 16 17  2  0  0  0  0
 18 23  1  0  0  0  0
 18 19  1  0  0  0  0
 18 48  1  0  0  0  0
 19 20  1  0  0  0  0
 19 40  1  0  0  0  0
 19 41  1  0  0  0  0
 20 21  1  0  0  0  0
 20 42  1  0  0  0  0
 20 43  1  0  0  0  0
 21 22  1  0  0  0  0
 22 23  1  0  0  0  0
 22 44  1  0  0  0  0
 22 45  1  0  0  0  0
 23 46  1  0  0  0  0
 23 47  1  0  0  0  0
M  CHG  1  18   1
M  END
> <s_m_source_file>
AV-unprocessed.smi

> <i_m_source_file_index>
1986

> <i_lp_mmshare_version>
43012

> <i_f3d_flags>
0

> <s_epik_input>
W0NIMl0xW0NIMl1PW0NIMl1bQ0gyXU4xW0NAQF0oW0NIM10pKFtDSDJdW0NIM10pW0NIMl1bTkhdQyg9TylbQ0gyXW4yW25IXWMoPU8pW2NIXVtjSF1jMj1P

> <s_epik_cmdline>
J2VwaWtfcHl0aG9uJywgJy1waCcsICc3LjAnLCAnLXRuJywgJzgnLCAnLW1hJywgJzIwMCcsICctbWV0YWxfYmluZGluZycsICctaW1hZScsICc8aW5maWxlLm1hZT4nLCAnLW9tYWUnLCAnPG91dGZpbGUubWFlPic=

> <r_lp_tautomer_probability>
0.9996

> <r_epik_Ionization_Penalty>
2.73198

> <r_epik_Ionization_Penalty_Charging>
0.519658

> <r_epik_Ionization_Penalty_Neutral>
2.21233

> <r_epik_State_Penalty>
2.2852

> <r_epik_Charging_Adjusted_Penalty>
2.80486

> <i_epik_Tot_Q>
1

> <i_epik_Tot_abs_Q>
1

> <r_epik_Metal_State_Penalty>
2.2852

> <b_epik_Metal_Only>
0

> <s_lp_Force_Field>
OPLS_2005

> <r_lp_Energy>
43.5621

> <b_lp_Chiralities_Consistent>
1

> <s_lp_Variant>
AV-unprocessed.smi:1986-7

> <Gold.Version>
5.8.1

> <Gold.Id.Protein>
6NUR|6NUR_protein|mol2

> <Gold.PLP.Fitness>
42.3333

> <Gold.PLP.PLP>
-32.9756

> <Gold.PLP.part.hbond>
-3.9298

> <Gold.PLP.part.metal>
0.0000

> <Gold.PLP.part.buried>
1.2399

> <Gold.PLP.part.nonpolar>
-31.4824

> <Gold.PLP.part.repulsive>
1.0485

> <Gold.PLP.ligand.clash>
0.0000

> <Gold.PLP.ligand.torsion>
0.9588

> <Gold.PLP.Chemscore.Hbond>
3.6640

> <Gold.PLP.Chemscore.CHOScore>
0.0000

> <Gold.PLP.Chemscore.Metal>
0.0000

> <Gold.Chemscore.Hbonds>
donor molecule, donor type, donor heavy atom, donor atom, acceptor molecule, acceptor atom, score
      L1  H     6    35       P1  7948  0.98
      L1  H    18    48       P1  7948  2.00
      P1  H  8011  8017       L1    17  0.70

> <Gold.PLP.Chemscore.Internal.Correction>
0.2833

> <Gold.Rescore>
     Score         DG    S(hbond)    S(metal)    S(lipo)     H(rot)  DE(clash)    DE(int)     intcor
     11.61     -14.06       2.68        0.00      65.73       3.15       1.74       0.71       ----

> <Gold.Chemscore.Fitness>
11.6083

> <Gold.Chemscore.DG>
-14.0607

> <Gold.Chemscore.ZeroCoef>
-5.4800

> <Gold.Chemscore.Hbond>
2.6799

> <Gold.Chemscore.Metal>
0.0000

> <Gold.Chemscore.Lipo>
65.7263

> <Gold.Chemscore.Internal_Hbond>
0.0000

> <Gold.Chemscore.DEClash>
1.7391

> <Gold.Chemscore.DEInternal>
0.7133

> <Gold.Chemscore.Rot>
3.1485

> <Gold.Chemscore.Internal.Correction>
   9.000000E+99

> <Gold.Chemscore.Hbonds>
donor molecule, donor type, donor heavy atom, donor atom, acceptor molecule, acceptor atom, score
      L1  H     6    35       P1  7948  0.93
      L1  H    18    48       P1  7948  0.99
      P1  H  8011  8017       L1    17  0.65

> <Gold.Chemscore.Hbond.Weighted>
-8.9508

> <Gold.Chemscore.Metal.Weighted>
-0.0000

> <Gold.Chemscore.Lipo.Weighted>
-7.6900

> <Gold.Chemscore.Internal_Hbond.Weighted>
0.0000

> <Gold.Chemscore.DEClash.Weighted>
1.7391

> <Gold.Chemscore.DEInternal.Weighted>
0.7133

> <Gold.Chemscore.Rot.Weighted>
8.0601

> <Gold.Chemscore.Internal.Correction.Weighted>
   9.000000E+99

> <Gold.Protein.RotatedTorsions>
[ 6907 6896 6895 6894 ] final -159.75 input  -60.11 | X-H torsion
[ 7974 7965 7964 7962 ] final -118.93 input  175.53 | X-H torsion
[ 8008 7997 7996 7995 ] final  -52.06 input   59.86 | X-H torsion
[ 10167 10162 10161 10158 ] final  -60.32 input  -65.29 | X-H torsion
[ 10718 10713 10712 10709 ] final  -72.43 input   66.30 | X-H torsion
[ 10763 10752 10751 10750 ] final   16.61 input  -60.55 | X-H torsion
[ 11005 11000 10999 10996 ] final   95.08 input  -57.11 | X-H torsion

> <Gold.Protein.ActiveResidues>
 VAL166  LYS551  ARG553  GLY616  TRP617  ASP618  TYR619  PRO620  LYS621  CYS622 
 ASP623  PHE694  ASN695  SER759  ASP760  ASP761  ALA762  ILE779  LEU786  VAL792 
 PHE793  MET794  SER795  GLU796  ALA797  LYS798  CYS799  TRP800  GLU811  SER814 

> <Gold.Protein.RotatedAtoms>
  151.3384  133.3972  159.2668 H   0  0  0  0  0  0  0  0  0  0  0  0  # atno 6907 bound_to 6896
  150.9898  134.9236  159.7903 H   0  0  0  0  0  0  0  0  0  0  0  0  # atno 6908 bound_to 6896
  152.5243  134.3349  159.9248 H   0  0  0  0  0  0  0  0  0  0  0  0  # atno 6909 bound_to 6896
  145.0683  140.8340  143.4111 H   0  0  0  0  0  0  0  0  0  0  0  0  # atno 7974 bound_to 7965
  154.4097  140.1233  156.4930 H   0  0  0  0  0  0  0  0  0  0  0  0  # atno 8008 bound_to 7997
  155.6971  140.3495  155.4898 H   0  0  0  0  0  0  0  0  0  0  0  0  # atno 8009 bound_to 7997
  155.9418  140.1088  157.1039 H   0  0  0  0  0  0  0  0  0  0  0  0  # atno 8010 bound_to 7997
  140.6079  143.2378  151.5778 H   0  0  0  0  0  0  0  0  0  0  0  0  # atno 10167 bound_to 10162
  156.0320  130.4372  150.2592 H   0  0  0  0  0  0  0  0  0  0  0  0  # atno 10718 bound_to 10713
  153.1414  135.6761  153.9021 H   0  0  0  0  0  0  0  0  0  0  0  0  # atno 10763 bound_to 10752
  153.8476  135.3097  155.3431 H   0  0  0  0  0  0  0  0  0  0  0  0  # atno 10764 bound_to 10752
  154.7791  135.4898  153.9890 H   0  0  0  0  0  0  0  0  0  0  0  0  # atno 10765 bound_to 10752
  139.8792  134.8880  156.3958 H   0  0  0  0  0  0  0  0  0  0  0  0  # atno 11005 bound_to 11000
  145.1324  139.2623  143.5532 LP  0  0  0  0  0  0  0  0  0  0  0  0  # atno 17320 bound_to 7965
  146.3527  140.0979  142.8609 LP  0  0  0  0  0  0  0  0  0  0  0  0  # atno 17321 bound_to 7965
  139.5339  144.2838  152.1208 LP  0  0  0  0  0  0  0  0  0  0  0  0  # atno 17342 bound_to 10162
  140.2031  144.4638  150.6422 LP  0  0  0  0  0  0  0  0  0  0  0  0  # atno 17343 bound_to 10162
  157.0694  131.0112  151.3195 LP  0  0  0  0  0  0  0  0  0  0  0  0  # atno 17370 bound_to 10713
  157.5011  130.7880  149.7606 LP  0  0  0  0  0  0  0  0  0  0  0  0  # atno 17371 bound_to 10713
  140.9301  133.7585  156.0014 LP  0  0  0  0  0  0  0  0  0  0  0  0  # atno 17394 bound_to 11000
  140.8340  134.3145  157.5338 LP  0  0  0  0  0  0  0  0  0  0  0  0  # atno 17395 bound_to 11000

$$$$
