AV-unprocessed.smi:1971|AV-procd|sdf|7966|dock6
  -GOLD-   2272010133D 1   1.00000     0.00000
 Structure written by MMmdl.
 43 44  0  0  0  0  0  0  0  0  1 V2000
  144.1341  135.4435  152.0128 C   0  0  0  0  0  0  0  0  0  0  0  0
  145.2913  136.3211  151.5145 C   0  0  0  0  0  0  0  0  0  0  0  0
  145.6207  137.4527  152.3789 N   0  0  0  0  0  0  0  0  0  0  0  0
  146.4950  138.3995  151.6915 C   0  0  0  0  0  0  0  0  0  0  0  0
  146.8335  139.6103  152.5802 C   0  0  0  0  0  0  0  0  0  0  0  0
  147.5016  139.2146  153.8280 N   0  0  0  0  0  0  0  0  0  0  0  0
  147.8331  140.3747  154.6837 C   0  0  2  0  0  0  0  0  0  0  0  0
  146.7067  141.4307  154.7530 C   0  0  0  0  0  0  0  0  0  0  0  0
  149.1541  141.0895  154.2959 C   0  0  0  0  0  0  0  0  0  0  0  0
  149.5613  142.0862  155.2848 N   0  0  0  0  0  0  0  0  0  0  0  0
  150.4299  141.8852  156.2859 C   0  0  0  0  0  0  0  0  0  0  0  0
  151.0003  140.8131  156.4876 O   0  0  0  0  0  0  0  0  0  0  0  0
  150.5837  142.9959  157.0246 N   0  0  0  0  0  0  0  0  0  0  0  0
  151.4267  143.1804  158.1487 C   0  0  0  0  0  0  0  0  0  0  0  0
  152.0719  142.1259  158.6513 N   0  0  0  0  0  0  0  0  0  0  0  0
  152.8575  142.4685  159.7557 C   0  0  0  0  0  0  0  0  0  0  0  0
  152.7985  143.8002  160.0836 C   0  0  0  0  0  0  0  0  0  0  0  0
  151.7478  144.6868  159.0117 S   0  0  0  0  0  0  0  0  0  0  0  0
  146.6279  138.2469  154.5062 C   0  0  0  0  0  0  0  0  0  0  0  0
  146.2888  137.0396  153.6129 C   0  0  0  0  0  0  0  0  0  0  0  0
  143.8753  134.6919  151.2669 H   0  0  0  0  0  0  0  0  0  0  0  0
  143.2419  136.0402  152.2036 H   0  0  0  0  0  0  0  0  0  0  0  0
  144.3891  134.9134  152.9301 H   0  0  0  0  0  0  0  0  0  0  0  0
  146.1762  135.7026  151.3574 H   0  0  0  0  0  0  0  0  0  0  0  0
  145.0123  136.7004  150.5305 H   0  0  0  0  0  0  0  0  0  0  0  0
  147.4167  137.9032  151.3825 H   0  0  0  0  0  0  0  0  0  0  0  0
  146.0113  138.7521  150.7799 H   0  0  0  0  0  0  0  0  0  0  0  0
  147.4741  140.2710  151.9982 H   0  0  0  0  0  0  0  0  0  0  0  0
  145.9233  140.1693  152.8033 H   0  0  0  0  0  0  0  0  0  0  0  0
  147.9728  140.0090  155.7022 H   0  0  0  0  0  0  0  0  0  0  0  0
  147.0337  142.3230  155.2874 H   0  0  0  0  0  0  0  0  0  0  0  0
  145.8314  141.0616  155.2863 H   0  0  0  0  0  0  0  0  0  0  0  0
  146.3877  141.7420  153.7578 H   0  0  0  0  0  0  0  0  0  0  0  0
  149.9443  140.3533  154.1394 H   0  0  0  0  0  0  0  0  0  0  0  0
  149.0582  141.5875  153.3320 H   0  0  0  0  0  0  0  0  0  0  0  0
  149.1341  142.9975  155.2051 H   0  0  0  0  0  0  0  0  0  0  0  0
  150.0452  143.8032  156.7473 H   0  0  0  0  0  0  0  0  0  0  0  0
  153.4291  141.6979  160.2518 H   0  0  0  0  0  0  0  0  0  0  0  0
  153.3073  144.3115  160.8872 H   0  0  0  0  0  0  0  0  0  0  0  0
  147.1103  137.8598  155.4019 H   0  0  0  0  0  0  0  0  0  0  0  0
  145.7075  138.7357  154.8300 H   0  0  0  0  0  0  0  0  0  0  0  0
  145.6502  136.3618  154.1780 H   0  0  0  0  0  0  0  0  0  0  0  0
  147.2013  136.4882  153.3797 H   0  0  0  0  0  0  0  0  0  0  0  0
  1  2  1  0  0  0  0
  1 21  1  0  0  0  0
  1 22  1  0  0  0  0
  1 23  1  0  0  0  0
  2  3  1  0  0  0  0
  2 24  1  0  0  0  0
  2 25  1  0  0  0  0
  3 20  1  0  0  0  0
  3  4  1  0  0  0  0
  4  5  1  0  0  0  0
  4 26  1  0  0  0  0
  4 27  1  0  0  0  0
  5  6  1  0  0  0  0
  5 28  1  0  0  0  0
  5 29  1  0  0  0  0
  6  7  1  0  0  0  0
  6 19  1  0  0  0  0
  7  8  1  0  0  0  0
  7  9  1  0  0  0  0
  7 30  1  0  0  0  0
  8 31  1  0  0  0  0
  8 32  1  0  0  0  0
  8 33  1  0  0  0  0
  9 10  1  0  0  0  0
  9 34  1  0  0  0  0
  9 35  1  0  0  0  0
 10 11  1  0  0  0  0
 10 36  1  0  0  0  0
 11 12  2  0  0  0  0
 11 13  1  0  0  0  0
 13 14  1  0  0  0  0
 13 37  1  0  0  0  0
 14 18  1  0  0  0  0
 14 15  2  0  0  0  0
 15 16  1  0  0  0  0
 16 17  2  0  0  0  0
 16 38  1  0  0  0  0
 17 18  1  0  0  0  0
 17 39  1  0  0  0  0
 19 20  1  0  0  0  0
 19 40  1  0  0  0  0
 19 41  1  0  0  0  0
 20 42  1  0  0  0  0
 20 43  1  0  0  0  0
M  END
> <s_m_source_file>
AV-unprocessed.smi

> <i_m_source_file_index>
1971

> <i_lp_mmshare_version>
43012

> <i_f3d_flags>
0

> <s_epik_input>
W0NIM11bQ0gyXU4xW0NIMl1bQ0gyXU4oW0NIMl1bQ0gyXTEpW0NASF0oW0NIM10pW0NIMl1bTkhdQyg9TylbTkhdYzJuW2NIXVtjSF1zMg==

> <s_epik_cmdline>
J2VwaWtfcHl0aG9uJywgJy1waCcsICc3LjAnLCAnLXRuJywgJzgnLCAnLW1hJywgJzIwMCcsICctbWV0YWxfYmluZGluZycsICctaW1hZScsICc8aW5maWxlLm1hZT4nLCAnLW9tYWUnLCAnPG91dGZpbGUubWFlPic=

> <r_lp_tautomer_probability>
0.999

> <r_epik_Ionization_Penalty>
2.43994

> <r_epik_Ionization_Penalty_Charging>
0

> <r_epik_Ionization_Penalty_Neutral>
2.43994

> <r_epik_State_Penalty>
1.7682

> <r_epik_Charging_Adjusted_Penalty>
1.7682

> <i_epik_Tot_Q>
0

> <i_epik_Tot_abs_Q>
0

> <r_epik_Metal_State_Penalty>
1.80147

> <b_epik_Metal_Only>
0

> <s_lp_Force_Field>
OPLS_2005

> <r_lp_Energy>
42.0055

> <b_lp_Chiralities_Consistent>
1

> <s_lp_Variant>
AV-unprocessed.smi:1971-5

> <Gold.Version>
5.8.1

> <Gold.Id.Protein>
6NUR|6NUR_protein|mol2

> <Gold.PLP.Fitness>
41.9092

> <Gold.PLP.PLP>
-37.2668

> <Gold.PLP.part.hbond>
-2.0000

> <Gold.PLP.part.metal>
0.0000

> <Gold.PLP.part.buried>
-3.2358

> <Gold.PLP.part.nonpolar>
-33.5488

> <Gold.PLP.part.repulsive>
0.6599

> <Gold.PLP.ligand.clash>
0.0000

> <Gold.PLP.ligand.torsion>
0.7039

> <Gold.PLP.Chemscore.Hbond>
2.0000

> <Gold.PLP.Chemscore.CHOScore>
0.0000

> <Gold.PLP.Chemscore.Metal>
0.0000

> <Gold.Chemscore.Hbonds>
donor molecule, donor type, donor heavy atom, donor atom, acceptor molecule, acceptor atom, score
      L1  H    10    36       P1  8028  1.00
      L1  H    13    37       P1  8028  1.00

> <Gold.PLP.Chemscore.Internal.Correction>
0.0502

> <Gold.Rescore>
     Score         DG    S(hbond)    S(metal)    S(lipo)     H(rot)  DE(clash)    DE(int)     intcor
     15.88     -18.12       1.97        0.00      90.09       1.75       0.08       2.16       ----

> <Gold.Chemscore.Fitness>
15.8825

> <Gold.Chemscore.DG>
-18.1167

> <Gold.Chemscore.ZeroCoef>
-5.4800

> <Gold.Chemscore.Hbond>
1.9668

> <Gold.Chemscore.Metal>
0.0000

> <Gold.Chemscore.Lipo>
90.0909

> <Gold.Chemscore.Internal_Hbond>
0.0000

> <Gold.Chemscore.DEClash>
0.0770

> <Gold.Chemscore.DEInternal>
2.1571

> <Gold.Chemscore.Rot>
1.7473

> <Gold.Chemscore.Internal.Correction>
   9.000000E+99

> <Gold.Chemscore.Hbonds>
donor molecule, donor type, donor heavy atom, donor atom, acceptor molecule, acceptor atom, score
      L1  H    10    36       P1  8028  0.99
      L1  H    13    37       P1  8028  0.98

> <Gold.Chemscore.Hbond.Weighted>
-6.5691

> <Gold.Chemscore.Metal.Weighted>
-0.0000

> <Gold.Chemscore.Lipo.Weighted>
-10.5406

> <Gold.Chemscore.Internal_Hbond.Weighted>
0.0000

> <Gold.Chemscore.DEClash.Weighted>
0.0770

> <Gold.Chemscore.DEInternal.Weighted>
2.1571

> <Gold.Chemscore.Rot.Weighted>
4.4731

> <Gold.Chemscore.Internal.Correction.Weighted>
   9.000000E+99

> <Gold.Protein.RotatedTorsions>
[ 6907 6896 6895 6894 ] final  155.24 input  -60.11 | X-H torsion
[ 7974 7965 7964 7962 ] final   -0.88 input  175.53 | X-H torsion
[ 8008 7997 7996 7995 ] final   52.01 input   59.86 | X-H torsion
[ 10167 10162 10161 10158 ] final  -68.68 input  -65.29 | X-H torsion
[ 10718 10713 10712 10709 ] final   49.18 input   66.30 | X-H torsion
[ 10763 10752 10751 10750 ] final -156.10 input  -60.55 | X-H torsion
[ 11005 11000 10999 10996 ] final  -75.08 input  -57.11 | X-H torsion

> <Gold.Protein.ActiveResidues>
 VAL166  LYS551  ARG553  GLY616  TRP617  ASP618  TYR619  PRO620  LYS621  CYS622 
 ASP623  PHE694  ASN695  SER759  ASP760  ASP761  ALA762  ILE779  LEU786  VAL792 
 PHE793  MET794  SER795  GLU796  ALA797  LYS798  CYS799  TRP800  GLU811  SER814 

> <Gold.Protein.RotatedAtoms>
  152.0469  133.4002  159.4360 H   0  0  0  0  0  0  0  0  0  0  0  0  # atno 6907 bound_to 6896
  150.6872  134.3352  159.4853 H   0  0  0  0  0  0  0  0  0  0  0  0  # atno 6908 bound_to 6896
  152.1157  134.9242  160.0615 H   0  0  0  0  0  0  0  0  0  0  0  0  # atno 6909 bound_to 6896
  146.2423  140.1336  142.8337 H   0  0  0  0  0  0  0  0  0  0  0  0  # atno 7974 bound_to 7965
  155.4448  140.3456  155.4294 H   0  0  0  0  0  0  0  0  0  0  0  0  # atno 8008 bound_to 7997
  156.1257  140.1499  156.9170 H   0  0  0  0  0  0  0  0  0  0  0  0  # atno 8009 bound_to 7997
  154.4856  140.0856  156.7458 H   0  0  0  0  0  0  0  0  0  0  0  0  # atno 8010 bound_to 7997
  140.5489  143.2312  151.6949 H   0  0  0  0  0  0  0  0  0  0  0  0  # atno 10167 bound_to 10162
  157.4761  130.8286  149.8041 H   0  0  0  0  0  0  0  0  0  0  0  0  # atno 10718 bound_to 10713
  154.7738  135.3153  154.8135 H   0  0  0  0  0  0  0  0  0  0  0  0  # atno 10763 bound_to 10752
  153.8863  135.6830  153.4768 H   0  0  0  0  0  0  0  0  0  0  0  0  # atno 10764 bound_to 10752
  153.1357  135.4761  154.9354 H   0  0  0  0  0  0  0  0  0  0  0  0  # atno 10765 bound_to 10752
  141.1642  133.6934  156.7462 H   0  0  0  0  0  0  0  0  0  0  0  0  # atno 11005 bound_to 11000
  145.0306  140.8867  143.5112 LP  0  0  0  0  0  0  0  0  0  0  0  0  # atno 17320 bound_to 7965
  145.1399  139.2579  143.5495 LP  0  0  0  0  0  0  0  0  0  0  0  0  # atno 17321 bound_to 7965
  139.5019  144.3850  152.0338 LP  0  0  0  0  0  0  0  0  0  0  0  0  # atno 17342 bound_to 10162
  140.2965  144.3695  150.6073 LP  0  0  0  0  0  0  0  0  0  0  0  0  # atno 17343 bound_to 10162
  156.0097  130.3839  150.2306 LP  0  0  0  0  0  0  0  0  0  0  0  0  # atno 17370 bound_to 10713
  157.0490  131.0057  151.3259 LP  0  0  0  0  0  0  0  0  0  0  0  0  # atno 17371 bound_to 10713
  140.2638  134.8446  157.3783 LP  0  0  0  0  0  0  0  0  0  0  0  0  # atno 17394 bound_to 11000
  140.1586  134.4758  155.7910 LP  0  0  0  0  0  0  0  0  0  0  0  0  # atno 17395 bound_to 11000

$$$$
