AV-unprocessed.smi:2902|AV-procd|sdf|11156|dock8
  -GOLD-   2272016 43D 1   1.00000     0.00000
 Structure written by MMmdl.
 47 48  0  0  0  0  0  0  0  0  1 V2000
  152.0330  139.7317  159.0387 C   0  0  0  0  0  0  0  0  0  0  0  0
  151.4059  139.5475  157.6514 C   0  0  0  0  0  0  0  0  0  0  0  0
  150.6512  140.7998  157.1672 C   0  0  1  0  0  0  0  0  0  0  0  0
  151.5626  141.8976  157.1838 O   0  0  0  0  0  0  0  0  0  0  0  0
  151.3023  142.9240  158.1375 C   0  0  0  0  0  0  0  0  0  0  0  0
  151.7305  144.3129  157.6535 C   0  0  0  0  0  0  0  0  0  0  0  0
  152.0048  145.1155  158.9309 C   0  0  0  0  0  0  0  0  0  0  0  0
  152.2325  144.0857  160.0486 C   0  0  0  0  0  0  0  0  0  0  0  0
  152.1682  142.7106  159.3776 C   0  0  0  0  0  0  0  0  0  0  0  0
  150.0825  140.5917  155.7556 C   0  0  0  0  0  0  0  0  0  0  0  0
  150.8315  140.3067  154.8211 O   0  0  0  0  0  0  0  0  0  0  0  0
  148.7538  140.7351  155.6242 N   0  0  0  0  0  0  0  0  0  0  0  0
  147.9844  140.5336  154.3954 C   0  0  2  0  0  0  0  0  0  0  0  0
  147.3240  141.8728  154.0275 C   0  0  0  0  0  0  0  0  0  0  0  0
  146.9623  139.3784  154.5832 C   0  0  1  0  0  0  0  0  0  0  0  0
  145.6342  139.8407  155.2141 C   0  0  0  0  0  0  0  0  0  0  0  0
  146.7056  138.6854  153.3252 N   0  0  0  0  0  0  0  0  0  0  0  0
  147.0317  139.0221  152.0754 C   0  0  0  0  0  0  0  0  0  0  0  0
  146.5860  138.1770  151.1567 N   0  0  0  0  0  0  0  0  0  0  0  0
  145.9456  137.2803  151.9642 C   0  0  0  0  0  0  0  0  0  0  0  0
  145.9844  137.5389  153.2711 N   0  0  0  0  0  0  0  0  0  0  0  0
  152.5516  138.8258  159.3530 H   0  0  0  0  0  0  0  0  0  0  0  0
  151.2736  139.9571  159.7877 H   0  0  0  0  0  0  0  0  0  0  0  0
  152.7578  140.5461  159.0396 H   0  0  0  0  0  0  0  0  0  0  0  0
  152.1865  139.2820  156.9369 H   0  0  0  0  0  0  0  0  0  0  0  0
  150.7230  138.6969  157.6887 H   0  0  0  0  0  0  0  0  0  0  0  0
  149.8323  140.9959  157.8622 H   0  0  0  0  0  0  0  0  0  0  0  0
  150.2546  142.9385  158.4450 H   0  0  0  0  0  0  0  0  0  0  0  0
  152.6511  144.2293  157.0741 H   0  0  0  0  0  0  0  0  0  0  0  0
  150.9855  144.7911  157.0177 H   0  0  0  0  0  0  0  0  0  0  0  0
  152.8663  145.7721  158.8035 H   0  0  0  0  0  0  0  0  0  0  0  0
  151.1483  145.7451  159.1755 H   0  0  0  0  0  0  0  0  0  0  0  0
  153.1827  144.2383  160.5613 H   0  0  0  0  0  0  0  0  0  0  0  0
  151.4411  144.1722  160.7944 H   0  0  0  0  0  0  0  0  0  0  0  0
  151.7733  141.9371  160.0370 H   0  0  0  0  0  0  0  0  0  0  0  0
  153.1724  142.4075  159.0773 H   0  0  0  0  0  0  0  0  0  0  0  0
  148.2275  140.9813  156.4499 H   0  0  0  0  0  0  0  0  0  0  0  0
  148.6571  140.2715  153.5767 H   0  0  0  0  0  0  0  0  0  0  0  0
  146.8280  141.8248  153.0585 H   0  0  0  0  0  0  0  0  0  0  0  0
  148.0659  142.6696  153.9642 H   0  0  0  0  0  0  0  0  0  0  0  0
  146.5828  142.1685  154.7706 H   0  0  0  0  0  0  0  0  0  0  0  0
  147.4023  138.6442  155.2598 H   0  0  0  0  0  0  0  0  0  0  0  0
  145.7763  140.1946  156.2347 H   0  0  0  0  0  0  0  0  0  0  0  0
  144.9175  139.0201  155.2597 H   0  0  0  0  0  0  0  0  0  0  0  0
  145.1780  140.6486  154.6413 H   0  0  0  0  0  0  0  0  0  0  0  0
  147.5953  139.9107  151.8317 H   0  0  0  0  0  0  0  0  0  0  0  0
  145.4336  136.4117  151.5768 H   0  0  0  0  0  0  0  0  0  0  0  0
  1  2  1  0  0  0  0
  1 22  1  0  0  0  0
  1 23  1  0  0  0  0
  1 24  1  0  0  0  0
  2  3  1  0  0  0  0
  2 25  1  0  0  0  0
  2 26  1  0  0  0  0
  3  4  1  0  0  0  0
  3 10  1  0  0  0  0
  3 27  1  0  0  0  0
  4  5  1  0  0  0  0
  5  9  1  0  0  0  0
  5  6  1  0  0  0  0
  5 28  1  0  0  0  0
  6  7  1  0  0  0  0
  6 29  1  0  0  0  0
  6 30  1  0  0  0  0
  7  8  1  0  0  0  0
  7 31  1  0  0  0  0
  7 32  1  0  0  0  0
  8  9  1  0  0  0  0
  8 33  1  0  0  0  0
  8 34  1  0  0  0  0
  9 35  1  0  0  0  0
  9 36  1  0  0  0  0
 10 11  2  0  0  0  0
 10 12  1  0  0  0  0
 12 13  1  0  0  0  0
 12 37  1  0  0  0  0
 13 14  1  0  0  0  0
 13 15  1  0  0  0  0
 13 38  1  0  0  0  0
 14 39  1  0  0  0  0
 14 40  1  0  0  0  0
 14 41  1  0  0  0  0
 15 16  1  0  0  0  0
 15 17  1  0  0  0  0
 15 42  1  0  0  0  0
 16 43  1  0  0  0  0
 16 44  1  0  0  0  0
 16 45  1  0  0  0  0
 17 21  1  0  0  0  0
 17 18  1  0  0  0  0
 18 19  2  0  0  0  0
 18 46  1  0  0  0  0
 19 20  1  0  0  0  0
 20 21  2  0  0  0  0
 20 47  1  0  0  0  0
M  END
> <s_m_source_file>
AV-unprocessed.smi

> <i_m_source_file_index>
2902

> <i_lp_mmshare_version>
43012

> <i_f3d_flags>
0

> <s_epik_input>
W0NIMl0xW0NIMl1bQ0gyXVtDSDJdW0NIXTFPW0NAQEhdKFtDSDJdW0NIM10pQyg9TylbTkhdW0NASF0oW0NIM10pW0NASF0oW0NIM10pbjJbY0hdbltjSF1uMg==

> <s_epik_cmdline>
J2VwaWtfcHl0aG9uJywgJy1waCcsICc3LjAnLCAnLXRuJywgJzgnLCAnLW1hJywgJzIwMCcsICctbWV0YWxfYmluZGluZycsICctaW1hZScsICc8aW5maWxlLm1hZT4nLCAnLW9tYWUnLCAnPG91dGZpbGUubWFlPic=

> <r_lp_tautomer_probability>
1

> <r_epik_Ionization_Penalty>
6.95617e-05

> <r_epik_Ionization_Penalty_Charging>
0

> <r_epik_Ionization_Penalty_Neutral>
6.95617e-05

> <r_epik_State_Penalty>
-0

> <r_epik_Charging_Adjusted_Penalty>
0

> <i_epik_Tot_Q>
0

> <i_epik_Tot_abs_Q>
0

> <r_epik_Metal_State_Penalty>
-0

> <b_epik_Metal_Only>
0

> <s_lp_Force_Field>
OPLS_2005

> <r_lp_Energy>
29.6491

> <b_lp_Chiralities_Consistent>
1

> <s_lp_Variant>
AV-unprocessed.smi:2902-6

> <Gold.Version>
5.8.1

> <Gold.Id.Protein>
6NUR|6NUR_protein|mol2

> <Gold.PLP.Fitness>
43.7501

> <Gold.PLP.PLP>
-38.5071

> <Gold.PLP.part.hbond>
-2.0000

> <Gold.PLP.part.metal>
0.0000

> <Gold.PLP.part.buried>
-2.4691

> <Gold.PLP.part.nonpolar>
-37.0461

> <Gold.PLP.part.repulsive>
1.3124

> <Gold.PLP.ligand.clash>
0.0000

> <Gold.PLP.ligand.torsion>
1.9766

> <Gold.PLP.Chemscore.Hbond>
1.9913

> <Gold.PLP.Chemscore.CHOScore>
1.0000

> <Gold.PLP.Chemscore.Metal>
0.0000

> <Gold.Chemscore.Hbonds>
donor molecule, donor type, donor heavy atom, donor atom, acceptor molecule, acceptor atom, score
      P1  H  7954  7966       L1    19  0.98
      P1  H  7989  7998       L1    11  1.00
      L1  C    18    46       P1  7957  0.96

> <Gold.PLP.Chemscore.Internal.Correction>
0.2223

> <Gold.Rescore>
     Score         DG    S(hbond)    S(metal)    S(lipo)     H(rot)  DE(clash)    DE(int)     intcor
     10.90     -15.20       1.73        0.00      92.64       2.69       2.10       2.20       ----

> <Gold.Chemscore.Fitness>
10.9007

> <Gold.Chemscore.DG>
-15.1987

> <Gold.Chemscore.ZeroCoef>
-5.4800

> <Gold.Chemscore.Hbond>
1.7290

> <Gold.Chemscore.Metal>
0.0000

> <Gold.Chemscore.Lipo>
92.6435

> <Gold.Chemscore.Internal_Hbond>
0.0000

> <Gold.Chemscore.DEClash>
2.0964

> <Gold.Chemscore.DEInternal>
2.2017

> <Gold.Chemscore.Rot>
2.6935

> <Gold.Chemscore.Internal.Correction>
   9.000000E+99

> <Gold.Chemscore.Hbonds>
donor molecule, donor type, donor heavy atom, donor atom, acceptor molecule, acceptor atom, score
      P1  H  7954  7966       L1    19  0.45
      P1  H  7989  7998       L1    11  0.99

> <Gold.Chemscore.Hbond.Weighted>
-5.7748

> <Gold.Chemscore.Metal.Weighted>
-0.0000

> <Gold.Chemscore.Lipo.Weighted>
-10.8393

> <Gold.Chemscore.Internal_Hbond.Weighted>
0.0000

> <Gold.Chemscore.DEClash.Weighted>
2.0964

> <Gold.Chemscore.DEInternal.Weighted>
2.2017

> <Gold.Chemscore.Rot.Weighted>
6.8954

> <Gold.Chemscore.Internal.Correction.Weighted>
   9.000000E+99

> <Gold.Protein.RotatedTorsions>
[ 6907 6896 6895 6894 ] final -133.35 input  -60.11 | X-H torsion
[ 7974 7965 7964 7962 ] final -101.61 input  175.53 | X-H torsion
[ 8008 7997 7996 7995 ] final  -61.27 input   59.86 | X-H torsion
[ 10167 10162 10161 10158 ] final  -37.99 input  -65.29 | X-H torsion
[ 10718 10713 10712 10709 ] final  -99.46 input   66.30 | X-H torsion
[ 10763 10752 10751 10750 ] final  175.74 input  -60.55 | X-H torsion
[ 11005 11000 10999 10996 ] final   23.63 input  -57.11 | X-H torsion

> <Gold.Protein.ActiveResidues>
 VAL166  LYS551  ARG553  GLY616  TRP617  ASP618  TYR619  PRO620  LYS621  CYS622 
 ASP623  PHE694  ASN695  SER759  ASP760  ASP761  ALA762  ILE779  LEU786  VAL792 
 PHE793  MET794  SER795  GLU796  ALA797  LYS798  CYS799  TRP800  GLU811  SER814 

> <Gold.Protein.RotatedAtoms>
  150.9730  133.6324  159.2734 H   0  0  0  0  0  0  0  0  0  0  0  0  # atno 6907 bound_to 6896
  151.3606  135.0902  159.9443 H   0  0  0  0  0  0  0  0  0  0  0  0  # atno 6908 bound_to 6896
  152.5189  133.9304  159.7632 H   0  0  0  0  0  0  0  0  0  0  0  0  # atno 6909 bound_to 6896
  145.2793  140.9322  143.2941 H   0  0  0  0  0  0  0  0  0  0  0  0  # atno 7974 bound_to 7965
  154.4439  140.1021  156.6404 H   0  0  0  0  0  0  0  0  0  0  0  0  # atno 8008 bound_to 7997
  155.5507  140.3485  155.4449 H   0  0  0  0  0  0  0  0  0  0  0  0  # atno 8009 bound_to 7997
  156.0531  140.1308  157.0017 H   0  0  0  0  0  0  0  0  0  0  0  0  # atno 8010 bound_to 7997
  140.7104  143.3306  151.2579 H   0  0  0  0  0  0  0  0  0  0  0  0  # atno 10167 bound_to 10162
  156.0135  130.5283  150.6673 H   0  0  0  0  0  0  0  0  0  0  0  0  # atno 10718 bound_to 10713
  154.4717  135.2771  155.1637 H   0  0  0  0  0  0  0  0  0  0  0  0  # atno 10763 bound_to 10752
  154.3383  135.6175  153.5588 H   0  0  0  0  0  0  0  0  0  0  0  0  # atno 10764 bound_to 10752
  152.9865  135.5782  154.5100 H   0  0  0  0  0  0  0  0  0  0  0  0  # atno 10765 bound_to 10752
  140.3675  134.2058  155.7668 H   0  0  0  0  0  0  0  0  0  0  0  0  # atno 11005 bound_to 11000
  144.9267  139.4347  143.6515 LP  0  0  0  0  0  0  0  0  0  0  0  0  # atno 17320 bound_to 7965
  146.3221  139.8156  142.8937 LP  0  0  0  0  0  0  0  0  0  0  0  0  # atno 17321 bound_to 7965
  139.6786  143.9893  152.2796 LP  0  0  0  0  0  0  0  0  0  0  0  0  # atno 17342 bound_to 10162
  139.9516  144.6617  150.8166 LP  0  0  0  0  0  0  0  0  0  0  0  0  # atno 17343 bound_to 10162
  157.4403  131.0860  151.0950 LP  0  0  0  0  0  0  0  0  0  0  0  0  # atno 17370 bound_to 10713
  157.1496  130.6178  149.5578 LP  0  0  0  0  0  0  0  0  0  0  0  0  # atno 17371 bound_to 10713
  141.1965  133.8081  157.0670 LP  0  0  0  0  0  0  0  0  0  0  0  0  # atno 17394 bound_to 11000
  140.0577  134.9771  157.1250 LP  0  0  0  0  0  0  0  0  0  0  0  0  # atno 17395 bound_to 11000

$$$$
