AV-unprocessed.smi:2695|AV-procd|sdf|10412|dock8
  -GOLD-   2272014453D 1   1.00000     0.00000
 Structure written by MMmdl.
 42 43  0  0  0  0  0  0  0  0  1 V2000
  149.6829  139.7540  157.8294 C   0  0  0  0  0  0  0  0  0  0  0  0
  150.4390  139.0823  156.6902 C   0  0  0  0  0  0  0  0  0  0  0  0
  151.5706  139.6544  156.2177 C   0  0  0  0  0  0  0  0  0  0  0  0
  152.3096  139.0530  155.0943 C   0  0  0  0  0  0  0  0  0  0  0  0
  153.3566  139.5362  154.6683 O   0  0  0  0  0  0  0  0  0  0  0  0
  151.7149  137.8423  154.5112 C   0  0  0  0  0  0  0  0  0  0  0  0
  150.5865  137.3420  155.0504 C   0  0  0  0  0  0  0  0  0  0  0  0
  149.9952  136.2502  154.5413 O   0  0  0  0  0  0  0  0  0  0  0  0
  149.9092  137.8837  156.1612 N   0  0  0  0  0  0  0  0  0  0  0  0
  148.7194  137.2303  156.7367 C   0  0  0  0  0  0  0  0  0  0  0  0
  149.0555  136.2122  157.8358 C   0  0  0  0  0  0  0  0  0  0  0  0
  150.2192  136.0265  158.1942 O   0  0  0  0  0  0  0  0  0  0  0  0
  148.0091  135.5529  158.3557 N   0  0  0  0  0  0  0  0  0  0  0  0
  148.0671  134.5409  159.4120 C   0  0  1  0  0  0  0  0  0  0  0  0
  147.3246  135.0723  160.6642 C   0  0  0  0  0  0  0  0  0  0  0  0
  147.6940  136.5107  161.0502 C   0  0  0  0  0  0  0  0  0  0  0  0
  147.2013  136.6614  162.4892 C   0  0  0  0  0  0  0  0  0  0  0  0
  147.3147  135.2652  163.1140 C   0  0  0  0  0  0  0  0  0  0  0  0
  147.5952  134.2927  161.9595 C   0  0  0  0  0  0  0  0  0  0  0  0
  147.5031  133.2079  158.8670 C   0  0  0  0  0  0  0  0  0  0  0  0
  148.1731  132.8440  157.7727 F   0  0  0  0  0  0  0  0  0  0  0  0
  147.6328  132.2317  159.7646 F   0  0  0  0  0  0  0  0  0  0  0  0
  146.2134  133.3375  158.5534 F   0  0  0  0  0  0  0  0  0  0  0  0
  150.0074  140.7874  157.9553 H   0  0  0  0  0  0  0  0  0  0  0  0
  149.8674  139.2323  158.7687 H   0  0  0  0  0  0  0  0  0  0  0  0
  148.6094  139.7828  157.6444 H   0  0  0  0  0  0  0  0  0  0  0  0
  151.9515  140.5717  156.6426 H   0  0  0  0  0  0  0  0  0  0  0  0
  152.1908  137.3842  153.6562 H   0  0  0  0  0  0  0  0  0  0  0  0
  148.0337  137.9753  157.1425 H   0  0  0  0  0  0  0  0  0  0  0  0
  148.1286  136.7331  155.9685 H   0  0  0  0  0  0  0  0  0  0  0  0
  147.0922  135.7674  157.9915 H   0  0  0  0  0  0  0  0  0  0  0  0
  149.1073  134.3702  159.6948 H   0  0  0  0  0  0  0  0  0  0  0  0
  146.2499  135.0478  160.4754 H   0  0  0  0  0  0  0  0  0  0  0  0
  148.7770  136.6390  161.0187 H   0  0  0  0  0  0  0  0  0  0  0  0
  147.2533  137.2546  160.3857 H   0  0  0  0  0  0  0  0  0  0  0  0
  147.7664  137.4126  163.0417 H   0  0  0  0  0  0  0  0  0  0  0  0
  146.1565  136.9746  162.4855 H   0  0  0  0  0  0  0  0  0  0  0  0
  148.1196  135.2265  163.8489 H   0  0  0  0  0  0  0  0  0  0  0  0
  146.3904  135.0053  163.6309 H   0  0  0  0  0  0  0  0  0  0  0  0
  146.9857  133.3917  162.0333 H   0  0  0  0  0  0  0  0  0  0  0  0
  148.6411  133.9847  161.9976 H   0  0  0  0  0  0  0  0  0  0  0  0
  149.8425  136.4116  153.6226 H   0  0  0  0  0  0  0  0  0  0  0  0
  1  2  1  0  0  0  0
  1 24  1  0  0  0  0
  1 25  1  0  0  0  0
  1 26  1  0  0  0  0
  2  9  1  0  0  0  0
  2  3  2  0  0  0  0
  3  4  1  0  0  0  0
  3 27  1  0  0  0  0
  4  5  2  0  0  0  0
  4  6  1  0  0  0  0
  6  7  2  0  0  0  0
  6 28  1  0  0  0  0
  7  8  1  0  0  0  0
  7  9  1  0  0  0  0
  8 42  1  0  0  0  0
  9 10  1  0  0  0  0
 10 11  1  0  0  0  0
 10 29  1  0  0  0  0
 10 30  1  0  0  0  0
 11 12  2  0  0  0  0
 11 13  1  0  0  0  0
 13 14  1  0  0  0  0
 13 31  1  0  0  0  0
 14 15  1  0  0  0  0
 14 20  1  0  0  0  0
 14 32  1  0  0  0  0
 15 19  1  0  0  0  0
 15 16  1  0  0  0  0
 15 33  1  0  0  0  0
 16 17  1  0  0  0  0
 16 34  1  0  0  0  0
 16 35  1  0  0  0  0
 17 18  1  0  0  0  0
 17 36  1  0  0  0  0
 17 37  1  0  0  0  0
 18 19  1  0  0  0  0
 18 38  1  0  0  0  0
 18 39  1  0  0  0  0
 19 40  1  0  0  0  0
 19 41  1  0  0  0  0
 20 21  1  0  0  0  0
 20 22  1  0  0  0  0
 20 23  1  0  0  0  0
M  END
> <s_m_source_file>
AV-unprocessed.smi

> <i_m_source_file_index>
2695

> <i_lp_mmshare_version>
43012

> <i_f3d_flags>
0

> <s_epik_input>
W0NIM11jMVtjSF1jKFtPSF0pW2NIXWMoPU8pbjFbQ0gyXUMoPU8pW05IXVtDQEBIXShDKEYpKEYpRilbQ0hdMltDSDJdW0NIMl1bQ0gyXVtDSDJdMg==

> <s_epik_cmdline>
J2VwaWtfcHl0aG9uJywgJy1waCcsICc3LjAnLCAnLXRuJywgJzgnLCAnLW1hJywgJzIwMCcsICctbWV0YWxfYmluZGluZycsICctaW1hZScsICc8aW5maWxlLm1hZT4nLCAnLW9tYWUnLCAnPG91dGZpbGUubWFlPic=

> <r_epik_Ionization_Penalty>
1.35977e-07

> <r_epik_Ionization_Penalty_Charging>
0

> <r_epik_Ionization_Penalty_Neutral>
1.35977e-07

> <r_epik_State_Penalty>
2.53185

> <r_epik_Charging_Adjusted_Penalty>
2.53185

> <i_epik_Tot_Q>
0

> <i_epik_Tot_abs_Q>
0

> <r_epik_Metal_State_Penalty>
2.53184

> <b_epik_Metal_Only>
0

> <s_lp_Force_Field>
OPLS_2005

> <r_lp_Energy>
25.7414

> <b_lp_Chiralities_Consistent>
1

> <s_lp_Variant>
AV-unprocessed.smi:2695-6

> <Gold.Version>
5.8.1

> <Gold.Id.Protein>
6NUR|6NUR_protein|mol2

> <Gold.PLP.Fitness>
43.7205

> <Gold.PLP.PLP>
-35.8602

> <Gold.PLP.part.hbond>
-4.2054

> <Gold.PLP.part.metal>
0.0000

> <Gold.PLP.part.buried>
-4.0673

> <Gold.PLP.part.nonpolar>
-28.1676

> <Gold.PLP.part.repulsive>
0.0755

> <Gold.PLP.ligand.clash>
0.0000

> <Gold.PLP.ligand.torsion>
0.5757

> <Gold.PLP.Chemscore.Hbond>
2.8960

> <Gold.PLP.Chemscore.CHOScore>
0.0000

> <Gold.PLP.Chemscore.Metal>
0.0000

> <Gold.Chemscore.Hbonds>
donor molecule, donor type, donor heavy atom, donor atom, acceptor molecule, acceptor atom, score
      L1  H     8    42       P1  7948  1.00
      P1  H  6896  6907       L1    12  0.90
      P1  H  7997  8008       L1     5  1.00

> <Gold.PLP.Chemscore.Internal.Correction>
0.3236

> <Gold.Rescore>
     Score         DG    S(hbond)    S(metal)    S(lipo)     H(rot)  DE(clash)    DE(int)     intcor
     16.12     -16.93       2.78        0.00      72.05       2.45       0.12       0.69       ----

> <Gold.Chemscore.Fitness>
16.1215

> <Gold.Chemscore.DG>
-16.9321

> <Gold.Chemscore.ZeroCoef>
-5.4800

> <Gold.Chemscore.Hbond>
2.7835

> <Gold.Chemscore.Metal>
0.0000

> <Gold.Chemscore.Lipo>
72.0531

> <Gold.Chemscore.Internal_Hbond>
0.0000

> <Gold.Chemscore.DEClash>
0.1190

> <Gold.Chemscore.DEInternal>
0.6915

> <Gold.Chemscore.Rot>
2.4512

> <Gold.Chemscore.Internal.Correction>
   9.000000E+99

> <Gold.Chemscore.Hbonds>
donor molecule, donor type, donor heavy atom, donor atom, acceptor molecule, acceptor atom, score
      L1  H     8    42       P1  7948  0.25
      P1  H  6896  6907       L1    12  0.86
      P1  H  7997  8008       L1     5  0.80

> <Gold.Chemscore.Hbond.Weighted>
-9.2970

> <Gold.Chemscore.Metal.Weighted>
-0.0000

> <Gold.Chemscore.Lipo.Weighted>
-8.4302

> <Gold.Chemscore.Internal_Hbond.Weighted>
0.0000

> <Gold.Chemscore.DEClash.Weighted>
0.1190

> <Gold.Chemscore.DEInternal.Weighted>
0.6915

> <Gold.Chemscore.Rot.Weighted>
6.2752

> <Gold.Chemscore.Internal.Correction.Weighted>
   9.000000E+99

> <Gold.Protein.RotatedTorsions>
[ 6907 6896 6895 6894 ] final  -53.87 input  -60.11 | X-H torsion
[ 7974 7965 7964 7962 ] final   84.40 input  175.53 | X-H torsion
[ 8008 7997 7996 7995 ] final  -24.38 input   59.86 | X-H torsion
[ 10167 10162 10161 10158 ] final  -70.61 input  -65.29 | X-H torsion
[ 10718 10713 10712 10709 ] final  -36.49 input   66.30 | X-H torsion
[ 10763 10752 10751 10750 ] final   -5.93 input  -60.55 | X-H torsion
[ 11005 11000 10999 10996 ] final   26.89 input  -57.11 | X-H torsion

> <Gold.Protein.ActiveResidues>
 VAL166  LYS551  ARG553  GLY616  TRP617  ASP618  TYR619  PRO620  LYS621  CYS622 
 ASP623  PHE694  ASN695  SER759  ASP760  ASP761  ALA762  ILE779  LEU786  VAL792 
 PHE793  MET794  SER795  GLU796  ALA797  LYS798  CYS799  TRP800  GLU811  SER814 

> <Gold.Protein.RotatedAtoms>
  150.8388  134.7672  159.6915 H   0  0  0  0  0  0  0  0  0  0  0  0  # atno 6907 bound_to 6896
  152.4480  134.5451  159.9860 H   0  0  0  0  0  0  0  0  0  0  0  0  # atno 6908 bound_to 6896
  151.5595  133.3367  159.3004 H   0  0  0  0  0  0  0  0  0  0  0  0  # atno 6909 bound_to 6896
  145.5992  139.2350  143.2255 H   0  0  0  0  0  0  0  0  0  0  0  0  # atno 7974 bound_to 7965
  154.4532  140.1955  156.0456 H   0  0  0  0  0  0  0  0  0  0  0  0  # atno 8008 bound_to 7997
  156.0692  140.3286  155.7528 H   0  0  0  0  0  0  0  0  0  0  0  0  # atno 8009 bound_to 7997
  155.5290  140.0576  157.2883 H   0  0  0  0  0  0  0  0  0  0  0  0  # atno 8010 bound_to 7997
  140.5339  143.2319  151.7212 H   0  0  0  0  0  0  0  0  0  0  0  0  # atno 10167 bound_to 10162
  156.3262  130.4272  149.7914 H   0  0  0  0  0  0  0  0  0  0  0  0  # atno 10718 bound_to 10713
  153.4053  135.7006  153.6397 H   0  0  0  0  0  0  0  0  0  0  0  0  # atno 10763 bound_to 10752
  153.4914  135.3672  155.2494 H   0  0  0  0  0  0  0  0  0  0  0  0  # atno 10764 bound_to 10752
  154.8713  135.4090  154.3395 H   0  0  0  0  0  0  0  0  0  0  0  0  # atno 10765 bound_to 10752
  140.3321  134.2426  155.7701 H   0  0  0  0  0  0  0  0  0  0  0  0  # atno 11005 bound_to 11000
  146.1589  140.6817  142.9287 LP  0  0  0  0  0  0  0  0  0  0  0  0  # atno 17320 bound_to 7965
  144.7317  140.4691  143.6933 LP  0  0  0  0  0  0  0  0  0  0  0  0  # atno 17321 bound_to 7965
  139.4964  144.4072  152.0119 LP  0  0  0  0  0  0  0  0  0  0  0  0  # atno 17342 bound_to 10162
  140.3176  144.3465  150.6017 LP  0  0  0  0  0  0  0  0  0  0  0  0  # atno 17343 bound_to 10162
  156.5204  130.8212  151.3201 LP  0  0  0  0  0  0  0  0  0  0  0  0  # atno 17370 bound_to 10713
  157.7421  130.9885  150.2497 LP  0  0  0  0  0  0  0  0  0  0  0  0  # atno 17371 bound_to 10713
  141.2060  133.7843  157.0198 LP  0  0  0  0  0  0  0  0  0  0  0  0  # atno 17394 bound_to 11000
  140.0852  134.9625  157.1688 LP  0  0  0  0  0  0  0  0  0  0  0  0  # atno 17395 bound_to 11000

$$$$
