AV-unprocessed.smi:2252|AV-procd|sdf|9113|dock6
  -GOLD-   2272012313D 1   1.00000     0.00000
 Structure written by MMmdl.
 44 46  0  0  0  0  0  0  0  0  1 V2000
  153.0997  141.3445  159.4145 C   0  0  0  0  0  0  0  0  0  0  0  0
  152.7925  142.3092  160.4531 N   0  0  0  0  0  0  0  0  0  0  0  0
  153.1576  142.2136  161.7895 C   0  0  0  0  0  0  0  0  0  0  0  0
  152.6730  143.3387  162.4116 C   0  0  0  0  0  0  0  0  0  0  0  0
  152.0099  144.1315  161.4808 N   0  0  0  0  0  0  0  0  0  0  0  0
  152.1072  143.4631  160.3355 C   0  0  0  0  0  0  0  0  0  0  0  0
  151.5459  143.9521  159.0370 C   0  0  0  0  0  0  0  0  0  0  0  0
  150.1840  143.3179  158.7096 C   0  0  0  0  0  0  0  0  0  0  0  0
  150.1166  142.8887  157.3182 N   0  0  0  0  0  0  0  0  0  0  0  0
  149.7383  141.6671  156.9101 C   0  0  0  0  0  0  0  0  0  0  0  0
  149.4248  140.7643  157.6872 O   0  0  0  0  0  0  0  0  0  0  0  0
  149.7186  141.4216  155.3908 C   0  0  2  0  0  0  0  0  0  0  0  0
  148.2772  141.0965  154.9416 C   0  0  0  0  0  0  0  0  0  0  0  0
  147.9369  140.9324  153.4750 C   0  0  0  0  0  0  0  0  0  0  0  0
  147.4367  142.1362  154.2264 C   0  0  0  0  0  0  0  0  0  0  0  0
  150.6585  140.3536  154.9691 N   0  0  0  0  0  0  0  0  0  0  0  0
  150.0956  139.0041  154.9573 C   0  0  0  0  0  0  0  0  0  0  0  0
  151.3200  138.0926  154.8561 C   0  0  0  0  0  0  0  0  0  0  0  0
  152.4737  138.9267  155.4047 C   0  0  0  0  0  0  0  0  0  0  0  0
  151.8274  140.2425  155.8362 C   0  0  0  0  0  0  0  0  0  0  0  0
  153.8032  140.6006  159.7891 H   0  0  0  0  0  0  0  0  0  0  0  0
  153.5453  141.8488  158.5566 H   0  0  0  0  0  0  0  0  0  0  0  0
  152.1862  140.8400  159.0995 H   0  0  0  0  0  0  0  0  0  0  0  0
  153.7196  141.3766  162.1770 H   0  0  0  0  0  0  0  0  0  0  0  0
  152.7495  143.6365  163.4468 H   0  0  0  0  0  0  0  0  0  0  0  0
  151.4684  145.0395  159.0645 H   0  0  0  0  0  0  0  0  0  0  0  0
  152.2592  143.7218  158.2445 H   0  0  0  0  0  0  0  0  0  0  0  0
  150.0171  142.4473  159.3446 H   0  0  0  0  0  0  0  0  0  0  0  0
  149.3730  144.0168  158.9222 H   0  0  0  0  0  0  0  0  0  0  0  0
  150.3645  143.5701  156.6153 H   0  0  0  0  0  0  0  0  0  0  0  0
  150.0251  142.3536  154.9110 H   0  0  0  0  0  0  0  0  0  0  0  0
  147.7295  140.4648  155.6394 H   0  0  0  0  0  0  0  0  0  0  0  0
  148.7317  141.0891  152.7485 H   0  0  0  0  0  0  0  0  0  0  0  0
  147.2122  140.1643  153.2131 H   0  0  0  0  0  0  0  0  0  0  0  0
  146.3767  142.1753  154.4688 H   0  0  0  0  0  0  0  0  0  0  0  0
  147.8968  143.0949  153.9944 H   0  0  0  0  0  0  0  0  0  0  0  0
  149.5641  138.8123  155.8914 H   0  0  0  0  0  0  0  0  0  0  0  0
  149.4020  138.8449  154.1309 H   0  0  0  0  0  0  0  0  0  0  0  0
  151.1762  137.1691  155.4178 H   0  0  0  0  0  0  0  0  0  0  0  0
  151.5134  137.8228  153.8171 H   0  0  0  0  0  0  0  0  0  0  0  0
  152.9840  138.4362  156.2342 H   0  0  0  0  0  0  0  0  0  0  0  0
  153.2103  139.1056  154.6202 H   0  0  0  0  0  0  0  0  0  0  0  0
  152.5083  141.0874  155.7279 H   0  0  0  0  0  0  0  0  0  0  0  0
  151.5200  140.1831  156.8821 H   0  0  0  0  0  0  0  0  0  0  0  0
  1  2  1  0  0  0  0
  1 21  1  0  0  0  0
  1 22  1  0  0  0  0
  1 23  1  0  0  0  0
  2  6  1  0  0  0  0
  2  3  1  0  0  0  0
  3  4  2  0  0  0  0
  3 24  1  0  0  0  0
  4  5  1  0  0  0  0
  4 25  1  0  0  0  0
  5  6  2  0  0  0  0
  6  7  1  0  0  0  0
  7  8  1  0  0  0  0
  7 26  1  0  0  0  0
  7 27  1  0  0  0  0
  8  9  1  0  0  0  0
  8 28  1  0  0  0  0
  8 29  1  0  0  0  0
  9 10  1  0  0  0  0
  9 30  1  0  0  0  0
 10 11  2  0  0  0  0
 10 12  1  0  0  0  0
 12 13  1  0  0  0  0
 12 16  1  0  0  0  0
 12 31  1  0  0  0  0
 13 15  1  0  0  0  0
 13 14  1  0  0  0  0
 13 32  1  0  0  0  0
 14 15  1  0  0  0  0
 14 33  1  0  0  0  0
 14 34  1  0  0  0  0
 15 35  1  0  0  0  0
 15 36  1  0  0  0  0
 16 20  1  0  0  0  0
 16 17  1  0  0  0  0
 17 18  1  0  0  0  0
 17 37  1  0  0  0  0
 17 38  1  0  0  0  0
 18 19  1  0  0  0  0
 18 39  1  0  0  0  0
 18 40  1  0  0  0  0
 19 20  1  0  0  0  0
 19 41  1  0  0  0  0
 19 42  1  0  0  0  0
 20 43  1  0  0  0  0
 20 44  1  0  0  0  0
M  END
> <s_m_source_file>
AV-unprocessed.smi

> <i_m_source_file_index>
2252

> <i_lp_mmshare_version>
43012

> <i_f3d_flags>
0

> <s_epik_input>
W0NIM11uMVtjSF1bY0hdbmMxW0NIMl1bQ0gyXVtOSF1DKD1PKVtDQEhdKFtDSF0yW0NIMl1bQ0gyXTIpTjNbQ0gyXVtDSDJdW0NIMl1bQ0gyXTM=

> <s_epik_cmdline>
J2VwaWtfcHl0aG9uJywgJy1waCcsICc3LjAnLCAnLXRuJywgJzgnLCAnLW1hJywgJzIwMCcsICctbWV0YWxfYmluZGluZycsICctaW1hZScsICc8aW5maWxlLm1hZT4nLCAnLW9tYWUnLCAnPG91dGZpbGUubWFlPic=

> <r_epik_Ionization_Penalty>
3.7689

> <r_epik_Ionization_Penalty_Charging>
1.29411

> <r_epik_Ionization_Penalty_Neutral>
2.4748

> <r_epik_State_Penalty>
3.85943

> <r_epik_Charging_Adjusted_Penalty>
5.15353

> <i_epik_Tot_Q>
0

> <i_epik_Tot_abs_Q>
0

> <r_epik_Metal_State_Penalty>
2.88358

> <b_epik_Metal_Only>
1

> <s_lp_Force_Field>
OPLS_2005

> <r_lp_Energy>
30.6984

> <b_lp_Chiralities_Consistent>
1

> <s_lp_Variant>
AV-unprocessed.smi:2252-11

> <Gold.Version>
5.8.1

> <Gold.Id.Protein>
6NUR|6NUR_protein|mol2

> <Gold.PLP.Fitness>
50.1554

> <Gold.PLP.PLP>
-50.0479

> <Gold.PLP.part.hbond>
-2.0000

> <Gold.PLP.part.metal>
0.0000

> <Gold.PLP.part.buried>
-5.1800

> <Gold.PLP.part.nonpolar>
-43.6152

> <Gold.PLP.part.repulsive>
0.2640

> <Gold.PLP.ligand.clash>
0.1013

> <Gold.PLP.ligand.torsion>
2.0356

> <Gold.PLP.Chemscore.Hbond>
1.0222

> <Gold.PLP.Chemscore.CHOScore>
0.0000

> <Gold.PLP.Chemscore.Metal>
0.0000

> <Gold.Chemscore.Hbonds>
donor molecule, donor type, donor heavy atom, donor atom, acceptor molecule, acceptor atom, score
      L1  H     9    30       P1  8028  0.37
      P1  H  7989  7998       L1    16  0.70

> <Gold.PLP.Chemscore.Internal.Correction>
1.2132

> <Gold.Rescore>
     Score         DG    S(hbond)    S(metal)    S(lipo)     H(rot)  DE(clash)    DE(int)     intcor
     13.49     -15.27       0.76        0.00     102.80       1.86       0.08       1.70       ----

> <Gold.Chemscore.Fitness>
13.4912

> <Gold.Chemscore.DG>
-15.2715

> <Gold.Chemscore.ZeroCoef>
-5.4800

> <Gold.Chemscore.Hbond>
0.7575

> <Gold.Chemscore.Metal>
0.0000

> <Gold.Chemscore.Lipo>
102.8023

> <Gold.Chemscore.Internal_Hbond>
0.0000

> <Gold.Chemscore.DEClash>
0.0765

> <Gold.Chemscore.DEInternal>
1.7038

> <Gold.Chemscore.Rot>
1.8619

> <Gold.Chemscore.Internal.Correction>
   9.000000E+99

> <Gold.Chemscore.Hbonds>
donor molecule, donor type, donor heavy atom, donor atom, acceptor molecule, acceptor atom, score
      L1  H     9    30       P1  8028  0.35
      P1  H  7989  7998       L1    16  0.05

> <Gold.Chemscore.Hbond.Weighted>
-2.5301

> <Gold.Chemscore.Metal.Weighted>
-0.0000

> <Gold.Chemscore.Lipo.Weighted>
-12.0279

> <Gold.Chemscore.Internal_Hbond.Weighted>
0.0000

> <Gold.Chemscore.DEClash.Weighted>
0.0765

> <Gold.Chemscore.DEInternal.Weighted>
1.7038

> <Gold.Chemscore.Rot.Weighted>
4.7665

> <Gold.Chemscore.Internal.Correction.Weighted>
   9.000000E+99

> <Gold.Protein.RotatedTorsions>
[ 6907 6896 6895 6894 ] final  128.73 input  -60.11 | X-H torsion
[ 7974 7965 7964 7962 ] final  -99.96 input  175.53 | X-H torsion
[ 8008 7997 7996 7995 ] final   34.41 input   59.86 | X-H torsion
[ 10167 10162 10161 10158 ] final   44.20 input  -65.29 | X-H torsion
[ 10718 10713 10712 10709 ] final  -23.71 input   66.30 | X-H torsion
[ 10763 10752 10751 10750 ] final   95.10 input  -60.55 | X-H torsion
[ 11005 11000 10999 10996 ] final  -38.77 input  -57.11 | X-H torsion

> <Gold.Protein.ActiveResidues>
 VAL166  LYS551  ARG553  GLY616  TRP617  ASP618  TYR619  PRO620  LYS621  CYS622 
 ASP623  PHE694  ASN695  SER759  ASP760  ASP761  ALA762  ILE779  LEU786  VAL792 
 PHE793  MET794  SER795  GLU796  ALA797  LYS798  CYS799  TRP800  GLU811  SER814 

> <Gold.Protein.RotatedAtoms>
  152.3692  133.6396  159.6073 H   0  0  0  0  0  0  0  0  0  0  0  0  # atno 6907 bound_to 6896
  150.7656  133.9298  159.3432 H   0  0  0  0  0  0  0  0  0  0  0  0  # atno 6908 bound_to 6896
  151.7124  135.0911  160.0321 H   0  0  0  0  0  0  0  0  0  0  0  0  # atno 6909 bound_to 6896
  145.3008  140.9377  143.2825 H   0  0  0  0  0  0  0  0  0  0  0  0  # atno 7974 bound_to 7965
  155.1544  140.3278  155.4424 H   0  0  0  0  0  0  0  0  0  0  0  0  # atno 8008 bound_to 7997
  156.2563  140.1971  156.6605 H   0  0  0  0  0  0  0  0  0  0  0  0  # atno 8009 bound_to 7997
  154.6450  140.0565  156.9876 H   0  0  0  0  0  0  0  0  0  0  0  0  # atno 8010 bound_to 7997
  140.3367  144.2521  150.6161 H   0  0  0  0  0  0  0  0  0  0  0  0  # atno 10167 bound_to 10162
  156.4874  130.4558  149.6776 H   0  0  0  0  0  0  0  0  0  0  0  0  # atno 10718 bound_to 10713
  153.2493  135.4266  155.0780 H   0  0  0  0  0  0  0  0  0  0  0  0  # atno 10763 bound_to 10752
  154.8374  135.3422  154.6536 H   0  0  0  0  0  0  0  0  0  0  0  0  # atno 10764 bound_to 10752
  153.6958  135.7031  153.5133 H   0  0  0  0  0  0  0  0  0  0  0  0  # atno 10765 bound_to 10752
  141.0052  133.6935  156.2097 H   0  0  0  0  0  0  0  0  0  0  0  0  # atno 11005 bound_to 11000
  144.9095  139.4546  143.6594 LP  0  0  0  0  0  0  0  0  0  0  0  0  # atno 17320 bound_to 7965
  146.3153  139.7895  142.8988 LP  0  0  0  0  0  0  0  0  0  0  0  0  # atno 17321 bound_to 7965
  140.5347  143.2236  151.8182 LP  0  0  0  0  0  0  0  0  0  0  0  0  # atno 17342 bound_to 10162
  139.4847  144.4676  151.9464 LP  0  0  0  0  0  0  0  0  0  0  0  0  # atno 17343 bound_to 10162
  156.3461  130.7407  151.2360 LP  0  0  0  0  0  0  0  0  0  0  0  0  # atno 17370 bound_to 10713
  157.7477  131.0390  150.4530 LP  0  0  0  0  0  0  0  0  0  0  0  0  # atno 17371 bound_to 10713
  140.6824  134.4753  157.5589 LP  0  0  0  0  0  0  0  0  0  0  0  0  # atno 17394 bound_to 11000
  139.9060  134.8449  156.1706 LP  0  0  0  0  0  0  0  0  0  0  0  0  # atno 17395 bound_to 11000

$$$$
