AV-unprocessed.smi:2768|AV-procd|sdf|10654|dock1
  -GOLD-   2272015103D 1   1.00000     0.00000
 Structure written by MMmdl.
 34 35  0  0  0  0  0  0  0  0  2 V2000
  148.9820  136.1614  159.0976 O   0  0  0  0  0  0  0  0  0  0  0  0
  148.1542  137.0255  159.4098 C   0  0  0  0  0  0  0  0  0  0  0  0
  147.7193  137.4031  160.6470 N   0  5  0  0  0  0  0  0  0  0  0  0
  147.0568  136.5056  161.5977 C   0  0  2  0  0  0  0  0  0  0  0  0
  146.9767  135.0732  161.0129 C   0  0  0  0  0  0  0  0  0  0  0  0
  146.1977  134.0859  161.9184 C   0  0  0  0  0  0  0  0  0  0  0  0
  144.7711  134.5758  162.2435 C   0  0  0  0  0  0  0  0  0  0  0  0
  144.8290  136.0030  162.8336 C   0  0  0  0  0  0  0  0  0  0  0  0
  145.6237  137.0040  161.9510 C   0  0  2  0  0  0  0  0  0  0  0  0
  144.8779  137.2669  160.7759 O   0  0  0  0  0  0  0  0  0  0  0  0
  147.4806  137.8210  158.2674 C   0  0  0  0  0  0  0  0  0  0  0  0
  147.6804  137.1501  157.1311 F   0  0  0  0  0  0  0  0  0  0  0  0
  146.1577  137.9187  158.4475 F   0  0  0  0  0  0  0  0  0  0  0  0
  148.0791  139.2234  158.1653 C   0  0  0  0  0  0  0  0  0  0  0  0
  149.4680  139.4142  157.9783 C   0  0  0  0  0  0  0  0  0  0  0  0
  149.9652  140.7287  157.8947 C   0  0  0  0  0  0  0  0  0  0  0  0
  149.0635  141.8040  158.0009 C   0  0  0  0  0  0  0  0  0  0  0  0
  147.6979  141.5147  158.1889 C   0  0  0  0  0  0  0  0  0  0  0  0
  147.2108  140.2585  158.2691 N   0  0  0  0  0  0  0  0  0  0  0  0
  147.6199  136.4359  162.5300 H   0  0  0  0  0  0  0  0  0  0  0  0
  145.7035  137.9504  162.4875 H   0  0  0  0  0  0  0  0  0  0  0  0
  146.4980  135.1019  160.0329 H   0  0  0  0  0  0  0  0  0  0  0  0
  147.9833  134.6886  160.8447 H   0  0  0  0  0  0  0  0  0  0  0  0
  146.1424  133.1135  161.4284 H   0  0  0  0  0  0  0  0  0  0  0  0
  146.7450  133.9182  162.8483 H   0  0  0  0  0  0  0  0  0  0  0  0
  144.1678  134.5768  161.3348 H   0  0  0  0  0  0  0  0  0  0  0  0
  144.2847  133.8947  162.9418 H   0  0  0  0  0  0  0  0  0  0  0  0
  143.8157  136.3737  162.9927 H   0  0  0  0  0  0  0  0  0  0  0  0
  145.2806  135.9542  163.8267 H   0  0  0  0  0  0  0  0  0  0  0  0
  144.3510  136.5012  160.5990 H   0  0  0  0  0  0  0  0  0  0  0  0
  150.1428  138.5744  157.9055 H   0  0  0  0  0  0  0  0  0  0  0  0
  151.0202  140.9089  157.7519 H   0  0  0  0  0  0  0  0  0  0  0  0
  149.4100  142.8249  157.9417 H   0  0  0  0  0  0  0  0  0  0  0  0
  146.9771  142.3142  158.2759 H   0  0  0  0  0  0  0  0  0  0  0  0
  1  2  2  0  0  0  0
  2  3  1  0  0  0  0
  2 11  1  0  0  0  0
  3  4  1  0  0  0  0
  4 20  1  0  0  0  0
  4  9  1  0  0  0  0
  4  5  1  0  0  0  0
  5  6  1  0  0  0  0
  5 22  1  0  0  0  0
  5 23  1  0  0  0  0
  6  7  1  0  0  0  0
  6 24  1  0  0  0  0
  6 25  1  0  0  0  0
  7  8  1  0  0  0  0
  7 26  1  0  0  0  0
  7 27  1  0  0  0  0
  8  9  1  0  0  0  0
  8 28  1  0  0  0  0
  8 29  1  0  0  0  0
  9 21  1  0  0  0  0
  9 10  1  0  0  0  0
 10 30  1  0  0  0  0
 11 12  1  0  0  0  0
 11 13  1  0  0  0  0
 11 14  1  0  0  0  0
 14 19  1  0  0  0  0
 14 15  2  0  0  0  0
 15 16  1  0  0  0  0
 15 31  1  0  0  0  0
 16 17  2  0  0  0  0
 16 32  1  0  0  0  0
 17 18  1  0  0  0  0
 17 33  1  0  0  0  0
 18 19  2  0  0  0  0
 18 34  1  0  0  0  0
M  CHG  1   3  -1
M  END
> <s_m_source_file>
AV-unprocessed.smi

> <i_m_source_file_index>
2768

> <i_lp_mmshare_version>
43012

> <i_f3d_flags>
0

> <s_epik_input>
bjFbY0hdW2NIXVtjSF1bY0hdYzFDKEYpKEYpQyg9TylbTkhdW0NAQEhdMltDSDJdW0NIMl1bQ0gyXVtDSDJdW0NASF0yW09IXQ==

> <s_epik_cmdline>
J2VwaWtfcHl0aG9uJywgJy1waCcsICc3LjAnLCAnLXRuJywgJzgnLCAnLW1hJywgJzIwMCcsICctbWV0YWxfYmluZGluZycsICctaW1hZScsICc8aW5maWxlLm1hZT4nLCAnLW9tYWUnLCAnPG91dGZpbGUubWFlPic=

> <r_lp_tautomer_probability>
1

> <r_epik_Ionization_Penalty>
5.70553

> <r_epik_Ionization_Penalty_Charging>
5.70553

> <r_epik_Ionization_Penalty_Neutral>
5.5493e-06

> <r_epik_State_Penalty>
5.70549

> <r_epik_Charging_Adjusted_Penalty>
11.411

> <i_epik_Tot_Q>
-1

> <i_epik_Tot_abs_Q>
1

> <r_epik_Metal_State_Penalty>
1.6859

> <b_epik_Metal_Only>
1

> <s_lp_Force_Field>
OPLS_2005

> <r_lp_Energy>
28.0633

> <b_lp_Chiralities_Consistent>
1

> <s_lp_Variant>
AV-unprocessed.smi:2768-7

> <Gold.Version>
5.8.1

> <Gold.Id.Protein>
6NUR|6NUR_protein|mol2

> <Gold.PLP.Fitness>
34.6412

> <Gold.PLP.PLP>
-24.9909

> <Gold.PLP.part.hbond>
-3.5883

> <Gold.PLP.part.metal>
0.0000

> <Gold.PLP.part.buried>
-4.0003

> <Gold.PLP.part.nonpolar>
-17.5123

> <Gold.PLP.part.repulsive>
0.0000

> <Gold.PLP.ligand.clash>
0.1334

> <Gold.PLP.ligand.torsion>
1.1869

> <Gold.PLP.Chemscore.Hbond>
4.0400

> <Gold.PLP.Chemscore.CHOScore>
0.0000

> <Gold.PLP.Chemscore.Metal>
0.0000

> <Gold.Chemscore.Hbonds>
donor molecule, donor type, donor heavy atom, donor atom, acceptor molecule, acceptor atom, score
      P1  H  6896  6907       L1     1  0.26
      P1  H  6931  6943       L1     3  1.34
      P1  H  6934  6947       L1     3  1.76

> <Gold.PLP.Chemscore.Internal.Correction>
0.0376

> <Gold.Rescore>
     Score         DG    S(hbond)    S(metal)    S(lipo)     H(rot)  DE(clash)    DE(int)     intcor
     11.51     -12.71       1.99        0.00      47.70       1.95       0.05       1.15       ----

> <Gold.Chemscore.Fitness>
11.5125

> <Gold.Chemscore.DG>
-12.7128

> <Gold.Chemscore.ZeroCoef>
-5.4800

> <Gold.Chemscore.Hbond>
1.9893

> <Gold.Chemscore.Metal>
0.0000

> <Gold.Chemscore.Lipo>
47.7034

> <Gold.Chemscore.Internal_Hbond>
0.0000

> <Gold.Chemscore.DEClash>
0.0547

> <Gold.Chemscore.DEInternal>
1.1457

> <Gold.Chemscore.Rot>
1.9503

> <Gold.Chemscore.Internal.Correction>
   9.000000E+99

> <Gold.Chemscore.Hbonds>
donor molecule, donor type, donor heavy atom, donor atom, acceptor molecule, acceptor atom, score
      P1  H  6896  6907       L1     1  0.25
      P1  H  6931  6943       L1     3  0.14
      P1  H  6934  6947       L1     3  0.63

> <Gold.Chemscore.Hbond.Weighted>
-6.6443

> <Gold.Chemscore.Metal.Weighted>
-0.0000

> <Gold.Chemscore.Lipo.Weighted>
-5.5813

> <Gold.Chemscore.Internal_Hbond.Weighted>
0.0000

> <Gold.Chemscore.DEClash.Weighted>
0.0547

> <Gold.Chemscore.DEInternal.Weighted>
1.1457

> <Gold.Chemscore.Rot.Weighted>
4.9928

> <Gold.Chemscore.Internal.Correction.Weighted>
   9.000000E+99

> <Gold.Protein.RotatedTorsions>
[ 6907 6896 6895 6894 ] final  -52.63 input  -60.11 | X-H torsion
[ 7974 7965 7964 7962 ] final  -72.50 input  175.53 | X-H torsion
[ 8008 7997 7996 7995 ] final   49.35 input   59.86 | X-H torsion
[ 10167 10162 10161 10158 ] final -165.63 input  -65.29 | X-H torsion
[ 10718 10713 10712 10709 ] final   67.86 input   66.30 | X-H torsion
[ 10763 10752 10751 10750 ] final   39.00 input  -60.55 | X-H torsion
[ 11005 11000 10999 10996 ] final -131.21 input  -57.11 | X-H torsion

> <Gold.Protein.ActiveResidues>
 VAL166  LYS551  ARG553  GLY616  TRP617  ASP618  TYR619  PRO620  LYS621  CYS622 
 ASP623  PHE694  ASN695  SER759  ASP760  ASP761  ALA762  ILE779  LEU786  VAL792 
 PHE793  MET794  SER795  GLU796  ALA797  LYS798  CYS799  TRP800  GLU811  SER814 

> <Gold.Protein.RotatedAtoms>
  150.8500  134.7822  159.7000 H   0  0  0  0  0  0  0  0  0  0  0  0  # atno 6907 bound_to 6896
  152.4567  134.5272  159.9810 H   0  0  0  0  0  0  0  0  0  0  0  0  # atno 6908 bound_to 6896
  151.5394  133.3397  159.2968 H   0  0  0  0  0  0  0  0  0  0  0  0  # atno 6909 bound_to 6896
  145.6643  140.9242  143.0917 H   0  0  0  0  0  0  0  0  0  0  0  0  # atno 7974 bound_to 7965
  155.4008  140.3438  155.4257 H   0  0  0  0  0  0  0  0  0  0  0  0  # atno 8008 bound_to 7997
  156.1505  140.1569  156.8810 H   0  0  0  0  0  0  0  0  0  0  0  0  # atno 8009 bound_to 7997
  154.5048  140.0805  156.7853 H   0  0  0  0  0  0  0  0  0  0  0  0  # atno 8010 bound_to 7997
  139.6169  144.0702  152.1896 H   0  0  0  0  0  0  0  0  0  0  0  0  # atno 10167 bound_to 10162
  157.6255  130.9343  150.0299 H   0  0  0  0  0  0  0  0  0  0  0  0  # atno 10718 bound_to 10713
  152.9982  135.6233  154.2394 H   0  0  0  0  0  0  0  0  0  0  0  0  # atno 10763 bound_to 10752
  154.2135  135.2799  155.2952 H   0  0  0  0  0  0  0  0  0  0  0  0  # atno 10764 bound_to 10752
  154.5587  135.5711  153.7046 H   0  0  0  0  0  0  0  0  0  0  0  0  # atno 10765 bound_to 10752
  140.9279  134.1359  157.4260 H   0  0  0  0  0  0  0  0  0  0  0  0  # atno 11005 bound_to 11000
  144.7078  139.8490  143.7424 LP  0  0  0  0  0  0  0  0  0  0  0  0  # atno 17320 bound_to 7965
  146.1099  139.4102  143.0294 LP  0  0  0  0  0  0  0  0  0  0  0  0  # atno 17321 bound_to 7965
  140.0335  144.6063  150.7469 LP  0  0  0  0  0  0  0  0  0  0  0  0  # atno 17342 bound_to 10162
  140.7356  143.2743  151.3789 LP  0  0  0  0  0  0  0  0  0  0  0  0  # atno 17343 bound_to 10162
  156.1425  130.3642  149.9561 LP  0  0  0  0  0  0  0  0  0  0  0  0  # atno 17370 bound_to 10713
  156.7599  130.9147  151.3641 LP  0  0  0  0  0  0  0  0  0  0  0  0  # atno 17371 bound_to 10713
  139.8789  134.9994  156.5955 LP  0  0  0  0  0  0  0  0  0  0  0  0  # atno 17394 bound_to 11000
  140.7902  133.8588  155.8640 LP  0  0  0  0  0  0  0  0  0  0  0  0  # atno 17395 bound_to 11000

$$$$
