AV-unprocessed.smi:1648|AV-procd|sdf|6627|dock4
  -GOLD-   22720 7323D 1   1.00000     0.00000
 Structure written by MMmdl.
 42 42  0  0  0  0  0  0  0  0  2 V2000
  146.8336  133.1835  150.5633 C   0  0  0  0  0  0  0  0  0  0  0  0
  146.7472  133.2823  152.0875 C   0  0  0  0  0  0  0  0  0  0  0  0
  145.9996  132.5229  152.6988 O   0  0  0  0  0  0  0  0  0  0  0  0
  147.4886  134.2002  152.7316 N   0  0  0  0  0  0  0  0  0  0  0  0
  147.5413  134.4453  154.1751 C   0  0  2  0  0  0  0  0  0  0  0  0
  147.0392  135.8812  154.4121 C   0  0  0  0  0  0  0  0  0  0  0  0
  146.3996  136.1578  155.4280 O   0  0  0  0  0  0  0  0  0  0  0  0
  147.3521  136.7859  153.4708 N   0  0  0  0  0  0  0  0  0  0  0  0
  147.0235  138.2102  153.5153 C   0  0  2  0  0  0  0  0  0  0  0  0
  146.6027  138.6655  152.1117 C   0  0  0  0  0  0  0  0  0  0  0  0
  148.2178  139.0394  154.0389 C   0  0  0  0  0  0  0  0  0  0  0  0
  147.8847  140.4512  154.2636 N   0  0  0  0  0  0  0  0  0  0  0  0
  146.7051  141.0842  153.9646 C   0  0  0  0  0  0  0  0  0  0  0  0
  146.8475  142.3872  154.3665 C   0  0  0  0  0  0  0  0  0  0  0  0
  148.1104  142.4981  154.8831 N   0  3  0  0  0  0  0  0  0  0  0  0
  148.7433  141.3231  154.8091 C   0  0  0  0  0  0  0  0  0  0  0  0
  149.0151  134.3086  154.6578 C   0  0  0  0  0  0  0  0  0  0  0  0
  149.6272  132.9545  154.2487 C   0  0  0  0  0  0  0  0  0  0  0  0
  149.1657  134.4902  156.1827 C   0  0  0  0  0  0  0  0  0  0  0  0
  146.4187  134.0794  150.1008 H   0  0  0  0  0  0  0  0  0  0  0  0
  146.2668  132.3249  150.2016 H   0  0  0  0  0  0  0  0  0  0  0  0
  147.8647  133.0663  150.2313 H   0  0  0  0  0  0  0  0  0  0  0  0
  148.0354  134.8279  152.1598 H   0  0  0  0  0  0  0  0  0  0  0  0
  146.9211  133.7293  154.7173 H   0  0  0  0  0  0  0  0  0  0  0  0
  147.8703  136.4657  152.6653 H   0  0  0  0  0  0  0  0  0  0  0  0
  146.1673  138.3690  154.1735 H   0  0  0  0  0  0  0  0  0  0  0  0
  146.3161  139.7175  152.1101 H   0  0  0  0  0  0  0  0  0  0  0  0
  145.7472  138.0923  151.7527 H   0  0  0  0  0  0  0  0  0  0  0  0
  147.4131  138.5408  151.3925 H   0  0  0  0  0  0  0  0  0  0  0  0
  148.6056  138.6180  154.9681 H   0  0  0  0  0  0  0  0  0  0  0  0
  149.0359  139.0180  153.3180 H   0  0  0  0  0  0  0  0  0  0  0  0
  145.8701  140.5707  153.5106 H   0  0  0  0  0  0  0  0  0  0  0  0
  146.1626  143.2216  154.3253 H   0  0  0  0  0  0  0  0  0  0  0  0
  149.7463  141.1189  155.1381 H   0  0  0  0  0  0  0  0  0  0  0  0
  149.6145  135.0851  154.1791 H   0  0  0  0  0  0  0  0  0  0  0  0
  149.0600  132.1224  154.6670 H   0  0  0  0  0  0  0  0  0  0  0  0
  150.6548  132.8652  154.6026 H   0  0  0  0  0  0  0  0  0  0  0  0
  149.6535  132.8281  153.1663 H   0  0  0  0  0  0  0  0  0  0  0  0
  148.5568  133.7684  156.7283 H   0  0  0  0  0  0  0  0  0  0  0  0
  148.8734  135.4882  156.5100 H   0  0  0  0  0  0  0  0  0  0  0  0
  150.2015  134.3494  156.4931 H   0  0  0  0  0  0  0  0  0  0  0  0
  148.5102  143.3462  155.2655 H   0  0  0  0  0  0  0  0  0  0  0  0
  1  2  1  0  0  0  0
  1 20  1  0  0  0  0
  1 21  1  0  0  0  0
  1 22  1  0  0  0  0
  2  3  2  0  0  0  0
  2  4  1  0  0  0  0
  4  5  1  0  0  0  0
  4 23  1  0  0  0  0
  5  6  1  0  0  0  0
  5 17  1  0  0  0  0
  5 24  1  0  0  0  0
  6  7  2  0  0  0  0
  6  8  1  0  0  0  0
  8  9  1  0  0  0  0
  8 25  1  0  0  0  0
  9 10  1  0  0  0  0
  9 11  1  0  0  0  0
  9 26  1  0  0  0  0
 10 27  1  0  0  0  0
 10 28  1  0  0  0  0
 10 29  1  0  0  0  0
 11 12  1  0  0  0  0
 11 30  1  0  0  0  0
 11 31  1  0  0  0  0
 12 16  1  0  0  0  0
 12 13  1  0  0  0  0
 13 14  2  0  0  0  0
 13 32  1  0  0  0  0
 14 15  1  0  0  0  0
 14 33  1  0  0  0  0
 15 16  2  0  0  0  0
 15 42  1  0  0  0  0
 16 34  1  0  0  0  0
 17 18  1  0  0  0  0
 17 19  1  0  0  0  0
 17 35  1  0  0  0  0
 18 36  1  0  0  0  0
 18 37  1  0  0  0  0
 18 38  1  0  0  0  0
 19 39  1  0  0  0  0
 19 40  1  0  0  0  0
 19 41  1  0  0  0  0
M  CHG  1  15   1
M  END
> <s_m_source_file>
AV-unprocessed.smi

> <i_m_source_file_index>
1648

> <i_lp_mmshare_version>
43012

> <i_f3d_flags>
0

> <s_epik_input>
W0NIM11DKD1PKVtOSF1bQ0BASF0oW0NIXShbQ0gzXSlbQ0gzXSlDKD1PKVtOSF1bQ0BIXShbQ0gzXSlbQ0gyXW4xW2NIXVtjSF1uW2NIXTE=

> <s_epik_cmdline>
J2VwaWtfcHl0aG9uJywgJy1waCcsICc3LjAnLCAnLXRuJywgJzgnLCAnLW1hJywgJzIwMCcsICctbWV0YWxfYmluZGluZycsICctaW1hZScsICc8aW5maWxlLm1hZT4nLCAnLW9tYWUnLCAnPG91dGZpbGUubWFlPic=

> <r_lp_tautomer_probability>
1

> <r_epik_Ionization_Penalty>
0.251562

> <r_epik_Ionization_Penalty_Charging>
0

> <r_epik_Ionization_Penalty_Neutral>
0.251562

> <r_epik_State_Penalty>
0.242926

> <r_epik_Charging_Adjusted_Penalty>
0.242926

> <i_epik_Tot_Q>
1

> <i_epik_Tot_abs_Q>
1

> <r_epik_Metal_State_Penalty>
0.53388

> <b_epik_Metal_Only>
0

> <s_lp_Force_Field>
OPLS_2005

> <r_lp_Energy>
9.98337

> <b_lp_Chiralities_Consistent>
1

> <s_lp_Variant>
AV-unprocessed.smi:1648-1

> <Gold.Version>
5.8.1

> <Gold.Id.Protein>
6NUR|6NUR_protein|mol2

> <Gold.PLP.Fitness>
43.9479

> <Gold.PLP.PLP>
-31.4583

> <Gold.PLP.part.hbond>
-2.4234

> <Gold.PLP.part.metal>
0.0000

> <Gold.PLP.part.buried>
-3.5336

> <Gold.PLP.part.nonpolar>
-26.9426

> <Gold.PLP.part.repulsive>
1.1081

> <Gold.PLP.ligand.clash>
0.0000

> <Gold.PLP.ligand.torsion>
1.0912

> <Gold.PLP.Chemscore.Hbond>
3.8613

> <Gold.PLP.Chemscore.CHOScore>
1.0000

> <Gold.PLP.Chemscore.Metal>
0.0000

> <Gold.Chemscore.Hbonds>
donor molecule, donor type, donor heavy atom, donor atom, acceptor molecule, acceptor atom, score
      L1  H     4    23       P1  7948  1.00
      L1  H     8    25       P1  7948  0.59
      L1  H    15    42       P1  8028  1.62
      L1  C    13    32       P1 10175  1.00

> <Gold.PLP.Chemscore.Internal.Correction>
0.0883

> <Gold.Rescore>
     Score         DG    S(hbond)    S(metal)    S(lipo)     H(rot)  DE(clash)    DE(int)     intcor
     13.01     -14.13       2.65        0.00      55.41       2.61       0.03       1.09       ----

> <Gold.Chemscore.Fitness>
13.0129

> <Gold.Chemscore.DG>
-14.1281

> <Gold.Chemscore.ZeroCoef>
-5.4800

> <Gold.Chemscore.Hbond>
2.6516

> <Gold.Chemscore.Metal>
0.0000

> <Gold.Chemscore.Lipo>
55.4066

> <Gold.Chemscore.Internal_Hbond>
0.0000

> <Gold.Chemscore.DEClash>
0.0270

> <Gold.Chemscore.DEInternal>
1.0883

> <Gold.Chemscore.Rot>
2.6135

> <Gold.Chemscore.Internal.Correction>
   9.000000E+99

> <Gold.Chemscore.Hbonds>
donor molecule, donor type, donor heavy atom, donor atom, acceptor molecule, acceptor atom, score
      L1  H     4    23       P1  7948  0.44
      L1  H     8    25       P1  7948  0.58
      L1  H    15    42       P1  8028  0.80

> <Gold.Chemscore.Hbond.Weighted>
-8.8562

> <Gold.Chemscore.Metal.Weighted>
-0.0000

> <Gold.Chemscore.Lipo.Weighted>
-6.4826

> <Gold.Chemscore.Internal_Hbond.Weighted>
0.0000

> <Gold.Chemscore.DEClash.Weighted>
0.0270

> <Gold.Chemscore.DEInternal.Weighted>
1.0883

> <Gold.Chemscore.Rot.Weighted>
6.6906

> <Gold.Chemscore.Internal.Correction.Weighted>
   9.000000E+99

> <Gold.Protein.RotatedTorsions>
[ 6907 6896 6895 6894 ] final -179.07 input  -60.11 | X-H torsion
[ 7974 7965 7964 7962 ] final  -67.22 input  175.53 | X-H torsion
[ 8008 7997 7996 7995 ] final  -14.47 input   59.86 | X-H torsion
[ 10167 10162 10161 10158 ] final   25.15 input  -65.29 | X-H torsion
[ 10718 10713 10712 10709 ] final  123.99 input   66.30 | X-H torsion
[ 10763 10752 10751 10750 ] final  119.85 input  -60.55 | X-H torsion
[ 11005 11000 10999 10996 ] final   91.35 input  -57.11 | X-H torsion

> <Gold.Protein.ActiveResidues>
 VAL166  LYS551  ARG553  GLY616  TRP617  ASP618  TYR619  PRO620  LYS621  CYS622 
 ASP623  PHE694  ASN695  SER759  ASP760  ASP761  ALA762  ILE779  LEU786  VAL792 
 PHE793  MET794  SER795  GLU796  ALA797  LYS798  CYS799  TRP800  GLU811  SER814 

> <Gold.Protein.RotatedAtoms>
  151.6475  133.3322  159.3143 H   0  0  0  0  0  0  0  0  0  0  0  0  # atno 6907 bound_to 6896
  150.7977  134.7052  159.6582 H   0  0  0  0  0  0  0  0  0  0  0  0  # atno 6908 bound_to 6896
  152.4066  134.6201  160.0100 H   0  0  0  0  0  0  0  0  0  0  0  0  # atno 6909 bound_to 6896
  145.7319  140.8993  143.0575 H   0  0  0  0  0  0  0  0  0  0  0  0  # atno 7974 bound_to 7965
  154.5207  140.2222  155.8981 H   0  0  0  0  0  0  0  0  0  0  0  0  # atno 8008 bound_to 7997
  156.1659  140.3132  155.8853 H   0  0  0  0  0  0  0  0  0  0  0  0  # atno 8009 bound_to 7997
  155.3657  140.0463  157.3036 H   0  0  0  0  0  0  0  0  0  0  0  0  # atno 8010 bound_to 7997
  140.5129  144.0130  150.6381 H   0  0  0  0  0  0  0  0  0  0  0  0  # atno 10167 bound_to 10162
  157.5621  131.1089  150.8520 H   0  0  0  0  0  0  0  0  0  0  0  0  # atno 10718 bound_to 10713
  153.5893  135.3469  155.2905 H   0  0  0  0  0  0  0  0  0  0  0  0  # atno 10763 bound_to 10752
  154.8655  135.4201  154.2533 H   0  0  0  0  0  0  0  0  0  0  0  0  # atno 10764 bound_to 10752
  153.3337  135.7046  153.6996 H   0  0  0  0  0  0  0  0  0  0  0  0  # atno 10765 bound_to 10752
  139.8840  134.8668  156.3415 H   0  0  0  0  0  0  0  0  0  0  0  0  # atno 11005 bound_to 11000
  144.6891  139.9343  143.7473 LP  0  0  0  0  0  0  0  0  0  0  0  0  # atno 17320 bound_to 7965
  146.0529  139.3528  143.0628 LP  0  0  0  0  0  0  0  0  0  0  0  0  # atno 17321 bound_to 7965
  140.3457  143.2992  152.0540 LP  0  0  0  0  0  0  0  0  0  0  0  0  # atno 17342 bound_to 10162
  139.4901  144.6410  151.6877 LP  0  0  0  0  0  0  0  0  0  0  0  0  # atno 17343 bound_to 10162
  156.9015  130.5248  149.5282 LP  0  0  0  0  0  0  0  0  0  0  0  0  # atno 17370 bound_to 10713
  156.0672  130.5713  150.9313 LP  0  0  0  0  0  0  0  0  0  0  0  0  # atno 17371 bound_to 10713
  140.9655  133.7360  156.0461 LP  0  0  0  0  0  0  0  0  0  0  0  0  # atno 17394 bound_to 11000
  140.7936  134.3590  157.5458 LP  0  0  0  0  0  0  0  0  0  0  0  0  # atno 17395 bound_to 11000

$$$$
