AV-unprocessed.smi:2340|AV-procd|sdf|9345|dock3
  -GOLD-   2272012563D 1   1.00000     0.00000
 Structure written by MMmdl.
 40 41  0  0  0  0  0  0  0  0  1 V2000
  145.0618  132.0258  149.6032 C   0  0  0  0  0  0  0  0  0  0  0  0
  145.4678  133.0183  150.6467 C   0  0  0  0  0  0  0  0  0  0  0  0
  146.6585  133.0604  151.3279 C   0  0  0  0  0  0  0  0  0  0  0  0
  146.7166  134.3898  152.4524 S   0  0  0  0  0  0  0  0  0  0  0  0
  145.0941  134.8499  151.9476 C   0  0  0  0  0  0  0  0  0  0  0  0
  144.3625  136.0251  152.5158 C   0  0  1  0  0  0  0  0  0  0  0  0
  144.1185  135.8635  154.0265 C   0  0  0  0  0  0  0  0  0  0  0  0
  145.0366  137.3574  152.1210 C   0  0  0  0  0  0  0  0  0  0  0  0
  146.4237  137.4441  152.5667 N   0  0  0  0  0  0  0  0  0  0  0  0
  146.8948  138.3428  153.4417 C   0  0  0  0  0  0  0  0  0  0  0  0
  146.2084  139.2196  153.9666 O   0  0  0  0  0  0  0  0  0  0  0  0
  148.2001  138.1624  153.6834 N   0  0  0  0  0  0  0  0  0  0  0  0
  148.9960  138.9537  154.6163 C   0  0  2  0  0  0  0  0  0  0  0  0
  148.6863  140.4322  154.5011 C   0  0  0  0  0  0  0  0  0  0  0  0
  149.9606  141.0716  155.0443 C   0  0  0  0  0  0  0  0  0  0  0  0
  151.0152  140.1544  154.7694 O   0  0  0  0  0  0  0  0  0  0  0  0
  150.4894  138.9293  154.2681 C   0  0  1  0  0  0  0  0  0  0  0  0
  151.2612  137.7417  154.8566 C   0  0  0  0  0  0  0  0  0  0  0  0
  144.5869  134.0400  151.0124 N   0  0  0  0  0  0  0  0  0  0  0  0
  145.8210  131.2548  149.4692 H   0  0  0  0  0  0  0  0  0  0  0  0
  144.9110  132.5102  148.6382 H   0  0  0  0  0  0  0  0  0  0  0  0
  144.1307  131.5274  149.8735 H   0  0  0  0  0  0  0  0  0  0  0  0
  147.5026  132.3930  151.2364 H   0  0  0  0  0  0  0  0  0  0  0  0
  143.3776  136.0167  152.0470 H   0  0  0  0  0  0  0  0  0  0  0  0
  143.6018  134.9273  154.2396 H   0  0  0  0  0  0  0  0  0  0  0  0
  143.5028  136.6706  154.4237 H   0  0  0  0  0  0  0  0  0  0  0  0
  145.0579  135.8584  154.5800 H   0  0  0  0  0  0  0  0  0  0  0  0
  145.0267  137.4727  151.0367 H   0  0  0  0  0  0  0  0  0  0  0  0
  144.4723  138.2000  152.5244 H   0  0  0  0  0  0  0  0  0  0  0  0
  147.0663  136.7628  152.1897 H   0  0  0  0  0  0  0  0  0  0  0  0
  148.6745  137.4126  153.2021 H   0  0  0  0  0  0  0  0  0  0  0  0
  148.8380  138.6379  155.6497 H   0  0  0  0  0  0  0  0  0  0  0  0
  148.5515  140.7160  153.4560 H   0  0  0  0  0  0  0  0  0  0  0  0
  147.7933  140.7284  155.0522 H   0  0  0  0  0  0  0  0  0  0  0  0
  150.1559  142.0481  154.6005 H   0  0  0  0  0  0  0  0  0  0  0  0
  149.8895  141.2001  156.1249 H   0  0  0  0  0  0  0  0  0  0  0  0
  150.6155  138.9478  153.1841 H   0  0  0  0  0  0  0  0  0  0  0  0
  150.8871  136.7960  154.4646 H   0  0  0  0  0  0  0  0  0  0  0  0
  151.1741  137.7129  155.9431 H   0  0  0  0  0  0  0  0  0  0  0  0
  152.3207  137.8065  154.6085 H   0  0  0  0  0  0  0  0  0  0  0  0
  1  2  1  0  0  0  0
  1 20  1  0  0  0  0
  1 21  1  0  0  0  0
  1 22  1  0  0  0  0
  2 19  1  0  0  0  0
  2  3  2  0  0  0  0
  3  4  1  0  0  0  0
  3 23  1  0  0  0  0
  4  5  1  0  0  0  0
  5  6  1  0  0  0  0
  5 19  2  0  0  0  0
  6  7  1  0  0  0  0
  6  8  1  0  0  0  0
  6 24  1  0  0  0  0
  7 25  1  0  0  0  0
  7 26  1  0  0  0  0
  7 27  1  0  0  0  0
  8  9  1  0  0  0  0
  8 28  1  0  0  0  0
  8 29  1  0  0  0  0
  9 10  1  0  0  0  0
  9 30  1  0  0  0  0
 10 11  2  0  0  0  0
 10 12  1  0  0  0  0
 12 13  1  0  0  0  0
 12 31  1  0  0  0  0
 13 17  1  0  0  0  0
 13 14  1  0  0  0  0
 13 32  1  0  0  0  0
 14 15  1  0  0  0  0
 14 33  1  0  0  0  0
 14 34  1  0  0  0  0
 15 16  1  0  0  0  0
 15 35  1  0  0  0  0
 15 36  1  0  0  0  0
 16 17  1  0  0  0  0
 17 18  1  0  0  0  0
 17 37  1  0  0  0  0
 18 38  1  0  0  0  0
 18 39  1  0  0  0  0
 18 40  1  0  0  0  0
M  END
> <s_m_source_file>
AV-unprocessed.smi

> <i_m_source_file_index>
2340

> <i_lp_mmshare_version>
43012

> <i_f3d_flags>
0

> <s_epik_input>
W0NIM11jMVtjSF1zYyhuMSlbQ0BIXShbQ0gzXSlbQ0gyXVtOSF1DKD1PKVtOSF1bQ0BASF0yW0NIMl1bQ0gyXU9bQ0BIXTJbQ0gzXQ==

> <s_epik_cmdline>
J2VwaWtfcHl0aG9uJywgJy1waCcsICc3LjAnLCAnLXRuJywgJzgnLCAnLW1hJywgJzIwMCcsICctbWV0YWxfYmluZGluZycsICctaW1hZScsICc8aW5maWxlLm1hZT4nLCAnLW9tYWUnLCAnPG91dGZpbGUubWFlPic=

> <r_epik_Ionization_Penalty>
0.00156622

> <r_epik_Ionization_Penalty_Charging>
0

> <r_epik_Ionization_Penalty_Neutral>
0.00156622

> <r_epik_State_Penalty>
0.00101902

> <r_epik_Charging_Adjusted_Penalty>
0.00101902

> <i_epik_Tot_Q>
0

> <i_epik_Tot_abs_Q>
0

> <r_epik_Metal_State_Penalty>
-0

> <b_epik_Metal_Only>
0

> <s_lp_Force_Field>
OPLS_2005

> <r_lp_Energy>
4.85076

> <b_lp_Chiralities_Consistent>
1

> <s_lp_Variant>
AV-unprocessed.smi:2340-2

> <Gold.Version>
5.8.1

> <Gold.Id.Protein>
6NUR|6NUR_protein|mol2

> <Gold.PLP.Fitness>
40.1343

> <Gold.PLP.PLP>
-28.7454

> <Gold.PLP.part.hbond>
-3.0000

> <Gold.PLP.part.metal>
0.0000

> <Gold.PLP.part.buried>
-0.2338

> <Gold.PLP.part.nonpolar>
-26.0973

> <Gold.PLP.part.repulsive>
0.4228

> <Gold.PLP.ligand.clash>
0.0000

> <Gold.PLP.ligand.torsion>
0.3596

> <Gold.PLP.Chemscore.Hbond>
2.9920

> <Gold.PLP.Chemscore.CHOScore>
1.0000

> <Gold.PLP.Chemscore.Metal>
0.0000

> <Gold.Chemscore.Hbonds>
donor molecule, donor type, donor heavy atom, donor atom, acceptor molecule, acceptor atom, score
      L1  H     9    30       P1  7948  0.98
      L1  H    12    31       P1  7948  1.00
      P1  H  7989  7998       L1    16  0.95
      L1  C     3    23       P1 10747  1.00

> <Gold.PLP.Chemscore.Internal.Correction>
0.1321

> <Gold.Rescore>
     Score         DG    S(hbond)    S(metal)    S(lipo)     H(rot)  DE(clash)    DE(int)     intcor
     16.31     -18.27       2.17        0.00      80.86       1.53       0.30       1.66       ----

> <Gold.Chemscore.Fitness>
16.3054

> <Gold.Chemscore.DG>
-18.2686

> <Gold.Chemscore.ZeroCoef>
-5.4800

> <Gold.Chemscore.Hbond>
2.1710

> <Gold.Chemscore.Metal>
0.0000

> <Gold.Chemscore.Lipo>
80.8620

> <Gold.Chemscore.Internal_Hbond>
0.0000

> <Gold.Chemscore.DEClash>
0.3007

> <Gold.Chemscore.DEInternal>
1.6625

> <Gold.Chemscore.Rot>
1.5325

> <Gold.Chemscore.Internal.Correction>
   9.000000E+99

> <Gold.Chemscore.Hbonds>
donor molecule, donor type, donor heavy atom, donor atom, acceptor molecule, acceptor atom, score
      L1  H     9    30       P1  7948  0.90
      L1  H    12    31       P1  7948  0.99
      P1  H  7989  7998       L1    16  0.11

> <Gold.Chemscore.Hbond.Weighted>
-7.2511

> <Gold.Chemscore.Metal.Weighted>
-0.0000

> <Gold.Chemscore.Lipo.Weighted>
-9.4609

> <Gold.Chemscore.Internal_Hbond.Weighted>
0.0000

> <Gold.Chemscore.DEClash.Weighted>
0.3007

> <Gold.Chemscore.DEInternal.Weighted>
1.6625

> <Gold.Chemscore.Rot.Weighted>
3.9233

> <Gold.Chemscore.Internal.Correction.Weighted>
   9.000000E+99

> <Gold.Protein.RotatedTorsions>
[ 6907 6896 6895 6894 ] final   75.48 input  -60.11 | X-H torsion
[ 7974 7965 7964 7962 ] final -114.30 input  175.53 | X-H torsion
[ 8008 7997 7996 7995 ] final   31.18 input   59.86 | X-H torsion
[ 10167 10162 10161 10158 ] final -122.89 input  -65.29 | X-H torsion
[ 10718 10713 10712 10709 ] final  -71.33 input   66.30 | X-H torsion
[ 10763 10752 10751 10750 ] final  119.15 input  -60.55 | X-H torsion
[ 11005 11000 10999 10996 ] final   18.70 input  -57.11 | X-H torsion

> <Gold.Protein.ActiveResidues>
 VAL166  LYS551  ARG553  GLY616  TRP617  ASP618  TYR619  PRO620  LYS621  CYS622 
 ASP623  PHE694  ASN695  SER759  ASP760  ASP761  ALA762  ILE779  LEU786  VAL792 
 PHE793  MET794  SER795  GLU796  ALA797  LYS798  CYS799  TRP800  GLU811  SER814 

> <Gold.Protein.RotatedAtoms>
  152.5028  134.4114  159.9449 H   0  0  0  0  0  0  0  0  0  0  0  0  # atno 6907 bound_to 6896
  151.4083  133.3729  159.2748 H   0  0  0  0  0  0  0  0  0  0  0  0  # atno 6908 bound_to 6896
  150.9311  134.8747  159.7611 H   0  0  0  0  0  0  0  0  0  0  0  0  # atno 6909 bound_to 6896
  145.1218  140.8674  143.3809 H   0  0  0  0  0  0  0  0  0  0  0  0  # atno 7974 bound_to 7965
  155.1022  140.3230  155.4544 H   0  0  0  0  0  0  0  0  0  0  0  0  # atno 8008 bound_to 7997
  156.2714  140.2059  156.6095 H   0  0  0  0  0  0  0  0  0  0  0  0  # atno 8009 bound_to 7997
  154.6820  140.0525  157.0263 H   0  0  0  0  0  0  0  0  0  0  0  0  # atno 8010 bound_to 7997
  140.0094  143.5457  152.2269 H   0  0  0  0  0  0  0  0  0  0  0  0  # atno 10167 bound_to 10162
  156.0368  130.4349  150.2427 H   0  0  0  0  0  0  0  0  0  0  0  0  # atno 10718 bound_to 10713
  153.5785  135.3488  155.2866 H   0  0  0  0  0  0  0  0  0  0  0  0  # atno 10763 bound_to 10752
  154.8671  135.4176  154.2646 H   0  0  0  0  0  0  0  0  0  0  0  0  # atno 10764 bound_to 10752
  153.3427  135.7051  153.6924 H   0  0  0  0  0  0  0  0  0  0  0  0  # atno 10765 bound_to 10752
  140.4218  134.1510  155.7673 H   0  0  0  0  0  0  0  0  0  0  0  0  # atno 11005 bound_to 11000
  145.0731  139.3016  143.5821 LP  0  0  0  0  0  0  0  0  0  0  0  0  # atno 17320 bound_to 7965
  146.3520  140.0213  142.8658 LP  0  0  0  0  0  0  0  0  0  0  0  0  # atno 17321 bound_to 7965
  139.6215  144.7630  151.2729 LP  0  0  0  0  0  0  0  0  0  0  0  0  # atno 17342 bound_to 10162
  140.7387  143.6639  150.8140 LP  0  0  0  0  0  0  0  0  0  0  0  0  # atno 17343 bound_to 10162
  157.0526  131.0067  151.3249 LP  0  0  0  0  0  0  0  0  0  0  0  0  # atno 17370 bound_to 10713
  157.5129  130.7950  149.7725 LP  0  0  0  0  0  0  0  0  0  0  0  0  # atno 17371 bound_to 10713
  141.1781  133.8472  157.1353 LP  0  0  0  0  0  0  0  0  0  0  0  0  # atno 17394 bound_to 11000
  140.0194  134.9952  157.0561 LP  0  0  0  0  0  0  0  0  0  0  0  0  # atno 17395 bound_to 11000

$$$$
