AV-unprocessed.smi:3099|AV-procd|sdf|11802|dock10
  -GOLD-   2272017173D 1   1.00000     0.00000
 Structure written by MMmdl.
 33 34  0  0  0  0  0  0  0  0  2 V2000
  152.6720  138.9432  155.6917 C   0  0  0  0  0  0  0  0  0  0  0  0
  151.4210  138.9074  154.9308 N   0  0  0  0  0  0  0  0  0  0  0  0
  151.0662  137.8466  154.1950 C   0  0  0  0  0  0  0  0  0  0  0  0
  149.8874  138.1376  153.6409 N   0  3  0  0  0  0  0  0  0  0  0  0
  149.4862  139.3881  154.0226 C   0  0  0  0  0  0  0  0  0  0  0  0
  150.4623  139.8918  154.8497 C   0  0  0  0  0  0  0  0  0  0  0  0
  150.5857  141.2018  155.5670 C   0  0  0  0  0  0  0  0  0  0  0  0
  150.4369  141.0643  157.0929 C   0  0  0  0  0  0  0  0  0  0  0  0
  151.0635  142.1782  157.7948 N   0  0  0  0  0  0  0  0  0  0  0  0
  151.7925  142.0687  158.9158 C   0  0  0  0  0  0  0  0  0  0  0  0
  152.0108  140.9931  159.4744 O   0  0  0  0  0  0  0  0  0  0  0  0
  152.3581  143.3735  159.4844 C   0  0  0  0  0  0  0  0  0  0  0  0
  151.7749  144.6145  158.8290 C   0  0  0  0  0  0  0  0  0  0  0  0
  151.4922  145.8598  159.6404 C   0  0  0  0  0  0  0  0  0  0  0  0
  150.3488  145.0392  159.0975 C   0  0  0  0  0  0  0  0  0  0  0  0
  153.2418  138.0283  155.5239 H   0  0  0  0  0  0  0  0  0  0  0  0
  152.4410  139.0363  156.7531 H   0  0  0  0  0  0  0  0  0  0  0  0
  153.2632  139.8006  155.3688 H   0  0  0  0  0  0  0  0  0  0  0  0
  151.6211  136.9336  154.0710 H   0  0  0  0  0  0  0  0  0  0  0  0
  148.5553  139.8193  153.6840 H   0  0  0  0  0  0  0  0  0  0  0  0
  151.5547  141.6415  155.3280 H   0  0  0  0  0  0  0  0  0  0  0  0
  149.8261  141.8805  155.1769 H   0  0  0  0  0  0  0  0  0  0  0  0
  149.3841  140.9966  157.3732 H   0  0  0  0  0  0  0  0  0  0  0  0
  150.9117  140.1439  157.4335 H   0  0  0  0  0  0  0  0  0  0  0  0
  150.9367  143.0990  157.3997 H   0  0  0  0  0  0  0  0  0  0  0  0
  152.1624  143.4126  160.5563 H   0  0  0  0  0  0  0  0  0  0  0  0
  153.4421  143.3794  159.3583 H   0  0  0  0  0  0  0  0  0  0  0  0
  152.1378  144.7850  157.8167 H   0  0  0  0  0  0  0  0  0  0  0  0
  151.6754  145.8188  160.7122 H   0  0  0  0  0  0  0  0  0  0  0  0
  151.6912  146.8205  159.1699 H   0  0  0  0  0  0  0  0  0  0  0  0
  149.7842  145.4529  158.2643 H   0  0  0  0  0  0  0  0  0  0  0  0
  149.7679  144.4563  159.8097 H   0  0  0  0  0  0  0  0  0  0  0  0
  149.3691  137.5212  153.0274 H   0  0  0  0  0  0  0  0  0  0  0  0
  1  2  1  0  0  0  0
  1 16  1  0  0  0  0
  1 17  1  0  0  0  0
  1 18  1  0  0  0  0
  2  6  1  0  0  0  0
  2  3  1  0  0  0  0
  3  4  2  0  0  0  0
  3 19  1  0  0  0  0
  4  5  1  0  0  0  0
  4 33  1  0  0  0  0
  5  6  2  0  0  0  0
  5 20  1  0  0  0  0
  6  7  1  0  0  0  0
  7  8  1  0  0  0  0
  7 21  1  0  0  0  0
  7 22  1  0  0  0  0
  8  9  1  0  0  0  0
  8 23  1  0  0  0  0
  8 24  1  0  0  0  0
  9 10  1  0  0  0  0
  9 25  1  0  0  0  0
 10 11  2  0  0  0  0
 10 12  1  0  0  0  0
 12 13  1  0  0  0  0
 12 26  1  0  0  0  0
 12 27  1  0  0  0  0
 13 15  1  0  0  0  0
 13 14  1  0  0  0  0
 13 28  1  0  0  0  0
 14 15  1  0  0  0  0
 14 29  1  0  0  0  0
 14 30  1  0  0  0  0
 15 31  1  0  0  0  0
 15 32  1  0  0  0  0
M  CHG  1   4   1
M  END
> <s_m_source_file>
AV-unprocessed.smi

> <i_m_source_file_index>
3099

> <i_lp_mmshare_version>
43012

> <i_f3d_flags>
0

> <s_epik_input>
W0NIM11uMVtjSF1uW2NIXWMxW0NIMl1bQ0gyXVtOSF1DKD1PKVtDSDJdW0NIXTJbQ0gyXVtDSDJdMg==

> <s_epik_cmdline>
J2VwaWtfcHl0aG9uJywgJy1waCcsICc3LjAnLCAnLXRuJywgJzgnLCAnLW1hJywgJzIwMCcsICctbWV0YWxfYmluZGluZycsICctaW1hZScsICc8aW5maWxlLm1hZT4nLCAnLW9tYWUnLCAnPG91dGZpbGUubWFlPic=

> <r_lp_tautomer_probability>
1

> <r_epik_Ionization_Penalty>
0.156092

> <r_epik_Ionization_Penalty_Charging>
0

> <r_epik_Ionization_Penalty_Neutral>
0.156092

> <r_epik_State_Penalty>
0.145389

> <r_epik_Charging_Adjusted_Penalty>
0.145389

> <i_epik_Tot_Q>
1

> <i_epik_Tot_abs_Q>
1

> <r_epik_Metal_State_Penalty>
0.466304

> <b_epik_Metal_Only>
0

> <s_lp_Force_Field>
OPLS_2005

> <r_lp_Energy>
10.1208

> <b_lp_Chiralities_Consistent>
1

> <s_lp_Variant>
AV-unprocessed.smi:3099-1

> <Gold.Version>
5.8.1

> <Gold.Id.Protein>
6NUR|6NUR_protein|mol2

> <Gold.PLP.Fitness>
45.5305

> <Gold.PLP.PLP>
-38.9661

> <Gold.PLP.part.hbond>
-1.5749

> <Gold.PLP.part.metal>
0.0000

> <Gold.PLP.part.buried>
-2.0019

> <Gold.PLP.part.nonpolar>
-35.0682

> <Gold.PLP.part.repulsive>
0.1115

> <Gold.PLP.ligand.clash>
0.3389

> <Gold.PLP.ligand.torsion>
0.7404

> <Gold.PLP.Chemscore.Hbond>
1.9840

> <Gold.PLP.Chemscore.CHOScore>
0.6311

> <Gold.PLP.Chemscore.Metal>
0.0000

> <Gold.Chemscore.Hbonds>
donor molecule, donor type, donor heavy atom, donor atom, acceptor molecule, acceptor atom, score
      L1  H     4    33       P1  7948  2.00
      L1  C     3    19       P1  7949  0.21

> <Gold.PLP.Chemscore.Internal.Correction>
0.5388

> <Gold.Rescore>
     Score         DG    S(hbond)    S(metal)    S(lipo)     H(rot)  DE(clash)    DE(int)     intcor
     12.82     -13.38       0.97        0.00      83.35       1.99       0.13       0.43       ----

> <Gold.Chemscore.Fitness>
12.8184

> <Gold.Chemscore.DG>
-13.3767

> <Gold.Chemscore.ZeroCoef>
-5.4800

> <Gold.Chemscore.Hbond>
0.9700

> <Gold.Chemscore.Metal>
0.0000

> <Gold.Chemscore.Lipo>
83.3542

> <Gold.Chemscore.Internal_Hbond>
0.0000

> <Gold.Chemscore.DEClash>
0.1252

> <Gold.Chemscore.DEInternal>
0.4331

> <Gold.Chemscore.Rot>
1.9905

> <Gold.Chemscore.Internal.Correction>
   9.000000E+99

> <Gold.Chemscore.Hbonds>
donor molecule, donor type, donor heavy atom, donor atom, acceptor molecule, acceptor atom, score
      L1  H     4    33       P1  7948  0.94

> <Gold.Chemscore.Hbond.Weighted>
-3.2399

> <Gold.Chemscore.Metal.Weighted>
-0.0000

> <Gold.Chemscore.Lipo.Weighted>
-9.7524

> <Gold.Chemscore.Internal_Hbond.Weighted>
0.0000

> <Gold.Chemscore.DEClash.Weighted>
0.1252

> <Gold.Chemscore.DEInternal.Weighted>
0.4331

> <Gold.Chemscore.Rot.Weighted>
5.0957

> <Gold.Chemscore.Internal.Correction.Weighted>
   9.000000E+99

> <Gold.Protein.RotatedTorsions>
[ 6907 6896 6895 6894 ] final   26.74 input  -60.11 | X-H torsion
[ 7974 7965 7964 7962 ] final   74.19 input  175.53 | X-H torsion
[ 8008 7997 7996 7995 ] final   79.88 input   59.86 | X-H torsion
[ 10167 10162 10161 10158 ] final  139.59 input  -65.29 | X-H torsion
[ 10718 10713 10712 10709 ] final  -19.39 input   66.30 | X-H torsion
[ 10763 10752 10751 10750 ] final   -9.90 input  -60.55 | X-H torsion
[ 11005 11000 10999 10996 ] final  -38.59 input  -57.11 | X-H torsion

> <Gold.Protein.ActiveResidues>
 VAL166  LYS551  ARG553  GLY616  TRP617  ASP618  TYR619  PRO620  LYS621  CYS622 
 ASP623  PHE694  ASN695  SER759  ASP760  ASP761  ALA762  ILE779  LEU786  VAL792 
 PHE793  MET794  SER795  GLU796  ALA797  LYS798  CYS799  TRP800  GLU811  SER814 

> <Gold.Protein.RotatedAtoms>
  151.9920  134.9974  160.0561 H   0  0  0  0  0  0  0  0  0  0  0  0  # atno 6907 bound_to 6896
  152.1599  133.4571  159.4864 H   0  0  0  0  0  0  0  0  0  0  0  0  # atno 6908 bound_to 6896
  150.6886  134.2002  159.4362 H   0  0  0  0  0  0  0  0  0  0  0  0  # atno 6909 bound_to 6896
  145.7314  139.2685  143.1539 H   0  0  0  0  0  0  0  0  0  0  0  0  # atno 7974 bound_to 7965
  155.8758  140.3446  155.5853 H   0  0  0  0  0  0  0  0  0  0  0  0  # atno 8008 bound_to 7997
  155.7776  140.0854  157.2095 H   0  0  0  0  0  0  0  0  0  0  0  0  # atno 8009 bound_to 7997
  154.4020  140.1507  156.3001 H   0  0  0  0  0  0  0  0  0  0  0  0  # atno 8010 bound_to 7997
  139.5074  144.6286  151.5875 H   0  0  0  0  0  0  0  0  0  0  0  0  # atno 10167 bound_to 10162
  156.5464  130.4691  149.6473 H   0  0  0  0  0  0  0  0  0  0  0  0  # atno 10718 bound_to 10713
  153.4615  135.7016  153.6047 H   0  0  0  0  0  0  0  0  0  0  0  0  # atno 10763 bound_to 10752
  153.4340  135.3796  155.2188 H   0  0  0  0  0  0  0  0  0  0  0  0  # atno 10764 bound_to 10752
  154.8727  135.3957  154.4041 H   0  0  0  0  0  0  0  0  0  0  0  0  # atno 10765 bound_to 10752
  141.0039  133.6941  156.2073 H   0  0  0  0  0  0  0  0  0  0  0  0  # atno 11005 bound_to 11000
  146.0533  140.8046  142.9770 LP  0  0  0  0  0  0  0  0  0  0  0  0  # atno 17320 bound_to 7965
  144.6892  140.3086  143.7252 LP  0  0  0  0  0  0  0  0  0  0  0  0  # atno 17321 bound_to 7965
  140.6011  143.9609  150.6386 LP  0  0  0  0  0  0  0  0  0  0  0  0  # atno 17342 bound_to 10162
  140.2820  143.3382  152.1142 LP  0  0  0  0  0  0  0  0  0  0  0  0  # atno 17343 bound_to 10162
  156.2925  130.7132  151.1984 LP  0  0  0  0  0  0  0  0  0  0  0  0  # atno 17370 bound_to 10713
  157.7396  131.0527  150.5222 LP  0  0  0  0  0  0  0  0  0  0  0  0  # atno 17371 bound_to 10713
  140.6845  134.4732  157.5589 LP  0  0  0  0  0  0  0  0  0  0  0  0  # atno 17394 bound_to 11000
  139.9053  134.8463  156.1731 LP  0  0  0  0  0  0  0  0  0  0  0  0  # atno 17395 bound_to 11000

$$$$
