AV-unprocessed.smi:1762|AV-procd|sdf|7100|dock4
  -GOLD-   22720 8323D 1   1.00000     0.00000
 Structure written by MMmdl.
 52 53  0  0  0  0  0  0  0  0  1 V2000
  151.7423  144.8496  158.4560 C   0  0  0  0  0  0  0  0  0  0  0  0
  152.3033  143.4233  158.4816 C   0  0  2  0  0  0  0  0  0  0  0  0
  151.3876  142.4196  157.7540 C   0  0  0  0  0  0  0  0  0  0  0  0
  151.8773  141.0381  157.8377 N   0  0  0  0  0  0  0  0  0  0  0  0
  151.0092  140.0676  157.1129 C   0  0  2  0  0  0  0  0  0  0  0  0
  150.9515  138.6805  157.7960 C   0  0  0  0  0  0  0  0  0  0  0  0
  151.9803  138.0242  157.9617 O   0  0  0  0  0  0  0  0  0  0  0  0
  149.7464  138.2664  158.2192 N   0  0  0  0  0  0  0  0  0  0  0  0
  149.4965  137.0203  158.9335 C   0  0  0  0  0  0  0  0  0  0  0  0
  148.0020  136.8491  159.2545 C   0  0  0  0  0  0  0  0  0  0  0  0
  147.7435  135.6826  160.1887 C   0  0  0  0  0  0  0  0  0  0  0  0
  147.3860  135.9051  161.5355 C   0  0  0  0  0  0  0  0  0  0  0  0
  147.1604  134.7886  162.3635 C   0  0  0  0  0  0  0  0  0  0  0  0
  147.3024  133.4991  161.8160 C   0  0  0  0  0  0  0  0  0  0  0  0
  147.6651  133.3833  160.4593 C   0  0  0  0  0  0  0  0  0  0  0  0
  147.8829  134.4473  159.6565 N   0  0  0  0  0  0  0  0  0  0  0  0
  151.3078  139.9226  155.5826 C   0  0  0  0  0  0  0  0  0  0  0  0
  150.2553  139.0833  154.8304 C   0  0  0  0  0  0  0  0  0  0  0  0
  152.7273  139.4112  155.2667 C   0  0  0  0  0  0  0  0  0  0  0  0
  152.0989  140.7076  159.2568 C   0  0  0  0  0  0  0  0  0  0  0  0
  153.0049  141.7260  159.9748 C   0  0  2  0  0  0  0  0  0  0  0  0
  153.1509  141.4201  161.4697 C   0  0  0  0  0  0  0  0  0  0  0  0
  152.4468  143.0268  159.8394 O   0  0  0  0  0  0  0  0  0  0  0  0
  151.6272  145.2082  157.4328 H   0  0  0  0  0  0  0  0  0  0  0  0
  152.4078  145.5387  158.9762 H   0  0  0  0  0  0  0  0  0  0  0  0
  150.7666  144.8989  158.9404 H   0  0  0  0  0  0  0  0  0  0  0  0
  153.2870  143.4286  158.0082 H   0  0  0  0  0  0  0  0  0  0  0  0
  150.3781  142.4808  158.1638 H   0  0  0  0  0  0  0  0  0  0  0  0
  151.3272  142.7447  156.7174 H   0  0  0  0  0  0  0  0  0  0  0  0
  149.9923  140.4618  157.1723 H   0  0  0  0  0  0  0  0  0  0  0  0
  148.9513  138.8655  158.0503 H   0  0  0  0  0  0  0  0  0  0  0  0
  149.8418  136.1957  158.3091 H   0  0  0  0  0  0  0  0  0  0  0  0
  150.0908  136.9877  159.8484 H   0  0  0  0  0  0  0  0  0  0  0  0
  147.6060  137.7591  159.7077 H   0  0  0  0  0  0  0  0  0  0  0  0
  147.4372  136.6975  158.3333 H   0  0  0  0  0  0  0  0  0  0  0  0
  147.2877  136.9072  161.9269 H   0  0  0  0  0  0  0  0  0  0  0  0
  146.8843  134.9191  163.3995 H   0  0  0  0  0  0  0  0  0  0  0  0
  147.1381  132.6199  162.4211 H   0  0  0  0  0  0  0  0  0  0  0  0
  147.7832  132.4099  160.0070 H   0  0  0  0  0  0  0  0  0  0  0  0
  151.2214  140.9105  155.1334 H   0  0  0  0  0  0  0  0  0  0  0  0
  150.2977  138.0287  155.1043 H   0  0  0  0  0  0  0  0  0  0  0  0
  150.4103  139.1424  153.7528 H   0  0  0  0  0  0  0  0  0  0  0  0
  149.2464  139.4428  155.0341 H   0  0  0  0  0  0  0  0  0  0  0  0
  152.8705  138.3798  155.5874 H   0  0  0  0  0  0  0  0  0  0  0  0
  153.4904  140.0204  155.7515 H   0  0  0  0  0  0  0  0  0  0  0  0
  152.9207  139.4457  154.1944 H   0  0  0  0  0  0  0  0  0  0  0  0
  151.1391  140.6463  159.7730 H   0  0  0  0  0  0  0  0  0  0  0  0
  152.5753  139.7343  159.3688 H   0  0  0  0  0  0  0  0  0  0  0  0
  153.9966  141.7160  159.5189 H   0  0  0  0  0  0  0  0  0  0  0  0
  153.5867  140.4334  161.6279 H   0  0  0  0  0  0  0  0  0  0  0  0
  152.1842  141.4440  161.9736 H   0  0  0  0  0  0  0  0  0  0  0  0
  153.7979  142.1507  161.9558 H   0  0  0  0  0  0  0  0  0  0  0  0
  1  2  1  0  0  0  0
  1 24  1  0  0  0  0
  1 25  1  0  0  0  0
  1 26  1  0  0  0  0
  2 23  1  0  0  0  0
  2  3  1  0  0  0  0
  2 27  1  0  0  0  0
  3  4  1  0  0  0  0
  3 28  1  0  0  0  0
  3 29  1  0  0  0  0
  4  5  1  0  0  0  0
  4 20  1  0  0  0  0
  5  6  1  0  0  0  0
  5 17  1  0  0  0  0
  5 30  1  0  0  0  0
  6  7  2  0  0  0  0
  6  8  1  0  0  0  0
  8  9  1  0  0  0  0
  8 31  1  0  0  0  0
  9 10  1  0  0  0  0
  9 32  1  0  0  0  0
  9 33  1  0  0  0  0
 10 11  1  0  0  0  0
 10 34  1  0  0  0  0
 10 35  1  0  0  0  0
 11 16  1  0  0  0  0
 11 12  2  0  0  0  0
 12 13  1  0  0  0  0
 12 36  1  0  0  0  0
 13 14  2  0  0  0  0
 13 37  1  0  0  0  0
 14 15  1  0  0  0  0
 14 38  1  0  0  0  0
 15 16  2  0  0  0  0
 15 39  1  0  0  0  0
 17 18  1  0  0  0  0
 17 19  1  0  0  0  0
 17 40  1  0  0  0  0
 18 41  1  0  0  0  0
 18 42  1  0  0  0  0
 18 43  1  0  0  0  0
 19 44  1  0  0  0  0
 19 45  1  0  0  0  0
 19 46  1  0  0  0  0
 20 21  1  0  0  0  0
 20 47  1  0  0  0  0
 20 48  1  0  0  0  0
 21 22  1  0  0  0  0
 21 23  1  0  0  0  0
 21 49  1  0  0  0  0
 22 50  1  0  0  0  0
 22 51  1  0  0  0  0
 22 52  1  0  0  0  0
M  END
> <s_m_source_file>
AV-unprocessed.smi

> <i_m_source_file_index>
1762

> <i_lp_mmshare_version>
43012

> <i_f3d_flags>
0

> <s_epik_input>
W0NIM11bQ0BASF0xW0NIMl1OKFtDSDJdW0NASF0oTzEpW0NIM10pW0NAQEhdKFtDSF0oW0NIM10pW0NIM10pQyg9TylbTkhdW0NIMl1bQ0gyXWMyW2NIXVtjSF1bY0hdW2NIXW4y

> <s_epik_cmdline>
J2VwaWtfcHl0aG9uJywgJy1waCcsICc3LjAnLCAnLXRuJywgJzgnLCAnLW1hJywgJzIwMCcsICctbWV0YWxfYmluZGluZycsICctaW1hZScsICc8aW5maWxlLm1hZT4nLCAnLW9tYWUnLCAnPG91dGZpbGUubWFlPic=

> <r_epik_Ionization_Penalty>
0.0399736

> <r_epik_Ionization_Penalty_Charging>
0

> <r_epik_Ionization_Penalty_Neutral>
0.0399736

> <r_epik_State_Penalty>
0.0317634

> <r_epik_Charging_Adjusted_Penalty>
0.0317634

> <i_epik_Tot_Q>
0

> <i_epik_Tot_abs_Q>
0

> <r_epik_Metal_State_Penalty>
0.0307795

> <b_epik_Metal_Only>
0

> <s_lp_Force_Field>
OPLS_2005

> <r_lp_Energy>
25.9705

> <b_lp_Chiralities_Consistent>
1

> <s_lp_Variant>
AV-unprocessed.smi:1762-2

> <Gold.Version>
5.8.1

> <Gold.Id.Protein>
6NUR|6NUR_protein|mol2

> <Gold.PLP.Fitness>
48.0576

> <Gold.PLP.PLP>
-49.9599

> <Gold.PLP.part.hbond>
0.0000

> <Gold.PLP.part.metal>
0.0000

> <Gold.PLP.part.buried>
-6.1556

> <Gold.PLP.part.nonpolar>
-44.5268

> <Gold.PLP.part.repulsive>
0.1735

> <Gold.PLP.ligand.clash>
0.0182

> <Gold.PLP.ligand.torsion>
1.1276

> <Gold.PLP.Chemscore.Hbond>
0.0000

> <Gold.PLP.Chemscore.CHOScore>
0.0000

> <Gold.PLP.Chemscore.Metal>
0.0000

> <Gold.PLP.Chemscore.Internal.Correction>
0.3712

> <Gold.Rescore>
     Score         DG    S(hbond)    S(metal)    S(lipo)     H(rot)  DE(clash)    DE(int)     intcor
     16.33     -17.79       0.00        0.00     140.18       1.60       0.60       0.86       ----

> <Gold.Chemscore.Fitness>
16.3318

> <Gold.Chemscore.DG>
-17.7870

> <Gold.Chemscore.ZeroCoef>
-5.4800

> <Gold.Chemscore.Hbond>
0.0000

> <Gold.Chemscore.Metal>
0.0000

> <Gold.Chemscore.Lipo>
140.1799

> <Gold.Chemscore.Internal_Hbond>
0.0000

> <Gold.Chemscore.DEClash>
0.5983

> <Gold.Chemscore.DEInternal>
0.8568

> <Gold.Chemscore.Rot>
1.5993

> <Gold.Chemscore.Internal.Correction>
   9.000000E+99

> <Gold.Chemscore.Hbond.Weighted>
-0.0000

> <Gold.Chemscore.Metal.Weighted>
-0.0000

> <Gold.Chemscore.Lipo.Weighted>
-16.4010

> <Gold.Chemscore.Internal_Hbond.Weighted>
0.0000

> <Gold.Chemscore.DEClash.Weighted>
0.5983

> <Gold.Chemscore.DEInternal.Weighted>
0.8568

> <Gold.Chemscore.Rot.Weighted>
4.0941

> <Gold.Chemscore.Internal.Correction.Weighted>
   9.000000E+99

> <Gold.Protein.RotatedTorsions>
[ 6907 6896 6895 6894 ] final  -30.36 input  -60.11 | X-H torsion
[ 7974 7965 7964 7962 ] final   11.71 input  175.53 | X-H torsion
[ 8008 7997 7996 7995 ] final  164.58 input   59.86 | X-H torsion
[ 10167 10162 10161 10158 ] final   78.91 input  -65.29 | X-H torsion
[ 10718 10713 10712 10709 ] final   83.68 input   66.30 | X-H torsion
[ 10763 10752 10751 10750 ] final   80.16 input  -60.55 | X-H torsion
[ 11005 11000 10999 10996 ] final -162.98 input  -57.11 | X-H torsion

> <Gold.Protein.ActiveResidues>
 VAL166  LYS551  ARG553  GLY616  TRP617  ASP618  TYR619  PRO620  LYS621  CYS622 
 ASP623  PHE694  ASN695  SER759  ASP760  ASP761  ALA762  ILE779  LEU786  VAL792 
 PHE793  MET794  SER795  GLU796  ALA797  LYS798  CYS799  TRP800  GLU811  SER814 

> <Gold.Protein.RotatedAtoms>
  151.1066  135.0003  159.8473 H   0  0  0  0  0  0  0  0  0  0  0  0  # atno 6907 bound_to 6896
  152.5440  134.1886  159.8675 H   0  0  0  0  0  0  0  0  0  0  0  0  # atno 6908 bound_to 6896
  151.1933  133.4610  159.2628 H   0  0  0  0  0  0  0  0  0  0  0  0  # atno 6909 bound_to 6896
  146.2366  139.9445  142.8479 H   0  0  0  0  0  0  0  0  0  0  0  0  # atno 7974 bound_to 7965
  156.1868  140.1693  156.8169 H   0  0  0  0  0  0  0  0  0  0  0  0  # atno 8008 bound_to 7997
  154.5424  140.0734  156.8564 H   0  0  0  0  0  0  0  0  0  0  0  0  # atno 8009 bound_to 7997
  155.3189  140.3372  155.4244 H   0  0  0  0  0  0  0  0  0  0  0  0  # atno 8010 bound_to 7997
  139.9660  144.5928  150.8029 H   0  0  0  0  0  0  0  0  0  0  0  0  # atno 10167 bound_to 10162
  157.6883  131.0101  150.2559 H   0  0  0  0  0  0  0  0  0  0  0  0  # atno 10718 bound_to 10713
  153.1011  135.4813  154.8868 H   0  0  0  0  0  0  0  0  0  0  0  0  # atno 10763 bound_to 10752
  154.7379  135.3075  154.8781 H   0  0  0  0  0  0  0  0  0  0  0  0  # atno 10764 bound_to 10752
  153.9398  135.6835  153.4798 H   0  0  0  0  0  0  0  0  0  0  0  0  # atno 10765 bound_to 10752
  140.6032  134.4926  157.5207 H   0  0  0  0  0  0  0  0  0  0  0  0  # atno 11005 bound_to 11000
  145.1921  140.9816  143.4205 LP  0  0  0  0  0  0  0  0  0  0  0  0  # atno 17320 bound_to 7965
  144.9848  139.3747  143.6244 LP  0  0  0  0  0  0  0  0  0  0  0  0  # atno 17321 bound_to 7965
  140.7538  143.3015  151.3070 LP  0  0  0  0  0  0  0  0  0  0  0  0  # atno 17342 bound_to 10162
  139.6518  144.0349  152.2631 LP  0  0  0  0  0  0  0  0  0  0  0  0  # atno 17343 bound_to 10162
  156.3147  130.3777  149.7629 LP  0  0  0  0  0  0  0  0  0  0  0  0  # atno 17370 bound_to 10713
  156.5218  130.8218  151.3206 LP  0  0  0  0  0  0  0  0  0  0  0  0  # atno 17371 bound_to 10713
  139.9224  134.8123  156.1172 LP  0  0  0  0  0  0  0  0  0  0  0  0  # atno 17394 bound_to 11000
  141.0858  133.6734  156.2434 LP  0  0  0  0  0  0  0  0  0  0  0  0  # atno 17395 bound_to 11000

$$$$
