AV-unprocessed.smi:2076|AV-procd|sdf|8458|dock6
  -GOLD-   2272011153D 1   1.00000     0.00000
 Structure written by MMmdl.
 44 45  0  0  0  0  0  0  0  0  1 V2000
  154.4847  140.9158  160.8161 C   0  0  0  0  0  0  0  0  0  0  0  0
  153.5302  141.9819  160.3660 C   0  0  0  0  0  0  0  0  0  0  0  0
  153.2510  143.2333  160.9830 C   0  0  0  0  0  0  0  0  0  0  0  0
  152.3171  143.8105  160.1694 C   0  0  0  0  0  0  0  0  0  0  0  0
  151.6304  145.1321  160.2793 C   0  0  0  0  0  0  0  0  0  0  0  0
  152.0791  142.9202  159.1369 N   0  0  0  0  0  0  0  0  0  0  0  0
  151.1806  143.0502  158.0003 C   0  0  0  0  0  0  0  0  0  0  0  0
  150.7568  141.6799  157.4699 C   0  0  0  0  0  0  0  0  0  0  0  0
  149.6303  141.2467  157.7106 O   0  0  0  0  0  0  0  0  0  0  0  0
  151.6687  141.0105  156.7503 N   0  0  0  0  0  0  0  0  0  0  0  0
  151.4578  139.6958  156.1557 C   0  0  0  0  0  0  0  0  0  0  0  0
  151.4142  139.7505  154.6036 C   0  0  1  0  0  0  0  0  0  0  0  0
  152.0453  138.4511  154.0411 C   0  0  0  0  0  0  0  0  0  0  0  0
  150.0592  140.0064  154.0611 N   0  0  0  0  0  0  0  0  0  0  0  0
  149.4019  141.1478  154.7085 C   0  0  0  0  0  0  0  0  0  0  0  0
  147.9834  141.4060  154.1717 C   0  0  0  0  0  0  0  0  0  0  0  0
  147.1926  140.2356  154.3242 O   0  0  0  0  0  0  0  0  0  0  0  0
  147.7535  139.1220  153.6435 C   0  0  0  0  0  0  0  0  0  0  0  0
  149.1689  138.8456  154.1795 C   0  0  0  0  0  0  0  0  0  0  0  0
  152.8251  141.8001  159.2614 N   0  0  0  0  0  0  0  0  0  0  0  0
  155.0278  141.2250  161.7094 H   0  0  0  0  0  0  0  0  0  0  0  0
  155.2197  140.6935  160.0420 H   0  0  0  0  0  0  0  0  0  0  0  0
  153.9571  139.9915  161.0523 H   0  0  0  0  0  0  0  0  0  0  0  0
  153.6741  143.6462  161.8867 H   0  0  0  0  0  0  0  0  0  0  0  0
  151.8931  145.6302  161.2126 H   0  0  0  0  0  0  0  0  0  0  0  0
  150.5474  145.0130  160.2587 H   0  0  0  0  0  0  0  0  0  0  0  0
  151.9167  145.7875  159.4567 H   0  0  0  0  0  0  0  0  0  0  0  0
  150.3000  143.6234  158.2956 H   0  0  0  0  0  0  0  0  0  0  0  0
  151.6775  143.6197  157.2143 H   0  0  0  0  0  0  0  0  0  0  0  0
  152.5672  141.4454  156.5974 H   0  0  0  0  0  0  0  0  0  0  0  0
  152.2411  139.0090  156.4818 H   0  0  0  0  0  0  0  0  0  0  0  0
  150.5191  139.3339  156.5723 H   0  0  0  0  0  0  0  0  0  0  0  0
  152.0589  140.5761  154.2979 H   0  0  0  0  0  0  0  0  0  0  0  0
  153.0160  138.2307  154.4839 H   0  0  0  0  0  0  0  0  0  0  0  0
  152.2312  138.5123  152.9697 H   0  0  0  0  0  0  0  0  0  0  0  0
  151.4011  137.5904  154.2237 H   0  0  0  0  0  0  0  0  0  0  0  0
  149.3563  140.9857  155.7865 H   0  0  0  0  0  0  0  0  0  0  0  0
  149.9725  142.0609  154.5497 H   0  0  0  0  0  0  0  0  0  0  0  0
  147.5153  142.2240  154.7193 H   0  0  0  0  0  0  0  0  0  0  0  0
  148.0147  141.7001  153.1215 H   0  0  0  0  0  0  0  0  0  0  0  0
  147.1143  138.2524  153.7972 H   0  0  0  0  0  0  0  0  0  0  0  0
  147.7776  139.3152  152.5698 H   0  0  0  0  0  0  0  0  0  0  0  0
  149.5583  138.0010  153.6149 H   0  0  0  0  0  0  0  0  0  0  0  0
  149.1070  138.5313  155.2224 H   0  0  0  0  0  0  0  0  0  0  0  0
  1  2  1  0  0  0  0
  1 21  1  0  0  0  0
  1 22  1  0  0  0  0
  1 23  1  0  0  0  0
  2 20  2  0  0  0  0
  2  3  1  0  0  0  0
  3  4  2  0  0  0  0
  3 24  1  0  0  0  0
  4  5  1  0  0  0  0
  4  6  1  0  0  0  0
  5 25  1  0  0  0  0
  5 26  1  0  0  0  0
  5 27  1  0  0  0  0
  6  7  1  0  0  0  0
  6 20  1  0  0  0  0
  7  8  1  0  0  0  0
  7 28  1  0  0  0  0
  7 29  1  0  0  0  0
  8  9  2  0  0  0  0
  8 10  1  0  0  0  0
 10 11  1  0  0  0  0
 10 30  1  0  0  0  0
 11 12  1  0  0  0  0
 11 31  1  0  0  0  0
 11 32  1  0  0  0  0
 12 13  1  0  0  0  0
 12 14  1  0  0  0  0
 12 33  1  0  0  0  0
 13 34  1  0  0  0  0
 13 35  1  0  0  0  0
 13 36  1  0  0  0  0
 14 19  1  0  0  0  0
 14 15  1  0  0  0  0
 15 16  1  0  0  0  0
 15 37  1  0  0  0  0
 15 38  1  0  0  0  0
 16 17  1  0  0  0  0
 16 39  1  0  0  0  0
 16 40  1  0  0  0  0
 17 18  1  0  0  0  0
 18 19  1  0  0  0  0
 18 41  1  0  0  0  0
 18 42  1  0  0  0  0
 19 43  1  0  0  0  0
 19 44  1  0  0  0  0
M  END
> <s_m_source_file>
AV-unprocessed.smi

> <i_m_source_file_index>
2076

> <i_lp_mmshare_version>
43012

> <i_f3d_flags>
0

> <s_epik_input>
W0NIM11jMVtjSF1jKFtDSDNdKW4objEpW0NIMl1DKD1PKVtOSF1bQ0gyXVtDQEhdKFtDSDNdKU4yW0NIMl1bQ0gyXU9bQ0gyXVtDSDJdMg==

> <s_epik_cmdline>
J2VwaWtfcHl0aG9uJywgJy1waCcsICc3LjAnLCAnLXRuJywgJzgnLCAnLW1hJywgJzIwMCcsICctbWV0YWxfYmluZGluZycsICctaW1hZScsICc8aW5maWxlLm1hZT4nLCAnLW9tYWUnLCAnPG91dGZpbGUubWFlPic=

> <r_lp_tautomer_probability>
1

> <r_epik_Ionization_Penalty>
0.197284

> <r_epik_Ionization_Penalty_Charging>
0

> <r_epik_Ionization_Penalty_Neutral>
0.197284

> <r_epik_State_Penalty>
0.186684

> <r_epik_Charging_Adjusted_Penalty>
0.186684

> <i_epik_Tot_Q>
0

> <i_epik_Tot_abs_Q>
0

> <r_epik_Metal_State_Penalty>
0.186636

> <b_epik_Metal_Only>
0

> <s_lp_Force_Field>
OPLS_2005

> <r_lp_Energy>
27.1724

> <b_lp_Chiralities_Consistent>
1

> <s_lp_Variant>
AV-unprocessed.smi:2076-2

> <Gold.Version>
5.8.1

> <Gold.Id.Protein>
6NUR|6NUR_protein|mol2

> <Gold.PLP.Fitness>
42.3235

> <Gold.PLP.PLP>
-44.4399

> <Gold.PLP.part.hbond>
-1.0000

> <Gold.PLP.part.metal>
0.0000

> <Gold.PLP.part.buried>
-2.6105

> <Gold.PLP.part.nonpolar>
-40.6684

> <Gold.PLP.part.repulsive>
1.2790

> <Gold.PLP.ligand.clash>
0.0000

> <Gold.PLP.ligand.torsion>
1.0922

> <Gold.PLP.Chemscore.Hbond>
0.0000

> <Gold.PLP.Chemscore.CHOScore>
0.0000

> <Gold.PLP.Chemscore.Metal>
0.0000

> <Gold.PLP.Chemscore.Internal.Correction>
0.0682

> <Gold.Rescore>
     Score         DG    S(hbond)    S(metal)    S(lipo)     H(rot)  DE(clash)    DE(int)     intcor
     11.67     -14.06       0.00        0.00     110.54       1.70       0.08       2.32       ----

> <Gold.Chemscore.Fitness>
11.6679

> <Gold.Chemscore.DG>
-14.0626

> <Gold.Chemscore.ZeroCoef>
-5.4800

> <Gold.Chemscore.Hbond>
0.0000

> <Gold.Chemscore.Metal>
0.0000

> <Gold.Chemscore.Lipo>
110.5365

> <Gold.Chemscore.Internal_Hbond>
0.0000

> <Gold.Chemscore.DEClash>
0.0775

> <Gold.Chemscore.DEInternal>
2.3172

> <Gold.Chemscore.Rot>
1.6993

> <Gold.Chemscore.Internal.Correction>
   9.000000E+99

> <Gold.Chemscore.Hbond.Weighted>
-0.0000

> <Gold.Chemscore.Metal.Weighted>
-0.0000

> <Gold.Chemscore.Lipo.Weighted>
-12.9328

> <Gold.Chemscore.Internal_Hbond.Weighted>
0.0000

> <Gold.Chemscore.DEClash.Weighted>
0.0775

> <Gold.Chemscore.DEInternal.Weighted>
2.3172

> <Gold.Chemscore.Rot.Weighted>
4.3502

> <Gold.Chemscore.Internal.Correction.Weighted>
   9.000000E+99

> <Gold.Protein.RotatedTorsions>
[ 6907 6896 6895 6894 ] final  115.27 input  -60.11 | X-H torsion
[ 7974 7965 7964 7962 ] final    8.15 input  175.53 | X-H torsion
[ 8008 7997 7996 7995 ] final  -38.91 input   59.86 | X-H torsion
[ 10167 10162 10161 10158 ] final  130.51 input  -65.29 | X-H torsion
[ 10718 10713 10712 10709 ] final   16.49 input   66.30 | X-H torsion
[ 10763 10752 10751 10750 ] final  147.90 input  -60.55 | X-H torsion
[ 11005 11000 10999 10996 ] final  -65.35 input  -57.11 | X-H torsion

> <Gold.Protein.ActiveResidues>
 VAL166  LYS551  ARG553  GLY616  TRP617  ASP618  TYR619  PRO620  LYS621  CYS622 
 ASP623  PHE694  ASN695  SER759  ASP760  ASP761  ALA762  ILE779  LEU786  VAL792 
 PHE793  MET794  SER795  GLU796  ALA797  LYS798  CYS799  TRP800  GLU811  SER814 

> <Gold.Protein.RotatedAtoms>
  152.4752  133.8121  159.7008 H   0  0  0  0  0  0  0  0  0  0  0  0  # atno 6907 bound_to 6896
  150.8764  133.7423  159.2952 H   0  0  0  0  0  0  0  0  0  0  0  0  # atno 6908 bound_to 6896
  151.4941  135.1062  159.9863 H   0  0  0  0  0  0  0  0  0  0  0  0  # atno 6909 bound_to 6896
  146.2419  139.9976  142.8419 H   0  0  0  0  0  0  0  0  0  0  0  0  # atno 7974 bound_to 7965
  154.4030  140.1565  156.2776 H   0  0  0  0  0  0  0  0  0  0  0  0  # atno 8008 bound_to 7997
  155.8898  140.3439  155.5926 H   0  0  0  0  0  0  0  0  0  0  0  0  # atno 8009 bound_to 7997
  155.7572  140.0812  157.2163 H   0  0  0  0  0  0  0  0  0  0  0  0  # atno 8010 bound_to 7997
  139.5427  144.6745  151.4573 H   0  0  0  0  0  0  0  0  0  0  0  0  # atno 10167 bound_to 10162
  157.0687  130.6339  149.5801 H   0  0  0  0  0  0  0  0  0  0  0  0  # atno 10718 bound_to 10713
  154.0460  135.2885  155.3348 H   0  0  0  0  0  0  0  0  0  0  0  0  # atno 10763 bound_to 10752
  154.6899  135.5230  153.8381 H   0  0  0  0  0  0  0  0  0  0  0  0  # atno 10764 bound_to 10752
  153.0580  135.6603  154.0660 H   0  0  0  0  0  0  0  0  0  0  0  0  # atno 10765 bound_to 10752
  141.1452  133.6680  156.5972 H   0  0  0  0  0  0  0  0  0  0  0  0  # atno 11005 bound_to 11000
  145.1445  140.9590  143.4469 LP  0  0  0  0  0  0  0  0  0  0  0  0  # atno 17320 bound_to 7965
  145.0263  139.3379  143.6047 LP  0  0  0  0  0  0  0  0  0  0  0  0  # atno 17321 bound_to 7965
  140.6663  143.8391  150.6946 LP  0  0  0  0  0  0  0  0  0  0  0  0  # atno 17342 bound_to 10162
  140.1801  143.4122  152.1939 LP  0  0  0  0  0  0  0  0  0  0  0  0  # atno 17343 bound_to 10162
  155.9957  130.5024  150.7468 LP  0  0  0  0  0  0  0  0  0  0  0  0  # atno 17370 bound_to 10713
  157.4896  131.0909  151.0442 LP  0  0  0  0  0  0  0  0  0  0  0  0  # atno 17371 bound_to 10713
  140.3717  134.7600  157.4603 LP  0  0  0  0  0  0  0  0  0  0  0  0  # atno 17394 bound_to 11000
  140.0706  134.5868  155.8646 LP  0  0  0  0  0  0  0  0  0  0  0  0  # atno 17395 bound_to 11000

$$$$
