AV-unprocessed.smi:1471|AV-procd|sdf|5962|dock10
  -GOLD-   22720 6 53D 1   1.00000     0.00000
 Structure written by MMmdl.
 42 43  0  0  0  0  0  0  0  0  1 V2000
  145.9147  136.8586  154.8181 C   0  0  0  0  0  0  0  0  0  0  0  0
  147.3832  136.5841  154.9971 C   0  0  0  0  0  0  0  0  0  0  0  0
  148.1996  137.4867  154.5631 N   0  0  0  0  0  0  0  0  0  0  0  0
  149.5686  137.3542  154.7059 N   0  0  0  0  0  0  0  0  0  0  0  0
  150.3424  138.4989  154.1926 C   0  0  0  0  0  0  0  0  0  0  0  0
  149.7806  139.8756  154.6216 C   0  0  2  0  0  0  0  0  0  0  0  0
  149.7865  140.7636  153.5234 O   0  0  0  0  0  0  0  0  0  0  0  0
  150.5038  140.5413  155.8064 C   0  0  0  0  0  0  0  0  0  0  0  0
  149.7742  141.6698  156.2679 O   0  0  0  0  0  0  0  0  0  0  0  0
  149.6362  141.7209  157.6811 C   0  0  0  0  0  0  0  0  0  0  0  0
  150.9072  142.1741  158.3820 C   0  0  0  0  0  0  0  0  0  0  0  0
  151.2753  143.5367  158.3727 C   0  0  0  0  0  0  0  0  0  0  0  0
  152.4475  143.9609  159.0279 C   0  0  0  0  0  0  0  0  0  0  0  0
  153.2659  143.0224  159.6842 C   0  0  0  0  0  0  0  0  0  0  0  0
  152.9096  141.6605  159.6864 C   0  0  0  0  0  0  0  0  0  0  0  0
  151.7300  141.2364  159.0439 C   0  0  0  0  0  0  0  0  0  0  0  0
  151.3898  139.9255  159.0708 F   0  0  0  0  0  0  0  0  0  0  0  0
  150.1844  136.2640  155.2502 C   0  0  0  0  0  0  0  0  0  0  0  0
  151.4084  136.1606  155.3385 O   0  0  0  0  0  0  0  0  0  0  0  0
  149.2535  135.2358  155.7206 C   0  0  0  0  0  0  0  0  0  0  0  0
  149.8586  134.0797  156.2994 C   0  0  0  0  0  0  0  0  0  0  0  0
  150.3684  133.1544  156.7731 N   0  0  0  0  0  0  0  0  0  0  0  0
  147.9085  135.3752  155.6203 C   0  0  0  0  0  0  0  0  0  0  0  0
  146.9008  134.3453  156.1117 C   0  0  0  0  0  0  0  0  0  0  0  0
  145.4618  136.1218  154.1547 H   0  0  0  0  0  0  0  0  0  0  0  0
  145.7348  137.8452  154.3880 H   0  0  0  0  0  0  0  0  0  0  0  0
  145.3941  136.8193  155.7750 H   0  0  0  0  0  0  0  0  0  0  0  0
  151.3871  138.4497  154.5029 H   0  0  0  0  0  0  0  0  0  0  0  0
  150.3618  138.4370  153.1036 H   0  0  0  0  0  0  0  0  0  0  0  0
  148.7325  139.7561  154.8982 H   0  0  0  0  0  0  0  0  0  0  0  0
  149.6858  140.2578  152.7313 H   0  0  0  0  0  0  0  0  0  0  0  0
  150.6601  139.8278  156.6174 H   0  0  0  0  0  0  0  0  0  0  0  0
  151.4930  140.8554  155.4749 H   0  0  0  0  0  0  0  0  0  0  0  0
  148.8410  142.4297  157.9131 H   0  0  0  0  0  0  0  0  0  0  0  0
  149.3029  140.7597  158.0762 H   0  0  0  0  0  0  0  0  0  0  0  0
  150.6544  144.2624  157.8682 H   0  0  0  0  0  0  0  0  0  0  0  0
  152.7207  145.0057  159.0245 H   0  0  0  0  0  0  0  0  0  0  0  0
  154.1660  143.3462  160.1857 H   0  0  0  0  0  0  0  0  0  0  0  0
  153.5364  140.9405  160.1914 H   0  0  0  0  0  0  0  0  0  0  0  0
  147.3829  133.4617  156.5286 H   0  0  0  0  0  0  0  0  0  0  0  0
  146.2600  134.0137  155.2940 H   0  0  0  0  0  0  0  0  0  0  0  0
  146.2707  134.7728  156.8924 H   0  0  0  0  0  0  0  0  0  0  0  0
  1  2  1  0  0  0  0
  1 25  1  0  0  0  0
  1 26  1  0  0  0  0
  1 27  1  0  0  0  0
  2 23  1  0  0  0  0
  2  3  2  0  0  0  0
  3  4  1  0  0  0  0
  4  5  1  0  0  0  0
  4 18  1  0  0  0  0
  5  6  1  0  0  0  0
  5 28  1  0  0  0  0
  5 29  1  0  0  0  0
  6  7  1  0  0  0  0
  6  8  1  0  0  0  0
  6 30  1  0  0  0  0
  7 31  1  0  0  0  0
  8  9  1  0  0  0  0
  8 32  1  0  0  0  0
  8 33  1  0  0  0  0
  9 10  1  0  0  0  0
 10 11  1  0  0  0  0
 10 34  1  0  0  0  0
 10 35  1  0  0  0  0
 11 16  1  0  0  0  0
 11 12  2  0  0  0  0
 12 13  1  0  0  0  0
 12 36  1  0  0  0  0
 13 14  2  0  0  0  0
 13 37  1  0  0  0  0
 14 15  1  0  0  0  0
 14 38  1  0  0  0  0
 15 16  2  0  0  0  0
 15 39  1  0  0  0  0
 16 17  1  0  0  0  0
 18 19  2  0  0  0  0
 18 20  1  0  0  0  0
 20 21  1  0  0  0  0
 20 23  2  0  0  0  0
 21 22  3  0  0  0  0
 23 24  1  0  0  0  0
 24 40  1  0  0  0  0
 24 41  1  0  0  0  0
 24 42  1  0  0  0  0
M  END
> <s_m_source_file>
AV-unprocessed.smi

> <i_m_source_file_index>
1471

> <i_lp_mmshare_version>
43012

> <i_f3d_flags>
0

> <s_epik_input>
TiNDYyhjMVtDSDNdKWMoPU8pbihuYzFbQ0gzXSlbQ0gyXVtDQEhdKFtPSF0pW0NIMl1PW0NIMl1jMltjSF1bY0hdW2NIXVtjSF1jMkY=

> <s_epik_cmdline>
J2VwaWtfcHl0aG9uJywgJy1waCcsICc3LjAnLCAnLXRuJywgJzgnLCAnLW1hJywgJzIwMCcsICctbWV0YWxfYmluZGluZycsICctaW1hZScsICc8aW5maWxlLm1hZT4nLCAnLW9tYWUnLCAnPG91dGZpbGUubWFlPic=

> <r_lp_tautomer_probability>
1

> <r_epik_Ionization_Penalty>
6.13319e-08

> <r_epik_Ionization_Penalty_Charging>
2.19172e-10

> <r_epik_Ionization_Penalty_Neutral>
6.11128e-08

> <r_epik_State_Penalty>
-0

> <r_epik_Charging_Adjusted_Penalty>
2.19172e-10

> <i_epik_Tot_Q>
0

> <i_epik_Tot_abs_Q>
0

> <r_epik_Metal_State_Penalty>
-0

> <b_epik_Metal_Only>
0

> <s_lp_Force_Field>
OPLS_2005

> <r_lp_Energy>
27.5477

> <b_lp_Chiralities_Consistent>
1

> <s_lp_Variant>
AV-unprocessed.smi:1471-1

> <Gold.Version>
5.8.1

> <Gold.Id.Protein>
6NUR|6NUR_protein|mol2

> <Gold.PLP.Fitness>
48.4385

> <Gold.PLP.PLP>
-39.8528

> <Gold.PLP.part.hbond>
-4.4161

> <Gold.PLP.part.metal>
0.0000

> <Gold.PLP.part.buried>
-5.8197

> <Gold.PLP.part.nonpolar>
-31.4169

> <Gold.PLP.part.repulsive>
0.7589

> <Gold.PLP.ligand.clash>
0.0000

> <Gold.PLP.ligand.torsion>
1.4062

> <Gold.PLP.Chemscore.Hbond>
3.7707

> <Gold.PLP.Chemscore.CHOScore>
0.0000

> <Gold.PLP.Chemscore.Metal>
0.0000

> <Gold.Chemscore.Hbonds>
donor molecule, donor type, donor heavy atom, donor atom, acceptor molecule, acceptor atom, score
      L1  H     7    31       P1  7957  1.00
      P1  H  7989  7998       L1     7  0.22
      P1  H  8011  8017       L1     7  0.35
      P1  H 10752 10763       L1    19  1.00

> <Gold.PLP.Chemscore.Internal.Correction>
0.0861

> <Gold.Rescore>
     Score         DG    S(hbond)    S(metal)    S(lipo)     H(rot)  DE(clash)    DE(int)     intcor
     18.27     -19.83       2.84        0.00      99.33       2.65       0.08       1.48       ----

> <Gold.Chemscore.Fitness>
18.2662

> <Gold.Chemscore.DG>
-19.8257

> <Gold.Chemscore.ZeroCoef>
-5.4800

> <Gold.Chemscore.Hbond>
2.8445

> <Gold.Chemscore.Metal>
0.0000

> <Gold.Chemscore.Lipo>
99.3268

> <Gold.Chemscore.Internal_Hbond>
0.0000

> <Gold.Chemscore.DEClash>
0.0761

> <Gold.Chemscore.DEInternal>
1.4833

> <Gold.Chemscore.Rot>
2.6470

> <Gold.Chemscore.Internal.Correction>
   9.000000E+99

> <Gold.Chemscore.Hbonds>
donor molecule, donor type, donor heavy atom, donor atom, acceptor molecule, acceptor atom, score
      L1  H     7    31       P1  7957  0.96
      P1  H  8011  8017       L1     7  0.01
      P1  H 10752 10763       L1    19  1.00

> <Gold.Chemscore.Hbond.Weighted>
-9.5007

> <Gold.Chemscore.Metal.Weighted>
-0.0000

> <Gold.Chemscore.Lipo.Weighted>
-11.6212

> <Gold.Chemscore.Internal_Hbond.Weighted>
0.0000

> <Gold.Chemscore.DEClash.Weighted>
0.0761

> <Gold.Chemscore.DEInternal.Weighted>
1.4833

> <Gold.Chemscore.Rot.Weighted>
6.7762

> <Gold.Chemscore.Internal.Correction.Weighted>
   9.000000E+99

> <Gold.Protein.RotatedTorsions>
[ 6907 6896 6895 6894 ] final  106.97 input  -60.11 | X-H torsion
[ 7974 7965 7964 7962 ] final  -11.35 input  175.53 | X-H torsion
[ 8008 7997 7996 7995 ] final   50.65 input   59.86 | X-H torsion
[ 10167 10162 10161 10158 ] final  -40.79 input  -65.29 | X-H torsion
[ 10718 10713 10712 10709 ] final  161.00 input   66.30 | X-H torsion
[ 10763 10752 10751 10750 ] final   76.42 input  -60.55 | X-H torsion
[ 11005 11000 10999 10996 ] final   57.52 input  -57.11 | X-H torsion

> <Gold.Protein.ActiveResidues>
 VAL166  LYS551  ARG553  GLY616  TRP617  ASP618  TYR619  PRO620  LYS621  CYS622 
 ASP623  PHE694  ASN695  SER759  ASP760  ASP761  ALA762  ILE779  LEU786  VAL792 
 PHE793  MET794  SER795  GLU796  ALA797  LYS798  CYS799  TRP800  GLU811  SER814 

> <Gold.Protein.RotatedAtoms>
  152.5173  133.9303  159.7577 H   0  0  0  0  0  0  0  0  0  0  0  0  # atno 6907 bound_to 6896
  150.9655  133.6391  159.2754 H   0  0  0  0  0  0  0  0  0  0  0  0  # atno 6908 bound_to 6896
  151.3621  135.0911  159.9490 H   0  0  0  0  0  0  0  0  0  0  0  0  # atno 6909 bound_to 6896
  146.2190  140.2898  142.8367 H   0  0  0  0  0  0  0  0  0  0  0  0  # atno 7974 bound_to 7965
  155.4223  140.3447  155.4272 H   0  0  0  0  0  0  0  0  0  0  0  0  # atno 8008 bound_to 7997
  156.1386  140.1535  156.8987 H   0  0  0  0  0  0  0  0  0  0  0  0  # atno 8009 bound_to 7997
  154.4952  140.0830  156.7661 H   0  0  0  0  0  0  0  0  0  0  0  0  # atno 8010 bound_to 7997
  140.7023  143.3132  151.2974 H   0  0  0  0  0  0  0  0  0  0  0  0  # atno 10167 bound_to 10162
  157.1426  131.0544  151.2319 H   0  0  0  0  0  0  0  0  0  0  0  0  # atno 10718 bound_to 10713
  153.0724  135.4952  154.8333 H   0  0  0  0  0  0  0  0  0  0  0  0  # atno 10763 bound_to 10752
  154.7041  135.3007  154.9299 H   0  0  0  0  0  0  0  0  0  0  0  0  # atno 10764 bound_to 10752
  154.0014  135.6766  153.4812 H   0  0  0  0  0  0  0  0  0  0  0  0  # atno 10765 bound_to 10752
  140.0446  134.5823  155.9338 H   0  0  0  0  0  0  0  0  0  0  0  0  # atno 11005 bound_to 11000
  144.9135  140.7785  143.5793 LP  0  0  0  0  0  0  0  0  0  0  0  0  # atno 17320 bound_to 7965
  145.2830  139.1911  143.4781 LP  0  0  0  0  0  0  0  0  0  0  0  0  # atno 17321 bound_to 7965
  139.6562  144.0271  152.2661 LP  0  0  0  0  0  0  0  0  0  0  0  0  # atno 17342 bound_to 10162
  139.9824  144.6419  150.7889 LP  0  0  0  0  0  0  0  0  0  0  0  0  # atno 17343 bound_to 10162
  157.4293  130.7482  149.6977 LP  0  0  0  0  0  0  0  0  0  0  0  0  # atno 17370 bound_to 10713
  155.9786  130.4050  150.3641 LP  0  0  0  0  0  0  0  0  0  0  0  0  # atno 17371 bound_to 10713
  141.1901  133.6567  156.5395 LP  0  0  0  0  0  0  0  0  0  0  0  0  # atno 17394 bound_to 11000
  140.4013  134.7354  157.4781 LP  0  0  0  0  0  0  0  0  0  0  0  0  # atno 17395 bound_to 11000

$$$$
