AV-unprocessed.smi:144|AV-procd|sdf|1196|dock6
  -GOLD-   2262018353D 1   1.00000     0.00000
 Structure written by MMmdl.
 46 48  0  0  0  0  0  0  0  0  1 V2000
  150.3185  137.0725  159.7248 O   0  0  0  0  0  0  0  0  0  0  0  0
  150.1364  137.5699  158.6146 C   0  0  0  0  0  0  0  0  0  0  0  0
  151.2882  138.3654  157.9722 C   0  0  0  0  0  0  0  0  0  0  0  0
  151.6970  139.5861  158.7057 N   0  0  0  0  0  0  0  0  0  0  0  0
  152.6504  139.4677  159.7478 C   0  0  0  0  0  0  0  0  0  0  0  0
  153.1359  138.3760  160.0468 O   0  0  0  0  0  0  0  0  0  0  0  0
  152.9908  140.7084  160.4351 C   0  0  0  0  0  0  0  0  0  0  0  0
  153.8820  140.6892  161.4406 F   0  0  0  0  0  0  0  0  0  0  0  0
  152.4162  141.8770  160.0837 C   0  0  0  0  0  0  0  0  0  0  0  0
  151.4859  141.9776  159.0652 N   0  0  0  0  0  0  0  0  0  0  0  0
  150.8469  143.3016  158.7070 C   0  0  1  0  0  0  0  0  0  0  0  0
  151.2633  144.3794  159.7144 C   0  0  0  0  0  0  0  0  0  0  0  0
  152.4705  144.9884  159.0352 C   0  0  0  0  0  0  0  0  0  0  0  0
  152.0717  144.9021  157.5660 C   0  0  0  0  0  0  0  0  0  0  0  0
  151.3038  143.7063  157.4482 O   0  0  0  0  0  0  0  0  0  0  0  0
  151.0978  140.8201  158.3569 C   0  0  0  0  0  0  0  0  0  0  0  0
  150.2452  140.8819  157.4684 O   0  0  0  0  0  0  0  0  0  0  0  0
  148.9791  137.4805  157.9288 N   0  0  0  0  0  0  0  0  0  0  0  0
  147.7802  136.8088  158.2871 C   0  0  0  0  0  0  0  0  0  0  0  0
  147.5065  136.6713  159.6628 C   0  0  0  0  0  0  0  0  0  0  0  0
  146.3269  136.0335  160.1026 C   0  0  0  0  0  0  0  0  0  0  0  0
  146.0392  135.8665  161.5871 C   0  0  0  0  0  0  0  0  0  0  0  0
  144.7742  136.1941  161.8529 F   0  0  0  0  0  0  0  0  0  0  0  0
  146.2346  134.5941  161.9306 F   0  0  0  0  0  0  0  0  0  0  0  0
  146.8347  136.6375  162.3295 F   0  0  0  0  0  0  0  0  0  0  0  0
  145.4144  135.5326  159.1508 C   0  0  0  0  0  0  0  0  0  0  0  0
  145.6637  135.6819  157.7696 C   0  0  0  0  0  0  0  0  0  0  0  0
  144.6806  135.1621  156.7311 C   0  0  0  0  0  0  0  0  0  0  0  0
  144.2648  136.1694  155.9633 F   0  0  0  0  0  0  0  0  0  0  0  0
  145.2869  134.2580  155.9622 F   0  0  0  0  0  0  0  0  0  0  0  0
  143.6131  134.5937  157.2932 F   0  0  0  0  0  0  0  0  0  0  0  0
  146.8447  136.3242  157.3431 C   0  0  0  0  0  0  0  0  0  0  0  0
  152.1343  137.6884  157.8444 H   0  0  0  0  0  0  0  0  0  0  0  0
  150.9990  138.6104  156.9491 H   0  0  0  0  0  0  0  0  0  0  0  0
  152.7002  142.7611  160.6347 H   0  0  0  0  0  0  0  0  0  0  0  0
  149.7717  143.1197  158.6680 H   0  0  0  0  0  0  0  0  0  0  0  0
  150.4587  145.1117  159.7925 H   0  0  0  0  0  0  0  0  0  0  0  0
  151.4675  143.9708  160.7050 H   0  0  0  0  0  0  0  0  0  0  0  0
  152.6779  146.0076  159.3619 H   0  0  0  0  0  0  0  0  0  0  0  0
  153.3570  144.3817  159.2239 H   0  0  0  0  0  0  0  0  0  0  0  0
  151.4404  145.7493  157.2950 H   0  0  0  0  0  0  0  0  0  0  0  0
  152.9325  144.8924  156.8972 H   0  0  0  0  0  0  0  0  0  0  0  0
  148.9358  138.0161  157.0741 H   0  0  0  0  0  0  0  0  0  0  0  0
  148.2153  137.0516  160.3841 H   0  0  0  0  0  0  0  0  0  0  0  0
  144.5178  135.0365  159.4910 H   0  0  0  0  0  0  0  0  0  0  0  0
  147.0072  136.4455  156.2832 H   0  0  0  0  0  0  0  0  0  0  0  0
  1  2  2  0  0  0  0
  2  3  1  0  0  0  0
  2 18  1  0  0  0  0
  3  4  1  0  0  0  0
  3 33  1  0  0  0  0
  3 34  1  0  0  0  0
  4 16  1  0  0  0  0
  4  5  1  0  0  0  0
  5  6  2  0  0  0  0
  5  7  1  0  0  0  0
  7  8  1  0  0  0  0
  7  9  2  0  0  0  0
  9 10  1  0  0  0  0
  9 35  1  0  0  0  0
 10 11  1  0  0  0  0
 10 16  1  0  0  0  0
 11 15  1  0  0  0  0
 11 12  1  0  0  0  0
 11 36  1  0  0  0  0
 12 13  1  0  0  0  0
 12 37  1  0  0  0  0
 12 38  1  0  0  0  0
 13 14  1  0  0  0  0
 13 39  1  0  0  0  0
 13 40  1  0  0  0  0
 14 15  1  0  0  0  0
 14 41  1  0  0  0  0
 14 42  1  0  0  0  0
 16 17  2  0  0  0  0
 18 19  1  0  0  0  0
 18 43  1  0  0  0  0
 19 32  1  0  0  0  0
 19 20  2  0  0  0  0
 20 21  1  0  0  0  0
 20 44  1  0  0  0  0
 21 22  1  0  0  0  0
 21 26  2  0  0  0  0
 22 23  1  0  0  0  0
 22 24  1  0  0  0  0
 22 25  1  0  0  0  0
 26 27  1  0  0  0  0
 26 45  1  0  0  0  0
 27 28  1  0  0  0  0
 27 32  2  0  0  0  0
 28 29  1  0  0  0  0
 28 30  1  0  0  0  0
 28 31  1  0  0  0  0
 32 46  1  0  0  0  0
M  END
> <s_m_source_file>
AV-unprocessed.smi

> <i_m_source_file_index>
144

> <i_lp_mmshare_version>
43012

> <i_f3d_flags>
0

> <s_epik_input>
RkMoRikoRiljKFtjSF0xKVtjSF1jKEMoRikoRilGKVtjSF1jMVtOSF1DKD1PKVtDSDJdbjJjKD1PKWMoRilbY0hdbihjMj1PKVtDQEBIXTNbQ0gyXVtDSDJdW0NIMl1PMw==

> <s_epik_cmdline>
J2VwaWtfcHl0aG9uJywgJy1waCcsICc3LjAnLCAnLXRuJywgJzgnLCAnLW1hJywgJzIwMCcsICctbWV0YWxfYmluZGluZycsICctaW1hZScsICc8aW5maWxlLm1hZT4nLCAnLW9tYWUnLCAnPG91dGZpbGUubWFlPic=

> <r_lp_tautomer_probability>
1

> <r_epik_Ionization_Penalty>
3.68082e-06

> <r_epik_Ionization_Penalty_Charging>
3.88729e-08

> <r_epik_Ionization_Penalty_Neutral>
3.64194e-06

> <r_epik_State_Penalty>
-0

> <r_epik_Charging_Adjusted_Penalty>
3.88729e-08

> <i_epik_Tot_Q>
0

> <i_epik_Tot_abs_Q>
0

> <r_epik_Metal_State_Penalty>
-0

> <b_epik_Metal_Only>
0

> <s_epik_Chemistry_Notes>
This compound contains an acetal/aminal-like group ( X-CH(R)-Y where X, Y are N, S, or O) that may be acid/base labile, releasing an aldehyde.

> <s_lp_Force_Field>
OPLS_2005

> <r_lp_Energy>
36.4766

> <b_lp_Chiralities_Consistent>
1

> <s_lp_Variant>
AV-unprocessed.smi:144-2

> <Gold.Version>
5.8.1

> <Gold.Id.Protein>
6NUR|6NUR_protein|mol2

> <Gold.PLP.Fitness>
55.4928

> <Gold.PLP.PLP>
-54.1354

> <Gold.PLP.part.hbond>
-1.2266

> <Gold.PLP.part.metal>
0.0000

> <Gold.PLP.part.buried>
-8.0724

> <Gold.PLP.part.nonpolar>
-45.4897

> <Gold.PLP.part.repulsive>
0.2838

> <Gold.PLP.ligand.clash>
0.0000

> <Gold.PLP.ligand.torsion>
1.1718

> <Gold.PLP.Chemscore.Hbond>
1.0000

> <Gold.PLP.Chemscore.CHOScore>
0.0000

> <Gold.PLP.Chemscore.Metal>
0.0000

> <Gold.Chemscore.Hbonds>
donor molecule, donor type, donor heavy atom, donor atom, acceptor molecule, acceptor atom, score
      P1  H  6896  6908       L1     1  0.71

> <Gold.PLP.Chemscore.Internal.Correction>
0.7011

> <Gold.Rescore>
     Score         DG    S(hbond)    S(metal)    S(lipo)     H(rot)  DE(clash)    DE(int)     intcor
     10.94     -13.81       1.00        0.00      82.75       1.83       0.05       2.82       ----

> <Gold.Chemscore.Fitness>
10.9371

> <Gold.Chemscore.DG>
-13.8076

> <Gold.Chemscore.ZeroCoef>
-5.4800

> <Gold.Chemscore.Hbond>
0.9992

> <Gold.Chemscore.Metal>
0.0000

> <Gold.Chemscore.Lipo>
82.7483

> <Gold.Chemscore.Internal_Hbond>
0.0000

> <Gold.Chemscore.DEClash>
0.0489

> <Gold.Chemscore.DEInternal>
2.8216

> <Gold.Chemscore.Rot>
1.8325

> <Gold.Chemscore.Internal.Correction>
   9.000000E+99

> <Gold.Chemscore.Hbonds>
donor molecule, donor type, donor heavy atom, donor atom, acceptor molecule, acceptor atom, score
      P1  H  6896  6908       L1     1  0.69

> <Gold.Chemscore.Hbond.Weighted>
-3.3372

> <Gold.Chemscore.Metal.Weighted>
-0.0000

> <Gold.Chemscore.Lipo.Weighted>
-9.6816

> <Gold.Chemscore.Internal_Hbond.Weighted>
0.0000

> <Gold.Chemscore.DEClash.Weighted>
0.0489

> <Gold.Chemscore.DEInternal.Weighted>
2.8216

> <Gold.Chemscore.Rot.Weighted>
4.6911

> <Gold.Chemscore.Internal.Correction.Weighted>
   9.000000E+99

> <Gold.Protein.RotatedTorsions>
[ 6907 6896 6895 6894 ] final -146.29 input  -60.11 | X-H torsion
[ 7974 7965 7964 7962 ] final   15.86 input  175.53 | X-H torsion
[ 8008 7997 7996 7995 ] final -174.19 input   59.86 | X-H torsion
[ 10167 10162 10161 10158 ] final  -12.72 input  -65.29 | X-H torsion
[ 10718 10713 10712 10709 ] final -105.23 input   66.30 | X-H torsion
[ 10763 10752 10751 10750 ] final  144.59 input  -60.55 | X-H torsion
[ 11005 11000 10999 10996 ] final  -94.99 input  -57.11 | X-H torsion

> <Gold.Protein.ActiveResidues>
 VAL166  LYS551  ARG553  GLY616  TRP617  ASP618  TYR619  PRO620  LYS621  CYS622 
 ASP623  PHE694  ASN695  SER759  ASP760  ASP761  ALA762  ILE779  LEU786  VAL792 
 PHE793  MET794  SER795  GLU796  ALA797  LYS798  CYS799  TRP800  GLU811  SER814 

> <Gold.Protein.RotatedAtoms>
  151.1397  133.4980  159.2596 H   0  0  0  0  0  0  0  0  0  0  0  0  # atno 6907 bound_to 6896
  151.1669  135.0299  159.8744 H   0  0  0  0  0  0  0  0  0  0  0  0  # atno 6908 bound_to 6896
  152.5462  134.1264  159.8474 H   0  0  0  0  0  0  0  0  0  0  0  0  # atno 6909 bound_to 6896
  146.2266  139.8832  142.8567 H   0  0  0  0  0  0  0  0  0  0  0  0  # atno 7974 bound_to 7965
  155.9669  140.1155  157.0846 H   0  0  0  0  0  0  0  0  0  0  0  0  # atno 8008 bound_to 7997
  154.4146  140.1171  156.5322 H   0  0  0  0  0  0  0  0  0  0  0  0  # atno 8009 bound_to 7997
  155.6647  140.3473  155.4798 H   0  0  0  0  0  0  0  0  0  0  0  0  # atno 8010 bound_to 7997
  140.7167  143.5502  150.9310 H   0  0  0  0  0  0  0  0  0  0  0  0  # atno 10167 bound_to 10162
  156.0337  130.5553  150.7509 H   0  0  0  0  0  0  0  0  0  0  0  0  # atno 10718 bound_to 10713
  153.9914  135.2932  155.3411 H   0  0  0  0  0  0  0  0  0  0  0  0  # atno 10763 bound_to 10752
  154.7212  135.5108  153.8818 H   0  0  0  0  0  0  0  0  0  0  0  0  # atno 10764 bound_to 10752
  153.0808  135.6678  154.0166 H   0  0  0  0  0  0  0  0  0  0  0  0  # atno 10765 bound_to 10752
  141.1455  133.7995  157.0374 H   0  0  0  0  0  0  0  0  0  0  0  0  # atno 11005 bound_to 11000
  145.2492  141.0038  143.3891 LP  0  0  0  0  0  0  0  0  0  0  0  0  # atno 17320 bound_to 7965
  144.9388  139.4212  143.6459 LP  0  0  0  0  0  0  0  0  0  0  0  0  # atno 17321 bound_to 7965
  139.9226  143.6588  152.3093 LP  0  0  0  0  0  0  0  0  0  0  0  0  # atno 17342 bound_to 10162
  139.7010  144.7635  151.1273 LP  0  0  0  0  0  0  0  0  0  0  0  0  # atno 17343 bound_to 10162
  157.5054  131.0921  151.0264 LP  0  0  0  0  0  0  0  0  0  0  0  0  # atno 17370 bound_to 10713
  157.0633  130.5834  149.5389 LP  0  0  0  0  0  0  0  0  0  0  0  0  # atno 17371 bound_to 10713
  140.0714  134.9700  157.1474 LP  0  0  0  0  0  0  0  0  0  0  0  0  # atno 17394 bound_to 11000
  140.3705  134.2396  155.7178 LP  0  0  0  0  0  0  0  0  0  0  0  0  # atno 17395 bound_to 11000

$$$$
