AV-unprocessed.smi:1240|AV-procd|sdf|5199|dock2
  -GOLD-   22720 4283D 1   1.00000     0.00000
 Structure written by MMmdl.
 48 50  0  0  0  0  0  0  0  0  2 V2000
  144.5310  136.6525  151.9215 O   0  0  0  0  0  0  0  0  0  0  0  0
  145.7370  136.4163  151.8561 C   0  0  0  0  0  0  0  0  0  0  0  0
  146.6788  137.2728  152.2741 N   0  0  0  0  0  0  0  0  0  0  0  0
  146.4183  138.5658  152.8961 C   0  0  0  0  0  0  0  0  0  0  0  0
  146.7139  138.5620  154.4201 C   0  0  2  0  0  0  0  0  0  0  0  0
  145.5664  139.1641  155.2811 C   0  0  2  0  0  0  0  0  0  0  0  0
  145.8221  139.1159  156.7794 C   0  0  0  0  0  0  0  0  0  0  0  0
  144.4269  139.3310  157.3489 C   0  0  0  0  0  0  0  0  0  0  0  0
  143.5603  138.6463  156.4555 O   0  0  0  0  0  0  0  0  0  0  0  0
  144.2162  138.4352  155.2086 C   0  0  0  0  0  0  0  0  0  0  0  0
  148.0011  139.2514  154.7383 N   0  3  0  0  0  0  0  0  0  0  0  0
  149.2123  138.4773  154.3718 C   0  0  0  0  0  0  0  0  0  0  0  0
  150.4702  139.1759  154.9162 C   0  0  0  0  0  0  0  0  0  0  0  0
  150.5291  140.5109  154.4273 O   0  0  0  0  0  0  0  0  0  0  0  0
  149.4085  141.2836  154.8414 C   0  0  0  0  0  0  0  0  0  0  0  0
  148.1201  140.6598  154.2812 C   0  0  0  0  0  0  0  0  0  0  0  0
  146.2904  135.2973  151.3572 N   0  0  0  0  0  0  0  0  0  0  0  0
  145.6531  134.1241  150.8685 C   0  0  0  0  0  0  0  0  0  0  0  0
  146.4743  133.0283  150.5316 C   0  0  0  0  0  0  0  0  0  0  0  0
  145.8705  131.8449  150.0618 C   0  0  0  0  0  0  0  0  0  0  0  0
  144.5363  131.6976  149.9233 N   0  0  0  0  0  0  0  0  0  0  0  0
  143.7504  132.7426  150.2587 C   0  0  0  0  0  0  0  0  0  0  0  0
  144.2516  133.9700  150.7374 C   0  0  0  0  0  0  0  0  0  0  0  0
  147.6459  137.0023  152.1700 H   0  0  0  0  0  0  0  0  0  0  0  0
  147.0360  139.3018  152.3820 H   0  0  0  0  0  0  0  0  0  0  0  0
  145.3793  138.8505  152.7233 H   0  0  0  0  0  0  0  0  0  0  0  0
  146.8314  137.5236  154.7350 H   0  0  0  0  0  0  0  0  0  0  0  0
  145.4002  140.2044  154.9977 H   0  0  0  0  0  0  0  0  0  0  0  0
  146.1981  138.1347  157.0732 H   0  0  0  0  0  0  0  0  0  0  0  0
  146.5303  139.8711  157.1218 H   0  0  0  0  0  0  0  0  0  0  0  0
  144.3264  138.9609  158.3693 H   0  0  0  0  0  0  0  0  0  0  0  0
  144.1723  140.3915  157.3431 H   0  0  0  0  0  0  0  0  0  0  0  0
  143.5959  138.7954  154.3874 H   0  0  0  0  0  0  0  0  0  0  0  0
  144.3559  137.3610  155.0807 H   0  0  0  0  0  0  0  0  0  0  0  0
  149.1510  137.4686  154.7816 H   0  0  0  0  0  0  0  0  0  0  0  0
  149.2844  138.3811  153.2882 H   0  0  0  0  0  0  0  0  0  0  0  0
  150.4745  139.1762  156.0075 H   0  0  0  0  0  0  0  0  0  0  0  0
  151.3651  138.6425  154.5951 H   0  0  0  0  0  0  0  0  0  0  0  0
  149.3721  141.3417  155.9306 H   0  0  0  0  0  0  0  0  0  0  0  0
  149.5249  142.3023  154.4711 H   0  0  0  0  0  0  0  0  0  0  0  0
  148.1451  140.7049  153.1919 H   0  0  0  0  0  0  0  0  0  0  0  0
  147.2613  141.2440  154.6105 H   0  0  0  0  0  0  0  0  0  0  0  0
  147.2980  135.2918  151.2980 H   0  0  0  0  0  0  0  0  0  0  0  0
  147.5487  133.0890  150.6259 H   0  0  0  0  0  0  0  0  0  0  0  0
  146.4768  130.9927  149.7925 H   0  0  0  0  0  0  0  0  0  0  0  0
  142.6864  132.5942  150.1487 H   0  0  0  0  0  0  0  0  0  0  0  0
  143.5557  134.7505  151.0013 H   0  0  0  0  0  0  0  0  0  0  0  0
  148.0216  139.2944  155.7472 H   0  0  0  0  0  0  0  0  0  0  0  0
  1  2  2  0  0  0  0
  2  3  1  0  0  0  0
  2 17  1  0  0  0  0
  3  4  1  0  0  0  0
  3 24  1  0  0  0  0
  4  5  1  0  0  0  0
  4 25  1  0  0  0  0
  4 26  1  0  0  0  0
  5  6  1  0  0  0  0
  5 11  1  0  0  0  0
  5 27  1  0  0  0  0
  6 10  1  0  0  0  0
  6  7  1  0  0  0  0
  6 28  1  0  0  0  0
  7  8  1  0  0  0  0
  7 29  1  0  0  0  0
  7 30  1  0  0  0  0
  8  9  1  0  0  0  0
  8 31  1  0  0  0  0
  8 32  1  0  0  0  0
  9 10  1  0  0  0  0
 10 33  1  0  0  0  0
 10 34  1  0  0  0  0
 11 16  1  0  0  0  0
 11 12  1  0  0  0  0
 11 48  1  0  0  0  0
 12 13  1  0  0  0  0
 12 35  1  0  0  0  0
 12 36  1  0  0  0  0
 13 14  1  0  0  0  0
 13 37  1  0  0  0  0
 13 38  1  0  0  0  0
 14 15  1  0  0  0  0
 15 16  1  0  0  0  0
 15 39  1  0  0  0  0
 15 40  1  0  0  0  0
 16 41  1  0  0  0  0
 16 42  1  0  0  0  0
 17 18  1  0  0  0  0
 17 43  1  0  0  0  0
 18 23  1  0  0  0  0
 18 19  2  0  0  0  0
 19 20  1  0  0  0  0
 19 44  1  0  0  0  0
 20 21  2  0  0  0  0
 20 45  1  0  0  0  0
 21 22  1  0  0  0  0
 22 23  2  0  0  0  0
 22 46  1  0  0  0  0
 23 47  1  0  0  0  0
M  CHG  1  11   1
M  END
> <s_m_source_file>
AV-unprocessed.smi

> <i_m_source_file_index>
1240

> <i_lp_mmshare_version>
43012

> <i_f3d_flags>
0

> <s_epik_input>
W2NIXTFbY0hdbltjSF1bY0hdYzFbTkhdQyg9TylbTkhdW0NIMl1bQ0BIXShbQ0BASF0yW0NIMl1bQ0gyXU9bQ0gyXTIpTjNbQ0gyXVtDSDJdT1tDSDJdW0NIMl0z

> <s_epik_cmdline>
J2VwaWtfcHl0aG9uJywgJy1waCcsICc3LjAnLCAnLXRuJywgJzgnLCAnLW1hJywgJzIwMCcsICctbWV0YWxfYmluZGluZycsICctaW1hZScsICc8aW5maWxlLm1hZT4nLCAnLW9tYWUnLCAnPG91dGZpbGUubWFlPic=

> <r_epik_Ionization_Penalty>
1.08433

> <r_epik_Ionization_Penalty_Charging>
0.98326

> <r_epik_Ionization_Penalty_Neutral>
0.10107

> <r_epik_State_Penalty>
1.11265

> <r_epik_Charging_Adjusted_Penalty>
2.09591

> <i_epik_Tot_Q>
1

> <i_epik_Tot_abs_Q>
1

> <r_epik_Metal_State_Penalty>
1.10731

> <b_epik_Metal_Only>
0

> <s_lp_Force_Field>
OPLS_2005

> <r_lp_Energy>
43.6027

> <b_lp_Chiralities_Consistent>
1

> <s_lp_Variant>
AV-unprocessed.smi:1240-5

> <Gold.Version>
5.8.1

> <Gold.Id.Protein>
6NUR|6NUR_protein|mol2

> <Gold.PLP.Fitness>
45.0460

> <Gold.PLP.PLP>
-32.1028

> <Gold.PLP.part.hbond>
-3.6803

> <Gold.PLP.part.metal>
0.0000

> <Gold.PLP.part.buried>
-5.1095

> <Gold.PLP.part.nonpolar>
-26.1226

> <Gold.PLP.part.repulsive>
1.9438

> <Gold.PLP.ligand.clash>
0.0000

> <Gold.PLP.ligand.torsion>
0.9371

> <Gold.PLP.Chemscore.Hbond>
3.0278

> <Gold.PLP.Chemscore.CHOScore>
1.8058

> <Gold.PLP.Chemscore.Metal>
0.0000

> <Gold.Chemscore.Hbonds>
donor molecule, donor type, donor heavy atom, donor atom, acceptor molecule, acceptor atom, score
      L1  H     3    24       P1  7948  1.00
      L1  H    17    43       P1  7948  0.93
      P1  H  7989  7998       L1    14  0.87
      P1  H 10785 10796       L1    21  0.10
      L1  C    20    45       P1 10747  0.88
      L1  C    22    46       P1 10186  0.87

> <Gold.PLP.Chemscore.Internal.Correction>
0.3164

> <Gold.Rescore>
     Score         DG    S(hbond)    S(metal)    S(lipo)     H(rot)  DE(clash)    DE(int)     intcor
     16.86     -19.11       2.85        0.00      72.45       1.70       0.06       2.19       ----

> <Gold.Chemscore.Fitness>
16.8561

> <Gold.Chemscore.DG>
-19.1072

> <Gold.Chemscore.ZeroCoef>
-5.4800

> <Gold.Chemscore.Hbond>
2.8468

> <Gold.Chemscore.Metal>
0.0000

> <Gold.Chemscore.Lipo>
72.4461

> <Gold.Chemscore.Internal_Hbond>
0.0000

> <Gold.Chemscore.DEClash>
0.0636

> <Gold.Chemscore.DEInternal>
2.1874

> <Gold.Chemscore.Rot>
1.7021

> <Gold.Chemscore.Internal.Correction>
   9.000000E+99

> <Gold.Chemscore.Hbonds>
donor molecule, donor type, donor heavy atom, donor atom, acceptor molecule, acceptor atom, score
      L1  H     3    24       P1  7948  0.93
      L1  H    17    43       P1  7948  0.70
      P1  H  7989  7998       L1    14  0.78
      P1  H 10785 10796       L1    21  0.07

> <Gold.Chemscore.Hbond.Weighted>
-9.5085

> <Gold.Chemscore.Metal.Weighted>
-0.0000

> <Gold.Chemscore.Lipo.Weighted>
-8.4762

> <Gold.Chemscore.Internal_Hbond.Weighted>
0.0000

> <Gold.Chemscore.DEClash.Weighted>
0.0636

> <Gold.Chemscore.DEInternal.Weighted>
2.1874

> <Gold.Chemscore.Rot.Weighted>
4.3575

> <Gold.Chemscore.Internal.Correction.Weighted>
   9.000000E+99

> <Gold.Protein.RotatedTorsions>
[ 6907 6896 6895 6894 ] final   90.82 input  -60.11 | X-H torsion
[ 7974 7965 7964 7962 ] final -163.86 input  175.53 | X-H torsion
[ 8008 7997 7996 7995 ] final -172.50 input   59.86 | X-H torsion
[ 10167 10162 10161 10158 ] final   38.35 input  -65.29 | X-H torsion
[ 10718 10713 10712 10709 ] final -178.55 input   66.30 | X-H torsion
[ 10763 10752 10751 10750 ] final   74.17 input  -60.55 | X-H torsion
[ 11005 11000 10999 10996 ] final    8.46 input  -57.11 | X-H torsion

> <Gold.Protein.ActiveResidues>
 VAL166  LYS551  ARG553  GLY616  TRP617  ASP618  TYR619  PRO620  LYS621  CYS622 
 ASP623  PHE694  ASN695  SER759  ASP760  ASP761  ALA762  ILE779  LEU786  VAL792 
 PHE793  MET794  SER795  GLU796  ALA797  LYS798  CYS799  TRP800  GLU811  SER814 

> <Gold.Protein.RotatedAtoms>
  152.5447  134.1752  159.8612 H   0  0  0  0  0  0  0  0  0  0  0  0  # atno 6907 bound_to 6896
  151.1759  133.4748  159.2601 H   0  0  0  0  0  0  0  0  0  0  0  0  # atno 6908 bound_to 6896
  151.1227  135.0099  159.8601 H   0  0  0  0  0  0  0  0  0  0  0  0  # atno 6909 bound_to 6896
  144.7313  140.3046  143.6198 H   0  0  0  0  0  0  0  0  0  0  0  0  # atno 7974 bound_to 7965
  155.9454  140.1116  157.1021 H   0  0  0  0  0  0  0  0  0  0  0  0  # atno 8008 bound_to 7997
  154.4098  140.1211  156.5049 H   0  0  0  0  0  0  0  0  0  0  0  0  # atno 8009 bound_to 7997
  155.6909  140.3472  155.4895 H   0  0  0  0  0  0  0  0  0  0  0  0  # atno 8010 bound_to 7997
  140.3945  144.1808  150.6131 H   0  0  0  0  0  0  0  0  0  0  0  0  # atno 10167 bound_to 10162
  156.8460  130.9703  151.3096 H   0  0  0  0  0  0  0  0  0  0  0  0  # atno 10718 bound_to 10713
  153.0569  135.5036  154.8002 H   0  0  0  0  0  0  0  0  0  0  0  0  # atno 10763 bound_to 10752
  154.6821  135.2970  154.9601 H   0  0  0  0  0  0  0  0  0  0  0  0  # atno 10764 bound_to 10752
  154.0384  135.6720  153.4840 H   0  0  0  0  0  0  0  0  0  0  0  0  # atno 10765 bound_to 10752
  140.5367  134.0414  155.7890 H   0  0  0  0  0  0  0  0  0  0  0  0  # atno 11005 bound_to 11000
  145.7726  139.1862  143.2204 LP  0  0  0  0  0  0  0  0  0  0  0  0  # atno 17320 bound_to 7965
  146.0898  140.7668  142.9600 LP  0  0  0  0  0  0  0  0  0  0  0  0  # atno 17321 bound_to 7965
  140.4805  143.2381  151.8962 LP  0  0  0  0  0  0  0  0  0  0  0  0  # atno 17342 bound_to 10162
  139.4787  144.5274  151.8715 LP  0  0  0  0  0  0  0  0  0  0  0  0  # atno 17343 bound_to 10162
  157.6329  130.8744  149.9307 LP  0  0  0  0  0  0  0  0  0  0  0  0  # atno 17370 bound_to 10713
  156.0854  130.3668  150.0498 LP  0  0  0  0  0  0  0  0  0  0  0  0  # atno 17371 bound_to 10713
  141.1251  133.9397  157.2652 LP  0  0  0  0  0  0  0  0  0  0  0  0  # atno 17394 bound_to 11000
  139.9525  135.0172  156.9036 LP  0  0  0  0  0  0  0  0  0  0  0  0  # atno 17395 bound_to 11000

$$$$
