AV-unprocessed.smi:1851|AV-procd|sdf|7523|dock8
  -GOLD-   22720 9233D 1   1.00000     0.00000
 Structure written by MMmdl.
 39 41  0  0  0  0  0  0  0  0  1 V2000
  149.3175  135.7243  158.8059 O   0  0  0  0  0  0  0  0  0  0  0  0
  148.8140  136.8367  158.9529 C   0  0  0  0  0  0  0  0  0  0  0  0
  149.4288  137.9932  158.6663 N   0  0  0  0  0  0  0  0  0  0  0  0
  150.7865  138.1146  158.1452 C   0  0  0  0  0  0  0  0  0  0  0  0
  151.2552  139.5303  158.3157 C   0  0  0  0  0  0  0  0  0  0  0  0
  150.7292  140.5375  157.6175 N   0  0  0  0  0  0  0  0  0  0  0  0
  151.4305  141.6317  158.0849 C   0  0  0  0  0  0  0  0  0  0  0  0
  151.3379  142.9988  157.7386 C   0  0  0  0  0  0  0  0  0  0  0  0
  152.1670  143.9518  158.3664 C   0  0  0  0  0  0  0  0  0  0  0  0
  153.0988  143.5523  159.3463 C   0  0  0  0  0  0  0  0  0  0  0  0
  153.2086  142.1949  159.7043 C   0  0  0  0  0  0  0  0  0  0  0  0
  152.3793  141.2479  159.0743 C   0  0  0  0  0  0  0  0  0  0  0  0
  152.2343  139.8695  159.1922 N   0  0  0  0  0  0  0  0  0  0  0  0
  152.9829  139.0027  160.0882 C   0  0  0  0  0  0  0  0  0  0  0  0
  154.4651  139.3916  160.1369 C   0  0  0  0  0  0  0  0  0  0  0  0
  154.9274  139.2530  161.4729 O   0  0  0  0  0  0  0  0  0  0  0  0
  154.7407  138.0421  162.1049 C   0  0  0  0  0  0  0  0  0  0  0  0
  154.5779  138.0696  163.5056 C   0  0  0  0  0  0  0  0  0  0  0  0
  154.3833  136.8796  164.2329 C   0  0  0  0  0  0  0  0  0  0  0  0
  154.3490  135.6429  163.5620 C   0  0  0  0  0  0  0  0  0  0  0  0
  154.1116  134.1830  164.4506 Cl  0  0  0  0  0  0  0  0  0  0  0  0
  154.5088  135.6005  162.1644 C   0  0  0  0  0  0  0  0  0  0  0  0
  154.7037  136.7913  161.4374 C   0  0  0  0  0  0  0  0  0  0  0  0
  147.7982  137.0176  159.3364 H   0  0  0  0  0  0  0  0  0  0  0  0
  148.9225  138.8519  158.8265 H   0  0  0  0  0  0  0  0  0  0  0  0
  151.4677  137.4331  158.6581 H   0  0  0  0  0  0  0  0  0  0  0  0
  150.8012  137.8378  157.0912 H   0  0  0  0  0  0  0  0  0  0  0  0
  150.6267  143.3150  156.9899 H   0  0  0  0  0  0  0  0  0  0  0  0
  152.0870  144.9943  158.0955 H   0  0  0  0  0  0  0  0  0  0  0  0
  153.7292  144.2884  159.8231 H   0  0  0  0  0  0  0  0  0  0  0  0
  153.9209  141.8856  160.4546 H   0  0  0  0  0  0  0  0  0  0  0  0
  152.5425  139.0403  161.0844 H   0  0  0  0  0  0  0  0  0  0  0  0
  152.8762  137.9729  159.7457 H   0  0  0  0  0  0  0  0  0  0  0  0
  155.0373  138.7441  159.4703 H   0  0  0  0  0  0  0  0  0  0  0  0
  154.5886  140.4223  159.8008 H   0  0  0  0  0  0  0  0  0  0  0  0
  154.6034  139.0140  164.0292 H   0  0  0  0  0  0  0  0  0  0  0  0
  154.2607  136.9174  165.3055 H   0  0  0  0  0  0  0  0  0  0  0  0
  154.4824  134.6533  161.6460 H   0  0  0  0  0  0  0  0  0  0  0  0
  154.8221  136.7172  160.3672 H   0  0  0  0  0  0  0  0  0  0  0  0
  1  2  2  0  0  0  0
  2  3  1  0  0  0  0
  2 24  1  0  0  0  0
  3  4  1  0  0  0  0
  3 25  1  0  0  0  0
  4  5  1  0  0  0  0
  4 26  1  0  0  0  0
  4 27  1  0  0  0  0
  5 13  1  0  0  0  0
  5  6  2  0  0  0  0
  6  7  1  0  0  0  0
  7 12  2  0  0  0  0
  7  8  1  0  0  0  0
  8  9  2  0  0  0  0
  8 28  1  0  0  0  0
  9 10  1  0  0  0  0
  9 29  1  0  0  0  0
 10 11  2  0  0  0  0
 10 30  1  0  0  0  0
 11 12  1  0  0  0  0
 11 31  1  0  0  0  0
 12 13  1  0  0  0  0
 13 14  1  0  0  0  0
 14 15  1  0  0  0  0
 14 32  1  0  0  0  0
 14 33  1  0  0  0  0
 15 16  1  0  0  0  0
 15 34  1  0  0  0  0
 15 35  1  0  0  0  0
 16 17  1  0  0  0  0
 17 23  1  0  0  0  0
 17 18  2  0  0  0  0
 18 19  1  0  0  0  0
 18 36  1  0  0  0  0
 19 20  2  0  0  0  0
 19 37  1  0  0  0  0
 20 21  1  0  0  0  0
 20 22  1  0  0  0  0
 22 23  2  0  0  0  0
 22 38  1  0  0  0  0
 23 39  1  0  0  0  0
M  END
> <s_m_source_file>
AV-unprocessed.smi

> <i_m_source_file_index>
1851

> <i_lp_mmshare_version>
43012

> <i_f3d_flags>
0

> <s_epik_input>
Tz1bQ0hdW05IXVtDSDJdYyhuMSluKGMoYzEyKVtjSF1bY0hdW2NIXVtjSF0yKVtDSDJdW0NIMl1PYzNbY0hdW2NIXWMoQ2wpW2NIXVtjSF0z

> <s_epik_cmdline>
J2VwaWtfcHl0aG9uJywgJy1waCcsICc3LjAnLCAnLXRuJywgJzgnLCAnLW1hJywgJzIwMCcsICctbWV0YWxfYmluZGluZycsICctaW1hZScsICc8aW5maWxlLm1hZT4nLCAnLW9tYWUnLCAnPG91dGZpbGUubWFlPic=

> <r_lp_tautomer_probability>
1

> <r_epik_Ionization_Penalty>
0.0670201

> <r_epik_Ionization_Penalty_Charging>
0

> <r_epik_Ionization_Penalty_Neutral>
0.0670201

> <r_epik_State_Penalty>
0.0585513

> <r_epik_Charging_Adjusted_Penalty>
0.0585513

> <i_epik_Tot_Q>
0

> <i_epik_Tot_abs_Q>
0

> <r_epik_Metal_State_Penalty>
0.0525581

> <b_epik_Metal_Only>
0

> <s_lp_Force_Field>
OPLS_2005

> <r_lp_Energy>
12.626

> <b_lp_Chiralities_Consistent>
1

> <s_lp_Variant>
AV-unprocessed.smi:1851-1

> <Gold.Version>
5.8.1

> <Gold.Id.Protein>
6NUR|6NUR_protein|mol2

> <Gold.PLP.Fitness>
44.6386

> <Gold.PLP.PLP>
-43.7621

> <Gold.PLP.part.hbond>
-1.0000

> <Gold.PLP.part.metal>
0.0000

> <Gold.PLP.part.buried>
-5.8608

> <Gold.PLP.part.nonpolar>
-37.6345

> <Gold.PLP.part.repulsive>
0.1792

> <Gold.PLP.ligand.clash>
0.0000

> <Gold.PLP.ligand.torsion>
1.0959

> <Gold.PLP.Chemscore.Hbond>
1.0000

> <Gold.PLP.Chemscore.CHOScore>
0.0000

> <Gold.PLP.Chemscore.Metal>
0.0000

> <Gold.Chemscore.Hbonds>
donor molecule, donor type, donor heavy atom, donor atom, acceptor molecule, acceptor atom, score
      P1  H  6896  6908       L1     1  1.00

> <Gold.PLP.Chemscore.Internal.Correction>
0.0683

> <Gold.Rescore>
     Score         DG    S(hbond)    S(metal)    S(lipo)     H(rot)  DE(clash)    DE(int)     intcor
     16.77     -17.79       1.00        0.00     129.61       2.42       0.04       0.97       ----

> <Gold.Chemscore.Fitness>
16.7730

> <Gold.Chemscore.DG>
-17.7860

> <Gold.Chemscore.ZeroCoef>
-5.4800

> <Gold.Chemscore.Hbond>
0.9995

> <Gold.Chemscore.Metal>
0.0000

> <Gold.Chemscore.Lipo>
129.6080

> <Gold.Chemscore.Internal_Hbond>
0.0000

> <Gold.Chemscore.DEClash>
0.0427

> <Gold.Chemscore.DEInternal>
0.9703

> <Gold.Chemscore.Rot>
2.4205

> <Gold.Chemscore.Internal.Correction>
   9.000000E+99

> <Gold.Chemscore.Hbonds>
donor molecule, donor type, donor heavy atom, donor atom, acceptor molecule, acceptor atom, score
      P1  H  6896  6908       L1     1  1.00

> <Gold.Chemscore.Hbond.Weighted>
-3.3384

> <Gold.Chemscore.Metal.Weighted>
-0.0000

> <Gold.Chemscore.Lipo.Weighted>
-15.1641

> <Gold.Chemscore.Internal_Hbond.Weighted>
0.0000

> <Gold.Chemscore.DEClash.Weighted>
0.0427

> <Gold.Chemscore.DEInternal.Weighted>
0.9703

> <Gold.Chemscore.Rot.Weighted>
6.1965

> <Gold.Chemscore.Internal.Correction.Weighted>
   9.000000E+99

> <Gold.Protein.RotatedTorsions>
[ 6907 6896 6895 6894 ] final  178.38 input  -60.11 | X-H torsion
[ 7974 7965 7964 7962 ] final  -72.84 input  175.53 | X-H torsion
[ 8008 7997 7996 7995 ] final   77.67 input   59.86 | X-H torsion
[ 10167 10162 10161 10158 ] final  -30.90 input  -65.29 | X-H torsion
[ 10718 10713 10712 10709 ] final  144.65 input   66.30 | X-H torsion
[ 10763 10752 10751 10750 ] final  -95.09 input  -60.55 | X-H torsion
[ 11005 11000 10999 10996 ] final  -41.47 input  -57.11 | X-H torsion

> <Gold.Protein.ActiveResidues>
 VAL166  LYS551  ARG553  GLY616  TRP617  ASP618  TYR619  PRO620  LYS621  CYS622 
 ASP623  PHE694  ASN695  SER759  ASP760  ASP761  ALA762  ILE779  LEU786  VAL792 
 PHE793  MET794  SER795  GLU796  ALA797  LYS798  CYS799  TRP800  GLU811  SER814 

> <Gold.Protein.RotatedAtoms>
  151.6888  133.3311  159.3237 H   0  0  0  0  0  0  0  0  0  0  0  0  # atno 6907 bound_to 6896
  150.7788  134.6716  159.6404 H   0  0  0  0  0  0  0  0  0  0  0  0  # atno 6908 bound_to 6896
  152.3839  134.6550  160.0185 H   0  0  0  0  0  0  0  0  0  0  0  0  # atno 6909 bound_to 6896
  145.6600  140.9256  143.0939 H   0  0  0  0  0  0  0  0  0  0  0  0  # atno 7974 bound_to 7965
  155.8448  140.3460  155.5655 H   0  0  0  0  0  0  0  0  0  0  0  0  # atno 8008 bound_to 7997
  155.8101  140.0897  157.1928 H   0  0  0  0  0  0  0  0  0  0  0  0  # atno 8009 bound_to 7997
  154.4006  140.1449  156.3364 H   0  0  0  0  0  0  0  0  0  0  0  0  # atno 8010 bound_to 7997
  140.7243  143.3812  151.1597 H   0  0  0  0  0  0  0  0  0  0  0  0  # atno 10167 bound_to 10162
  157.3546  131.0956  151.0970 H   0  0  0  0  0  0  0  0  0  0  0  0  # atno 10718 bound_to 10713
  154.7116  135.5133  153.8675 H   0  0  0  0  0  0  0  0  0  0  0  0  # atno 10763 bound_to 10752
  153.0785  135.6624  154.0103 H   0  0  0  0  0  0  0  0  0  0  0  0  # atno 10764 bound_to 10752
  153.9944  135.3017  155.3388 H   0  0  0  0  0  0  0  0  0  0  0  0  # atno 10765 bound_to 10752
  141.0248  133.6846  156.2462 H   0  0  0  0  0  0  0  0  0  0  0  0  # atno 11005 bound_to 11000
  144.7092  139.8436  143.7420 LP  0  0  0  0  0  0  0  0  0  0  0  0  # atno 17320 bound_to 7965
  146.1133  139.4141  143.0274 LP  0  0  0  0  0  0  0  0  0  0  0  0  # atno 17321 bound_to 7965
  139.7401  143.8937  152.3047 LP  0  0  0  0  0  0  0  0  0  0  0  0  # atno 17342 bound_to 10162
  139.8756  144.7045  150.8937 LP  0  0  0  0  0  0  0  0  0  0  0  0  # atno 17343 bound_to 10162
  157.2132  130.6447  149.5782 LP  0  0  0  0  0  0  0  0  0  0  0  0  # atno 17370 bound_to 10713
  155.9727  130.4653  150.6249 LP  0  0  0  0  0  0  0  0  0  0  0  0  # atno 17371 bound_to 10713
  140.6510  134.5067  157.5577 LP  0  0  0  0  0  0  0  0  0  0  0  0  # atno 17394 bound_to 11000
  139.9169  134.8228  156.1338 LP  0  0  0  0  0  0  0  0  0  0  0  0  # atno 17395 bound_to 11000

$$$$
