AV-unprocessed.smi:3116|AV-procd|sdf|11862|dock6
  -GOLD-   2272017243D 1   1.00000     0.00000
 Structure written by MMmdl.
 34 34  0  0  0  0  0  0  0  0  2 V2000
  147.6606  141.9206  153.9865 C   0  0  0  0  0  0  0  0  0  0  0  0
  148.3616  141.0398  155.0369 C   0  0  2  0  0  0  0  0  0  0  0  0
  149.3255  141.8292  155.8385 N   0  3  0  0  0  0  0  0  0  0  0  0
  149.5808  141.3373  157.2121 C   0  0  2  0  0  0  0  0  0  0  0  0
  148.8514  142.2520  158.2132 C   0  0  0  0  0  0  0  0  0  0  0  0
  151.1079  141.2432  157.4707 C   0  0  2  0  0  0  0  0  0  0  0  0
  151.4733  140.1232  158.4642 C   0  0  0  0  0  0  0  0  0  0  0  0
  151.6673  142.5114  157.9212 N   0  0  0  0  0  0  0  0  0  0  0  0
  151.6591  143.7277  157.2700 C   0  0  0  0  0  0  0  0  0  0  0  0
  152.3013  144.6257  158.0734 C   0  0  0  0  0  0  0  0  0  0  0  0
  152.6762  143.8557  159.2094 C   0  0  0  0  0  0  0  0  0  0  0  0
  152.2968  142.5916  159.1155 N   0  0  0  0  0  0  0  0  0  0  0  0
  149.0689  139.8636  154.3531 C   0  0  0  0  0  0  0  0  0  0  0  0
  148.3059  139.0201  153.6529 N   0  0  0  0  0  0  0  0  0  0  0  0
  150.2871  139.7200  154.4428 O   0  0  0  0  0  0  0  0  0  0  0  0
  146.9596  141.3397  153.3857 H   0  0  0  0  0  0  0  0  0  0  0  0
  148.3801  142.3780  153.3060 H   0  0  0  0  0  0  0  0  0  0  0  0
  147.0912  142.7246  154.4530 H   0  0  0  0  0  0  0  0  0  0  0  0
  147.6160  140.6227  155.7162 H   0  0  0  0  0  0  0  0  0  0  0  0
  150.2073  141.8199  155.3462 H   0  0  0  0  0  0  0  0  0  0  0  0
  149.1577  140.3376  157.3224 H   0  0  0  0  0  0  0  0  0  0  0  0
  148.9244  141.8766  159.2341 H   0  0  0  0  0  0  0  0  0  0  0  0
  147.7892  142.3227  157.9764 H   0  0  0  0  0  0  0  0  0  0  0  0
  149.2622  143.2621  158.1993 H   0  0  0  0  0  0  0  0  0  0  0  0
  151.5940  141.0107  156.5216 H   0  0  0  0  0  0  0  0  0  0  0  0
  151.1881  139.1418  158.0848 H   0  0  0  0  0  0  0  0  0  0  0  0
  150.9775  140.2630  159.4254 H   0  0  0  0  0  0  0  0  0  0  0  0
  152.5482  140.0980  158.6469 H   0  0  0  0  0  0  0  0  0  0  0  0
  151.2011  143.8530  156.3000 H   0  0  0  0  0  0  0  0  0  0  0  0
  152.4778  145.6731  157.8787 H   0  0  0  0  0  0  0  0  0  0  0  0
  153.2092  144.1753  160.0927 H   0  0  0  0  0  0  0  0  0  0  0  0
  148.7200  138.2245  153.1890 H   0  0  0  0  0  0  0  0  0  0  0  0
  147.3097  139.1773  153.5954 H   0  0  0  0  0  0  0  0  0  0  0  0
  149.0011  142.7846  155.8817 H   0  0  0  0  0  0  0  0  0  0  0  0
  1  2  1  0  0  0  0
  1 16  1  0  0  0  0
  1 17  1  0  0  0  0
  1 18  1  0  0  0  0
  2  3  1  0  0  0  0
  2 13  1  0  0  0  0
  2 19  1  0  0  0  0
  3  4  1  0  0  0  0
  3 20  1  0  0  0  0
  3 34  1  0  0  0  0
  4  5  1  0  0  0  0
  4  6  1  0  0  0  0
  4 21  1  0  0  0  0
  5 22  1  0  0  0  0
  5 23  1  0  0  0  0
  5 24  1  0  0  0  0
  6  7  1  0  0  0  0
  6  8  1  0  0  0  0
  6 25  1  0  0  0  0
  7 26  1  0  0  0  0
  7 27  1  0  0  0  0
  7 28  1  0  0  0  0
  8 12  1  0  0  0  0
  8  9  1  0  0  0  0
  9 10  2  0  0  0  0
  9 29  1  0  0  0  0
 10 11  1  0  0  0  0
 10 30  1  0  0  0  0
 11 12  2  0  0  0  0
 11 31  1  0  0  0  0
 13 14  1  0  0  0  0
 13 15  2  0  0  0  0
 14 32  1  0  0  0  0
 14 33  1  0  0  0  0
M  CHG  1   3   1
M  END
> <s_m_source_file>
AV-unprocessed.smi

> <i_m_source_file_index>
3116

> <i_lp_mmshare_version>
43012

> <i_f3d_flags>
0

> <s_epik_input>
W05IMl1DKD1PKVtDQEhdKFtDSDNdKVtOSF1bQ0BIXShbQ0gzXSlbQ0BIXShbQ0gzXSluMVtjSF1bY0hdW2NIXW4x

> <s_epik_cmdline>
J2VwaWtfcHl0aG9uJywgJy1waCcsICc3LjAnLCAnLXRuJywgJzgnLCAnLW1hJywgJzIwMCcsICctbWV0YWxfYmluZGluZycsICctaW1hZScsICc8aW5maWxlLm1hZT4nLCAnLW9tYWUnLCAnPG91dGZpbGUubWFlPic=

> <r_lp_tautomer_probability>
1

> <r_epik_Ionization_Penalty>
0.15658

> <r_epik_Ionization_Penalty_Charging>
0.156568

> <r_epik_Ionization_Penalty_Neutral>
1.19778e-05

> <r_epik_State_Penalty>
0.145866

> <r_epik_Charging_Adjusted_Penalty>
0.302434

> <i_epik_Tot_Q>
1

> <i_epik_Tot_abs_Q>
1

> <r_epik_Metal_State_Penalty>
0.146064

> <b_epik_Metal_Only>
0

> <s_lp_Force_Field>
OPLS_2005

> <r_lp_Energy>
9.5332

> <b_lp_Chiralities_Consistent>
1

> <s_lp_Variant>
AV-unprocessed.smi:3116-1

> <Gold.Version>
5.8.1

> <Gold.Id.Protein>
6NUR|6NUR_protein|mol2

> <Gold.PLP.Fitness>
43.4480

> <Gold.PLP.PLP>
-33.6899

> <Gold.PLP.part.hbond>
-3.5696

> <Gold.PLP.part.metal>
0.0000

> <Gold.PLP.part.buried>
-4.5742

> <Gold.PLP.part.nonpolar>
-25.4543

> <Gold.PLP.part.repulsive>
0.3027

> <Gold.PLP.ligand.clash>
0.0000

> <Gold.PLP.ligand.torsion>
1.6401

> <Gold.PLP.Chemscore.Hbond>
3.3174

> <Gold.PLP.Chemscore.CHOScore>
1.0000

> <Gold.PLP.Chemscore.Metal>
0.0000

> <Gold.Chemscore.Hbonds>
donor molecule, donor type, donor heavy atom, donor atom, acceptor molecule, acceptor atom, score
      L1  H     3    34       P1  8028  2.00
      L1  H    14    32       P1  7948  0.11
      P1  H  7989  7998       L1    15  1.00
      L1  C     9    29       P1  8028  1.00

> <Gold.PLP.Chemscore.Internal.Correction>
0.0861

> <Gold.Rescore>
     Score         DG    S(hbond)    S(metal)    S(lipo)     H(rot)  DE(clash)    DE(int)     intcor
     13.71     -15.17       2.32        0.00      70.22       2.45       0.03       1.44       ----

> <Gold.Chemscore.Fitness>
13.7065

> <Gold.Chemscore.DG>
-15.1738

> <Gold.Chemscore.ZeroCoef>
-5.4800

> <Gold.Chemscore.Hbond>
2.3179

> <Gold.Chemscore.Metal>
0.0000

> <Gold.Chemscore.Lipo>
70.2163

> <Gold.Chemscore.Internal_Hbond>
0.0000

> <Gold.Chemscore.DEClash>
0.0251

> <Gold.Chemscore.DEInternal>
1.4422

> <Gold.Chemscore.Rot>
2.4465

> <Gold.Chemscore.Internal.Correction>
   9.000000E+99

> <Gold.Chemscore.Hbonds>
donor molecule, donor type, donor heavy atom, donor atom, acceptor molecule, acceptor atom, score
      L1  H     3    34       P1  8028  0.99
      L1  H    14    32       P1  7948  0.14
      P1  H  7989  7998       L1    15  0.95

> <Gold.Chemscore.Hbond.Weighted>
-7.7416

> <Gold.Chemscore.Metal.Weighted>
-0.0000

> <Gold.Chemscore.Lipo.Weighted>
-8.2153

> <Gold.Chemscore.Internal_Hbond.Weighted>
0.0000

> <Gold.Chemscore.DEClash.Weighted>
0.0251

> <Gold.Chemscore.DEInternal.Weighted>
1.4422

> <Gold.Chemscore.Rot.Weighted>
6.2631

> <Gold.Chemscore.Internal.Correction.Weighted>
   9.000000E+99

> <Gold.Protein.RotatedTorsions>
[ 6907 6896 6895 6894 ] final  -61.42 input  -60.11 | X-H torsion
[ 7974 7965 7964 7962 ] final  -50.73 input  175.53 | X-H torsion
[ 8008 7997 7996 7995 ] final -144.12 input   59.86 | X-H torsion
[ 10167 10162 10161 10158 ] final  152.99 input  -65.29 | X-H torsion
[ 10718 10713 10712 10709 ] final  -95.05 input   66.30 | X-H torsion
[ 10763 10752 10751 10750 ] final   92.60 input  -60.55 | X-H torsion
[ 11005 11000 10999 10996 ] final   13.45 input  -57.11 | X-H torsion

> <Gold.Protein.ActiveResidues>
 VAL166  LYS551  ARG553  GLY616  TRP617  ASP618  TYR619  PRO620  LYS621  CYS622 
 ASP623  PHE694  ASN695  SER759  ASP760  ASP761  ALA762  ILE779  LEU786  VAL792 
 PHE793  MET794  SER795  GLU796  ALA797  LYS798  CYS799  TRP800  GLU811  SER814 

> <Gold.Protein.RotatedAtoms>
  150.7786  134.6707  159.6389 H   0  0  0  0  0  0  0  0  0  0  0  0  # atno 6907 bound_to 6896
  152.3864  134.6508  160.0133 H   0  0  0  0  0  0  0  0  0  0  0  0  # atno 6908 bound_to 6896
  151.6822  133.3275  159.3258 H   0  0  0  0  0  0  0  0  0  0  0  0  # atno 6909 bound_to 6896
  145.9267  140.7786  142.9620 H   0  0  0  0  0  0  0  0  0  0  0  0  # atno 7974 bound_to 7965
  155.5217  140.0592  157.2905 H   0  0  0  0  0  0  0  0  0  0  0  0  # atno 8008 bound_to 7997
  154.4515  140.1951  156.0451 H   0  0  0  0  0  0  0  0  0  0  0  0  # atno 8009 bound_to 7997
  156.0714  140.3259  155.7584 H   0  0  0  0  0  0  0  0  0  0  0  0  # atno 8010 bound_to 7997
  139.4829  144.5311  151.7722 H   0  0  0  0  0  0  0  0  0  0  0  0  # atno 10167 bound_to 10162
  156.0037  130.5093  150.6018 H   0  0  0  0  0  0  0  0  0  0  0  0  # atno 10718 bound_to 10713
  153.2210  135.4355  155.0489 H   0  0  0  0  0  0  0  0  0  0  0  0  # atno 10763 bound_to 10752
  154.8250  135.3356  154.6927 H   0  0  0  0  0  0  0  0  0  0  0  0  # atno 10764 bound_to 10752
  153.7359  135.7008  153.5034 H   0  0  0  0  0  0  0  0  0  0  0  0  # atno 10765 bound_to 10752
  140.4805  134.0940  155.7750 H   0  0  0  0  0  0  0  0  0  0  0  0  # atno 11005 bound_to 11000
  144.6759  140.2061  143.7382 LP  0  0  0  0  0  0  0  0  0  0  0  0  # atno 17320 bound_to 7965
  145.8480  139.2161  143.1789 LP  0  0  0  0  0  0  0  0  0  0  0  0  # atno 17321 bound_to 7965
  140.4837  144.1412  150.5937 LP  0  0  0  0  0  0  0  0  0  0  0  0  # atno 17342 bound_to 10162
  140.4249  143.2594  151.9669 LP  0  0  0  0  0  0  0  0  0  0  0  0  # atno 17343 bound_to 10162
  157.3866  131.0789  151.1431 LP  0  0  0  0  0  0  0  0  0  0  0  0  # atno 17370 bound_to 10713
  157.2136  130.6449  149.5783 LP  0  0  0  0  0  0  0  0  0  0  0  0  # atno 17371 bound_to 10713
  141.1533  133.8929  157.2042 LP  0  0  0  0  0  0  0  0  0  0  0  0  # atno 17394 bound_to 11000
  139.9829  135.0092  156.9793 LP  0  0  0  0  0  0  0  0  0  0  0  0  # atno 17395 bound_to 11000

$$$$
