AV-unprocessed.smi:1605|AV-procd|sdf|6455|dock5
  -GOLD-   22720 7113D 1   1.00000     0.00000
 Structure written by MMmdl.
 52 54  0  0  0  0  0  0  0  0  3 V2000
  146.0901  131.5302  154.2918 C   0  0  0  0  0  0  0  0  0  0  0  0
  145.9510  132.9421  154.2454 O   0  0  0  0  0  0  0  0  0  0  0  0
  147.0343  133.6570  154.8250 C   0  0  2  0  0  0  0  0  0  0  0  0
  146.7284  135.1561  154.6931 C   0  0  0  0  0  0  0  0  0  0  0  0
  147.8974  136.0104  155.2104 C   0  0  0  0  0  0  0  0  0  0  0  0
  149.1576  135.6803  154.4933 N   0  3  1  0  0  0  0  0  0  0  0  0
  150.2957  136.5624  154.8606 C   0  0  0  0  0  0  0  0  0  0  0  0
  149.9220  138.0585  154.8520 C   0  0  2  0  0  0  0  0  0  0  0  0
  149.5175  138.4141  153.5443 O   0  0  0  0  0  0  0  0  0  0  0  0
  151.1115  138.9390  155.2854 C   0  0  0  0  0  0  0  0  0  0  0  0
  150.7188  140.3127  155.6343 N   0  0  0  0  0  0  0  0  0  0  0  0
  149.9087  141.1804  154.9680 C   0  0  0  0  0  0  0  0  0  0  0  0
  149.8417  142.3261  155.7009 N   0  3  0  0  0  0  0  0  0  0  0  0
  150.6187  142.1891  156.8530 C   0  0  0  0  0  0  0  0  0  0  0  0
  150.8635  143.0745  157.8961 C   0  0  0  0  0  0  0  0  0  0  0  0
  151.7134  142.6297  158.9337 C   0  0  0  0  0  0  0  0  0  0  0  0
  152.0029  143.5733  160.0887 C   0  0  0  0  0  0  0  0  0  0  0  0
  152.2853  141.3315  158.9025 C   0  0  0  0  0  0  0  0  0  0  0  0
  153.2006  140.8641  160.0213 C   0  0  0  0  0  0  0  0  0  0  0  0
  152.0219  140.4452  157.8339 C   0  0  0  0  0  0  0  0  0  0  0  0
  151.1838  140.8993  156.8181 C   0  0  0  0  0  0  0  0  0  0  0  0
  149.4973  134.2401  154.6278 C   0  0  0  0  0  0  0  0  0  0  0  0
  148.3599  133.3459  154.1059 C   0  0  0  0  0  0  0  0  0  0  0  0
  145.2021  131.0648  153.8641 H   0  0  0  0  0  0  0  0  0  0  0  0
  146.1903  131.1759  155.3185 H   0  0  0  0  0  0  0  0  0  0  0  0
  146.9500  131.1869  153.7173 H   0  0  0  0  0  0  0  0  0  0  0  0
  147.1176  133.4119  155.8857 H   0  0  0  0  0  0  0  0  0  0  0  0
  146.5319  135.4027  153.6485 H   0  0  0  0  0  0  0  0  0  0  0  0
  145.8196  135.3999  155.2444 H   0  0  0  0  0  0  0  0  0  0  0  0
  147.6483  137.0626  155.0795 H   0  0  0  0  0  0  0  0  0  0  0  0
  148.0328  135.8498  156.2813 H   0  0  0  0  0  0  0  0  0  0  0  0
  150.6774  136.2672  155.8394 H   0  0  0  0  0  0  0  0  0  0  0  0
  151.1177  136.4121  154.1585 H   0  0  0  0  0  0  0  0  0  0  0  0
  149.0889  138.2497  155.5275 H   0  0  0  0  0  0  0  0  0  0  0  0
  149.1883  137.6413  153.1105 H   0  0  0  0  0  0  0  0  0  0  0  0
  151.5826  138.5099  156.1708 H   0  0  0  0  0  0  0  0  0  0  0  0
  151.8845  138.9707  154.5171 H   0  0  0  0  0  0  0  0  0  0  0  0
  149.4057  140.9938  154.0301 H   0  0  0  0  0  0  0  0  0  0  0  0
  150.4235  144.0609  157.9140 H   0  0  0  0  0  0  0  0  0  0  0  0
  151.6200  143.1612  161.0224 H   0  0  0  0  0  0  0  0  0  0  0  0
  151.5341  144.5459  159.9364 H   0  0  0  0  0  0  0  0  0  0  0  0
  153.0759  143.7348  160.1941 H   0  0  0  0  0  0  0  0  0  0  0  0
  153.5149  139.8304  159.8740 H   0  0  0  0  0  0  0  0  0  0  0  0
  152.6929  140.9218  160.9845 H   0  0  0  0  0  0  0  0  0  0  0  0
  154.0974  141.4827  160.0635 H   0  0  0  0  0  0  0  0  0  0  0  0
  152.4615  139.4590  157.8113 H   0  0  0  0  0  0  0  0  0  0  0  0
  150.4060  134.0212  154.0659 H   0  0  0  0  0  0  0  0  0  0  0  0
  149.7077  134.0102  155.6736 H   0  0  0  0  0  0  0  0  0  0  0  0
  148.6363  132.3007  154.2420 H   0  0  0  0  0  0  0  0  0  0  0  0
  148.2404  133.4973  153.0319 H   0  0  0  0  0  0  0  0  0  0  0  0
  148.9887  135.8372  153.5094 H   0  0  0  0  0  0  0  0  0  0  0  0
  149.3019  143.1395  155.4339 H   0  0  0  0  0  0  0  0  0  0  0  0
  1  2  1  0  0  0  0
  1 24  1  0  0  0  0
  1 25  1  0  0  0  0
  1 26  1  0  0  0  0
  2  3  1  0  0  0  0
  3 23  1  0  0  0  0
  3  4  1  0  0  0  0
  3 27  1  0  0  0  0
  4  5  1  0  0  0  0
  4 28  1  0  0  0  0
  4 29  1  0  0  0  0
  5  6  1  0  0  0  0
  5 30  1  0  0  0  0
  5 31  1  0  0  0  0
  6  7  1  0  0  0  0
  6 22  1  0  0  0  0
  6 51  1  0  0  0  0
  7  8  1  0  0  0  0
  7 32  1  0  0  0  0
  7 33  1  0  0  0  0
  8  9  1  0  0  0  0
  8 10  1  0  0  0  0
  8 34  1  0  0  0  0
  9 35  1  0  0  0  0
 10 11  1  0  0  0  0
 10 36  1  0  0  0  0
 10 37  1  0  0  0  0
 11 21  1  0  0  0  0
 11 12  1  0  0  0  0
 12 13  2  0  0  0  0
 12 38  1  0  0  0  0
 13 14  1  0  0  0  0
 13 52  1  0  0  0  0
 14 21  2  0  0  0  0
 14 15  1  0  0  0  0
 15 16  2  0  0  0  0
 15 39  1  0  0  0  0
 16 17  1  0  0  0  0
 16 18  1  0  0  0  0
 17 40  1  0  0  0  0
 17 41  1  0  0  0  0
 17 42  1  0  0  0  0
 18 19  1  0  0  0  0
 18 20  2  0  0  0  0
 19 43  1  0  0  0  0
 19 44  1  0  0  0  0
 19 45  1  0  0  0  0
 20 21  1  0  0  0  0
 20 46  1  0  0  0  0
 22 23  1  0  0  0  0
 22 47  1  0  0  0  0
 22 48  1  0  0  0  0
 23 49  1  0  0  0  0
 23 50  1  0  0  0  0
M  CHG  1   6   1
M  CHG  1  13   1
M  END
> <s_m_source_file>
AV-unprocessed.smi

> <i_m_source_file_index>
1605

> <i_lp_mmshare_version>
43012

> <i_f3d_flags>
0

> <s_epik_input>
W0NIM11PW0NIXTFbQ0gyXVtDSDJdTihbQ0gyXVtDSDJdMSlbQ0gyXVtDQEhdKFtPSF0pW0NIMl1uKFtjSF1uMiljKGMyMylbY0hdYyhbQ0gzXSljKFtjSF0zKVtDSDNd

> <s_epik_cmdline>
J2VwaWtfcHl0aG9uJywgJy1waCcsICc3LjAnLCAnLXRuJywgJzgnLCAnLW1hJywgJzIwMCcsICctbWV0YWxfYmluZGluZycsICctaW1hZScsICc8aW5maWxlLm1hZT4nLCAnLW9tYWUnLCAnPG91dGZpbGUubWFlPic=

> <r_epik_Ionization_Penalty>
1.19848

> <r_epik_Ionization_Penalty_Charging>
1.19848

> <r_epik_Ionization_Penalty_Neutral>
1.67134e-06

> <r_epik_State_Penalty>
1.2782

> <r_epik_Charging_Adjusted_Penalty>
2.47668

> <i_epik_Tot_Q>
2

> <i_epik_Tot_abs_Q>
2

> <r_epik_Metal_State_Penalty>
5.29544

> <b_epik_Metal_Only>
0

> <s_lp_Force_Field>
OPLS_2005

> <r_lp_Energy>
31.9631

> <b_lp_Chiralities_Consistent>
1

> <s_lp_Variant>
AV-unprocessed.smi:1605-5

> <Gold.Version>
5.8.1

> <Gold.Id.Protein>
6NUR|6NUR_protein|mol2

> <Gold.PLP.Fitness>
56.5892

> <Gold.PLP.PLP>
-42.0790

> <Gold.PLP.part.hbond>
-4.0000

> <Gold.PLP.part.metal>
0.0000

> <Gold.PLP.part.buried>
-3.3734

> <Gold.PLP.part.nonpolar>
-34.8358

> <Gold.PLP.part.repulsive>
0.2695

> <Gold.PLP.ligand.clash>
0.0000

> <Gold.PLP.ligand.torsion>
0.2999

> <Gold.PLP.Chemscore.Hbond>
5.0000

> <Gold.PLP.Chemscore.CHOScore>
0.0000

> <Gold.PLP.Chemscore.Metal>
0.0000

> <Gold.Chemscore.Hbonds>
donor molecule, donor type, donor heavy atom, donor atom, acceptor molecule, acceptor atom, score
      L1  H     6    51       P1  7948  2.00
      L1  H     9    35       P1  7948  1.00
      L1  H    13    52       P1  8028  2.00

> <Gold.PLP.Chemscore.Internal.Correction>
0.1099

> <Gold.Rescore>
     Score         DG    S(hbond)    S(metal)    S(lipo)     H(rot)  DE(clash)    DE(int)     intcor
     21.76     -22.04       2.88        0.00     109.23       2.28       0.02       0.25       ----

> <Gold.Chemscore.Fitness>
21.7645

> <Gold.Chemscore.DG>
-22.0394

> <Gold.Chemscore.ZeroCoef>
-5.4800

> <Gold.Chemscore.Hbond>
2.8821

> <Gold.Chemscore.Metal>
0.0000

> <Gold.Chemscore.Lipo>
109.2307

> <Gold.Chemscore.Internal_Hbond>
0.0000

> <Gold.Chemscore.DEClash>
0.0204

> <Gold.Chemscore.DEInternal>
0.2545

> <Gold.Chemscore.Rot>
2.2839

> <Gold.Chemscore.Internal.Correction>
   9.000000E+99

> <Gold.Chemscore.Hbonds>
donor molecule, donor type, donor heavy atom, donor atom, acceptor molecule, acceptor atom, score
      L1  H     6    51       P1  7948  0.91
      L1  H     9    35       P1  7948  0.99
      L1  H    13    52       P1  8028  0.95

> <Gold.Chemscore.Hbond.Weighted>
-9.6263

> <Gold.Chemscore.Metal.Weighted>
-0.0000

> <Gold.Chemscore.Lipo.Weighted>
-12.7800

> <Gold.Chemscore.Internal_Hbond.Weighted>
0.0000

> <Gold.Chemscore.DEClash.Weighted>
0.0204

> <Gold.Chemscore.DEInternal.Weighted>
0.2545

> <Gold.Chemscore.Rot.Weighted>
5.8469

> <Gold.Chemscore.Internal.Correction.Weighted>
   9.000000E+99

> <Gold.Protein.RotatedTorsions>
[ 6907 6896 6895 6894 ] final  149.81 input  -60.11 | X-H torsion
[ 7974 7965 7964 7962 ] final  125.77 input  175.53 | X-H torsion
[ 8008 7997 7996 7995 ] final   36.44 input   59.86 | X-H torsion
[ 10167 10162 10161 10158 ] final -105.92 input  -65.29 | X-H torsion
[ 10718 10713 10712 10709 ] final  125.45 input   66.30 | X-H torsion
[ 10763 10752 10751 10750 ] final  -42.23 input  -60.55 | X-H torsion
[ 11005 11000 10999 10996 ] final   56.80 input  -57.11 | X-H torsion

> <Gold.Protein.ActiveResidues>
 VAL166  LYS551  ARG553  GLY616  TRP617  ASP618  TYR619  PRO620  LYS621  CYS622 
 ASP623  PHE694  ASN695  SER759  ASP760  ASP761  ALA762  ILE779  LEU786  VAL792 
 PHE793  MET794  SER795  GLU796  ALA797  LYS798  CYS799  TRP800  GLU811  SER814 

> <Gold.Protein.RotatedAtoms>
  152.1229  133.4363  159.4683 H   0  0  0  0  0  0  0  0  0  0  0  0  # atno 6907 bound_to 6896
  150.6873  134.2513  159.4521 H   0  0  0  0  0  0  0  0  0  0  0  0  # atno 6908 bound_to 6896
  152.0391  134.9722  160.0624 H   0  0  0  0  0  0  0  0  0  0  0  0  # atno 6909 bound_to 6896
  145.0692  139.3743  143.4966 H   0  0  0  0  0  0  0  0  0  0  0  0  # atno 7974 bound_to 7965
  155.1875  140.3305  155.4364 H   0  0  0  0  0  0  0  0  0  0  0  0  # atno 8008 bound_to 7997
  156.2454  140.1916  156.6920 H   0  0  0  0  0  0  0  0  0  0  0  0  # atno 8009 bound_to 7997
  154.6228  140.0593  156.9623 H   0  0  0  0  0  0  0  0  0  0  0  0  # atno 8010 bound_to 7997
  140.1933  143.3875  152.1189 H   0  0  0  0  0  0  0  0  0  0  0  0  # atno 10167 bound_to 10162
  157.5502  131.1094  150.8715 H   0  0  0  0  0  0  0  0  0  0  0  0  # atno 10718 bound_to 10713
  153.9756  135.6723  153.4748 H   0  0  0  0  0  0  0  0  0  0  0  0  # atno 10763 bound_to 10752
  153.0772  135.4942  154.8426 H   0  0  0  0  0  0  0  0  0  0  0  0  # atno 10764 bound_to 10752
  154.7194  135.3114  154.9033 H   0  0  0  0  0  0  0  0  0  0  0  0  # atno 10765 bound_to 10752
  140.0501  134.5749  155.9274 H   0  0  0  0  0  0  0  0  0  0  0  0  # atno 11005 bound_to 11000
  146.3528  140.0429  142.8641 LP  0  0  0  0  0  0  0  0  0  0  0  0  # atno 17320 bound_to 7965
  145.1313  140.9519  143.4543 LP  0  0  0  0  0  0  0  0  0  0  0  0  # atno 17321 bound_to 7965
  139.5247  144.7087  151.5275 LP  0  0  0  0  0  0  0  0  0  0  0  0  # atno 17342 bound_to 10162
  140.6441  143.8830  150.6720 LP  0  0  0  0  0  0  0  0  0  0  0  0  # atno 17343 bound_to 10162
  156.9242  130.5326  149.5279 LP  0  0  0  0  0  0  0  0  0  0  0  0  # atno 17370 bound_to 10713
  156.0570  130.5629  150.9112 LP  0  0  0  0  0  0  0  0  0  0  0  0  # atno 17371 bound_to 10713
  141.1926  133.6576  156.5510 LP  0  0  0  0  0  0  0  0  0  0  0  0  # atno 17394 bound_to 11000
  140.3930  134.7423  157.4733 LP  0  0  0  0  0  0  0  0  0  0  0  0  # atno 17395 bound_to 11000

$$$$
