AV-unprocessed.smi:2577|AV-procd|sdf|10120|dock10
  -GOLD-   2272014143D 1   1.00000     0.00000
 Structure written by MMmdl.
 27 28  0  0  0  0  0  0  0  0  1 V2000
  154.0609  136.7332  164.1254 C   0  0  0  0  0  0  0  0  0  0  0  0
  154.1856  136.2331  162.6798 C   0  0  0  0  0  0  0  0  0  0  0  0
  153.5797  137.1964  161.6437 C   0  0  2  0  0  0  0  0  0  0  0  0
  153.4619  136.5293  160.4012 O   0  0  0  0  0  0  0  0  0  0  0  0
  154.4378  138.4644  161.4668 C   0  0  0  0  0  0  0  0  0  0  0  0
  153.9263  139.3445  160.4305 N   0  0  0  0  0  0  0  0  0  0  0  0
  153.8501  138.8918  159.1471 N   0  0  0  0  0  0  0  0  0  0  0  0
  153.3720  139.8407  158.3987 N   0  0  0  0  0  0  0  0  0  0  0  0
  153.1296  140.9410  159.2043 C   0  0  0  0  0  0  0  0  0  0  0  0
  152.6192  142.2262  158.9152 C   0  0  0  0  0  0  0  0  0  0  0  0
  152.4719  143.1835  159.9431 C   0  0  0  0  0  0  0  0  0  0  0  0
  151.8436  144.7444  159.5500 Cl  0  0  0  0  0  0  0  0  0  0  0  0
  152.8350  142.8647  161.2740 C   0  0  0  0  0  0  0  0  0  0  0  0
  152.6615  144.0242  162.5431 Cl  0  0  0  0  0  0  0  0  0  0  0  0
  153.3457  141.5867  161.5764 C   0  0  0  0  0  0  0  0  0  0  0  0
  153.4827  140.6484  160.5395 C   0  0  0  0  0  0  0  0  0  0  0  0
  154.5373  136.0383  164.8170 H   0  0  0  0  0  0  0  0  0  0  0  0
  153.0170  136.8323  164.4240 H   0  0  0  0  0  0  0  0  0  0  0  0
  154.5390  137.7054  164.2487 H   0  0  0  0  0  0  0  0  0  0  0  0
  155.2440  136.0907  162.4582 H   0  0  0  0  0  0  0  0  0  0  0  0
  153.7229  135.2492  162.5910 H   0  0  0  0  0  0  0  0  0  0  0  0
  152.5794  137.4862  161.9685 H   0  0  0  0  0  0  0  0  0  0  0  0
  153.8734  137.0590  159.7353 H   0  0  0  0  0  0  0  0  0  0  0  0
  154.4818  139.0242  162.4022 H   0  0  0  0  0  0  0  0  0  0  0  0
  155.4659  138.1971  161.2188 H   0  0  0  0  0  0  0  0  0  0  0  0
  152.3416  142.4759  157.9017 H   0  0  0  0  0  0  0  0  0  0  0  0
  153.6286  141.3316  162.5871 H   0  0  0  0  0  0  0  0  0  0  0  0
  1  2  1  0  0  0  0
  1 17  1  0  0  0  0
  1 18  1  0  0  0  0
  1 19  1  0  0  0  0
  2  3  1  0  0  0  0
  2 20  1  0  0  0  0
  2 21  1  0  0  0  0
  3  4  1  0  0  0  0
  3  5  1  0  0  0  0
  3 22  1  0  0  0  0
  4 23  1  0  0  0  0
  5  6  1  0  0  0  0
  5 24  1  0  0  0  0
  5 25  1  0  0  0  0
  6 16  1  0  0  0  0
  6  7  1  0  0  0  0
  7  8  2  0  0  0  0
  8  9  1  0  0  0  0
  9 16  2  0  0  0  0
  9 10  1  0  0  0  0
 10 11  2  0  0  0  0
 10 26  1  0  0  0  0
 11 12  1  0  0  0  0
 11 13  1  0  0  0  0
 13 14  1  0  0  0  0
 13 15  2  0  0  0  0
 15 16  1  0  0  0  0
 15 27  1  0  0  0  0
M  END
> <s_m_source_file>
AV-unprocessed.smi

> <i_m_source_file_index>
2577

> <i_lp_mmshare_version>
43012

> <i_f3d_flags>
0

> <s_epik_input>
W0NIM11bQ0gyXVtDQEhdKFtPSF0pW0NIMl1uKG5uMSljKGMxMilbY0hdYyhDbCljKENsKVtjSF0y

> <s_epik_cmdline>
J2VwaWtfcHl0aG9uJywgJy1waCcsICc3LjAnLCAnLXRuJywgJzgnLCAnLW1hJywgJzIwMCcsICctbWV0YWxfYmluZGluZycsICctaW1hZScsICc8aW5maWxlLm1hZT4nLCAnLW9tYWUnLCAnPG91dGZpbGUubWFlPic=

> <r_lp_tautomer_probability>
1

> <r_epik_Ionization_Penalty>
1.50913e-07

> <r_epik_Ionization_Penalty_Charging>
0

> <r_epik_Ionization_Penalty_Neutral>
1.50913e-07

> <r_epik_State_Penalty>
-0

> <r_epik_Charging_Adjusted_Penalty>
0

> <i_epik_Tot_Q>
0

> <i_epik_Tot_abs_Q>
0

> <r_epik_Metal_State_Penalty>
-0

> <b_epik_Metal_Only>
0

> <s_lp_Force_Field>
OPLS_2005

> <r_lp_Energy>
7.05244

> <b_lp_Chiralities_Consistent>
1

> <s_lp_Variant>
AV-unprocessed.smi:2577-1

> <Gold.Version>
5.8.1

> <Gold.Id.Protein>
6NUR|6NUR_protein|mol2

> <Gold.PLP.Fitness>
46.2260

> <Gold.PLP.PLP>
-40.8713

> <Gold.PLP.part.hbond>
-1.7655

> <Gold.PLP.part.metal>
0.0000

> <Gold.PLP.part.buried>
-4.1783

> <Gold.PLP.part.nonpolar>
-34.3013

> <Gold.PLP.part.repulsive>
0.0000

> <Gold.PLP.ligand.clash>
0.0000

> <Gold.PLP.ligand.torsion>
0.0912

> <Gold.PLP.Chemscore.Hbond>
1.8450

> <Gold.PLP.Chemscore.CHOScore>
0.0000

> <Gold.PLP.Chemscore.Metal>
0.0000

> <Gold.Chemscore.Hbonds>
donor molecule, donor type, donor heavy atom, donor atom, acceptor molecule, acceptor atom, score
      P1  H  6896  6909       L1     4  0.94
      P1  H  7997  8008       L1     8  1.00

> <Gold.PLP.Chemscore.Internal.Correction>
0.0020

> <Gold.Rescore>
     Score         DG    S(hbond)    S(metal)    S(lipo)     H(rot)  DE(clash)    DE(int)     intcor
     19.29     -20.81       1.81        0.00     118.69       1.79       0.03       1.49       ----

> <Gold.Chemscore.Fitness>
19.2949

> <Gold.Chemscore.DG>
-20.8149

> <Gold.Chemscore.ZeroCoef>
-5.4800

> <Gold.Chemscore.Hbond>
1.8072

> <Gold.Chemscore.Metal>
0.0000

> <Gold.Chemscore.Lipo>
118.6938

> <Gold.Chemscore.Internal_Hbond>
0.0000

> <Gold.Chemscore.DEClash>
0.0269

> <Gold.Chemscore.DEInternal>
1.4930

> <Gold.Chemscore.Rot>
1.7924

> <Gold.Chemscore.Internal.Correction>
   9.000000E+99

> <Gold.Chemscore.Hbonds>
donor molecule, donor type, donor heavy atom, donor atom, acceptor molecule, acceptor atom, score
      P1  H  6896  6909       L1     4  0.89
      P1  H  7997  8008       L1     8  0.56

> <Gold.Chemscore.Hbond.Weighted>
-6.0361

> <Gold.Chemscore.Metal.Weighted>
-0.0000

> <Gold.Chemscore.Lipo.Weighted>
-13.8872

> <Gold.Chemscore.Internal_Hbond.Weighted>
0.0000

> <Gold.Chemscore.DEClash.Weighted>
0.0269

> <Gold.Chemscore.DEInternal.Weighted>
1.4930

> <Gold.Chemscore.Rot.Weighted>
4.5884

> <Gold.Chemscore.Internal.Correction.Weighted>
   9.000000E+99

> <Gold.Protein.RotatedTorsions>
[ 6907 6896 6895 6894 ] final  155.98 input  -60.11 | X-H torsion
[ 7974 7965 7964 7962 ] final  141.52 input  175.53 | X-H torsion
[ 8008 7997 7996 7995 ] final  -80.09 input   59.86 | X-H torsion
[ 10167 10162 10161 10158 ] final  -36.42 input  -65.29 | X-H torsion
[ 10718 10713 10712 10709 ] final -145.48 input   66.30 | X-H torsion
[ 10763 10752 10751 10750 ] final   35.14 input  -60.55 | X-H torsion
[ 11005 11000 10999 10996 ] final  100.13 input  -57.11 | X-H torsion

> <Gold.Protein.ActiveResidues>
 VAL166  LYS551  ARG553  GLY616  TRP617  ASP618  TYR619  PRO620  LYS621  CYS622 
 ASP623  PHE694  ASN695  SER759  ASP760  ASP761  ALA762  ILE779  LEU786  VAL792 
 PHE793  MET794  SER795  GLU796  ALA797  LYS798  CYS799  TRP800  GLU811  SER814 

> <Gold.Protein.RotatedAtoms>
  152.0363  133.3958  159.4318 H   0  0  0  0  0  0  0  0  0  0  0  0  # atno 6907 bound_to 6896
  150.6878  134.3464  159.4899 H   0  0  0  0  0  0  0  0  0  0  0  0  # atno 6908 bound_to 6896
  152.1257  134.9172  160.0612 H   0  0  0  0  0  0  0  0  0  0  0  0  # atno 6909 bound_to 6896
  144.9089  139.5320  143.5718 H   0  0  0  0  0  0  0  0  0  0  0  0  # atno 7974 bound_to 7965
  154.5849  140.0668  156.9157 H   0  0  0  0  0  0  0  0  0  0  0  0  # atno 8008 bound_to 7997
  155.2397  140.3343  155.4275 H   0  0  0  0  0  0  0  0  0  0  0  0  # atno 8009 bound_to 7997
  156.2216  140.1801  156.7449 H   0  0  0  0  0  0  0  0  0  0  0  0  # atno 8010 bound_to 7997
  140.7143  143.3410  151.2357 H   0  0  0  0  0  0  0  0  0  0  0  0  # atno 10167 bound_to 10162
  156.3829  130.7846  151.2041 H   0  0  0  0  0  0  0  0  0  0  0  0  # atno 10718 bound_to 10713
  153.0132  135.6341  154.1779 H   0  0  0  0  0  0  0  0  0  0  0  0  # atno 10763 bound_to 10752
  154.1520  135.2828  155.3134 H   0  0  0  0  0  0  0  0  0  0  0  0  # atno 10764 bound_to 10752
  154.6046  135.5576  153.7471 H   0  0  0  0  0  0  0  0  0  0  0  0  # atno 10765 bound_to 10752
  139.8771  134.9126  156.4710 H   0  0  0  0  0  0  0  0  0  0  0  0  # atno 11005 bound_to 11000
  146.3148  139.7879  142.8992 LP  0  0  0  0  0  0  0  0  0  0  0  0  # atno 17320 bound_to 7965
  145.3488  141.0303  143.3350 LP  0  0  0  0  0  0  0  0  0  0  0  0  # atno 17321 bound_to 7965
  139.6917  143.9680  152.2863 LP  0  0  0  0  0  0  0  0  0  0  0  0  # atno 17342 bound_to 10162
  139.9344  144.6721  150.8330 LP  0  0  0  0  0  0  0  0  0  0  0  0  # atno 17343 bound_to 10162
  157.7494  131.0338  150.4290 LP  0  0  0  0  0  0  0  0  0  0  0  0  # atno 17370 bound_to 10713
  156.4538  130.4017  149.6619 LP  0  0  0  0  0  0  0  0  0  0  0  0  # atno 17371 bound_to 10713
  140.8796  133.7928  155.9452 LP  0  0  0  0  0  0  0  0  0  0  0  0  # atno 17394 bound_to 11000
  140.8868  134.2544  157.5115 LP  0  0  0  0  0  0  0  0  0  0  0  0  # atno 17395 bound_to 11000

$$$$
