AV-unprocessed.smi:2083|AV-procd|sdf|8506|dock1
  -GOLD-   2272011213D 1   1.00000     0.00000
 Structure written by MMmdl.
 44 45  0  0  0  0  0  0  0  0  3 V2000
  153.6854  141.0921  160.0744 C   0  0  0  0  0  0  0  0  0  0  0  0
  153.1388  140.0318  159.1811 C   0  0  0  0  0  0  0  0  0  0  0  0
  151.8672  139.6242  158.8922 C   0  0  0  0  0  0  0  0  0  0  0  0
  152.0714  138.5644  157.9687 C   0  0  0  0  0  0  0  0  0  0  0  0
  150.9667  137.8584  157.4235 N   0  0  0  0  0  0  0  0  0  0  0  0
  150.9680  136.7657  156.6384 C   0  0  0  0  0  0  0  0  0  0  0  0
  152.0359  136.2499  156.2866 O   0  0  0  0  0  0  0  0  0  0  0  0
  149.7079  136.3584  156.3250 N   0  5  0  0  0  0  0  0  0  0  0  0
  149.3870  135.3862  155.2813 C   0  0  0  0  0  0  0  0  0  0  0  0
  147.8465  135.3558  155.0213 C   0  0  2  0  0  0  0  0  0  0  0  0
  147.0479  134.6546  156.1460 C   0  0  0  0  0  0  0  0  0  0  0  0
  147.4236  134.8186  153.6824 N   0  3  1  0  0  0  0  0  0  0  0  0
  147.7182  133.3750  153.4588 C   0  0  0  0  0  0  0  0  0  0  0  0
  147.6047  133.0244  151.9673 C   0  0  0  0  0  0  0  0  0  0  0  0
  146.2215  133.3986  151.4177 C   0  0  0  0  0  0  0  0  0  0  0  0
  145.9213  134.8843  151.6837 C   0  0  1  0  0  0  0  0  0  0  0  0
  144.5338  135.2789  151.1584 C   0  0  0  0  0  0  0  0  0  0  0  0
  146.0659  135.1972  153.1863 C   0  0  0  0  0  0  0  0  0  0  0  0
  153.3535  138.3487  157.7136 N   0  0  0  0  0  0  0  0  0  0  0  0
  154.0438  139.2880  158.4889 O   0  0  0  0  0  0  0  0  0  0  0  0
  152.9125  141.4774  160.7397 H   0  0  0  0  0  0  0  0  0  0  0  0
  154.0756  141.9251  159.4900 H   0  0  0  0  0  0  0  0  0  0  0  0
  154.4951  140.7002  160.6902 H   0  0  0  0  0  0  0  0  0  0  0  0
  150.9410  140.0193  159.2818 H   0  0  0  0  0  0  0  0  0  0  0  0
  150.0567  138.2198  157.6670 H   0  0  0  0  0  0  0  0  0  0  0  0
  149.8965  135.6388  154.3512 H   0  0  0  0  0  0  0  0  0  0  0  0
  149.7221  134.3799  155.5355 H   0  0  0  0  0  0  0  0  0  0  0  0
  147.5051  136.3923  155.0312 H   0  0  0  0  0  0  0  0  0  0  0  0
  147.1659  135.1576  157.1077 H   0  0  0  0  0  0  0  0  0  0  0  0
  147.3398  133.6131  156.2877 H   0  0  0  0  0  0  0  0  0  0  0  0
  145.9807  134.6642  155.9220 H   0  0  0  0  0  0  0  0  0  0  0  0
  148.7255  133.1395  153.8038 H   0  0  0  0  0  0  0  0  0  0  0  0
  147.0309  132.7552  154.0362 H   0  0  0  0  0  0  0  0  0  0  0  0
  148.3774  133.5531  151.4073 H   0  0  0  0  0  0  0  0  0  0  0  0
  147.7893  131.9600  151.8195 H   0  0  0  0  0  0  0  0  0  0  0  0
  146.1795  133.1892  150.3483 H   0  0  0  0  0  0  0  0  0  0  0  0
  145.4597  132.7752  151.8881 H   0  0  0  0  0  0  0  0  0  0  0  0
  146.6584  135.4802  151.1431 H   0  0  0  0  0  0  0  0  0  0  0  0
  143.7449  134.7210  151.6639 H   0  0  0  0  0  0  0  0  0  0  0  0
  144.4482  135.0823  150.0895 H   0  0  0  0  0  0  0  0  0  0  0  0
  144.3425  136.3411  151.3136 H   0  0  0  0  0  0  0  0  0  0  0  0
  145.2966  134.6620  153.7454 H   0  0  0  0  0  0  0  0  0  0  0  0
  145.8894  136.2603  153.3456 H   0  0  0  0  0  0  0  0  0  0  0  0
  148.0538  135.2877  153.0483 H   0  0  0  0  0  0  0  0  0  0  0  0
  1  2  1  0  0  0  0
  1 21  1  0  0  0  0
  1 22  1  0  0  0  0
  1 23  1  0  0  0  0
  2 20  1  0  0  0  0
  2  3  2  0  0  0  0
  3  4  1  0  0  0  0
  3 24  1  0  0  0  0
  4  5  1  0  0  0  0
  4 19  2  0  0  0  0
  5  6  1  0  0  0  0
  5 25  1  0  0  0  0
  6  7  2  0  0  0  0
  6  8  1  0  0  0  0
  8  9  1  0  0  0  0
  9 10  1  0  0  0  0
  9 26  1  0  0  0  0
  9 27  1  0  0  0  0
 10 11  1  0  0  0  0
 10 12  1  0  0  0  0
 10 28  1  0  0  0  0
 11 29  1  0  0  0  0
 11 30  1  0  0  0  0
 11 31  1  0  0  0  0
 12 18  1  0  0  0  0
 12 13  1  0  0  0  0
 12 44  1  0  0  0  0
 13 14  1  0  0  0  0
 13 32  1  0  0  0  0
 13 33  1  0  0  0  0
 14 15  1  0  0  0  0
 14 34  1  0  0  0  0
 14 35  1  0  0  0  0
 15 16  1  0  0  0  0
 15 36  1  0  0  0  0
 15 37  1  0  0  0  0
 16 17  1  0  0  0  0
 16 18  1  0  0  0  0
 16 38  1  0  0  0  0
 17 39  1  0  0  0  0
 17 40  1  0  0  0  0
 17 41  1  0  0  0  0
 18 42  1  0  0  0  0
 18 43  1  0  0  0  0
 19 20  1  0  0  0  0
M  CHG  1   8  -1
M  CHG  1  12   1
M  END
> <s_m_source_file>
AV-unprocessed.smi

> <i_m_source_file_index>
2083

> <i_lp_mmshare_version>
43012

> <i_f3d_flags>
0

> <s_epik_input>
W0NIM11jMVtjSF1jKG5vMSlbTkhdQyg9TylbTkhdW0NIMl1bQ0BIXShbQ0gzXSlOMltDSDJdW0NIMl1bQ0gyXVtDQEBIXShbQ0gzXSlbQ0gyXTI=

> <s_epik_cmdline>
J2VwaWtfcHl0aG9uJywgJy1waCcsICc3LjAnLCAnLXRuJywgJzgnLCAnLW1hJywgJzIwMCcsICctbWV0YWxfYmluZGluZycsICctaW1hZScsICc8aW5maWxlLm1hZT4nLCAnLW9tYWUnLCAnPG91dGZpbGUubWFlPic=

> <r_epik_Ionization_Penalty>
6.76934

> <r_epik_Ionization_Penalty_Charging>
6.76934

> <r_epik_Ionization_Penalty_Neutral>
5.77849e-06

> <r_epik_State_Penalty>
6.79457

> <r_epik_Charging_Adjusted_Penalty>
13.5639

> <i_epik_Tot_Q>
0

> <i_epik_Tot_abs_Q>
2

> <r_epik_Metal_State_Penalty>
2.72837

> <b_epik_Metal_Only>
1

> <s_lp_Force_Field>
OPLS_2005

> <r_lp_Energy>
20.364

> <b_lp_Chiralities_Consistent>
1

> <s_lp_Variant>
AV-unprocessed.smi:2083-17

> <Gold.Version>
5.8.1

> <Gold.Id.Protein>
6NUR|6NUR_protein|mol2

> <Gold.PLP.Fitness>
36.7416

> <Gold.PLP.PLP>
-25.2611

> <Gold.PLP.part.hbond>
-3.9568

> <Gold.PLP.part.metal>
0.0000

> <Gold.PLP.part.buried>
-1.9378

> <Gold.PLP.part.nonpolar>
-19.7940

> <Gold.PLP.part.repulsive>
0.0456

> <Gold.PLP.ligand.clash>
0.0000

> <Gold.PLP.ligand.torsion>
0.4009

> <Gold.PLP.Chemscore.Hbond>
4.0000

> <Gold.PLP.Chemscore.CHOScore>
0.0000

> <Gold.PLP.Chemscore.Metal>
0.0000

> <Gold.Chemscore.Hbonds>
donor molecule, donor type, donor heavy atom, donor atom, acceptor molecule, acceptor atom, score
      L1  H    12    44       P1  7948  2.00
      P1  H  7997  8010       L1    20  0.95
      P1  H 10752 10764       L1     7  1.00

> <Gold.PLP.Chemscore.Internal.Correction>
0.2823

> <Gold.Rescore>
     Score         DG    S(hbond)    S(metal)    S(lipo)     H(rot)  DE(clash)    DE(int)     intcor
     15.42     -17.18       2.68        0.00      56.60       1.52       0.02       1.74       ----

> <Gold.Chemscore.Fitness>
15.4223

> <Gold.Chemscore.DG>
-17.1818

> <Gold.Chemscore.ZeroCoef>
-5.4800

> <Gold.Chemscore.Hbond>
2.6850

> <Gold.Chemscore.Metal>
0.0000

> <Gold.Chemscore.Lipo>
56.6039

> <Gold.Chemscore.Internal_Hbond>
0.0000

> <Gold.Chemscore.DEClash>
0.0234

> <Gold.Chemscore.DEInternal>
1.7361

> <Gold.Chemscore.Rot>
1.5190

> <Gold.Chemscore.Internal.Correction>
   9.000000E+99

> <Gold.Chemscore.Hbonds>
donor molecule, donor type, donor heavy atom, donor atom, acceptor molecule, acceptor atom, score
      L1  H    12    44       P1  7948  1.00
      P1  H  7997  8010       L1    20  0.21
      P1  H 10752 10764       L1     7  0.96

> <Gold.Chemscore.Hbond.Weighted>
-8.9678

> <Gold.Chemscore.Metal.Weighted>
-0.0000

> <Gold.Chemscore.Lipo.Weighted>
-6.6227

> <Gold.Chemscore.Internal_Hbond.Weighted>
0.0000

> <Gold.Chemscore.DEClash.Weighted>
0.0234

> <Gold.Chemscore.DEInternal.Weighted>
1.7361

> <Gold.Chemscore.Rot.Weighted>
3.8886

> <Gold.Chemscore.Internal.Correction.Weighted>
   9.000000E+99

> <Gold.Protein.RotatedTorsions>
[ 6907 6896 6895 6894 ] final -171.34 input  -60.11 | X-H torsion
[ 7974 7965 7964 7962 ] final  -14.30 input  175.53 | X-H torsion
[ 8008 7997 7996 7995 ] final    9.20 input   59.86 | X-H torsion
[ 10167 10162 10161 10158 ] final   41.32 input  -65.29 | X-H torsion
[ 10718 10713 10712 10709 ] final   13.78 input   66.30 | X-H torsion
[ 10763 10752 10751 10750 ] final  -47.60 input  -60.55 | X-H torsion
[ 11005 11000 10999 10996 ] final -172.65 input  -57.11 | X-H torsion

> <Gold.Protein.ActiveResidues>
 VAL166  LYS551  ARG553  GLY616  TRP617  ASP618  TYR619  PRO620  LYS621  CYS622 
 ASP623  PHE694  ASN695  SER759  ASP760  ASP761  ALA762  ILE779  LEU786  VAL792 
 PHE793  MET794  SER795  GLU796  ALA797  LYS798  CYS799  TRP800  GLU811  SER814 

> <Gold.Protein.RotatedAtoms>
  151.5223  133.3464  159.2903 H   0  0  0  0  0  0  0  0  0  0  0  0  # atno 6907 bound_to 6896
  150.8644  134.8007  159.7119 H   0  0  0  0  0  0  0  0  0  0  0  0  # atno 6908 bound_to 6896
  152.4654  134.5098  159.9802 H   0  0  0  0  0  0  0  0  0  0  0  0  # atno 6909 bound_to 6896
  146.2080  140.3328  142.8400 H   0  0  0  0  0  0  0  0  0  0  0  0  # atno 7974 bound_to 7965
  154.7769  140.2812  155.6094 H   0  0  0  0  0  0  0  0  0  0  0  0  # atno 8008 bound_to 7997
  156.2943  140.2630  156.2513 H   0  0  0  0  0  0  0  0  0  0  0  0  # atno 8009 bound_to 7997
  154.9831  140.0374  157.2276 H   0  0  0  0  0  0  0  0  0  0  0  0  # atno 8010 bound_to 7997
  140.3654  144.2174  150.6135 H   0  0  0  0  0  0  0  0  0  0  0  0  # atno 10167 bound_to 10162
  157.0296  130.6187  149.5733 H   0  0  0  0  0  0  0  0  0  0  0  0  # atno 10718 bound_to 10713
  154.0641  135.6614  153.4815 H   0  0  0  0  0  0  0  0  0  0  0  0  # atno 10763 bound_to 10752
  153.0416  135.5141  154.7631 H   0  0  0  0  0  0  0  0  0  0  0  0  # atno 10764 bound_to 10752
  154.6676  135.3024  154.9751 H   0  0  0  0  0  0  0  0  0  0  0  0  # atno 10765 bound_to 10752
  140.4946  134.5952  157.4966 H   0  0  0  0  0  0  0  0  0  0  0  0  # atno 11005 bound_to 11000
  144.8840  140.7437  143.5969 LP  0  0  0  0  0  0  0  0  0  0  0  0  # atno 17320 bound_to 7965
  145.3249  139.1777  143.4568 LP  0  0  0  0  0  0  0  0  0  0  0  0  # atno 17321 bound_to 7965
  140.5085  143.2297  151.8571 LP  0  0  0  0  0  0  0  0  0  0  0  0  # atno 17342 bound_to 10162
  139.4809  144.4977  151.9102 LP  0  0  0  0  0  0  0  0  0  0  0  0  # atno 17343 bound_to 10162
  156.0074  130.5162  150.7875 LP  0  0  0  0  0  0  0  0  0  0  0  0  # atno 17370 bound_to 10713
  157.5187  131.0930  151.0106 LP  0  0  0  0  0  0  0  0  0  0  0  0  # atno 17371 bound_to 10713
  139.9749  134.7232  155.9969 LP  0  0  0  0  0  0  0  0  0  0  0  0  # atno 17394 bound_to 11000
  141.1467  133.6555  156.3888 LP  0  0  0  0  0  0  0  0  0  0  0  0  # atno 17395 bound_to 11000

$$$$
