AV-unprocessed.smi:2188|AV-procd|sdf|8882|dock7
  -GOLD-   2272012 83D 1   1.00000     0.00000
 Structure written by MMmdl.
 38 40  0  0  0  0  0  0  0  0  2 V2000
  154.1021  139.7006  160.1068 O   0  0  0  0  0  0  0  0  0  0  0  0
  153.9750  140.7211  160.7964 C   0  0  0  0  0  0  0  0  0  0  0  0
  154.6321  140.9576  161.9743 N   0  5  0  0  0  0  0  0  0  0  0  0
  155.6696  140.1068  162.5588 C   0  0  0  0  0  0  0  0  0  0  0  0
  155.4298  139.9682  164.0757 C   0  0  0  0  0  0  0  0  0  0  0  0
  155.5211  141.2854  164.8346 C   0  0  0  0  0  0  0  0  0  0  0  0
  154.5303  142.2806  164.6843 C   0  0  0  0  0  0  0  0  0  0  0  0
  154.6633  143.4871  165.3979 C   0  0  0  0  0  0  0  0  0  0  0  0
  155.7873  143.6522  166.2312 C   0  0  0  0  0  0  0  0  0  0  0  0
  156.7456  142.7125  166.3798 N   0  0  0  0  0  0  0  0  0  0  0  0
  156.6099  141.5573  165.6930 C   0  0  0  0  0  0  0  0  0  0  0  0
  153.0300  141.7689  160.3571 C   0  0  0  0  0  0  0  0  0  0  0  0
  152.8474  142.8548  161.1551 C   0  0  0  0  0  0  0  0  0  0  0  0
  151.9559  143.9277  160.7920 C   0  0  0  0  0  0  0  0  0  0  0  0
  151.2732  143.8167  159.6481 C   0  0  0  0  0  0  0  0  0  0  0  0
  151.3836  142.7190  158.7967 N   0  0  0  0  0  0  0  0  0  0  0  0
  150.4990  142.6922  157.6366 C   0  0  0  0  0  0  0  0  0  0  0  0
  151.2441  142.1870  156.4149 C   0  0  0  0  0  0  0  0  0  0  0  0
  151.7154  140.4630  156.7990 S   0  0  0  0  0  0  0  0  0  0  0  0
  150.4833  139.6990  157.0501 O   0  0  0  0  0  0  0  0  0  0  0  0
  152.6501  140.0032  155.7608 O   0  0  0  0  0  0  0  0  0  0  0  0
  152.5315  140.6866  158.2441 N   0  0  0  0  0  0  0  0  0  0  0  0
  152.3029  141.6669  159.0724 C   0  0  0  0  0  0  0  0  0  0  0  0
  155.6849  139.1086  162.1187 H   0  0  0  0  0  0  0  0  0  0  0  0
  156.6642  140.5212  162.3911 H   0  0  0  0  0  0  0  0  0  0  0  0
  154.4477  139.5287  164.2573 H   0  0  0  0  0  0  0  0  0  0  0  0
  156.1555  139.2745  164.5032 H   0  0  0  0  0  0  0  0  0  0  0  0
  153.6807  142.1203  164.0367 H   0  0  0  0  0  0  0  0  0  0  0  0
  153.9212  144.2667  165.3087 H   0  0  0  0  0  0  0  0  0  0  0  0
  155.9208  144.5652  166.7922 H   0  0  0  0  0  0  0  0  0  0  0  0
  157.3942  140.8278  165.8332 H   0  0  0  0  0  0  0  0  0  0  0  0
  153.3624  142.9445  162.1011 H   0  0  0  0  0  0  0  0  0  0  0  0
  151.8437  144.7945  161.4263 H   0  0  0  0  0  0  0  0  0  0  0  0
  150.5889  144.5870  159.3235 H   0  0  0  0  0  0  0  0  0  0  0  0
  149.6365  142.0616  157.8548 H   0  0  0  0  0  0  0  0  0  0  0  0
  150.1104  143.6884  157.4235 H   0  0  0  0  0  0  0  0  0  0  0  0
  150.6143  142.1884  155.5256 H   0  0  0  0  0  0  0  0  0  0  0  0
  152.1415  142.7715  156.2087 H   0  0  0  0  0  0  0  0  0  0  0  0
  1  2  2  0  0  0  0
  2  3  1  0  0  0  0
  2 12  1  0  0  0  0
  3  4  1  0  0  0  0
  4  5  1  0  0  0  0
  4 24  1  0  0  0  0
  4 25  1  0  0  0  0
  5  6  1  0  0  0  0
  5 26  1  0  0  0  0
  5 27  1  0  0  0  0
  6 11  1  0  0  0  0
  6  7  2  0  0  0  0
  7  8  1  0  0  0  0
  7 28  1  0  0  0  0
  8  9  2  0  0  0  0
  8 29  1  0  0  0  0
  9 10  1  0  0  0  0
  9 30  1  0  0  0  0
 10 11  2  0  0  0  0
 11 31  1  0  0  0  0
 12 23  1  0  0  0  0
 12 13  2  0  0  0  0
 13 14  1  0  0  0  0
 13 32  1  0  0  0  0
 14 15  2  0  0  0  0
 14 33  1  0  0  0  0
 15 16  1  0  0  0  0
 15 34  1  0  0  0  0
 16 23  1  0  0  0  0
 16 17  1  0  0  0  0
 17 18  1  0  0  0  0
 17 35  1  0  0  0  0
 17 36  1  0  0  0  0
 18 19  1  0  0  0  0
 18 37  1  0  0  0  0
 18 38  1  0  0  0  0
 19 20  2  0  0  0  0
 19 21  2  0  0  0  0
 19 22  1  0  0  0  0
 22 23  2  0  0  0  0
M  CHG  1   3  -1
M  END
> <s_m_source_file>
AV-unprocessed.smi

> <i_m_source_file_index>
2188

> <i_lp_mmshare_version>
43012

> <i_f3d_flags>
0

> <s_epik_input>
W0NIMl0xW0NIMl1TKD1PKSg9TylOPUMoTjEyKUMoPVtDSF1bQ0hdPVtDSF0yKUMoPU8pW05IXVtDSDJdW0NIMl1jM1tjSF1bY0hdW2NIXW5bY0hdMw==

> <s_epik_cmdline>
J2VwaWtfcHl0aG9uJywgJy1waCcsICc3LjAnLCAnLXRuJywgJzgnLCAnLW1hJywgJzIwMCcsICctbWV0YWxfYmluZGluZycsICctaW1hZScsICc8aW5maWxlLm1hZT4nLCAnLW9tYWUnLCAnPG91dGZpbGUubWFlPic=

> <r_epik_Ionization_Penalty>
5.61471

> <r_epik_Ionization_Penalty_Charging>
5.5942

> <r_epik_Ionization_Penalty_Neutral>
0.0205175

> <r_epik_State_Penalty>
5.60129

> <r_epik_Charging_Adjusted_Penalty>
11.1955

> <i_epik_Tot_Q>
-1

> <i_epik_Tot_abs_Q>
1

> <r_epik_Metal_State_Penalty>
1.60393

> <b_epik_Metal_Only>
1

> <s_lp_Force_Field>
OPLS_2005

> <r_lp_Energy>
34.9518

> <b_lp_Chiralities_Consistent>
1

> <s_lp_Variant>
AV-unprocessed.smi:2188-3

> <Gold.Version>
5.8.1

> <Gold.Id.Protein>
6NUR|6NUR_protein|mol2

> <Gold.PLP.Fitness>
46.4293

> <Gold.PLP.PLP>
-44.3072

> <Gold.PLP.part.hbond>
-2.0000

> <Gold.PLP.part.metal>
0.0000

> <Gold.PLP.part.buried>
-3.1704

> <Gold.PLP.part.nonpolar>
-38.0459

> <Gold.PLP.part.repulsive>
0.0000

> <Gold.PLP.ligand.clash>
0.7072

> <Gold.PLP.ligand.torsion>
0.2306

> <Gold.PLP.Chemscore.Hbond>
1.0000

> <Gold.PLP.Chemscore.CHOScore>
0.0000

> <Gold.PLP.Chemscore.Metal>
0.0000

> <Gold.Chemscore.Hbonds>
donor molecule, donor type, donor heavy atom, donor atom, acceptor molecule, acceptor atom, score
      P1  H  7997  8010       L1    21  1.00

> <Gold.PLP.Chemscore.Internal.Correction>
0.2906

> <Gold.Rescore>
     Score         DG    S(hbond)    S(metal)    S(lipo)     H(rot)  DE(clash)    DE(int)     intcor
     15.36     -18.00       0.94        0.00     111.65       1.44       0.16       2.48       ----

> <Gold.Chemscore.Fitness>
15.3571

> <Gold.Chemscore.DG>
-17.9950

> <Gold.Chemscore.ZeroCoef>
-5.4800

> <Gold.Chemscore.Hbond>
0.9421

> <Gold.Chemscore.Metal>
0.0000

> <Gold.Chemscore.Lipo>
111.6528

> <Gold.Chemscore.Internal_Hbond>
0.0000

> <Gold.Chemscore.DEClash>
0.1615

> <Gold.Chemscore.DEInternal>
2.4765

> <Gold.Chemscore.Rot>
1.4433

> <Gold.Chemscore.Internal.Correction>
   9.000000E+99

> <Gold.Chemscore.Hbonds>
donor molecule, donor type, donor heavy atom, donor atom, acceptor molecule, acceptor atom, score
      P1  H  7997  8010       L1    21  0.88

> <Gold.Chemscore.Hbond.Weighted>
-3.1466

> <Gold.Chemscore.Metal.Weighted>
-0.0000

> <Gold.Chemscore.Lipo.Weighted>
-13.0634

> <Gold.Chemscore.Internal_Hbond.Weighted>
0.0000

> <Gold.Chemscore.DEClash.Weighted>
0.1615

> <Gold.Chemscore.DEInternal.Weighted>
2.4765

> <Gold.Chemscore.Rot.Weighted>
3.6949

> <Gold.Chemscore.Internal.Correction.Weighted>
   9.000000E+99

> <Gold.Protein.RotatedTorsions>
[ 6907 6896 6895 6894 ] final -167.65 input  -60.11 | X-H torsion
[ 7974 7965 7964 7962 ] final   18.42 input  175.53 | X-H torsion
[ 8008 7997 7996 7995 ] final   85.27 input   59.86 | X-H torsion
[ 10167 10162 10161 10158 ] final   15.94 input  -65.29 | X-H torsion
[ 10718 10713 10712 10709 ] final   39.91 input   66.30 | X-H torsion
[ 10763 10752 10751 10750 ] final   -7.91 input  -60.55 | X-H torsion
[ 11005 11000 10999 10996 ] final   45.74 input  -57.11 | X-H torsion

> <Gold.Protein.ActiveResidues>
 VAL166  LYS551  ARG553  GLY616  TRP617  ASP618  TYR619  PRO620  LYS621  CYS622 
 ASP623  PHE694  ASN695  SER759  ASP760  ASP761  ALA762  ILE779  LEU786  VAL792 
 PHE793  MET794  SER795  GLU796  ALA797  LYS798  CYS799  TRP800  GLU811  SER814 

> <Gold.Protein.RotatedAtoms>
  151.4629  133.3588  159.2811 H   0  0  0  0  0  0  0  0  0  0  0  0  # atno 6907 bound_to 6896
  150.9013  134.8427  159.7373 H   0  0  0  0  0  0  0  0  0  0  0  0  # atno 6908 bound_to 6896
  152.4881  134.4549  159.9638 H   0  0  0  0  0  0  0  0  0  0  0  0  # atno 6909 bound_to 6896
  146.2185  139.8460  142.8631 H   0  0  0  0  0  0  0  0  0  0  0  0  # atno 7974 bound_to 7965
  155.9478  140.3403  155.6382 H   0  0  0  0  0  0  0  0  0  0  0  0  # atno 8008 bound_to 7997
  155.6958  140.0754  157.2448 H   0  0  0  0  0  0  0  0  0  0  0  0  # atno 8009 bound_to 7997
  154.4115  140.1649  156.2124 H   0  0  0  0  0  0  0  0  0  0  0  0  # atno 8010 bound_to 7997
  140.5832  143.8940  150.6808 H   0  0  0  0  0  0  0  0  0  0  0  0  # atno 10167 bound_to 10162
  157.3761  130.7728  149.7156 H   0  0  0  0  0  0  0  0  0  0  0  0  # atno 10718 bound_to 10713
  153.4330  135.7012  153.6218 H   0  0  0  0  0  0  0  0  0  0  0  0  # atno 10763 bound_to 10752
  153.4625  135.3733  155.2346 H   0  0  0  0  0  0  0  0  0  0  0  0  # atno 10764 bound_to 10752
  154.8726  135.4023  154.3716 H   0  0  0  0  0  0  0  0  0  0  0  0  # atno 10765 bound_to 10752
  140.1432  134.4557  155.8435 H   0  0  0  0  0  0  0  0  0  0  0  0  # atno 11005 bound_to 11000
  145.2850  141.0150  143.3696 LP  0  0  0  0  0  0  0  0  0  0  0  0  # atno 17320 bound_to 7965
  144.9121  139.4516  143.6582 LP  0  0  0  0  0  0  0  0  0  0  0  0  # atno 17321 bound_to 7965
  140.2445  143.3639  152.1459 LP  0  0  0  0  0  0  0  0  0  0  0  0  # atno 17342 bound_to 10162
  139.5182  144.7002  151.5514 LP  0  0  0  0  0  0  0  0  0  0  0  0  # atno 17343 bound_to 10162
  155.9765  130.4074  150.3772 LP  0  0  0  0  0  0  0  0  0  0  0  0  # atno 17370 bound_to 10713
  157.1869  131.0406  151.2720 LP  0  0  0  0  0  0  0  0  0  0  0  0  # atno 17371 bound_to 10713
  141.2189  133.6841  156.7285 LP  0  0  0  0  0  0  0  0  0  0  0  0  # atno 17394 bound_to 11000
  140.2696  134.8402  157.3835 LP  0  0  0  0  0  0  0  0  0  0  0  0  # atno 17395 bound_to 11000

$$$$
