AV-unprocessed.smi:1066|AV-procd|sdf|4671|dock1
  -GOLD-   22720 3183D 1   1.00000     0.00000
 Structure written by MMmdl.
 38 40  0  0  0  0  0  0  0  0  2 V2000
  150.4663  130.2715  154.4922 C   0  0  0  0  0  0  0  0  0  0  0  0
  150.4388  131.3752  155.5100 C   0  0  0  0  0  0  0  0  0  0  0  0
  150.6322  131.0869  156.7906 N   0  0  0  0  0  0  0  0  0  0  0  0
  150.5492  132.2993  157.4851 O   0  0  0  0  0  0  0  0  0  0  0  0
  150.3096  133.2647  156.5687 C   0  0  0  0  0  0  0  0  0  0  0  0
  150.1224  134.9180  157.0023 Cl  0  0  0  0  0  0  0  0  0  0  0  0
  150.2247  132.7689  155.2992 C   0  0  0  0  0  0  0  0  0  0  0  0
  149.9672  133.4900  154.0006 C   0  0  0  0  0  0  0  0  0  0  0  0
  148.6287  133.0350  153.4203 C   0  0  0  0  0  0  0  0  0  0  0  0
  148.2222  131.8922  153.6273 O   0  0  0  0  0  0  0  0  0  0  0  0
  147.9486  133.9426  152.7040 N   0  0  0  0  0  0  0  0  0  0  0  0
  146.6388  133.7207  152.1040 C   0  0  1  0  0  0  0  0  0  0  0  0
  145.8073  134.9850  151.9086 C   0  0  0  0  0  0  0  0  0  0  0  0
  144.8010  134.5590  150.8340 C   0  0  0  0  0  0  0  0  0  0  0  0
  145.4583  133.4989  150.0294 N   0  3  2  0  0  0  0  0  0  0  0  0
  144.6069  132.3093  149.8095 C   0  0  0  0  0  0  0  0  0  0  0  0
  143.5785  132.0944  150.8943 C   0  0  0  0  0  0  0  0  0  0  0  0
  144.8128  131.2208  150.8357 C   0  0  0  0  0  0  0  0  0  0  0  0
  146.7525  133.1887  150.6761 C   0  0  0  0  0  0  0  0  0  0  0  0
  149.7550  130.4602  153.6878 H   0  0  0  0  0  0  0  0  0  0  0  0
  150.2106  129.3091  154.9370 H   0  0  0  0  0  0  0  0  0  0  0  0
  151.4561  130.1794  154.0449 H   0  0  0  0  0  0  0  0  0  0  0  0
  149.9505  134.5719  154.1382 H   0  0  0  0  0  0  0  0  0  0  0  0
  150.7564  133.2916  153.2743 H   0  0  0  0  0  0  0  0  0  0  0  0
  148.3620  134.8564  152.5845 H   0  0  0  0  0  0  0  0  0  0  0  0
  146.0764  133.0038  152.7062 H   0  0  0  0  0  0  0  0  0  0  0  0
  145.3258  135.3261  152.8257 H   0  0  0  0  0  0  0  0  0  0  0  0
  146.4331  135.7963  151.5332 H   0  0  0  0  0  0  0  0  0  0  0  0
  143.9036  134.1652  151.3143 H   0  0  0  0  0  0  0  0  0  0  0  0
  144.4954  135.3953  150.2049 H   0  0  0  0  0  0  0  0  0  0  0  0
  144.3799  132.0589  148.7744 H   0  0  0  0  0  0  0  0  0  0  0  0
  143.5174  132.8256  151.6987 H   0  0  0  0  0  0  0  0  0  0  0  0
  142.6324  131.6399  150.6069 H   0  0  0  0  0  0  0  0  0  0  0  0
  144.6790  130.1912  150.5095 H   0  0  0  0  0  0  0  0  0  0  0  0
  145.5720  131.3708  151.6014 H   0  0  0  0  0  0  0  0  0  0  0  0
  147.5333  133.7230  150.1323 H   0  0  0  0  0  0  0  0  0  0  0  0
  146.9994  132.1263  150.6449 H   0  0  0  0  0  0  0  0  0  0  0  0
  145.6684  133.8862  149.1203 H   0  0  0  0  0  0  0  0  0  0  0  0
  1  2  1  0  0  0  0
  1 20  1  0  0  0  0
  1 21  1  0  0  0  0
  1 22  1  0  0  0  0
  2  7  1  0  0  0  0
  2  3  2  0  0  0  0
  3  4  1  0  0  0  0
  4  5  1  0  0  0  0
  5  6  1  0  0  0  0
  5  7  2  0  0  0  0
  7  8  1  0  0  0  0
  8  9  1  0  0  0  0
  8 23  1  0  0  0  0
  8 24  1  0  0  0  0
  9 10  2  0  0  0  0
  9 11  1  0  0  0  0
 11 12  1  0  0  0  0
 11 25  1  0  0  0  0
 12 19  1  0  0  0  0
 12 13  1  0  0  0  0
 12 26  1  0  0  0  0
 13 14  1  0  0  0  0
 13 27  1  0  0  0  0
 13 28  1  0  0  0  0
 14 15  1  0  0  0  0
 14 29  1  0  0  0  0
 14 30  1  0  0  0  0
 15 16  1  0  0  0  0
 15 19  1  0  0  0  0
 15 38  1  0  0  0  0
 16 18  1  0  0  0  0
 16 17  1  0  0  0  0
 16 31  1  0  0  0  0
 17 18  1  0  0  0  0
 17 32  1  0  0  0  0
 17 33  1  0  0  0  0
 18 34  1  0  0  0  0
 18 35  1  0  0  0  0
 19 36  1  0  0  0  0
 19 37  1  0  0  0  0
M  CHG  1  15   1
M  END
> <s_m_source_file>
AV-unprocessed.smi

> <i_m_source_file_index>
1066

> <i_lp_mmshare_version>
43012

> <i_f3d_flags>
0

> <s_epik_input>
W0NIM11jMW5vYyhDbCljMVtDSDJdQyg9TylbTkhdW0NAQEhdMltDSDJdW0NIMl1OKFtDSDJdMilbQ0hdM1tDSDJdW0NIMl0z

> <s_epik_cmdline>
J2VwaWtfcHl0aG9uJywgJy1waCcsICc3LjAnLCAnLXRuJywgJzgnLCAnLW1hJywgJzIwMCcsICctbWV0YWxfYmluZGluZycsICctaW1hZScsICc8aW5maWxlLm1hZT4nLCAnLW9tYWUnLCAnPG91dGZpbGUubWFlPic=

> <r_epik_Ionization_Penalty>
0.00108138

> <r_epik_Ionization_Penalty_Charging>
0.00108128

> <r_epik_Ionization_Penalty_Neutral>
9.66632e-08

> <r_epik_State_Penalty>
0.000708577

> <r_epik_Charging_Adjusted_Penalty>
0.00178986

> <i_epik_Tot_Q>
1

> <i_epik_Tot_abs_Q>
1

> <r_epik_Metal_State_Penalty>
-0

> <b_epik_Metal_Only>
0

> <s_lp_Force_Field>
OPLS_2005

> <r_lp_Energy>
31.8821

> <b_lp_Chiralities_Consistent>
1

> <s_lp_Variant>
AV-unprocessed.smi:1066-4

> <Gold.Version>
5.8.1

> <Gold.Id.Protein>
6NUR|6NUR_protein|mol2

> <Gold.PLP.Fitness>
42.6828

> <Gold.PLP.PLP>
-35.6535

> <Gold.PLP.part.hbond>
-3.0000

> <Gold.PLP.part.metal>
0.0000

> <Gold.PLP.part.buried>
-4.7172

> <Gold.PLP.part.nonpolar>
-27.9658

> <Gold.PLP.part.repulsive>
0.1958

> <Gold.PLP.ligand.clash>
0.0000

> <Gold.PLP.ligand.torsion>
1.6420

> <Gold.PLP.Chemscore.Hbond>
2.9913

> <Gold.PLP.Chemscore.CHOScore>
0.0000

> <Gold.PLP.Chemscore.Metal>
0.0000

> <Gold.Chemscore.Hbonds>
donor molecule, donor type, donor heavy atom, donor atom, acceptor molecule, acceptor atom, score
      L1  H    11    25       P1  7948  1.00
      L1  H    15    38       P1  7921  1.00
      P1  H  6896  6907       L1     4  0.70

> <Gold.PLP.Chemscore.Internal.Correction>
1.3396

> <Gold.Rescore>
     Score         DG    S(hbond)    S(metal)    S(lipo)     H(rot)  DE(clash)    DE(int)     intcor
     18.16     -20.32       2.80        0.00      81.23       1.57       0.43       1.73       ----

> <Gold.Chemscore.Fitness>
18.1553

> <Gold.Chemscore.DG>
-20.3192

> <Gold.Chemscore.ZeroCoef>
-5.4800

> <Gold.Chemscore.Hbond>
2.8017

> <Gold.Chemscore.Metal>
0.0000

> <Gold.Chemscore.Lipo>
81.2283

> <Gold.Chemscore.Internal_Hbond>
0.0000

> <Gold.Chemscore.DEClash>
0.4299

> <Gold.Chemscore.DEInternal>
1.7341

> <Gold.Chemscore.Rot>
1.5711

> <Gold.Chemscore.Internal.Correction>
   9.000000E+99

> <Gold.Chemscore.Hbonds>
donor molecule, donor type, donor heavy atom, donor atom, acceptor molecule, acceptor atom, score
      L1  H    11    25       P1  7948  0.44
      L1  H    15    38       P1  7921  0.45
      P1  H  6896  6907       L1     4  0.27

> <Gold.Chemscore.Hbond.Weighted>
-9.3576

> <Gold.Chemscore.Metal.Weighted>
-0.0000

> <Gold.Chemscore.Lipo.Weighted>
-9.5037

> <Gold.Chemscore.Internal_Hbond.Weighted>
0.0000

> <Gold.Chemscore.DEClash.Weighted>
0.4299

> <Gold.Chemscore.DEInternal.Weighted>
1.7341

> <Gold.Chemscore.Rot.Weighted>
4.0221

> <Gold.Chemscore.Internal.Correction.Weighted>
   9.000000E+99

> <Gold.Protein.RotatedTorsions>
[ 6907 6896 6895 6894 ] final -152.35 input  -60.11 | X-H torsion
[ 7974 7965 7964 7962 ] final  171.24 input  175.53 | X-H torsion
[ 8008 7997 7996 7995 ] final -129.60 input   59.86 | X-H torsion
[ 10167 10162 10161 10158 ] final  159.44 input  -65.29 | X-H torsion
[ 10718 10713 10712 10709 ] final  -50.21 input   66.30 | X-H torsion
[ 10763 10752 10751 10750 ] final  160.53 input  -60.55 | X-H torsion
[ 11005 11000 10999 10996 ] final  176.00 input  -57.11 | X-H torsion

> <Gold.Protein.ActiveResidues>
 VAL166  LYS551  ARG553  GLY616  TRP617  ASP618  TYR619  PRO620  LYS621  CYS622 
 ASP623  PHE694  ASN695  SER759  ASP760  ASP761  ALA762  ILE779  LEU786  VAL792 
 PHE793  MET794  SER795  GLU796  ALA797  LYS798  CYS799  TRP800  GLU811  SER814 

> <Gold.Protein.RotatedAtoms>
  151.2265  133.4473  159.2602 H   0  0  0  0  0  0  0  0  0  0  0  0  # atno 6907 bound_to 6896
  151.0835  134.9873  159.8378 H   0  0  0  0  0  0  0  0  0  0  0  0  # atno 6908 bound_to 6896
  152.5427  134.2203  159.8838 H   0  0  0  0  0  0  0  0  0  0  0  0  # atno 6909 bound_to 6896
  144.7300  139.9321  143.6425 H   0  0  0  0  0  0  0  0  0  0  0  0  # atno 7974 bound_to 7965
  155.2818  140.0444  157.3016 H   0  0  0  0  0  0  0  0  0  0  0  0  # atno 8008 bound_to 7997
  154.5592  140.2341  155.8330 H   0  0  0  0  0  0  0  0  0  0  0  0  # atno 8009 bound_to 7997
  156.2033  140.3019  155.9580 H   0  0  0  0  0  0  0  0  0  0  0  0  # atno 8010 bound_to 7997
  139.4832  144.4729  151.8551 H   0  0  0  0  0  0  0  0  0  0  0  0  # atno 10167 bound_to 10162
  156.1822  130.4151  149.9491 H   0  0  0  0  0  0  0  0  0  0  0  0  # atno 10718 bound_to 10713
  154.2489  135.2772  155.2824 H   0  0  0  0  0  0  0  0  0  0  0  0  # atno 10763 bound_to 10752
  154.5482  135.5683  153.6902 H   0  0  0  0  0  0  0  0  0  0  0  0  # atno 10764 bound_to 10752
  152.9984  135.6268  154.2635 H   0  0  0  0  0  0  0  0  0  0  0  0  # atno 10765 bound_to 10752
  140.3683  134.7052  157.4376 H   0  0  0  0  0  0  0  0  0  0  0  0  # atno 11005 bound_to 11000
  146.0850  139.3838  143.0441 LP  0  0  0  0  0  0  0  0  0  0  0  0  # atno 17320 bound_to 7965
  145.7790  140.9864  143.1109 LP  0  0  0  0  0  0  0  0  0  0  0  0  # atno 17321 bound_to 7965
  140.4200  144.2256  150.5887 LP  0  0  0  0  0  0  0  0  0  0  0  0  # atno 17342 bound_to 10162
  140.4883  143.2356  151.8855 LP  0  0  0  0  0  0  0  0  0  0  0  0  # atno 17343 bound_to 10162
  156.7258  130.9024  151.3622 LP  0  0  0  0  0  0  0  0  0  0  0  0  # atno 17370 bound_to 10713
  157.6875  130.9200  150.0426 LP  0  0  0  0  0  0  0  0  0  0  0  0  # atno 17371 bound_to 10713
  140.0572  134.6047  155.8791 LP  0  0  0  0  0  0  0  0  0  0  0  0  # atno 17394 bound_to 11000
  141.1963  133.6591  156.5683 LP  0  0  0  0  0  0  0  0  0  0  0  0  # atno 17395 bound_to 11000

$$$$
