AV-unprocessed.smi:2246|AV-procd|sdf|9085|dock10
  -GOLD-   2272012293D 1   1.00000     0.00000
 Structure written by MMmdl.
 28 29  0  0  0  0  0  0  0  0  2 V2000
  151.9605  141.1129  159.7020 O   0  0  0  0  0  0  0  0  0  0  0  0
  151.1549  141.1794  158.7742 C   0  0  0  0  0  0  0  0  0  0  0  0
  150.1554  140.0652  158.4684 C   0  0  2  0  0  0  0  0  0  0  0  0
  150.8569  138.8168  158.0809 N   0  0  0  0  0  0  0  0  0  0  0  0
  151.8105  138.8631  157.0408 C   0  0  0  0  0  0  0  0  0  0  0  0
  152.5169  137.7823  156.6595 C   0  0  0  0  0  0  0  0  0  0  0  0
  153.6770  137.8825  155.3830 Cl  0  0  0  0  0  0  0  0  0  0  0  0
  152.2808  136.5263  157.3647 C   0  0  0  0  0  0  0  0  0  0  0  0
  152.8940  135.5140  157.0288 O   0  0  0  0  0  0  0  0  0  0  0  0
  151.3757  136.5353  158.3855 N   0  5  0  0  0  0  0  0  0  0  0  0
  150.6754  137.6471  158.7689 C   0  0  0  0  0  0  0  0  0  0  0  0
  149.8845  137.6203  159.7118 O   0  0  0  0  0  0  0  0  0  0  0  0
  149.3147  140.6712  157.3228 C   0  0  0  0  0  0  0  0  0  0  0  0
  149.9755  142.0027  156.9414 C   0  0  0  0  0  0  0  0  0  0  0  0
  151.0204  142.2074  157.9286 N   0  0  0  0  0  0  0  0  0  0  0  0
  151.8117  143.4365  157.9267 C   0  0  0  0  0  0  0  0  0  0  0  0
  151.6735  144.2277  159.2408 C   0  0  0  0  0  0  0  0  0  0  0  0
  152.2432  145.4224  159.0876 F   0  0  0  0  0  0  0  0  0  0  0  0
  150.3939  144.4098  159.5659 F   0  0  0  0  0  0  0  0  0  0  0  0
  152.2908  143.5883  160.2345 F   0  0  0  0  0  0  0  0  0  0  0  0
  149.5105  139.9398  159.3391 H   0  0  0  0  0  0  0  0  0  0  0  0
  151.9449  139.8288  156.5778 H   0  0  0  0  0  0  0  0  0  0  0  0
  149.2082  140.0100  156.4621 H   0  0  0  0  0  0  0  0  0  0  0  0
  148.3028  140.8610  157.6830 H   0  0  0  0  0  0  0  0  0  0  0  0
  150.4157  141.9502  155.9450 H   0  0  0  0  0  0  0  0  0  0  0  0
  149.2578  142.8237  156.9546 H   0  0  0  0  0  0  0  0  0  0  0  0
  152.8599  143.1828  157.7619 H   0  0  0  0  0  0  0  0  0  0  0  0
  151.5151  144.0602  157.0819 H   0  0  0  0  0  0  0  0  0  0  0  0
  1  2  2  0  0  0  0
  2 15  1  0  0  0  0
  2  3  1  0  0  0  0
  3  4  1  0  0  0  0
  3 13  1  0  0  0  0
  3 21  1  0  0  0  0
  4 11  1  0  0  0  0
  4  5  1  0  0  0  0
  5  6  2  0  0  0  0
  5 22  1  0  0  0  0
  6  7  1  0  0  0  0
  6  8  1  0  0  0  0
  8  9  2  0  0  0  0
  8 10  1  0  0  0  0
 10 11  1  0  0  0  0
 11 12  2  0  0  0  0
 13 14  1  0  0  0  0
 13 23  1  0  0  0  0
 13 24  1  0  0  0  0
 14 15  1  0  0  0  0
 14 25  1  0  0  0  0
 14 26  1  0  0  0  0
 15 16  1  0  0  0  0
 16 17  1  0  0  0  0
 16 27  1  0  0  0  0
 16 28  1  0  0  0  0
 17 18  1  0  0  0  0
 17 19  1  0  0  0  0
 17 20  1  0  0  0  0
M  CHG  1  10  -1
M  END
> <s_m_source_file>
AV-unprocessed.smi

> <i_m_source_file_index>
2246

> <i_lp_mmshare_version>
43012

> <i_f3d_flags>
0

> <s_epik_input>
RkMoRikoRilbQ0gyXU4xW0NIMl1bQ0gyXVtDQEBIXShDMT1PKW4yW2NIXWMoQ2wpYyg9TylbbkhdYzI9Tw==

> <s_epik_cmdline>
J2VwaWtfcHl0aG9uJywgJy1waCcsICc3LjAnLCAnLXRuJywgJzgnLCAnLW1hJywgJzIwMCcsICctbWV0YWxfYmluZGluZycsICctaW1hZScsICc8aW5maWxlLm1hZT4nLCAnLW9tYWUnLCAnPG91dGZpbGUubWFlPic=

> <r_epik_Ionization_Penalty>
1.33611

> <r_epik_Ionization_Penalty_Charging>
6.88308e-09

> <r_epik_Ionization_Penalty_Neutral>
1.33611

> <r_epik_State_Penalty>
1.41295

> <r_epik_Charging_Adjusted_Penalty>
1.41295

> <i_epik_Tot_Q>
-1

> <i_epik_Tot_abs_Q>
1

> <r_epik_Metal_State_Penalty>
0.00581136

> <b_epik_Metal_Only>
0

> <s_lp_Force_Field>
OPLS_2005

> <r_lp_Energy>
31.0989

> <b_lp_Chiralities_Consistent>
1

> <s_lp_Variant>
AV-unprocessed.smi:2246-4

> <Gold.Version>
5.8.1

> <Gold.Id.Protein>
6NUR|6NUR_protein|mol2

> <Gold.PLP.Fitness>
38.2900

> <Gold.PLP.PLP>
-31.3388

> <Gold.PLP.part.hbond>
-3.0000

> <Gold.PLP.part.metal>
0.0000

> <Gold.PLP.part.buried>
-2.4911

> <Gold.PLP.part.nonpolar>
-27.1564

> <Gold.PLP.part.repulsive>
0.0000

> <Gold.PLP.ligand.clash>
0.0000

> <Gold.PLP.ligand.torsion>
0.1055

> <Gold.PLP.Chemscore.Hbond>
2.3513

> <Gold.PLP.Chemscore.CHOScore>
0.0000

> <Gold.PLP.Chemscore.Metal>
0.0000

> <Gold.Chemscore.Hbonds>
donor molecule, donor type, donor heavy atom, donor atom, acceptor molecule, acceptor atom, score
      P1  H  6896  6907       L1    10  1.27
      P1  H  6931  6943       L1    12  0.01
      P1  H 10752 10765       L1     9  1.00

> <Gold.PLP.Chemscore.Internal.Correction>
0.1082

> <Gold.Rescore>
     Score         DG    S(hbond)    S(metal)    S(lipo)     H(rot)  DE(clash)    DE(int)     intcor
     11.19     -13.62       1.67        0.00      53.67       1.45       0.60       1.83       ----

> <Gold.Chemscore.Fitness>
11.1883

> <Gold.Chemscore.DG>
-13.6209

> <Gold.Chemscore.ZeroCoef>
-5.4800

> <Gold.Chemscore.Hbond>
1.6669

> <Gold.Chemscore.Metal>
0.0000

> <Gold.Chemscore.Lipo>
53.6699

> <Gold.Chemscore.Internal_Hbond>
0.0000

> <Gold.Chemscore.DEClash>
0.6010

> <Gold.Chemscore.DEInternal>
1.8315

> <Gold.Chemscore.Rot>
1.4476

> <Gold.Chemscore.Internal.Correction>
   9.000000E+99

> <Gold.Chemscore.Hbonds>
donor molecule, donor type, donor heavy atom, donor atom, acceptor molecule, acceptor atom, score
      P1  H  6896  6907       L1    10  0.41
      P1  H  6931  6943       L1    12  0.01
      P1  H 10752 10765       L1     9  0.96

> <Gold.Chemscore.Hbond.Weighted>
-5.5674

> <Gold.Chemscore.Metal.Weighted>
-0.0000

> <Gold.Chemscore.Lipo.Weighted>
-6.2794

> <Gold.Chemscore.Internal_Hbond.Weighted>
0.0000

> <Gold.Chemscore.DEClash.Weighted>
0.6010

> <Gold.Chemscore.DEInternal.Weighted>
1.8315

> <Gold.Chemscore.Rot.Weighted>
3.7059

> <Gold.Chemscore.Internal.Correction.Weighted>
   9.000000E+99

> <Gold.Protein.RotatedTorsions>
[ 6907 6896 6895 6894 ] final  -24.17 input  -60.11 | X-H torsion
[ 7974 7965 7964 7962 ] final  -29.39 input  175.53 | X-H torsion
[ 8008 7997 7996 7995 ] final -104.25 input   59.86 | X-H torsion
[ 10167 10162 10161 10158 ] final   89.58 input  -65.29 | X-H torsion
[ 10718 10713 10712 10709 ] final   88.68 input   66.30 | X-H torsion
[ 10763 10752 10751 10750 ] final -127.20 input  -60.55 | X-H torsion
[ 11005 11000 10999 10996 ] final  -52.74 input  -57.11 | X-H torsion

> <Gold.Protein.ActiveResidues>
 VAL166  LYS551  ARG553  GLY616  TRP617  ASP618  TYR619  PRO620  LYS621  CYS622 
 ASP623  PHE694  ASN695  SER759  ASP760  ASP761  ALA762  ILE779  LEU786  VAL792 
 PHE793  MET794  SER795  GLU796  ALA797  LYS798  CYS799  TRP800  GLU811  SER814 

> <Gold.Protein.RotatedAtoms>
  151.1933  135.0412  159.8841 H   0  0  0  0  0  0  0  0  0  0  0  0  # atno 6907 bound_to 6896
  152.5438  134.0931  159.8295 H   0  0  0  0  0  0  0  0  0  0  0  0  # atno 6908 bound_to 6896
  151.1063  133.5159  159.2640 H   0  0  0  0  0  0  0  0  0  0  0  0  # atno 6909 bound_to 6896
  146.1220  140.5406  142.8731 H   0  0  0  0  0  0  0  0  0  0  0  0  # atno 7974 bound_to 7965
  154.8826  140.0419  157.1791 H   0  0  0  0  0  0  0  0  0  0  0  0  # atno 8008 bound_to 7997
  154.8624  140.2946  155.5510 H   0  0  0  0  0  0  0  0  0  0  0  0  # atno 8009 bound_to 7997
  156.2998  140.2444  156.3600 H   0  0  0  0  0  0  0  0  0  0  0  0  # atno 8010 bound_to 7997
  139.8559  144.6569  150.9115 H   0  0  0  0  0  0  0  0  0  0  0  0  # atno 10167 bound_to 10162
  157.6950  131.0304  150.3311 H   0  0  0  0  0  0  0  0  0  0  0  0  # atno 10718 bound_to 10713
  154.8751  135.3970  154.3555 H   0  0  0  0  0  0  0  0  0  0  0  0  # atno 10763 bound_to 10752
  153.4334  135.7025  153.6221 H   0  0  0  0  0  0  0  0  0  0  0  0  # atno 10764 bound_to 10752
  153.4833  135.3764  155.2423 H   0  0  0  0  0  0  0  0  0  0  0  0  # atno 10765 bound_to 10752
  141.0940  133.6627  156.4069 H   0  0  0  0  0  0  0  0  0  0  0  0  # atno 11005 bound_to 11000
  144.7606  140.5412  143.6738 LP  0  0  0  0  0  0  0  0  0  0  0  0  # atno 17320 bound_to 7965
  145.5447  139.1476  143.3428 LP  0  0  0  0  0  0  0  0  0  0  0  0  # atno 17321 bound_to 7965
  140.7781  143.3787  151.1517 LP  0  0  0  0  0  0  0  0  0  0  0  0  # atno 17342 bound_to 10162
  139.7421  143.8909  152.3053 LP  0  0  0  0  0  0  0  0  0  0  0  0  # atno 17343 bound_to 10162
  156.3784  130.3876  149.7120 LP  0  0  0  0  0  0  0  0  0  0  0  0  # atno 17370 bound_to 10713
  156.4511  130.7907  151.2928 LP  0  0  0  0  0  0  0  0  0  0  0  0  # atno 17371 bound_to 10713
  140.5184  134.6328  157.5309 LP  0  0  0  0  0  0  0  0  0  0  0  0  # atno 17394 bound_to 11000
  139.9772  134.7196  155.9927 LP  0  0  0  0  0  0  0  0  0  0  0  0  # atno 17395 bound_to 11000

$$$$
