AV-unprocessed.smi:3021|AV-procd|sdf|11498|dock9
  -GOLD-   2272016433D 1   1.00000     0.00000
 Structure written by MMmdl.
 35 37  0  0  0  0  0  0  0  0  1 V2000
  151.0497  139.3397  154.3479 O   0  0  0  0  0  0  0  0  0  0  0  0
  151.0131  139.3868  155.7610 C   0  0  2  0  0  0  0  0  0  0  0  0
  149.6108  138.9608  156.2216 C   0  0  0  0  0  0  0  0  0  0  0  0
  148.6505  139.7471  155.5365 O   0  0  0  0  0  0  0  0  0  0  0  0
  148.3064  140.9335  156.2346 C   0  0  0  0  0  0  0  0  0  0  0  0
  147.4806  141.7832  155.3209 C   0  0  0  0  0  0  0  0  0  0  0  0
  147.5431  142.0345  153.9780 C   0  0  0  0  0  0  0  0  0  0  0  0
  146.4755  142.9271  153.6835 C   0  0  0  0  0  0  0  0  0  0  0  0
  145.8374  143.1548  154.8690 C   0  0  0  0  0  0  0  0  0  0  0  0
  146.4360  142.4646  155.8770 O   0  0  0  0  0  0  0  0  0  0  0  0
  151.3671  140.8134  156.2244 C   0  0  0  0  0  0  0  0  0  0  0  0
  152.0204  140.8283  157.5217 N   0  0  0  0  0  0  0  0  0  0  0  0
  152.7875  139.7649  157.8946 N   0  0  0  0  0  0  0  0  0  0  0  0
  153.2746  139.9971  159.0767 N   0  0  0  0  0  0  0  0  0  0  0  0
  152.8221  141.2391  159.4901 C   0  0  0  0  0  0  0  0  0  0  0  0
  153.0447  141.9763  160.6745 C   0  0  0  0  0  0  0  0  0  0  0  0
  152.4533  143.2471  160.8461 C   0  0  0  0  0  0  0  0  0  0  0  0
  152.7499  144.1186  162.3084 Cl  0  0  0  0  0  0  0  0  0  0  0  0
  151.6309  143.7954  159.8323 C   0  0  0  0  0  0  0  0  0  0  0  0
  150.9000  145.3488  160.0260 Cl  0  0  0  0  0  0  0  0  0  0  0  0
  151.4006  143.0711  158.6456 C   0  0  0  0  0  0  0  0  0  0  0  0
  151.9978  141.8081  158.4953 C   0  0  0  0  0  0  0  0  0  0  0  0
  151.1071  138.4343  154.0823 H   0  0  0  0  0  0  0  0  0  0  0  0
  151.7532  138.6906  156.1582 H   0  0  0  0  0  0  0  0  0  0  0  0
  149.4409  137.9135  155.9663 H   0  0  0  0  0  0  0  0  0  0  0  0
  149.5044  139.0520  157.3042 H   0  0  0  0  0  0  0  0  0  0  0  0
  147.7409  140.6954  157.1363 H   0  0  0  0  0  0  0  0  0  0  0  0
  149.2054  141.4737  156.5340 H   0  0  0  0  0  0  0  0  0  0  0  0
  148.2691  141.6254  153.2909 H   0  0  0  0  0  0  0  0  0  0  0  0
  146.2079  143.3485  152.7259 H   0  0  0  0  0  0  0  0  0  0  0  0
  144.9842  143.7494  155.1604 H   0  0  0  0  0  0  0  0  0  0  0  0
  152.0202  141.3009  155.4991 H   0  0  0  0  0  0  0  0  0  0  0  0
  150.4654  141.4243  156.2880 H   0  0  0  0  0  0  0  0  0  0  0  0
  153.6723  141.5643  161.4509 H   0  0  0  0  0  0  0  0  0  0  0  0
  150.7781  143.4791  157.8630 H   0  0  0  0  0  0  0  0  0  0  0  0
  1  2  1  0  0  0  0
  1 23  1  0  0  0  0
  2  3  1  0  0  0  0
  2 11  1  0  0  0  0
  2 24  1  0  0  0  0
  3  4  1  0  0  0  0
  3 25  1  0  0  0  0
  3 26  1  0  0  0  0
  4  5  1  0  0  0  0
  5  6  1  0  0  0  0
  5 27  1  0  0  0  0
  5 28  1  0  0  0  0
  6 10  1  0  0  0  0
  6  7  2  0  0  0  0
  7  8  1  0  0  0  0
  7 29  1  0  0  0  0
  8  9  2  0  0  0  0
  8 30  1  0  0  0  0
  9 10  1  0  0  0  0
  9 31  1  0  0  0  0
 11 12  1  0  0  0  0
 11 32  1  0  0  0  0
 11 33  1  0  0  0  0
 12 22  1  0  0  0  0
 12 13  1  0  0  0  0
 13 14  2  0  0  0  0
 14 15  1  0  0  0  0
 15 22  2  0  0  0  0
 15 16  1  0  0  0  0
 16 17  2  0  0  0  0
 16 34  1  0  0  0  0
 17 18  1  0  0  0  0
 17 19  1  0  0  0  0
 19 20  1  0  0  0  0
 19 21  2  0  0  0  0
 21 22  1  0  0  0  0
 21 35  1  0  0  0  0
M  END
> <s_m_source_file>
AV-unprocessed.smi

> <i_m_source_file_index>
3021

> <i_lp_mmshare_version>
43012

> <i_f3d_flags>
0

> <s_epik_input>
W2NIXTFjKENsKWMoQ2wpW2NIXWMoYzEyKW4obm4yKVtDSDJdW0NASF0oW09IXSlbQ0gyXU9bQ0gyXWMzW2NIXVtjSF1bY0hdbzM=

> <s_epik_cmdline>
J2VwaWtfcHl0aG9uJywgJy1waCcsICc3LjAnLCAnLXRuJywgJzgnLCAnLW1hJywgJzIwMCcsICctbWV0YWxfYmluZGluZycsICctaW1hZScsICc8aW5maWxlLm1hZT4nLCAnLW9tYWUnLCAnPG91dGZpbGUubWFlPic=

> <r_lp_tautomer_probability>
1

> <r_epik_Ionization_Penalty>
6.1367e-06

> <r_epik_Ionization_Penalty_Charging>
0

> <r_epik_Ionization_Penalty_Neutral>
6.1367e-06

> <r_epik_State_Penalty>
-0

> <r_epik_Charging_Adjusted_Penalty>
0

> <i_epik_Tot_Q>
0

> <i_epik_Tot_abs_Q>
0

> <r_epik_Metal_State_Penalty>
-0

> <b_epik_Metal_Only>
0

> <s_lp_Force_Field>
OPLS_2005

> <r_lp_Energy>
8.1305

> <b_lp_Chiralities_Consistent>
1

> <s_lp_Variant>
AV-unprocessed.smi:3021-1

> <Gold.Version>
5.8.1

> <Gold.Id.Protein>
6NUR|6NUR_protein|mol2

> <Gold.PLP.Fitness>
47.3433

> <Gold.PLP.PLP>
-44.1832

> <Gold.PLP.part.hbond>
-2.1324

> <Gold.PLP.part.metal>
0.0000

> <Gold.PLP.part.buried>
-7.1804

> <Gold.PLP.part.nonpolar>
-34.1941

> <Gold.PLP.part.repulsive>
0.1631

> <Gold.PLP.ligand.clash>
0.0000

> <Gold.PLP.ligand.torsion>
1.3078

> <Gold.PLP.Chemscore.Hbond>
1.9000

> <Gold.PLP.Chemscore.CHOScore>
0.0000

> <Gold.PLP.Chemscore.Metal>
0.0000

> <Gold.Chemscore.Hbonds>
donor molecule, donor type, donor heavy atom, donor atom, acceptor molecule, acceptor atom, score
      P1  H  7989  7998       L1     1  1.00
      P1  H  7997  8008       L1    13  0.85

> <Gold.PLP.Chemscore.Internal.Correction>
0.0756

> <Gold.Rescore>
     Score         DG    S(hbond)    S(metal)    S(lipo)     H(rot)  DE(clash)    DE(int)     intcor
     16.23     -18.23       1.38        0.00     123.53       2.46       0.54       1.45       ----

> <Gold.Chemscore.Fitness>
16.2287

> <Gold.Chemscore.DG>
-18.2258

> <Gold.Chemscore.ZeroCoef>
-5.4800

> <Gold.Chemscore.Hbond>
1.3779

> <Gold.Chemscore.Metal>
0.0000

> <Gold.Chemscore.Lipo>
123.5316

> <Gold.Chemscore.Internal_Hbond>
0.0000

> <Gold.Chemscore.DEClash>
0.5447

> <Gold.Chemscore.DEInternal>
1.4524

> <Gold.Chemscore.Rot>
2.4647

> <Gold.Chemscore.Internal.Correction>
   9.000000E+99

> <Gold.Chemscore.Hbonds>
donor molecule, donor type, donor heavy atom, donor atom, acceptor molecule, acceptor atom, score
      P1  H  7989  7998       L1     1  0.94
      P1  H  7997  8008       L1    13  0.05

> <Gold.Chemscore.Hbond.Weighted>
-4.6023

> <Gold.Chemscore.Metal.Weighted>
-0.0000

> <Gold.Chemscore.Lipo.Weighted>
-14.4532

> <Gold.Chemscore.Internal_Hbond.Weighted>
0.0000

> <Gold.Chemscore.DEClash.Weighted>
0.5447

> <Gold.Chemscore.DEInternal.Weighted>
1.4524

> <Gold.Chemscore.Rot.Weighted>
6.3097

> <Gold.Chemscore.Internal.Correction.Weighted>
   9.000000E+99

> <Gold.Protein.RotatedTorsions>
[ 6907 6896 6895 6894 ] final  112.09 input  -60.11 | X-H torsion
[ 7974 7965 7964 7962 ] final  139.62 input  175.53 | X-H torsion
[ 8008 7997 7996 7995 ] final  -73.92 input   59.86 | X-H torsion
[ 10167 10162 10161 10158 ] final  171.00 input  -65.29 | X-H torsion
[ 10718 10713 10712 10709 ] final  109.24 input   66.30 | X-H torsion
[ 10763 10752 10751 10750 ] final  -46.77 input  -60.55 | X-H torsion
[ 11005 11000 10999 10996 ] final  -16.37 input  -57.11 | X-H torsion

> <Gold.Protein.ActiveResidues>
 VAL166  LYS551  ARG553  GLY616  TRP617  ASP618  TYR619  PRO620  LYS621  CYS622 
 ASP623  PHE694  ASN695  SER759  ASP760  ASP761  ALA762  ILE779  LEU786  VAL792 
 PHE793  MET794  SER795  GLU796  ALA797  LYS798  CYS799  TRP800  GLU811  SER814 

> <Gold.Protein.RotatedAtoms>
  152.4935  133.8565  159.7227 H   0  0  0  0  0  0  0  0  0  0  0  0  # atno 6907 bound_to 6896
  150.9088  133.7015  159.2867 H   0  0  0  0  0  0  0  0  0  0  0  0  # atno 6908 bound_to 6896
  151.4432  135.1026  159.9728 H   0  0  0  0  0  0  0  0  0  0  0  0  # atno 6909 bound_to 6896
  144.9262  139.5105  143.5640 H   0  0  0  0  0  0  0  0  0  0  0  0  # atno 7974 bound_to 7965
  154.5287  140.0770  156.8305 H   0  0  0  0  0  0  0  0  0  0  0  0  # atno 8008 bound_to 7997
  155.3421  140.3408  155.4221 H   0  0  0  0  0  0  0  0  0  0  0  0  # atno 8009 bound_to 7997
  156.1759  140.1635  156.8351 H   0  0  0  0  0  0  0  0  0  0  0  0  # atno 8010 bound_to 7997
  139.5034  144.3534  151.9899 H   0  0  0  0  0  0  0  0  0  0  0  0  # atno 10167 bound_to 10162
  157.6550  131.0910  150.6424 H   0  0  0  0  0  0  0  0  0  0  0  0  # atno 10718 bound_to 10713
  154.0505  135.6632  153.4800 H   0  0  0  0  0  0  0  0  0  0  0  0  # atno 10763 bound_to 10752
  153.0466  135.5111  154.7756 H   0  0  0  0  0  0  0  0  0  0  0  0  # atno 10764 bound_to 10752
  154.6760  135.3037  154.9644 H   0  0  0  0  0  0  0  0  0  0  0  0  # atno 10765 bound_to 10752
  140.8061  133.8176  155.9517 H   0  0  0  0  0  0  0  0  0  0  0  0  # atno 11005 bound_to 11000
  146.3227  139.8178  142.8933 LP  0  0  0  0  0  0  0  0  0  0  0  0  # atno 17320 bound_to 7965
  145.3216  141.0245  143.3497 LP  0  0  0  0  0  0  0  0  0  0  0  0  # atno 17321 bound_to 7965
  140.2971  144.3689  150.6071 LP  0  0  0  0  0  0  0  0  0  0  0  0  # atno 17342 bound_to 10162
  140.5902  143.2168  151.7267 LP  0  0  0  0  0  0  0  0  0  0  0  0  # atno 17343 bound_to 10162
  156.6731  130.4545  149.5651 LP  0  0  0  0  0  0  0  0  0  0  0  0  # atno 17370 bound_to 10713
  156.1983  130.6603  151.1139 LP  0  0  0  0  0  0  0  0  0  0  0  0  # atno 17371 bound_to 10713
  140.9245  134.2099  157.4904 LP  0  0  0  0  0  0  0  0  0  0  0  0  # atno 17394 bound_to 11000
  139.8717  134.9807  156.5085 LP  0  0  0  0  0  0  0  0  0  0  0  0  # atno 17395 bound_to 11000

$$$$
