AV-unprocessed.smi:304|AV-procd|sdf|2278|dock3
  -GOLD-   2262022173D 1   1.00000     0.00000
 Structure written by MMmdl.
 37 39  0  0  0  0  0  0  0  0  2 V2000
  148.5507  139.4630  158.5390 O   0  0  0  0  0  0  0  0  0  0  0  0
  149.5493  138.7372  157.8502 C   0  0  2  0  0  0  0  0  0  0  0  0
  149.6504  137.3272  158.4544 C   0  0  0  0  0  0  0  0  0  0  0  0
  148.4075  136.9740  159.0373 O   0  0  0  0  0  0  0  0  0  0  0  0
  148.2080  135.5742  159.1329 C   0  0  0  0  0  0  0  0  0  0  0  0
  147.7118  135.2754  160.5134 C   0  0  0  0  0  0  0  0  0  0  0  0
  147.3382  134.0493  161.0022 C   0  0  0  0  0  0  0  0  0  0  0  0
  146.9148  134.0887  162.3632 C   0  0  0  0  0  0  0  0  0  0  0  0
  146.9739  135.3459  162.9019 C   0  0  0  0  0  0  0  0  0  0  0  0
  147.5526  136.5105  161.7436 S   0  0  0  0  0  0  0  0  0  0  0  0
  150.8955  139.4912  157.8258 C   0  0  0  0  0  0  0  0  0  0  0  0
  150.7387  140.9387  157.6266 N   0  0  0  0  0  0  0  0  0  0  0  0
  150.1385  141.6167  156.6111 C   0  0  0  0  0  0  0  0  0  0  0  0
  150.2639  142.9470  156.8744 N   0  3  0  0  0  0  0  0  0  0  0  0
  150.9542  143.1220  158.0760 C   0  0  0  0  0  0  0  0  0  0  0  0
  151.3240  144.2788  158.7545 C   0  0  0  0  0  0  0  0  0  0  0  0
  152.0237  144.1082  159.9672 C   0  0  0  0  0  0  0  0  0  0  0  0
  152.4066  145.2016  160.6681 F   0  0  0  0  0  0  0  0  0  0  0  0
  152.3297  142.8231  160.4633 C   0  0  0  0  0  0  0  0  0  0  0  0
  153.0001  142.7044  161.6337 F   0  0  0  0  0  0  0  0  0  0  0  0
  151.9501  141.6574  159.7659 C   0  0  0  0  0  0  0  0  0  0  0  0
  151.2611  141.8355  158.5665 C   0  0  0  0  0  0  0  0  0  0  0  0
  148.4073  139.0532  159.3780 H   0  0  0  0  0  0  0  0  0  0  0  0
  149.1917  138.6360  156.8248 H   0  0  0  0  0  0  0  0  0  0  0  0
  149.9488  136.5989  157.6984 H   0  0  0  0  0  0  0  0  0  0  0  0
  150.4180  137.3212  159.2296 H   0  0  0  0  0  0  0  0  0  0  0  0
  147.4800  135.2444  158.3906 H   0  0  0  0  0  0  0  0  0  0  0  0
  149.1422  135.0421  158.9490 H   0  0  0  0  0  0  0  0  0  0  0  0
  147.3533  133.1316  160.4333 H   0  0  0  0  0  0  0  0  0  0  0  0
  146.5871  133.2058  162.8920 H   0  0  0  0  0  0  0  0  0  0  0  0
  146.7152  135.6575  163.9031 H   0  0  0  0  0  0  0  0  0  0  0  0
  151.4684  139.3219  158.7375 H   0  0  0  0  0  0  0  0  0  0  0  0
  151.5130  139.1170  157.0085 H   0  0  0  0  0  0  0  0  0  0  0  0
  149.6538  141.1790  155.7501 H   0  0  0  0  0  0  0  0  0  0  0  0
  151.0910  145.2643  158.3792 H   0  0  0  0  0  0  0  0  0  0  0  0
  152.1860  140.6793  160.1590 H   0  0  0  0  0  0  0  0  0  0  0  0
  149.9052  143.6796  156.2750 H   0  0  0  0  0  0  0  0  0  0  0  0
  1  2  1  0  0  0  0
  1 23  1  0  0  0  0
  2  3  1  0  0  0  0
  2 11  1  0  0  0  0
  2 24  1  0  0  0  0
  3  4  1  0  0  0  0
  3 25  1  0  0  0  0
  3 26  1  0  0  0  0
  4  5  1  0  0  0  0
  5  6  1  0  0  0  0
  5 27  1  0  0  0  0
  5 28  1  0  0  0  0
  6 10  1  0  0  0  0
  6  7  2  0  0  0  0
  7  8  1  0  0  0  0
  7 29  1  0  0  0  0
  8  9  2  0  0  0  0
  8 30  1  0  0  0  0
  9 10  1  0  0  0  0
  9 31  1  0  0  0  0
 11 12  1  0  0  0  0
 11 32  1  0  0  0  0
 11 33  1  0  0  0  0
 12 22  1  0  0  0  0
 12 13  1  0  0  0  0
 13 14  2  0  0  0  0
 13 34  1  0  0  0  0
 14 15  1  0  0  0  0
 14 37  1  0  0  0  0
 15 22  2  0  0  0  0
 15 16  1  0  0  0  0
 16 17  2  0  0  0  0
 16 35  1  0  0  0  0
 17 18  1  0  0  0  0
 17 19  1  0  0  0  0
 19 20  1  0  0  0  0
 19 21  2  0  0  0  0
 21 22  1  0  0  0  0
 21 36  1  0  0  0  0
M  CHG  1  14   1
M  END
> <s_m_source_file>
AV-unprocessed.smi

> <i_m_source_file_index>
304

> <i_lp_mmshare_version>
43012

> <i_f3d_flags>
0

> <s_epik_input>
W2NIXTFjKEYpYyhGKVtjSF1jKGMxMiluKFtjSF1uMilbQ0gyXVtDQEhdKFtPSF0pW0NIMl1PW0NIMl1jM1tjSF1bY0hdW2NIXXMz

> <s_epik_cmdline>
J2VwaWtfcHl0aG9uJywgJy1waCcsICc3LjAnLCAnLXRuJywgJzgnLCAnLW1hJywgJzIwMCcsICctbWV0YWxfYmluZGluZycsICctaW1hZScsICc8aW5maWxlLm1hZT4nLCAnLW9tYWUnLCAnPG91dGZpbGUubWFlPic=

> <r_epik_Ionization_Penalty>
2.17745

> <r_epik_Ionization_Penalty_Charging>
2.17744

> <r_epik_Ionization_Penalty_Neutral>
1.26231e-06

> <r_epik_State_Penalty>
2.31922

> <r_epik_Charging_Adjusted_Penalty>
4.49666

> <i_epik_Tot_Q>
1

> <i_epik_Tot_abs_Q>
1

> <r_epik_Metal_State_Penalty>
6.40003

> <b_epik_Metal_Only>
0

> <s_lp_Force_Field>
OPLS_2005

> <r_lp_Energy>
12.8656

> <b_lp_Chiralities_Consistent>
1

> <s_lp_Variant>
AV-unprocessed.smi:304-3

> <Gold.Version>
5.8.1

> <Gold.Id.Protein>
6NUR|6NUR_protein|mol2

> <Gold.PLP.Fitness>
55.1007

> <Gold.PLP.PLP>
-51.6288

> <Gold.PLP.part.hbond>
-1.9657

> <Gold.PLP.part.metal>
0.0000

> <Gold.PLP.part.buried>
-6.5471

> <Gold.PLP.part.nonpolar>
-43.6451

> <Gold.PLP.part.repulsive>
0.0648

> <Gold.PLP.ligand.clash>
0.0000

> <Gold.PLP.ligand.torsion>
1.0451

> <Gold.PLP.Chemscore.Hbond>
1.8240

> <Gold.PLP.Chemscore.CHOScore>
0.0000

> <Gold.PLP.Chemscore.Metal>
0.0000

> <Gold.Chemscore.Hbonds>
donor molecule, donor type, donor heavy atom, donor atom, acceptor molecule, acceptor atom, score
      L1  H    14    37       P1  8028  2.00

> <Gold.PLP.Chemscore.Internal.Correction>
0.0902

> <Gold.Rescore>
     Score         DG    S(hbond)    S(metal)    S(lipo)     H(rot)  DE(clash)    DE(int)     intcor
     13.38     -14.82       0.97        0.00     111.61       2.73       0.25       1.19       ----

> <Gold.Chemscore.Fitness>
13.3812

> <Gold.Chemscore.DG>
-14.8152

> <Gold.Chemscore.ZeroCoef>
-5.4800

> <Gold.Chemscore.Hbond>
0.9745

> <Gold.Chemscore.Metal>
0.0000

> <Gold.Chemscore.Lipo>
111.6099

> <Gold.Chemscore.Internal_Hbond>
0.0000

> <Gold.Chemscore.DEClash>
0.2471

> <Gold.Chemscore.DEInternal>
1.1869

> <Gold.Chemscore.Rot>
2.7258

> <Gold.Chemscore.Internal.Correction>
   9.000000E+99

> <Gold.Chemscore.Hbonds>
donor molecule, donor type, donor heavy atom, donor atom, acceptor molecule, acceptor atom, score
      L1  H    14    37       P1  8028  0.97

> <Gold.Chemscore.Hbond.Weighted>
-3.2550

> <Gold.Chemscore.Metal.Weighted>
-0.0000

> <Gold.Chemscore.Lipo.Weighted>
-13.0584

> <Gold.Chemscore.Internal_Hbond.Weighted>
0.0000

> <Gold.Chemscore.DEClash.Weighted>
0.2471

> <Gold.Chemscore.DEInternal.Weighted>
1.1869

> <Gold.Chemscore.Rot.Weighted>
6.9781

> <Gold.Chemscore.Internal.Correction.Weighted>
   9.000000E+99

> <Gold.Protein.RotatedTorsions>
[ 6907 6896 6895 6894 ] final -107.23 input  -60.11 | X-H torsion
[ 7974 7965 7964 7962 ] final   26.32 input  175.53 | X-H torsion
[ 8008 7997 7996 7995 ] final  -90.68 input   59.86 | X-H torsion
[ 10167 10162 10161 10158 ] final   34.36 input  -65.29 | X-H torsion
[ 10718 10713 10712 10709 ] final   30.39 input   66.30 | X-H torsion
[ 10763 10752 10751 10750 ] final  -27.43 input  -60.55 | X-H torsion
[ 11005 11000 10999 10996 ] final  166.23 input  -57.11 | X-H torsion

> <Gold.Protein.ActiveResidues>
 VAL166  LYS551  ARG553  GLY616  TRP617  ASP618  TYR619  PRO620  LYS621  CYS622 
 ASP623  PHE694  ASN695  SER759  ASP760  ASP761  ALA762  ILE779  LEU786  VAL792 
 PHE793  MET794  SER795  GLU796  ALA797  LYS798  CYS799  TRP800  GLU811  SER814 

> <Gold.Protein.RotatedAtoms>
  150.7433  133.9857  159.3590 H   0  0  0  0  0  0  0  0  0  0  0  0  # atno 6907 bound_to 6896
  151.7801  135.0761  160.0382 H   0  0  0  0  0  0  0  0  0  0  0  0  # atno 6908 bound_to 6896
  152.3279  133.5889  159.5826 H   0  0  0  0  0  0  0  0  0  0  0  0  # atno 6909 bound_to 6896
  146.1844  139.7345  142.8877 H   0  0  0  0  0  0  0  0  0  0  0  0  # atno 7974 bound_to 7965
  154.7015  140.0527  157.0463 H   0  0  0  0  0  0  0  0  0  0  0  0  # atno 8008 bound_to 7997
  155.0677  140.3196  155.4621 H   0  0  0  0  0  0  0  0  0  0  0  0  # atno 8009 bound_to 7997
  156.2761  140.2087  156.5805 H   0  0  0  0  0  0  0  0  0  0  0  0  # atno 8010 bound_to 7997
  140.4323  144.1307  150.6161 H   0  0  0  0  0  0  0  0  0  0  0  0  # atno 10167 bound_to 10162
  157.2590  130.7152  149.6444 H   0  0  0  0  0  0  0  0  0  0  0  0  # atno 10718 bound_to 10713
  153.7319  135.6938  153.4987 H   0  0  0  0  0  0  0  0  0  0  0  0  # atno 10763 bound_to 10752
  153.2130  135.4396  155.0400 H   0  0  0  0  0  0  0  0  0  0  0  0  # atno 10764 bound_to 10752
  154.8250  135.3441  154.6849 H   0  0  0  0  0  0  0  0  0  0  0  0  # atno 10765 bound_to 10752
  140.2643  134.7878  157.3618 H   0  0  0  0  0  0  0  0  0  0  0  0  # atno 11005 bound_to 11000
  145.3983  141.0382  143.3085 LP  0  0  0  0  0  0  0  0  0  0  0  0  # atno 17320 bound_to 7965
  144.8370  139.5533  143.6917 LP  0  0  0  0  0  0  0  0  0  0  0  0  # atno 17321 bound_to 7965
  140.4414  143.2525  151.9468 LP  0  0  0  0  0  0  0  0  0  0  0  0  # atno 17342 bound_to 10162
  139.4785  144.5651  151.8178 LP  0  0  0  0  0  0  0  0  0  0  0  0  # atno 17343 bound_to 10162
  155.9664  130.4403  150.5296 LP  0  0  0  0  0  0  0  0  0  0  0  0  # atno 17370 bound_to 10713
  157.3196  131.0679  151.1941 LP  0  0  0  0  0  0  0  0  0  0  0  0  # atno 17371 bound_to 10713
  140.1435  134.4942  155.8014 LP  0  0  0  0  0  0  0  0  0  0  0  0  # atno 17394 bound_to 11000
  141.2186  133.6834  156.7252 LP  0  0  0  0  0  0  0  0  0  0  0  0  # atno 17395 bound_to 11000

$$$$
