AV-unprocessed.smi:1717|AV-procd|sdf|6918|dock5
  -GOLD-   22720 8123D 1   1.00000     0.00000
 Structure written by MMmdl.
 41 42  0  0  0  0  0  0  0  0  2 V2000
  153.5126  126.8893  154.6648 C   0  0  0  0  0  0  0  0  0  0  0  0
  152.3430  126.4161  153.9400 N   0  0  0  0  0  0  0  0  0  0  0  0
  151.7270  125.2509  154.1830 C   0  0  0  0  0  0  0  0  0  0  0  0
  152.1003  124.4580  155.0482 O   0  0  0  0  0  0  0  0  0  0  0  0
  150.5171  124.9276  153.3004 C   0  0  0  0  0  0  0  0  0  0  0  0
  149.8928  126.1371  152.7050 N   0  3  2  0  0  0  0  0  0  0  0  0
  149.2422  126.9998  153.7238 C   0  0  0  0  0  0  0  0  0  0  0  0
  148.7395  128.3123  153.0993 C   0  0  0  0  0  0  0  0  0  0  0  0
  147.7777  128.0402  151.9318 C   0  0  1  0  0  0  0  0  0  0  0  0
  147.3845  129.3011  151.3096 N   0  0  0  0  0  0  0  0  0  0  0  0
  146.2812  129.9999  151.6133 C   0  0  0  0  0  0  0  0  0  0  0  0
  145.4583  129.6386  152.4543 O   0  0  0  0  0  0  0  0  0  0  0  0
  146.2005  131.1257  150.8860 N   0  0  0  0  0  0  0  0  0  0  0  0
  145.1855  132.1130  150.9434 C   0  0  0  0  0  0  0  0  0  0  0  0
  144.5275  132.6677  152.0805 C   0  0  0  0  0  0  0  0  0  0  0  0
  143.6307  133.5748  151.7202 N   0  0  0  0  0  0  0  0  0  0  0  0
  143.7094  133.6049  150.3709 N   0  0  0  0  0  0  0  0  0  0  0  0
  144.6426  132.7320  149.8573 C   0  0  0  0  0  0  0  0  0  0  0  0
  148.4577  127.1099  150.9103 C   0  0  0  0  0  0  0  0  0  0  0  0
  148.9673  125.8246  151.5831 C   0  0  0  0  0  0  0  0  0  0  0  0
  143.1270  134.2209  149.8215 H   0  0  0  0  0  0  0  0  0  0  0  0
  153.8086  127.8700  154.2930 H   0  0  0  0  0  0  0  0  0  0  0  0
  154.3535  126.2071  154.5326 H   0  0  0  0  0  0  0  0  0  0  0  0
  153.3010  126.9790  155.7309 H   0  0  0  0  0  0  0  0  0  0  0  0
  151.9834  127.0107  153.2070 H   0  0  0  0  0  0  0  0  0  0  0  0
  150.7922  124.2220  152.5146 H   0  0  0  0  0  0  0  0  0  0  0  0
  149.7950  124.4184  153.9399 H   0  0  0  0  0  0  0  0  0  0  0  0
  148.4147  126.4590  154.1860 H   0  0  0  0  0  0  0  0  0  0  0  0
  149.9527  127.2329  154.5177 H   0  0  0  0  0  0  0  0  0  0  0  0
  148.2432  128.9156  153.8606 H   0  0  0  0  0  0  0  0  0  0  0  0
  149.5927  128.8957  152.7497 H   0  0  0  0  0  0  0  0  0  0  0  0
  146.8891  127.5454  152.3293 H   0  0  0  0  0  0  0  0  0  0  0  0
  148.0026  129.6744  150.6040 H   0  0  0  0  0  0  0  0  0  0  0  0
  146.9451  131.2987  150.2267 H   0  0  0  0  0  0  0  0  0  0  0  0
  144.6605  132.4556  153.1310 H   0  0  0  0  0  0  0  0  0  0  0  0
  144.8307  132.6330  148.7983 H   0  0  0  0  0  0  0  0  0  0  0  0
  147.7611  126.8519  150.1120 H   0  0  0  0  0  0  0  0  0  0  0  0
  149.2938  127.6257  150.4356 H   0  0  0  0  0  0  0  0  0  0  0  0
  149.4732  125.2091  150.8388 H   0  0  0  0  0  0  0  0  0  0  0  0
  148.1261  125.2389  151.9566 H   0  0  0  0  0  0  0  0  0  0  0  0
  150.6520  126.6793  152.3172 H   0  0  0  0  0  0  0  0  0  0  0  0
  1  2  1  0  0  0  0
  1 22  1  0  0  0  0
  1 23  1  0  0  0  0
  1 24  1  0  0  0  0
  2  3  1  0  0  0  0
  2 25  1  0  0  0  0
  3  4  2  0  0  0  0
  3  5  1  0  0  0  0
  5  6  1  0  0  0  0
  5 26  1  0  0  0  0
  5 27  1  0  0  0  0
  6 20  1  0  0  0  0
  6  7  1  0  0  0  0
  6 41  1  0  0  0  0
  7  8  1  0  0  0  0
  7 28  1  0  0  0  0
  7 29  1  0  0  0  0
  8  9  1  0  0  0  0
  8 30  1  0  0  0  0
  8 31  1  0  0  0  0
  9 10  1  0  0  0  0
  9 19  1  0  0  0  0
  9 32  1  0  0  0  0
 10 11  1  0  0  0  0
 10 33  1  0  0  0  0
 11 12  2  0  0  0  0
 11 13  1  0  0  0  0
 13 14  1  0  0  0  0
 13 34  1  0  0  0  0
 14 18  2  0  0  0  0
 14 15  1  0  0  0  0
 15 16  2  0  0  0  0
 15 35  1  0  0  0  0
 16 17  1  0  0  0  0
 17 21  1  0  0  0  0
 17 18  1  0  0  0  0
 18 36  1  0  0  0  0
 19 20  1  0  0  0  0
 19 37  1  0  0  0  0
 19 38  1  0  0  0  0
 20 39  1  0  0  0  0
 20 40  1  0  0  0  0
M  CHG  1   6   1
M  END
> <s_m_source_file>
AV-unprocessed.smi

> <i_m_source_file_index>
1717

> <i_lp_mmshare_version>
43012

> <i_f3d_flags>
0

> <s_epik_input>
W0NIM11bTkhdQyg9TylbQ0gyXU4xW0NIMl1bQ0gyXVtDSF0oW0NIMl1bQ0gyXTEpW05IXUMoPU8pW05IXWMyW2NIXW5bbkhdW2NIXTI=

> <s_epik_cmdline>
J2VwaWtfcHl0aG9uJywgJy1waCcsICc3LjAnLCAnLXRuJywgJzgnLCAnLW1hJywgJzIwMCcsICctbWV0YWxfYmluZGluZycsICctaW1hZScsICc8aW5maWxlLm1hZT4nLCAnLW9tYWUnLCAnPG91dGZpbGUubWFlPic=

> <r_lp_tautomer_probability>
0.5

> <r_epik_Ionization_Penalty>
0.838906

> <r_epik_Ionization_Penalty_Charging>
0.838844

> <r_epik_Ionization_Penalty_Neutral>
6.24243e-05

> <r_epik_State_Penalty>
0.8734

> <r_epik_Charging_Adjusted_Penalty>
1.71224

> <i_epik_Tot_Q>
1

> <i_epik_Tot_abs_Q>
1

> <r_epik_Metal_State_Penalty>
0.877921

> <b_epik_Metal_Only>
0

> <s_lp_Force_Field>
OPLS_2005

> <r_lp_Energy>
17.0094

> <b_lp_Chiralities_Consistent>
1

> <s_lp_Variant>
AV-unprocessed.smi:1717-2

> <Gold.Version>
5.8.1

> <Gold.Id.Protein>
6NUR|6NUR_protein|mol2

> <Gold.PLP.Fitness>
44.7447

> <Gold.PLP.PLP>
-31.5299

> <Gold.PLP.part.hbond>
-4.4822

> <Gold.PLP.part.metal>
0.0000

> <Gold.PLP.part.buried>
-5.2863

> <Gold.PLP.part.nonpolar>
-22.6090

> <Gold.PLP.part.repulsive>
0.5970

> <Gold.PLP.ligand.clash>
0.0000

> <Gold.PLP.ligand.torsion>
1.0703

> <Gold.PLP.Chemscore.Hbond>
3.8871

> <Gold.PLP.Chemscore.CHOScore>
1.2207

> <Gold.PLP.Chemscore.Metal>
0.0000

> <Gold.Chemscore.Hbonds>
donor molecule, donor type, donor heavy atom, donor atom, acceptor molecule, acceptor atom, score
      L1  H     2    25       P1 10737  1.00
      L1  H     6    41       P1 10737  1.00
      L1  H    10    33       P1 10747  0.89
      L1  H    13    34       P1 10747  0.60
      L1  H    17    21       P1 10186  0.49
      L1  C    15    35       P1 10957  0.45
      L1  C    18    36       P1  7921  0.28

> <Gold.PLP.Chemscore.Internal.Correction>
0.0321

> <Gold.Rescore>
     Score         DG    S(hbond)    S(metal)    S(lipo)     H(rot)  DE(clash)    DE(int)     intcor
     21.06     -22.43       4.23        0.00      63.81       1.81       0.05       1.32       ----

> <Gold.Chemscore.Fitness>
21.0623

> <Gold.Chemscore.DG>
-22.4255

> <Gold.Chemscore.ZeroCoef>
-5.4800

> <Gold.Chemscore.Hbond>
4.2254

> <Gold.Chemscore.Metal>
0.0000

> <Gold.Chemscore.Lipo>
63.8059

> <Gold.Chemscore.Internal_Hbond>
0.0000

> <Gold.Chemscore.DEClash>
0.0451

> <Gold.Chemscore.DEInternal>
1.3182

> <Gold.Chemscore.Rot>
1.8096

> <Gold.Chemscore.Internal.Correction>
   9.000000E+99

> <Gold.Chemscore.Hbonds>
donor molecule, donor type, donor heavy atom, donor atom, acceptor molecule, acceptor atom, score
      L1  H     2    25       P1 10737  0.96
      L1  H     6    41       P1 10737  1.00
      L1  H    10    33       P1 10747  0.64
      L1  H    13    34       P1 10747  0.57
      L1  H    17    21       P1 10186  0.49

> <Gold.Chemscore.Hbond.Weighted>
-14.1127

> <Gold.Chemscore.Metal.Weighted>
-0.0000

> <Gold.Chemscore.Lipo.Weighted>
-7.4653

> <Gold.Chemscore.Internal_Hbond.Weighted>
0.0000

> <Gold.Chemscore.DEClash.Weighted>
0.0451

> <Gold.Chemscore.DEInternal.Weighted>
1.3182

> <Gold.Chemscore.Rot.Weighted>
4.6325

> <Gold.Chemscore.Internal.Correction.Weighted>
   9.000000E+99

> <Gold.Protein.RotatedTorsions>
[ 6907 6896 6895 6894 ] final   85.56 input  -60.11 | X-H torsion
[ 7974 7965 7964 7962 ] final  117.85 input  175.53 | X-H torsion
[ 8008 7997 7996 7995 ] final   11.34 input   59.86 | X-H torsion
[ 10167 10162 10161 10158 ] final   58.61 input  -65.29 | X-H torsion
[ 10718 10713 10712 10709 ] final   51.03 input   66.30 | X-H torsion
[ 10763 10752 10751 10750 ] final   36.67 input  -60.55 | X-H torsion
[ 11005 11000 10999 10996 ] final -156.94 input  -57.11 | X-H torsion

> <Gold.Protein.ActiveResidues>
 VAL166  LYS551  ARG553  GLY616  TRP617  ASP618  TYR619  PRO620  LYS621  CYS622 
 ASP623  PHE694  ASN695  SER759  ASP760  ASP761  ALA762  ILE779  LEU786  VAL792 
 PHE793  MET794  SER795  GLU796  ALA797  LYS798  CYS799  TRP800  GLU811  SER814 

> <Gold.Protein.RotatedAtoms>
  152.5377  134.2568  159.8919 H   0  0  0  0  0  0  0  0  0  0  0  0  # atno 6907 bound_to 6896
  151.2529  133.4334  159.2620 H   0  0  0  0  0  0  0  0  0  0  0  0  # atno 6908 bound_to 6896
  151.0523  134.9695  159.8274 H   0  0  0  0  0  0  0  0  0  0  0  0  # atno 6909 bound_to 6896
  145.1623  139.3148  143.4510 H   0  0  0  0  0  0  0  0  0  0  0  0  # atno 7974 bound_to 7965
  154.8056  140.2859  155.5890 H   0  0  0  0  0  0  0  0  0  0  0  0  # atno 8008 bound_to 7997
  156.2982  140.2578  156.2863 H   0  0  0  0  0  0  0  0  0  0  0  0  # atno 8009 bound_to 7997
  154.9507  140.0379  157.2132 H   0  0  0  0  0  0  0  0  0  0  0  0  # atno 8010 bound_to 7997
  140.1854  144.4140  150.6596 H   0  0  0  0  0  0  0  0  0  0  0  0  # atno 10167 bound_to 10162
  157.4942  130.8396  149.8239 H   0  0  0  0  0  0  0  0  0  0  0  0  # atno 10718 bound_to 10713
  153.0067  135.6299  154.2023 H   0  0  0  0  0  0  0  0  0  0  0  0  # atno 10763 bound_to 10752
  154.1766  135.2815  155.3066 H   0  0  0  0  0  0  0  0  0  0  0  0  # atno 10764 bound_to 10752
  154.5867  135.5630  153.7298 H   0  0  0  0  0  0  0  0  0  0  0  0  # atno 10765 bound_to 10752
  140.6700  134.4257  157.5232 H   0  0  0  0  0  0  0  0  0  0  0  0  # atno 11005 bound_to 11000
  146.3480  140.1738  142.8589 LP  0  0  0  0  0  0  0  0  0  0  0  0  # atno 17320 bound_to 7965
  145.0318  140.8876  143.5105 LP  0  0  0  0  0  0  0  0  0  0  0  0  # atno 17321 bound_to 7965
  140.6492  143.2220  151.6116 LP  0  0  0  0  0  0  0  0  0  0  0  0  # atno 17342 bound_to 10162
  139.5278  144.3005  152.1077 LP  0  0  0  0  0  0  0  0  0  0  0  0  # atno 17343 bound_to 10162
  156.0191  130.3802  150.2018 LP  0  0  0  0  0  0  0  0  0  0  0  0  # atno 17370 bound_to 10713
  157.0207  130.9978  151.3340 LP  0  0  0  0  0  0  0  0  0  0  0  0  # atno 17371 bound_to 10713
  139.8984  134.8613  156.2001 LP  0  0  0  0  0  0  0  0  0  0  0  0  # atno 17394 bound_to 11000
  141.0399  133.6943  156.1579 LP  0  0  0  0  0  0  0  0  0  0  0  0  # atno 17395 bound_to 11000

$$$$
