AV-unprocessed.smi:672|AV-procd|sdf|3292|dock10
  -GOLD-   22720 0253D 1   1.00000     0.00000
 Structure written by MMmdl.
 36 37  0  0  0  0  0  0  0  0  1 V2000
  151.1578  141.0440  157.3108 C   0  0  0  0  0  0  0  0  0  0  0  0
  150.5286  141.7153  156.0854 C   0  0  0  0  0  0  0  0  0  0  0  0
  149.5422  140.8364  155.3912 C   0  0  0  0  0  0  0  0  0  0  0  0
  148.2544  141.1710  155.2422 N   0  0  0  0  0  0  0  0  0  0  0  0
  147.5376  140.2082  154.5458 N   0  0  0  0  0  0  0  0  0  0  0  0
  148.3120  139.1791  154.1752 C   0  0  0  0  0  0  0  0  0  0  0  0
  147.8366  138.0555  153.4481 N   0  0  0  0  0  0  0  0  0  0  0  0
  146.5822  137.5761  153.3820 C   0  0  0  0  0  0  0  0  0  0  0  0
  145.6053  138.0534  153.9601 O   0  0  0  0  0  0  0  0  0  0  0  0
  146.5185  136.4897  152.5986 N   0  0  0  0  0  0  0  0  0  0  0  0
  145.3040  135.7265  152.3199 C   0  0  1  0  0  0  0  0  0  0  0  0
  144.9785  135.7431  150.8140 C   0  0  0  0  0  0  0  0  0  0  0  0
  144.7249  134.2872  150.4180 C   0  0  0  0  0  0  0  0  0  0  0  0
  145.5860  133.4770  151.3852 C   0  0  2  0  0  0  0  0  0  0  0  0
  145.0614  131.7448  151.5351 S   0  0  0  0  0  0  0  0  0  0  0  0
  146.4412  131.0709  152.4973 C   0  0  0  0  0  0  0  0  0  0  0  0
  145.4662  134.2424  152.7050 C   0  0  0  0  0  0  0  0  0  0  0  0
  149.9974  139.3070  154.6487 S   0  0  0  0  0  0  0  0  0  0  0  0
  151.8724  141.7108  157.7935 H   0  0  0  0  0  0  0  0  0  0  0  0
  151.6878  140.1329  157.0315 H   0  0  0  0  0  0  0  0  0  0  0  0
  150.3989  140.7787  158.0473 H   0  0  0  0  0  0  0  0  0  0  0  0
  150.0262  142.6359  156.3834 H   0  0  0  0  0  0  0  0  0  0  0  0
  151.3071  142.0005  155.3770 H   0  0  0  0  0  0  0  0  0  0  0  0
  148.5362  137.5538  152.9216 H   0  0  0  0  0  0  0  0  0  0  0  0
  147.3693  136.1657  152.1627 H   0  0  0  0  0  0  0  0  0  0  0  0
  144.4686  136.1573  152.8754 H   0  0  0  0  0  0  0  0  0  0  0  0
  144.1229  136.3793  150.5857 H   0  0  0  0  0  0  0  0  0  0  0  0
  145.8243  136.1247  150.2399 H   0  0  0  0  0  0  0  0  0  0  0  0
  143.6711  134.0471  150.5661 H   0  0  0  0  0  0  0  0  0  0  0  0
  144.9669  134.0938  149.3727 H   0  0  0  0  0  0  0  0  0  0  0  0
  146.6255  133.5055  151.0552 H   0  0  0  0  0  0  0  0  0  0  0  0
  146.2638  130.0184  152.7180 H   0  0  0  0  0  0  0  0  0  0  0  0
  146.5478  131.6083  153.4396 H   0  0  0  0  0  0  0  0  0  0  0  0
  147.3746  131.1525  151.9405 H   0  0  0  0  0  0  0  0  0  0  0  0
  146.3140  134.0529  153.3650 H   0  0  0  0  0  0  0  0  0  0  0  0
  144.5712  133.9181  153.2382 H   0  0  0  0  0  0  0  0  0  0  0  0
  1  2  1  0  0  0  0
  1 19  1  0  0  0  0
  1 20  1  0  0  0  0
  1 21  1  0  0  0  0
  2  3  1  0  0  0  0
  2 22  1  0  0  0  0
  2 23  1  0  0  0  0
  3 18  1  0  0  0  0
  3  4  2  0  0  0  0
  4  5  1  0  0  0  0
  5  6  2  0  0  0  0
  6  7  1  0  0  0  0
  6 18  1  0  0  0  0
  7  8  1  0  0  0  0
  7 24  1  0  0  0  0
  8  9  2  0  0  0  0
  8 10  1  0  0  0  0
 10 11  1  0  0  0  0
 10 25  1  0  0  0  0
 11 17  1  0  0  0  0
 11 12  1  0  0  0  0
 11 26  1  0  0  0  0
 12 13  1  0  0  0  0
 12 27  1  0  0  0  0
 12 28  1  0  0  0  0
 13 14  1  0  0  0  0
 13 29  1  0  0  0  0
 13 30  1  0  0  0  0
 14 15  1  0  0  0  0
 14 17  1  0  0  0  0
 14 31  1  0  0  0  0
 15 16  1  0  0  0  0
 16 32  1  0  0  0  0
 16 33  1  0  0  0  0
 16 34  1  0  0  0  0
 17 35  1  0  0  0  0
 17 36  1  0  0  0  0
M  END
> <s_m_source_file>
AV-unprocessed.smi

> <i_m_source_file_index>
672

> <i_lp_mmshare_version>
43012

> <i_f3d_flags>
0

> <s_epik_input>
W0NIM11bQ0gyXWMxbm5jKHMxKVtOSF1DKD1PKVtOSF1bQ0BASF0yW0NIMl1bQ0gyXVtDQEhdKFtDSDJdMilTW0NIM10=

> <s_epik_cmdline>
J2VwaWtfcHl0aG9uJywgJy1waCcsICc3LjAnLCAnLXRuJywgJzgnLCAnLW1hJywgJzIwMCcsICctbWV0YWxfYmluZGluZycsICctaW1hZScsICc8aW5maWxlLm1hZT4nLCAnLW9tYWUnLCAnPG91dGZpbGUubWFlPic=

> <r_lp_tautomer_probability>
1

> <r_epik_Ionization_Penalty>
0.000422169

> <r_epik_Ionization_Penalty_Charging>
0

> <r_epik_Ionization_Penalty_Neutral>
0.000422169

> <r_epik_State_Penalty>
-0

> <r_epik_Charging_Adjusted_Penalty>
0

> <i_epik_Tot_Q>
0

> <i_epik_Tot_abs_Q>
0

> <r_epik_Metal_State_Penalty>
0.200061

> <b_epik_Metal_Only>
0

> <s_lp_Force_Field>
OPLS_2005

> <r_lp_Energy>
11.6788

> <b_lp_Chiralities_Consistent>
1

> <s_lp_Variant>
AV-unprocessed.smi:672-4

> <Gold.Version>
5.8.1

> <Gold.Id.Protein>
6NUR|6NUR_protein|mol2

> <Gold.PLP.Fitness>
33.7603

> <Gold.PLP.PLP>
-28.1264

> <Gold.PLP.part.hbond>
-1.9421

> <Gold.PLP.part.metal>
0.0000

> <Gold.PLP.part.buried>
-3.5168

> <Gold.PLP.part.nonpolar>
-22.6113

> <Gold.PLP.part.repulsive>
0.4180

> <Gold.PLP.ligand.clash>
0.0000

> <Gold.PLP.ligand.torsion>
0.1906

> <Gold.PLP.Chemscore.Hbond>
2.0000

> <Gold.PLP.Chemscore.CHOScore>
0.0000

> <Gold.PLP.Chemscore.Metal>
0.0000

> <Gold.Chemscore.Hbonds>
donor molecule, donor type, donor heavy atom, donor atom, acceptor molecule, acceptor atom, score
      L1  H     7    24       P1  7948  1.00
      L1  H    10    25       P1  7948  1.00

> <Gold.PLP.Chemscore.Internal.Correction>
0.0151

> <Gold.Rescore>
     Score         DG    S(hbond)    S(metal)    S(lipo)     H(rot)  DE(clash)    DE(int)     intcor
     14.93     -16.42       1.94        0.00      68.14       1.37       0.02       1.46       ----

> <Gold.Chemscore.Fitness>
14.9345

> <Gold.Chemscore.DG>
-16.4208

> <Gold.Chemscore.ZeroCoef>
-5.4800

> <Gold.Chemscore.Hbond>
1.9363

> <Gold.Chemscore.Metal>
0.0000

> <Gold.Chemscore.Lipo>
68.1432

> <Gold.Chemscore.Internal_Hbond>
0.0000

> <Gold.Chemscore.DEClash>
0.0214

> <Gold.Chemscore.DEInternal>
1.4650

> <Gold.Chemscore.Rot>
1.3669

> <Gold.Chemscore.Internal.Correction>
   9.000000E+99

> <Gold.Chemscore.Hbonds>
donor molecule, donor type, donor heavy atom, donor atom, acceptor molecule, acceptor atom, score
      L1  H     7    24       P1  7948  0.94
      L1  H    10    25       P1  7948  0.96

> <Gold.Chemscore.Hbond.Weighted>
-6.4673

> <Gold.Chemscore.Metal.Weighted>
-0.0000

> <Gold.Chemscore.Lipo.Weighted>
-7.9727

> <Gold.Chemscore.Internal_Hbond.Weighted>
0.0000

> <Gold.Chemscore.DEClash.Weighted>
0.0214

> <Gold.Chemscore.DEInternal.Weighted>
1.4650

> <Gold.Chemscore.Rot.Weighted>
3.4992

> <Gold.Chemscore.Internal.Correction.Weighted>
   9.000000E+99

> <Gold.Protein.RotatedTorsions>
[ 6907 6896 6895 6894 ] final  -29.83 input  -60.11 | X-H torsion
[ 7974 7965 7964 7962 ] final  128.34 input  175.53 | X-H torsion
[ 8008 7997 7996 7995 ] final  148.85 input   59.86 | X-H torsion
[ 10167 10162 10161 10158 ] final  -58.50 input  -65.29 | X-H torsion
[ 10718 10713 10712 10709 ] final   58.89 input   66.30 | X-H torsion
[ 10763 10752 10751 10750 ] final   44.69 input  -60.55 | X-H torsion
[ 11005 11000 10999 10996 ] final -119.00 input  -57.11 | X-H torsion

> <Gold.Protein.ActiveResidues>
 VAL166  LYS551  ARG553  GLY616  TRP617  ASP618  TYR619  PRO620  LYS621  CYS622 
 ASP623  PHE694  ASN695  SER759  ASP760  ASP761  ALA762  ILE779  LEU786  VAL792 
 PHE793  MET794  SER795  GLU796  ALA797  LYS798  CYS799  TRP800  GLU811  SER814 

> <Gold.Protein.RotatedAtoms>
  151.1138  135.0041  159.8506 H   0  0  0  0  0  0  0  0  0  0  0  0  # atno 6907 bound_to 6896
  152.5444  134.1804  159.8643 H   0  0  0  0  0  0  0  0  0  0  0  0  # atno 6908 bound_to 6896
  151.1856  133.4653  159.2627 H   0  0  0  0  0  0  0  0  0  0  0  0  # atno 6909 bound_to 6896
  145.0406  139.3966  143.5104 H   0  0  0  0  0  0  0  0  0  0  0  0  # atno 7974 bound_to 7965
  156.2776  140.2117  156.5764 H   0  0  0  0  0  0  0  0  0  0  0  0  # atno 8008 bound_to 7997
  154.7094  140.0513  157.0558 H   0  0  0  0  0  0  0  0  0  0  0  0  # atno 8009 bound_to 7997
  155.0626  140.3168  155.4658 H   0  0  0  0  0  0  0  0  0  0  0  0  # atno 8010 bound_to 7997
  140.6193  143.2414  151.5519 H   0  0  0  0  0  0  0  0  0  0  0  0  # atno 10167 bound_to 10162
  157.5632  130.8851  149.9145 H   0  0  0  0  0  0  0  0  0  0  0  0  # atno 10718 bound_to 10713
  152.9837  135.6063  154.3315 H   0  0  0  0  0  0  0  0  0  0  0  0  # atno 10763 bound_to 10752
  154.3018  135.2772  155.2609 H   0  0  0  0  0  0  0  0  0  0  0  0  # atno 10764 bound_to 10752
  154.4858  135.5905  153.6479 H   0  0  0  0  0  0  0  0  0  0  0  0  # atno 10765 bound_to 10752
  141.0246  134.0073  157.3233 H   0  0  0  0  0  0  0  0  0  0  0  0  # atno 11005 bound_to 11000
  146.3509  140.0005  142.8676 LP  0  0  0  0  0  0  0  0  0  0  0  0  # atno 17320 bound_to 7965
  145.1653  140.9693  143.4353 LP  0  0  0  0  0  0  0  0  0  0  0  0  # atno 17321 bound_to 7965
  139.5425  144.2609  152.1379 LP  0  0  0  0  0  0  0  0  0  0  0  0  # atno 17342 bound_to 10162
  140.1825  144.4830  150.6521 LP  0  0  0  0  0  0  0  0  0  0  0  0  # atno 17343 bound_to 10162
  156.0683  130.3689  150.0831 LP  0  0  0  0  0  0  0  0  0  0  0  0  # atno 17370 bound_to 10713
  156.8992  130.9615  151.3578 LP  0  0  0  0  0  0  0  0  0  0  0  0  # atno 17371 bound_to 10713
  139.9168  135.0197  156.7911 LP  0  0  0  0  0  0  0  0  0  0  0  0  # atno 17394 bound_to 11000
  140.6513  133.9728  155.7757 LP  0  0  0  0  0  0  0  0  0  0  0  0  # atno 17395 bound_to 11000

$$$$
