AV-unprocessed.smi:3336|AV-procd|sdf|12858|dock2
  -GOLD-   2272019253D 1   1.00000     0.00000
 Structure written by MMmdl.
 41 42  0  0  0  0  0  0  0  0  1 V2000
  149.9947  142.9829  158.6771 C   0  0  0  0  0  0  0  0  0  0  0  0
  151.0088  142.0193  158.0391 C   0  0  1  0  0  0  0  0  0  0  0  0
  151.1811  142.2258  156.5209 C   0  0  0  0  0  0  0  0  0  0  0  0
  150.2528  141.4284  155.7393 N   0  0  0  0  0  0  0  0  0  0  0  0
  148.8869  141.5783  155.6247 C   0  0  0  0  0  0  0  0  0  0  0  0
  148.4394  140.5987  154.7855 C   0  0  0  0  0  0  0  0  0  0  0  0
  149.6216  139.8890  154.4337 C   0  0  0  0  0  0  0  0  0  0  0  0
  150.7051  140.3864  155.0078 N   0  0  0  0  0  0  0  0  0  0  0  0
  152.3067  142.2326  158.6721 N   0  0  0  0  0  0  0  0  0  0  0  0
  152.3152  141.9890  160.1261 C   0  0  2  0  0  0  0  0  0  0  0  0
  152.5140  143.3102  160.8974 C   0  0  0  0  0  0  0  0  0  0  0  0
  153.4208  140.9821  160.5126 C   0  0  0  0  0  0  0  0  0  0  0  0
  154.2508  141.3224  161.3586 O   0  0  0  0  0  0  0  0  0  0  0  0
  153.4637  139.7579  159.9271 N   0  0  0  0  0  0  0  0  0  0  0  0
  152.4783  139.1871  159.0000 C   0  0  0  0  0  0  0  0  0  0  0  0
  151.8468  137.9465  159.6580 C   0  0  0  0  0  0  0  0  0  0  0  0
  152.8628  137.0057  159.9932 O   0  0  0  0  0  0  0  0  0  0  0  0
  153.8424  137.5397  160.8790 C   0  0  0  0  0  0  0  0  0  0  0  0
  154.5040  138.7686  160.2314 C   0  0  0  0  0  0  0  0  0  0  0  0
  148.9930  142.8270  158.2760 H   0  0  0  0  0  0  0  0  0  0  0  0
  150.2662  144.0237  158.4966 H   0  0  0  0  0  0  0  0  0  0  0  0
  149.9356  142.8355  159.7561 H   0  0  0  0  0  0  0  0  0  0  0  0
  150.6570  140.9999  158.2056 H   0  0  0  0  0  0  0  0  0  0  0  0
  151.0517  143.2779  156.2595 H   0  0  0  0  0  0  0  0  0  0  0  0
  152.1928  141.9535  156.2173 H   0  0  0  0  0  0  0  0  0  0  0  0
  148.3542  142.3615  156.1439 H   0  0  0  0  0  0  0  0  0  0  0  0
  147.4225  140.4163  154.4709 H   0  0  0  0  0  0  0  0  0  0  0  0
  149.7233  139.0326  153.7836 H   0  0  0  0  0  0  0  0  0  0  0  0
  152.6588  143.1516  158.4442 H   0  0  0  0  0  0  0  0  0  0  0  0
  151.3524  141.5444  160.3754 H   0  0  0  0  0  0  0  0  0  0  0  0
  152.5675  143.1479  161.9737 H   0  0  0  0  0  0  0  0  0  0  0  0
  151.6936  144.0062  160.7236 H   0  0  0  0  0  0  0  0  0  0  0  0
  153.4361  143.8092  160.5963 H   0  0  0  0  0  0  0  0  0  0  0  0
  151.6824  139.8696  158.7126 H   0  0  0  0  0  0  0  0  0  0  0  0
  152.9797  138.9058  158.0728 H   0  0  0  0  0  0  0  0  0  0  0  0
  151.2872  138.2229  160.5529 H   0  0  0  0  0  0  0  0  0  0  0  0
  151.1412  137.4745  158.9743 H   0  0  0  0  0  0  0  0  0  0  0  0
  153.3822  137.8021  161.8330 H   0  0  0  0  0  0  0  0  0  0  0  0
  154.5888  136.7720  161.0831 H   0  0  0  0  0  0  0  0  0  0  0  0
  155.0076  138.4798  159.3078 H   0  0  0  0  0  0  0  0  0  0  0  0
  155.2842  139.1531  160.8892 H   0  0  0  0  0  0  0  0  0  0  0  0
  1  2  1  0  0  0  0
  1 20  1  0  0  0  0
  1 21  1  0  0  0  0
  1 22  1  0  0  0  0
  2  3  1  0  0  0  0
  2  9  1  0  0  0  0
  2 23  1  0  0  0  0
  3  4  1  0  0  0  0
  3 24  1  0  0  0  0
  3 25  1  0  0  0  0
  4  8  1  0  0  0  0
  4  5  1  0  0  0  0
  5  6  2  0  0  0  0
  5 26  1  0  0  0  0
  6  7  1  0  0  0  0
  6 27  1  0  0  0  0
  7  8  2  0  0  0  0
  7 28  1  0  0  0  0
  9 10  1  0  0  0  0
  9 29  1  0  0  0  0
 10 11  1  0  0  0  0
 10 12  1  0  0  0  0
 10 30  1  0  0  0  0
 11 31  1  0  0  0  0
 11 32  1  0  0  0  0
 11 33  1  0  0  0  0
 12 13  2  0  0  0  0
 12 14  1  0  0  0  0
 14 19  1  0  0  0  0
 14 15  1  0  0  0  0
 15 16  1  0  0  0  0
 15 34  1  0  0  0  0
 15 35  1  0  0  0  0
 16 17  1  0  0  0  0
 16 36  1  0  0  0  0
 16 37  1  0  0  0  0
 17 18  1  0  0  0  0
 18 19  1  0  0  0  0
 18 38  1  0  0  0  0
 18 39  1  0  0  0  0
 19 40  1  0  0  0  0
 19 41  1  0  0  0  0
M  END
> <s_m_source_file>
AV-unprocessed.smi

> <i_m_source_file_index>
3336

> <i_lp_mmshare_version>
43012

> <i_f3d_flags>
0

> <s_epik_input>
bjFbY0hdW2NIXVtjSF1uMVtDSDJdW0NAQEhdKFtDSDNdKVtOSF1bQ0BIXShbQ0gzXSlDKD1PKU4yW0NIMl1bQ0gyXU9bQ0gyXVtDSDJdMg==

> <s_epik_cmdline>
J2VwaWtfcHl0aG9uJywgJy1waCcsICc3LjAnLCAnLXRuJywgJzgnLCAnLW1hJywgJzIwMCcsICctbWV0YWxfYmluZGluZycsICctaW1hZScsICc8aW5maWxlLm1hZT4nLCAnLW9tYWUnLCAnPG91dGZpbGUubWFlPic=

> <r_lp_tautomer_probability>
1

> <r_epik_Ionization_Penalty>
0.739958

> <r_epik_Ionization_Penalty_Charging>
0

> <r_epik_Ionization_Penalty_Neutral>
0.739958

> <r_epik_State_Penalty>
0.765967

> <r_epik_Charging_Adjusted_Penalty>
0.765967

> <i_epik_Tot_Q>
0

> <i_epik_Tot_abs_Q>
0

> <r_epik_Metal_State_Penalty>
0.765947

> <b_epik_Metal_Only>
0

> <s_lp_Force_Field>
OPLS_2005

> <r_lp_Energy>
30.7433

> <b_lp_Chiralities_Consistent>
1

> <s_lp_Variant>
AV-unprocessed.smi:3336-6

> <Gold.Version>
5.8.1

> <Gold.Id.Protein>
6NUR|6NUR_protein|mol2

> <Gold.PLP.Fitness>
42.8449

> <Gold.PLP.PLP>
-35.2764

> <Gold.PLP.part.hbond>
-2.1290

> <Gold.PLP.part.metal>
0.0000

> <Gold.PLP.part.buried>
-3.9601

> <Gold.PLP.part.nonpolar>
-28.0513

> <Gold.PLP.part.repulsive>
0.0722

> <Gold.PLP.ligand.clash>
0.0000

> <Gold.PLP.ligand.torsion>
1.2101

> <Gold.PLP.Chemscore.Hbond>
2.0000

> <Gold.PLP.Chemscore.CHOScore>
1.2112

> <Gold.PLP.Chemscore.Metal>
0.0000

> <Gold.Chemscore.Hbonds>
donor molecule, donor type, donor heavy atom, donor atom, acceptor molecule, acceptor atom, score
      P1  H  6896  6909       L1    17  0.78
      P1  H  7989  7998       L1     8  0.95
      L1  C     5    26       P1  8028  0.80
      L1  C     7    28       P1  7957  0.16

> <Gold.PLP.Chemscore.Internal.Correction>
0.3551

> <Gold.Rescore>
     Score         DG    S(hbond)    S(metal)    S(lipo)     H(rot)  DE(clash)    DE(int)     intcor
     15.36     -16.63       1.80        0.00      83.29       1.79       0.07       1.20       ----

> <Gold.Chemscore.Fitness>
15.3587

> <Gold.Chemscore.DG>
-16.6314

> <Gold.Chemscore.ZeroCoef>
-5.4800

> <Gold.Chemscore.Hbond>
1.7956

> <Gold.Chemscore.Metal>
0.0000

> <Gold.Chemscore.Lipo>
83.2943

> <Gold.Chemscore.Internal_Hbond>
0.0000

> <Gold.Chemscore.DEClash>
0.0729

> <Gold.Chemscore.DEInternal>
1.1999

> <Gold.Chemscore.Rot>
1.7935

> <Gold.Chemscore.Internal.Correction>
   9.000000E+99

> <Gold.Chemscore.Hbonds>
donor molecule, donor type, donor heavy atom, donor atom, acceptor molecule, acceptor atom, score
      P1  H  6896  6909       L1    17  0.50
      P1  H  7989  7998       L1     8  0.19

> <Gold.Chemscore.Hbond.Weighted>
-5.9972

> <Gold.Chemscore.Metal.Weighted>
-0.0000

> <Gold.Chemscore.Lipo.Weighted>
-9.7454

> <Gold.Chemscore.Internal_Hbond.Weighted>
0.0000

> <Gold.Chemscore.DEClash.Weighted>
0.0729

> <Gold.Chemscore.DEInternal.Weighted>
1.1999

> <Gold.Chemscore.Rot.Weighted>
4.5912

> <Gold.Chemscore.Internal.Correction.Weighted>
   9.000000E+99

> <Gold.Protein.RotatedTorsions>
[ 6907 6896 6895 6894 ] final  143.12 input  -60.11 | X-H torsion
[ 7974 7965 7964 7962 ] final   25.51 input  175.53 | X-H torsion
[ 8008 7997 7996 7995 ] final  151.89 input   59.86 | X-H torsion
[ 10167 10162 10161 10158 ] final   24.48 input  -65.29 | X-H torsion
[ 10718 10713 10712 10709 ] final   27.09 input   66.30 | X-H torsion
[ 10763 10752 10751 10750 ] final  157.78 input  -60.55 | X-H torsion
[ 11005 11000 10999 10996 ] final -146.78 input  -57.11 | X-H torsion

> <Gold.Protein.ActiveResidues>
 VAL166  LYS551  ARG553  GLY616  TRP617  ASP618  TYR619  PRO620  LYS621  CYS622 
 ASP623  PHE694  ASN695  SER759  ASP760  ASP761  ALA762  ILE779  LEU786  VAL792 
 PHE793  MET794  SER795  GLU796  ALA797  LYS798  CYS799  TRP800  GLU811  SER814 

> <Gold.Protein.RotatedAtoms>
  152.2102  133.4905  159.5105 H   0  0  0  0  0  0  0  0  0  0  0  0  # atno 6907 bound_to 6896
  150.6988  134.1477  159.4138 H   0  0  0  0  0  0  0  0  0  0  0  0  # atno 6908 bound_to 6896
  151.9396  135.0219  160.0585 H   0  0  0  0  0  0  0  0  0  0  0  0  # atno 6909 bound_to 6896
  146.1885  139.7456  142.8849 H   0  0  0  0  0  0  0  0  0  0  0  0  # atno 7974 bound_to 7965
  156.2654  140.2035  156.6247 H   0  0  0  0  0  0  0  0  0  0  0  0  # atno 8008 bound_to 7997
  154.6730  140.0548  157.0210 H   0  0  0  0  0  0  0  0  0  0  0  0  # atno 8009 bound_to 7997
  155.1110  140.3215  155.4524 H   0  0  0  0  0  0  0  0  0  0  0  0  # atno 8010 bound_to 7997
  140.5185  144.0042  150.6405 H   0  0  0  0  0  0  0  0  0  0  0  0  # atno 10167 bound_to 10162
  157.2155  130.6954  149.6247 H   0  0  0  0  0  0  0  0  0  0  0  0  # atno 10718 bound_to 10713
  154.2056  135.2788  155.2976 H   0  0  0  0  0  0  0  0  0  0  0  0  # atno 10763 bound_to 10752
  154.5820  135.5586  153.7197 H   0  0  0  0  0  0  0  0  0  0  0  0  # atno 10764 bound_to 10752
  153.0077  135.6347  154.2195 H   0  0  0  0  0  0  0  0  0  0  0  0  # atno 10765 bound_to 10752
  140.7785  134.3107  157.5053 H   0  0  0  0  0  0  0  0  0  0  0  0  # atno 11005 bound_to 11000
  145.3866  141.0366  143.3147 LP  0  0  0  0  0  0  0  0  0  0  0  0  # atno 17320 bound_to 7965
  144.8441  139.5424  143.6886 LP  0  0  0  0  0  0  0  0  0  0  0  0  # atno 17321 bound_to 7965
  140.3384  143.3034  152.0614 LP  0  0  0  0  0  0  0  0  0  0  0  0  # atno 17342 bound_to 10162
  139.4916  144.6460  151.6778 LP  0  0  0  0  0  0  0  0  0  0  0  0  # atno 17343 bound_to 10162
  155.9687  130.4537  150.5822 LP  0  0  0  0  0  0  0  0  0  0  0  0  # atno 17370 bound_to 10713
  157.3629  131.0753  151.1622 LP  0  0  0  0  0  0  0  0  0  0  0  0  # atno 17371 bound_to 10713
  139.8746  134.9304  156.3501 LP  0  0  0  0  0  0  0  0  0  0  0  0  # atno 17394 bound_to 11000
  140.9506  133.7454  156.0266 LP  0  0  0  0  0  0  0  0  0  0  0  0  # atno 17395 bound_to 11000

$$$$
