AV-unprocessed.smi:447|AV-procd|sdf|2602|dock2
  -GOLD-   2262022593D 1   1.00000     0.00000
 Structure written by MMmdl.
 46 48  0  0  0  0  0  0  0  0  2 V2000
  146.7197  133.4354  151.8345 C   0  0  0  0  0  0  0  0  0  0  0  0
  147.1650  133.4443  153.2923 C   0  0  0  0  0  0  0  0  0  0  0  0
  147.0845  132.4206  153.9679 O   0  0  0  0  0  0  0  0  0  0  0  0
  147.6294  134.6106  153.7661 N   0  0  0  0  0  0  0  0  0  0  0  0
  148.1670  134.8314  155.1079 C   0  0  1  0  0  0  0  0  0  0  0  0
  149.3842  133.9194  155.3167 C   0  0  0  0  0  0  0  0  0  0  0  0
  148.5347  136.2641  155.3793 C   0  0  0  0  0  0  0  0  0  0  0  0
  149.1788  137.1082  154.5216 N   0  3  0  0  0  0  0  0  0  0  0  0
  149.3707  138.3489  155.1278 C   0  0  0  0  0  0  0  0  0  0  0  0
  149.9660  139.5132  154.6527 C   0  0  0  0  0  0  0  0  0  0  0  0
  150.0080  140.6094  155.5392 C   0  0  0  0  0  0  0  0  0  0  0  0
  149.4744  140.5212  156.8414 C   0  0  0  0  0  0  0  0  0  0  0  0
  148.8743  139.3345  157.3114 C   0  0  0  0  0  0  0  0  0  0  0  0
  148.8307  138.2576  156.4261 C   0  0  0  0  0  0  0  0  0  0  0  0
  148.3211  136.9588  156.5364 N   0  0  0  0  0  0  0  0  0  0  0  0
  147.6944  136.5456  157.8029 C   0  0  0  0  0  0  0  0  0  0  0  0
  148.6530  136.6080  159.0103 C   0  0  2  0  0  0  0  0  0  0  0  0
  149.8879  136.0515  158.6116 O   0  0  0  0  0  0  0  0  0  0  0  0
  148.0944  135.9219  160.2480 C   0  0  0  0  0  0  0  0  0  0  0  0
  147.8570  136.6688  161.4220 C   0  0  0  0  0  0  0  0  0  0  0  0
  147.3569  136.0363  162.5766 C   0  0  0  0  0  0  0  0  0  0  0  0
  147.0811  134.6556  162.5608 C   0  0  0  0  0  0  0  0  0  0  0  0
  147.3074  133.9072  161.3900 C   0  0  0  0  0  0  0  0  0  0  0  0
  147.8162  134.5375  160.2381 C   0  0  0  0  0  0  0  0  0  0  0  0
  146.0051  134.2371  151.6461 H   0  0  0  0  0  0  0  0  0  0  0  0
  146.2437  132.4877  151.5804 H   0  0  0  0  0  0  0  0  0  0  0  0
  147.5777  133.5733  151.1761 H   0  0  0  0  0  0  0  0  0  0  0  0
  147.6520  135.3984  153.1348 H   0  0  0  0  0  0  0  0  0  0  0  0
  147.3959  134.5376  155.8205 H   0  0  0  0  0  0  0  0  0  0  0  0
  149.7768  134.0061  156.3298 H   0  0  0  0  0  0  0  0  0  0  0  0
  150.1911  134.1704  154.6273 H   0  0  0  0  0  0  0  0  0  0  0  0
  149.1230  132.8728  155.1570 H   0  0  0  0  0  0  0  0  0  0  0  0
  150.3789  139.5815  153.6569 H   0  0  0  0  0  0  0  0  0  0  0  0
  150.4607  141.5354  155.2150 H   0  0  0  0  0  0  0  0  0  0  0  0
  149.5267  141.3811  157.4936 H   0  0  0  0  0  0  0  0  0  0  0  0
  148.4706  139.2766  158.3114 H   0  0  0  0  0  0  0  0  0  0  0  0
  146.8214  137.1749  157.9756 H   0  0  0  0  0  0  0  0  0  0  0  0
  147.3143  135.5321  157.6661 H   0  0  0  0  0  0  0  0  0  0  0  0
  148.8579  137.6494  159.2577 H   0  0  0  0  0  0  0  0  0  0  0  0
  149.8351  135.8321  157.6937 H   0  0  0  0  0  0  0  0  0  0  0  0
  148.0607  137.7293  161.4433 H   0  0  0  0  0  0  0  0  0  0  0  0
  147.1786  136.6115  163.4728 H   0  0  0  0  0  0  0  0  0  0  0  0
  146.6916  134.1726  163.4445 H   0  0  0  0  0  0  0  0  0  0  0  0
  147.0933  132.8488  161.3758 H   0  0  0  0  0  0  0  0  0  0  0  0
  147.9902  133.9549  159.3452 H   0  0  0  0  0  0  0  0  0  0  0  0
  149.4602  136.8489  153.5850 H   0  0  0  0  0  0  0  0  0  0  0  0
  1  2  1  0  0  0  0
  1 25  1  0  0  0  0
  1 26  1  0  0  0  0
  1 27  1  0  0  0  0
  2  3  2  0  0  0  0
  2  4  1  0  0  0  0
  4  5  1  0  0  0  0
  4 28  1  0  0  0  0
  5  6  1  0  0  0  0
  5  7  1  0  0  0  0
  5 29  1  0  0  0  0
  6 30  1  0  0  0  0
  6 31  1  0  0  0  0
  6 32  1  0  0  0  0
  7 15  1  0  0  0  0
  7  8  2  0  0  0  0
  8  9  1  0  0  0  0
  8 46  1  0  0  0  0
  9 14  2  0  0  0  0
  9 10  1  0  0  0  0
 10 11  2  0  0  0  0
 10 33  1  0  0  0  0
 11 12  1  0  0  0  0
 11 34  1  0  0  0  0
 12 13  2  0  0  0  0
 12 35  1  0  0  0  0
 13 14  1  0  0  0  0
 13 36  1  0  0  0  0
 14 15  1  0  0  0  0
 15 16  1  0  0  0  0
 16 17  1  0  0  0  0
 16 37  1  0  0  0  0
 16 38  1  0  0  0  0
 17 18  1  0  0  0  0
 17 19  1  0  0  0  0
 17 39  1  0  0  0  0
 18 40  1  0  0  0  0
 19 24  1  0  0  0  0
 19 20  2  0  0  0  0
 20 21  1  0  0  0  0
 20 41  1  0  0  0  0
 21 22  2  0  0  0  0
 21 42  1  0  0  0  0
 22 23  1  0  0  0  0
 22 43  1  0  0  0  0
 23 24  2  0  0  0  0
 23 44  1  0  0  0  0
 24 45  1  0  0  0  0
M  CHG  1   8   1
M  END
> <s_m_source_file>
AV-unprocessed.smi

> <i_m_source_file_index>
447

> <i_lp_mmshare_version>
43012

> <i_f3d_flags>
0

> <s_epik_input>
W0NIM11DKD1PKVtOSF1bQ0BIXShbQ0gzXSljKG4xKW4oYyhjMTIpW2NIXVtjSF1bY0hdW2NIXTIpW0NIMl1bQ0BIXShbT0hdKWMzW2NIXVtjSF1bY0hdW2NIXVtjSF0z

> <s_epik_cmdline>
J2VwaWtfcHl0aG9uJywgJy1waCcsICc3LjAnLCAnLXRuJywgJzgnLCAnLW1hJywgJzIwMCcsICctbWV0YWxfYmluZGluZycsICctaW1hZScsICc8aW5maWxlLm1hZT4nLCAnLW9tYWUnLCAnPG91dGZpbGUubWFlPic=

> <r_epik_Ionization_Penalty>
0.950381

> <r_epik_Ionization_Penalty_Charging>
0.950379

> <r_epik_Ionization_Penalty_Neutral>
1.42115e-06

> <r_epik_State_Penalty>
0.994584

> <r_epik_Charging_Adjusted_Penalty>
1.94496

> <i_epik_Tot_Q>
1

> <i_epik_Tot_abs_Q>
1

> <r_epik_Metal_State_Penalty>
1.10485

> <b_epik_Metal_Only>
0

> <s_lp_Force_Field>
OPLS_2005

> <r_lp_Energy>
11.3805

> <b_lp_Chiralities_Consistent>
1

> <s_lp_Variant>
AV-unprocessed.smi:447-6

> <Gold.Version>
5.8.1

> <Gold.Id.Protein>
6NUR|6NUR_protein|mol2

> <Gold.PLP.Fitness>
47.1380

> <Gold.PLP.PLP>
-37.6812

> <Gold.PLP.part.hbond>
-3.0000

> <Gold.PLP.part.metal>
0.0000

> <Gold.PLP.part.buried>
-5.0026

> <Gold.PLP.part.nonpolar>
-30.4581

> <Gold.PLP.part.repulsive>
0.0664

> <Gold.PLP.ligand.clash>
0.0000

> <Gold.PLP.ligand.torsion>
0.6632

> <Gold.PLP.Chemscore.Hbond>
3.5600

> <Gold.PLP.Chemscore.CHOScore>
0.0000

> <Gold.PLP.Chemscore.Metal>
0.0000

> <Gold.Chemscore.Hbonds>
donor molecule, donor type, donor heavy atom, donor atom, acceptor molecule, acceptor atom, score
      L1  H     4    28       P1  7948  0.74
      L1  H     8    46       P1  7948  1.98
      P1  H  6896  6907       L1    18  1.00

> <Gold.PLP.Chemscore.Internal.Correction>
0.1032

> <Gold.Rescore>
     Score         DG    S(hbond)    S(metal)    S(lipo)     H(rot)  DE(clash)    DE(int)     intcor
     17.74     -18.54       2.75        0.00      86.04       2.41       0.02       0.79       ----

> <Gold.Chemscore.Fitness>
17.7410

> <Gold.Chemscore.DG>
-18.5443

> <Gold.Chemscore.ZeroCoef>
-5.4800

> <Gold.Chemscore.Hbond>
2.7455

> <Gold.Chemscore.Metal>
0.0000

> <Gold.Chemscore.Lipo>
86.0435

> <Gold.Chemscore.Internal_Hbond>
0.0000

> <Gold.Chemscore.DEClash>
0.0174

> <Gold.Chemscore.DEInternal>
0.7860

> <Gold.Chemscore.Rot>
2.4112

> <Gold.Chemscore.Internal.Correction>
   9.000000E+99

> <Gold.Chemscore.Hbonds>
donor molecule, donor type, donor heavy atom, donor atom, acceptor molecule, acceptor atom, score
      L1  H     4    28       P1  7948  0.72
      L1  H     8    46       P1  7948  0.83
      P1  H  6896  6907       L1    18  0.76

> <Gold.Chemscore.Hbond.Weighted>
-9.1699

> <Gold.Chemscore.Metal.Weighted>
-0.0000

> <Gold.Chemscore.Lipo.Weighted>
-10.0671

> <Gold.Chemscore.Internal_Hbond.Weighted>
0.0000

> <Gold.Chemscore.DEClash.Weighted>
0.0174

> <Gold.Chemscore.DEInternal.Weighted>
0.7860

> <Gold.Chemscore.Rot.Weighted>
6.1727

> <Gold.Chemscore.Internal.Correction.Weighted>
   9.000000E+99

> <Gold.Protein.RotatedTorsions>
[ 6907 6896 6895 6894 ] final  -64.61 input  -60.11 | X-H torsion
[ 7974 7965 7964 7962 ] final  146.12 input  175.53 | X-H torsion
[ 8008 7997 7996 7995 ] final  -73.09 input   59.86 | X-H torsion
[ 10167 10162 10161 10158 ] final  -38.46 input  -65.29 | X-H torsion
[ 10718 10713 10712 10709 ] final   45.41 input   66.30 | X-H torsion
[ 10763 10752 10751 10750 ] final  156.56 input  -60.55 | X-H torsion
[ 11005 11000 10999 10996 ] final  -31.10 input  -57.11 | X-H torsion

> <Gold.Protein.ActiveResidues>
 VAL166  LYS551  ARG553  GLY616  TRP617  ASP618  TYR619  PRO620  LYS621  CYS622 
 ASP623  PHE694  ASN695  SER759  ASP760  ASP761  ALA762  ILE779  LEU786  VAL792 
 PHE793  MET794  SER795  GLU796  ALA797  LYS798  CYS799  TRP800  GLU811  SER814 

> <Gold.Protein.RotatedAtoms>
  150.7575  134.6275  159.6168 H   0  0  0  0  0  0  0  0  0  0  0  0  # atno 6907 bound_to 6896
  152.3562  134.6933  160.0230 H   0  0  0  0  0  0  0  0  0  0  0  0  # atno 6908 bound_to 6896
  151.7338  133.3283  159.3384 H   0  0  0  0  0  0  0  0  0  0  0  0  # atno 6909 bound_to 6896
  144.8697  139.5866  143.5893 H   0  0  0  0  0  0  0  0  0  0  0  0  # atno 7974 bound_to 7965
  154.5219  140.0785  156.8187 H   0  0  0  0  0  0  0  0  0  0  0  0  # atno 8008 bound_to 7997
  155.3558  140.3415  155.4222 H   0  0  0  0  0  0  0  0  0  0  0  0  # atno 8009 bound_to 7997
  156.1690  140.1613  156.8468 H   0  0  0  0  0  0  0  0  0  0  0  0  # atno 8010 bound_to 7997
  140.7091  143.3276  151.2644 H   0  0  0  0  0  0  0  0  0  0  0  0  # atno 10167 bound_to 10162
  157.4372  130.8060  149.7659 H   0  0  0  0  0  0  0  0  0  0  0  0  # atno 10718 bound_to 10713
  154.1862  135.2797  155.3036 H   0  0  0  0  0  0  0  0  0  0  0  0  # atno 10763 bound_to 10752
  154.5964  135.5543  153.7333 H   0  0  0  0  0  0  0  0  0  0  0  0  # atno 10764 bound_to 10752
  153.0124  135.6381  154.2001 H   0  0  0  0  0  0  0  0  0  0  0  0  # atno 10765 bound_to 10752
  140.9439  133.7262  156.1117 H   0  0  0  0  0  0  0  0  0  0  0  0  # atno 11005 bound_to 11000
  146.2921  139.7169  142.9153 LP  0  0  0  0  0  0  0  0  0  0  0  0  # atno 17320 bound_to 7965
  145.4155  141.0401  143.2993 LP  0  0  0  0  0  0  0  0  0  0  0  0  # atno 17321 bound_to 7965
  139.6748  143.9956  152.2775 LP  0  0  0  0  0  0  0  0  0  0  0  0  # atno 17342 bound_to 10162
  139.9567  144.6585  150.8119 LP  0  0  0  0  0  0  0  0  0  0  0  0  # atno 17343 bound_to 10162
  155.9935  130.3924  150.2898 LP  0  0  0  0  0  0  0  0  0  0  0  0  # atno 17370 bound_to 10713
  157.1060  131.0208  151.3067 LP  0  0  0  0  0  0  0  0  0  0  0  0  # atno 17371 bound_to 10713
  140.7696  134.3848  157.5510 LP  0  0  0  0  0  0  0  0  0  0  0  0  # atno 17394 bound_to 11000
  139.8828  134.9013  156.2808 LP  0  0  0  0  0  0  0  0  0  0  0  0  # atno 17395 bound_to 11000

$$$$
