AV-unprocessed.smi:2567|AV-procd|sdf|10080|dock9
  -GOLD-   2272014103D 1   1.00000     0.00000
 Structure written by MMmdl.
 33 34  0  0  0  0  0  0  0  0  1 V2000
  150.0270  143.5847  158.8820 C   0  0  0  0  0  0  0  0  0  0  0  0
  151.4194  143.2146  158.3349 C   0  0  0  0  0  0  0  0  0  0  0  0
  152.0751  144.4554  157.6990 C   0  0  0  0  0  0  0  0  0  0  0  0
  152.2943  142.7627  159.5256 C   0  0  0  0  0  0  0  0  0  0  0  0
  151.2846  142.1261  157.2967 C   0  0  0  0  0  0  0  0  0  0  0  0
  150.5559  142.2536  156.1821 N   0  0  0  0  0  0  0  0  0  0  0  0
  150.6086  141.1093  155.4696 N   0  0  0  0  0  0  0  0  0  0  0  0
  151.4008  140.3497  156.2235 C   0  0  0  0  0  0  0  0  0  0  0  0
  151.7091  138.9377  155.8330 C   0  0  2  0  0  0  0  0  0  0  0  0
  151.2281  138.6130  154.4052 C   0  0  0  0  0  0  0  0  0  0  0  0
  151.4567  137.2008  154.1023 N   0  0  0  0  0  0  0  0  0  0  0  0
  150.8330  136.3383  155.1049 C   0  0  0  0  0  0  0  0  0  0  0  0
  151.3162  136.7190  156.5162 C   0  0  0  0  0  0  0  0  0  0  0  0
  151.0358  138.0926  156.7634 O   0  0  0  0  0  0  0  0  0  0  0  0
  151.8387  140.9192  157.3881 N   0  0  0  0  0  0  0  0  0  0  0  0
  150.0921  144.3637  159.6423 H   0  0  0  0  0  0  0  0  0  0  0  0
  149.5381  142.7216  159.3355 H   0  0  0  0  0  0  0  0  0  0  0  0
  149.3716  143.9557  158.0932 H   0  0  0  0  0  0  0  0  0  0  0  0
  151.4769  144.8460  156.8748 H   0  0  0  0  0  0  0  0  0  0  0  0
  153.0643  144.2212  157.3039 H   0  0  0  0  0  0  0  0  0  0  0  0
  152.1927  145.2602  158.4254 H   0  0  0  0  0  0  0  0  0  0  0  0
  152.3798  143.5499  160.2757 H   0  0  0  0  0  0  0  0  0  0  0  0
  153.3067  142.5104  159.2075 H   0  0  0  0  0  0  0  0  0  0  0  0
  151.8735  141.8877  160.0223 H   0  0  0  0  0  0  0  0  0  0  0  0
  152.7865  138.7783  155.9136 H   0  0  0  0  0  0  0  0  0  0  0  0
  150.1654  138.8422  154.3130 H   0  0  0  0  0  0  0  0  0  0  0  0
  151.7479  139.2402  153.6807 H   0  0  0  0  0  0  0  0  0  0  0  0
  149.7476  136.4335  155.0530 H   0  0  0  0  0  0  0  0  0  0  0  0
  151.0665  135.2939  154.8975 H   0  0  0  0  0  0  0  0  0  0  0  0
  150.8020  136.1151  157.2639 H   0  0  0  0  0  0  0  0  0  0  0  0
  152.3838  136.5244  156.6298 H   0  0  0  0  0  0  0  0  0  0  0  0
  151.0788  136.9846  153.1853 H   0  0  0  0  0  0  0  0  0  0  0  0
  150.0276  143.0620  155.8868 H   0  0  0  0  0  0  0  0  0  0  0  0
  1  2  1  0  0  0  0
  1 16  1  0  0  0  0
  1 17  1  0  0  0  0
  1 18  1  0  0  0  0
  2  3  1  0  0  0  0
  2  4  1  0  0  0  0
  2  5  1  0  0  0  0
  3 19  1  0  0  0  0
  3 20  1  0  0  0  0
  3 21  1  0  0  0  0
  4 22  1  0  0  0  0
  4 23  1  0  0  0  0
  4 24  1  0  0  0  0
  5 15  2  0  0  0  0
  5  6  1  0  0  0  0
  6  7  1  0  0  0  0
  6 33  1  0  0  0  0
  7  8  2  0  0  0  0
  8  9  1  0  0  0  0
  8 15  1  0  0  0  0
  9 14  1  0  0  0  0
  9 10  1  0  0  0  0
  9 25  1  0  0  0  0
 10 11  1  0  0  0  0
 10 26  1  0  0  0  0
 10 27  1  0  0  0  0
 11 12  1  0  0  0  0
 11 32  1  0  0  0  0
 12 13  1  0  0  0  0
 12 28  1  0  0  0  0
 12 29  1  0  0  0  0
 13 14  1  0  0  0  0
 13 30  1  0  0  0  0
 13 31  1  0  0  0  0
M  END
> <s_m_source_file>
AV-unprocessed.smi

> <i_m_source_file_index>
2567

> <i_lp_mmshare_version>
43012

> <i_f3d_flags>
0

> <s_epik_input>
W0NIM11DKFtDSDNdKShbQ0gzXSljMW5bbkhdYyhuMSlbQ0BASF0yW0NIMl1bTkhdW0NIMl1bQ0gyXU8y

> <s_epik_cmdline>
J2VwaWtfcHl0aG9uJywgJy1waCcsICc3LjAnLCAnLXRuJywgJzgnLCAnLW1hJywgJzIwMCcsICctbWV0YWxfYmluZGluZycsICctaW1hZScsICc8aW5maWxlLm1hZT4nLCAnLW9tYWUnLCAnPG91dGZpbGUubWFlPic=

> <r_lp_tautomer_probability>
0.948284

> <r_epik_Ionization_Penalty>
1.10045

> <r_epik_Ionization_Penalty_Charging>
0

> <r_epik_Ionization_Penalty_Neutral>
1.10045

> <r_epik_State_Penalty>
1.2625

> <r_epik_Charging_Adjusted_Penalty>
1.2625

> <i_epik_Tot_Q>
0

> <i_epik_Tot_abs_Q>
0

> <r_epik_Metal_State_Penalty>
1.57133

> <b_epik_Metal_Only>
0

> <s_lp_Force_Field>
OPLS_2005

> <r_lp_Energy>
14.8987

> <b_lp_Chiralities_Consistent>
1

> <s_lp_Variant>
AV-unprocessed.smi:2567-5

> <Gold.Version>
5.8.1

> <Gold.Id.Protein>
6NUR|6NUR_protein|mol2

> <Gold.PLP.Fitness>
36.5038

> <Gold.PLP.PLP>
-28.9486

> <Gold.PLP.part.hbond>
-3.7331

> <Gold.PLP.part.metal>
0.0000

> <Gold.PLP.part.buried>
-3.9732

> <Gold.PLP.part.nonpolar>
-21.2775

> <Gold.PLP.part.repulsive>
0.1837

> <Gold.PLP.ligand.clash>
0.0000

> <Gold.PLP.ligand.torsion>
0.1415

> <Gold.PLP.Chemscore.Hbond>
2.6063

> <Gold.PLP.Chemscore.CHOScore>
0.0000

> <Gold.PLP.Chemscore.Metal>
0.0000

> <Gold.Chemscore.Hbonds>
donor molecule, donor type, donor heavy atom, donor atom, acceptor molecule, acceptor atom, score
      L1  H     6    33       P1  8028  1.00
      L1  H    11    32       P1  7949  1.00
      P1  H  7989  7998       L1     7  0.35
      P1  H 10752 10764       L1    11  0.17

> <Gold.PLP.Chemscore.Internal.Correction>
0.0195

> <Gold.Rescore>
     Score         DG    S(hbond)    S(metal)    S(lipo)     H(rot)  DE(clash)    DE(int)     intcor
     16.58     -16.93       2.15        0.00      63.82       1.25       0.12       0.23       ----

> <Gold.Chemscore.Fitness>
16.5768

> <Gold.Chemscore.DG>
-16.9258

> <Gold.Chemscore.ZeroCoef>
-5.4800

> <Gold.Chemscore.Hbond>
2.1454

> <Gold.Chemscore.Metal>
0.0000

> <Gold.Chemscore.Lipo>
63.8235

> <Gold.Chemscore.Internal_Hbond>
0.0000

> <Gold.Chemscore.DEClash>
0.1226

> <Gold.Chemscore.DEInternal>
0.2264

> <Gold.Chemscore.Rot>
1.2450

> <Gold.Chemscore.Internal.Correction>
   9.000000E+99

> <Gold.Chemscore.Hbonds>
donor molecule, donor type, donor heavy atom, donor atom, acceptor molecule, acceptor atom, score
      L1  H     6    33       P1  8028  0.93
      L1  H    11    32       P1  7949  0.37
      P1  H  7989  7998       L1     7  0.09

> <Gold.Chemscore.Hbond.Weighted>
-7.1657

> <Gold.Chemscore.Metal.Weighted>
-0.0000

> <Gold.Chemscore.Lipo.Weighted>
-7.4673

> <Gold.Chemscore.Internal_Hbond.Weighted>
0.0000

> <Gold.Chemscore.DEClash.Weighted>
0.1226

> <Gold.Chemscore.DEInternal.Weighted>
0.2264

> <Gold.Chemscore.Rot.Weighted>
3.1872

> <Gold.Chemscore.Internal.Correction.Weighted>
   9.000000E+99

> <Gold.Protein.RotatedTorsions>
[ 6907 6896 6895 6894 ] final  -18.09 input  -60.11 | X-H torsion
[ 7974 7965 7964 7962 ] final   72.63 input  175.53 | X-H torsion
[ 8008 7997 7996 7995 ] final  141.60 input   59.86 | X-H torsion
[ 10167 10162 10161 10158 ] final -152.14 input  -65.29 | X-H torsion
[ 10718 10713 10712 10709 ] final  172.59 input   66.30 | X-H torsion
[ 10763 10752 10751 10750 ] final -101.54 input  -60.55 | X-H torsion
[ 11005 11000 10999 10996 ] final -158.99 input  -57.11 | X-H torsion

> <Gold.Protein.ActiveResidues>
 VAL166  LYS551  ARG553  GLY616  TRP617  ASP618  TYR619  PRO620  LYS621  CYS622 
 ASP623  PHE694  ASN695  SER759  ASP760  ASP761  ALA762  ILE779  LEU786  VAL792 
 PHE793  MET794  SER795  GLU796  ALA797  LYS798  CYS799  TRP800  GLU811  SER814 

> <Gold.Protein.RotatedAtoms>
  151.2834  135.0721  159.9177 H   0  0  0  0  0  0  0  0  0  0  0  0  # atno 6907 bound_to 6896
  152.5330  134.0006  159.7903 H   0  0  0  0  0  0  0  0  0  0  0  0  # atno 6908 bound_to 6896
  151.0264  133.5779  159.2696 H   0  0  0  0  0  0  0  0  0  0  0  0  # atno 6909 bound_to 6896
  145.7510  139.2760  143.1431 H   0  0  0  0  0  0  0  0  0  0  0  0  # atno 7974 bound_to 7965
  156.2963  140.2311  156.4590 H   0  0  0  0  0  0  0  0  0  0  0  0  # atno 8008 bound_to 7997
  154.8035  140.0447  157.1311 H   0  0  0  0  0  0  0  0  0  0  0  0  # atno 8009 bound_to 7997
  154.9506  140.3041  155.5080 H   0  0  0  0  0  0  0  0  0  0  0  0  # atno 8010 bound_to 7997
  139.7207  143.8961  152.2502 H   0  0  0  0  0  0  0  0  0  0  0  0  # atno 10167 bound_to 10162
  156.9766  131.0106  151.2892 H   0  0  0  0  0  0  0  0  0  0  0  0  # atno 10718 bound_to 10713
  154.7665  135.4894  153.9565 H   0  0  0  0  0  0  0  0  0  0  0  0  # atno 10763 bound_to 10752
  153.1314  135.6753  153.9179 H   0  0  0  0  0  0  0  0  0  0  0  0  # atno 10764 bound_to 10752
  153.8881  135.3124  155.3425 H   0  0  0  0  0  0  0  0  0  0  0  0  # atno 10765 bound_to 10752
  140.6475  134.4485  157.5234 H   0  0  0  0  0  0  0  0  0  0  0  0  # atno 11005 bound_to 11000
  146.0357  140.8214  142.9854 LP  0  0  0  0  0  0  0  0  0  0  0  0  # atno 17320 bound_to 7965
  144.6850  140.2835  143.7288 LP  0  0  0  0  0  0  0  0  0  0  0  0  # atno 17321 bound_to 7965
  139.8856  144.6993  150.8828 LP  0  0  0  0  0  0  0  0  0  0  0  0  # atno 17342 bound_to 10162
  140.7753  143.3626  151.1799 LP  0  0  0  0  0  0  0  0  0  0  0  0  # atno 17343 bound_to 10162
  157.5555  130.8211  149.8199 LP  0  0  0  0  0  0  0  0  0  0  0  0  # atno 17370 bound_to 10713
  156.0261  130.3779  150.1820 LP  0  0  0  0  0  0  0  0  0  0  0  0  # atno 17371 bound_to 10713
  139.9057  134.8454  156.1714 LP  0  0  0  0  0  0  0  0  0  0  0  0  # atno 17394 bound_to 11000
  141.0561  133.6864  156.1863 LP  0  0  0  0  0  0  0  0  0  0  0  0  # atno 17395 bound_to 11000

$$$$
