AV-unprocessed.smi:3337|AV-procd|sdf|12868|dock9
  -GOLD-   2272019263D 1   1.00000     0.00000
 Structure written by MMmdl.
 46 47  0  0  0  0  0  0  0  0  2 V2000
  145.8524  135.7238  150.9910 C   0  0  0  0  0  0  0  0  0  0  0  0
  145.2178  134.9988  152.1911 C   0  0  1  0  0  0  0  0  0  0  0  0
  145.0036  133.4952  151.9392 C   0  0  0  0  0  0  0  0  0  0  0  0
  146.3296  132.7149  151.9885 C   0  0  2  0  0  0  0  0  0  0  0  0
  146.0981  131.2087  151.8022 C   0  0  0  0  0  0  0  0  0  0  0  0
  147.0762  133.0123  153.3034 C   0  0  0  0  0  0  0  0  0  0  0  0
  147.2981  134.4705  153.4845 N   0  3  2  0  0  0  0  0  0  0  0  0
  148.1588  134.7659  154.6579 C   0  0  0  0  0  0  0  0  0  0  0  0
  147.4778  134.4082  155.9930 C   0  0  0  0  0  0  0  0  0  0  0  0
  147.7365  135.4170  157.0131 N   0  0  0  0  0  0  0  0  0  0  0  0
  148.4151  135.2039  158.1525 C   0  0  0  0  0  0  0  0  0  0  0  0
  148.8563  134.0974  158.4656 O   0  0  0  0  0  0  0  0  0  0  0  0
  148.6121  136.4222  159.0738 C   0  0  1  0  0  0  0  0  0  0  0  0
  148.1454  137.7455  158.4343 C   0  0  0  0  0  0  0  0  0  0  0  0
  147.9777  136.2067  160.3694 N   0  0  0  0  0  0  0  0  0  0  0  0
  147.3780  135.1213  160.8634 C   0  0  0  0  0  0  0  0  0  0  0  0
  146.8816  135.2877  162.0812 N   0  0  0  0  0  0  0  0  0  0  0  0
  147.2343  136.5898  162.2957 C   0  0  0  0  0  0  0  0  0  0  0  0
  147.8882  137.1891  161.3008 N   0  0  0  0  0  0  0  0  0  0  0  0
  146.0128  135.2198  153.4928 C   0  0  0  0  0  0  0  0  0  0  0  0
  146.8613  135.3674  150.7841 H   0  0  0  0  0  0  0  0  0  0  0  0
  145.9149  136.7973  151.1724 H   0  0  0  0  0  0  0  0  0  0  0  0
  145.2583  135.5801  150.0880 H   0  0  0  0  0  0  0  0  0  0  0  0
  144.2327  135.4459  152.3312 H   0  0  0  0  0  0  0  0  0  0  0  0
  144.3275  133.1013  152.6995 H   0  0  0  0  0  0  0  0  0  0  0  0
  144.5056  133.3405  150.9811 H   0  0  0  0  0  0  0  0  0  0  0  0
  146.9568  133.0477  151.1609 H   0  0  0  0  0  0  0  0  0  0  0  0
  145.4781  130.7996  152.6006 H   0  0  0  0  0  0  0  0  0  0  0  0
  147.0419  130.6627  151.8006 H   0  0  0  0  0  0  0  0  0  0  0  0
  145.5988  131.0028  150.8550 H   0  0  0  0  0  0  0  0  0  0  0  0
  146.5187  132.6210  154.1562 H   0  0  0  0  0  0  0  0  0  0  0  0
  148.0374  132.4965  153.2905 H   0  0  0  0  0  0  0  0  0  0  0  0
  149.1133  134.2467  154.5573 H   0  0  0  0  0  0  0  0  0  0  0  0
  148.3883  135.8325  154.6671 H   0  0  0  0  0  0  0  0  0  0  0  0
  146.4023  134.2844  155.8532 H   0  0  0  0  0  0  0  0  0  0  0  0
  147.8499  133.4609  156.3805 H   0  0  0  0  0  0  0  0  0  0  0  0
  147.4023  136.3519  156.8280 H   0  0  0  0  0  0  0  0  0  0  0  0
  149.6851  136.5075  159.2519 H   0  0  0  0  0  0  0  0  0  0  0  0
  148.6706  137.9409  157.4987 H   0  0  0  0  0  0  0  0  0  0  0  0
  148.3418  138.5878  159.0985 H   0  0  0  0  0  0  0  0  0  0  0  0
  147.0760  137.7383  158.2196 H   0  0  0  0  0  0  0  0  0  0  0  0
  147.3000  134.1908  160.3200 H   0  0  0  0  0  0  0  0  0  0  0  0
  146.9973  137.1131  163.2102 H   0  0  0  0  0  0  0  0  0  0  0  0
  146.1858  136.2867  153.6267 H   0  0  0  0  0  0  0  0  0  0  0  0
  145.4177  134.8953  154.3481 H   0  0  0  0  0  0  0  0  0  0  0  0
  147.8127  134.7774  152.6713 H   0  0  0  0  0  0  0  0  0  0  0  0
  1  2  1  0  0  0  0
  1 21  1  0  0  0  0
  1 22  1  0  0  0  0
  1 23  1  0  0  0  0
  2 20  1  0  0  0  0
  2  3  1  0  0  0  0
  2 24  1  0  0  0  0
  3  4  1  0  0  0  0
  3 25  1  0  0  0  0
  3 26  1  0  0  0  0
  4  5  1  0  0  0  0
  4  6  1  0  0  0  0
  4 27  1  0  0  0  0
  5 28  1  0  0  0  0
  5 29  1  0  0  0  0
  5 30  1  0  0  0  0
  6  7  1  0  0  0  0
  6 31  1  0  0  0  0
  6 32  1  0  0  0  0
  7  8  1  0  0  0  0
  7 20  1  0  0  0  0
  7 46  1  0  0  0  0
  8  9  1  0  0  0  0
  8 33  1  0  0  0  0
  8 34  1  0  0  0  0
  9 10  1  0  0  0  0
  9 35  1  0  0  0  0
  9 36  1  0  0  0  0
 10 11  1  0  0  0  0
 10 37  1  0  0  0  0
 11 12  2  0  0  0  0
 11 13  1  0  0  0  0
 13 14  1  0  0  0  0
 13 15  1  0  0  0  0
 13 38  1  0  0  0  0
 14 39  1  0  0  0  0
 14 40  1  0  0  0  0
 14 41  1  0  0  0  0
 15 19  1  0  0  0  0
 15 16  1  0  0  0  0
 16 17  2  0  0  0  0
 16 42  1  0  0  0  0
 17 18  1  0  0  0  0
 18 19  2  0  0  0  0
 18 43  1  0  0  0  0
 20 44  1  0  0  0  0
 20 45  1  0  0  0  0
M  CHG  1   7   1
M  END
> <s_m_source_file>
AV-unprocessed.smi

> <i_m_source_file_index>
3337

> <i_lp_mmshare_version>
43012

> <i_f3d_flags>
0

> <s_epik_input>
W0NIM11bQ0BASF0xW0NIMl1bQ0BASF0oW0NIM10pW0NIMl1OKFtDSDJdMSlbQ0gyXVtDSDJdW05IXUMoPU8pW0NASF0oW0NIM10pbjJbY0hdbltjSF1uMg==

> <s_epik_cmdline>
J2VwaWtfcHl0aG9uJywgJy1waCcsICc3LjAnLCAnLXRuJywgJzgnLCAnLW1hJywgJzIwMCcsICctbWV0YWxfYmluZGluZycsICctaW1hZScsICc8aW5maWxlLm1hZT4nLCAnLW9tYWUnLCAnPG91dGZpbGUubWFlPic=

> <r_lp_tautomer_probability>
1

> <r_epik_Ionization_Penalty>
0.00175613

> <r_epik_Ionization_Penalty_Charging>
0.00174812

> <r_epik_Ionization_Penalty_Neutral>
8.01354e-06

> <r_epik_State_Penalty>
0.00118332

> <r_epik_Charging_Adjusted_Penalty>
0.00293143

> <i_epik_Tot_Q>
1

> <i_epik_Tot_abs_Q>
1

> <r_epik_Metal_State_Penalty>
-0

> <b_epik_Metal_Only>
0

> <s_lp_Force_Field>
OPLS_2005

> <r_lp_Energy>
24.7561

> <b_lp_Chiralities_Consistent>
1

> <s_lp_Variant>
AV-unprocessed.smi:3337-8

> <Gold.Version>
5.8.1

> <Gold.Id.Protein>
6NUR|6NUR_protein|mol2

> <Gold.PLP.Fitness>
40.9210

> <Gold.PLP.PLP>
-27.7606

> <Gold.PLP.part.hbond>
-4.0000

> <Gold.PLP.part.metal>
0.0000

> <Gold.PLP.part.buried>
-3.3683

> <Gold.PLP.part.nonpolar>
-19.8571

> <Gold.PLP.part.repulsive>
0.0000

> <Gold.PLP.ligand.clash>
0.0000

> <Gold.PLP.ligand.torsion>
0.5545

> <Gold.PLP.Chemscore.Hbond>
4.7200

> <Gold.PLP.Chemscore.CHOScore>
0.0000

> <Gold.PLP.Chemscore.Metal>
0.0000

> <Gold.Chemscore.Hbonds>
donor molecule, donor type, donor heavy atom, donor atom, acceptor molecule, acceptor atom, score
      L1  H     7    46       P1  7948  1.92
      P1  H  6896  6907       L1    12  0.98
      P1  H  6931  6943       L1    19  1.00
      P1  H  6934  6947       L1    19  0.74

> <Gold.PLP.Chemscore.Internal.Correction>
0.1094

> <Gold.Rescore>
     Score         DG    S(hbond)    S(metal)    S(lipo)     H(rot)  DE(clash)    DE(int)     intcor
     14.49     -15.97       3.53        0.00      43.86       2.51       0.08       1.41       ----

> <Gold.Chemscore.Fitness>
14.4874

> <Gold.Chemscore.DG>
-15.9742

> <Gold.Chemscore.ZeroCoef>
-5.4800

> <Gold.Chemscore.Hbond>
3.5318

> <Gold.Chemscore.Metal>
0.0000

> <Gold.Chemscore.Lipo>
43.8550

> <Gold.Chemscore.Internal_Hbond>
0.0000

> <Gold.Chemscore.DEClash>
0.0814

> <Gold.Chemscore.DEInternal>
1.4053

> <Gold.Chemscore.Rot>
2.5129

> <Gold.Chemscore.Internal.Correction>
   9.000000E+99

> <Gold.Chemscore.Hbonds>
donor molecule, donor type, donor heavy atom, donor atom, acceptor molecule, acceptor atom, score
      L1  H     7    46       P1  7948  0.79
      P1  H  6896  6907       L1    12  0.89
      P1  H  6931  6943       L1    19  0.75
      P1  H  6934  6947       L1    19  0.59

> <Gold.Chemscore.Hbond.Weighted>
-11.7962

> <Gold.Chemscore.Metal.Weighted>
-0.0000

> <Gold.Chemscore.Lipo.Weighted>
-5.1310

> <Gold.Chemscore.Internal_Hbond.Weighted>
0.0000

> <Gold.Chemscore.DEClash.Weighted>
0.0814

> <Gold.Chemscore.DEInternal.Weighted>
1.4053

> <Gold.Chemscore.Rot.Weighted>
6.4331

> <Gold.Chemscore.Internal.Correction.Weighted>
   9.000000E+99

> <Gold.Protein.RotatedTorsions>
[ 6907 6896 6895 6894 ] final -111.81 input  -60.11 | X-H torsion
[ 7974 7965 7964 7962 ] final  -10.76 input  175.53 | X-H torsion
[ 8008 7997 7996 7995 ] final   89.58 input   59.86 | X-H torsion
[ 10167 10162 10161 10158 ] final    8.30 input  -65.29 | X-H torsion
[ 10718 10713 10712 10709 ] final   61.84 input   66.30 | X-H torsion
[ 10763 10752 10751 10750 ] final   20.02 input  -60.55 | X-H torsion
[ 11005 11000 10999 10996 ] final   43.58 input  -57.11 | X-H torsion

> <Gold.Protein.ActiveResidues>
 VAL166  LYS551  ARG553  GLY616  TRP617  ASP618  TYR619  PRO620  LYS621  CYS622 
 ASP623  PHE694  ASN695  SER759  ASP760  ASP761  ALA762  ILE779  LEU786  VAL792 
 PHE793  MET794  SER795  GLU796  ALA797  LYS798  CYS799  TRP800  GLU811  SER814 

> <Gold.Protein.RotatedAtoms>
  150.7715  133.9181  159.3389 H   0  0  0  0  0  0  0  0  0  0  0  0  # atno 6907 bound_to 6896
  151.7066  135.0918  160.0270 H   0  0  0  0  0  0  0  0  0  0  0  0  # atno 6908 bound_to 6896
  152.3735  133.6412  159.6141 H   0  0  0  0  0  0  0  0  0  0  0  0  # atno 6909 bound_to 6896
  146.2210  140.2811  142.8362 H   0  0  0  0  0  0  0  0  0  0  0  0  # atno 7974 bound_to 7965
  156.0017  140.3359  155.6852 H   0  0  0  0  0  0  0  0  0  0  0  0  # atno 8008 bound_to 7997
  155.6281  140.0682  157.2675 H   0  0  0  0  0  0  0  0  0  0  0  0  # atno 8009 bound_to 7997
  154.4251  140.1764  156.1430 H   0  0  0  0  0  0  0  0  0  0  0  0  # atno 8010 bound_to 7997
  140.6322  143.7968  150.7310 H   0  0  0  0  0  0  0  0  0  0  0  0  # atno 10167 bound_to 10162
  157.5858  130.9017  149.9512 H   0  0  0  0  0  0  0  0  0  0  0  0  # atno 10718 bound_to 10713
  153.1113  135.6697  153.9496 H   0  0  0  0  0  0  0  0  0  0  0  0  # atno 10763 bound_to 10752
  153.9039  135.3033  155.3450 H   0  0  0  0  0  0  0  0  0  0  0  0  # atno 10764 bound_to 10752
  154.7532  135.5024  153.9404 H   0  0  0  0  0  0  0  0  0  0  0  0  # atno 10765 bound_to 10752
  140.1631  134.4316  155.8304 H   0  0  0  0  0  0  0  0  0  0  0  0  # atno 11005 bound_to 11000
  144.9196  140.7852  143.5756 LP  0  0  0  0  0  0  0  0  0  0  0  0  # atno 17320 bound_to 7965
  145.2747  139.1941  143.4823 LP  0  0  0  0  0  0  0  0  0  0  0  0  # atno 17321 bound_to 7965
  140.1581  143.4299  152.2085 LP  0  0  0  0  0  0  0  0  0  0  0  0  # atno 17342 bound_to 10162
  139.5535  144.7355  151.4364 LP  0  0  0  0  0  0  0  0  0  0  0  0  # atno 17343 bound_to 10162
  156.0907  130.3664  150.0401 LP  0  0  0  0  0  0  0  0  0  0  0  0  # atno 17370 bound_to 10713
  156.8533  130.9466  151.3624 LP  0  0  0  0  0  0  0  0  0  0  0  0  # atno 17371 bound_to 10713
  141.2211  133.6922  156.7630 LP  0  0  0  0  0  0  0  0  0  0  0  0  # atno 17394 bound_to 11000
  140.2466  134.8573  157.3626 LP  0  0  0  0  0  0  0  0  0  0  0  0  # atno 17395 bound_to 11000

$$$$
