AV-unprocessed.smi:2252|AV-procd|sdf|9111|dock5
  -GOLD-   2272012313D 1   1.00000     0.00000
 Structure written by MMmdl.
 44 46  0  0  0  0  0  0  0  0  3 V2000
  146.9756  133.5616  160.5622 C   0  0  0  0  0  0  0  0  0  0  0  0
  147.3137  134.7688  161.2920 N   0  0  0  0  0  0  0  0  0  0  0  0
  146.9827  135.0347  162.6144 C   0  0  0  0  0  0  0  0  0  0  0  0
  147.4854  136.2790  162.9052 C   0  0  0  0  0  0  0  0  0  0  0  0
  148.1230  136.7910  161.7817 N   0  0  0  0  0  0  0  0  0  0  0  0
  147.9966  135.8462  160.8496 C   0  0  0  0  0  0  0  0  0  0  0  0
  148.5475  135.9664  159.4495 C   0  0  0  0  0  0  0  0  0  0  0  0
  148.0923  137.2163  158.6573 C   0  0  0  0  0  0  0  0  0  0  0  0
  148.7894  137.2990  157.3758 N   0  5  0  0  0  0  0  0  0  0  0  0
  148.5545  138.2533  156.4318 C   0  0  0  0  0  0  0  0  0  0  0  0
  147.9250  139.3130  156.5050 O   0  0  0  0  0  0  0  0  0  0  0  0
  149.2482  137.9057  155.1011 C   0  0  2  0  0  0  0  0  0  0  0  0
  150.3756  138.9210  154.7975 C   0  0  0  0  0  0  0  0  0  0  0  0
  151.7847  138.4617  154.4897 C   0  0  0  0  0  0  0  0  0  0  0  0
  151.4902  139.1573  155.7937 C   0  0  0  0  0  0  0  0  0  0  0  0
  148.2612  137.8073  153.9878 N   0  3  0  0  0  0  0  0  0  0  0  0
  147.0740  136.9638  154.2466 C   0  0  0  0  0  0  0  0  0  0  0  0
  145.9667  137.4641  153.3082 C   0  0  0  0  0  0  0  0  0  0  0  0
  146.5278  138.7229  152.6422 C   0  0  0  0  0  0  0  0  0  0  0  0
  147.7381  139.0971  153.4923 C   0  0  0  0  0  0  0  0  0  0  0  0
  146.4537  132.8612  161.2150 H   0  0  0  0  0  0  0  0  0  0  0  0
  147.8832  133.0849  160.1914 H   0  0  0  0  0  0  0  0  0  0  0  0
  146.3276  133.8079  159.7208 H   0  0  0  0  0  0  0  0  0  0  0  0
  146.4306  134.3343  163.2234 H   0  0  0  0  0  0  0  0  0  0  0  0
  147.4376  136.8408  163.8264 H   0  0  0  0  0  0  0  0  0  0  0  0
  149.6363  135.9532  159.4978 H   0  0  0  0  0  0  0  0  0  0  0  0
  148.2742  135.0657  158.8981 H   0  0  0  0  0  0  0  0  0  0  0  0
  147.0130  137.1668  158.5119 H   0  0  0  0  0  0  0  0  0  0  0  0
  148.2584  138.1020  159.2718 H   0  0  0  0  0  0  0  0  0  0  0  0
  149.7078  136.9226  155.2184 H   0  0  0  0  0  0  0  0  0  0  0  0
  150.0369  139.8076  154.2638 H   0  0  0  0  0  0  0  0  0  0  0  0
  151.9932  137.3944  154.5286 H   0  0  0  0  0  0  0  0  0  0  0  0
  152.3382  139.0174  153.7355 H   0  0  0  0  0  0  0  0  0  0  0  0
  151.8449  140.1789  155.9132 H   0  0  0  0  0  0  0  0  0  0  0  0
  151.5002  138.5514  156.6976 H   0  0  0  0  0  0  0  0  0  0  0  0
  147.3024  135.9094  154.0875 H   0  0  0  0  0  0  0  0  0  0  0  0
  146.7503  137.0871  155.2811 H   0  0  0  0  0  0  0  0  0  0  0  0
  145.7041  136.7141  152.5613 H   0  0  0  0  0  0  0  0  0  0  0  0
  145.0646  137.6928  153.8767 H   0  0  0  0  0  0  0  0  0  0  0  0
  146.8525  138.4863  151.6283 H   0  0  0  0  0  0  0  0  0  0  0  0
  145.7966  139.5291  152.5768 H   0  0  0  0  0  0  0  0  0  0  0  0
  147.4226  139.7139  154.3354 H   0  0  0  0  0  0  0  0  0  0  0  0
  148.4824  139.6561  152.9241 H   0  0  0  0  0  0  0  0  0  0  0  0
  148.7517  137.3860  153.2107 H   0  0  0  0  0  0  0  0  0  0  0  0
  1  2  1  0  0  0  0
  1 21  1  0  0  0  0
  1 22  1  0  0  0  0
  1 23  1  0  0  0  0
  2  6  1  0  0  0  0
  2  3  1  0  0  0  0
  3  4  2  0  0  0  0
  3 24  1  0  0  0  0
  4  5  1  0  0  0  0
  4 25  1  0  0  0  0
  5  6  2  0  0  0  0
  6  7  1  0  0  0  0
  7  8  1  0  0  0  0
  7 26  1  0  0  0  0
  7 27  1  0  0  0  0
  8  9  1  0  0  0  0
  8 28  1  0  0  0  0
  8 29  1  0  0  0  0
  9 10  1  0  0  0  0
 10 11  2  0  0  0  0
 10 12  1  0  0  0  0
 12 13  1  0  0  0  0
 12 16  1  0  0  0  0
 12 30  1  0  0  0  0
 13 15  1  0  0  0  0
 13 14  1  0  0  0  0
 13 31  1  0  0  0  0
 14 15  1  0  0  0  0
 14 32  1  0  0  0  0
 14 33  1  0  0  0  0
 15 34  1  0  0  0  0
 15 35  1  0  0  0  0
 16 20  1  0  0  0  0
 16 17  1  0  0  0  0
 16 44  1  0  0  0  0
 17 18  1  0  0  0  0
 17 36  1  0  0  0  0
 17 37  1  0  0  0  0
 18 19  1  0  0  0  0
 18 38  1  0  0  0  0
 18 39  1  0  0  0  0
 19 20  1  0  0  0  0
 19 40  1  0  0  0  0
 19 41  1  0  0  0  0
 20 42  1  0  0  0  0
 20 43  1  0  0  0  0
M  CHG  1   9  -1
M  CHG  1  16   1
M  END
> <s_m_source_file>
AV-unprocessed.smi

> <i_m_source_file_index>
2252

> <i_lp_mmshare_version>
43012

> <i_f3d_flags>
0

> <s_epik_input>
W0NIM11uMVtjSF1bY0hdbmMxW0NIMl1bQ0gyXVtOSF1DKD1PKVtDQEhdKFtDSF0yW0NIMl1bQ0gyXTIpTjNbQ0gyXVtDSDJdW0NIMl1bQ0gyXTM=

> <s_epik_cmdline>
J2VwaWtfcHl0aG9uJywgJy1waCcsICc3LjAnLCAnLXRuJywgJzgnLCAnLW1hJywgJzIwMCcsICctbWV0YWxfYmluZGluZycsICctaW1hZScsICc8aW5maWxlLm1hZT4nLCAnLW9tYWUnLCAnPG91dGZpbGUubWFlPic=

> <r_lp_tautomer_probability>
1

> <r_epik_Ionization_Penalty>
7.86289

> <r_epik_Ionization_Penalty_Charging>
7.86289

> <r_epik_Ionization_Penalty_Neutral>
4.79398e-13

> <r_epik_State_Penalty>
7.18546

> <r_epik_Charging_Adjusted_Penalty>
15.0484

> <i_epik_Tot_Q>
0

> <i_epik_Tot_abs_Q>
2

> <r_epik_Metal_State_Penalty>
3.4294

> <b_epik_Metal_Only>
1

> <s_lp_Force_Field>
OPLS_2005

> <r_lp_Energy>
29.989

> <b_lp_Chiralities_Consistent>
1

> <s_lp_Variant>
AV-unprocessed.smi:2252-9

> <Gold.Version>
5.8.1

> <Gold.Id.Protein>
6NUR|6NUR_protein|mol2

> <Gold.PLP.Fitness>
43.5405

> <Gold.PLP.PLP>
-35.1437

> <Gold.PLP.part.hbond>
-2.2780

> <Gold.PLP.part.metal>
0.0000

> <Gold.PLP.part.buried>
-4.2565

> <Gold.PLP.part.nonpolar>
-28.8828

> <Gold.PLP.part.repulsive>
0.0000

> <Gold.PLP.ligand.clash>
0.0000

> <Gold.PLP.ligand.torsion>
0.9299

> <Gold.PLP.Chemscore.Hbond>
3.0000

> <Gold.PLP.Chemscore.CHOScore>
0.0000

> <Gold.PLP.Chemscore.Metal>
0.0000

> <Gold.Chemscore.Hbonds>
donor molecule, donor type, donor heavy atom, donor atom, acceptor molecule, acceptor atom, score
      L1  H    16    44       P1  7948  2.00
      P1  H  6931  6943       L1     5  1.00

> <Gold.PLP.Chemscore.Internal.Correction>
1.2565

> <Gold.Rescore>
     Score         DG    S(hbond)    S(metal)    S(lipo)     H(rot)  DE(clash)    DE(int)     intcor
     16.31     -17.55       2.36        0.00      76.98       1.88       0.21       1.03       ----

> <Gold.Chemscore.Fitness>
16.3054

> <Gold.Chemscore.DG>
-17.5467

> <Gold.Chemscore.ZeroCoef>
-5.4800

> <Gold.Chemscore.Hbond>
2.3581

> <Gold.Chemscore.Metal>
0.0000

> <Gold.Chemscore.Lipo>
76.9831

> <Gold.Chemscore.Internal_Hbond>
0.0000

> <Gold.Chemscore.DEClash>
0.2133

> <Gold.Chemscore.DEInternal>
1.0279

> <Gold.Chemscore.Rot>
1.8814

> <Gold.Chemscore.Internal.Correction>
   9.000000E+99

> <Gold.Chemscore.Hbonds>
donor molecule, donor type, donor heavy atom, donor atom, acceptor molecule, acceptor atom, score
      L1  H    16    44       P1  7948  0.99
      P1  H  6931  6943       L1     5  0.97

> <Gold.Chemscore.Hbond.Weighted>
-7.8759

> <Gold.Chemscore.Metal.Weighted>
-0.0000

> <Gold.Chemscore.Lipo.Weighted>
-9.0070

> <Gold.Chemscore.Internal_Hbond.Weighted>
0.0000

> <Gold.Chemscore.DEClash.Weighted>
0.2133

> <Gold.Chemscore.DEInternal.Weighted>
1.0279

> <Gold.Chemscore.Rot.Weighted>
4.8163

> <Gold.Chemscore.Internal.Correction.Weighted>
   9.000000E+99

> <Gold.Protein.RotatedTorsions>
[ 6907 6896 6895 6894 ] final   95.89 input  -60.11 | X-H torsion
[ 7974 7965 7964 7962 ] final  107.81 input  175.53 | X-H torsion
[ 8008 7997 7996 7995 ] final   79.02 input   59.86 | X-H torsion
[ 10167 10162 10161 10158 ] final   76.95 input  -65.29 | X-H torsion
[ 10718 10713 10712 10709 ] final -155.69 input   66.30 | X-H torsion
[ 10763 10752 10751 10750 ] final   88.73 input  -60.55 | X-H torsion
[ 11005 11000 10999 10996 ] final -134.68 input  -57.11 | X-H torsion

> <Gold.Protein.ActiveResidues>
 VAL166  LYS551  ARG553  GLY616  TRP617  ASP618  TYR619  PRO620  LYS621  CYS622 
 ASP623  PHE694  ASN695  SER759  ASP760  ASP761  ALA762  ILE779  LEU786  VAL792 
 PHE793  MET794  SER795  GLU796  ALA797  LYS798  CYS799  TRP800  GLU811  SER814 

> <Gold.Protein.RotatedAtoms>
  152.5440  134.0971  159.8301 H   0  0  0  0  0  0  0  0  0  0  0  0  # atno 6907 bound_to 6896
  151.1053  133.5205  159.2615 H   0  0  0  0  0  0  0  0  0  0  0  0  # atno 6908 bound_to 6896
  151.1945  135.0426  159.8901 H   0  0  0  0  0  0  0  0  0  0  0  0  # atno 6909 bound_to 6896
  145.2888  139.2607  143.3876 H   0  0  0  0  0  0  0  0  0  0  0  0  # atno 7974 bound_to 7965
  155.8638  140.3452  155.5774 H   0  0  0  0  0  0  0  0  0  0  0  0  # atno 8008 bound_to 7997
  155.7904  140.0871  157.2031 H   0  0  0  0  0  0  0  0  0  0  0  0  # atno 8009 bound_to 7997
  154.4013  140.1484  156.3143 H   0  0  0  0  0  0  0  0  0  0  0  0  # atno 8010 bound_to 7997
  139.9868  144.5786  150.7852 H   0  0  0  0  0  0  0  0  0  0  0  0  # atno 10167 bound_to 10162
  156.5162  130.8457  151.2665 H   0  0  0  0  0  0  0  0  0  0  0  0  # atno 10718 bound_to 10713
  153.1798  135.4496  155.0013 H   0  0  0  0  0  0  0  0  0  0  0  0  # atno 10763 bound_to 10752
  154.8022  135.3260  154.7523 H   0  0  0  0  0  0  0  0  0  0  0  0  # atno 10764 bound_to 10752
  153.7989  135.6964  153.4914 H   0  0  0  0  0  0  0  0  0  0  0  0  # atno 10765 bound_to 10752
  140.8968  134.1742  157.4489 H   0  0  0  0  0  0  0  0  0  0  0  0  # atno 11005 bound_to 11000
  146.3192  140.3374  142.8645 LP  0  0  0  0  0  0  0  0  0  0  0  0  # atno 17320 bound_to 7965
  144.9190  140.7846  143.5760 LP  0  0  0  0  0  0  0  0  0  0  0  0  # atno 17321 bound_to 7965
  140.7469  143.2898  151.3362 LP  0  0  0  0  0  0  0  0  0  0  0  0  # atno 17342 bound_to 10162
  139.6369  144.0613  152.2523 LP  0  0  0  0  0  0  0  0  0  0  0  0  # atno 17343 bound_to 10162
  157.7443  130.9933  150.2666 LP  0  0  0  0  0  0  0  0  0  0  0  0  # atno 17370 bound_to 10713
  156.3193  130.3783  149.7590 LP  0  0  0  0  0  0  0  0  0  0  0  0  # atno 17371 bound_to 10713
  139.8736  134.9881  156.5399 LP  0  0  0  0  0  0  0  0  0  0  0  0  # atno 17394 bound_to 11000
  140.8280  133.8301  155.8957 LP  0  0  0  0  0  0  0  0  0  0  0  0  # atno 17395 bound_to 11000

$$$$
