AV-unprocessed.smi:2438|AV-procd|sdf|9601|dock9
  -GOLD-   2272013233D 1   1.00000     0.00000
 Structure written by MMmdl.
 44 45  0  0  0  0  0  0  0  0  2 V2000
  146.1974  142.8166  155.2200 C   0  0  0  0  0  0  0  0  0  0  0  0
  146.9338  142.6172  153.9778 N   0  0  0  0  0  0  0  0  0  0  0  0
  146.3172  143.1529  152.7719 C   0  0  0  0  0  0  0  0  0  0  0  0
  147.5242  141.3510  153.7926 C   0  0  0  0  0  0  0  0  0  0  0  0
  146.9530  140.5091  152.9006 N   0  0  0  0  0  0  0  0  0  0  0  0
  147.4912  139.3050  152.6841 C   0  0  0  0  0  0  0  0  0  0  0  0
  148.5887  138.8748  153.3191 N   0  3  0  0  0  0  0  0  0  0  0  0
  149.1974  139.6773  154.2245 C   0  0  0  0  0  0  0  0  0  0  0  0
  148.6892  140.9696  154.5017 C   0  0  0  0  0  0  0  0  0  0  0  0
  149.2513  141.8552  155.4672 N   0  0  0  0  0  0  0  0  0  0  0  0
  149.7428  141.5799  156.6870 C   0  0  0  0  0  0  0  0  0  0  0  0
  149.7998  140.4603  157.1939 O   0  0  0  0  0  0  0  0  0  0  0  0
  150.1798  142.6943  157.2903 N   0  0  0  0  0  0  0  0  0  0  0  0
  150.7665  142.7729  158.6257 C   0  0  2  0  0  0  0  0  0  0  0  0
  151.3192  144.1889  158.8679 C   0  0  0  0  0  0  0  0  0  0  0  0
  152.0188  144.2878  160.2315 C   0  0  0  0  0  0  0  0  0  0  0  0
  153.1254  143.2303  160.3687 C   0  0  0  0  0  0  0  0  0  0  0  0
  152.5819  141.8035  160.1416 C   0  0  2  0  0  0  0  0  0  0  0  0
  153.6825  140.7336  160.2960 C   0  0  0  0  0  0  0  0  0  0  0  0
  154.7856  141.0885  159.6363 F   0  0  0  0  0  0  0  0  0  0  0  0
  153.9845  140.5716  161.5841 F   0  0  0  0  0  0  0  0  0  0  0  0
  153.2529  139.5650  159.8201 F   0  0  0  0  0  0  0  0  0  0  0  0
  151.8779  141.7162  158.7700 C   0  0  0  0  0  0  0  0  0  0  0  0
  146.7636  142.4412  156.0736 H   0  0  0  0  0  0  0  0  0  0  0  0
  145.2339  142.3059  155.1898 H   0  0  0  0  0  0  0  0  0  0  0  0
  146.0138  143.8789  155.3824 H   0  0  0  0  0  0  0  0  0  0  0  0
  146.9921  143.1104  151.9168 H   0  0  0  0  0  0  0  0  0  0  0  0
  146.0353  144.1955  152.9223 H   0  0  0  0  0  0  0  0  0  0  0  0
  145.4165  142.5904  152.5232 H   0  0  0  0  0  0  0  0  0  0  0  0
  147.0408  138.6258  151.9752 H   0  0  0  0  0  0  0  0  0  0  0  0
  150.0592  139.2323  154.6964 H   0  0  0  0  0  0  0  0  0  0  0  0
  149.3197  142.8188  155.1724 H   0  0  0  0  0  0  0  0  0  0  0  0
  150.0938  143.5658  156.7879 H   0  0  0  0  0  0  0  0  0  0  0  0
  150.0093  142.5700  159.3854 H   0  0  0  0  0  0  0  0  0  0  0  0
  152.0268  144.4510  158.0797 H   0  0  0  0  0  0  0  0  0  0  0  0
  150.5123  144.9207  158.8146 H   0  0  0  0  0  0  0  0  0  0  0  0
  152.4401  145.2851  160.3606 H   0  0  0  0  0  0  0  0  0  0  0  0
  151.2861  144.1565  161.0288 H   0  0  0  0  0  0  0  0  0  0  0  0
  153.9200  143.4423  159.6521 H   0  0  0  0  0  0  0  0  0  0  0  0
  153.5763  143.3074  161.3585 H   0  0  0  0  0  0  0  0  0  0  0  0
  151.8318  141.6096  160.9103 H   0  0  0  0  0  0  0  0  0  0  0  0
  151.4511  140.7215  158.6357 H   0  0  0  0  0  0  0  0  0  0  0  0
  152.6128  141.8452  157.9741 H   0  0  0  0  0  0  0  0  0  0  0  0
  148.9681  137.9459  153.1338 H   0  0  0  0  0  0  0  0  0  0  0  0
  1  2  1  0  0  0  0
  1 24  1  0  0  0  0
  1 25  1  0  0  0  0
  1 26  1  0  0  0  0
  2  3  1  0  0  0  0
  2  4  1  0  0  0  0
  3 27  1  0  0  0  0
  3 28  1  0  0  0  0
  3 29  1  0  0  0  0
  4  9  1  0  0  0  0
  4  5  2  0  0  0  0
  5  6  1  0  0  0  0
  6  7  2  0  0  0  0
  6 30  1  0  0  0  0
  7  8  1  0  0  0  0
  7 44  1  0  0  0  0
  8  9  2  0  0  0  0
  8 31  1  0  0  0  0
  9 10  1  0  0  0  0
 10 11  1  0  0  0  0
 10 32  1  0  0  0  0
 11 12  2  0  0  0  0
 11 13  1  0  0  0  0
 13 14  1  0  0  0  0
 13 33  1  0  0  0  0
 14 23  1  0  0  0  0
 14 15  1  0  0  0  0
 14 34  1  0  0  0  0
 15 16  1  0  0  0  0
 15 35  1  0  0  0  0
 15 36  1  0  0  0  0
 16 17  1  0  0  0  0
 16 37  1  0  0  0  0
 16 38  1  0  0  0  0
 17 18  1  0  0  0  0
 17 39  1  0  0  0  0
 17 40  1  0  0  0  0
 18 19  1  0  0  0  0
 18 23  1  0  0  0  0
 18 41  1  0  0  0  0
 19 20  1  0  0  0  0
 19 21  1  0  0  0  0
 19 22  1  0  0  0  0
 23 42  1  0  0  0  0
 23 43  1  0  0  0  0
M  CHG  1   7   1
M  END
> <s_m_source_file>
AV-unprocessed.smi

> <i_m_source_file_index>
2438

> <i_lp_mmshare_version>
43012

> <i_f3d_flags>
0

> <s_epik_input>
W0NIM11OKFtDSDNdKWMxbltjSF1uW2NIXWMxW05IXUMoPU8pW05IXVtDQEBIXTJbQ0gyXVtDSDJdW0NIMl1bQ0BASF0oQyhGKShGKUYpW0NIMl0y

> <s_epik_cmdline>
J2VwaWtfcHl0aG9uJywgJy1waCcsICc3LjAnLCAnLXRuJywgJzgnLCAnLW1hJywgJzIwMCcsICctbWV0YWxfYmluZGluZycsICctaW1hZScsICc8aW5maWxlLm1hZT4nLCAnLW9tYWUnLCAnPG91dGZpbGUubWFlPic=

> <r_lp_tautomer_probability>
0.999336

> <r_epik_Ionization_Penalty>
2.11643

> <r_epik_Ionization_Penalty_Charging>
2.11639

> <r_epik_Ionization_Penalty_Neutral>
4.47523e-05

> <r_epik_State_Penalty>
2.25369

> <r_epik_Charging_Adjusted_Penalty>
4.37008

> <i_epik_Tot_Q>
1

> <i_epik_Tot_abs_Q>
1

> <r_epik_Metal_State_Penalty>
2.27019

> <b_epik_Metal_Only>
0

> <s_lp_Force_Field>
OPLS_2005

> <r_lp_Energy>
18.5992

> <b_lp_Chiralities_Consistent>
1

> <s_lp_Variant>
AV-unprocessed.smi:2438-7

> <Gold.Version>
5.8.1

> <Gold.Id.Protein>
6NUR|6NUR_protein|mol2

> <Gold.PLP.Fitness>
50.7774

> <Gold.PLP.PLP>
-42.1533

> <Gold.PLP.part.hbond>
-4.0000

> <Gold.PLP.part.metal>
0.0000

> <Gold.PLP.part.buried>
-3.7597

> <Gold.PLP.part.nonpolar>
-34.9760

> <Gold.PLP.part.repulsive>
0.6424

> <Gold.PLP.ligand.clash>
0.0000

> <Gold.PLP.ligand.torsion>
1.3030

> <Gold.PLP.Chemscore.Hbond>
3.6224

> <Gold.PLP.Chemscore.CHOScore>
0.0000

> <Gold.PLP.Chemscore.Metal>
0.0000

> <Gold.Chemscore.Hbonds>
donor molecule, donor type, donor heavy atom, donor atom, acceptor molecule, acceptor atom, score
      L1  H     7    44       P1  7948  1.50
      L1  H    10    32       P1  8028  0.91
      L1  H    13    33       P1  8028  0.93

> <Gold.PLP.Chemscore.Internal.Correction>
0.3629

> <Gold.Rescore>
     Score         DG    S(hbond)    S(metal)    S(lipo)     H(rot)  DE(clash)    DE(int)     intcor
     17.19     -21.99       2.73        0.00      91.88       1.31       3.49       1.32       ----

> <Gold.Chemscore.Fitness>
17.1853

> <Gold.Chemscore.DG>
-21.9938

> <Gold.Chemscore.ZeroCoef>
-5.4800

> <Gold.Chemscore.Hbond>
2.7282

> <Gold.Chemscore.Metal>
0.0000

> <Gold.Chemscore.Lipo>
91.8774

> <Gold.Chemscore.Internal_Hbond>
0.0000

> <Gold.Chemscore.DEClash>
3.4879

> <Gold.Chemscore.DEInternal>
1.3205

> <Gold.Chemscore.Rot>
1.3078

> <Gold.Chemscore.Internal.Correction>
   9.000000E+99

> <Gold.Chemscore.Hbonds>
donor molecule, donor type, donor heavy atom, donor atom, acceptor molecule, acceptor atom, score
      L1  H     7    44       P1  7948  0.71
      L1  H    10    32       P1  8028  0.85
      L1  H    13    33       P1  8028  0.85

> <Gold.Chemscore.Hbond.Weighted>
-9.1122

> <Gold.Chemscore.Metal.Weighted>
-0.0000

> <Gold.Chemscore.Lipo.Weighted>
-10.7497

> <Gold.Chemscore.Internal_Hbond.Weighted>
0.0000

> <Gold.Chemscore.DEClash.Weighted>
3.4879

> <Gold.Chemscore.DEInternal.Weighted>
1.3205

> <Gold.Chemscore.Rot.Weighted>
3.3481

> <Gold.Chemscore.Internal.Correction.Weighted>
   9.000000E+99

> <Gold.Protein.RotatedTorsions>
[ 6907 6896 6895 6894 ] final  -23.03 input  -60.11 | X-H torsion
[ 7974 7965 7964 7962 ] final   25.63 input  175.53 | X-H torsion
[ 8008 7997 7996 7995 ] final   -5.01 input   59.86 | X-H torsion
[ 10167 10162 10161 10158 ] final -151.97 input  -65.29 | X-H torsion
[ 10718 10713 10712 10709 ] final -140.89 input   66.30 | X-H torsion
[ 10763 10752 10751 10750 ] final -103.71 input  -60.55 | X-H torsion
[ 11005 11000 10999 10996 ] final  -49.45 input  -57.11 | X-H torsion

> <Gold.Protein.ActiveResidues>
 VAL166  LYS551  ARG553  GLY616  TRP617  ASP618  TYR619  PRO620  LYS621  CYS622 
 ASP623  PHE694  ASN695  SER759  ASP760  ASP761  ALA762  ILE779  LEU786  VAL792 
 PHE793  MET794  SER795  GLU796  ALA797  LYS798  CYS799  TRP800  GLU811  SER814 

> <Gold.Protein.RotatedAtoms>
  151.2099  135.0477  159.8906 H   0  0  0  0  0  0  0  0  0  0  0  0  # atno 6907 bound_to 6896
  152.5425  134.0757  159.8223 H   0  0  0  0  0  0  0  0  0  0  0  0  # atno 6908 bound_to 6896
  151.0908  133.5269  159.2647 H   0  0  0  0  0  0  0  0  0  0  0  0  # atno 6909 bound_to 6896
  146.1878  139.7439  142.8853 H   0  0  0  0  0  0  0  0  0  0  0  0  # atno 7974 bound_to 7965
  154.6084  140.2469  155.7701 H   0  0  0  0  0  0  0  0  0  0  0  0  # atno 8008 bound_to 7997
  156.2355  140.2951  156.0252 H   0  0  0  0  0  0  0  0  0  0  0  0  # atno 8009 bound_to 7997
  155.2094  140.0397  157.2921 H   0  0  0  0  0  0  0  0  0  0  0  0  # atno 8010 bound_to 7997
  139.7221  143.8940  152.2507 H   0  0  0  0  0  0  0  0  0  0  0  0  # atno 10167 bound_to 10162
  156.3276  130.7568  151.1679 H   0  0  0  0  0  0  0  0  0  0  0  0  # atno 10718 bound_to 10713
  154.7827  135.4813  153.9879 H   0  0  0  0  0  0  0  0  0  0  0  0  # atno 10763 bound_to 10752
  153.1516  135.6792  153.8881 H   0  0  0  0  0  0  0  0  0  0  0  0  # atno 10764 bound_to 10752
  153.8523  135.3165  155.3411 H   0  0  0  0  0  0  0  0  0  0  0  0  # atno 10765 bound_to 10752
  141.0760  133.6666  156.3588 H   0  0  0  0  0  0  0  0  0  0  0  0  # atno 11005 bound_to 11000
  145.3884  141.0369  143.3138 LP  0  0  0  0  0  0  0  0  0  0  0  0  # atno 17320 bound_to 7965
  144.8430  139.5441  143.6891 LP  0  0  0  0  0  0  0  0  0  0  0  0  # atno 17321 bound_to 7965
  139.8839  144.7002  150.8846 LP  0  0  0  0  0  0  0  0  0  0  0  0  # atno 17342 bound_to 10162
  140.7756  143.3639  151.1776 LP  0  0  0  0  0  0  0  0  0  0  0  0  # atno 17343 bound_to 10162
  157.7424  131.0490  150.5026 LP  0  0  0  0  0  0  0  0  0  0  0  0  # atno 17370 bound_to 10713
  156.5187  130.4156  149.6262 LP  0  0  0  0  0  0  0  0  0  0  0  0  # atno 17371 bound_to 10713
  140.5572  134.5969  157.5424 LP  0  0  0  0  0  0  0  0  0  0  0  0  # atno 17394 bound_to 11000
  139.9572  134.7514  156.0315 LP  0  0  0  0  0  0  0  0  0  0  0  0  # atno 17395 bound_to 11000

$$$$
