AV-unprocessed.smi:2703|AV-procd|sdf|10440|dock1
  -GOLD-   2272014483D 1   1.00000     0.00000
 Structure written by MMmdl.
 43 45  0  0  0  0  0  0  0  0  4 V2000
  153.7975  142.6692  163.8188 C   0  0  0  0  0  0  0  0  0  0  0  0
  153.2148  142.8914  162.4335 C   0  0  0  0  0  0  0  0  0  0  0  0
  152.4533  144.0587  162.2013 C   0  0  0  0  0  0  0  0  0  0  0  0
  151.9317  144.2325  160.9248 C   0  0  0  0  0  0  0  0  0  0  0  0
  151.1488  145.2571  160.3894 N   0  3  0  0  0  0  0  0  0  0  0  0
  150.8783  144.9868  159.0827 C   0  0  0  0  0  0  0  0  0  0  0  0
  151.4790  143.8057  158.7742 N   0  0  0  0  0  0  0  0  0  0  0  0
  151.4956  143.0686  157.5023 C   0  0  0  0  0  0  0  0  0  0  0  0
  150.1972  142.2761  157.2542 C   0  0  2  0  0  0  0  0  0  0  0  0
  149.0811  143.0313  157.6856 O   0  0  0  0  0  0  0  0  0  0  0  0
  150.2063  140.9215  157.9812 C   0  0  0  0  0  0  0  0  0  0  0  0
  149.0414  139.7381  157.2440 S   0  0  0  0  0  0  0  0  0  0  0  0
  148.1765  140.5588  155.9262 C   0  0  0  0  0  0  0  0  0  0  0  0
  146.8140  140.9167  156.0303 C   0  0  0  0  0  0  0  0  0  0  0  0
  146.1800  141.5636  154.9583 C   0  0  0  0  0  0  0  0  0  0  0  0
  146.9213  141.8410  153.8006 C   0  0  0  0  0  0  0  0  0  0  0  0
  148.2769  141.4657  153.7400 C   0  0  0  0  0  0  0  0  0  0  0  0
  148.8946  140.8343  154.7855 N   0  3  0  0  0  0  0  0  0  0  0  0
  150.1362  140.5104  154.6798 O   0  5  0  0  0  0  0  0  0  0  0  0
  152.1471  143.2961  159.8945 C   0  0  0  0  0  0  0  0  0  0  0  0
  152.8951  142.1402  160.1074 C   0  0  0  0  0  0  0  0  0  0  0  0
  153.4317  141.9437  161.4000 C   0  0  0  0  0  0  0  0  0  0  0  0
  154.2489  140.6900  161.6618 C   0  0  0  0  0  0  0  0  0  0  0  0
  153.5536  143.4920  164.4915 H   0  0  0  0  0  0  0  0  0  0  0  0
  154.8839  142.5907  163.7700 H   0  0  0  0  0  0  0  0  0  0  0  0
  153.4028  141.7524  164.2571 H   0  0  0  0  0  0  0  0  0  0  0  0
  152.2827  144.7836  162.9838 H   0  0  0  0  0  0  0  0  0  0  0  0
  150.2923  145.5987  158.4122 H   0  0  0  0  0  0  0  0  0  0  0  0
  151.6350  143.8055  156.7105 H   0  0  0  0  0  0  0  0  0  0  0  0
  152.3709  142.4196  157.4702 H   0  0  0  0  0  0  0  0  0  0  0  0
  150.0897  142.1041  156.1825 H   0  0  0  0  0  0  0  0  0  0  0  0
  148.9726  143.7688  157.1051 H   0  0  0  0  0  0  0  0  0  0  0  0
  151.2050  140.4868  157.9319 H   0  0  0  0  0  0  0  0  0  0  0  0
  149.9638  141.0559  159.0361 H   0  0  0  0  0  0  0  0  0  0  0  0
  146.2443  140.7017  156.9207 H   0  0  0  0  0  0  0  0  0  0  0  0
  145.1383  141.8422  155.0235 H   0  0  0  0  0  0  0  0  0  0  0  0
  146.4567  142.3375  152.9615 H   0  0  0  0  0  0  0  0  0  0  0  0
  148.9098  141.6453  152.8827 H   0  0  0  0  0  0  0  0  0  0  0  0
  153.0586  141.4157  159.3239 H   0  0  0  0  0  0  0  0  0  0  0  0
  154.3169  140.0645  160.7712 H   0  0  0  0  0  0  0  0  0  0  0  0
  153.7932  140.0938  162.4527 H   0  0  0  0  0  0  0  0  0  0  0  0
  155.2635  140.9503  161.9639 H   0  0  0  0  0  0  0  0  0  0  0  0
  150.8198  146.0801  160.8778 H   0  0  0  0  0  0  0  0  0  0  0  0
  1  2  1  0  0  0  0
  1 24  1  0  0  0  0
  1 25  1  0  0  0  0
  1 26  1  0  0  0  0
  2 22  1  0  0  0  0
  2  3  2  0  0  0  0
  3  4  1  0  0  0  0
  3 27  1  0  0  0  0
  4 20  2  0  0  0  0
  4  5  1  0  0  0  0
  5  6  2  0  0  0  0
  5 43  1  0  0  0  0
  6  7  1  0  0  0  0
  6 28  1  0  0  0  0
  7  8  1  0  0  0  0
  7 20  1  0  0  0  0
  8  9  1  0  0  0  0
  8 29  1  0  0  0  0
  8 30  1  0  0  0  0
  9 10  1  0  0  0  0
  9 11  1  0  0  0  0
  9 31  1  0  0  0  0
 10 32  1  0  0  0  0
 11 12  1  0  0  0  0
 11 33  1  0  0  0  0
 11 34  1  0  0  0  0
 12 13  1  0  0  0  0
 13 18  1  0  0  0  0
 13 14  2  0  0  0  0
 14 15  1  0  0  0  0
 14 35  1  0  0  0  0
 15 16  2  0  0  0  0
 15 36  1  0  0  0  0
 16 17  1  0  0  0  0
 16 37  1  0  0  0  0
 17 18  2  0  0  0  0
 17 38  1  0  0  0  0
 18 19  1  0  0  0  0
 20 21  1  0  0  0  0
 21 22  2  0  0  0  0
 21 39  1  0  0  0  0
 22 23  1  0  0  0  0
 23 40  1  0  0  0  0
 23 41  1  0  0  0  0
 23 42  1  0  0  0  0
M  CHG  1   5   1
M  CHG  1  18   1
M  CHG  1  19  -1
M  END
> <s_m_source_file>
AV-unprocessed.smi

> <i_m_source_file_index>
2703

> <i_lp_mmshare_version>
43012

> <i_f3d_flags>
0

> <s_epik_input>
W0NIM11jKFtjSF0xKWMoW0NIM10pW2NIXWMoYzEyKW4oW2NIXW4yKVtDSDJdW0NASF0oW09IXSlbQ0gyXVNjM1tjSF1bY0hdW2NIXVtjSF1bbitdM1tPLV0=

> <s_epik_cmdline>
J2VwaWtfcHl0aG9uJywgJy1waCcsICc3LjAnLCAnLXRuJywgJzgnLCAnLW1hJywgJzIwMCcsICctbWV0YWxfYmluZGluZycsICctaW1hZScsICc8aW5maWxlLm1hZT4nLCAnLW9tYWUnLCAnPG91dGZpbGUubWFlPic=

> <r_epik_Ionization_Penalty>
1.07182

> <r_epik_Ionization_Penalty_Charging>
1.07181

> <r_epik_Ionization_Penalty_Neutral>
2.88913e-06

> <r_epik_State_Penalty>
1.12646

> <r_epik_Charging_Adjusted_Penalty>
2.19828

> <i_epik_Tot_Q>
1

> <i_epik_Tot_abs_Q>
3

> <r_epik_Metal_State_Penalty>
5.12345

> <b_epik_Metal_Only>
0

> <s_lp_Force_Field>
OPLS_2005

> <r_lp_Energy>
22.2033

> <b_lp_Chiralities_Consistent>
1

> <s_lp_Variant>
AV-unprocessed.smi:2703-3

> <Gold.Version>
5.8.1

> <Gold.Id.Protein>
6NUR|6NUR_protein|mol2

> <Gold.PLP.Fitness>
61.1702

> <Gold.PLP.PLP>
-55.2347

> <Gold.PLP.part.hbond>
-2.9064

> <Gold.PLP.part.metal>
0.0000

> <Gold.PLP.part.buried>
-6.0540

> <Gold.PLP.part.nonpolar>
-46.0905

> <Gold.PLP.part.repulsive>
0.2745

> <Gold.PLP.ligand.clash>
0.0000

> <Gold.PLP.ligand.torsion>
1.1690

> <Gold.PLP.Chemscore.Hbond>
1.9280

> <Gold.PLP.Chemscore.CHOScore>
0.7980

> <Gold.PLP.Chemscore.Metal>
0.0000

> <Gold.Chemscore.Hbonds>
donor molecule, donor type, donor heavy atom, donor atom, acceptor molecule, acceptor atom, score
      L1  H    10    32       P1  8028  1.00
      P1  H  7989  7998       L1    19  0.93
      L1  C     6    28       P1  8029  0.69

> <Gold.PLP.Chemscore.Internal.Correction>
0.0955

> <Gold.Rescore>
     Score         DG    S(hbond)    S(metal)    S(lipo)     H(rot)  DE(clash)    DE(int)     intcor
     18.05     -20.83       1.77        0.00     131.59       2.33       0.52       2.26       ----

> <Gold.Chemscore.Fitness>
18.0520

> <Gold.Chemscore.DG>
-20.8296

> <Gold.Chemscore.ZeroCoef>
-5.4800

> <Gold.Chemscore.Hbond>
1.7699

> <Gold.Chemscore.Metal>
0.0000

> <Gold.Chemscore.Lipo>
131.5924

> <Gold.Chemscore.Internal_Hbond>
0.0000

> <Gold.Chemscore.DEClash>
0.5159

> <Gold.Chemscore.DEInternal>
2.2617

> <Gold.Chemscore.Rot>
2.3274

> <Gold.Chemscore.Internal.Correction>
   9.000000E+99

> <Gold.Chemscore.Hbonds>
donor molecule, donor type, donor heavy atom, donor atom, acceptor molecule, acceptor atom, score
      L1  H    10    32       P1  8028  0.30
      P1  H  7989  7998       L1    19  0.89

> <Gold.Chemscore.Hbond.Weighted>
-5.9116

> <Gold.Chemscore.Metal.Weighted>
-0.0000

> <Gold.Chemscore.Lipo.Weighted>
-15.3963

> <Gold.Chemscore.Internal_Hbond.Weighted>
0.0000

> <Gold.Chemscore.DEClash.Weighted>
0.5159

> <Gold.Chemscore.DEInternal.Weighted>
2.2617

> <Gold.Chemscore.Rot.Weighted>
5.9583

> <Gold.Chemscore.Internal.Correction.Weighted>
   9.000000E+99

> <Gold.Protein.RotatedTorsions>
[ 6907 6896 6895 6894 ] final  -88.73 input  -60.11 | X-H torsion
[ 7974 7965 7964 7962 ] final  -71.32 input  175.53 | X-H torsion
[ 8008 7997 7996 7995 ] final   -4.49 input   59.86 | X-H torsion
[ 10167 10162 10161 10158 ] final  133.81 input  -65.29 | X-H torsion
[ 10718 10713 10712 10709 ] final -145.31 input   66.30 | X-H torsion
[ 10763 10752 10751 10750 ] final -152.28 input  -60.55 | X-H torsion
[ 11005 11000 10999 10996 ] final  147.49 input  -57.11 | X-H torsion

> <Gold.Protein.ActiveResidues>
 VAL166  LYS551  ARG553  GLY616  TRP617  ASP618  TYR619  PRO620  LYS621  CYS622 
 ASP623  PHE694  ASN695  SER759  ASP760  ASP761  ALA762  ILE779  LEU786  VAL792 
 PHE793  MET794  SER795  GLU796  ALA797  LYS798  CYS799  TRP800  GLU811  SER814 

> <Gold.Protein.RotatedAtoms>
  150.6870  134.2697  159.4582 H   0  0  0  0  0  0  0  0  0  0  0  0  # atno 6907 bound_to 6896
  152.0620  134.9586  160.0584 H   0  0  0  0  0  0  0  0  0  0  0  0  # atno 6908 bound_to 6896
  152.1009  133.4214  159.4623 H   0  0  0  0  0  0  0  0  0  0  0  0  # atno 6909 bound_to 6896
  145.6796  140.9192  143.0839 H   0  0  0  0  0  0  0  0  0  0  0  0  # atno 7974 bound_to 7965
  154.6137  140.2482  155.7636 H   0  0  0  0  0  0  0  0  0  0  0  0  # atno 8008 bound_to 7997
  156.2386  140.2941  156.0331 H   0  0  0  0  0  0  0  0  0  0  0  0  # atno 8009 bound_to 7997
  155.2010  140.0394  157.2907 H   0  0  0  0  0  0  0  0  0  0  0  0  # atno 8010 bound_to 7997
  139.5282  144.6598  151.5049 H   0  0  0  0  0  0  0  0  0  0  0  0  # atno 10167 bound_to 10162
  156.3809  130.7836  151.2028 H   0  0  0  0  0  0  0  0  0  0  0  0  # atno 10718 bound_to 10713
  154.8004  135.3240  154.7563 H   0  0  0  0  0  0  0  0  0  0  0  0  # atno 10763 bound_to 10752
  153.8232  135.6886  153.4828 H   0  0  0  0  0  0  0  0  0  0  0  0  # atno 10764 bound_to 10752
  153.1718  135.4620  154.9856 H   0  0  0  0  0  0  0  0  0  0  0  0  # atno 10765 bound_to 10752
  140.0880  134.9058  157.1607 H   0  0  0  0  0  0  0  0  0  0  0  0  # atno 11005 bound_to 11000
  144.7030  139.8679  143.7438 LP  0  0  0  0  0  0  0  0  0  0  0  0  # atno 17320 bound_to 7965
  146.0976  139.3969  143.0367 LP  0  0  0  0  0  0  0  0  0  0  0  0  # atno 17321 bound_to 7965
  140.6441  143.8831  150.6720 LP  0  0  0  0  0  0  0  0  0  0  0  0  # atno 17342 bound_to 10162
  140.2174  143.3835  152.1670 LP  0  0  0  0  0  0  0  0  0  0  0  0  # atno 17343 bound_to 10162
  157.7492  131.0344  150.4317 LP  0  0  0  0  0  0  0  0  0  0  0  0  # atno 17370 bound_to 10713
  156.4561  130.4022  149.6605 LP  0  0  0  0  0  0  0  0  0  0  0  0  # atno 17371 bound_to 10713
  140.3392  134.2723  155.7215 LP  0  0  0  0  0  0  0  0  0  0  0  0  # atno 17394 bound_to 11000
  141.2069  133.7821  157.0151 LP  0  0  0  0  0  0  0  0  0  0  0  0  # atno 17395 bound_to 11000

$$$$
