AV-unprocessed.smi:2492|AV-procd|sdf|9817|dock10
  -GOLD-   2272013443D 1   1.00000     0.00000
 Structure written by MMmdl.
 32 33  0  0  0  0  0  0  0  0  2 V2000
  151.8237  144.6288  159.4957 C   0  0  0  0  0  0  0  0  0  0  0  0
  153.2636  143.6475  158.9978 S   0  0  0  0  0  0  0  0  0  0  0  0
  152.8907  142.0814  159.8384 C   0  0  2  0  0  0  0  0  0  0  0  0
  154.1385  141.4125  160.4090 C   0  0  0  0  0  0  0  0  0  0  0  0
  153.7206  139.9562  160.6145 C   0  0  0  0  0  0  0  0  0  0  0  0
  152.6703  139.6577  159.5253 C   0  0  2  0  0  0  0  0  0  0  0  0
  153.1917  138.7499  158.5055 N   0  0  0  0  0  0  0  0  0  0  0  0
  153.3462  137.4244  158.6375 C   0  0  0  0  0  0  0  0  0  0  0  0
  153.0427  136.8729  159.6980 O   0  0  0  0  0  0  0  0  0  0  0  0
  153.8450  136.8214  157.5345 N   0  5  0  0  0  0  0  0  0  0  0  0
  155.0437  137.1896  157.0534 C   0  0  0  0  0  0  0  0  0  0  0  0
  155.6681  136.6504  156.0055 N   0  0  0  0  0  0  0  0  0  0  0  0
  156.8106  137.3858  155.9524 C   0  0  0  0  0  0  0  0  0  0  0  0
  157.8718  137.1628  154.9302 C   0  0  0  0  0  0  0  0  0  0  0  0
  156.9302  138.3343  156.8692 N   0  0  0  0  0  0  0  0  0  0  0  0
  155.7461  138.2111  157.6095 O   0  0  0  0  0  0  0  0  0  0  0  0
  152.2987  141.0188  158.9070 C   0  0  0  0  0  0  0  0  0  0  0  0
  151.9023  145.6395  159.0952 H   0  0  0  0  0  0  0  0  0  0  0  0
  151.7620  144.6908  160.5824 H   0  0  0  0  0  0  0  0  0  0  0  0
  150.9046  144.1809  159.1183 H   0  0  0  0  0  0  0  0  0  0  0  0
  152.1931  142.2755  160.6544 H   0  0  0  0  0  0  0  0  0  0  0  0
  154.9526  141.4576  159.6839 H   0  0  0  0  0  0  0  0  0  0  0  0
  154.4846  141.8823  161.3300 H   0  0  0  0  0  0  0  0  0  0  0  0
  154.5771  139.2808  160.5911 H   0  0  0  0  0  0  0  0  0  0  0  0
  153.2576  139.8497  161.5963 H   0  0  0  0  0  0  0  0  0  0  0  0
  151.7841  139.2171  159.9858 H   0  0  0  0  0  0  0  0  0  0  0  0
  153.4549  139.1602  157.6216 H   0  0  0  0  0  0  0  0  0  0  0  0
  157.8323  137.9443  154.1712 H   0  0  0  0  0  0  0  0  0  0  0  0
  157.7377  136.1975  154.4410 H   0  0  0  0  0  0  0  0  0  0  0  0
  158.8580  137.1780  155.3955 H   0  0  0  0  0  0  0  0  0  0  0  0
  151.2206  141.1322  158.7904 H   0  0  0  0  0  0  0  0  0  0  0  0
  152.7416  141.1187  157.9143 H   0  0  0  0  0  0  0  0  0  0  0  0
  1  2  1  0  0  0  0
  1 18  1  0  0  0  0
  1 19  1  0  0  0  0
  1 20  1  0  0  0  0
  2  3  1  0  0  0  0
  3 17  1  0  0  0  0
  3  4  1  0  0  0  0
  3 21  1  0  0  0  0
  4  5  1  0  0  0  0
  4 22  1  0  0  0  0
  4 23  1  0  0  0  0
  5  6  1  0  0  0  0
  5 24  1  0  0  0  0
  5 25  1  0  0  0  0
  6  7  1  0  0  0  0
  6 17  1  0  0  0  0
  6 26  1  0  0  0  0
  7  8  1  0  0  0  0
  7 27  1  0  0  0  0
  8  9  2  0  0  0  0
  8 10  1  0  0  0  0
 10 11  1  0  0  0  0
 11 16  1  0  0  0  0
 11 12  2  0  0  0  0
 12 13  1  0  0  0  0
 13 14  1  0  0  0  0
 13 15  2  0  0  0  0
 14 28  1  0  0  0  0
 14 29  1  0  0  0  0
 14 30  1  0  0  0  0
 15 16  1  0  0  0  0
 17 31  1  0  0  0  0
 17 32  1  0  0  0  0
M  CHG  1  10  -1
M  END
> <s_m_source_file>
AV-unprocessed.smi

> <i_m_source_file_index>
2492

> <i_lp_mmshare_version>
43012

> <i_f3d_flags>
0

> <s_epik_input>
W0NIM11TW0NAQEhdMVtDSDJdW0NIMl1bQ0BIXShbQ0gyXTEpW05IXUMoPU8pW05IXWMybmMoW0NIM10pbm8y

> <s_epik_cmdline>
J2VwaWtfcHl0aG9uJywgJy1waCcsICc3LjAnLCAnLXRuJywgJzgnLCAnLW1hJywgJzIwMCcsICctbWV0YWxfYmluZGluZycsICctaW1hZScsICc8aW5maWxlLm1hZT4nLCAnLW9tYWUnLCAnPG91dGZpbGUubWFlPic=

> <r_lp_tautomer_probability>
1

> <r_epik_Ionization_Penalty>
6.26454

> <r_epik_Ionization_Penalty_Charging>
6.26445

> <r_epik_Ionization_Penalty_Neutral>
9.05726e-05

> <r_epik_State_Penalty>
6.26444

> <r_epik_Charging_Adjusted_Penalty>
12.5289

> <i_epik_Tot_Q>
-1

> <i_epik_Tot_abs_Q>
1

> <r_epik_Metal_State_Penalty>
2.20125

> <b_epik_Metal_Only>
1

> <s_lp_Force_Field>
OPLS_2005

> <r_lp_Energy>
10.8343

> <b_lp_Chiralities_Consistent>
1

> <s_lp_Variant>
AV-unprocessed.smi:2492-7

> <Gold.Version>
5.8.1

> <Gold.Id.Protein>
6NUR|6NUR_protein|mol2

> <Gold.PLP.Fitness>
33.8967

> <Gold.PLP.PLP>
-30.4945

> <Gold.PLP.part.hbond>
-3.9270

> <Gold.PLP.part.metal>
0.0000

> <Gold.PLP.part.buried>
-4.7350

> <Gold.PLP.part.nonpolar>
-23.0702

> <Gold.PLP.part.repulsive>
0.2088

> <Gold.PLP.ligand.clash>
0.0000

> <Gold.PLP.ligand.torsion>
1.3084

> <Gold.PLP.Chemscore.Hbond>
2.0037

> <Gold.PLP.Chemscore.CHOScore>
0.0000

> <Gold.PLP.Chemscore.Metal>
0.0000

> <Gold.Chemscore.Hbonds>
donor molecule, donor type, donor heavy atom, donor atom, acceptor molecule, acceptor atom, score
      P1  H  6896  6909       L1     9  0.73
      P1  H  7997  8009       L1    16  0.14
      P1  H 10752 10764       L1    12  0.86

> <Gold.PLP.Chemscore.Internal.Correction>
0.0080

> <Gold.Rescore>
     Score         DG    S(hbond)    S(metal)    S(lipo)     H(rot)  DE(clash)    DE(int)     intcor
     14.91     -17.48       1.94        0.00      75.06       1.27       0.01       2.56       ----

> <Gold.Chemscore.Fitness>
14.9110

> <Gold.Chemscore.DG>
-17.4783

> <Gold.Chemscore.ZeroCoef>
-5.4800

> <Gold.Chemscore.Hbond>
1.9374

> <Gold.Chemscore.Metal>
0.0000

> <Gold.Chemscore.Lipo>
75.0569

> <Gold.Chemscore.Internal_Hbond>
0.0000

> <Gold.Chemscore.DEClash>
0.0052

> <Gold.Chemscore.DEInternal>
2.5620

> <Gold.Chemscore.Rot>
1.2712

> <Gold.Chemscore.Internal.Correction>
   9.000000E+99

> <Gold.Chemscore.Hbonds>
donor molecule, donor type, donor heavy atom, donor atom, acceptor molecule, acceptor atom, score
      P1  H  6896  6909       L1     9  0.72
      P1  H 10752 10764       L1    12  0.72

> <Gold.Chemscore.Hbond.Weighted>
-6.4708

> <Gold.Chemscore.Metal.Weighted>
-0.0000

> <Gold.Chemscore.Lipo.Weighted>
-8.7817

> <Gold.Chemscore.Internal_Hbond.Weighted>
0.0000

> <Gold.Chemscore.DEClash.Weighted>
0.0052

> <Gold.Chemscore.DEInternal.Weighted>
2.5620

> <Gold.Chemscore.Rot.Weighted>
3.2542

> <Gold.Chemscore.Internal.Correction.Weighted>
   9.000000E+99

> <Gold.Protein.RotatedTorsions>
[ 6907 6896 6895 6894 ] final  136.65 input  -60.11 | X-H torsion
[ 7974 7965 7964 7962 ] final  152.73 input  175.53 | X-H torsion
[ 8008 7997 7996 7995 ] final   95.11 input   59.86 | X-H torsion
[ 10167 10162 10161 10158 ] final  -14.97 input  -65.29 | X-H torsion
[ 10718 10713 10712 10709 ] final   -9.87 input   66.30 | X-H torsion
[ 10763 10752 10751 10750 ] final   65.58 input  -60.55 | X-H torsion
[ 11005 11000 10999 10996 ] final  -37.75 input  -57.11 | X-H torsion

> <Gold.Protein.ActiveResidues>
 VAL166  LYS551  ARG553  GLY616  TRP617  ASP618  TYR619  PRO620  LYS621  CYS622 
 ASP623  PHE694  ASN695  SER759  ASP760  ASP761  ALA762  ILE779  LEU786  VAL792 
 PHE793  MET794  SER795  GLU796  ALA797  LYS798  CYS799  TRP800  GLU811  SER814 

> <Gold.Protein.RotatedAtoms>
  152.2869  133.5524  159.5532 H   0  0  0  0  0  0  0  0  0  0  0  0  # atno 6907 bound_to 6896
  150.7219  134.0484  159.3798 H   0  0  0  0  0  0  0  0  0  0  0  0  # atno 6908 bound_to 6896
  151.8392  135.0596  160.0497 H   0  0  0  0  0  0  0  0  0  0  0  0  # atno 6909 bound_to 6896
  144.8203  139.6707  143.6103 H   0  0  0  0  0  0  0  0  0  0  0  0  # atno 7974 bound_to 7965
  156.0653  140.3291  155.7510 H   0  0  0  0  0  0  0  0  0  0  0  0  # atno 8008 bound_to 7997
  155.5391  140.0600  157.2891 H   0  0  0  0  0  0  0  0  0  0  0  0  # atno 8009 bound_to 7997
  154.4502  140.1914  156.0561 H   0  0  0  0  0  0  0  0  0  0  0  0  # atno 8010 bound_to 7997
  140.7210  143.5266  150.9570 H   0  0  0  0  0  0  0  0  0  0  0  0  # atno 10167 bound_to 10162
  156.6817  130.5039  149.5969 H   0  0  0  0  0  0  0  0  0  0  0  0  # atno 10718 bound_to 10713
  153.0103  135.5351  154.6690 H   0  0  0  0  0  0  0  0  0  0  0  0  # atno 10763 bound_to 10752
  154.5879  135.2856  155.0668 H   0  0  0  0  0  0  0  0  0  0  0  0  # atno 10764 bound_to 10752
  154.1772  135.6522  153.5077 H   0  0  0  0  0  0  0  0  0  0  0  0  # atno 10765 bound_to 10752
  140.9976  133.6972  156.1962 H   0  0  0  0  0  0  0  0  0  0  0  0  # atno 11005 bound_to 11000
  146.2508  139.6195  142.9428 LP  0  0  0  0  0  0  0  0  0  0  0  0  # atno 17320 bound_to 7965
  145.5121  141.0435  143.2482 LP  0  0  0  0  0  0  0  0  0  0  0  0  # atno 17321 bound_to 7965
  139.8985  143.6865  152.3135 LP  0  0  0  0  0  0  0  0  0  0  0  0  # atno 17342 bound_to 10162
  139.7206  144.7603  151.0961 LP  0  0  0  0  0  0  0  0  0  0  0  0  # atno 17343 bound_to 10162
  156.1862  130.6531  151.1009 LP  0  0  0  0  0  0  0  0  0  0  0  0  # atno 17370 bound_to 10713
  157.7041  131.0764  150.6725 LP  0  0  0  0  0  0  0  0  0  0  0  0  # atno 17371 bound_to 10713
  140.6942  134.4634  157.5588 LP  0  0  0  0  0  0  0  0  0  0  0  0  # atno 17394 bound_to 11000
  139.9022  134.8529  156.1848 LP  0  0  0  0  0  0  0  0  0  0  0  0  # atno 17395 bound_to 11000

$$$$
