AV-unprocessed.smi:160|AV-procd|sdf|1358|dock6
  -GOLD-   2262019 63D 1   1.00000     0.00000
 Structure written by MMmdl.
 29 30  0  0  0  0  0  0  0  0  1 V2000
  146.5197  144.0298  158.5436 N   0  0  0  0  0  0  0  0  0  0  0  0
  146.8838  142.8024  158.9293 C   0  0  0  0  0  0  0  0  0  0  0  0
  146.2692  142.1730  159.7889 O   0  0  0  0  0  0  0  0  0  0  0  0
  148.0974  142.2265  158.2536 C   0  0  0  0  0  0  0  0  0  0  0  0
  149.0683  141.5874  158.9712 N   0  0  0  0  0  0  0  0  0  0  0  0
  149.8856  141.2660  157.9765 C   0  0  0  0  0  0  0  0  0  0  0  0
  149.4697  141.6740  156.7735 N   0  0  0  0  0  0  0  0  0  0  0  0
  150.0854  141.4757  155.4267 C   0  0  1  0  0  0  0  0  0  0  0  0
  151.2124  140.6688  155.6034 O   0  0  0  0  0  0  0  0  0  0  0  0
  151.1523  139.5197  154.7615 C   0  0  1  0  0  0  0  0  0  0  0  0
  151.8470  138.3372  155.4543 C   0  0  0  0  0  0  0  0  0  0  0  0
  151.8366  137.2053  154.6112 O   0  0  0  0  0  0  0  0  0  0  0  0
  149.6514  139.3095  154.5549 C   0  0  2  0  0  0  0  0  0  0  0  0
  149.3430  138.5513  153.4000 O   0  0  0  0  0  0  0  0  0  0  0  0
  149.1211  140.7362  154.4873 C   0  0  2  0  0  0  0  0  0  0  0  0
  149.1788  141.2794  153.1810 O   0  0  0  0  0  0  0  0  0  0  0  0
  148.2786  142.3032  156.9340 N   0  0  0  0  0  0  0  0  0  0  0  0
  150.3507  142.4804  155.0938 H   0  0  0  0  0  0  0  0  0  0  0  0
  151.6226  139.7550  153.8046 H   0  0  0  0  0  0  0  0  0  0  0  0
  149.2282  138.8077  155.4262 H   0  0  0  0  0  0  0  0  0  0  0  0
  148.0908  140.8085  154.8392 H   0  0  0  0  0  0  0  0  0  0  0  0
  145.7113  144.4689  158.9592 H   0  0  0  0  0  0  0  0  0  0  0  0
  147.0564  144.5090  157.8354 H   0  0  0  0  0  0  0  0  0  0  0  0
  150.8054  140.7203  158.1281 H   0  0  0  0  0  0  0  0  0  0  0  0
  152.8687  138.5903  155.7396 H   0  0  0  0  0  0  0  0  0  0  0  0
  151.3131  138.0686  156.3663 H   0  0  0  0  0  0  0  0  0  0  0  0
  150.9386  136.9613  154.4455 H   0  0  0  0  0  0  0  0  0  0  0  0
  149.3902  139.1189  152.6460 H   0  0  0  0  0  0  0  0  0  0  0  0
  149.2259  140.5638  152.5652 H   0  0  0  0  0  0  0  0  0  0  0  0
  1  2  1  0  0  0  0
  1 22  1  0  0  0  0
  1 23  1  0  0  0  0
  2  3  2  0  0  0  0
  2  4  1  0  0  0  0
  4 17  2  0  0  0  0
  4  5  1  0  0  0  0
  5  6  2  0  0  0  0
  6  7  1  0  0  0  0
  6 24  1  0  0  0  0
  7  8  1  0  0  0  0
  7 17  1  0  0  0  0
  8 18  1  0  0  0  0
  8 15  1  0  0  0  0
  8  9  1  0  0  0  0
  9 10  1  0  0  0  0
 10 19  1  0  0  0  0
 10 11  1  0  0  0  0
 10 13  1  0  0  0  0
 11 12  1  0  0  0  0
 11 25  1  0  0  0  0
 11 26  1  0  0  0  0
 12 27  1  0  0  0  0
 13 20  1  0  0  0  0
 13 14  1  0  0  0  0
 13 15  1  0  0  0  0
 14 28  1  0  0  0  0
 15 21  1  0  0  0  0
 15 16  1  0  0  0  0
 16 29  1  0  0  0  0
M  END
> <s_m_source_file>
AV-unprocessed.smi

> <i_m_source_file_index>
160

> <i_lp_mmshare_version>
43012

> <i_f3d_flags>
0

> <s_epik_input>
W05IMl1DKD1PKWMxbltjSF1uKG4xKVtDQEBIXTJPW0NASF0oW0NIMl1bT0hdKVtDQEBIXShbT0hdKVtDQEhdMltPSF0=

> <s_epik_cmdline>
J2VwaWtfcHl0aG9uJywgJy1waCcsICc3LjAnLCAnLXRuJywgJzgnLCAnLW1hJywgJzIwMCcsICctbWV0YWxfYmluZGluZycsICctaW1hZScsICc8aW5maWxlLm1hZT4nLCAnLW9tYWUnLCAnPG91dGZpbGUubWFlPic=

> <r_lp_tautomer_probability>
1

> <r_epik_Ionization_Penalty>
1.06932e-05

> <r_epik_Ionization_Penalty_Charging>
0

> <r_epik_Ionization_Penalty_Neutral>
1.06932e-05

> <r_epik_State_Penalty>
-0

> <r_epik_Charging_Adjusted_Penalty>
0

> <i_epik_Tot_Q>
0

> <i_epik_Tot_abs_Q>
0

> <r_epik_Metal_State_Penalty>
0.0142097

> <b_epik_Metal_Only>
0

> <s_epik_Chemistry_Notes>
This compound contains an acetal/aminal-like group ( X-CH(R)-Y where X, Y are N, S, or O) that may be acid/base labile, releasing an aldehyde.

> <s_lp_Force_Field>
OPLS_2005

> <r_lp_Energy>
39.0504

> <b_lp_Chiralities_Consistent>
1

> <s_lp_Variant>
AV-unprocessed.smi:160-16

> <Gold.Version>
5.8.1

> <Gold.Id.Protein>
6NUR|6NUR_protein|mol2

> <Gold.PLP.Fitness>
41.7895

> <Gold.PLP.PLP>
-25.4315

> <Gold.PLP.part.hbond>
-10.4191

> <Gold.PLP.part.metal>
0.0000

> <Gold.PLP.part.buried>
0.0270

> <Gold.PLP.part.nonpolar>
-16.8856

> <Gold.PLP.part.repulsive>
2.4056

> <Gold.PLP.ligand.clash>
0.0000

> <Gold.PLP.ligand.torsion>
0.7968

> <Gold.PLP.Chemscore.Hbond>
5.9760

> <Gold.PLP.Chemscore.CHOScore>
0.0000

> <Gold.PLP.Chemscore.Metal>
0.0000

> <Gold.Chemscore.Hbonds>
donor molecule, donor type, donor heavy atom, donor atom, acceptor molecule, acceptor atom, score
      L1  H     1    23       P1  8029  1.00
      L1  H    14    28       P1  7957  1.00
      L1  H    16    29       P1  7957  0.98
      P1  H  6934  6946       L1     3  1.00
      P1  H  8011  8017       L1    16  1.00
      P1  H 10752 10763       L1    12  1.00

> <Gold.PLP.Chemscore.Internal.Correction>
0.0236

> <Gold.Rescore>
     Score         DG    S(hbond)    S(metal)    S(lipo)     H(rot)  DE(clash)    DE(int)     intcor
     11.26     -14.64       4.87        0.00      28.09       4.06       2.30       1.09       ----

> <Gold.Chemscore.Fitness>
11.2626

> <Gold.Chemscore.DG>
-14.6439

> <Gold.Chemscore.ZeroCoef>
-5.4800

> <Gold.Chemscore.Hbond>
4.8714

> <Gold.Chemscore.Metal>
0.0000

> <Gold.Chemscore.Lipo>
28.0945

> <Gold.Chemscore.Internal_Hbond>
0.0000

> <Gold.Chemscore.DEClash>
2.2958

> <Gold.Chemscore.DEInternal>
1.0856

> <Gold.Chemscore.Rot>
4.0600

> <Gold.Chemscore.Internal.Correction>
   9.000000E+99

> <Gold.Chemscore.Hbonds>
donor molecule, donor type, donor heavy atom, donor atom, acceptor molecule, acceptor atom, score
      L1  H     1    23       P1  8029  0.24
      L1  H    14    28       P1  7957  0.99
      L1  H    16    29       P1  7957  0.88
      P1  H  6934  6946       L1     3  1.00
      P1  H  8011  8017       L1    16  0.24
      P1  H 10752 10763       L1    12  0.66

> <Gold.Chemscore.Hbond.Weighted>
-16.2705

> <Gold.Chemscore.Metal.Weighted>
-0.0000

> <Gold.Chemscore.Lipo.Weighted>
-3.2871

> <Gold.Chemscore.Internal_Hbond.Weighted>
0.0000

> <Gold.Chemscore.DEClash.Weighted>
2.2958

> <Gold.Chemscore.DEInternal.Weighted>
1.0856

> <Gold.Chemscore.Rot.Weighted>
10.3936

> <Gold.Chemscore.Internal.Correction.Weighted>
   9.000000E+99

> <Gold.Protein.RotatedTorsions>
[ 6907 6896 6895 6894 ] final   20.90 input  -60.11 | X-H torsion
[ 7974 7965 7964 7962 ] final  112.59 input  175.53 | X-H torsion
[ 8008 7997 7996 7995 ] final  -21.19 input   59.86 | X-H torsion
[ 10167 10162 10161 10158 ] final -117.17 input  -65.29 | X-H torsion
[ 10718 10713 10712 10709 ] final  177.83 input   66.30 | X-H torsion
[ 10763 10752 10751 10750 ] final   50.78 input  -60.55 | X-H torsion
[ 11005 11000 10999 10996 ] final  -32.31 input  -57.11 | X-H torsion

> <Gold.Protein.ActiveResidues>
 VAL166  LYS551  ARG553  GLY616  TRP617  ASP618  TYR619  PRO620  LYS621  CYS622 
 ASP623  PHE694  ASN695  SER759  ASP760  ASP761  ALA762  ILE779  LEU786  VAL792 
 PHE793  MET794  SER795  GLU796  ALA797  LYS798  CYS799  TRP800  GLU811  SER814 

> <Gold.Protein.RotatedAtoms>
  151.9036  135.0368  160.0508 H   0  0  0  0  0  0  0  0  0  0  0  0  # atno 6907 bound_to 6896
  152.2338  133.5075  159.5239 H   0  0  0  0  0  0  0  0  0  0  0  0  # atno 6908 bound_to 6896
  150.7033  134.1097  159.4038 H   0  0  0  0  0  0  0  0  0  0  0  0  # atno 6909 bound_to 6896
  145.2276  139.2834  143.4185 H   0  0  0  0  0  0  0  0  0  0  0  0  # atno 7974 bound_to 7965
  154.4721  140.2041  155.9968 H   0  0  0  0  0  0  0  0  0  0  0  0  # atno 8008 bound_to 7997
  156.1029  140.3241  155.7936 H   0  0  0  0  0  0  0  0  0  0  0  0  # atno 8009 bound_to 7997
  155.4767  140.0535  157.2963 H   0  0  0  0  0  0  0  0  0  0  0  0  # atno 8010 bound_to 7997
  140.0713  143.4874  152.1978 H   0  0  0  0  0  0  0  0  0  0  0  0  # atno 10167 bound_to 10162
  156.8995  130.9874  151.3038 H   0  0  0  0  0  0  0  0  0  0  0  0  # atno 10718 bound_to 10713
  152.9784  135.5868  154.4308 H   0  0  0  0  0  0  0  0  0  0  0  0  # atno 10763 bound_to 10752
  154.3921  135.2768  155.2150 H   0  0  0  0  0  0  0  0  0  0  0  0  # atno 10764 bound_to 10752
  154.4018  135.6102  153.5956 H   0  0  0  0  0  0  0  0  0  0  0  0  # atno 10765 bound_to 10752
  140.9541  133.7203  156.1266 H   0  0  0  0  0  0  0  0  0  0  0  0  # atno 11005 bound_to 11000
  146.3361  140.2601  142.8601 LP  0  0  0  0  0  0  0  0  0  0  0  0  # atno 17320 bound_to 7965
  144.9707  140.8365  143.5457 LP  0  0  0  0  0  0  0  0  0  0  0  0  # atno 17321 bound_to 7965
  139.5834  144.7520  151.3581 LP  0  0  0  0  0  0  0  0  0  0  0  0  # atno 17342 bound_to 10162
  140.7124  143.7355  150.7591 LP  0  0  0  0  0  0  0  0  0  0  0  0  # atno 17343 bound_to 10162
  157.6035  130.8530  149.8838 LP  0  0  0  0  0  0  0  0  0  0  0  0  # atno 17370 bound_to 10713
  156.0589  130.3703  150.1028 LP  0  0  0  0  0  0  0  0  0  0  0  0  # atno 17371 bound_to 10713
  140.7561  134.3991  157.5533 LP  0  0  0  0  0  0  0  0  0  0  0  0  # atno 17394 bound_to 11000
  139.8857  134.8931  156.2630 LP  0  0  0  0  0  0  0  0  0  0  0  0  # atno 17395 bound_to 11000

$$$$
