AV-unprocessed.smi:1914|AV-procd|sdf|7759|dock6
  -GOLD-   22720 9503D 1   1.00000     0.00000
 Structure written by MMmdl.
 44 45  0  0  0  0  0  0  0  0  2 V2000
  145.7348  132.1182  151.2722 C   0  0  0  0  0  0  0  0  0  0  0  0
  146.1286  133.5784  151.5361 C   0  0  1  0  0  0  0  0  0  0  0  0
  145.1767  134.5541  150.8241 C   0  0  0  0  0  0  0  0  0  0  0  0
  145.5734  136.0036  151.1299 C   0  0  0  0  0  0  0  0  0  0  0  0
  145.6352  136.2493  152.6457 C   0  0  0  0  0  0  0  0  0  0  0  0
  146.5669  135.2977  153.3045 N   0  3  1  0  0  0  0  0  0  0  0  0
  146.7501  135.5999  154.7467 C   0  0  0  0  0  0  0  0  0  0  0  0
  147.3722  134.4235  155.5161 C   0  0  0  0  0  0  0  0  0  0  0  0
  148.0170  134.8919  156.7348 N   0  0  0  0  0  0  0  0  0  0  0  0
  147.3759  135.5076  157.7385 C   0  0  0  0  0  0  0  0  0  0  0  0
  146.1621  135.7162  157.7317 O   0  0  0  0  0  0  0  0  0  0  0  0
  148.2412  135.9311  158.9342 C   0  0  0  0  0  0  0  0  0  0  0  0
  147.8831  135.2407  160.1847 N   0  0  0  0  0  0  0  0  0  0  0  0
  147.9294  133.8321  160.1784 C   0  0  0  0  0  0  0  0  0  0  0  0
  147.6226  133.1070  161.2656 C   0  0  0  0  0  0  0  0  0  0  0  0
  147.2362  133.8078  162.4674 C   0  0  0  0  0  0  0  0  0  0  0  0
  147.1866  135.1546  162.4837 C   0  0  0  0  0  0  0  0  0  0  0  0
  147.5200  135.9515  161.2972 C   0  0  0  0  0  0  0  0  0  0  0  0
  147.4758  137.1822  161.3023 O   0  0  0  0  0  0  0  0  0  0  0  0
  146.1768  133.8849  153.0466 C   0  0  0  0  0  0  0  0  0  0  0  0
  144.7363  131.9013  151.6533 H   0  0  0  0  0  0  0  0  0  0  0  0
  146.4308  131.4302  151.7528 H   0  0  0  0  0  0  0  0  0  0  0  0
  145.7383  131.8970  150.2044 H   0  0  0  0  0  0  0  0  0  0  0  0
  147.1306  133.7262  151.1301 H   0  0  0  0  0  0  0  0  0  0  0  0
  145.1952  134.3841  149.7471 H   0  0  0  0  0  0  0  0  0  0  0  0
  144.1501  134.3793  151.1500 H   0  0  0  0  0  0  0  0  0  0  0  0
  146.5444  136.2213  150.6829 H   0  0  0  0  0  0  0  0  0  0  0  0
  144.8608  136.6894  150.6702 H   0  0  0  0  0  0  0  0  0  0  0  0
  145.9634  137.2737  152.8259 H   0  0  0  0  0  0  0  0  0  0  0  0
  144.6411  136.1520  153.0853 H   0  0  0  0  0  0  0  0  0  0  0  0
  147.4159  136.4579  154.8526 H   0  0  0  0  0  0  0  0  0  0  0  0
  145.7962  135.8948  155.1872 H   0  0  0  0  0  0  0  0  0  0  0  0
  146.6153  133.6878  155.7888 H   0  0  0  0  0  0  0  0  0  0  0  0
  148.1064  133.9147  154.8891 H   0  0  0  0  0  0  0  0  0  0  0  0
  149.0137  134.7518  156.8181 H   0  0  0  0  0  0  0  0  0  0  0  0
  149.2853  135.7469  158.6777 H   0  0  0  0  0  0  0  0  0  0  0  0
  148.1680  137.0115  159.0740 H   0  0  0  0  0  0  0  0  0  0  0  0
  148.2219  133.3838  159.2399 H   0  0  0  0  0  0  0  0  0  0  0  0
  147.6610  132.0278  161.2415 H   0  0  0  0  0  0  0  0  0  0  0  0
  146.9847  133.2493  163.3570 H   0  0  0  0  0  0  0  0  0  0  0  0
  146.8944  135.6619  163.3916 H   0  0  0  0  0  0  0  0  0  0  0  0
  145.2049  133.6882  153.5024 H   0  0  0  0  0  0  0  0  0  0  0  0
  146.8870  133.2084  153.5209 H   0  0  0  0  0  0  0  0  0  0  0  0
  147.4661  135.4400  152.8667 H   0  0  0  0  0  0  0  0  0  0  0  0
  1  2  1  0  0  0  0
  1 21  1  0  0  0  0
  1 22  1  0  0  0  0
  1 23  1  0  0  0  0
  2 20  1  0  0  0  0
  2  3  1  0  0  0  0
  2 24  1  0  0  0  0
  3  4  1  0  0  0  0
  3 25  1  0  0  0  0
  3 26  1  0  0  0  0
  4  5  1  0  0  0  0
  4 27  1  0  0  0  0
  4 28  1  0  0  0  0
  5  6  1  0  0  0  0
  5 29  1  0  0  0  0
  5 30  1  0  0  0  0
  6  7  1  0  0  0  0
  6 20  1  0  0  0  0
  6 44  1  0  0  0  0
  7  8  1  0  0  0  0
  7 31  1  0  0  0  0
  7 32  1  0  0  0  0
  8  9  1  0  0  0  0
  8 33  1  0  0  0  0
  8 34  1  0  0  0  0
  9 10  1  0  0  0  0
  9 35  1  0  0  0  0
 10 11  2  0  0  0  0
 10 12  1  0  0  0  0
 12 13  1  0  0  0  0
 12 36  1  0  0  0  0
 12 37  1  0  0  0  0
 13 18  1  0  0  0  0
 13 14  1  0  0  0  0
 14 15  2  0  0  0  0
 14 38  1  0  0  0  0
 15 16  1  0  0  0  0
 15 39  1  0  0  0  0
 16 17  2  0  0  0  0
 16 40  1  0  0  0  0
 17 18  1  0  0  0  0
 17 41  1  0  0  0  0
 18 19  2  0  0  0  0
 20 42  1  0  0  0  0
 20 43  1  0  0  0  0
M  CHG  1   6   1
M  END
> <s_m_source_file>
AV-unprocessed.smi

> <i_m_source_file_index>
1914

> <i_lp_mmshare_version>
43012

> <i_f3d_flags>
0

> <s_epik_input>
W0NIM11bQ0BASF0xW0NIMl1bQ0gyXVtDSDJdTihbQ0gyXTEpW0NIMl1bQ0gyXVtOSF1DKD1PKVtDSDJdbjJbY0hdW2NIXVtjSF1bY0hdYzI9Tw==

> <s_epik_cmdline>
J2VwaWtfcHl0aG9uJywgJy1waCcsICc3LjAnLCAnLXRuJywgJzgnLCAnLW1hJywgJzIwMCcsICctbWV0YWxfYmluZGluZycsICctaW1hZScsICc8aW5maWxlLm1hZT4nLCAnLW9tYWUnLCAnPG91dGZpbGUubWFlPic=

> <r_lp_tautomer_probability>
1

> <r_epik_Ionization_Penalty>
0.00192477

> <r_epik_Ionization_Penalty_Charging>
0.00192469

> <r_epik_Ionization_Penalty_Neutral>
8.16761e-08

> <r_epik_State_Penalty>
0.00131115

> <r_epik_Charging_Adjusted_Penalty>
0.00323584

> <i_epik_Tot_Q>
1

> <i_epik_Tot_abs_Q>
1

> <r_epik_Metal_State_Penalty>
-0

> <b_epik_Metal_Only>
0

> <s_lp_Force_Field>
OPLS_2005

> <r_lp_Energy>
25.5857

> <b_lp_Chiralities_Consistent>
1

> <s_lp_Variant>
AV-unprocessed.smi:1914-4

> <Gold.Version>
5.8.1

> <Gold.Id.Protein>
6NUR|6NUR_protein|mol2

> <Gold.PLP.Fitness>
44.7094

> <Gold.PLP.PLP>
-33.7986

> <Gold.PLP.part.hbond>
-3.0000

> <Gold.PLP.part.metal>
0.0000

> <Gold.PLP.part.buried>
-4.5123

> <Gold.PLP.part.nonpolar>
-26.6958

> <Gold.PLP.part.repulsive>
0.0096

> <Gold.PLP.ligand.clash>
0.0000

> <Gold.PLP.ligand.torsion>
0.3236

> <Gold.PLP.Chemscore.Hbond>
3.8400

> <Gold.PLP.Chemscore.CHOScore>
0.0000

> <Gold.PLP.Chemscore.Metal>
0.0000

> <Gold.Chemscore.Hbonds>
donor molecule, donor type, donor heavy atom, donor atom, acceptor molecule, acceptor atom, score
      L1  H     6    44       P1  7948  2.00
      P1  H  6931  6943       L1    19  0.91
      P1  H  6934  6947       L1    19  0.93

> <Gold.PLP.Chemscore.Internal.Correction>
0.0380

> <Gold.Rescore>
     Score         DG    S(hbond)    S(metal)    S(lipo)     H(rot)  DE(clash)    DE(int)     intcor
     16.95     -18.11       2.79        0.00      69.04       1.86       0.04       1.12       ----

> <Gold.Chemscore.Fitness>
16.9508

> <Gold.Chemscore.DG>
-18.1086

> <Gold.Chemscore.ZeroCoef>
-5.4800

> <Gold.Chemscore.Hbond>
2.7870

> <Gold.Chemscore.Metal>
0.0000

> <Gold.Chemscore.Lipo>
69.0448

> <Gold.Chemscore.Internal_Hbond>
0.0000

> <Gold.Chemscore.DEClash>
0.0357

> <Gold.Chemscore.DEInternal>
1.1221

> <Gold.Chemscore.Rot>
1.8586

> <Gold.Chemscore.Internal.Correction>
   9.000000E+99

> <Gold.Chemscore.Hbonds>
donor molecule, donor type, donor heavy atom, donor atom, acceptor molecule, acceptor atom, score
      L1  H     6    44       P1  7948  0.99
      P1  H  6931  6943       L1    19  0.86
      P1  H  6934  6947       L1    19  0.91

> <Gold.Chemscore.Hbond.Weighted>
-9.3084

> <Gold.Chemscore.Metal.Weighted>
-0.0000

> <Gold.Chemscore.Lipo.Weighted>
-8.0782

> <Gold.Chemscore.Internal_Hbond.Weighted>
0.0000

> <Gold.Chemscore.DEClash.Weighted>
0.0357

> <Gold.Chemscore.DEInternal.Weighted>
1.1221

> <Gold.Chemscore.Rot.Weighted>
4.7581

> <Gold.Chemscore.Internal.Correction.Weighted>
   9.000000E+99

> <Gold.Protein.RotatedTorsions>
[ 6907 6896 6895 6894 ] final   22.83 input  -60.11 | X-H torsion
[ 7974 7965 7964 7962 ] final   93.27 input  175.53 | X-H torsion
[ 8008 7997 7996 7995 ] final  140.54 input   59.86 | X-H torsion
[ 10167 10162 10161 10158 ] final  105.21 input  -65.29 | X-H torsion
[ 10718 10713 10712 10709 ] final -137.79 input   66.30 | X-H torsion
[ 10763 10752 10751 10750 ] final  -23.45 input  -60.55 | X-H torsion
[ 11005 11000 10999 10996 ] final  -36.77 input  -57.11 | X-H torsion

> <Gold.Protein.ActiveResidues>
 VAL166  LYS551  ARG553  GLY616  TRP617  ASP618  TYR619  PRO620  LYS621  CYS622 
 ASP623  PHE694  ASN695  SER759  ASP760  ASP761  ALA762  ILE779  LEU786  VAL792 
 PHE793  MET794  SER795  GLU796  ALA797  LYS798  CYS799  TRP800  GLU811  SER814 

> <Gold.Protein.RotatedAtoms>
  151.9331  135.0248  160.0530 H   0  0  0  0  0  0  0  0  0  0  0  0  # atno 6907 bound_to 6896
  152.2102  133.4900  159.5114 H   0  0  0  0  0  0  0  0  0  0  0  0  # atno 6908 bound_to 6896
  150.6974  134.1394  159.4142 H   0  0  0  0  0  0  0  0  0  0  0  0  # atno 6909 bound_to 6896
  145.4812  139.2278  143.2881 H   0  0  0  0  0  0  0  0  0  0  0  0  # atno 7974 bound_to 7965
  156.2978  140.2339  156.4417 H   0  0  0  0  0  0  0  0  0  0  0  0  # atno 8008 bound_to 7997
  154.8180  140.0439  157.1411 H   0  0  0  0  0  0  0  0  0  0  0  0  # atno 8009 bound_to 7997
  154.9347  140.3021  155.5153 H   0  0  0  0  0  0  0  0  0  0  0  0  # atno 8010 bound_to 7997
  139.7111  144.7077  151.1025 H   0  0  0  0  0  0  0  0  0  0  0  0  # atno 10167 bound_to 10162
  156.2920  130.7380  151.1409 H   0  0  0  0  0  0  0  0  0  0  0  0  # atno 10718 bound_to 10713
  153.6681  135.6973  153.5156 H   0  0  0  0  0  0  0  0  0  0  0  0  # atno 10763 bound_to 10752
  153.2579  135.4254  155.0864 H   0  0  0  0  0  0  0  0  0  0  0  0  # atno 10764 bound_to 10752
  154.8434  135.3547  154.6225 H   0  0  0  0  0  0  0  0  0  0  0  0  # atno 10765 bound_to 10752
  140.9900  133.7010  156.1833 H   0  0  0  0  0  0  0  0  0  0  0  0  # atno 11005 bound_to 11000
  146.2340  140.5599  142.8963 LP  0  0  0  0  0  0  0  0  0  0  0  0  # atno 17320 bound_to 7965
  144.7888  140.5990  143.6556 LP  0  0  0  0  0  0  0  0  0  0  0  0  # atno 17321 bound_to 7965
  140.7733  143.5291  150.9444 LP  0  0  0  0  0  0  0  0  0  0  0  0  # atno 17342 bound_to 10162
  139.8976  143.6876  152.3136 LP  0  0  0  0  0  0  0  0  0  0  0  0  # atno 17343 bound_to 10162
  157.7345  131.0581  150.5520 LP  0  0  0  0  0  0  0  0  0  0  0  0  # atno 17370 bound_to 10713
  156.5638  130.4262  149.6051 LP  0  0  0  0  0  0  0  0  0  0  0  0  # atno 17371 bound_to 10713
  140.7055  134.4518  157.5584 LP  0  0  0  0  0  0  0  0  0  0  0  0  # atno 17394 bound_to 11000
  139.8988  134.8606  156.1987 LP  0  0  0  0  0  0  0  0  0  0  0  0  # atno 17395 bound_to 11000

$$$$
