AV-unprocessed.smi:1744|AV-procd|sdf|7028|dock3
  -GOLD-   22720 8243D 1   1.00000     0.00000
 Structure written by MMmdl.
 43 44  0  0  0  0  0  0  0  0  3 V2000
  154.0290  140.4970  160.0460 C   0  0  0  0  0  0  0  0  0  0  0  0
  153.3106  141.7584  160.5408 C   0  0  0  0  0  0  0  0  0  0  0  0
  152.6107  142.4350  159.4663 N   0  0  0  0  0  0  0  0  0  0  0  0
  151.5990  141.9460  158.6638 C   0  0  0  0  0  0  0  0  0  0  0  0
  151.2738  142.9617  157.8157 C   0  0  0  0  0  0  0  0  0  0  0  0
  150.2683  142.8944  156.8192 N   0  0  0  0  0  0  0  0  0  0  0  0
  149.6775  141.7889  156.3371 C   0  0  0  0  0  0  0  0  0  0  0  0
  149.9058  140.6411  156.7179 O   0  0  0  0  0  0  0  0  0  0  0  0
  148.7935  142.0874  155.3741 N   0  0  0  0  0  0  0  0  0  0  0  0
  147.9827  141.1143  154.6419 C   0  0  2  0  0  0  0  0  0  0  0  0
  147.3143  141.7413  153.4024 C   0  0  0  0  0  0  0  0  0  0  0  0
  146.1967  142.7265  153.7871 C   0  0  0  0  0  0  0  0  0  0  0  0
  145.1804  142.0733  154.6555 N   0  3  2  0  0  0  0  0  0  0  0  0
  144.0146  142.9443  154.9473 C   0  0  0  0  0  0  0  0  0  0  0  0
  142.9161  142.1431  155.6543 C   0  0  0  0  0  0  0  0  0  0  0  0
  142.4490  141.1320  154.8976 N   0  5  0  0  0  0  0  0  0  0  0  0
  142.5749  142.4542  156.7936 O   0  0  0  0  0  0  0  0  0  0  0  0
  145.7909  141.5179  155.8900 C   0  0  0  0  0  0  0  0  0  0  0  0
  146.9062  140.5088  155.5591 C   0  0  0  0  0  0  0  0  0  0  0  0
  152.1330  144.0441  158.1583 C   0  0  0  0  0  0  0  0  0  0  0  0
  152.9378  143.7140  159.1571 N   0  0  0  0  0  0  0  0  0  0  0  0
  154.5515  140.0021  160.8648 H   0  0  0  0  0  0  0  0  0  0  0  0
  154.7650  140.7383  159.2785 H   0  0  0  0  0  0  0  0  0  0  0  0
  153.3240  139.7815  159.6215 H   0  0  0  0  0  0  0  0  0  0  0  0
  152.5931  141.5048  161.3222 H   0  0  0  0  0  0  0  0  0  0  0  0
  154.0277  142.4516  160.9817 H   0  0  0  0  0  0  0  0  0  0  0  0
  151.2083  140.9444  158.7671 H   0  0  0  0  0  0  0  0  0  0  0  0
  149.9771  143.7778  156.4272 H   0  0  0  0  0  0  0  0  0  0  0  0
  148.6690  143.0594  155.1317 H   0  0  0  0  0  0  0  0  0  0  0  0
  148.6412  140.3070  154.3157 H   0  0  0  0  0  0  0  0  0  0  0  0
  148.0540  142.2408  152.7760 H   0  0  0  0  0  0  0  0  0  0  0  0
  146.8887  140.9475  152.7870 H   0  0  0  0  0  0  0  0  0  0  0  0
  146.6162  143.5924  154.3014 H   0  0  0  0  0  0  0  0  0  0  0  0
  145.7297  143.1016  152.8760 H   0  0  0  0  0  0  0  0  0  0  0  0
  144.3083  143.7429  155.6301 H   0  0  0  0  0  0  0  0  0  0  0  0
  143.6638  143.4305  154.0344 H   0  0  0  0  0  0  0  0  0  0  0  0
  142.8928  140.9505  153.9893 H   0  0  0  0  0  0  0  0  0  0  0  0
  146.1821  142.3329  156.5007 H   0  0  0  0  0  0  0  0  0  0  0  0
  145.0257  141.0179  156.4851 H   0  0  0  0  0  0  0  0  0  0  0  0
  146.4640  139.6423  155.0652 H   0  0  0  0  0  0  0  0  0  0  0  0
  147.3587  140.1339  156.4780 H   0  0  0  0  0  0  0  0  0  0  0  0
  152.2046  145.0355  157.7370 H   0  0  0  0  0  0  0  0  0  0  0  0
  144.8125  141.2868  154.1389 H   0  0  0  0  0  0  0  0  0  0  0  0
  1  2  1  0  0  0  0
  1 22  1  0  0  0  0
  1 23  1  0  0  0  0
  1 24  1  0  0  0  0
  2  3  1  0  0  0  0
  2 25  1  0  0  0  0
  2 26  1  0  0  0  0
  3 21  1  0  0  0  0
  3  4  1  0  0  0  0
  4  5  2  0  0  0  0
  4 27  1  0  0  0  0
  5  6  1  0  0  0  0
  5 20  1  0  0  0  0
  6  7  1  0  0  0  0
  6 28  1  0  0  0  0
  7  8  2  0  0  0  0
  7  9  1  0  0  0  0
  9 10  1  0  0  0  0
  9 29  1  0  0  0  0
 10 19  1  0  0  0  0
 10 11  1  0  0  0  0
 10 30  1  0  0  0  0
 11 12  1  0  0  0  0
 11 31  1  0  0  0  0
 11 32  1  0  0  0  0
 12 13  1  0  0  0  0
 12 33  1  0  0  0  0
 12 34  1  0  0  0  0
 13 14  1  0  0  0  0
 13 18  1  0  0  0  0
 13 43  1  0  0  0  0
 14 15  1  0  0  0  0
 14 35  1  0  0  0  0
 14 36  1  0  0  0  0
 15 16  1  0  0  0  0
 15 17  2  0  0  0  0
 16 37  1  0  0  0  0
 18 19  1  0  0  0  0
 18 38  1  0  0  0  0
 18 39  1  0  0  0  0
 19 40  1  0  0  0  0
 19 41  1  0  0  0  0
 20 21  2  0  0  0  0
 20 42  1  0  0  0  0
M  CHG  1  13   1
M  CHG  1  16  -1
M  END
> <s_m_source_file>
AV-unprocessed.smi

> <i_m_source_file_index>
1744

> <i_lp_mmshare_version>
43012

> <i_f3d_flags>
0

> <s_epik_input>
W0NIM11bQ0gyXW4xW2NIXWMoW2NIXW4xKVtOSF1DKD1PKVtOSF1bQ0hdMltDSDJdW0NIMl1OKFtDSDJdW0NIMl0yKVtDSDJdQyg9TylbTkgyXQ==

> <s_epik_cmdline>
J2VwaWtfcHl0aG9uJywgJy1waCcsICc3LjAnLCAnLXRuJywgJzgnLCAnLW1hJywgJzIwMCcsICctbWV0YWxfYmluZGluZycsICctaW1hZScsICc8aW5maWxlLm1hZT4nLCAnLW9tYWUnLCAnPG91dGZpbGUubWFlPic=

> <r_lp_tautomer_probability>
1

> <r_epik_Ionization_Penalty>
5.72895

> <r_epik_Ionization_Penalty_Charging>
5.7288

> <r_epik_Ionization_Penalty_Neutral>
0.000148676

> <r_epik_State_Penalty>
6.54882

> <r_epik_Charging_Adjusted_Penalty>
12.2776

> <i_epik_Tot_Q>
0

> <i_epik_Tot_abs_Q>
2

> <r_epik_Metal_State_Penalty>
2.51309

> <b_epik_Metal_Only>
1

> <s_lp_Force_Field>
OPLS_2005

> <r_lp_Energy>
11.9421

> <b_lp_Chiralities_Consistent>
1

> <s_lp_Variant>
AV-unprocessed.smi:1744-5

> <Gold.Version>
5.8.1

> <Gold.Id.Protein>
6NUR|6NUR_protein|mol2

> <Gold.PLP.Fitness>
49.1710

> <Gold.PLP.PLP>
-36.6407

> <Gold.PLP.part.hbond>
-4.5450

> <Gold.PLP.part.metal>
0.0000

> <Gold.PLP.part.buried>
-5.3464

> <Gold.PLP.part.nonpolar>
-27.7443

> <Gold.PLP.part.repulsive>
0.2398

> <Gold.PLP.ligand.clash>
0.0000

> <Gold.PLP.ligand.torsion>
0.2010

> <Gold.PLP.Chemscore.Hbond>
4.2981

> <Gold.PLP.Chemscore.CHOScore>
0.0000

> <Gold.PLP.Chemscore.Metal>
0.0000

> <Gold.Chemscore.Hbonds>
donor molecule, donor type, donor heavy atom, donor atom, acceptor molecule, acceptor atom, score
      L1  H     6    28       P1  8028  1.00
      L1  H     9    29       P1  8028  0.93
      L1  H    13    43       P1 10175  1.42
      L1  H    16    37       P1 10175  1.00

> <Gold.PLP.Chemscore.Internal.Correction>
0.0381

> <Gold.Rescore>
     Score         DG    S(hbond)    S(metal)    S(lipo)     H(rot)  DE(clash)    DE(int)     intcor
     18.36     -19.88       3.14        0.00      81.32       2.18       0.06       1.46       ----

> <Gold.Chemscore.Fitness>
18.3627

> <Gold.Chemscore.DG>
-19.8783

> <Gold.Chemscore.ZeroCoef>
-5.4800

> <Gold.Chemscore.Hbond>
3.1356

> <Gold.Chemscore.Metal>
0.0000

> <Gold.Chemscore.Lipo>
81.3215

> <Gold.Chemscore.Internal_Hbond>
0.0000

> <Gold.Chemscore.DEClash>
0.0605

> <Gold.Chemscore.DEInternal>
1.4551

> <Gold.Chemscore.Rot>
2.1833

> <Gold.Chemscore.Internal.Correction>
   9.000000E+99

> <Gold.Chemscore.Hbonds>
donor molecule, donor type, donor heavy atom, donor atom, acceptor molecule, acceptor atom, score
      L1  H     6    28       P1  8028  0.96
      L1  H     9    29       P1  8028  0.91
      L1  H    13    43       P1 10175  0.40
      L1  H    16    37       P1 10175  0.35

> <Gold.Chemscore.Hbond.Weighted>
-10.4728

> <Gold.Chemscore.Metal.Weighted>
-0.0000

> <Gold.Chemscore.Lipo.Weighted>
-9.5146

> <Gold.Chemscore.Internal_Hbond.Weighted>
0.0000

> <Gold.Chemscore.DEClash.Weighted>
0.0605

> <Gold.Chemscore.DEInternal.Weighted>
1.4551

> <Gold.Chemscore.Rot.Weighted>
5.5892

> <Gold.Chemscore.Internal.Correction.Weighted>
   9.000000E+99

> <Gold.Protein.RotatedTorsions>
[ 6907 6896 6895 6894 ] final -115.33 input  -60.11 | X-H torsion
[ 7974 7965 7964 7962 ] final   -6.99 input  175.53 | X-H torsion
[ 8008 7997 7996 7995 ] final -102.04 input   59.86 | X-H torsion
[ 10167 10162 10161 10158 ] final -129.73 input  -65.29 | X-H torsion
[ 10718 10713 10712 10709 ] final -137.28 input   66.30 | X-H torsion
[ 10763 10752 10751 10750 ] final  142.89 input  -60.55 | X-H torsion
[ 11005 11000 10999 10996 ] final  -85.23 input  -57.11 | X-H torsion

> <Gold.Protein.ActiveResidues>
 VAL166  LYS551  ARG553  GLY616  TRP617  ASP618  TYR619  PRO620  LYS621  CYS622 
 ASP623  PHE694  ASN695  SER759  ASP760  ASP761  ALA762  ILE779  LEU786  VAL792 
 PHE793  MET794  SER795  GLU796  ALA797  LYS798  CYS799  TRP800  GLU811  SER814 

> <Gold.Protein.RotatedAtoms>
  150.7970  133.8673  159.3248 H   0  0  0  0  0  0  0  0  0  0  0  0  # atno 6907 bound_to 6896
  151.6496  135.1001  160.0167 H   0  0  0  0  0  0  0  0  0  0  0  0  # atno 6908 bound_to 6896
  152.4053  133.6840  159.6386 H   0  0  0  0  0  0  0  0  0  0  0  0  # atno 6909 bound_to 6896
  146.2318  140.2253  142.8338 H   0  0  0  0  0  0  0  0  0  0  0  0  # atno 7974 bound_to 7965
  154.8511  140.0431  157.1604 H   0  0  0  0  0  0  0  0  0  0  0  0  # atno 8008 bound_to 7997
  154.8942  140.2991  155.5333 H   0  0  0  0  0  0  0  0  0  0  0  0  # atno 8009 bound_to 7997
  156.2996  140.2388  156.3962 H   0  0  0  0  0  0  0  0  0  0  0  0  # atno 8010 bound_to 7997
  139.9367  143.6210  152.2515 H   0  0  0  0  0  0  0  0  0  0  0  0  # atno 10167 bound_to 10162
  156.2864  130.7350  151.1362 H   0  0  0  0  0  0  0  0  0  0  0  0  # atno 10718 bound_to 10713
  153.9633  135.2958  155.3432 H   0  0  0  0  0  0  0  0  0  0  0  0  # atno 10763 bound_to 10752
  154.7363  135.5045  153.9049 H   0  0  0  0  0  0  0  0  0  0  0  0  # atno 10764 bound_to 10752
  153.0936  135.6714  153.9917 H   0  0  0  0  0  0  0  0  0  0  0  0  # atno 10765 bound_to 10752
  141.1643  133.7388  156.8984 H   0  0  0  0  0  0  0  0  0  0  0  0  # atno 11005 bound_to 11000
  144.9600  140.8265  143.5519 LP  0  0  0  0  0  0  0  0  0  0  0  0  # atno 17320 bound_to 7965
  145.2223  139.2153  143.5086 LP  0  0  0  0  0  0  0  0  0  0  0  0  # atno 17321 bound_to 7965
  139.6738  144.7659  151.1734 LP  0  0  0  0  0  0  0  0  0  0  0  0  # atno 17342 bound_to 10162
  140.7622  143.5826  150.8879 LP  0  0  0  0  0  0  0  0  0  0  0  0  # atno 17343 bound_to 10162
  157.7330  131.0595  150.5601 LP  0  0  0  0  0  0  0  0  0  0  0  0  # atno 17370 bound_to 10713
  156.5713  130.4280  149.6018 LP  0  0  0  0  0  0  0  0  0  0  0  0  # atno 17371 bound_to 10713
  140.1599  134.9172  157.2702 LP  0  0  0  0  0  0  0  0  0  0  0  0  # atno 17394 bound_to 11000
  140.2623  134.3557  155.7402 LP  0  0  0  0  0  0  0  0  0  0  0  0  # atno 17395 bound_to 11000

$$$$
