AV-unprocessed.smi:801|AV-procd|sdf|3790|dock9
  -GOLD-   22720 1223D 1   1.00000     0.00000
 Structure written by MMmdl.
 43 44  0  0  0  0  0  0  0  0  2 V2000
  151.8525  139.6295  155.9587 C   0  0  0  0  0  0  0  0  0  0  0  0
  151.5501  139.1478  154.6612 O   0  0  0  0  0  0  0  0  0  0  0  0
  151.5266  137.7318  154.6010 C   0  0  0  0  0  0  0  0  0  0  0  0
  150.3027  137.2209  155.3755 C   0  0  0  0  0  0  0  0  0  0  0  0
  150.3008  135.7449  155.4653 N   0  0  0  0  0  0  0  0  0  0  0  0
  149.2357  135.0153  154.8721 C   0  0  0  0  0  0  0  0  0  0  0  0
  148.1839  135.7273  154.2706 N   0  0  0  0  0  0  0  0  0  0  0  0
  146.8902  135.6603  154.6335 C   0  0  0  0  0  0  0  0  0  0  0  0
  145.9128  136.4387  153.7600 C   0  0  0  0  0  0  0  0  0  0  0  0
  146.4740  135.0144  155.5953 O   0  0  0  0  0  0  0  0  0  0  0  0
  149.2053  133.6528  154.9348 C   0  0  0  0  0  0  0  0  0  0  0  0
  148.1386  132.9220  154.4046 N   0  0  0  0  0  0  0  0  0  0  0  0
  147.8751  131.4920  154.3461 C   0  0  0  0  0  0  0  0  0  0  0  0
  146.9092  131.0995  153.2413 C   0  0  0  0  0  0  0  0  0  0  0  0
  146.5249  129.7514  153.0681 C   0  0  0  0  0  0  0  0  0  0  0  0
  145.6329  129.3942  152.0381 C   0  0  0  0  0  0  0  0  0  0  0  0
  145.1233  130.3819  151.1734 C   0  0  0  0  0  0  0  0  0  0  0  0
  145.5085  131.7263  151.3375 C   0  0  0  0  0  0  0  0  0  0  0  0
  146.4008  132.0838  152.3671 C   0  0  0  0  0  0  0  0  0  0  0  0
  150.3224  132.9696  155.6122 C   0  0  0  0  0  0  0  0  0  0  0  0
  150.3829  131.7421  155.6683 O   0  0  0  0  0  0  0  0  0  0  0  0
  151.2898  133.7383  156.1788 N   0  5  0  0  0  0  0  0  0  0  0  0
  151.2997  135.0989  156.1352 C   0  0  0  0  0  0  0  0  0  0  0  0
  152.1834  135.7579  156.6851 O   0  0  0  0  0  0  0  0  0  0  0  0
  151.8605  140.7194  155.9523 H   0  0  0  0  0  0  0  0  0  0  0  0
  152.8347  139.2878  156.2876 H   0  0  0  0  0  0  0  0  0  0  0  0
  151.1065  139.3025  156.6845 H   0  0  0  0  0  0  0  0  0  0  0  0
  151.4799  137.4019  153.5619 H   0  0  0  0  0  0  0  0  0  0  0  0
  152.4434  137.3283  155.0335 H   0  0  0  0  0  0  0  0  0  0  0  0
  150.2720  137.6762  156.3652 H   0  0  0  0  0  0  0  0  0  0  0  0
  149.3927  137.5902  154.8997 H   0  0  0  0  0  0  0  0  0  0  0  0
  148.4038  136.1987  153.4054 H   0  0  0  0  0  0  0  0  0  0  0  0
  145.8804  136.0134  152.7566 H   0  0  0  0  0  0  0  0  0  0  0  0
  146.2166  137.4832  153.6843 H   0  0  0  0  0  0  0  0  0  0  0  0
  144.9065  136.4056  154.1790 H   0  0  0  0  0  0  0  0  0  0  0  0
  147.4179  133.4759  153.9659 H   0  0  0  0  0  0  0  0  0  0  0  0
  148.8198  130.9656  154.2040 H   0  0  0  0  0  0  0  0  0  0  0  0
  147.4550  131.1620  155.2967 H   0  0  0  0  0  0  0  0  0  0  0  0
  146.9137  128.9853  153.7232 H   0  0  0  0  0  0  0  0  0  0  0  0
  145.3409  128.3622  151.9106 H   0  0  0  0  0  0  0  0  0  0  0  0
  144.4395  130.1084  150.3834 H   0  0  0  0  0  0  0  0  0  0  0  0
  145.1197  132.4838  150.6731 H   0  0  0  0  0  0  0  0  0  0  0  0
  146.6918  133.1176  152.4840 H   0  0  0  0  0  0  0  0  0  0  0  0
  1  2  1  0  0  0  0
  1 25  1  0  0  0  0
  1 26  1  0  0  0  0
  1 27  1  0  0  0  0
  2  3  1  0  0  0  0
  3  4  1  0  0  0  0
  3 28  1  0  0  0  0
  3 29  1  0  0  0  0
  4  5  1  0  0  0  0
  4 30  1  0  0  0  0
  4 31  1  0  0  0  0
  5 23  1  0  0  0  0
  5  6  1  0  0  0  0
  6  7  1  0  0  0  0
  6 11  2  0  0  0  0
  7  8  1  0  0  0  0
  7 32  1  0  0  0  0
  8  9  1  0  0  0  0
  8 10  2  0  0  0  0
  9 33  1  0  0  0  0
  9 34  1  0  0  0  0
  9 35  1  0  0  0  0
 11 12  1  0  0  0  0
 11 20  1  0  0  0  0
 12 13  1  0  0  0  0
 12 36  1  0  0  0  0
 13 14  1  0  0  0  0
 13 37  1  0  0  0  0
 13 38  1  0  0  0  0
 14 19  1  0  0  0  0
 14 15  2  0  0  0  0
 15 16  1  0  0  0  0
 15 39  1  0  0  0  0
 16 17  2  0  0  0  0
 16 40  1  0  0  0  0
 17 18  1  0  0  0  0
 17 41  1  0  0  0  0
 18 19  2  0  0  0  0
 18 42  1  0  0  0  0
 19 43  1  0  0  0  0
 20 21  2  0  0  0  0
 20 22  1  0  0  0  0
 22 23  1  0  0  0  0
 23 24  2  0  0  0  0
M  CHG  1  22  -1
M  END
> <s_m_source_file>
AV-unprocessed.smi

> <i_m_source_file_index>
801

> <i_lp_mmshare_version>
43012

> <i_f3d_flags>
0

> <s_epik_input>
W0NIM11PW0NIMl1bQ0gyXW4xYyhbTkhdQyg9TylbQ0gzXSljKGMoPU8pW25IXWMxPU8pW05IXVtDSDJdYzJbY0hdW2NIXVtjSF1bY0hdW2NIXTI=

> <s_epik_cmdline>
J2VwaWtfcHl0aG9uJywgJy1waCcsICc3LjAnLCAnLXRuJywgJzgnLCAnLW1hJywgJzIwMCcsICctbWV0YWxfYmluZGluZycsICctaW1hZScsICc8aW5maWxlLm1hZT4nLCAnLW9tYWUnLCAnPG91dGZpbGUubWFlPic=

> <r_lp_tautomer_probability>
0.999901

> <r_epik_Ionization_Penalty>
3.93073

> <r_epik_Ionization_Penalty_Charging>
1.379e-07

> <r_epik_Ionization_Penalty_Neutral>
3.93073

> <r_epik_State_Penalty>
3.9304

> <r_epik_Charging_Adjusted_Penalty>
3.9304

> <i_epik_Tot_Q>
-1

> <i_epik_Tot_abs_Q>
1

> <r_epik_Metal_State_Penalty>
0.600886

> <b_epik_Metal_Only>
1

> <s_lp_Force_Field>
OPLS_2005

> <r_lp_Energy>
31.5589

> <b_lp_Chiralities_Consistent>
1

> <s_lp_Variant>
AV-unprocessed.smi:801-2

> <Gold.Version>
5.8.1

> <Gold.Id.Protein>
6NUR|6NUR_protein|mol2

> <Gold.PLP.Fitness>
41.0734

> <Gold.PLP.PLP>
-33.3686

> <Gold.PLP.part.hbond>
-2.9902

> <Gold.PLP.part.metal>
0.0000

> <Gold.PLP.part.buried>
-4.3261

> <Gold.PLP.part.nonpolar>
-26.2667

> <Gold.PLP.part.repulsive>
0.0977

> <Gold.PLP.ligand.clash>
0.0000

> <Gold.PLP.ligand.torsion>
0.7531

> <Gold.PLP.Chemscore.Hbond>
2.6944

> <Gold.PLP.Chemscore.CHOScore>
0.0000

> <Gold.PLP.Chemscore.Metal>
0.0000

> <Gold.Chemscore.Hbonds>
donor molecule, donor type, donor heavy atom, donor atom, acceptor molecule, acceptor atom, score
      L1  H     7    32       P1  7948  1.00
      P1  H  7989  7998       L1     2  0.91
      P1  H 10752 10765       L1    24  0.78

> <Gold.PLP.Chemscore.Internal.Correction>
1.1278

> <Gold.Rescore>
     Score         DG    S(hbond)    S(metal)    S(lipo)     H(rot)  DE(clash)    DE(int)     intcor
     12.18     -15.70       1.94        0.00      75.36       1.98       0.11       3.41       ----

> <Gold.Chemscore.Fitness>
12.1757

> <Gold.Chemscore.DG>
-15.6960

> <Gold.Chemscore.ZeroCoef>
-5.4800

> <Gold.Chemscore.Hbond>
1.9382

> <Gold.Chemscore.Metal>
0.0000

> <Gold.Chemscore.Lipo>
75.3619

> <Gold.Chemscore.Internal_Hbond>
0.0000

> <Gold.Chemscore.DEClash>
0.1132

> <Gold.Chemscore.DEInternal>
3.4072

> <Gold.Chemscore.Rot>
1.9824

> <Gold.Chemscore.Internal.Correction>
   9.000000E+99

> <Gold.Chemscore.Hbonds>
donor molecule, donor type, donor heavy atom, donor atom, acceptor molecule, acceptor atom, score
      L1  H     7    32       P1  7948  0.96
      P1  H  7989  7998       L1     2  0.34
      P1  H 10752 10765       L1    24  0.11

> <Gold.Chemscore.Hbond.Weighted>
-6.4735

> <Gold.Chemscore.Metal.Weighted>
-0.0000

> <Gold.Chemscore.Lipo.Weighted>
-8.8173

> <Gold.Chemscore.Internal_Hbond.Weighted>
0.0000

> <Gold.Chemscore.DEClash.Weighted>
0.1132

> <Gold.Chemscore.DEInternal.Weighted>
3.4072

> <Gold.Chemscore.Rot.Weighted>
5.0749

> <Gold.Chemscore.Internal.Correction.Weighted>
   9.000000E+99

> <Gold.Protein.RotatedTorsions>
[ 6907 6896 6895 6894 ] final -104.17 input  -60.11 | X-H torsion
[ 7974 7965 7964 7962 ] final  125.60 input  175.53 | X-H torsion
[ 8008 7997 7996 7995 ] final  127.39 input   59.86 | X-H torsion
[ 10167 10162 10161 10158 ] final   -5.40 input  -65.29 | X-H torsion
[ 10718 10713 10712 10709 ] final  -31.54 input   66.30 | X-H torsion
[ 10763 10752 10751 10750 ] final -116.90 input  -60.55 | X-H torsion
[ 11005 11000 10999 10996 ] final -102.46 input  -57.11 | X-H torsion

> <Gold.Protein.ActiveResidues>
 VAL166  LYS551  ARG553  GLY616  TRP617  ASP618  TYR619  PRO620  LYS621  CYS622 
 ASP623  PHE694  ASN695  SER759  ASP760  ASP761  ALA762  ILE779  LEU786  VAL792 
 PHE793  MET794  SER795  GLU796  ALA797  LYS798  CYS799  TRP800  GLU811  SER814 

> <Gold.Protein.RotatedAtoms>
  150.7274  134.0318  159.3735 H   0  0  0  0  0  0  0  0  0  0  0  0  # atno 6907 bound_to 6896
  151.8287  135.0626  160.0443 H   0  0  0  0  0  0  0  0  0  0  0  0  # atno 6908 bound_to 6896
  152.2949  133.5562  159.5618 H   0  0  0  0  0  0  0  0  0  0  0  0  # atno 6909 bound_to 6896
  145.0712  139.3729  143.4957 H   0  0  0  0  0  0  0  0  0  0  0  0  # atno 7974 bound_to 7965
  156.2889  140.2670  156.2265 H   0  0  0  0  0  0  0  0  0  0  0  0  # atno 8008 bound_to 7997
  155.0115  140.0387  157.2419 H   0  0  0  0  0  0  0  0  0  0  0  0  # atno 8009 bound_to 7997
  154.7513  140.2743  155.6295 H   0  0  0  0  0  0  0  0  0  0  0  0  # atno 8010 bound_to 7997
  140.6962  143.6312  150.8521 H   0  0  0  0  0  0  0  0  0  0  0  0  # atno 10167 bound_to 10162
  156.3860  130.4364  149.7432 H   0  0  0  0  0  0  0  0  0  0  0  0  # atno 10718 bound_to 10713
  154.8536  135.4329  154.1895 H   0  0  0  0  0  0  0  0  0  0  0  0  # atno 10763 bound_to 10752
  153.2967  135.6965  153.7248 H   0  0  0  0  0  0  0  0  0  0  0  0  # atno 10764 bound_to 10752
  153.6394  135.3470  155.3041 H   0  0  0  0  0  0  0  0  0  0  0  0  # atno 10765 bound_to 10752
  141.1188  133.8560  157.1362 H   0  0  0  0  0  0  0  0  0  0  0  0  # atno 11005 bound_to 11000
  146.3528  140.0457  142.8639 LP  0  0  0  0  0  0  0  0  0  0  0  0  # atno 17320 bound_to 7965
  145.1290  140.9507  143.4555 LP  0  0  0  0  0  0  0  0  0  0  0  0  # atno 17321 bound_to 7965
  140.0031  143.5723  152.2868 LP  0  0  0  0  0  0  0  0  0  0  0  0  # atno 17342 bound_to 10162
  139.6420  144.7655  151.2320 LP  0  0  0  0  0  0  0  0  0  0  0  0  # atno 17343 bound_to 10162
  156.4504  130.7904  151.2925 LP  0  0  0  0  0  0  0  0  0  0  0  0  # atno 17370 bound_to 10713
  157.7496  131.0097  150.3278 LP  0  0  0  0  0  0  0  0  0  0  0  0  # atno 17371 bound_to 10713
  140.0130  134.9980  157.0434 LP  0  0  0  0  0  0  0  0  0  0  0  0  # atno 17394 bound_to 11000
  140.4568  134.1525  155.7187 LP  0  0  0  0  0  0  0  0  0  0  0  0  # atno 17395 bound_to 11000

$$$$
