AV-unprocessed.smi:1085|AV-procd|sdf|4722|dock1
  -GOLD-   22720 3253D 1   1.00000     0.00000
 Structure written by MMmdl.
 33 34  0  0  0  0  0  0  0  0  1 V2000
  156.0208  139.7986  159.0573 O   0  0  0  0  0  0  0  0  0  0  0  0
  154.9172  139.2730  159.1987 C   0  0  0  0  0  0  0  0  0  0  0  0
  154.6774  137.8516  158.6864 C   0  0  0  0  0  0  0  0  0  0  0  0
  154.3498  137.8473  157.2720 N   0  0  0  0  0  0  0  0  0  0  0  0
  153.3068  137.3366  156.6143 C   0  0  0  0  0  0  0  0  0  0  0  0
  153.4028  137.5443  155.3098 N   0  0  0  0  0  0  0  0  0  0  0  0
  154.5979  138.2334  155.1873 N   0  0  0  0  0  0  0  0  0  0  0  0
  155.1643  138.4166  156.3484 N   0  0  0  0  0  0  0  0  0  0  0  0
  153.8787  139.8784  159.7964 N   0  0  0  0  0  0  0  0  0  0  0  0
  153.8813  141.2344  160.3349 C   0  0  2  0  0  0  0  0  0  0  0  0
  153.5288  141.2199  161.8346 C   0  0  0  0  0  0  0  0  0  0  0  0
  153.4440  142.6456  162.3995 C   0  0  0  0  0  0  0  0  0  0  0  0
  152.4498  143.5054  161.6030 C   0  0  0  0  0  0  0  0  0  0  0  0
  152.8010  143.5382  160.1005 C   0  0  2  0  0  0  0  0  0  0  0  0
  151.8192  144.4133  159.2942 C   0  0  0  0  0  0  0  0  0  0  0  0
  150.5957  143.8830  159.3005 F   0  0  0  0  0  0  0  0  0  0  0  0
  151.7616  145.6373  159.8190 F   0  0  0  0  0  0  0  0  0  0  0  0
  152.2353  144.5216  158.0324 F   0  0  0  0  0  0  0  0  0  0  0  0
  152.8829  142.1004  159.5448 C   0  0  0  0  0  0  0  0  0  0  0  0
  155.5687  137.2418  158.8389 H   0  0  0  0  0  0  0  0  0  0  0  0
  153.8673  137.3875  159.2509 H   0  0  0  0  0  0  0  0  0  0  0  0
  152.4875  136.8145  157.0861 H   0  0  0  0  0  0  0  0  0  0  0  0
  153.0125  139.3639  159.8696 H   0  0  0  0  0  0  0  0  0  0  0  0
  154.8752  141.6692  160.2107 H   0  0  0  0  0  0  0  0  0  0  0  0
  152.5745  140.7131  161.9862 H   0  0  0  0  0  0  0  0  0  0  0  0
  154.2736  140.6497  162.3911 H   0  0  0  0  0  0  0  0  0  0  0  0
  153.1480  142.6118  163.4484 H   0  0  0  0  0  0  0  0  0  0  0  0
  154.4313  143.1083  162.3721 H   0  0  0  0  0  0  0  0  0  0  0  0
  151.4413  143.1129  161.7388 H   0  0  0  0  0  0  0  0  0  0  0  0
  152.4432  144.5172  162.0093 H   0  0  0  0  0  0  0  0  0  0  0  0
  153.7909  143.9870  160.0023 H   0  0  0  0  0  0  0  0  0  0  0  0
  153.1775  142.1257  158.4950 H   0  0  0  0  0  0  0  0  0  0  0  0
  151.8938  141.6408  159.5747 H   0  0  0  0  0  0  0  0  0  0  0  0
  1  2  2  0  0  0  0
  2  3  1  0  0  0  0
  2  9  1  0  0  0  0
  3  4  1  0  0  0  0
  3 20  1  0  0  0  0
  3 21  1  0  0  0  0
  4  8  1  0  0  0  0
  4  5  1  0  0  0  0
  5  6  2  0  0  0  0
  5 22  1  0  0  0  0
  6  7  1  0  0  0  0
  7  8  2  0  0  0  0
  9 10  1  0  0  0  0
  9 23  1  0  0  0  0
 10 19  1  0  0  0  0
 10 11  1  0  0  0  0
 10 24  1  0  0  0  0
 11 12  1  0  0  0  0
 11 25  1  0  0  0  0
 11 26  1  0  0  0  0
 12 13  1  0  0  0  0
 12 27  1  0  0  0  0
 12 28  1  0  0  0  0
 13 14  1  0  0  0  0
 13 29  1  0  0  0  0
 13 30  1  0  0  0  0
 14 15  1  0  0  0  0
 14 19  1  0  0  0  0
 14 31  1  0  0  0  0
 15 16  1  0  0  0  0
 15 17  1  0  0  0  0
 15 18  1  0  0  0  0
 19 32  1  0  0  0  0
 19 33  1  0  0  0  0
M  END
> <s_m_source_file>
AV-unprocessed.smi

> <i_m_source_file_index>
1085

> <i_lp_mmshare_version>
43012

> <i_f3d_flags>
0

> <s_epik_input>
bjFubltjSF1uMVtDSDJdQyg9TylbTkhdW0NAQEhdMltDSDJdW0NIMl1bQ0gyXVtDQEBIXShDKEYpKEYpRilbQ0gyXTI=

> <s_epik_cmdline>
J2VwaWtfcHl0aG9uJywgJy1waCcsICc3LjAnLCAnLXRuJywgJzgnLCAnLW1hJywgJzIwMCcsICctbWV0YWxfYmluZGluZycsICctaW1hZScsICc8aW5maWxlLm1hZT4nLCAnLW9tYWUnLCAnPG91dGZpbGUubWFlPic=

> <r_lp_tautomer_probability>
1

> <r_epik_Ionization_Penalty>
8.41315e-07

> <r_epik_Ionization_Penalty_Charging>
0

> <r_epik_Ionization_Penalty_Neutral>
8.41315e-07

> <r_epik_State_Penalty>
-0

> <r_epik_Charging_Adjusted_Penalty>
0

> <i_epik_Tot_Q>
0

> <i_epik_Tot_abs_Q>
0

> <r_epik_Metal_State_Penalty>
-0

> <b_epik_Metal_Only>
0

> <s_lp_Force_Field>
OPLS_2005

> <r_lp_Energy>
12.3149

> <b_lp_Chiralities_Consistent>
1

> <s_lp_Variant>
AV-unprocessed.smi:1085-3

> <Gold.Version>
5.8.1

> <Gold.Id.Protein>
6NUR|6NUR_protein|mol2

> <Gold.PLP.Fitness>
48.6542

> <Gold.PLP.PLP>
-44.4830

> <Gold.PLP.part.hbond>
-4.6257

> <Gold.PLP.part.metal>
0.0000

> <Gold.PLP.part.buried>
-5.4785

> <Gold.PLP.part.nonpolar>
-34.5916

> <Gold.PLP.part.repulsive>
0.1055

> <Gold.PLP.ligand.clash>
0.0000

> <Gold.PLP.ligand.torsion>
0.3956

> <Gold.PLP.Chemscore.Hbond>
1.6400

> <Gold.PLP.Chemscore.CHOScore>
0.0000

> <Gold.PLP.Chemscore.Metal>
0.0000

> <Gold.Chemscore.Hbonds>
donor molecule, donor type, donor heavy atom, donor atom, acceptor molecule, acceptor atom, score
      P1  H  7997  8009       L1     1  0.55
      P1  H 10752 10765       L1     6  0.11

> <Gold.PLP.Chemscore.Internal.Correction>
0.0424

> <Gold.Rescore>
     Score         DG    S(hbond)    S(metal)    S(lipo)     H(rot)  DE(clash)    DE(int)     intcor
     13.22     -13.86       1.20        0.00      82.01       2.05       0.20       0.44       ----

> <Gold.Chemscore.Fitness>
13.2180

> <Gold.Chemscore.DG>
-13.8550

> <Gold.Chemscore.ZeroCoef>
-5.4800

> <Gold.Chemscore.Hbond>
1.2025

> <Gold.Chemscore.Metal>
0.0000

> <Gold.Chemscore.Lipo>
82.0111

> <Gold.Chemscore.Internal_Hbond>
0.0000

> <Gold.Chemscore.DEClash>
0.1989

> <Gold.Chemscore.DEInternal>
0.4382

> <Gold.Chemscore.Rot>
2.0456

> <Gold.Chemscore.Internal.Correction>
   9.000000E+99

> <Gold.Chemscore.Hbonds>
donor molecule, donor type, donor heavy atom, donor atom, acceptor molecule, acceptor atom, score
      P1  H  7997  8009       L1     1  0.03
      P1  H 10752 10765       L1     6  0.02

> <Gold.Chemscore.Hbond.Weighted>
-4.0165

> <Gold.Chemscore.Metal.Weighted>
-0.0000

> <Gold.Chemscore.Lipo.Weighted>
-9.5953

> <Gold.Chemscore.Internal_Hbond.Weighted>
0.0000

> <Gold.Chemscore.DEClash.Weighted>
0.1989

> <Gold.Chemscore.DEInternal.Weighted>
0.4382

> <Gold.Chemscore.Rot.Weighted>
5.2368

> <Gold.Chemscore.Internal.Correction.Weighted>
   9.000000E+99

> <Gold.Protein.RotatedTorsions>
[ 6907 6896 6895 6894 ] final  -57.11 input  -60.11 | X-H torsion
[ 7974 7965 7964 7962 ] final  -54.31 input  175.53 | X-H torsion
[ 8008 7997 7996 7995 ] final   86.27 input   59.86 | X-H torsion
[ 10167 10162 10161 10158 ] final  -80.59 input  -65.29 | X-H torsion
[ 10718 10713 10712 10709 ] final  -69.98 input   66.30 | X-H torsion
[ 10763 10752 10751 10750 ] final -171.35 input  -60.55 | X-H torsion
[ 11005 11000 10999 10996 ] final  161.23 input  -57.11 | X-H torsion

> <Gold.Protein.ActiveResidues>
 VAL166  LYS551  ARG553  GLY616  TRP617  ASP618  TYR619  PRO620  LYS621  CYS622 
 ASP623  PHE694  ASN695  SER759  ASP760  ASP761  ALA762  ILE779  LEU786  VAL792 
 PHE793  MET794  SER795  GLU796  ALA797  LYS798  CYS799  TRP800  GLU811  SER814 

> <Gold.Protein.RotatedAtoms>
  150.8112  134.7268  159.6689 H   0  0  0  0  0  0  0  0  0  0  0  0  # atno 6907 bound_to 6896
  152.4232  134.5913  159.9985 H   0  0  0  0  0  0  0  0  0  0  0  0  # atno 6908 bound_to 6896
  151.6122  133.3309  159.3106 H   0  0  0  0  0  0  0  0  0  0  0  0  # atno 6909 bound_to 6896
  145.8870  140.8101  142.9811 H   0  0  0  0  0  0  0  0  0  0  0  0  # atno 7974 bound_to 7965
  155.9607  140.3393  155.6488 H   0  0  0  0  0  0  0  0  0  0  0  0  # atno 8008 bound_to 7997
  155.6802  140.0737  157.2506 H   0  0  0  0  0  0  0  0  0  0  0  0  # atno 8009 bound_to 7997
  154.4142  140.1676  156.1962 H   0  0  0  0  0  0  0  0  0  0  0  0  # atno 8010 bound_to 7997
  140.4489  143.2489  151.8517 H   0  0  0  0  0  0  0  0  0  0  0  0  # atno 10167 bound_to 10162
  156.0429  130.4323  150.2228 H   0  0  0  0  0  0  0  0  0  0  0  0  # atno 10718 bound_to 10713
  154.6314  135.2887  155.0211 H   0  0  0  0  0  0  0  0  0  0  0  0  # atno 10763 bound_to 10752
  154.1370  135.6524  153.4938 H   0  0  0  0  0  0  0  0  0  0  0  0  # atno 10764 bound_to 10752
  153.0282  135.5324  154.7144 H   0  0  0  0  0  0  0  0  0  0  0  0  # atno 10765 bound_to 10752
  140.2138  134.8248  157.3148 H   0  0  0  0  0  0  0  0  0  0  0  0  # atno 11005 bound_to 11000
  144.6729  140.1470  143.7433 LP  0  0  0  0  0  0  0  0  0  0  0  0  # atno 17320 bound_to 7965
  145.8955  139.2400  143.1524 LP  0  0  0  0  0  0  0  0  0  0  0  0  # atno 17321 bound_to 7965
  139.4795  144.5143  151.8890 LP  0  0  0  0  0  0  0  0  0  0  0  0  # atno 17342 bound_to 10162
  140.4230  144.2218  150.5887 LP  0  0  0  0  0  0  0  0  0  0  0  0  # atno 17343 bound_to 10162
  157.0321  131.0010  151.3309 LP  0  0  0  0  0  0  0  0  0  0  0  0  # atno 17370 bound_to 10713
  157.5270  130.8034  149.7873 LP  0  0  0  0  0  0  0  0  0  0  0  0  # atno 17371 bound_to 10713
  140.1922  134.4357  155.7709 LP  0  0  0  0  0  0  0  0  0  0  0  0  # atno 17394 bound_to 11000
  141.2225  133.7032  156.8047 LP  0  0  0  0  0  0  0  0  0  0  0  0  # atno 17395 bound_to 11000

$$$$
