AV-unprocessed.smi:486|AV-procd|sdf|2695|dock4
  -GOLD-   2262023123D 1   1.00000     0.00000
 Structure written by MMmdl.
 43 45  0  0  0  0  0  0  0  0  1 V2000
  149.3837  130.4742  155.4683 C   0  0  0  0  0  0  0  0  0  0  0  0
  150.3775  130.9689  156.3539 O   0  0  0  0  0  0  0  0  0  0  0  0
  150.6903  132.3102  156.2938 C   0  0  0  0  0  0  0  0  0  0  0  0
  151.7951  132.7458  157.0511 C   0  0  0  0  0  0  0  0  0  0  0  0
  152.1840  134.0987  157.0459 C   0  0  0  0  0  0  0  0  0  0  0  0
  151.4762  135.0499  156.2854 C   0  0  0  0  0  0  0  0  0  0  0  0
  151.9224  136.3530  156.3386 O   0  0  0  0  0  0  0  0  0  0  0  0
  151.1504  137.3572  155.6928 C   0  0  0  0  0  0  0  0  0  0  0  0
  151.7810  138.7284  155.9818 C   0  0  2  0  0  0  0  0  0  0  0  0
  153.1803  138.6216  155.8075 O   0  0  0  0  0  0  0  0  0  0  0  0
  151.4863  139.2062  157.4185 C   0  0  0  0  0  0  0  0  0  0  0  0
  151.0877  140.6065  157.4777 N   0  0  0  0  0  0  0  0  0  0  0  0
  150.1418  141.2350  156.7372 C   0  0  0  0  0  0  0  0  0  0  0  0
  149.3367  140.5107  155.7053 C   0  0  0  0  0  0  0  0  0  0  0  0
  149.9711  142.5326  156.9904 N   0  0  0  0  0  0  0  0  0  0  0  0
  150.8927  142.7691  157.9923 C   0  0  0  0  0  0  0  0  0  0  0  0
  151.2024  143.9567  158.6929 C   0  0  0  0  0  0  0  0  0  0  0  0
  152.1970  143.9569  159.6931 C   0  0  0  0  0  0  0  0  0  0  0  0
  152.8951  142.7725  160.0055 C   0  0  0  0  0  0  0  0  0  0  0  0
  152.6025  141.5782  159.3191 C   0  0  0  0  0  0  0  0  0  0  0  0
  151.6082  141.5828  158.3224 C   0  0  0  0  0  0  0  0  0  0  0  0
  150.3644  134.6167  155.5216 C   0  0  0  0  0  0  0  0  0  0  0  0
  149.9762  133.2626  155.5256 C   0  0  0  0  0  0  0  0  0  0  0  0
  149.2559  129.4043  155.6321 H   0  0  0  0  0  0  0  0  0  0  0  0
  149.6730  130.6154  154.4263 H   0  0  0  0  0  0  0  0  0  0  0  0
  148.4188  130.9520  155.6441 H   0  0  0  0  0  0  0  0  0  0  0  0
  152.3520  132.0346  157.6434 H   0  0  0  0  0  0  0  0  0  0  0  0
  153.0354  134.4095  157.6335 H   0  0  0  0  0  0  0  0  0  0  0  0
  151.1734  137.1687  154.6182 H   0  0  0  0  0  0  0  0  0  0  0  0
  150.1073  137.3356  156.0137 H   0  0  0  0  0  0  0  0  0  0  0  0
  151.3946  139.4620  155.2738 H   0  0  0  0  0  0  0  0  0  0  0  0
  153.5480  138.2243  156.5823 H   0  0  0  0  0  0  0  0  0  0  0  0
  150.6968  138.6007  157.8647 H   0  0  0  0  0  0  0  0  0  0  0  0
  152.3643  139.0676  158.0506 H   0  0  0  0  0  0  0  0  0  0  0  0
  148.6820  141.2038  155.1758 H   0  0  0  0  0  0  0  0  0  0  0  0
  148.7183  139.7477  156.1780 H   0  0  0  0  0  0  0  0  0  0  0  0
  149.9908  140.0348  154.9754 H   0  0  0  0  0  0  0  0  0  0  0  0
  150.6736  144.8692  158.4605 H   0  0  0  0  0  0  0  0  0  0  0  0
  152.4252  144.8704  160.2222 H   0  0  0  0  0  0  0  0  0  0  0  0
  153.6566  142.7815  160.7715 H   0  0  0  0  0  0  0  0  0  0  0  0
  153.1382  140.6703  159.5532 H   0  0  0  0  0  0  0  0  0  0  0  0
  149.7903  135.3051  154.9204 H   0  0  0  0  0  0  0  0  0  0  0  0
  149.1234  132.9793  154.9279 H   0  0  0  0  0  0  0  0  0  0  0  0
  1  2  1  0  0  0  0
  1 24  1  0  0  0  0
  1 25  1  0  0  0  0
  1 26  1  0  0  0  0
  2  3  1  0  0  0  0
  3 23  1  0  0  0  0
  3  4  2  0  0  0  0
  4  5  1  0  0  0  0
  4 27  1  0  0  0  0
  5  6  2  0  0  0  0
  5 28  1  0  0  0  0
  6  7  1  0  0  0  0
  6 22  1  0  0  0  0
  7  8  1  0  0  0  0
  8  9  1  0  0  0  0
  8 29  1  0  0  0  0
  8 30  1  0  0  0  0
  9 10  1  0  0  0  0
  9 11  1  0  0  0  0
  9 31  1  0  0  0  0
 10 32  1  0  0  0  0
 11 12  1  0  0  0  0
 11 33  1  0  0  0  0
 11 34  1  0  0  0  0
 12 21  1  0  0  0  0
 12 13  1  0  0  0  0
 13 14  1  0  0  0  0
 13 15  2  0  0  0  0
 14 35  1  0  0  0  0
 14 36  1  0  0  0  0
 14 37  1  0  0  0  0
 15 16  1  0  0  0  0
 16 21  2  0  0  0  0
 16 17  1  0  0  0  0
 17 18  2  0  0  0  0
 17 38  1  0  0  0  0
 18 19  1  0  0  0  0
 18 39  1  0  0  0  0
 19 20  2  0  0  0  0
 19 40  1  0  0  0  0
 20 21  1  0  0  0  0
 20 41  1  0  0  0  0
 22 23  2  0  0  0  0
 22 42  1  0  0  0  0
 23 43  1  0  0  0  0
M  END
> <s_m_source_file>
AV-unprocessed.smi

> <i_m_source_file_index>
486

> <i_lp_mmshare_version>
43012

> <i_f3d_flags>
0

> <s_epik_input>
W0NIM11PYzFbY0hdW2NIXWMoW2NIXVtjSF0xKU9bQ0gyXVtDQEhdKFtPSF0pW0NIMl1uKGMobjIpW0NIM10pYyhjMjMpW2NIXVtjSF1bY0hdW2NIXTM=

> <s_epik_cmdline>
J2VwaWtfcHl0aG9uJywgJy1waCcsICc3LjAnLCAnLXRuJywgJzgnLCAnLW1hJywgJzIwMCcsICctbWV0YWxfYmluZGluZycsICctaW1hZScsICc8aW5maWxlLm1hZT4nLCAnLW9tYWUnLCAnPG91dGZpbGUubWFlPic=

> <r_lp_tautomer_probability>
1

> <r_epik_Ionization_Penalty>
0.114052

> <r_epik_Ionization_Penalty_Charging>
0

> <r_epik_Ionization_Penalty_Neutral>
0.114052

> <r_epik_State_Penalty>
0.103717

> <r_epik_Charging_Adjusted_Penalty>
0.103717

> <i_epik_Tot_Q>
0

> <i_epik_Tot_abs_Q>
0

> <r_epik_Metal_State_Penalty>
0.000113338

> <b_epik_Metal_Only>
0

> <s_lp_Force_Field>
OPLS_2005

> <r_lp_Energy>
19.9985

> <b_lp_Chiralities_Consistent>
1

> <s_lp_Variant>
AV-unprocessed.smi:486-1

> <Gold.Version>
5.8.1

> <Gold.Id.Protein>
6NUR|6NUR_protein|mol2

> <Gold.PLP.Fitness>
46.3063

> <Gold.PLP.PLP>
-45.3715

> <Gold.PLP.part.hbond>
-2.0000

> <Gold.PLP.part.metal>
0.0000

> <Gold.PLP.part.buried>
-3.9412

> <Gold.PLP.part.nonpolar>
-39.6115

> <Gold.PLP.part.repulsive>
0.1563

> <Gold.PLP.ligand.clash>
0.0000

> <Gold.PLP.ligand.torsion>
0.9573

> <Gold.PLP.Chemscore.Hbond>
0.9000

> <Gold.PLP.Chemscore.CHOScore>
0.0000

> <Gold.PLP.Chemscore.Metal>
0.0000

> <Gold.Chemscore.Hbonds>
donor molecule, donor type, donor heavy atom, donor atom, acceptor molecule, acceptor atom, score
      P1  H  7997  8009       L1    10  0.15

> <Gold.PLP.Chemscore.Internal.Correction>
0.1495

> <Gold.Rescore>
     Score         DG    S(hbond)    S(metal)    S(lipo)     H(rot)  DE(clash)    DE(int)     intcor
     13.30     -14.43       0.13        0.00     123.12       2.30       0.10       1.03       ----

> <Gold.Chemscore.Fitness>
13.3013

> <Gold.Chemscore.DG>
-14.4330

> <Gold.Chemscore.ZeroCoef>
-5.4800

> <Gold.Chemscore.Hbond>
0.1325

> <Gold.Chemscore.Metal>
0.0000

> <Gold.Chemscore.Lipo>
123.1160

> <Gold.Chemscore.Internal_Hbond>
0.0000

> <Gold.Chemscore.DEClash>
0.0978

> <Gold.Chemscore.DEInternal>
1.0340

> <Gold.Chemscore.Rot>
2.3023

> <Gold.Chemscore.Internal.Correction>
   9.000000E+99

> <Gold.Chemscore.Hbond.Weighted>
-0.4425

> <Gold.Chemscore.Metal.Weighted>
-0.0000

> <Gold.Chemscore.Lipo.Weighted>
-14.4046

> <Gold.Chemscore.Internal_Hbond.Weighted>
0.0000

> <Gold.Chemscore.DEClash.Weighted>
0.0978

> <Gold.Chemscore.DEInternal.Weighted>
1.0340

> <Gold.Chemscore.Rot.Weighted>
5.8940

> <Gold.Chemscore.Internal.Correction.Weighted>
   9.000000E+99

> <Gold.Protein.RotatedTorsions>
[ 6907 6896 6895 6894 ] final  -29.57 input  -60.11 | X-H torsion
[ 7974 7965 7964 7962 ] final -100.48 input  175.53 | X-H torsion
[ 8008 7997 7996 7995 ] final -161.42 input   59.86 | X-H torsion
[ 10167 10162 10161 10158 ] final -113.75 input  -65.29 | X-H torsion
[ 10718 10713 10712 10709 ] final   26.89 input   66.30 | X-H torsion
[ 10763 10752 10751 10750 ] final  -29.42 input  -60.55 | X-H torsion
[ 11005 11000 10999 10996 ] final  -22.19 input  -57.11 | X-H torsion

> <Gold.Protein.ActiveResidues>
 VAL166  LYS551  ARG553  GLY616  TRP617  ASP618  TYR619  PRO620  LYS621  CYS622 
 ASP623  PHE694  ASN695  SER759  ASP760  ASP761  ALA762  ILE779  LEU786  VAL792 
 PHE793  MET794  SER795  GLU796  ALA797  LYS798  CYS799  TRP800  GLU811  SER814 

> <Gold.Protein.RotatedAtoms>
  151.1173  135.0060  159.8521 H   0  0  0  0  0  0  0  0  0  0  0  0  # atno 6907 bound_to 6896
  152.5446  134.1764  159.8628 H   0  0  0  0  0  0  0  0  0  0  0  0  # atno 6908 bound_to 6896
  151.1819  133.4675  159.2627 H   0  0  0  0  0  0  0  0  0  0  0  0  # atno 6909 bound_to 6896
  145.2940  140.9360  143.2861 H   0  0  0  0  0  0  0  0  0  0  0  0  # atno 7974 bound_to 7965
  155.7919  140.0879  157.2004 H   0  0  0  0  0  0  0  0  0  0  0  0  # atno 8008 bound_to 7997
  154.3985  140.1488  156.3231 H   0  0  0  0  0  0  0  0  0  0  0  0  # atno 8009 bound_to 7997
  155.8550  140.3433  155.5721 H   0  0  0  0  0  0  0  0  0  0  0  0  # atno 8010 bound_to 7997
  140.1085  143.4549  152.1768 H   0  0  0  0  0  0  0  0  0  0  0  0  # atno 10167 bound_to 10162
  157.2129  130.6943  149.6236 H   0  0  0  0  0  0  0  0  0  0  0  0  # atno 10718 bound_to 10713
  153.7644  135.6917  153.4919 H   0  0  0  0  0  0  0  0  0  0  0  0  # atno 10763 bound_to 10752
  153.1917  135.4469  155.0156 H   0  0  0  0  0  0  0  0  0  0  0  0  # atno 10764 bound_to 10752
  154.8141  135.3391  154.7157 H   0  0  0  0  0  0  0  0  0  0  0  0  # atno 10765 bound_to 10752
  140.8633  133.7772  156.0100 H   0  0  0  0  0  0  0  0  0  0  0  0  # atno 11005 bound_to 11000
  144.9149  139.4483  143.6569 LP  0  0  0  0  0  0  0  0  0  0  0  0  # atno 17320 bound_to 7965
  146.3175  139.7977  142.8972 LP  0  0  0  0  0  0  0  0  0  0  0  0  # atno 17321 bound_to 7965
  139.5632  144.7419  151.4095 LP  0  0  0  0  0  0  0  0  0  0  0  0  # atno 17342 bound_to 10162
  140.6939  143.7796  150.7296 LP  0  0  0  0  0  0  0  0  0  0  0  0  # atno 17343 bound_to 10162
  155.9689  130.4545  150.5852 LP  0  0  0  0  0  0  0  0  0  0  0  0  # atno 17370 bound_to 10713
  157.3653  131.0756  151.1602 LP  0  0  0  0  0  0  0  0  0  0  0  0  # atno 17371 bound_to 10713
  140.8657  134.2787  157.5214 LP  0  0  0  0  0  0  0  0  0  0  0  0  # atno 17394 bound_to 11000
  139.8708  134.9541  156.4167 LP  0  0  0  0  0  0  0  0  0  0  0  0  # atno 17395 bound_to 11000

$$$$
