AV-unprocessed.smi:1163|AV-procd|sdf|4925|dock2
  -GOLD-   22720 3503D 1   1.00000     0.00000
 Structure written by MMmdl.
 40 41  0  0  0  0  0  0  0  0  2 V2000
  154.4251  141.1898  160.2535 C   0  0  0  0  0  0  0  0  0  0  0  0
  153.6932  142.3855  160.0067 O   0  0  0  0  0  0  0  0  0  0  0  0
  152.6662  142.3467  159.0860 C   0  0  0  0  0  0  0  0  0  0  0  0
  152.1733  141.0917  158.6777 C   0  0  0  0  0  0  0  0  0  0  0  0
  151.1285  141.0424  157.7351 C   0  0  0  0  0  0  0  0  0  0  0  0
  150.6020  142.2567  157.2317 C   0  0  0  0  0  0  0  0  0  0  0  0
  149.5606  142.3552  156.2674 N   0  0  0  0  0  0  0  0  0  0  0  0
  148.8623  141.3772  155.6651 C   0  0  0  0  0  0  0  0  0  0  0  0
  148.9838  140.1714  155.8778 O   0  0  0  0  0  0  0  0  0  0  0  0
  147.9868  141.8806  154.7836 N   0  0  0  0  0  0  0  0  0  0  0  0
  147.0840  141.0827  153.9600 C   0  0  1  0  0  0  0  0  0  0  0  0
  147.8051  140.1851  152.9552 C   0  0  0  0  0  0  0  0  0  0  0  0
  146.8606  138.9859  152.7611 C   0  0  0  0  0  0  0  0  0  0  0  0
  145.7885  139.1103  153.7787 N   0  3  1  0  0  0  0  0  0  0  0  0
  145.3045  137.8336  154.3576 C   0  0  0  0  0  0  0  0  0  0  0  0
  144.2815  137.1222  153.4552 C   0  0  0  0  0  0  0  0  0  0  0  0
  143.9343  135.9666  154.0195 F   0  0  0  0  0  0  0  0  0  0  0  0
  143.1910  137.8760  153.3170 F   0  0  0  0  0  0  0  0  0  0  0  0
  144.7951  136.8671  152.2525 F   0  0  0  0  0  0  0  0  0  0  0  0
  146.2722  140.0788  154.7780 C   0  0  0  0  0  0  0  0  0  0  0  0
  151.1700  143.4591  157.7020 C   0  0  0  0  0  0  0  0  0  0  0  0
  152.1719  143.5135  158.6044 N   0  0  0  0  0  0  0  0  0  0  0  0
  155.1928  141.3850  161.0022 H   0  0  0  0  0  0  0  0  0  0  0  0
  154.9253  140.8342  159.3516 H   0  0  0  0  0  0  0  0  0  0  0  0
  153.7795  140.4001  160.6403 H   0  0  0  0  0  0  0  0  0  0  0  0
  152.5934  140.1804  159.0771 H   0  0  0  0  0  0  0  0  0  0  0  0
  150.7691  140.0769  157.4177 H   0  0  0  0  0  0  0  0  0  0  0  0
  149.3012  143.2984  156.0174 H   0  0  0  0  0  0  0  0  0  0  0  0
  147.9428  142.8835  154.6743 H   0  0  0  0  0  0  0  0  0  0  0  0
  146.4028  141.7410  153.4168 H   0  0  0  0  0  0  0  0  0  0  0  0
  148.0210  140.7022  152.0198 H   0  0  0  0  0  0  0  0  0  0  0  0
  148.7535  139.8366  153.3670 H   0  0  0  0  0  0  0  0  0  0  0  0
  146.4144  138.9873  151.7661 H   0  0  0  0  0  0  0  0  0  0  0  0
  147.4161  138.0535  152.8750 H   0  0  0  0  0  0  0  0  0  0  0  0
  146.1468  137.1773  154.5814 H   0  0  0  0  0  0  0  0  0  0  0  0
  144.8239  138.0556  155.3118 H   0  0  0  0  0  0  0  0  0  0  0  0
  146.9102  139.5723  155.5052 H   0  0  0  0  0  0  0  0  0  0  0  0
  145.4451  140.5443  155.3152 H   0  0  0  0  0  0  0  0  0  0  0  0
  150.8096  144.4122  157.3426 H   0  0  0  0  0  0  0  0  0  0  0  0
  145.0032  139.5522  153.3216 H   0  0  0  0  0  0  0  0  0  0  0  0
  1  2  1  0  0  0  0
  1 23  1  0  0  0  0
  1 24  1  0  0  0  0
  1 25  1  0  0  0  0
  2  3  1  0  0  0  0
  3 22  1  0  0  0  0
  3  4  2  0  0  0  0
  4  5  1  0  0  0  0
  4 26  1  0  0  0  0
  5  6  2  0  0  0  0
  5 27  1  0  0  0  0
  6  7  1  0  0  0  0
  6 21  1  0  0  0  0
  7  8  1  0  0  0  0
  7 28  1  0  0  0  0
  8  9  2  0  0  0  0
  8 10  1  0  0  0  0
 10 11  1  0  0  0  0
 10 29  1  0  0  0  0
 11 20  1  0  0  0  0
 11 12  1  0  0  0  0
 11 30  1  0  0  0  0
 12 13  1  0  0  0  0
 12 31  1  0  0  0  0
 12 32  1  0  0  0  0
 13 14  1  0  0  0  0
 13 33  1  0  0  0  0
 13 34  1  0  0  0  0
 14 15  1  0  0  0  0
 14 20  1  0  0  0  0
 14 40  1  0  0  0  0
 15 16  1  0  0  0  0
 15 35  1  0  0  0  0
 15 36  1  0  0  0  0
 16 17  1  0  0  0  0
 16 18  1  0  0  0  0
 16 19  1  0  0  0  0
 20 37  1  0  0  0  0
 20 38  1  0  0  0  0
 21 22  2  0  0  0  0
 21 39  1  0  0  0  0
M  CHG  1  14   1
M  END
> <s_m_source_file>
AV-unprocessed.smi

> <i_m_source_file_index>
1163

> <i_lp_mmshare_version>
43012

> <i_f3d_flags>
0

> <s_epik_input>
W0NIM11PYzFbY0hdW2NIXWMoW2NIXW4xKVtOSF1DKD1PKVtOSF1bQ0BASF0yW0NIMl1bQ0gyXU4oW0NIMl0yKVtDSDJdQyhGKShGKUY=

> <s_epik_cmdline>
J2VwaWtfcHl0aG9uJywgJy1waCcsICc3LjAnLCAnLXRuJywgJzgnLCAnLW1hJywgJzIwMCcsICctbWV0YWxfYmluZGluZycsICctaW1hZScsICc8aW5maWxlLm1hZT4nLCAnLW9tYWUnLCAnPG91dGZpbGUubWFlPic=

> <r_lp_tautomer_probability>
1

> <r_epik_Ionization_Penalty>
1.12054

> <r_epik_Ionization_Penalty_Charging>
1.12047

> <r_epik_Ionization_Penalty_Neutral>
7.20346e-05

> <r_epik_State_Penalty>
1.17927

> <r_epik_Charging_Adjusted_Penalty>
2.29974

> <i_epik_Tot_Q>
1

> <i_epik_Tot_abs_Q>
1

> <r_epik_Metal_State_Penalty>
1.17928

> <b_epik_Metal_Only>
0

> <s_lp_Force_Field>
OPLS_2005

> <r_lp_Energy>
29.7576

> <b_lp_Chiralities_Consistent>
1

> <s_lp_Variant>
AV-unprocessed.smi:1163-6

> <Gold.Version>
5.8.1

> <Gold.Id.Protein>
6NUR|6NUR_protein|mol2

> <Gold.PLP.Fitness>
42.4119

> <Gold.PLP.PLP>
-30.2112

> <Gold.PLP.part.hbond>
-2.8254

> <Gold.PLP.part.metal>
0.0000

> <Gold.PLP.part.buried>
1.3492

> <Gold.PLP.part.nonpolar>
-30.2676

> <Gold.PLP.part.repulsive>
0.2792

> <Gold.PLP.ligand.clash>
0.0000

> <Gold.PLP.ligand.torsion>
0.4902

> <Gold.PLP.Chemscore.Hbond>
3.3282

> <Gold.PLP.Chemscore.CHOScore>
0.8981

> <Gold.PLP.Chemscore.Metal>
0.0000

> <Gold.Chemscore.Hbonds>
donor molecule, donor type, donor heavy atom, donor atom, acceptor molecule, acceptor atom, score
      L1  H     7    28       P1  8028  0.99
      L1  H    10    29       P1  8028  0.34
      L1  H    14    40       P1 10175  2.00
      L1  C    21    39       P1  8028  0.90

> <Gold.PLP.Chemscore.Internal.Correction>
0.5022

> <Gold.Rescore>
     Score         DG    S(hbond)    S(metal)    S(lipo)     H(rot)  DE(clash)    DE(int)     intcor
     14.19     -18.33       2.91        0.00      63.46       1.68       1.28       2.86       ----

> <Gold.Chemscore.Fitness>
14.1904

> <Gold.Chemscore.DG>
-18.3268

> <Gold.Chemscore.ZeroCoef>
-5.4800

> <Gold.Chemscore.Hbond>
2.9093

> <Gold.Chemscore.Metal>
0.0000

> <Gold.Chemscore.Lipo>
63.4600

> <Gold.Chemscore.Internal_Hbond>
0.0000

> <Gold.Chemscore.DEClash>
1.2801

> <Gold.Chemscore.DEInternal>
2.8563

> <Gold.Chemscore.Rot>
1.6778

> <Gold.Chemscore.Internal.Correction>
   9.000000E+99

> <Gold.Chemscore.Hbonds>
donor molecule, donor type, donor heavy atom, donor atom, acceptor molecule, acceptor atom, score
      L1  H     7    28       P1  8028  0.92
      L1  H    10    29       P1  8028  0.32
      L1  H    14    40       P1 10175  1.00

> <Gold.Chemscore.Hbond.Weighted>
-9.7171

> <Gold.Chemscore.Metal.Weighted>
-0.0000

> <Gold.Chemscore.Lipo.Weighted>
-7.4248

> <Gold.Chemscore.Internal_Hbond.Weighted>
0.0000

> <Gold.Chemscore.DEClash.Weighted>
1.2801

> <Gold.Chemscore.DEInternal.Weighted>
2.8563

> <Gold.Chemscore.Rot.Weighted>
4.2951

> <Gold.Chemscore.Internal.Correction.Weighted>
   9.000000E+99

> <Gold.Protein.RotatedTorsions>
[ 6907 6896 6895 6894 ] final  -95.88 input  -60.11 | X-H torsion
[ 7974 7965 7964 7962 ] final  132.07 input  175.53 | X-H torsion
[ 8008 7997 7996 7995 ] final  108.90 input   59.86 | X-H torsion
[ 10167 10162 10161 10158 ] final   31.78 input  -65.29 | X-H torsion
[ 10718 10713 10712 10709 ] final  -60.62 input   66.30 | X-H torsion
[ 10763 10752 10751 10750 ] final  177.96 input  -60.55 | X-H torsion
[ 11005 11000 10999 10996 ] final  -59.66 input  -57.11 | X-H torsion

> <Gold.Protein.ActiveResidues>
 VAL166  LYS551  ARG553  GLY616  TRP617  ASP618  TYR619  PRO620  LYS621  CYS622 
 ASP623  PHE694  ASN695  SER759  ASP760  ASP761  ALA762  ILE779  LEU786  VAL792 
 PHE793  MET794  SER795  GLU796  ALA797  LYS798  CYS799  TRP800  GLU811  SER814 

> <Gold.Protein.RotatedAtoms>
  150.6974  134.1589  159.4168 H   0  0  0  0  0  0  0  0  0  0  0  0  # atno 6907 bound_to 6896
  151.9570  135.0140  160.0554 H   0  0  0  0  0  0  0  0  0  0  0  0  # atno 6908 bound_to 6896
  152.1961  133.4772  159.5070 H   0  0  0  0  0  0  0  0  0  0  0  0  # atno 6909 bound_to 6896
  145.0006  139.4315  143.5294 H   0  0  0  0  0  0  0  0  0  0  0  0  # atno 7974 bound_to 7965
  156.1939  140.3068  155.9387 H   0  0  0  0  0  0  0  0  0  0  0  0  # atno 8008 bound_to 7997
  155.3111  140.0451  157.3052 H   0  0  0  0  0  0  0  0  0  0  0  0  # atno 8009 bound_to 7997
  154.5485  140.2284  155.8532 H   0  0  0  0  0  0  0  0  0  0  0  0  # atno 8010 bound_to 7997
  140.4558  144.0981  150.6201 H   0  0  0  0  0  0  0  0  0  0  0  0  # atno 10167 bound_to 10162
  156.0978  130.4190  150.0879 H   0  0  0  0  0  0  0  0  0  0  0  0  # atno 10718 bound_to 10713
  154.5014  135.2784  155.1417 H   0  0  0  0  0  0  0  0  0  0  0  0  # atno 10763 bound_to 10752
  154.3049  135.6240  153.5444 H   0  0  0  0  0  0  0  0  0  0  0  0  # atno 10764 bound_to 10752
  152.9903  135.5706  154.5458 H   0  0  0  0  0  0  0  0  0  0  0  0  # atno 10765 bound_to 10752
  141.1257  133.6617  156.5105 H   0  0  0  0  0  0  0  0  0  0  0  0  # atno 11005 bound_to 11000
  146.3451  139.9393  142.8743 LP  0  0  0  0  0  0  0  0  0  0  0  0  # atno 17320 bound_to 7965
  145.2158  140.9914  143.4074 LP  0  0  0  0  0  0  0  0  0  0  0  0  # atno 17321 bound_to 7965
  140.4153  143.2637  151.9782 LP  0  0  0  0  0  0  0  0  0  0  0  0  # atno 17342 bound_to 10162
  139.4801  144.5879  151.7822 LP  0  0  0  0  0  0  0  0  0  0  0  0  # atno 17343 bound_to 10162
  156.8874  130.9577  151.3592 LP  0  0  0  0  0  0  0  0  0  0  0  0  # atno 17370 bound_to 10713
  157.6142  130.8606  149.9002 LP  0  0  0  0  0  0  0  0  0  0  0  0  # atno 17371 bound_to 10713
  140.4373  134.7048  157.4973 LP  0  0  0  0  0  0  0  0  0  0  0  0  # atno 17394 bound_to 11000
  140.0253  134.6486  155.9181 LP  0  0  0  0  0  0  0  0  0  0  0  0  # atno 17395 bound_to 11000

$$$$
