AV-unprocessed.smi:1744|AV-procd|sdf|7028|dock5
  -GOLD-   22720 8243D 1   1.00000     0.00000
 Structure written by MMmdl.
 43 44  0  0  0  0  0  0  0  0  3 V2000
  149.3929  141.7424  157.3758 C   0  0  0  0  0  0  0  0  0  0  0  0
  150.0626  141.7973  155.9973 C   0  0  0  0  0  0  0  0  0  0  0  0
  149.9704  140.5275  155.3036 N   0  0  0  0  0  0  0  0  0  0  0  0
  148.8438  139.7682  155.0566 C   0  0  0  0  0  0  0  0  0  0  0  0
  149.2770  138.6734  154.3707 C   0  0  0  0  0  0  0  0  0  0  0  0
  148.4425  137.6262  153.9059 N   0  0  0  0  0  0  0  0  0  0  0  0
  147.2958  137.1978  154.4581 C   0  0  0  0  0  0  0  0  0  0  0  0
  146.7689  137.6809  155.4599 O   0  0  0  0  0  0  0  0  0  0  0  0
  146.7824  136.1627  153.7777 N   0  0  0  0  0  0  0  0  0  0  0  0
  145.5437  135.4617  154.1160 C   0  0  2  0  0  0  0  0  0  0  0  0
  145.6470  133.9486  153.8401 C   0  0  0  0  0  0  0  0  0  0  0  0
  145.6806  133.6388  152.3333 C   0  0  0  0  0  0  0  0  0  0  0  0
  144.4985  134.2177  151.6396 N   0  3  2  0  0  0  0  0  0  0  0  0
  144.4168  133.8364  150.2075 C   0  0  0  0  0  0  0  0  0  0  0  0
  144.1216  132.3388  150.0720 C   0  0  0  0  0  0  0  0  0  0  0  0
  143.0654  132.0928  149.2739 N   0  5  0  0  0  0  0  0  0  0  0  0
  144.8350  131.5239  150.6535 O   0  0  0  0  0  0  0  0  0  0  0  0
  144.4136  135.6871  151.8363 C   0  0  0  0  0  0  0  0  0  0  0  0
  144.3582  136.0504  153.3319 C   0  0  0  0  0  0  0  0  0  0  0  0
  150.6856  138.8312  154.2364 C   0  0  0  0  0  0  0  0  0  0  0  0
  151.0940  139.9555  154.8050 N   0  0  0  0  0  0  0  0  0  0  0  0
  149.4731  142.7032  157.8844 H   0  0  0  0  0  0  0  0  0  0  0  0
  149.8601  140.9891  158.0109 H   0  0  0  0  0  0  0  0  0  0  0  0
  148.3333  141.4991  157.2911 H   0  0  0  0  0  0  0  0  0  0  0  0
  149.5993  142.5687  155.3807 H   0  0  0  0  0  0  0  0  0  0  0  0
  151.1151  142.0636  156.1003 H   0  0  0  0  0  0  0  0  0  0  0  0
  147.8582  140.0686  155.3803 H   0  0  0  0  0  0  0  0  0  0  0  0
  148.7570  137.1491  153.0738 H   0  0  0  0  0  0  0  0  0  0  0  0
  147.2829  135.8374  152.9636 H   0  0  0  0  0  0  0  0  0  0  0  0
  145.3528  135.6128  155.1802 H   0  0  0  0  0  0  0  0  0  0  0  0
  146.5257  133.5262  154.3285 H   0  0  0  0  0  0  0  0  0  0  0  0
  144.7873  133.4455  154.2848 H   0  0  0  0  0  0  0  0  0  0  0  0
  146.5957  134.0305  151.8869 H   0  0  0  0  0  0  0  0  0  0  0  0
  145.7059  132.5573  152.1972 H   0  0  0  0  0  0  0  0  0  0  0  0
  143.5900  134.3630  149.7287 H   0  0  0  0  0  0  0  0  0  0  0  0
  145.3240  134.1391  149.6799 H   0  0  0  0  0  0  0  0  0  0  0  0
  142.2305  132.6841  149.3651 H   0  0  0  0  0  0  0  0  0  0  0  0
  145.2680  136.1680  151.3579 H   0  0  0  0  0  0  0  0  0  0  0  0
  143.5194  136.0723  151.3446 H   0  0  0  0  0  0  0  0  0  0  0  0
  143.4274  135.6689  153.7542 H   0  0  0  0  0  0  0  0  0  0  0  0
  144.3235  137.1336  153.4546 H   0  0  0  0  0  0  0  0  0  0  0  0
  151.4144  138.1941  153.7584 H   0  0  0  0  0  0  0  0  0  0  0  0
  143.6774  133.8223  152.0758 H   0  0  0  0  0  0  0  0  0  0  0  0
  1  2  1  0  0  0  0
  1 22  1  0  0  0  0
  1 23  1  0  0  0  0
  1 24  1  0  0  0  0
  2  3  1  0  0  0  0
  2 25  1  0  0  0  0
  2 26  1  0  0  0  0
  3 21  1  0  0  0  0
  3  4  1  0  0  0  0
  4  5  2  0  0  0  0
  4 27  1  0  0  0  0
  5  6  1  0  0  0  0
  5 20  1  0  0  0  0
  6  7  1  0  0  0  0
  6 28  1  0  0  0  0
  7  8  2  0  0  0  0
  7  9  1  0  0  0  0
  9 10  1  0  0  0  0
  9 29  1  0  0  0  0
 10 19  1  0  0  0  0
 10 11  1  0  0  0  0
 10 30  1  0  0  0  0
 11 12  1  0  0  0  0
 11 31  1  0  0  0  0
 11 32  1  0  0  0  0
 12 13  1  0  0  0  0
 12 33  1  0  0  0  0
 12 34  1  0  0  0  0
 13 14  1  0  0  0  0
 13 18  1  0  0  0  0
 13 43  1  0  0  0  0
 14 15  1  0  0  0  0
 14 35  1  0  0  0  0
 14 36  1  0  0  0  0
 15 16  1  0  0  0  0
 15 17  2  0  0  0  0
 16 37  1  0  0  0  0
 18 19  1  0  0  0  0
 18 38  1  0  0  0  0
 18 39  1  0  0  0  0
 19 40  1  0  0  0  0
 19 41  1  0  0  0  0
 20 21  2  0  0  0  0
 20 42  1  0  0  0  0
M  CHG  1  13   1
M  CHG  1  16  -1
M  END
> <s_m_source_file>
AV-unprocessed.smi

> <i_m_source_file_index>
1744

> <i_lp_mmshare_version>
43012

> <i_f3d_flags>
0

> <s_epik_input>
W0NIM11bQ0gyXW4xW2NIXWMoW2NIXW4xKVtOSF1DKD1PKVtOSF1bQ0hdMltDSDJdW0NIMl1OKFtDSDJdW0NIMl0yKVtDSDJdQyg9TylbTkgyXQ==

> <s_epik_cmdline>
J2VwaWtfcHl0aG9uJywgJy1waCcsICc3LjAnLCAnLXRuJywgJzgnLCAnLW1hJywgJzIwMCcsICctbWV0YWxfYmluZGluZycsICctaW1hZScsICc8aW5maWxlLm1hZT4nLCAnLW9tYWUnLCAnPG91dGZpbGUubWFlPic=

> <r_lp_tautomer_probability>
1

> <r_epik_Ionization_Penalty>
5.72895

> <r_epik_Ionization_Penalty_Charging>
5.7288

> <r_epik_Ionization_Penalty_Neutral>
0.000148676

> <r_epik_State_Penalty>
6.54882

> <r_epik_Charging_Adjusted_Penalty>
12.2776

> <i_epik_Tot_Q>
0

> <i_epik_Tot_abs_Q>
2

> <r_epik_Metal_State_Penalty>
2.51309

> <b_epik_Metal_Only>
1

> <s_lp_Force_Field>
OPLS_2005

> <r_lp_Energy>
11.9421

> <b_lp_Chiralities_Consistent>
1

> <s_lp_Variant>
AV-unprocessed.smi:1744-5

> <Gold.Version>
5.8.1

> <Gold.Id.Protein>
6NUR|6NUR_protein|mol2

> <Gold.PLP.Fitness>
44.2175

> <Gold.PLP.PLP>
-31.6498

> <Gold.PLP.part.hbond>
-5.8096

> <Gold.PLP.part.metal>
0.0000

> <Gold.PLP.part.buried>
-7.0106

> <Gold.PLP.part.nonpolar>
-20.0418

> <Gold.PLP.part.repulsive>
0.2144

> <Gold.PLP.ligand.clash>
0.0000

> <Gold.PLP.ligand.torsion>
0.7098

> <Gold.PLP.Chemscore.Hbond>
4.6518

> <Gold.PLP.Chemscore.CHOScore>
0.0000

> <Gold.PLP.Chemscore.Metal>
0.0000

> <Gold.Chemscore.Hbonds>
donor molecule, donor type, donor heavy atom, donor atom, acceptor molecule, acceptor atom, score
      L1  H     6    28       P1  7948  0.98
      L1  H     9    29       P1  7948  0.85
      L1  H    16    37       P1 10186  0.78
      P1  H  7989  7998       L1    21  1.00
      P1  H 10785 10796       L1    16  1.00

> <Gold.PLP.Chemscore.Internal.Correction>
0.0321

> <Gold.Rescore>
     Score         DG    S(hbond)    S(metal)    S(lipo)     H(rot)  DE(clash)    DE(int)     intcor
     14.43     -17.84       3.55        0.00      52.01       2.18       0.08       3.33       ----

> <Gold.Chemscore.Fitness>
14.4316

> <Gold.Chemscore.DG>
-17.8374

> <Gold.Chemscore.ZeroCoef>
-5.4800

> <Gold.Chemscore.Hbond>
3.5515

> <Gold.Chemscore.Metal>
0.0000

> <Gold.Chemscore.Lipo>
52.0057

> <Gold.Chemscore.Internal_Hbond>
0.0000

> <Gold.Chemscore.DEClash>
0.0757

> <Gold.Chemscore.DEInternal>
3.3301

> <Gold.Chemscore.Rot>
2.1833

> <Gold.Chemscore.Internal.Correction>
   9.000000E+99

> <Gold.Chemscore.Hbonds>
donor molecule, donor type, donor heavy atom, donor atom, acceptor molecule, acceptor atom, score
      L1  H     6    28       P1  7948  0.91
      L1  H     9    29       P1  7948  0.78
      L1  H    16    37       P1 10186  0.76
      P1  H  7989  7998       L1    21  0.28
      P1  H 10785 10796       L1    16  0.56

> <Gold.Chemscore.Hbond.Weighted>
-11.8619

> <Gold.Chemscore.Metal.Weighted>
-0.0000

> <Gold.Chemscore.Lipo.Weighted>
-6.0847

> <Gold.Chemscore.Internal_Hbond.Weighted>
0.0000

> <Gold.Chemscore.DEClash.Weighted>
0.0757

> <Gold.Chemscore.DEInternal.Weighted>
3.3301

> <Gold.Chemscore.Rot.Weighted>
5.5892

> <Gold.Chemscore.Internal.Correction.Weighted>
   9.000000E+99

> <Gold.Protein.RotatedTorsions>
[ 6907 6896 6895 6894 ] final  -25.42 input  -60.11 | X-H torsion
[ 7974 7965 7964 7962 ] final -124.27 input  175.53 | X-H torsion
[ 8008 7997 7996 7995 ] final -146.53 input   59.86 | X-H torsion
[ 10167 10162 10161 10158 ] final   87.05 input  -65.29 | X-H torsion
[ 10718 10713 10712 10709 ] final   71.82 input   66.30 | X-H torsion
[ 10763 10752 10751 10750 ] final   -6.43 input  -60.55 | X-H torsion
[ 11005 11000 10999 10996 ] final -165.29 input  -57.11 | X-H torsion

> <Gold.Protein.ActiveResidues>
 VAL166  LYS551  ARG553  GLY616  TRP617  ASP618  TYR619  PRO620  LYS621  CYS622 
 ASP623  PHE694  ASN695  SER759  ASP760  ASP761  ALA762  ILE779  LEU786  VAL792 
 PHE793  MET794  SER795  GLU796  ALA797  LYS798  CYS799  TRP800  GLU811  SER814 

> <Gold.Protein.RotatedAtoms>
  151.1754  135.0337  159.8769 H   0  0  0  0  0  0  0  0  0  0  0  0  # atno 6907 bound_to 6896
  152.5447  134.1123  159.8374 H   0  0  0  0  0  0  0  0  0  0  0  0  # atno 6908 bound_to 6896
  151.1233  133.5041  159.2633 H   0  0  0  0  0  0  0  0  0  0  0  0  # atno 6909 bound_to 6896
  145.0098  140.7896  143.4445 H   0  0  0  0  0  0  0  0  0  0  0  0  # atno 7974 bound_to 7965
  155.5608  140.0625  157.2829 H   0  0  0  0  0  0  0  0  0  0  0  0  # atno 8008 bound_to 7997
  154.4391  140.1886  156.0826 H   0  0  0  0  0  0  0  0  0  0  0  0  # atno 8009 bound_to 7997
  156.0448  140.3291  155.7288 H   0  0  0  0  0  0  0  0  0  0  0  0  # atno 8010 bound_to 7997
  139.8813  144.6438  150.8840 H   0  0  0  0  0  0  0  0  0  0  0  0  # atno 10167 bound_to 10162
  157.6470  130.9547  150.0842 H   0  0  0  0  0  0  0  0  0  0  0  0  # atno 10718 bound_to 10713
  153.4122  135.7008  153.6351 H   0  0  0  0  0  0  0  0  0  0  0  0  # atno 10763 bound_to 10752
  153.4840  135.3687  155.2457 H   0  0  0  0  0  0  0  0  0  0  0  0  # atno 10764 bound_to 10752
  154.8717  135.4073  154.3476 H   0  0  0  0  0  0  0  0  0  0  0  0  # atno 10765 bound_to 10752
  140.5774  134.5176  157.5172 H   0  0  0  0  0  0  0  0  0  0  0  0  # atno 11005 bound_to 11000
  145.2038  139.2238  143.5179 LP  0  0  0  0  0  0  0  0  0  0  0  0  # atno 17320 bound_to 7965
  146.3468  140.1861  142.8589 LP  0  0  0  0  0  0  0  0  0  0  0  0  # atno 17321 bound_to 7965
  140.7744  143.3583  151.1877 LP  0  0  0  0  0  0  0  0  0  0  0  0  # atno 17342 bound_to 10162
  139.7193  143.9249  152.2979 LP  0  0  0  0  0  0  0  0  0  0  0  0  # atno 17343 bound_to 10162
  156.1810  130.3650  149.9036 LP  0  0  0  0  0  0  0  0  0  0  0  0  # atno 17370 bound_to 10713
  156.6988  130.8925  151.3597 LP  0  0  0  0  0  0  0  0  0  0  0  0  # atno 17371 bound_to 10713
  139.9333  134.7922  156.0871 LP  0  0  0  0  0  0  0  0  0  0  0  0  # atno 17394 bound_to 11000
  141.1018  133.6674  156.2772 LP  0  0  0  0  0  0  0  0  0  0  0  0  # atno 17395 bound_to 11000

$$$$
