AV-unprocessed.smi:3156|AV-procd|sdf|12033|dock3
  -GOLD-   2272017453D 1   1.00000     0.00000
 Structure written by MMmdl.
 41 42  0  0  0  0  0  0  0  0  2 V2000
  149.1834  141.0755  155.9571 C   0  0  0  0  0  0  0  0  0  0  0  0
  150.4491  141.6019  156.6670 C   0  0  2  0  0  0  0  0  0  0  0  0
  150.7561  142.9760  156.2074 N   0  3  0  0  0  0  0  0  0  0  0  0
  151.7642  143.7027  157.0080 C   0  0  0  0  0  0  0  0  0  0  0  0
  151.3739  143.7245  158.4925 C   0  0  2  0  0  0  0  0  0  0  0  0
  151.2623  145.1630  159.0348 C   0  0  0  0  0  0  0  0  0  0  0  0
  150.9737  145.1516  160.5404 C   0  0  0  0  0  0  0  0  0  0  0  0
  152.0165  144.2900  161.2595 C   0  0  0  0  0  0  0  0  0  0  0  0
  152.0993  142.9001  160.6098 C   0  0  0  0  0  0  0  0  0  0  0  0
  152.3857  143.0307  159.2205 O   0  0  0  0  0  0  0  0  0  0  0  0
  151.6868  140.6895  156.4507 C   0  0  1  0  0  0  0  0  0  0  0  0
  152.3111  140.2167  157.7784 C   0  0  0  0  0  0  0  0  0  0  0  0
  151.3879  139.5411  155.6036 N   0  0  0  0  0  0  0  0  0  0  0  0
  151.4902  138.2008  155.9150 C   0  0  0  0  0  0  0  0  0  0  0  0
  151.1091  137.4942  154.8105 C   0  0  0  0  0  0  0  0  0  0  0  0
  150.7812  138.5014  153.8610 C   0  0  0  0  0  0  0  0  0  0  0  0
  150.9485  139.7244  154.3375 N   0  0  0  0  0  0  0  0  0  0  0  0
  148.8918  140.0914  156.3238 H   0  0  0  0  0  0  0  0  0  0  0  0
  149.3395  140.9940  154.8809 H   0  0  0  0  0  0  0  0  0  0  0  0
  148.3264  141.7287  156.1174 H   0  0  0  0  0  0  0  0  0  0  0  0
  150.2459  141.6401  157.7387 H   0  0  0  0  0  0  0  0  0  0  0  0
  151.1151  142.9102  155.2657 H   0  0  0  0  0  0  0  0  0  0  0  0
  152.7477  143.2478  156.8915 H   0  0  0  0  0  0  0  0  0  0  0  0
  151.8357  144.7238  156.6311 H   0  0  0  0  0  0  0  0  0  0  0  0
  150.4170  143.2143  158.6197 H   0  0  0  0  0  0  0  0  0  0  0  0
  152.1927  145.7009  158.8472 H   0  0  0  0  0  0  0  0  0  0  0  0
  150.4760  145.7065  158.5098 H   0  0  0  0  0  0  0  0  0  0  0  0
  150.9790  146.1671  160.9374 H   0  0  0  0  0  0  0  0  0  0  0  0
  149.9763  144.7487  160.7213 H   0  0  0  0  0  0  0  0  0  0  0  0
  152.9925  144.7746  161.2070 H   0  0  0  0  0  0  0  0  0  0  0  0
  151.7684  144.1997  162.3175 H   0  0  0  0  0  0  0  0  0  0  0  0
  152.8901  142.3142  161.0786 H   0  0  0  0  0  0  0  0  0  0  0  0
  151.1691  142.3478  160.7500 H   0  0  0  0  0  0  0  0  0  0  0  0
  152.4436  141.2728  155.9229 H   0  0  0  0  0  0  0  0  0  0  0  0
  152.6661  141.0556  158.3768 H   0  0  0  0  0  0  0  0  0  0  0  0
  153.1666  139.5652  157.5973 H   0  0  0  0  0  0  0  0  0  0  0  0
  151.5938  139.6599  158.3824 H   0  0  0  0  0  0  0  0  0  0  0  0
  151.8247  137.8635  156.8851 H   0  0  0  0  0  0  0  0  0  0  0  0
  151.0694  136.4209  154.6982 H   0  0  0  0  0  0  0  0  0  0  0  0
  150.4301  138.3810  152.8464 H   0  0  0  0  0  0  0  0  0  0  0  0
  149.9004  143.5124  156.1856 H   0  0  0  0  0  0  0  0  0  0  0  0
  1  2  1  0  0  0  0
  1 18  1  0  0  0  0
  1 19  1  0  0  0  0
  1 20  1  0  0  0  0
  2  3  1  0  0  0  0
  2 11  1  0  0  0  0
  2 21  1  0  0  0  0
  3  4  1  0  0  0  0
  3 22  1  0  0  0  0
  3 41  1  0  0  0  0
  4  5  1  0  0  0  0
  4 23  1  0  0  0  0
  4 24  1  0  0  0  0
  5 10  1  0  0  0  0
  5  6  1  0  0  0  0
  5 25  1  0  0  0  0
  6  7  1  0  0  0  0
  6 26  1  0  0  0  0
  6 27  1  0  0  0  0
  7  8  1  0  0  0  0
  7 28  1  0  0  0  0
  7 29  1  0  0  0  0
  8  9  1  0  0  0  0
  8 30  1  0  0  0  0
  8 31  1  0  0  0  0
  9 10  1  0  0  0  0
  9 32  1  0  0  0  0
  9 33  1  0  0  0  0
 11 12  1  0  0  0  0
 11 13  1  0  0  0  0
 11 34  1  0  0  0  0
 12 35  1  0  0  0  0
 12 36  1  0  0  0  0
 12 37  1  0  0  0  0
 13 17  1  0  0  0  0
 13 14  1  0  0  0  0
 14 15  2  0  0  0  0
 14 38  1  0  0  0  0
 15 16  1  0  0  0  0
 15 39  1  0  0  0  0
 16 17  2  0  0  0  0
 16 40  1  0  0  0  0
M  CHG  1   3   1
M  END
> <s_m_source_file>
AV-unprocessed.smi

> <i_m_source_file_index>
3156

> <i_lp_mmshare_version>
43012

> <i_f3d_flags>
0

> <s_epik_input>
bjFbY0hdW2NIXVtjSF1uMVtDQEBIXShbQ0gzXSlbQ0BIXShbQ0gzXSlbTkhdW0NIMl1bQ0BASF0yW0NIMl1bQ0gyXVtDSDJdW0NIMl1PMg==

> <s_epik_cmdline>
J2VwaWtfcHl0aG9uJywgJy1waCcsICc3LjAnLCAnLXRuJywgJzgnLCAnLW1hJywgJzIwMCcsICctbWV0YWxfYmluZGluZycsICctaW1hZScsICc8aW5maWxlLm1hZT4nLCAnLW9tYWUnLCAnPG91dGZpbGUubWFlPic=

> <r_lp_tautomer_probability>
1

> <r_epik_Ionization_Penalty>
0.00658015

> <r_epik_Ionization_Penalty_Charging>
0.00656881

> <r_epik_Ionization_Penalty_Neutral>
1.13431e-05

> <r_epik_State_Penalty>
0.0048654

> <r_epik_Charging_Adjusted_Penalty>
0.0114342

> <i_epik_Tot_Q>
1

> <i_epik_Tot_abs_Q>
1

> <r_epik_Metal_State_Penalty>
-0

> <b_epik_Metal_Only>
0

> <s_lp_Force_Field>
OPLS_2005

> <r_lp_Energy>
17.6132

> <b_lp_Chiralities_Consistent>
1

> <s_lp_Variant>
AV-unprocessed.smi:3156-5

> <Gold.Version>
5.8.1

> <Gold.Id.Protein>
6NUR|6NUR_protein|mol2

> <Gold.PLP.Fitness>
46.8295

> <Gold.PLP.PLP>
-36.4216

> <Gold.PLP.part.hbond>
-2.0000

> <Gold.PLP.part.metal>
0.0000

> <Gold.PLP.part.buried>
-5.8752

> <Gold.PLP.part.nonpolar>
-30.0791

> <Gold.PLP.part.repulsive>
0.2500

> <Gold.PLP.ligand.clash>
0.0000

> <Gold.PLP.ligand.torsion>
2.3269

> <Gold.PLP.Chemscore.Hbond>
3.0000

> <Gold.PLP.Chemscore.CHOScore>
1.9954

> <Gold.PLP.Chemscore.Metal>
0.0000

> <Gold.Chemscore.Hbonds>
donor molecule, donor type, donor heavy atom, donor atom, acceptor molecule, acceptor atom, score
      L1  H     3    41       P1  8028  2.00
      P1  H  7989  7998       L1    17  1.00
      L1  C    16    40       P1  7948  0.35
      L1  C    16    40       P1  7949  0.08
      L1  C    16    40       P1  7957  0.85

> <Gold.PLP.Chemscore.Internal.Correction>
0.0756

> <Gold.Rescore>
     Score         DG    S(hbond)    S(metal)    S(lipo)     H(rot)  DE(clash)    DE(int)     intcor
     16.38     -21.46       1.98        0.00     114.91       1.59       1.37       3.71       ----

> <Gold.Chemscore.Fitness>
16.3796

> <Gold.Chemscore.DG>
-21.4589

> <Gold.Chemscore.ZeroCoef>
-5.4800

> <Gold.Chemscore.Hbond>
1.9805

> <Gold.Chemscore.Metal>
0.0000

> <Gold.Chemscore.Lipo>
114.9084

> <Gold.Chemscore.Internal_Hbond>
0.0000

> <Gold.Chemscore.DEClash>
1.3689

> <Gold.Chemscore.DEInternal>
3.7104

> <Gold.Chemscore.Rot>
1.5938

> <Gold.Chemscore.Internal.Correction>
   9.000000E+99

> <Gold.Chemscore.Hbonds>
donor molecule, donor type, donor heavy atom, donor atom, acceptor molecule, acceptor atom, score
      L1  H     3    41       P1  8028  0.98
      P1  H  7989  7998       L1    17  0.92

> <Gold.Chemscore.Hbond.Weighted>
-6.6149

> <Gold.Chemscore.Metal.Weighted>
-0.0000

> <Gold.Chemscore.Lipo.Weighted>
-13.4443

> <Gold.Chemscore.Internal_Hbond.Weighted>
0.0000

> <Gold.Chemscore.DEClash.Weighted>
1.3689

> <Gold.Chemscore.DEInternal.Weighted>
3.7104

> <Gold.Chemscore.Rot.Weighted>
4.0802

> <Gold.Chemscore.Internal.Correction.Weighted>
   9.000000E+99

> <Gold.Protein.RotatedTorsions>
[ 6907 6896 6895 6894 ] final -127.79 input  -60.11 | X-H torsion
[ 7974 7965 7964 7962 ] final    5.12 input  175.53 | X-H torsion
[ 8008 7997 7996 7995 ] final   -9.96 input   59.86 | X-H torsion
[ 10167 10162 10161 10158 ] final   67.57 input  -65.29 | X-H torsion
[ 10718 10713 10712 10709 ] final -175.83 input   66.30 | X-H torsion
[ 10763 10752 10751 10750 ] final   57.20 input  -60.55 | X-H torsion
[ 11005 11000 10999 10996 ] final  -10.99 input  -57.11 | X-H torsion

> <Gold.Protein.ActiveResidues>
 VAL166  LYS551  ARG553  GLY616  TRP617  ASP618  TYR619  PRO620  LYS621  CYS622 
 ASP623  PHE694  ASN695  SER759  ASP760  ASP761  ALA762  ILE779  LEU786  VAL792 
 PHE793  MET794  SER795  GLU796  ALA797  LYS798  CYS799  TRP800  GLU811  SER814 

> <Gold.Protein.RotatedAtoms>
  150.9110  133.6998  159.2854 H   0  0  0  0  0  0  0  0  0  0  0  0  # atno 6907 bound_to 6896
  151.4484  135.1026  159.9700 H   0  0  0  0  0  0  0  0  0  0  0  0  # atno 6908 bound_to 6896
  152.4929  133.8501  159.7252 H   0  0  0  0  0  0  0  0  0  0  0  0  # atno 6909 bound_to 6896
  146.2442  140.0432  142.8380 H   0  0  0  0  0  0  0  0  0  0  0  0  # atno 7974 bound_to 7965
  154.5598  140.2341  155.8353 H   0  0  0  0  0  0  0  0  0  0  0  0  # atno 8008 bound_to 7997
  156.2020  140.3050  155.9505 H   0  0  0  0  0  0  0  0  0  0  0  0  # atno 8009 bound_to 7997
  155.2910  140.0426  157.3013 H   0  0  0  0  0  0  0  0  0  0  0  0  # atno 8010 bound_to 7997
  140.0881  144.5012  150.7117 H   0  0  0  0  0  0  0  0  0  0  0  0  # atno 10167 bound_to 10162
  156.8056  130.9568  151.3117 H   0  0  0  0  0  0  0  0  0  0  0  0  # atno 10718 bound_to 10713
  152.9845  135.5650  154.5352 H   0  0  0  0  0  0  0  0  0  0  0  0  # atno 10763 bound_to 10752
  154.4816  135.2789  155.1568 H   0  0  0  0  0  0  0  0  0  0  0  0  # atno 10764 bound_to 10752
  154.3074  135.6295  153.5504 H   0  0  0  0  0  0  0  0  0  0  0  0  # atno 10765 bound_to 10752
  140.7505  133.8596  155.9041 H   0  0  0  0  0  0  0  0  0  0  0  0  # atno 11005 bound_to 11000
  145.1050  140.9370  143.4690 LP  0  0  0  0  0  0  0  0  0  0  0  0  # atno 17320 bound_to 7965
  145.0634  139.3088  143.5869 LP  0  0  0  0  0  0  0  0  0  0  0  0  # atno 17321 bound_to 7965
  140.7043  143.2457  151.4772 LP  0  0  0  0  0  0  0  0  0  0  0  0  # atno 17342 bound_to 10162
  139.5741  144.1860  152.1878 LP  0  0  0  0  0  0  0  0  0  0  0  0  # atno 17343 bound_to 10162
  157.6532  130.8902  149.9675 LP  0  0  0  0  0  0  0  0  0  0  0  0  # atno 17370 bound_to 10713
  156.1075  130.3652  150.0108 LP  0  0  0  0  0  0  0  0  0  0  0  0  # atno 17371 bound_to 10713
  140.9755  134.1475  157.4540 LP  0  0  0  0  0  0  0  0  0  0  0  0  # atno 17394 bound_to 11000
  139.8788  134.9993  156.5947 LP  0  0  0  0  0  0  0  0  0  0  0  0  # atno 17395 bound_to 11000

$$$$
