AV-unprocessed.smi:1440|AV-procd|sdf|5874|dock9
  -GOLD-   22720 5553D 1   1.00000     0.00000
 Structure written by MMmdl.
 41 42  0  0  0  0  0  0  0  0  1 V2000
  145.6327  132.5112  149.9699 C   0  0  0  0  0  0  0  0  0  0  0  0
  145.2537  133.4144  151.1522 C   0  0  2  0  0  0  0  0  0  0  0  0
  145.8938  134.8099  151.0230 C   0  0  0  0  0  0  0  0  0  0  0  0
  145.5233  135.7187  152.2093 C   0  0  0  0  0  0  0  0  0  0  0  0
  145.8761  135.0817  153.5673 C   0  0  2  0  0  0  0  0  0  0  0  0
  147.3267  135.0495  153.7483 N   0  0  0  0  0  0  0  0  0  0  0  0
  147.9641  134.7549  154.8914 C   0  0  0  0  0  0  0  0  0  0  0  0
  147.3774  134.4689  155.9364 O   0  0  0  0  0  0  0  0  0  0  0  0
  149.4963  134.7766  154.8220 C   0  0  0  0  0  0  0  0  0  0  0  0
  150.0444  136.0878  154.4837 N   0  0  0  0  0  0  0  0  0  0  0  0
  150.9678  136.7518  155.1974 C   0  0  0  0  0  0  0  0  0  0  0  0
  151.4599  136.3203  156.2396 O   0  0  0  0  0  0  0  0  0  0  0  0
  151.4042  138.1114  154.6505 C   0  0  0  0  0  0  0  0  0  0  0  0
  150.3051  139.0595  154.6706 N   0  0  0  0  0  0  0  0  0  0  0  0
  149.0402  138.9299  154.2658 C   0  0  0  0  0  0  0  0  0  0  0  0
  148.3105  140.0245  154.4313 N   0  0  0  0  0  0  0  0  0  0  0  0
  149.2531  140.8462  154.9820 C   0  0  0  0  0  0  0  0  0  0  0  0
  150.4656  140.3171  155.1470 N   0  0  0  0  0  0  0  0  0  0  0  0
  145.2577  133.6722  153.6857 C   0  0  0  0  0  0  0  0  0  0  0  0
  145.6350  132.7693  152.4982 C   0  0  0  0  0  0  0  0  0  0  0  0
  146.7099  132.3483  149.9241 H   0  0  0  0  0  0  0  0  0  0  0  0
  145.3220  132.9537  149.0230 H   0  0  0  0  0  0  0  0  0  0  0  0
  145.1514  131.5361  150.0509 H   0  0  0  0  0  0  0  0  0  0  0  0
  144.1700  133.5391  151.1355 H   0  0  0  0  0  0  0  0  0  0  0  0
  146.9784  134.7141  150.9587 H   0  0  0  0  0  0  0  0  0  0  0  0
  145.5737  135.2803  150.0927 H   0  0  0  0  0  0  0  0  0  0  0  0
  146.0154  136.6867  152.1068 H   0  0  0  0  0  0  0  0  0  0  0  0
  144.4518  135.9209  152.1784 H   0  0  0  0  0  0  0  0  0  0  0  0
  145.4552  135.7133  154.3517 H   0  0  0  0  0  0  0  0  0  0  0  0
  147.8882  135.2679  152.9379 H   0  0  0  0  0  0  0  0  0  0  0  0
  149.8916  134.4844  155.7952 H   0  0  0  0  0  0  0  0  0  0  0  0
  149.8410  134.0276  154.1068 H   0  0  0  0  0  0  0  0  0  0  0  0
  149.7008  136.5199  153.6379 H   0  0  0  0  0  0  0  0  0  0  0  0
  152.2221  138.5116  155.2511 H   0  0  0  0  0  0  0  0  0  0  0  0
  151.7766  138.0028  153.6306 H   0  0  0  0  0  0  0  0  0  0  0  0
  148.6477  138.0189  153.8382 H   0  0  0  0  0  0  0  0  0  0  0  0
  149.0396  141.8653  155.2692 H   0  0  0  0  0  0  0  0  0  0  0  0
  145.5544  133.1996  154.6227 H   0  0  0  0  0  0  0  0  0  0  0  0
  144.1719  133.7642  153.7291 H   0  0  0  0  0  0  0  0  0  0  0  0
  145.1360  131.8056  152.6033 H   0  0  0  0  0  0  0  0  0  0  0  0
  146.7060  132.5632  152.5200 H   0  0  0  0  0  0  0  0  0  0  0  0
  1  2  1  0  0  0  0
  1 21  1  0  0  0  0
  1 22  1  0  0  0  0
  1 23  1  0  0  0  0
  2 20  1  0  0  0  0
  2  3  1  0  0  0  0
  2 24  1  0  0  0  0
  3  4  1  0  0  0  0
  3 25  1  0  0  0  0
  3 26  1  0  0  0  0
  4  5  1  0  0  0  0
  4 27  1  0  0  0  0
  4 28  1  0  0  0  0
  5  6  1  0  0  0  0
  5 19  1  0  0  0  0
  5 29  1  0  0  0  0
  6  7  1  0  0  0  0
  6 30  1  0  0  0  0
  7  8  2  0  0  0  0
  7  9  1  0  0  0  0
  9 10  1  0  0  0  0
  9 31  1  0  0  0  0
  9 32  1  0  0  0  0
 10 11  1  0  0  0  0
 10 33  1  0  0  0  0
 11 12  2  0  0  0  0
 11 13  1  0  0  0  0
 13 14  1  0  0  0  0
 13 34  1  0  0  0  0
 13 35  1  0  0  0  0
 14 18  1  0  0  0  0
 14 15  1  0  0  0  0
 15 16  2  0  0  0  0
 15 36  1  0  0  0  0
 16 17  1  0  0  0  0
 17 18  2  0  0  0  0
 17 37  1  0  0  0  0
 19 20  1  0  0  0  0
 19 38  1  0  0  0  0
 19 39  1  0  0  0  0
 20 40  1  0  0  0  0
 20 41  1  0  0  0  0
M  END
> <s_m_source_file>
AV-unprocessed.smi

> <i_m_source_file_index>
1440

> <i_lp_mmshare_version>
43012

> <i_f3d_flags>
0

> <s_epik_input>
W0NIM11bQ0BASF0xW0NIMl1bQ0gyXVtDQEhdKFtDSDJdW0NIMl0xKVtOSF1DKD1PKVtDSDJdW05IXUMoPU8pW0NIMl1uMltjSF1uW2NIXW4y

> <s_epik_cmdline>
J2VwaWtfcHl0aG9uJywgJy1waCcsICc3LjAnLCAnLXRuJywgJzgnLCAnLW1hJywgJzIwMCcsICctbWV0YWxfYmluZGluZycsICctaW1hZScsICc8aW5maWxlLm1hZT4nLCAnLW9tYWUnLCAnPG91dGZpbGUubWFlPic=

> <r_lp_tautomer_probability>
1

> <r_epik_Ionization_Penalty>
7.34071e-06

> <r_epik_Ionization_Penalty_Charging>
0

> <r_epik_Ionization_Penalty_Neutral>
7.34071e-06

> <r_epik_State_Penalty>
-0

> <r_epik_Charging_Adjusted_Penalty>
0

> <i_epik_Tot_Q>
0

> <i_epik_Tot_abs_Q>
0

> <r_epik_Metal_State_Penalty>
-0

> <b_epik_Metal_Only>
0

> <s_lp_Force_Field>
OPLS_2005

> <r_lp_Energy>
6.43363

> <b_lp_Chiralities_Consistent>
1

> <s_lp_Variant>
AV-unprocessed.smi:1440-2

> <Gold.Version>
5.8.1

> <Gold.Id.Protein>
6NUR|6NUR_protein|mol2

> <Gold.PLP.Fitness>
44.5635

> <Gold.PLP.PLP>
-30.7939

> <Gold.PLP.part.hbond>
-5.0000

> <Gold.PLP.part.metal>
0.0000

> <Gold.PLP.part.buried>
-2.4298

> <Gold.PLP.part.nonpolar>
-23.5057

> <Gold.PLP.part.repulsive>
0.3027

> <Gold.PLP.ligand.clash>
0.0000

> <Gold.PLP.ligand.torsion>
0.2754

> <Gold.PLP.Chemscore.Hbond>
3.7600

> <Gold.PLP.Chemscore.CHOScore>
1.0064

> <Gold.PLP.Chemscore.Metal>
0.0000

> <Gold.Chemscore.Hbonds>
donor molecule, donor type, donor heavy atom, donor atom, acceptor molecule, acceptor atom, score
      L1  H     6    30       P1  7948  1.00
      L1  H    10    33       P1  7948  0.91
      P1  H  7989  7998       L1    18  0.51
      P1  H 10752 10763       L1    12  0.27
      L1  C    15    36       P1  7948  0.66
      L1  C    17    37       P1  8028  0.13

> <Gold.PLP.Chemscore.Internal.Correction>
0.0210

> <Gold.Rescore>
     Score         DG    S(hbond)    S(metal)    S(lipo)     H(rot)  DE(clash)    DE(int)     intcor
     11.19     -11.44       2.29        0.00      48.10       2.86       0.01       0.25       ----

> <Gold.Chemscore.Fitness>
11.1908

> <Gold.Chemscore.DG>
-11.4430

> <Gold.Chemscore.ZeroCoef>
-5.4800

> <Gold.Chemscore.Hbond>
2.2940

> <Gold.Chemscore.Metal>
0.0000

> <Gold.Chemscore.Lipo>
48.1035

> <Gold.Chemscore.Internal_Hbond>
0.0000

> <Gold.Chemscore.DEClash>
0.0053

> <Gold.Chemscore.DEInternal>
0.2470

> <Gold.Chemscore.Rot>
2.8621

> <Gold.Chemscore.Internal.Correction>
   9.000000E+99

> <Gold.Chemscore.Hbonds>
donor molecule, donor type, donor heavy atom, donor atom, acceptor molecule, acceptor atom, score
      L1  H     6    30       P1  7948  0.99
      L1  H    10    33       P1  7948  0.45
      P1  H  7989  7998       L1    18  0.02
      P1  H 10752 10763       L1    12  0.02

> <Gold.Chemscore.Hbond.Weighted>
-7.6619

> <Gold.Chemscore.Metal.Weighted>
-0.0000

> <Gold.Chemscore.Lipo.Weighted>
-5.6281

> <Gold.Chemscore.Internal_Hbond.Weighted>
0.0000

> <Gold.Chemscore.DEClash.Weighted>
0.0053

> <Gold.Chemscore.DEInternal.Weighted>
0.2470

> <Gold.Chemscore.Rot.Weighted>
7.3270

> <Gold.Chemscore.Internal.Correction.Weighted>
   9.000000E+99

> <Gold.Protein.RotatedTorsions>
[ 6907 6896 6895 6894 ] final    5.57 input  -60.11 | X-H torsion
[ 7974 7965 7964 7962 ] final  -17.32 input  175.53 | X-H torsion
[ 8008 7997 7996 7995 ] final   89.78 input   59.86 | X-H torsion
[ 10167 10162 10161 10158 ] final  116.53 input  -65.29 | X-H torsion
[ 10718 10713 10712 10709 ] final -158.76 input   66.30 | X-H torsion
[ 10763 10752 10751 10750 ] final   96.67 input  -60.55 | X-H torsion
[ 11005 11000 10999 10996 ] final   73.83 input  -57.11 | X-H torsion

> <Gold.Protein.ActiveResidues>
 VAL166  LYS551  ARG553  GLY616  TRP617  ASP618  TYR619  PRO620  LYS621  CYS622 
 ASP623  PHE694  ASN695  SER759  ASP760  ASP761  ALA762  ILE779  LEU786  VAL792 
 PHE793  MET794  SER795  GLU796  ALA797  LYS798  CYS799  TRP800  GLU811  SER814 

> <Gold.Protein.RotatedAtoms>
  151.6596  135.0991  160.0176 H   0  0  0  0  0  0  0  0  0  0  0  0  # atno 6907 bound_to 6896
  152.3954  133.6735  159.6280 H   0  0  0  0  0  0  0  0  0  0  0  0  # atno 6908 bound_to 6896
  150.7862  133.8800  159.3324 H   0  0  0  0  0  0  0  0  0  0  0  0  # atno 6909 bound_to 6896
  146.1946  140.3762  142.8445 H   0  0  0  0  0  0  0  0  0  0  0  0  # atno 7974 bound_to 7965
  156.0041  140.3357  155.6875 H   0  0  0  0  0  0  0  0  0  0  0  0  # atno 8008 bound_to 7997
  155.6249  140.0679  157.2685 H   0  0  0  0  0  0  0  0  0  0  0  0  # atno 8009 bound_to 7997
  154.4259  140.1770  156.1398 H   0  0  0  0  0  0  0  0  0  0  0  0  # atno 8010 bound_to 7997
  139.6241  144.7106  151.2571 H   0  0  0  0  0  0  0  0  0  0  0  0  # atno 10167 bound_to 10162
  156.5586  130.8637  151.2802 H   0  0  0  0  0  0  0  0  0  0  0  0  # atno 10718 bound_to 10713
  153.2678  135.4210  155.0957 H   0  0  0  0  0  0  0  0  0  0  0  0  # atno 10763 bound_to 10752
  154.8444  135.3464  154.6287 H   0  0  0  0  0  0  0  0  0  0  0  0  # atno 10764 bound_to 10752
  153.6707  135.7044  153.5205 H   0  0  0  0  0  0  0  0  0  0  0  0  # atno 10765 bound_to 10752
  139.9420  134.7381  156.1074 H   0  0  0  0  0  0  0  0  0  0  0  0  # atno 11005 bound_to 11000
  144.8555  140.7064  143.6141 LP  0  0  0  0  0  0  0  0  0  0  0  0  # atno 17320 bound_to 7965
  145.3683  139.1665  143.4346 LP  0  0  0  0  0  0  0  0  0  0  0  0  # atno 17321 bound_to 7965
  140.7400  143.6601  150.8172 LP  0  0  0  0  0  0  0  0  0  0  0  0  # atno 17342 bound_to 10162
  140.0216  143.5537  152.2798 LP  0  0  0  0  0  0  0  0  0  0  0  0  # atno 17343 bound_to 10162
  157.7373  130.9794  150.2186 LP  0  0  0  0  0  0  0  0  0  0  0  0  # atno 17370 bound_to 10713
  156.2820  130.3734  149.7926 LP  0  0  0  0  0  0  0  0  0  0  0  0  # atno 17371 bound_to 10713
  141.1058  133.6660  156.2861 LP  0  0  0  0  0  0  0  0  0  0  0  0  # atno 17394 bound_to 11000
  140.5927  134.5634  157.5502 LP  0  0  0  0  0  0  0  0  0  0  0  0  # atno 17395 bound_to 11000

$$$$
