AV-unprocessed.smi:2066|AV-procd|sdf|8422|dock7
  -GOLD-   2272011113D 1   1.00000     0.00000
 Structure written by MMmdl.
 39 40  0  0  0  0  0  0  0  0  3 V2000
  149.7029  138.4070  155.0641 C   0  0  0  0  0  0  0  0  0  0  0  0
  150.3285  136.9925  155.1574 C   0  0  0  0  0  0  0  0  0  0  0  0
  151.6194  137.0399  154.3014 C   0  0  0  0  0  0  0  0  0  0  0  0
  150.6911  136.6459  156.6334 C   0  0  0  0  0  0  0  0  0  0  0  0
  149.6220  136.9551  157.5821 N   0  0  0  0  0  0  0  0  0  0  0  0
  149.0276  136.0948  158.4213 C   0  0  0  0  0  0  0  0  0  0  0  0
  149.3814  134.9139  158.4476 O   0  0  0  0  0  0  0  0  0  0  0  0
  148.0509  136.6555  159.1686 N   0  5  0  0  0  0  0  0  0  0  0  0
  147.7308  136.1248  160.3601 C   0  0  0  0  0  0  0  0  0  0  0  0
  147.6742  136.8417  161.4883 N   0  0  0  0  0  0  0  0  0  0  0  0
  147.3200  136.0868  162.6080 C   0  0  0  0  0  0  0  0  0  0  0  0
  147.0913  134.7666  162.3236 C   0  0  0  0  0  0  0  0  0  0  0  0
  147.3168  134.4296  160.6310 S   0  0  0  0  0  0  0  0  0  0  0  0
  149.3652  135.9871  154.5802 N   0  3  0  0  0  0  0  0  0  0  0  0
  149.8104  134.5652  154.6106 C   0  0  0  0  0  0  0  0  0  0  0  0
  148.8308  133.6757  153.8268 C   0  0  0  0  0  0  0  0  0  0  0  0
  147.5238  133.8054  154.3677 O   0  0  0  0  0  0  0  0  0  0  0  0
  147.0453  135.1392  154.2689 C   0  0  0  0  0  0  0  0  0  0  0  0
  147.9607  136.0780  155.0716 C   0  0  0  0  0  0  0  0  0  0  0  0
  150.4360  139.1878  155.2692 H   0  0  0  0  0  0  0  0  0  0  0  0
  148.8973  138.5533  155.7830 H   0  0  0  0  0  0  0  0  0  0  0  0
  149.3047  138.6017  154.0677 H   0  0  0  0  0  0  0  0  0  0  0  0
  152.2492  137.8895  154.5682 H   0  0  0  0  0  0  0  0  0  0  0  0
  151.3896  137.1343  153.2394 H   0  0  0  0  0  0  0  0  0  0  0  0
  152.2386  136.1534  154.4356 H   0  0  0  0  0  0  0  0  0  0  0  0
  150.9769  135.5990  156.7358 H   0  0  0  0  0  0  0  0  0  0  0  0
  151.5582  137.2214  156.9552 H   0  0  0  0  0  0  0  0  0  0  0  0
  149.2972  137.9108  157.6029 H   0  0  0  0  0  0  0  0  0  0  0  0
  147.2530  136.5721  163.5702 H   0  0  0  0  0  0  0  0  0  0  0  0
  146.8052  133.9764  163.0011 H   0  0  0  0  0  0  0  0  0  0  0  0
  150.7944  134.4421  154.1630 H   0  0  0  0  0  0  0  0  0  0  0  0
  149.8773  134.2120  155.6398 H   0  0  0  0  0  0  0  0  0  0  0  0
  148.8278  133.9386  152.7675 H   0  0  0  0  0  0  0  0  0  0  0  0
  149.1372  132.6317  153.8933 H   0  0  0  0  0  0  0  0  0  0  0  0
  146.9915  135.4459  153.2231 H   0  0  0  0  0  0  0  0  0  0  0  0
  146.0301  135.1779  154.6640 H   0  0  0  0  0  0  0  0  0  0  0  0
  147.9092  135.8082  156.1265 H   0  0  0  0  0  0  0  0  0  0  0  0
  147.5674  137.0884  154.9790 H   0  0  0  0  0  0  0  0  0  0  0  0
  149.3158  136.2243  153.5999 H   0  0  0  0  0  0  0  0  0  0  0  0
  1  2  1  0  0  0  0
  1 20  1  0  0  0  0
  1 21  1  0  0  0  0
  1 22  1  0  0  0  0
  2  3  1  0  0  0  0
  2  4  1  0  0  0  0
  2 14  1  0  0  0  0
  3 23  1  0  0  0  0
  3 24  1  0  0  0  0
  3 25  1  0  0  0  0
  4  5  1  0  0  0  0
  4 26  1  0  0  0  0
  4 27  1  0  0  0  0
  5  6  1  0  0  0  0
  5 28  1  0  0  0  0
  6  7  2  0  0  0  0
  6  8  1  0  0  0  0
  8  9  1  0  0  0  0
  9 13  1  0  0  0  0
  9 10  2  0  0  0  0
 10 11  1  0  0  0  0
 11 12  2  0  0  0  0
 11 29  1  0  0  0  0
 12 13  1  0  0  0  0
 12 30  1  0  0  0  0
 14 19  1  0  0  0  0
 14 15  1  0  0  0  0
 14 39  1  0  0  0  0
 15 16  1  0  0  0  0
 15 31  1  0  0  0  0
 15 32  1  0  0  0  0
 16 17  1  0  0  0  0
 16 33  1  0  0  0  0
 16 34  1  0  0  0  0
 17 18  1  0  0  0  0
 18 19  1  0  0  0  0
 18 35  1  0  0  0  0
 18 36  1  0  0  0  0
 19 37  1  0  0  0  0
 19 38  1  0  0  0  0
M  CHG  1   8  -1
M  CHG  1  14   1
M  END
> <s_m_source_file>
AV-unprocessed.smi

> <i_m_source_file_index>
2066

> <i_lp_mmshare_version>
43012

> <i_f3d_flags>
0

> <s_epik_input>
W0NIMl0xW0NIMl1PW0NIMl1bQ0gyXU4xQyhbQ0gzXSkoW0NIM10pW0NIMl1bTkhdQyg9TylbTkhdYzJuW2NIXVtjSF1zMg==

> <s_epik_cmdline>
J2VwaWtfcHl0aG9uJywgJy1waCcsICc3LjAnLCAnLXRuJywgJzgnLCAnLW1hJywgJzIwMCcsICctbWV0YWxfYmluZGluZycsICctaW1hZScsICc8aW5maWxlLm1hZT4nLCAnLW9tYWUnLCAnPG91dGZpbGUubWFlPic=

> <r_lp_tautomer_probability>
0.999

> <r_epik_Ionization_Penalty>
6.71078

> <r_epik_Ionization_Penalty_Charging>
5.8797

> <r_epik_Ionization_Penalty_Neutral>
0.831074

> <r_epik_State_Penalty>
6.07743

> <r_epik_Charging_Adjusted_Penalty>
11.9571

> <i_epik_Tot_Q>
0

> <i_epik_Tot_abs_Q>
2

> <r_epik_Metal_State_Penalty>
2.08929

> <b_epik_Metal_Only>
1

> <s_lp_Force_Field>
OPLS_2005

> <r_lp_Energy>
15.1529

> <b_lp_Chiralities_Consistent>
1

> <s_lp_Variant>
AV-unprocessed.smi:2066-4

> <Gold.Version>
5.8.1

> <Gold.Id.Protein>
6NUR|6NUR_protein|mol2

> <Gold.PLP.Fitness>
43.4946

> <Gold.PLP.PLP>
-30.7039

> <Gold.PLP.part.hbond>
-4.0000

> <Gold.PLP.part.metal>
0.0000

> <Gold.PLP.part.buried>
-4.2702

> <Gold.PLP.part.nonpolar>
-22.7829

> <Gold.PLP.part.repulsive>
0.1473

> <Gold.PLP.ligand.clash>
0.0000

> <Gold.PLP.ligand.torsion>
0.9271

> <Gold.PLP.Chemscore.Hbond>
4.8240

> <Gold.PLP.Chemscore.CHOScore>
0.0000

> <Gold.PLP.Chemscore.Metal>
0.0000

> <Gold.Chemscore.Hbonds>
donor molecule, donor type, donor heavy atom, donor atom, acceptor molecule, acceptor atom, score
      L1  H    14    39       P1  7948  2.00
      P1  H  6896  6909       L1     7  0.96
      P1  H  6931  6943       L1    10  1.00
      P1  H  6934  6947       L1    10  0.28

> <Gold.PLP.Chemscore.Internal.Correction>
0.1729

> <Gold.Rescore>
     Score         DG    S(hbond)    S(metal)    S(lipo)     H(rot)  DE(clash)    DE(int)     intcor
     17.63     -18.69       3.01        0.00      61.74       1.59       0.10       0.95       ----

> <Gold.Chemscore.Fitness>
17.6337

> <Gold.Chemscore.DG>
-18.6899

> <Gold.Chemscore.ZeroCoef>
-5.4800

> <Gold.Chemscore.Hbond>
3.0130

> <Gold.Chemscore.Metal>
0.0000

> <Gold.Chemscore.Lipo>
61.7403

> <Gold.Chemscore.Internal_Hbond>
0.0000

> <Gold.Chemscore.DEClash>
0.1020

> <Gold.Chemscore.DEInternal>
0.9542

> <Gold.Chemscore.Rot>
1.5926

> <Gold.Chemscore.Internal.Correction>
   9.000000E+99

> <Gold.Chemscore.Hbonds>
donor molecule, donor type, donor heavy atom, donor atom, acceptor molecule, acceptor atom, score
      L1  H    14    39       P1  7948  0.82
      P1  H  6896  6909       L1     7  0.72
      P1  H  6931  6943       L1    10  0.77
      P1  H  6934  6947       L1    10  0.19

> <Gold.Chemscore.Hbond.Weighted>
-10.0633

> <Gold.Chemscore.Metal.Weighted>
-0.0000

> <Gold.Chemscore.Lipo.Weighted>
-7.2236

> <Gold.Chemscore.Internal_Hbond.Weighted>
0.0000

> <Gold.Chemscore.DEClash.Weighted>
0.1020

> <Gold.Chemscore.DEInternal.Weighted>
0.9542

> <Gold.Chemscore.Rot.Weighted>
4.0770

> <Gold.Chemscore.Internal.Correction.Weighted>
   9.000000E+99

> <Gold.Protein.RotatedTorsions>
[ 6907 6896 6895 6894 ] final   58.61 input  -60.11 | X-H torsion
[ 7974 7965 7964 7962 ] final -108.62 input  175.53 | X-H torsion
[ 8008 7997 7996 7995 ] final   75.53 input   59.86 | X-H torsion
[ 10167 10162 10161 10158 ] final  -76.96 input  -65.29 | X-H torsion
[ 10718 10713 10712 10709 ] final -154.42 input   66.30 | X-H torsion
[ 10763 10752 10751 10750 ] final -157.82 input  -60.55 | X-H torsion
[ 11005 11000 10999 10996 ] final  176.29 input  -57.11 | X-H torsion

> <Gold.Protein.ActiveResidues>
 VAL166  LYS551  ARG553  GLY616  TRP617  ASP618  TYR619  PRO620  LYS621  CYS622 
 ASP623  PHE694  ASN695  SER759  ASP760  ASP761  ALA762  ILE779  LEU786  VAL792 
 PHE793  MET794  SER795  GLU796  ALA797  LYS798  CYS799  TRP800  GLU811  SER814 

> <Gold.Protein.RotatedAtoms>
  152.3840  134.6546  160.0132 H   0  0  0  0  0  0  0  0  0  0  0  0  # atno 6907 bound_to 6896
  151.6800  133.3306  159.3225 H   0  0  0  0  0  0  0  0  0  0  0  0  # atno 6908 bound_to 6896
  150.7771  134.6725  159.6444 H   0  0  0  0  0  0  0  0  0  0  0  0  # atno 6909 bound_to 6896
  145.1906  140.9013  143.3426 H   0  0  0  0  0  0  0  0  0  0  0  0  # atno 7974 bound_to 7965
  155.8143  140.3472  155.5476 H   0  0  0  0  0  0  0  0  0  0  0  0  # atno 8008 bound_to 7997
  155.8408  140.0941  157.1755 H   0  0  0  0  0  0  0  0  0  0  0  0  # atno 8009 bound_to 7997
  154.4005  140.1394  156.3714 H   0  0  0  0  0  0  0  0  0  0  0  0  # atno 8010 bound_to 7997
  140.4812  143.2402  151.8055 H   0  0  0  0  0  0  0  0  0  0  0  0  # atno 10167 bound_to 10162
  156.4990  130.8383  151.2601 H   0  0  0  0  0  0  0  0  0  0  0  0  # atno 10718 bound_to 10713
  154.7606  135.3116  154.8386 H   0  0  0  0  0  0  0  0  0  0  0  0  # atno 10763 bound_to 10752
  153.9148  135.6802  153.4754 H   0  0  0  0  0  0  0  0  0  0  0  0  # atno 10764 bound_to 10752
  153.1206  135.4824  154.9120 H   0  0  0  0  0  0  0  0  0  0  0  0  # atno 10765 bound_to 10752
  140.3715  134.7026  157.4395 H   0  0  0  0  0  0  0  0  0  0  0  0  # atno 11005 bound_to 11000
  145.0045  139.3567  143.6151 LP  0  0  0  0  0  0  0  0  0  0  0  0  # atno 17320 bound_to 7965
  146.3437  139.9281  142.8757 LP  0  0  0  0  0  0  0  0  0  0  0  0  # atno 17321 bound_to 7965
  139.4834  144.4770  151.9354 LP  0  0  0  0  0  0  0  0  0  0  0  0  # atno 17342 bound_to 10162
  140.3856  144.2681  150.5904 LP  0  0  0  0  0  0  0  0  0  0  0  0  # atno 17343 bound_to 10162
  157.7465  130.9988  150.2865 LP  0  0  0  0  0  0  0  0  0  0  0  0  # atno 17370 bound_to 10713
  156.3351  130.3806  149.7457 LP  0  0  0  0  0  0  0  0  0  0  0  0  # atno 17371 bound_to 10713
  140.0548  134.6079  155.8818 LP  0  0  0  0  0  0  0  0  0  0  0  0  # atno 17394 bound_to 11000
  141.1953  133.6586  156.5636 LP  0  0  0  0  0  0  0  0  0  0  0  0  # atno 17395 bound_to 11000

$$$$
