AV-unprocessed.smi:3172|AV-procd|sdf|12116|dock3
  -GOLD-   2272017553D 1   1.00000     0.00000
 Structure written by MMmdl.
 43 44  0  0  0  0  0  0  0  0  2 V2000
  144.0961  143.6796  155.5383 C   0  0  0  0  0  0  0  0  0  0  0  0
  145.3876  142.9658  155.7923 C   0  0  0  0  0  0  0  0  0  0  0  0
  145.6727  142.4058  157.0350 N   0  0  0  0  0  0  0  0  0  0  0  0
  146.8755  141.8734  156.8736 C   0  0  0  0  0  0  0  0  0  0  0  0
  147.3995  142.0412  155.6512 N   0  0  0  0  0  0  0  0  0  0  0  0
  148.6972  141.5711  155.1952 C   0  0  0  0  0  0  0  0  0  0  0  0
  149.7262  141.4348  156.3361 C   0  0  1  0  0  0  0  0  0  0  0  0
  151.1284  141.0452  155.8372 C   0  0  0  0  0  0  0  0  0  0  0  0
  149.7947  142.7063  157.0912 N   0  3  0  0  0  0  0  0  0  0  0  0
  151.0404  142.9411  157.8559 C   0  0  0  0  0  0  0  0  0  0  0  0
  151.2626  141.7873  158.8524 C   0  0  0  0  0  0  0  0  0  0  0  0
  152.5352  141.9980  159.6883 C   0  0  0  0  0  0  0  0  0  0  0  0
  152.5004  143.3475  160.4216 C   0  0  0  0  0  0  0  0  0  0  0  0
  152.2806  144.5065  159.4369 C   0  0  0  0  0  0  0  0  0  0  0  0
  151.0089  144.2945  158.5992 C   0  0  0  0  0  0  0  0  0  0  0  0
  146.4382  142.7443  154.9270 C   0  0  0  0  0  0  0  0  0  0  0  0
  146.6016  143.1404  153.4944 C   0  0  0  0  0  0  0  0  0  0  0  0
  143.5082  143.1666  154.7769 H   0  0  0  0  0  0  0  0  0  0  0  0
  144.2725  144.6980  155.1909 H   0  0  0  0  0  0  0  0  0  0  0  0
  143.4856  143.7404  156.4401 H   0  0  0  0  0  0  0  0  0  0  0  0
  147.3914  141.3535  157.6678 H   0  0  0  0  0  0  0  0  0  0  0  0
  148.5587  140.6096  154.6978 H   0  0  0  0  0  0  0  0  0  0  0  0
  149.0638  142.2594  154.4328 H   0  0  0  0  0  0  0  0  0  0  0  0
  149.3802  140.6439  157.0019 H   0  0  0  0  0  0  0  0  0  0  0  0
  151.1234  140.0689  155.3518 H   0  0  0  0  0  0  0  0  0  0  0  0
  151.8404  140.9890  156.6609 H   0  0  0  0  0  0  0  0  0  0  0  0
  151.5097  141.7721  155.1194 H   0  0  0  0  0  0  0  0  0  0  0  0
  149.6470  143.4769  156.4552 H   0  0  0  0  0  0  0  0  0  0  0  0
  151.8746  142.9391  157.1521 H   0  0  0  0  0  0  0  0  0  0  0  0
  150.4031  141.7025  159.5193 H   0  0  0  0  0  0  0  0  0  0  0  0
  151.3322  140.8396  158.3170 H   0  0  0  0  0  0  0  0  0  0  0  0
  152.6460  141.1867  160.4081 H   0  0  0  0  0  0  0  0  0  0  0  0
  153.4110  141.9568  159.0393 H   0  0  0  0  0  0  0  0  0  0  0  0
  151.7008  143.3408  161.1634 H   0  0  0  0  0  0  0  0  0  0  0  0
  153.4307  143.4967  160.9704 H   0  0  0  0  0  0  0  0  0  0  0  0
  152.2146  145.4488  159.9815 H   0  0  0  0  0  0  0  0  0  0  0  0
  153.1437  144.5921  158.7755 H   0  0  0  0  0  0  0  0  0  0  0  0
  150.9090  145.1187  157.8925 H   0  0  0  0  0  0  0  0  0  0  0  0
  150.1347  144.3388  159.2505 H   0  0  0  0  0  0  0  0  0  0  0  0
  145.6637  143.5126  153.0822 H   0  0  0  0  0  0  0  0  0  0  0  0
  146.9156  142.2927  152.8853 H   0  0  0  0  0  0  0  0  0  0  0  0
  147.3454  143.9302  153.3910 H   0  0  0  0  0  0  0  0  0  0  0  0
  149.0347  142.6973  157.7564 H   0  0  0  0  0  0  0  0  0  0  0  0
  1  2  1  0  0  0  0
  1 18  1  0  0  0  0
  1 19  1  0  0  0  0
  1 20  1  0  0  0  0
  2 16  2  0  0  0  0
  2  3  1  0  0  0  0
  3  4  2  0  0  0  0
  4  5  1  0  0  0  0
  4 21  1  0  0  0  0
  5  6  1  0  0  0  0
  5 16  1  0  0  0  0
  6  7  1  0  0  0  0
  6 22  1  0  0  0  0
  6 23  1  0  0  0  0
  7  8  1  0  0  0  0
  7  9  1  0  0  0  0
  7 24  1  0  0  0  0
  8 25  1  0  0  0  0
  8 26  1  0  0  0  0
  8 27  1  0  0  0  0
  9 10  1  0  0  0  0
  9 28  1  0  0  0  0
  9 43  1  0  0  0  0
 10 15  1  0  0  0  0
 10 11  1  0  0  0  0
 10 29  1  0  0  0  0
 11 12  1  0  0  0  0
 11 30  1  0  0  0  0
 11 31  1  0  0  0  0
 12 13  1  0  0  0  0
 12 32  1  0  0  0  0
 12 33  1  0  0  0  0
 13 14  1  0  0  0  0
 13 34  1  0  0  0  0
 13 35  1  0  0  0  0
 14 15  1  0  0  0  0
 14 36  1  0  0  0  0
 14 37  1  0  0  0  0
 15 38  1  0  0  0  0
 15 39  1  0  0  0  0
 16 17  1  0  0  0  0
 17 40  1  0  0  0  0
 17 41  1  0  0  0  0
 17 42  1  0  0  0  0
M  CHG  1   9   1
M  END
> <s_m_source_file>
AV-unprocessed.smi

> <i_m_source_file_index>
3172

> <i_lp_mmshare_version>
43012

> <i_f3d_flags>
0

> <s_epik_input>
W0NIM11jMW5bY0hdbihjMVtDSDNdKVtDSDJdW0NASF0oW0NIM10pW05IXVtDSF0yW0NIMl1bQ0gyXVtDSDJdW0NIMl1bQ0gyXTI=

> <s_epik_cmdline>
J2VwaWtfcHl0aG9uJywgJy1waCcsICc3LjAnLCAnLXRuJywgJzgnLCAnLW1hJywgJzIwMCcsICctbWV0YWxfYmluZGluZycsICctaW1hZScsICc8aW5maWxlLm1hZT4nLCAnLW9tYWUnLCAnPG91dGZpbGUubWFlPic=

> <r_lp_tautomer_probability>
1

> <r_epik_Ionization_Penalty>
0.328572

> <r_epik_Ionization_Penalty_Charging>
0.328572

> <r_epik_Ionization_Penalty_Neutral>
3.58496e-13

> <r_epik_State_Penalty>
0.596179

> <r_epik_Charging_Adjusted_Penalty>
0.924751

> <i_epik_Tot_Q>
1

> <i_epik_Tot_abs_Q>
1

> <r_epik_Metal_State_Penalty>
0.00102252

> <b_epik_Metal_Only>
0

> <s_lp_Force_Field>
OPLS_2005

> <r_lp_Energy>
17.121

> <b_lp_Chiralities_Consistent>
1

> <s_lp_Variant>
AV-unprocessed.smi:3172-4

> <Gold.Version>
5.8.1

> <Gold.Id.Protein>
6NUR|6NUR_protein|mol2

> <Gold.PLP.Fitness>
42.8045

> <Gold.PLP.PLP>
-38.0885

> <Gold.PLP.part.hbond>
-1.0000

> <Gold.PLP.part.metal>
0.0000

> <Gold.PLP.part.buried>
-5.0825

> <Gold.PLP.part.nonpolar>
-32.2490

> <Gold.PLP.part.repulsive>
0.0912

> <Gold.PLP.ligand.clash>
0.0000

> <Gold.PLP.ligand.torsion>
0.6588

> <Gold.PLP.Chemscore.Hbond>
2.0000

> <Gold.PLP.Chemscore.CHOScore>
0.0000

> <Gold.PLP.Chemscore.Metal>
0.0000

> <Gold.Chemscore.Hbonds>
donor molecule, donor type, donor heavy atom, donor atom, acceptor molecule, acceptor atom, score
      L1  H     9    28       P1  8028  2.00

> <Gold.PLP.Chemscore.Internal.Correction>
0.0335

> <Gold.Rescore>
     Score         DG    S(hbond)    S(metal)    S(lipo)     H(rot)  DE(clash)    DE(int)     intcor
     16.03     -16.60       0.99        0.00      99.51       1.50       0.08       0.50       ----

> <Gold.Chemscore.Fitness>
16.0306

> <Gold.Chemscore.DG>
-16.6018

> <Gold.Chemscore.ZeroCoef>
-5.4800

> <Gold.Chemscore.Hbond>
0.9936

> <Gold.Chemscore.Metal>
0.0000

> <Gold.Chemscore.Lipo>
99.5119

> <Gold.Chemscore.Internal_Hbond>
0.0000

> <Gold.Chemscore.DEClash>
0.0756

> <Gold.Chemscore.DEInternal>
0.4956

> <Gold.Chemscore.Rot>
1.4999

> <Gold.Chemscore.Internal.Correction>
   9.000000E+99

> <Gold.Chemscore.Hbonds>
donor molecule, donor type, donor heavy atom, donor atom, acceptor molecule, acceptor atom, score
      L1  H     9    28       P1  8028  0.99

> <Gold.Chemscore.Hbond.Weighted>
-3.3186

> <Gold.Chemscore.Metal.Weighted>
-0.0000

> <Gold.Chemscore.Lipo.Weighted>
-11.6429

> <Gold.Chemscore.Internal_Hbond.Weighted>
0.0000

> <Gold.Chemscore.DEClash.Weighted>
0.0756

> <Gold.Chemscore.DEInternal.Weighted>
0.4956

> <Gold.Chemscore.Rot.Weighted>
3.8397

> <Gold.Chemscore.Internal.Correction.Weighted>
   9.000000E+99

> <Gold.Protein.RotatedTorsions>
[ 6907 6896 6895 6894 ] final -176.30 input  -60.11 | X-H torsion
[ 7974 7965 7964 7962 ] final   -9.78 input  175.53 | X-H torsion
[ 8008 7997 7996 7995 ] final   21.29 input   59.86 | X-H torsion
[ 10167 10162 10161 10158 ] final -145.45 input  -65.29 | X-H torsion
[ 10718 10713 10712 10709 ] final  159.03 input   66.30 | X-H torsion
[ 10763 10752 10751 10750 ] final  144.94 input  -60.55 | X-H torsion
[ 11005 11000 10999 10996 ] final -178.76 input  -57.11 | X-H torsion

> <Gold.Protein.ActiveResidues>
 VAL166  LYS551  ARG553  GLY616  TRP617  ASP618  TYR619  PRO620  LYS621  CYS622 
 ASP623  PHE694  ASN695  SER759  ASP760  ASP761  ALA762  ILE779  LEU786  VAL792 
 PHE793  MET794  SER795  GLU796  ALA797  LYS798  CYS799  TRP800  GLU811  SER814 

> <Gold.Protein.RotatedAtoms>
  151.6025  133.3355  159.3050 H   0  0  0  0  0  0  0  0  0  0  0  0  # atno 6907 bound_to 6896
  150.8200  134.7406  159.6775 H   0  0  0  0  0  0  0  0  0  0  0  0  # atno 6908 bound_to 6896
  152.4294  134.5812  160.0000 H   0  0  0  0  0  0  0  0  0  0  0  0  # atno 6909 bound_to 6896
  146.2241  140.2667  142.8354 H   0  0  0  0  0  0  0  0  0  0  0  0  # atno 7974 bound_to 7965
  154.9483  140.3062  155.5087 H   0  0  0  0  0  0  0  0  0  0  0  0  # atno 8008 bound_to 7997
  156.2989  140.2323  156.4496 H   0  0  0  0  0  0  0  0  0  0  0  0  # atno 8009 bound_to 7997
  154.8079  140.0430  157.1309 H   0  0  0  0  0  0  0  0  0  0  0  0  # atno 8010 bound_to 7997
  139.7805  143.8108  152.2638 H   0  0  0  0  0  0  0  0  0  0  0  0  # atno 10167 bound_to 10162
  157.1698  131.0607  151.2189 H   0  0  0  0  0  0  0  0  0  0  0  0  # atno 10718 bound_to 10713
  153.9972  135.2926  155.3406 H   0  0  0  0  0  0  0  0  0  0  0  0  # atno 10763 bound_to 10752
  154.7180  135.5121  153.8771 H   0  0  0  0  0  0  0  0  0  0  0  0  # atno 10764 bound_to 10752
  153.0782  135.6670  154.0217 H   0  0  0  0  0  0  0  0  0  0  0  0  # atno 10765 bound_to 10752
  140.4262  134.6561  157.4689 H   0  0  0  0  0  0  0  0  0  0  0  0  # atno 11005 bound_to 11000
  144.9298  140.7962  143.5696 LP  0  0  0  0  0  0  0  0  0  0  0  0  # atno 17320 bound_to 7965
  145.2610  139.1992  143.4892 LP  0  0  0  0  0  0  0  0  0  0  0  0  # atno 17321 bound_to 7965
  139.8169  144.7312  150.9623 LP  0  0  0  0  0  0  0  0  0  0  0  0  # atno 17342 bound_to 10162
  140.7818  143.4196  151.0862 LP  0  0  0  0  0  0  0  0  0  0  0  0  # atno 17343 bound_to 10162
  157.4054  130.7356  149.6798 LP  0  0  0  0  0  0  0  0  0  0  0  0  # atno 17370 bound_to 10713
  155.9740  130.4109  150.3956 LP  0  0  0  0  0  0  0  0  0  0  0  0  # atno 17371 bound_to 10713
  140.0166  134.6610  155.9301 LP  0  0  0  0  0  0  0  0  0  0  0  0  # atno 17394 bound_to 11000
  141.1764  133.6541  156.4846 LP  0  0  0  0  0  0  0  0  0  0  0  0  # atno 17395 bound_to 11000

$$$$
