AV-unprocessed.smi:2588|AV-procd|sdf|10148|dock1
  -GOLD-   2272014163D 1   1.00000     0.00000
 Structure written by MMmdl.
 40 41  0  0  0  0  0  0  0  0  2 V2000
  143.6862  135.6197  151.6154 C   0  0  0  0  0  0  0  0  0  0  0  0
  145.1608  135.3591  151.2411 C   0  0  0  0  0  0  0  0  0  0  0  0
  145.5602  133.9692  151.7816 C   0  0  0  0  0  0  0  0  0  0  0  0
  146.0709  136.4527  151.7180 N   0  3  2  0  0  0  0  0  0  0  0  0
  145.9224  136.7437  153.1749 C   0  0  0  0  0  0  0  0  0  0  0  0
  146.9323  137.7949  153.6644 C   0  0  0  0  0  0  0  0  0  0  0  0
  146.8073  139.0976  152.8667 C   0  0  1  0  0  0  0  0  0  0  0  0
  147.8127  140.0567  153.3140 N   0  0  0  0  0  0  0  0  0  0  0  0
  147.8848  140.5802  154.5476 C   0  0  0  0  0  0  0  0  0  0  0  0
  147.0774  140.3139  155.4391 O   0  0  0  0  0  0  0  0  0  0  0  0
  149.0332  141.5686  154.7925 C   0  0  0  0  0  0  0  0  0  0  0  0
  150.1270  141.0014  155.5830 N   0  0  0  0  0  0  0  0  0  0  0  0
  150.9040  140.0427  155.0111 N   0  0  0  0  0  0  0  0  0  0  0  0
  151.8191  139.6400  155.8130 C   0  0  0  0  0  0  0  0  0  0  0  0
  151.8458  140.3985  157.4103 S   0  0  0  0  0  0  0  0  0  0  0  0
  150.4380  141.3653  156.8903 C   0  0  0  0  0  0  0  0  0  0  0  0
  149.8812  142.1948  157.6072 O   0  0  0  0  0  0  0  0  0  0  0  0
  146.9729  138.7772  151.3744 C   0  0  0  0  0  0  0  0  0  0  0  0
  145.9666  137.7084  150.9168 C   0  0  0  0  0  0  0  0  0  0  0  0
  143.0620  134.7591  151.3726 H   0  0  0  0  0  0  0  0  0  0  0  0
  143.2585  136.4590  151.0687 H   0  0  0  0  0  0  0  0  0  0  0  0
  143.5749  135.8131  152.6829 H   0  0  0  0  0  0  0  0  0  0  0  0
  145.2264  135.3192  150.1525 H   0  0  0  0  0  0  0  0  0  0  0  0
  144.8109  133.2186  151.5273 H   0  0  0  0  0  0  0  0  0  0  0  0
  145.6600  133.9763  152.8675 H   0  0  0  0  0  0  0  0  0  0  0  0
  146.4959  133.6120  151.3524 H   0  0  0  0  0  0  0  0  0  0  0  0
  144.9042  137.0802  153.3772 H   0  0  0  0  0  0  0  0  0  0  0  0
  146.0843  135.8474  153.7704 H   0  0  0  0  0  0  0  0  0  0  0  0
  146.7714  137.9904  154.7254 H   0  0  0  0  0  0  0  0  0  0  0  0
  147.9440  137.3961  153.5734 H   0  0  0  0  0  0  0  0  0  0  0  0
  145.8132  139.5156  153.0391 H   0  0  0  0  0  0  0  0  0  0  0  0
  148.5127  140.3347  152.6412 H   0  0  0  0  0  0  0  0  0  0  0  0
  149.4304  141.9081  153.8344 H   0  0  0  0  0  0  0  0  0  0  0  0
  148.6296  142.4527  155.2886 H   0  0  0  0  0  0  0  0  0  0  0  0
  152.5723  138.8813  155.6009 H   0  0  0  0  0  0  0  0  0  0  0  0
  146.8381  139.6802  150.7776 H   0  0  0  0  0  0  0  0  0  0  0  0
  147.9882  138.4279  151.1793 H   0  0  0  0  0  0  0  0  0  0  0  0
  146.1702  137.5179  149.8647 H   0  0  0  0  0  0  0  0  0  0  0  0
  144.9494  138.0980  150.9811 H   0  0  0  0  0  0  0  0  0  0  0  0
  147.0135  136.1133  151.5884 H   0  0  0  0  0  0  0  0  0  0  0  0
  1  2  1  0  0  0  0
  1 20  1  0  0  0  0
  1 21  1  0  0  0  0
  1 22  1  0  0  0  0
  2  3  1  0  0  0  0
  2  4  1  0  0  0  0
  2 23  1  0  0  0  0
  3 24  1  0  0  0  0
  3 25  1  0  0  0  0
  3 26  1  0  0  0  0
  4 19  1  0  0  0  0
  4  5  1  0  0  0  0
  4 40  1  0  0  0  0
  5  6  1  0  0  0  0
  5 27  1  0  0  0  0
  5 28  1  0  0  0  0
  6  7  1  0  0  0  0
  6 29  1  0  0  0  0
  6 30  1  0  0  0  0
  7  8  1  0  0  0  0
  7 18  1  0  0  0  0
  7 31  1  0  0  0  0
  8  9  1  0  0  0  0
  8 32  1  0  0  0  0
  9 10  2  0  0  0  0
  9 11  1  0  0  0  0
 11 12  1  0  0  0  0
 11 33  1  0  0  0  0
 11 34  1  0  0  0  0
 12 16  1  0  0  0  0
 12 13  1  0  0  0  0
 13 14  2  0  0  0  0
 14 15  1  0  0  0  0
 14 35  1  0  0  0  0
 15 16  1  0  0  0  0
 16 17  2  0  0  0  0
 18 19  1  0  0  0  0
 18 36  1  0  0  0  0
 18 37  1  0  0  0  0
 19 38  1  0  0  0  0
 19 39  1  0  0  0  0
M  CHG  1   4   1
M  END
> <s_m_source_file>
AV-unprocessed.smi

> <i_m_source_file_index>
2588

> <i_lp_mmshare_version>
43012

> <i_f3d_flags>
0

> <s_epik_input>
W0NIM11bQ0hdKFtDSDNdKU4xW0NIMl1bQ0gyXVtDSF0oW0NIMl1bQ0gyXTEpW05IXUMoPU8pW0NIMl1uMm5bY0hdc2MyPU8=

> <s_epik_cmdline>
J2VwaWtfcHl0aG9uJywgJy1waCcsICc3LjAnLCAnLXRuJywgJzgnLCAnLW1hJywgJzIwMCcsICctbWV0YWxfYmluZGluZycsICctaW1hZScsICc8aW5maWxlLm1hZT4nLCAnLW9tYWUnLCAnPG91dGZpbGUubWFlPic=

> <r_lp_tautomer_probability>
1

> <r_epik_Ionization_Penalty>
0.00923155

> <r_epik_Ionization_Penalty_Charging>
0.00923117

> <r_epik_Ionization_Penalty_Neutral>
3.88423e-07

> <r_epik_State_Penalty>
0.0069994

> <r_epik_Charging_Adjusted_Penalty>
0.0162306

> <i_epik_Tot_Q>
1

> <i_epik_Tot_abs_Q>
1

> <r_epik_Metal_State_Penalty>
0.0069994

> <b_epik_Metal_Only>
0

> <s_lp_Force_Field>
OPLS_2005

> <r_lp_Energy>
22.17

> <b_lp_Chiralities_Consistent>
1

> <s_lp_Variant>
AV-unprocessed.smi:2588-1

> <Gold.Version>
5.8.1

> <Gold.Id.Protein>
6NUR|6NUR_protein|mol2

> <Gold.PLP.Fitness>
42.1238

> <Gold.PLP.PLP>
-30.9529

> <Gold.PLP.part.hbond>
-3.0000

> <Gold.PLP.part.metal>
0.0000

> <Gold.PLP.part.buried>
3.8705

> <Gold.PLP.part.nonpolar>
-32.9212

> <Gold.PLP.part.repulsive>
0.3609

> <Gold.PLP.ligand.clash>
0.0000

> <Gold.PLP.ligand.torsion>
0.4564

> <Gold.PLP.Chemscore.Hbond>
4.0000

> <Gold.PLP.Chemscore.CHOScore>
0.0000

> <Gold.PLP.Chemscore.Metal>
0.0000

> <Gold.Chemscore.Hbonds>
donor molecule, donor type, donor heavy atom, donor atom, acceptor molecule, acceptor atom, score
      L1  H     4    40       P1  7948  2.00
      L1  H     8    32       P1  7957  1.00
      P1  H  7989  7998       L1    13  1.00

> <Gold.PLP.Chemscore.Internal.Correction>
0.0837

> <Gold.Rescore>
     Score         DG    S(hbond)    S(metal)    S(lipo)     H(rot)  DE(clash)    DE(int)     intcor
     14.52     -17.44       2.66        0.00      67.45       1.88       2.07       0.85       ----

> <Gold.Chemscore.Fitness>
14.5219

> <Gold.Chemscore.DG>
-17.4440

> <Gold.Chemscore.ZeroCoef>
-5.4800

> <Gold.Chemscore.Hbond>
2.6567

> <Gold.Chemscore.Metal>
0.0000

> <Gold.Chemscore.Lipo>
67.4533

> <Gold.Chemscore.Internal_Hbond>
0.0000

> <Gold.Chemscore.DEClash>
2.0691

> <Gold.Chemscore.DEInternal>
0.8531

> <Gold.Chemscore.Rot>
1.8756

> <Gold.Chemscore.Internal.Correction>
   9.000000E+99

> <Gold.Chemscore.Hbonds>
donor molecule, donor type, donor heavy atom, donor atom, acceptor molecule, acceptor atom, score
      L1  H     4    40       P1  7948  0.96
      L1  H     8    32       P1  7957  0.97
      P1  H  7989  7998       L1    13  0.35

> <Gold.Chemscore.Hbond.Weighted>
-8.8735

> <Gold.Chemscore.Metal.Weighted>
-0.0000

> <Gold.Chemscore.Lipo.Weighted>
-7.8920

> <Gold.Chemscore.Internal_Hbond.Weighted>
0.0000

> <Gold.Chemscore.DEClash.Weighted>
2.0691

> <Gold.Chemscore.DEInternal.Weighted>
0.8531

> <Gold.Chemscore.Rot.Weighted>
4.8015

> <Gold.Chemscore.Internal.Correction.Weighted>
   9.000000E+99

> <Gold.Protein.RotatedTorsions>
[ 6907 6896 6895 6894 ] final  -74.22 input  -60.11 | X-H torsion
[ 7974 7965 7964 7962 ] final -132.90 input  175.53 | X-H torsion
[ 8008 7997 7996 7995 ] final  108.22 input   59.86 | X-H torsion
[ 10167 10162 10161 10158 ] final  -63.11 input  -65.29 | X-H torsion
[ 10718 10713 10712 10709 ] final -161.95 input   66.30 | X-H torsion
[ 10763 10752 10751 10750 ] final  -92.33 input  -60.55 | X-H torsion
[ 11005 11000 10999 10996 ] final -165.62 input  -57.11 | X-H torsion

> <Gold.Protein.ActiveResidues>
 VAL166  LYS551  ARG553  GLY616  TRP617  ASP618  TYR619  PRO620  LYS621  CYS622 
 ASP623  PHE694  ASN695  SER759  ASP760  ASP761  ALA762  ILE779  LEU786  VAL792 
 PHE793  MET794  SER795  GLU796  ALA797  LYS798  CYS799  TRP800  GLU811  SER814 

> <Gold.Protein.RotatedAtoms>
  150.7101  134.4901  159.5511 H   0  0  0  0  0  0  0  0  0  0  0  0  # atno 6907 bound_to 6896
  152.2520  134.8120  160.0453 H   0  0  0  0  0  0  0  0  0  0  0  0  # atno 6908 bound_to 6896
  151.8864  133.3471  159.3820 H   0  0  0  0  0  0  0  0  0  0  0  0  # atno 6909 bound_to 6896
  144.9243  140.7052  143.4946 H   0  0  0  0  0  0  0  0  0  0  0  0  # atno 7974 bound_to 7965
  156.1886  140.3080  155.9287 H   0  0  0  0  0  0  0  0  0  0  0  0  # atno 8008 bound_to 7997
  155.3225  140.0456  157.3057 H   0  0  0  0  0  0  0  0  0  0  0  0  # atno 8009 bound_to 7997
  154.5425  140.2266  155.8627 H   0  0  0  0  0  0  0  0  0  0  0  0  # atno 8010 bound_to 7997
  140.5893  143.2339  151.6174 H   0  0  0  0  0  0  0  0  0  0  0  0  # atno 10167 bound_to 10162
  156.6035  130.8820  151.2919 H   0  0  0  0  0  0  0  0  0  0  0  0  # atno 10718 bound_to 10713
  154.6850  135.5235  153.8314 H   0  0  0  0  0  0  0  0  0  0  0  0  # atno 10763 bound_to 10752
  153.0591  135.6561  154.0515 H   0  0  0  0  0  0  0  0  0  0  0  0  # atno 10764 bound_to 10752
  154.0398  135.2978  155.3336 H   0  0  0  0  0  0  0  0  0  0  0  0  # atno 10765 bound_to 10752
  140.5737  134.5212  157.5166 H   0  0  0  0  0  0  0  0  0  0  0  0  # atno 11005 bound_to 11000
  145.3245  139.1778  143.4570 LP  0  0  0  0  0  0  0  0  0  0  0  0  # atno 17320 bound_to 7965
  146.3219  140.3267  142.8637 LP  0  0  0  0  0  0  0  0  0  0  0  0  # atno 17321 bound_to 7965
  139.5217  144.3184  152.0932 LP  0  0  0  0  0  0  0  0  0  0  0  0  # atno 17342 bound_to 10162
  140.2346  144.4333  150.6285 LP  0  0  0  0  0  0  0  0  0  0  0  0  # atno 17343 bound_to 10162
  157.7273  130.9641  150.1694 LP  0  0  0  0  0  0  0  0  0  0  0  0  # atno 17370 bound_to 10713
  156.2449  130.3694  149.8295 LP  0  0  0  0  0  0  0  0  0  0  0  0  # atno 17371 bound_to 10713
  139.9350  134.7893  156.0828 LP  0  0  0  0  0  0  0  0  0  0  0  0  # atno 17394 bound_to 11000
  141.1040  133.6666  156.2821 LP  0  0  0  0  0  0  0  0  0  0  0  0  # atno 17395 bound_to 11000

$$$$
