AV-unprocessed.smi:1809|AV-procd|sdf|7311|dock3
  -GOLD-   22720 8563D 1   1.00000     0.00000
 Structure written by MMmdl.
 40 42  0  0  0  0  0  0  0  0  2 V2000
  150.9551  142.2593  156.5525 C   0  0  0  0  0  0  0  0  0  0  0  0
  150.5535  141.1212  155.6780 C   0  0  0  0  0  0  0  0  0  0  0  0
  151.4277  140.2133  155.2273 N   0  0  0  0  0  0  0  0  0  0  0  0
  150.8224  139.2476  154.4352 N   0  0  0  0  0  0  0  0  0  0  0  0
  149.5047  139.4571  154.3110 C   0  0  0  0  0  0  0  0  0  0  0  0
  148.6404  138.6165  153.5603 N   0  0  0  0  0  0  0  0  0  0  0  0
  147.3033  138.5062  153.6499 C   0  0  0  0  0  0  0  0  0  0  0  0
  146.5880  139.1274  154.4362 O   0  0  0  0  0  0  0  0  0  0  0  0
  146.8270  137.6193  152.7640 N   0  0  0  0  0  0  0  0  0  0  0  0
  145.4272  137.2223  152.6378 C   0  0  0  0  0  0  0  0  0  0  0  0
  145.2613  135.7557  152.1964 C   0  0  2  0  0  0  0  0  0  0  0  0
  145.8708  135.4524  150.8102 C   0  0  0  0  0  0  0  0  0  0  0  0
  145.5430  134.0855  150.3425 N   0  3  1  0  0  0  0  0  0  0  0  0
  146.3707  132.9865  150.8865 C   0  0  0  0  0  0  0  0  0  0  0  0
  145.4688  131.7422  150.9166 C   0  0  0  0  0  0  0  0  0  0  0  0
  144.1324  132.1902  150.3148 C   0  0  0  0  0  0  0  0  0  0  0  0
  144.1244  133.7078  150.5036 C   0  0  1  0  0  0  0  0  0  0  0  0
  143.5880  134.1205  151.8919 C   0  0  0  0  0  0  0  0  0  0  0  0
  143.8644  135.4916  152.1382 O   0  0  0  0  0  0  0  0  0  0  0  0
  148.8901  140.8618  155.1658 S   0  0  0  0  0  0  0  0  0  0  0  0
  151.9694  142.5819  156.3154 H   0  0  0  0  0  0  0  0  0  0  0  0
  150.9187  141.9551  157.5986 H   0  0  0  0  0  0  0  0  0  0  0  0
  150.2797  143.1029  156.4085 H   0  0  0  0  0  0  0  0  0  0  0  0
  149.0962  138.0236  152.8825 H   0  0  0  0  0  0  0  0  0  0  0  0
  147.4858  137.1572  152.1541 H   0  0  0  0  0  0  0  0  0  0  0  0
  144.9668  137.3554  153.6172 H   0  0  0  0  0  0  0  0  0  0  0  0
  144.8912  137.8898  151.9607 H   0  0  0  0  0  0  0  0  0  0  0  0
  145.7138  135.1144  152.9546 H   0  0  0  0  0  0  0  0  0  0  0  0
  145.4720  136.1580  150.0803 H   0  0  0  0  0  0  0  0  0  0  0  0
  146.9533  135.5821  150.8122 H   0  0  0  0  0  0  0  0  0  0  0  0
  147.2486  132.8384  150.2570 H   0  0  0  0  0  0  0  0  0  0  0  0
  146.7201  133.2184  151.8935 H   0  0  0  0  0  0  0  0  0  0  0  0
  145.9005  130.9069  150.3642 H   0  0  0  0  0  0  0  0  0  0  0  0
  145.3261  131.4137  151.9467 H   0  0  0  0  0  0  0  0  0  0  0  0
  144.1194  131.9574  149.2492 H   0  0  0  0  0  0  0  0  0  0  0  0
  143.2738  131.6951  150.7700 H   0  0  0  0  0  0  0  0  0  0  0  0
  143.5300  134.1965  149.7305 H   0  0  0  0  0  0  0  0  0  0  0  0
  142.5096  133.9662  151.9346 H   0  0  0  0  0  0  0  0  0  0  0  0
  144.0214  133.5117  152.6872 H   0  0  0  0  0  0  0  0  0  0  0  0
  145.7192  134.0721  149.3478 H   0  0  0  0  0  0  0  0  0  0  0  0
  1  2  1  0  0  0  0
  1 21  1  0  0  0  0
  1 22  1  0  0  0  0
  1 23  1  0  0  0  0
  2 20  1  0  0  0  0
  2  3  2  0  0  0  0
  3  4  1  0  0  0  0
  4  5  2  0  0  0  0
  5  6  1  0  0  0  0
  5 20  1  0  0  0  0
  6  7  1  0  0  0  0
  6 24  1  0  0  0  0
  7  8  2  0  0  0  0
  7  9  1  0  0  0  0
  9 10  1  0  0  0  0
  9 25  1  0  0  0  0
 10 11  1  0  0  0  0
 10 26  1  0  0  0  0
 10 27  1  0  0  0  0
 11 19  1  0  0  0  0
 11 12  1  0  0  0  0
 11 28  1  0  0  0  0
 12 13  1  0  0  0  0
 12 29  1  0  0  0  0
 12 30  1  0  0  0  0
 13 17  1  0  0  0  0
 13 14  1  0  0  0  0
 13 40  1  0  0  0  0
 14 15  1  0  0  0  0
 14 31  1  0  0  0  0
 14 32  1  0  0  0  0
 15 16  1  0  0  0  0
 15 33  1  0  0  0  0
 15 34  1  0  0  0  0
 16 17  1  0  0  0  0
 16 35  1  0  0  0  0
 16 36  1  0  0  0  0
 17 18  1  0  0  0  0
 17 37  1  0  0  0  0
 18 19  1  0  0  0  0
 18 38  1  0  0  0  0
 18 39  1  0  0  0  0
M  CHG  1  13   1
M  END
> <s_m_source_file>
AV-unprocessed.smi

> <i_m_source_file_index>
1809

> <i_lp_mmshare_version>
43012

> <i_f3d_flags>
0

> <s_epik_input>
W0NIM11jMW5uYyhzMSlbTkhdQyg9TylbTkhdW0NIMl1bQ0BIXShbQ0gyXTIpT1tDSDJdW0NAQEhdKE4yMylbQ0gyXVtDSDJdW0NIMl0z

> <s_epik_cmdline>
J2VwaWtfcHl0aG9uJywgJy1waCcsICc3LjAnLCAnLXRuJywgJzgnLCAnLW1hJywgJzIwMCcsICctbWV0YWxfYmluZGluZycsICctaW1hZScsICc8aW5maWxlLm1hZT4nLCAnLW9tYWUnLCAnPG91dGZpbGUubWFlPic=

> <r_lp_tautomer_probability>
1

> <r_epik_Ionization_Penalty>
0.112474

> <r_epik_Ionization_Penalty_Charging>
0.108916

> <r_epik_Ionization_Penalty_Neutral>
0.00355844

> <r_epik_State_Penalty>
0.0565397

> <r_epik_Charging_Adjusted_Penalty>
0.165456

> <i_epik_Tot_Q>
1

> <i_epik_Tot_abs_Q>
1

> <r_epik_Metal_State_Penalty>
0.422831

> <b_epik_Metal_Only>
0

> <s_lp_Force_Field>
OPLS_2005

> <r_lp_Energy>
35.5904

> <b_lp_Chiralities_Consistent>
1

> <s_lp_Variant>
AV-unprocessed.smi:1809-3

> <Gold.Version>
5.8.1

> <Gold.Id.Protein>
6NUR|6NUR_protein|mol2

> <Gold.PLP.Fitness>
45.1853

> <Gold.PLP.PLP>
-36.9806

> <Gold.PLP.part.hbond>
-6.0000

> <Gold.PLP.part.metal>
0.0000

> <Gold.PLP.part.buried>
-5.8122

> <Gold.PLP.part.nonpolar>
-24.9556

> <Gold.PLP.part.repulsive>
0.5884

> <Gold.PLP.ligand.clash>
0.0000

> <Gold.PLP.ligand.torsion>
0.2665

> <Gold.PLP.Chemscore.Hbond>
2.9120

> <Gold.PLP.Chemscore.CHOScore>
0.0000

> <Gold.PLP.Chemscore.Metal>
0.0000

> <Gold.Chemscore.Hbonds>
donor molecule, donor type, donor heavy atom, donor atom, acceptor molecule, acceptor atom, score
      L1  H     6    24       P1  7948  0.90
      L1  H     9    25       P1  7948  1.00
      L1  H    13    40       P1  7921  1.00

> <Gold.PLP.Chemscore.Internal.Correction>
0.0017

> <Gold.Rescore>
     Score         DG    S(hbond)    S(metal)    S(lipo)     H(rot)  DE(clash)    DE(int)     intcor
     20.34     -20.89       2.83        0.00      80.29       1.34       0.13       0.42       ----

> <Gold.Chemscore.Fitness>
20.3402

> <Gold.Chemscore.DG>
-20.8914

> <Gold.Chemscore.ZeroCoef>
-5.4800

> <Gold.Chemscore.Hbond>
2.8282

> <Gold.Chemscore.Metal>
0.0000

> <Gold.Chemscore.Lipo>
80.2859

> <Gold.Chemscore.Internal_Hbond>
0.0000

> <Gold.Chemscore.DEClash>
0.1305

> <Gold.Chemscore.DEInternal>
0.4208

> <Gold.Chemscore.Rot>
1.3391

> <Gold.Chemscore.Internal.Correction>
   9.000000E+99

> <Gold.Chemscore.Hbonds>
donor molecule, donor type, donor heavy atom, donor atom, acceptor molecule, acceptor atom, score
      L1  H     6    24       P1  7948  0.82
      L1  H     9    25       P1  7948  0.98
      L1  H    13    40       P1  7921  0.54

> <Gold.Chemscore.Hbond.Weighted>
-9.4461

> <Gold.Chemscore.Metal.Weighted>
-0.0000

> <Gold.Chemscore.Lipo.Weighted>
-9.3934

> <Gold.Chemscore.Internal_Hbond.Weighted>
0.0000

> <Gold.Chemscore.DEClash.Weighted>
0.1305

> <Gold.Chemscore.DEInternal.Weighted>
0.4208

> <Gold.Chemscore.Rot.Weighted>
3.4281

> <Gold.Chemscore.Internal.Correction.Weighted>
   9.000000E+99

> <Gold.Protein.RotatedTorsions>
[ 6907 6896 6895 6894 ] final  -43.80 input  -60.11 | X-H torsion
[ 7974 7965 7964 7962 ] final -155.58 input  175.53 | X-H torsion
[ 8008 7997 7996 7995 ] final   22.38 input   59.86 | X-H torsion
[ 10167 10162 10161 10158 ] final   80.87 input  -65.29 | X-H torsion
[ 10718 10713 10712 10709 ] final   57.59 input   66.30 | X-H torsion
[ 10763 10752 10751 10750 ] final   87.79 input  -60.55 | X-H torsion
[ 11005 11000 10999 10996 ] final -100.91 input  -57.11 | X-H torsion

> <Gold.Protein.ActiveResidues>
 VAL166  LYS551  ARG553  GLY616  TRP617  ASP618  TYR619  PRO620  LYS621  CYS622 
 ASP623  PHE694  ASN695  SER759  ASP760  ASP761  ALA762  ILE779  LEU786  VAL792 
 PHE793  MET794  SER795  GLU796  ALA797  LYS798  CYS799  TRP800  GLU811  SER814 

> <Gold.Protein.RotatedAtoms>
  150.9399  134.8809  159.7605 H   0  0  0  0  0  0  0  0  0  0  0  0  # atno 6907 bound_to 6896
  152.5075  134.3957  159.9409 H   0  0  0  0  0  0  0  0  0  0  0  0  # atno 6908 bound_to 6896
  151.3978  133.3727  159.2763 H   0  0  0  0  0  0  0  0  0  0  0  0  # atno 6909 bound_to 6896
  144.7633  140.4229  143.5960 H   0  0  0  0  0  0  0  0  0  0  0  0  # atno 7974 bound_to 7965
  154.9649  140.3083  155.5014 H   0  0  0  0  0  0  0  0  0  0  0  0  # atno 8008 bound_to 7997
  156.2973  140.2294  156.4676 H   0  0  0  0  0  0  0  0  0  0  0  0  # atno 8009 bound_to 7997
  154.7930  140.0438  157.1204 H   0  0  0  0  0  0  0  0  0  0  0  0  # atno 8010 bound_to 7997
  139.9452  144.6063  150.8214 H   0  0  0  0  0  0  0  0  0  0  0  0  # atno 10167 bound_to 10162
  157.5527  130.8777  149.8987 H   0  0  0  0  0  0  0  0  0  0  0  0  # atno 10718 bound_to 10713
  153.1703  135.4530  154.9894 H   0  0  0  0  0  0  0  0  0  0  0  0  # atno 10763 bound_to 10752
  154.7961  135.3238  154.7665 H   0  0  0  0  0  0  0  0  0  0  0  0  # atno 10764 bound_to 10752
  153.8142  135.6952  153.4891 H   0  0  0  0  0  0  0  0  0  0  0  0  # atno 10765 bound_to 10752
  141.1252  133.8436  157.1164 H   0  0  0  0  0  0  0  0  0  0  0  0  # atno 11005 bound_to 11000
  145.6549  139.1571  143.2841 LP  0  0  0  0  0  0  0  0  0  0  0  0  # atno 17320 bound_to 7965
  146.1717  140.6634  142.9230 LP  0  0  0  0  0  0  0  0  0  0  0  0  # atno 17321 bound_to 7965
  140.7599  143.3140  151.2778 LP  0  0  0  0  0  0  0  0  0  0  0  0  # atno 17342 bound_to 10162
  139.6672  144.0083  152.2731 LP  0  0  0  0  0  0  0  0  0  0  0  0  # atno 17343 bound_to 10162
  156.0591  130.3703  150.1024 LP  0  0  0  0  0  0  0  0  0  0  0  0  # atno 17370 bound_to 10713
  156.9195  130.9678  151.3551 LP  0  0  0  0  0  0  0  0  0  0  0  0  # atno 17371 bound_to 10713
  140.0243  134.9931  157.0655 LP  0  0  0  0  0  0  0  0  0  0  0  0  # atno 17394 bound_to 11000
  140.4387  134.1703  155.7172 LP  0  0  0  0  0  0  0  0  0  0  0  0  # atno 17395 bound_to 11000

$$$$
