AV-unprocessed.smi:11|AV-procd|sdf|55|dock5
  -GOLD-   2262015173D 1   1.00000     0.00000
 Structure written by MMmdl.
 33 35  0  0  0  0  0  0  0  0  1 V2000
  146.5057  137.7403  153.4784 C   0  0  0  0  0  0  0  0  0  0  0  0
  146.4958  139.1392  154.1175 C   0  0  0  0  0  0  0  0  0  0  0  0
  147.2329  140.2399  153.3148 C   0  0  1  0  0  0  0  0  0  0  0  0
  146.7956  140.1881  151.9708 O   0  0  0  0  0  0  0  0  0  0  0  0
  147.0706  141.6521  153.8984 C   0  0  0  0  0  0  0  0  0  0  0  0
  148.1682  141.7197  154.9582 C   0  0  0  0  0  0  0  0  0  0  0  0
  149.2510  140.9093  154.4196 N   0  0  0  0  0  0  0  0  0  0  0  0
  150.3549  140.5398  155.2145 C   0  0  0  0  0  0  0  0  0  0  0  0
  151.2489  139.6601  154.6935 N   0  0  0  0  0  0  0  0  0  0  0  0
  152.3124  139.2853  155.4099 C   0  0  0  0  0  0  0  0  0  0  0  0
  152.6611  139.6572  156.6434 N   0  0  0  0  0  0  0  0  0  0  0  0
  151.7563  140.5277  157.1729 C   0  0  0  0  0  0  0  0  0  0  0  0
  151.7934  141.1043  158.4251 N   0  0  0  0  0  0  0  0  0  0  0  0
  150.6944  141.9245  158.6091 C   0  0  0  0  0  0  0  0  0  0  0  0
  149.9215  141.8958  157.4763 C   0  0  0  0  0  0  0  0  0  0  0  0
  150.5788  141.0198  156.5383 C   0  0  0  0  0  0  0  0  0  0  0  0
  148.7577  140.0314  153.3671 C   0  0  0  0  0  0  0  0  0  0  0  0
  152.5056  140.9607  159.1266 H   0  0  0  0  0  0  0  0  0  0  0  0
  146.0149  137.0198  154.1327 H   0  0  0  0  0  0  0  0  0  0  0  0
  147.5216  137.3848  153.3061 H   0  0  0  0  0  0  0  0  0  0  0  0
  145.9766  137.7235  152.5265 H   0  0  0  0  0  0  0  0  0  0  0  0
  145.4606  139.4385  154.2857 H   0  0  0  0  0  0  0  0  0  0  0  0
  146.9442  139.0640  155.1090 H   0  0  0  0  0  0  0  0  0  0  0  0
  147.5527  140.2374  151.4074 H   0  0  0  0  0  0  0  0  0  0  0  0
  147.2779  142.3984  153.1296 H   0  0  0  0  0  0  0  0  0  0  0  0
  146.0807  141.8670  154.2984 H   0  0  0  0  0  0  0  0  0  0  0  0
  148.4894  142.7451  155.1429 H   0  0  0  0  0  0  0  0  0  0  0  0
  147.8154  141.2939  155.8985 H   0  0  0  0  0  0  0  0  0  0  0  0
  152.9793  138.5873  154.9261 H   0  0  0  0  0  0  0  0  0  0  0  0
  150.5499  142.4611  159.5354 H   0  0  0  0  0  0  0  0  0  0  0  0
  148.9961  142.4280  157.3165 H   0  0  0  0  0  0  0  0  0  0  0  0
  149.0104  138.9859  153.5462 H   0  0  0  0  0  0  0  0  0  0  0  0
  149.2271  140.3363  152.4309 H   0  0  0  0  0  0  0  0  0  0  0  0
  1  2  1  0  0  0  0
  1 19  1  0  0  0  0
  1 20  1  0  0  0  0
  1 21  1  0  0  0  0
  2  3  1  0  0  0  0
  2 22  1  0  0  0  0
  2 23  1  0  0  0  0
  3 17  1  0  0  0  0
  3  4  1  0  0  0  0
  3  5  1  0  0  0  0
  4 24  1  0  0  0  0
  5  6  1  0  0  0  0
  5 25  1  0  0  0  0
  5 26  1  0  0  0  0
  6  7  1  0  0  0  0
  6 27  1  0  0  0  0
  6 28  1  0  0  0  0
  7  8  1  0  0  0  0
  7 17  1  0  0  0  0
  8 16  1  0  0  0  0
  8  9  2  0  0  0  0
  9 10  1  0  0  0  0
 10 11  2  0  0  0  0
 10 29  1  0  0  0  0
 11 12  1  0  0  0  0
 12 16  2  0  0  0  0
 12 13  1  0  0  0  0
 13 18  1  0  0  0  0
 13 14  1  0  0  0  0
 14 15  2  0  0  0  0
 14 30  1  0  0  0  0
 15 16  1  0  0  0  0
 15 31  1  0  0  0  0
 17 32  1  0  0  0  0
 17 33  1  0  0  0  0
M  END
> <s_m_source_file>
AV-unprocessed.smi

> <i_m_source_file_index>
11

> <i_lp_mmshare_version>
43012

> <i_f3d_flags>
0

> <s_epik_input>
W0NIM11bQ0gyXVtDQEBdMShbT0hdKVtDSDJdW0NIMl1OKFtDSDJdMSljKG5bY0hdbjIpYyhjMjMpW2NIXVtjSF1bbkhdMw==

> <s_epik_cmdline>
J2VwaWtfcHl0aG9uJywgJy1waCcsICc3LjAnLCAnLXRuJywgJzgnLCAnLW1hJywgJzIwMCcsICctbWV0YWxfYmluZGluZycsICctaW1hZScsICc8aW5maWxlLm1hZT4nLCAnLW9tYWUnLCAnPG91dGZpbGUubWFlPic=

> <r_lp_tautomer_probability>
0.999998

> <r_epik_Ionization_Penalty>
0.0511253

> <r_epik_Ionization_Penalty_Charging>
0

> <r_epik_Ionization_Penalty_Neutral>
0.0511253

> <r_epik_State_Penalty>
0.0394181

> <r_epik_Charging_Adjusted_Penalty>
0.0394181

> <i_epik_Tot_Q>
0

> <i_epik_Tot_abs_Q>
0

> <r_epik_Metal_State_Penalty>
0.0367127

> <b_epik_Metal_Only>
0

> <s_lp_Force_Field>
OPLS_2005

> <r_lp_Energy>
27.4132

> <b_lp_Chiralities_Consistent>
1

> <s_lp_Variant>
AV-unprocessed.smi:11-1

> <Gold.Version>
5.8.1

> <Gold.Id.Protein>
6NUR|6NUR_protein|mol2

> <Gold.PLP.Fitness>
37.2110

> <Gold.PLP.PLP>
-30.2148

> <Gold.PLP.part.hbond>
-3.5895

> <Gold.PLP.part.metal>
0.0000

> <Gold.PLP.part.buried>
2.3779

> <Gold.PLP.part.nonpolar>
-28.2162

> <Gold.PLP.part.repulsive>
0.1736

> <Gold.PLP.ligand.clash>
0.0000

> <Gold.PLP.ligand.torsion>
0.2226

> <Gold.PLP.Chemscore.Hbond>
2.4000

> <Gold.PLP.Chemscore.CHOScore>
0.0000

> <Gold.PLP.Chemscore.Metal>
0.0000

> <Gold.Chemscore.Hbonds>
donor molecule, donor type, donor heavy atom, donor atom, acceptor molecule, acceptor atom, score
      L1  H     4    24       P1  7957  0.99
      P1  H  7989  7998       L1     9  0.40
      P1  H  7997  8010       L1    11  1.00

> <Gold.PLP.Chemscore.Internal.Correction>
0.2415

> <Gold.Rescore>
     Score         DG    S(hbond)    S(metal)    S(lipo)     H(rot)  DE(clash)    DE(int)     intcor
     11.80     -14.15       1.68        0.00      57.51       1.43       2.17       0.18       ----

> <Gold.Chemscore.Fitness>
11.7985

> <Gold.Chemscore.DG>
-14.1494

> <Gold.Chemscore.ZeroCoef>
-5.4800

> <Gold.Chemscore.Hbond>
1.6760

> <Gold.Chemscore.Metal>
0.0000

> <Gold.Chemscore.Lipo>
57.5059

> <Gold.Chemscore.Internal_Hbond>
0.0000

> <Gold.Chemscore.DEClash>
2.1677

> <Gold.Chemscore.DEInternal>
0.1831

> <Gold.Chemscore.Rot>
1.4283

> <Gold.Chemscore.Internal.Correction>
   9.000000E+99

> <Gold.Chemscore.Hbonds>
donor molecule, donor type, donor heavy atom, donor atom, acceptor molecule, acceptor atom, score
      L1  H     4    24       P1  7957  0.88
      P1  H  7989  7998       L1     9  0.01
      P1  H  7997  8010       L1    11  0.39

> <Gold.Chemscore.Hbond.Weighted>
-5.5977

> <Gold.Chemscore.Metal.Weighted>
-0.0000

> <Gold.Chemscore.Lipo.Weighted>
-6.7282

> <Gold.Chemscore.Internal_Hbond.Weighted>
0.0000

> <Gold.Chemscore.DEClash.Weighted>
2.1677

> <Gold.Chemscore.DEInternal.Weighted>
0.1831

> <Gold.Chemscore.Rot.Weighted>
3.6566

> <Gold.Chemscore.Internal.Correction.Weighted>
   9.000000E+99

> <Gold.Protein.RotatedTorsions>
[ 6907 6896 6895 6894 ] final -142.33 input  -60.11 | X-H torsion
[ 7974 7965 7964 7962 ] final   13.88 input  175.53 | X-H torsion
[ 8008 7997 7996 7995 ] final   70.45 input   59.86 | X-H torsion
[ 10167 10162 10161 10158 ] final  174.79 input  -65.29 | X-H torsion
[ 10718 10713 10712 10709 ] final -172.44 input   66.30 | X-H torsion
[ 10763 10752 10751 10750 ] final  -45.77 input  -60.55 | X-H torsion
[ 11005 11000 10999 10996 ] final   65.03 input  -57.11 | X-H torsion

> <Gold.Protein.ActiveResidues>
 VAL166  LYS551  ARG553  GLY616  TRP617  ASP618  TYR619  PRO620  LYS621  CYS622 
 ASP623  PHE694  ASN695  SER759  ASP760  ASP761  ALA762  ILE779  LEU786  VAL792 
 PHE793  MET794  SER795  GLU796  ALA797  LYS798  CYS799  TRP800  GLU811  SER814 

> <Gold.Protein.RotatedAtoms>
  151.0856  133.5355  159.2617 H   0  0  0  0  0  0  0  0  0  0  0  0  # atno 6907 bound_to 6896
  151.2242  135.0529  159.8972 H   0  0  0  0  0  0  0  0  0  0  0  0  # atno 6908 bound_to 6896
  152.5428  134.0654  159.8224 H   0  0  0  0  0  0  0  0  0  0  0  0  # atno 6909 bound_to 6896
  146.2319  139.9123  142.8522 H   0  0  0  0  0  0  0  0  0  0  0  0  # atno 7974 bound_to 7965
  155.7389  140.3490  155.5095 H   0  0  0  0  0  0  0  0  0  0  0  0  # atno 8008 bound_to 7997
  155.9112  140.1051  157.1299 H   0  0  0  0  0  0  0  0  0  0  0  0  # atno 8009 bound_to 7997
  154.4056  140.1267  156.4547 H   0  0  0  0  0  0  0  0  0  0  0  0  # atno 8010 bound_to 7997
  139.5154  144.3106  152.0295 H   0  0  0  0  0  0  0  0  0  0  0  0  # atno 10167 bound_to 10162
  156.7556  130.9394  151.3116 H   0  0  0  0  0  0  0  0  0  0  0  0  # atno 10718 bound_to 10713
  154.0340  135.6653  153.4783 H   0  0  0  0  0  0  0  0  0  0  0  0  # atno 10763 bound_to 10752
  153.0529  135.5074  154.7906 H   0  0  0  0  0  0  0  0  0  0  0  0  # atno 10764 bound_to 10752
  154.6860  135.3053  154.9511 H   0  0  0  0  0  0  0  0  0  0  0  0  # atno 10765 bound_to 10752
  139.9920  134.6576  156.0074 H   0  0  0  0  0  0  0  0  0  0  0  0  # atno 11005 bound_to 11000
  145.2217  140.9938  143.4042 LP  0  0  0  0  0  0  0  0  0  0  0  0  # atno 17320 bound_to 7965
  144.9604  139.3986  143.6358 LP  0  0  0  0  0  0  0  0  0  0  0  0  # atno 17321 bound_to 7965
  140.2550  144.4128  150.6207 LP  0  0  0  0  0  0  0  0  0  0  0  0  # atno 17342 bound_to 10162
  140.6197  143.2175  151.6718 LP  0  0  0  0  0  0  0  0  0  0  0  0  # atno 17343 bound_to 10162
  157.6757  130.9093  150.0146 LP  0  0  0  0  0  0  0  0  0  0  0  0  # atno 17370 bound_to 10713
  156.1372  130.3642  149.9638 LP  0  0  0  0  0  0  0  0  0  0  0  0  # atno 17371 bound_to 10713
  141.1574  133.6541  156.4206 LP  0  0  0  0  0  0  0  0  0  0  0  0  # atno 17394 bound_to 11000
  140.4889  134.6594  157.5202 LP  0  0  0  0  0  0  0  0  0  0  0  0  # atno 17395 bound_to 11000

$$$$
