AV-unprocessed.smi:107|AV-procd|sdf|1015|dock10
  -GOLD-   2262018 13D 1   1.00000     0.00000
 Structure written by MMmdl.
 31 32  0  0  0  0  0  0  0  0  1 V2000
  150.2797  142.5161  158.7655 C   0  0  0  0  0  0  0  0  0  0  0  0
  150.5987  141.5810  157.6107 C   0  0  0  0  0  0  0  0  0  0  0  0
  149.8886  141.5845  156.4537 C   0  0  0  0  0  0  0  0  0  0  0  0
  150.1589  140.7473  155.3802 N   0  0  0  0  0  0  0  0  0  0  0  0
  149.3333  140.8074  154.1152 C   0  0  2  0  0  0  0  0  0  0  0  0
  148.2015  141.8271  154.2543 C   0  0  0  0  0  0  0  0  0  0  0  0
  147.0717  141.1282  153.5275 C   0  0  2  0  0  0  0  0  0  0  0  0
  145.8196  141.5819  153.9992 O   0  0  0  0  0  0  0  0  0  0  0  0
  147.3337  139.6589  153.8728 C   0  0  1  0  0  0  0  0  0  0  0  0
  146.7601  138.6487  152.8672 C   0  0  0  0  0  0  0  0  0  0  0  0
  147.4472  138.7287  151.6366 O   0  0  0  0  0  0  0  0  0  0  0  0
  148.7562  139.5542  153.8883 O   0  0  0  0  0  0  0  0  0  0  0  0
  151.2424  139.8478  155.4614 C   0  0  0  0  0  0  0  0  0  0  0  0
  151.5636  139.0972  154.5412 O   0  0  0  0  0  0  0  0  0  0  0  0
  151.9690  139.8400  156.6508 N   0  0  0  0  0  0  0  0  0  0  0  0
  151.7225  140.6523  157.7603 C   0  0  0  0  0  0  0  0  0  0  0  0
  152.4340  140.5496  158.7581 O   0  0  0  0  0  0  0  0  0  0  0  0
  152.7435  139.1954  156.7144 H   0  0  0  0  0  0  0  0  0  0  0  0
  149.4179  143.1476  158.5483 H   0  0  0  0  0  0  0  0  0  0  0  0
  151.1288  143.1685  158.9720 H   0  0  0  0  0  0  0  0  0  0  0  0
  150.0574  141.9464  159.6684 H   0  0  0  0  0  0  0  0  0  0  0  0
  149.0723  142.2849  156.3648 H   0  0  0  0  0  0  0  0  0  0  0  0
  150.0038  141.0147  153.2798 H   0  0  0  0  0  0  0  0  0  0  0  0
  147.9579  141.9650  155.3095 H   0  0  0  0  0  0  0  0  0  0  0  0
  148.4789  142.7897  153.8237 H   0  0  0  0  0  0  0  0  0  0  0  0
  147.1563  141.2960  152.4529 H   0  0  0  0  0  0  0  0  0  0  0  0
  145.1395  141.1506  153.5038 H   0  0  0  0  0  0  0  0  0  0  0  0
  146.9754  139.4379  154.8797 H   0  0  0  0  0  0  0  0  0  0  0  0
  146.8188  137.6315  153.2554 H   0  0  0  0  0  0  0  0  0  0  0  0
  145.7071  138.8624  152.6827 H   0  0  0  0  0  0  0  0  0  0  0  0
  148.1278  139.3798  151.7145 H   0  0  0  0  0  0  0  0  0  0  0  0
  1  2  1  0  0  0  0
  1 19  1  0  0  0  0
  1 20  1  0  0  0  0
  1 21  1  0  0  0  0
  2 16  1  0  0  0  0
  2  3  2  0  0  0  0
  3  4  1  0  0  0  0
  3 22  1  0  0  0  0
  4  5  1  0  0  0  0
  4 13  1  0  0  0  0
  5 12  1  0  0  0  0
  5  6  1  0  0  0  0
  5 23  1  0  0  0  0
  6  7  1  0  0  0  0
  6 24  1  0  0  0  0
  6 25  1  0  0  0  0
  7  8  1  0  0  0  0
  7  9  1  0  0  0  0
  7 26  1  0  0  0  0
  8 27  1  0  0  0  0
  9 10  1  0  0  0  0
  9 12  1  0  0  0  0
  9 28  1  0  0  0  0
 10 11  1  0  0  0  0
 10 29  1  0  0  0  0
 10 30  1  0  0  0  0
 11 31  1  0  0  0  0
 13 14  2  0  0  0  0
 13 15  1  0  0  0  0
 15 18  1  0  0  0  0
 15 16  1  0  0  0  0
 16 17  2  0  0  0  0
M  END
> <s_m_source_file>
AV-unprocessed.smi

> <i_m_source_file_index>
107

> <i_lp_mmshare_version>
43012

> <i_f3d_flags>
0

> <s_epik_input>
Tz1jMVtuSF1jKD1PKW4oW2NIXWMxW0NIM10pW0NAQEhdMltDSDJdW0NAQEhdKFtPSF0pW0NASF0oTzIpW0NIMl1bT0hd

> <s_epik_cmdline>
J2VwaWtfcHl0aG9uJywgJy1waCcsICc3LjAnLCAnLXRuJywgJzgnLCAnLW1hJywgJzIwMCcsICctbWV0YWxfYmluZGluZycsICctaW1hZScsICc8aW5maWxlLm1hZT4nLCAnLW9tYWUnLCAnPG91dGZpbGUubWFlPic=

> <r_lp_tautomer_probability>
0.999537

> <r_epik_Ionization_Penalty>
0.00121888

> <r_epik_Ionization_Penalty_Charging>
0.00121876

> <r_epik_Ionization_Penalty_Neutral>
1.19946e-07

> <r_epik_State_Penalty>
0.000805124

> <r_epik_Charging_Adjusted_Penalty>
0.00202389

> <i_epik_Tot_Q>
0

> <i_epik_Tot_abs_Q>
0

> <r_epik_Metal_State_Penalty>
0.662472

> <b_epik_Metal_Only>
0

> <s_epik_Chemistry_Notes>
This compound contains an acetal/aminal-like group ( X-CH(R)-Y where X, Y are N, S, or O) that may be acid/base labile, releasing an aldehyde.

> <s_lp_Force_Field>
OPLS_2005

> <r_lp_Energy>
24.0727

> <b_lp_Chiralities_Consistent>
1

> <s_lp_Variant>
AV-unprocessed.smi:107-3

> <Gold.Version>
5.8.1

> <Gold.Id.Protein>
6NUR|6NUR_protein|mol2

> <Gold.PLP.Fitness>
39.1311

> <Gold.PLP.PLP>
-28.1497

> <Gold.PLP.part.hbond>
-4.9314

> <Gold.PLP.part.metal>
0.0000

> <Gold.PLP.part.buried>
-0.5652

> <Gold.PLP.part.nonpolar>
-24.0518

> <Gold.PLP.part.repulsive>
1.7915

> <Gold.PLP.ligand.clash>
0.0000

> <Gold.PLP.ligand.torsion>
0.0556

> <Gold.PLP.Chemscore.Hbond>
2.6950

> <Gold.PLP.Chemscore.CHOScore>
1.0000

> <Gold.PLP.Chemscore.Metal>
0.0000

> <Gold.Chemscore.Hbonds>
donor molecule, donor type, donor heavy atom, donor atom, acceptor molecule, acceptor atom, score
      L1  H     8    27       P1 10175  1.00
      L1  H    11    31       P1  7957  0.96
      P1  H  7954  7966       L1    11  0.67
      P1  H  7989  7998       L1    14  0.14
      L1  C     3    22       P1  8028  0.98

> <Gold.PLP.Chemscore.Internal.Correction>
0.0077

> <Gold.Rescore>
     Score         DG    S(hbond)    S(metal)    S(lipo)     H(rot)  DE(clash)    DE(int)     intcor
      8.36      -9.67       1.83        0.00      43.14       2.73       0.10       1.21       ----

> <Gold.Chemscore.Fitness>
8.3640

> <Gold.Chemscore.DG>
-9.6656

> <Gold.Chemscore.ZeroCoef>
-5.4800

> <Gold.Chemscore.Hbond>
1.8308

> <Gold.Chemscore.Metal>
0.0000

> <Gold.Chemscore.Lipo>
43.1422

> <Gold.Chemscore.Internal_Hbond>
0.0000

> <Gold.Chemscore.DEClash>
0.0954

> <Gold.Chemscore.DEInternal>
1.2062

> <Gold.Chemscore.Rot>
2.7253

> <Gold.Chemscore.Internal.Correction>
   9.000000E+99

> <Gold.Chemscore.Hbonds>
donor molecule, donor type, donor heavy atom, donor atom, acceptor molecule, acceptor atom, score
      L1  H     8    27       P1 10175  0.45
      L1  H    11    31       P1  7957  0.92
      P1  H  7954  7966       L1    11  0.08

> <Gold.Chemscore.Hbond.Weighted>
-6.1148

> <Gold.Chemscore.Metal.Weighted>
-0.0000

> <Gold.Chemscore.Lipo.Weighted>
-5.0476

> <Gold.Chemscore.Internal_Hbond.Weighted>
0.0000

> <Gold.Chemscore.DEClash.Weighted>
0.0954

> <Gold.Chemscore.DEInternal.Weighted>
1.2062

> <Gold.Chemscore.Rot.Weighted>
6.9769

> <Gold.Chemscore.Internal.Correction.Weighted>
   9.000000E+99

> <Gold.Protein.RotatedTorsions>
[ 6907 6896 6895 6894 ] final -120.74 input  -60.11 | X-H torsion
[ 7974 7965 7964 7962 ] final   65.52 input  175.53 | X-H torsion
[ 8008 7997 7996 7995 ] final  -92.12 input   59.86 | X-H torsion
[ 10167 10162 10161 10158 ] final  -82.57 input  -65.29 | X-H torsion
[ 10718 10713 10712 10709 ] final   -2.69 input   66.30 | X-H torsion
[ 10763 10752 10751 10750 ] final -154.22 input  -60.55 | X-H torsion
[ 11005 11000 10999 10996 ] final -144.59 input  -57.11 | X-H torsion

> <Gold.Protein.ActiveResidues>
 VAL166  LYS551  ARG553  GLY616  TRP617  ASP618  TYR619  PRO620  LYS621  CYS622 
 ASP623  PHE694  ASN695  SER759  ASP760  ASP761  ALA762  ILE779  LEU786  VAL792 
 PHE793  MET794  SER795  GLU796  ALA797  LYS798  CYS799  TRP800  GLU811  SER814 

> <Gold.Protein.RotatedAtoms>
  150.8421  133.7920  159.3056 H   0  0  0  0  0  0  0  0  0  0  0  0  # atno 6907 bound_to 6896
  151.5618  135.1063  159.9984 H   0  0  0  0  0  0  0  0  0  0  0  0  # atno 6908 bound_to 6896
  152.4482  133.7535  159.6763 H   0  0  0  0  0  0  0  0  0  0  0  0  # atno 6909 bound_to 6896
  145.8374  139.3175  143.0951 H   0  0  0  0  0  0  0  0  0  0  0  0  # atno 7974 bound_to 7965
  154.7192  140.0512  157.0624 H   0  0  0  0  0  0  0  0  0  0  0  0  # atno 8008 bound_to 7997
  155.0450  140.3173  155.4692 H   0  0  0  0  0  0  0  0  0  0  0  0  # atno 8009 bound_to 7997
  156.2812  140.2126  156.5574 H   0  0  0  0  0  0  0  0  0  0  0  0  # atno 8010 bound_to 7997
  140.4308  143.2549  151.8762 H   0  0  0  0  0  0  0  0  0  0  0  0  # atno 10167 bound_to 10162
  156.7870  130.5349  149.5741 H   0  0  0  0  0  0  0  0  0  0  0  0  # atno 10718 bound_to 10713
  154.7873  135.3195  154.7856 H   0  0  0  0  0  0  0  0  0  0  0  0  # atno 10763 bound_to 10752
  153.8553  135.6858  153.4792 H   0  0  0  0  0  0  0  0  0  0  0  0  # atno 10764 bound_to 10752
  153.1530  135.4691  154.9603 H   0  0  0  0  0  0  0  0  0  0  0  0  # atno 10765 bound_to 10752
  140.8009  134.2858  157.4979 H   0  0  0  0  0  0  0  0  0  0  0  0  # atno 11005 bound_to 11000
  145.9503  140.8914  143.0262 LP  0  0  0  0  0  0  0  0  0  0  0  0  # atno 17320 bound_to 7965
  144.6735  140.1671  143.7417 LP  0  0  0  0  0  0  0  0  0  0  0  0  # atno 17321 bound_to 7965
  139.4785  144.5337  151.8629 LP  0  0  0  0  0  0  0  0  0  0  0  0  # atno 17342 bound_to 10162
  140.4430  144.1961  150.5892 LP  0  0  0  0  0  0  0  0  0  0  0  0  # atno 17343 bound_to 10162
  156.1182  130.6090  151.0153 LP  0  0  0  0  0  0  0  0  0  0  0  0  # atno 17370 bound_to 10713
  157.6619  131.0879  150.7819 LP  0  0  0  0  0  0  0  0  0  0  0  0  # atno 17371 bound_to 10713
  139.8722  134.9429  156.3837 LP  0  0  0  0  0  0  0  0  0  0  0  0  # atno 17394 bound_to 11000
  140.9296  133.7588  156.0007 LP  0  0  0  0  0  0  0  0  0  0  0  0  # atno 17395 bound_to 11000

$$$$
