AV-unprocessed.smi:218|AV-procd|sdf|1669|dock8
  -GOLD-   2262020 83D 1   1.00000     0.00000
 Structure written by MMmdl.
 54 57  0  0  0  0  0  0  0  0  1 V2000
  150.9804  141.9895  157.3856 C   0  0  0  0  0  0  0  0  0  0  0  0
  151.7693  140.8428  158.0289 C   0  0  0  0  0  0  0  0  0  0  0  0
  152.8194  141.3761  159.0188 C   0  0  0  0  0  0  0  0  0  0  0  0
  152.4037  140.1281  156.9662 O   0  0  0  0  0  0  0  0  0  0  0  0
  151.6558  139.3274  156.1244 C   0  0  0  0  0  0  0  0  0  0  0  0
  150.2989  139.1095  156.4399 C   0  0  0  0  0  0  0  0  0  0  0  0
  149.5259  138.2886  155.5936 C   0  0  0  0  0  0  0  0  0  0  0  0
  148.0645  138.0318  155.8943 C   0  0  0  0  0  0  0  0  0  0  0  0
  147.8016  136.6539  156.2848 N   0  0  0  0  0  0  0  0  0  0  0  0
  147.2198  135.8039  155.4122 C   0  0  0  0  0  0  0  0  0  0  0  0
  147.3491  134.4583  155.5533 N   0  0  0  0  0  0  0  0  0  0  0  0
  146.7627  133.6359  154.6780 C   0  0  0  0  0  0  0  0  0  0  0  0
  146.0184  133.9442  153.6140 N   0  0  0  0  0  0  0  0  0  0  0  0
  145.8882  135.2942  153.4670 C   0  0  0  0  0  0  0  0  0  0  0  0
  146.4527  136.2834  154.3190 C   0  0  0  0  0  0  0  0  0  0  0  0
  146.1069  137.5490  153.8633 N   0  0  0  0  0  0  0  0  0  0  0  0
  145.3798  137.3156  152.8033 C   0  0  0  0  0  0  0  0  0  0  0  0
  145.1931  135.9859  152.4962 N   0  0  0  0  0  0  0  0  0  0  0  0
  144.4237  135.4071  151.3485 C   0  0  1  0  0  0  0  0  0  0  0  0
  145.3114  134.6468  150.5897 O   0  0  0  0  0  0  0  0  0  0  0  0
  144.6485  133.4738  150.1484 C   0  0  1  0  0  0  0  0  0  0  0  0
  145.6585  132.3949  149.7165 C   0  0  0  0  0  0  0  0  0  0  0  0
  146.5917  132.0948  150.7336 O   0  0  0  0  0  0  0  0  0  0  0  0
  143.6836  133.1156  151.2835 C   0  0  2  0  0  0  0  0  0  0  0  0
  142.5737  132.4000  150.7795 O   0  0  0  0  0  0  0  0  0  0  0  0
  143.2554  134.4891  151.7907 C   0  0  1  0  0  0  0  0  0  0  0  0
  143.0191  134.4639  153.1870 O   0  0  0  0  0  0  0  0  0  0  0  0
  150.1392  137.7185  154.4603 C   0  0  0  0  0  0  0  0  0  0  0  0
  151.5007  137.9929  154.2280 C   0  0  0  0  0  0  0  0  0  0  0  0
  152.2472  138.7752  155.0357 N   0  0  0  0  0  0  0  0  0  0  0  0
  144.0834  136.2729  150.7789 H   0  0  0  0  0  0  0  0  0  0  0  0
  144.0718  133.7736  149.2709 H   0  0  0  0  0  0  0  0  0  0  0  0
  144.1829  132.5500  152.0710 H   0  0  0  0  0  0  0  0  0  0  0  0
  142.3565  134.8334  151.2767 H   0  0  0  0  0  0  0  0  0  0  0  0
  150.4590  142.5800  158.1395 H   0  0  0  0  0  0  0  0  0  0  0  0
  150.2329  141.6057  156.6908 H   0  0  0  0  0  0  0  0  0  0  0  0
  151.6375  142.6596  156.8306 H   0  0  0  0  0  0  0  0  0  0  0  0
  151.0495  140.2117  158.5524 H   0  0  0  0  0  0  0  0  0  0  0  0
  152.3475  141.9556  159.8126 H   0  0  0  0  0  0  0  0  0  0  0  0
  153.5392  142.0234  158.5174 H   0  0  0  0  0  0  0  0  0  0  0  0
  153.3763  140.5685  159.4930 H   0  0  0  0  0  0  0  0  0  0  0  0
  149.8610  139.5636  157.3167 H   0  0  0  0  0  0  0  0  0  0  0  0
  147.7355  138.7030  156.6887 H   0  0  0  0  0  0  0  0  0  0  0  0
  147.4813  138.2751  155.0051 H   0  0  0  0  0  0  0  0  0  0  0  0
  148.0492  136.4020  157.2310 H   0  0  0  0  0  0  0  0  0  0  0  0
  146.9099  132.5805  154.8537 H   0  0  0  0  0  0  0  0  0  0  0  0
  144.9549  138.1143  152.2129 H   0  0  0  0  0  0  0  0  0  0  0  0
  145.1273  131.4747  149.4728 H   0  0  0  0  0  0  0  0  0  0  0  0
  146.1878  132.7047  148.8151 H   0  0  0  0  0  0  0  0  0  0  0  0
  147.3325  131.6579  150.3419 H   0  0  0  0  0  0  0  0  0  0  0  0
  142.0242  133.0027  150.3017 H   0  0  0  0  0  0  0  0  0  0  0  0
  142.9627  133.5605  153.4608 H   0  0  0  0  0  0  0  0  0  0  0  0
  149.5834  137.0870  153.7829 H   0  0  0  0  0  0  0  0  0  0  0  0
  152.0040  137.5730  153.3698 H   0  0  0  0  0  0  0  0  0  0  0  0
  1  2  1  0  0  0  0
  1 35  1  0  0  0  0
  1 36  1  0  0  0  0
  1 37  1  0  0  0  0
  2  3  1  0  0  0  0
  2  4  1  0  0  0  0
  2 38  1  0  0  0  0
  3 39  1  0  0  0  0
  3 40  1  0  0  0  0
  3 41  1  0  0  0  0
  4  5  1  0  0  0  0
  5 30  1  0  0  0  0
  5  6  2  0  0  0  0
  6  7  1  0  0  0  0
  6 42  1  0  0  0  0
  7  8  1  0  0  0  0
  7 28  2  0  0  0  0
  8  9  1  0  0  0  0
  8 43  1  0  0  0  0
  8 44  1  0  0  0  0
  9 10  1  0  0  0  0
  9 45  1  0  0  0  0
 10 15  1  0  0  0  0
 10 11  2  0  0  0  0
 11 12  1  0  0  0  0
 12 13  2  0  0  0  0
 12 46  1  0  0  0  0
 13 14  1  0  0  0  0
 14 18  1  0  0  0  0
 14 15  2  0  0  0  0
 15 16  1  0  0  0  0
 16 17  2  0  0  0  0
 17 18  1  0  0  0  0
 17 47  1  0  0  0  0
 18 19  1  0  0  0  0
 19 31  1  0  0  0  0
 19 26  1  0  0  0  0
 19 20  1  0  0  0  0
 20 21  1  0  0  0  0
 21 32  1  0  0  0  0
 21 22  1  0  0  0  0
 21 24  1  0  0  0  0
 22 23  1  0  0  0  0
 22 48  1  0  0  0  0
 22 49  1  0  0  0  0
 23 50  1  0  0  0  0
 24 33  1  0  0  0  0
 24 25  1  0  0  0  0
 24 26  1  0  0  0  0
 25 51  1  0  0  0  0
 26 34  1  0  0  0  0
 26 27  1  0  0  0  0
 27 52  1  0  0  0  0
 28 29  1  0  0  0  0
 28 53  1  0  0  0  0
 29 30  2  0  0  0  0
 29 54  1  0  0  0  0
M  END
> <s_m_source_file>
AV-unprocessed.smi

> <i_m_source_file_index>
218

> <i_lp_mmshare_version>
43012

> <i_f3d_flags>
0

> <s_epik_input>
W0NIM11bQ0hdKFtDSDNdKU9jMVtjSF1jKFtjSF1bY0hdbjEpW0NIMl1bTkhdYyhuW2NIXW4yKWMoYzIzKW5bY0hdbjNbQ0BASF00T1tDQEhdKFtDSDJdW09IXSlbQ0BASF0oW09IXSlbQ0BIXTRbT0hd

> <s_epik_cmdline>
J2VwaWtfcHl0aG9uJywgJy1waCcsICc3LjAnLCAnLXRuJywgJzgnLCAnLW1hJywgJzIwMCcsICctbWV0YWxfYmluZGluZycsICctaW1hZScsICc8aW5maWxlLm1hZT4nLCAnLW9tYWUnLCAnPG91dGZpbGUubWFlPic=

> <r_lp_tautomer_probability>
1

> <r_epik_Ionization_Penalty>
0.00457014

> <r_epik_Ionization_Penalty_Charging>
0

> <r_epik_Ionization_Penalty_Neutral>
0.00457014

> <r_epik_State_Penalty>
-0

> <r_epik_Charging_Adjusted_Penalty>
0

> <i_epik_Tot_Q>
0

> <i_epik_Tot_abs_Q>
0

> <r_epik_Metal_State_Penalty>
-0

> <b_epik_Metal_Only>
0

> <s_epik_Chemistry_Notes>
This compound contains an acetal/aminal-like group ( X-CH(R)-Y where X, Y are N, S, or O) that may be acid/base labile, releasing an aldehyde.

> <s_lp_Force_Field>
OPLS_2005

> <r_lp_Energy>
42.4644

> <b_lp_Chiralities_Consistent>
1

> <s_lp_Variant>
AV-unprocessed.smi:218-8

> <Gold.Version>
5.8.1

> <Gold.Id.Protein>
6NUR|6NUR_protein|mol2

> <Gold.PLP.Fitness>
52.5756

> <Gold.PLP.PLP>
-36.2852

> <Gold.PLP.part.hbond>
-4.5242

> <Gold.PLP.part.metal>
0.0000

> <Gold.PLP.part.buried>
-5.2155

> <Gold.PLP.part.nonpolar>
-26.7507

> <Gold.PLP.part.repulsive>
1.0473

> <Gold.PLP.ligand.clash>
0.0027

> <Gold.PLP.ligand.torsion>
0.4259

> <Gold.PLP.Chemscore.Hbond>
3.4225

> <Gold.PLP.Chemscore.CHOScore>
2.2544

> <Gold.PLP.Chemscore.Metal>
0.0000

> <Gold.Chemscore.Hbonds>
donor molecule, donor type, donor heavy atom, donor atom, acceptor molecule, acceptor atom, score
      L1  H    23    50       P1 10747  1.00
      L1  H    25    51       P1 10186  1.00
      L1  H    27    52       P1 10957  0.47
      P1  H  7997  8008       L1     4  1.00
      L1  C    17    47       P1 10171  0.65
      L1  C    17    47       P1 10175  0.65
      L1  C    29    54       P1  7949  0.85

> <Gold.PLP.Chemscore.Internal.Correction>
0.1143

> <Gold.Rescore>
     Score         DG    S(hbond)    S(metal)    S(lipo)     H(rot)  DE(clash)    DE(int)     intcor
     11.33     -14.27       3.66        0.00      77.82       4.90       0.20       2.74       ----

> <Gold.Chemscore.Fitness>
11.3299

> <Gold.Chemscore.DG>
-14.2709

> <Gold.Chemscore.ZeroCoef>
-5.4800

> <Gold.Chemscore.Hbond>
3.6638

> <Gold.Chemscore.Metal>
0.0000

> <Gold.Chemscore.Lipo>
77.8236

> <Gold.Chemscore.Internal_Hbond>
0.0000

> <Gold.Chemscore.DEClash>
0.1968

> <Gold.Chemscore.DEInternal>
2.7443

> <Gold.Chemscore.Rot>
4.9029

> <Gold.Chemscore.Internal.Correction>
   9.000000E+99

> <Gold.Chemscore.Hbonds>
donor molecule, donor type, donor heavy atom, donor atom, acceptor molecule, acceptor atom, score
      L1  H    23    50       P1 10747  0.99
      L1  H    25    51       P1 10186  1.00
      L1  H    27    52       P1 10957  0.45
      P1  H  7997  8008       L1     4  0.68

> <Gold.Chemscore.Hbond.Weighted>
-12.2371

> <Gold.Chemscore.Metal.Weighted>
-0.0000

> <Gold.Chemscore.Lipo.Weighted>
-9.1054

> <Gold.Chemscore.Internal_Hbond.Weighted>
0.0000

> <Gold.Chemscore.DEClash.Weighted>
0.1968

> <Gold.Chemscore.DEInternal.Weighted>
2.7443

> <Gold.Chemscore.Rot.Weighted>
12.5515

> <Gold.Chemscore.Internal.Correction.Weighted>
   9.000000E+99

> <Gold.Protein.RotatedTorsions>
[ 6907 6896 6895 6894 ] final   -2.62 input  -60.11 | X-H torsion
[ 7974 7965 7964 7962 ] final  114.77 input  175.53 | X-H torsion
[ 8008 7997 7996 7995 ] final  -44.71 input   59.86 | X-H torsion
[ 10167 10162 10161 10158 ] final  153.30 input  -65.29 | X-H torsion
[ 10718 10713 10712 10709 ] final -123.35 input   66.30 | X-H torsion
[ 10763 10752 10751 10750 ] final   -5.00 input  -60.55 | X-H torsion
[ 11005 11000 10999 10996 ] final   -0.65 input  -57.11 | X-H torsion

> <Gold.Protein.ActiveResidues>
 VAL166  LYS551  ARG553  GLY616  TRP617  ASP618  TYR619  PRO620  LYS621  CYS622 
 ASP623  PHE694  ASN695  SER759  ASP760  ASP761  ALA762  ILE779  LEU786  VAL792 
 PHE793  MET794  SER795  GLU796  ALA797  LYS798  CYS799  TRP800  GLU811  SER814 

> <Gold.Protein.RotatedAtoms>
  151.5270  135.1068  159.9892 H   0  0  0  0  0  0  0  0  0  0  0  0  # atno 6907 bound_to 6896
  152.4595  133.7789  159.6850 H   0  0  0  0  0  0  0  0  0  0  0  0  # atno 6908 bound_to 6896
  150.8552  133.7662  159.3036 H   0  0  0  0  0  0  0  0  0  0  0  0  # atno 6909 bound_to 6896
  145.2003  139.2956  143.4322 H   0  0  0  0  0  0  0  0  0  0  0  0  # atno 7974 bound_to 7965
  154.3998  140.1415  156.3727 H   0  0  0  0  0  0  0  0  0  0  0  0  # atno 8008 bound_to 7997
  155.8077  140.3474  155.5419 H   0  0  0  0  0  0  0  0  0  0  0  0  # atno 8009 bound_to 7997
  155.8418  140.0928  157.1720 H   0  0  0  0  0  0  0  0  0  0  0  0  # atno 8010 bound_to 7997
  139.4828  144.5285  151.7762 H   0  0  0  0  0  0  0  0  0  0  0  0  # atno 10167 bound_to 10162
  156.1495  130.6524  150.9892 H   0  0  0  0  0  0  0  0  0  0  0  0  # atno 10718 bound_to 10713
  153.3926  135.7002  153.6484 H   0  0  0  0  0  0  0  0  0  0  0  0  # atno 10763 bound_to 10752
  153.5050  135.3644  155.2559 H   0  0  0  0  0  0  0  0  0  0  0  0  # atno 10764 bound_to 10752
  154.8703  135.4121  154.3245 H   0  0  0  0  0  0  0  0  0  0  0  0  # atno 10765 bound_to 10752
  140.6387  133.9509  155.8314 H   0  0  0  0  0  0  0  0  0  0  0  0  # atno 11005 bound_to 11000
  146.3419  140.2245  142.8592 LP  0  0  0  0  0  0  0  0  0  0  0  0  # atno 17320 bound_to 7965
  144.9954  140.8585  143.5314 LP  0  0  0  0  0  0  0  0  0  0  0  0  # atno 17321 bound_to 7965
  140.4808  144.1453  150.5932 LP  0  0  0  0  0  0  0  0  0  0  0  0  # atno 17342 bound_to 10162
  140.4280  143.2581  151.9631 LP  0  0  0  0  0  0  0  0  0  0  0  0  # atno 17343 bound_to 10162
  157.6645  131.0874  150.7761 LP  0  0  0  0  0  0  0  0  0  0  0  0  # atno 17370 bound_to 10713
  156.7830  130.4865  149.5397 LP  0  0  0  0  0  0  0  0  0  0  0  0  # atno 17371 bound_to 10713
  141.0623  134.0328  157.3642 LP  0  0  0  0  0  0  0  0  0  0  0  0  # atno 17394 bound_to 11000
  139.9088  135.0186  156.7604 LP  0  0  0  0  0  0  0  0  0  0  0  0  # atno 17395 bound_to 11000

$$$$
