AV-unprocessed.smi:1655|AV-procd|sdf|6645|dock6
  -GOLD-   22720 7343D 1   1.00000     0.00000
 Structure written by MMmdl.
 34 35  0  0  0  0  0  0  0  0  1 V2000
  149.5182  124.4187  150.7064 C   0  0  0  0  0  0  0  0  0  0  0  0
  148.9584  125.7271  151.1497 C   0  0  0  0  0  0  0  0  0  0  0  0
  148.7921  126.9282  150.5195 C   0  0  0  0  0  0  0  0  0  0  0  0
  148.2013  127.7383  151.5254 C   0  0  0  0  0  0  0  0  0  0  0  0
  147.8643  129.0910  151.2650 N   0  0  0  0  0  0  0  0  0  0  0  0
  146.9525  129.8456  151.9016 C   0  0  0  0  0  0  0  0  0  0  0  0
  146.2442  129.4666  152.8351 O   0  0  0  0  0  0  0  0  0  0  0  0
  146.9050  131.0851  151.3923 N   0  0  0  0  0  0  0  0  0  0  0  0
  146.0280  132.1511  151.8627 C   0  0  0  0  0  0  0  0  0  0  0  0
  145.7492  133.1840  150.7580 C   0  0  0  0  0  0  0  0  0  0  0  0
  144.7923  134.2952  151.2138 C   0  0  1  0  0  0  0  0  0  0  0  0
  143.8674  133.8868  152.3603 C   0  0  0  0  0  0  0  0  0  0  0  0
  143.5812  135.1958  153.0828 C   0  0  0  0  0  0  0  0  0  0  0  0
  144.5678  136.1904  152.4660 C   0  0  0  0  0  0  0  0  0  0  0  0
  145.5085  135.3862  151.7704 O   0  0  0  0  0  0  0  0  0  0  0  0
  148.0239  127.0908  152.6669 N   0  0  0  0  0  0  0  0  0  0  0  0
  148.5085  125.7986  152.4320 O   0  0  0  0  0  0  0  0  0  0  0  0
  149.4115  124.2962  149.6285 H   0  0  0  0  0  0  0  0  0  0  0  0
  149.0032  123.5896  151.1921 H   0  0  0  0  0  0  0  0  0  0  0  0
  150.5779  124.3494  150.9519 H   0  0  0  0  0  0  0  0  0  0  0  0
  149.0523  127.1826  149.5028 H   0  0  0  0  0  0  0  0  0  0  0  0
  148.3747  129.5330  150.5151 H   0  0  0  0  0  0  0  0  0  0  0  0
  147.5216  131.3102  150.6254 H   0  0  0  0  0  0  0  0  0  0  0  0
  145.0933  131.6958  152.1909 H   0  0  0  0  0  0  0  0  0  0  0  0
  146.4621  132.6348  152.7396 H   0  0  0  0  0  0  0  0  0  0  0  0
  146.6896  133.6374  150.4418 H   0  0  0  0  0  0  0  0  0  0  0  0
  145.3383  132.6835  149.8803 H   0  0  0  0  0  0  0  0  0  0  0  0
  144.1971  134.6538  150.3717 H   0  0  0  0  0  0  0  0  0  0  0  0
  142.9627  133.3913  152.0071 H   0  0  0  0  0  0  0  0  0  0  0  0
  144.3801  133.2029  153.0382 H   0  0  0  0  0  0  0  0  0  0  0  0
  142.5522  135.5251  152.9356 H   0  0  0  0  0  0  0  0  0  0  0  0
  143.7488  135.0847  154.1548 H   0  0  0  0  0  0  0  0  0  0  0  0
  144.0603  136.8434  151.7543 H   0  0  0  0  0  0  0  0  0  0  0  0
  145.0566  136.8156  153.2134 H   0  0  0  0  0  0  0  0  0  0  0  0
  1  2  1  0  0  0  0
  1 18  1  0  0  0  0
  1 19  1  0  0  0  0
  1 20  1  0  0  0  0
  2 17  1  0  0  0  0
  2  3  2  0  0  0  0
  3  4  1  0  0  0  0
  3 21  1  0  0  0  0
  4  5  1  0  0  0  0
  4 16  2  0  0  0  0
  5  6  1  0  0  0  0
  5 22  1  0  0  0  0
  6  7  2  0  0  0  0
  6  8  1  0  0  0  0
  8  9  1  0  0  0  0
  8 23  1  0  0  0  0
  9 10  1  0  0  0  0
  9 24  1  0  0  0  0
  9 25  1  0  0  0  0
 10 11  1  0  0  0  0
 10 26  1  0  0  0  0
 10 27  1  0  0  0  0
 11 15  1  0  0  0  0
 11 12  1  0  0  0  0
 11 28  1  0  0  0  0
 12 13  1  0  0  0  0
 12 29  1  0  0  0  0
 12 30  1  0  0  0  0
 13 14  1  0  0  0  0
 13 31  1  0  0  0  0
 13 32  1  0  0  0  0
 14 15  1  0  0  0  0
 14 33  1  0  0  0  0
 14 34  1  0  0  0  0
 16 17  1  0  0  0  0
M  END
> <s_m_source_file>
AV-unprocessed.smi

> <i_m_source_file_index>
1655

> <i_lp_mmshare_version>
43012

> <i_f3d_flags>
0

> <s_epik_input>
W0NIM11jMVtjSF1jKG5vMSlbTkhdQyg9TylbTkhdW0NIMl1bQ0gyXVtDQEBIXTJbQ0gyXVtDSDJdW0NIMl1PMg==

> <s_epik_cmdline>
J2VwaWtfcHl0aG9uJywgJy1waCcsICc3LjAnLCAnLXRuJywgJzgnLCAnLW1hJywgJzIwMCcsICctbWV0YWxfYmluZGluZycsICctaW1hZScsICc8aW5maWxlLm1hZT4nLCAnLW9tYWUnLCAnPG91dGZpbGUubWFlPic=

> <r_lp_tautomer_probability>
1

> <r_epik_Ionization_Penalty>
2.23964e-05

> <r_epik_Ionization_Penalty_Charging>
0

> <r_epik_Ionization_Penalty_Neutral>
2.23964e-05

> <r_epik_State_Penalty>
-0

> <r_epik_Charging_Adjusted_Penalty>
0

> <i_epik_Tot_Q>
0

> <i_epik_Tot_abs_Q>
0

> <r_epik_Metal_State_Penalty>
-0

> <b_epik_Metal_Only>
0

> <s_lp_Force_Field>
OPLS_2005

> <r_lp_Energy>
15.0992

> <b_lp_Chiralities_Consistent>
1

> <s_lp_Variant>
AV-unprocessed.smi:1655-2

> <Gold.Version>
5.8.1

> <Gold.Id.Protein>
6NUR|6NUR_protein|mol2

> <Gold.PLP.Fitness>
38.0109

> <Gold.PLP.PLP>
-33.8450

> <Gold.PLP.part.hbond>
-3.2662

> <Gold.PLP.part.metal>
0.0000

> <Gold.PLP.part.buried>
-5.9092

> <Gold.PLP.part.nonpolar>
-25.0165

> <Gold.PLP.part.repulsive>
0.4908

> <Gold.PLP.ligand.clash>
0.0000

> <Gold.PLP.ligand.torsion>
0.7209

> <Gold.PLP.Chemscore.Hbond>
1.8640

> <Gold.PLP.Chemscore.CHOScore>
0.0000

> <Gold.PLP.Chemscore.Metal>
0.0000

> <Gold.Chemscore.Hbonds>
donor molecule, donor type, donor heavy atom, donor atom, acceptor molecule, acceptor atom, score
      L1  H     5    22       P1 10747  0.46
      L1  H     8    23       P1 10747  0.66

> <Gold.PLP.Chemscore.Internal.Correction>
0.0158

> <Gold.Rescore>
     Score         DG    S(hbond)    S(metal)    S(lipo)     H(rot)  DE(clash)    DE(int)     intcor
     10.62     -12.50       1.31        0.00      56.50       1.55       0.01       1.87       ----

> <Gold.Chemscore.Fitness>
10.6188

> <Gold.Chemscore.DG>
-12.4966

> <Gold.Chemscore.ZeroCoef>
-5.4800

> <Gold.Chemscore.Hbond>
1.3099

> <Gold.Chemscore.Metal>
0.0000

> <Gold.Chemscore.Lipo>
56.4974

> <Gold.Chemscore.Internal_Hbond>
0.0000

> <Gold.Chemscore.DEClash>
0.0097

> <Gold.Chemscore.DEInternal>
1.8681

> <Gold.Chemscore.Rot>
1.5503

> <Gold.Chemscore.Internal.Correction>
   9.000000E+99

> <Gold.Chemscore.Hbonds>
donor molecule, donor type, donor heavy atom, donor atom, acceptor molecule, acceptor atom, score
      L1  H     5    22       P1 10747  0.08
      L1  H     8    23       P1 10747  0.63

> <Gold.Chemscore.Hbond.Weighted>
-4.3751

> <Gold.Chemscore.Metal.Weighted>
-0.0000

> <Gold.Chemscore.Lipo.Weighted>
-6.6102

> <Gold.Chemscore.Internal_Hbond.Weighted>
0.0000

> <Gold.Chemscore.DEClash.Weighted>
0.0097

> <Gold.Chemscore.DEInternal.Weighted>
1.8681

> <Gold.Chemscore.Rot.Weighted>
3.9687

> <Gold.Chemscore.Internal.Correction.Weighted>
   9.000000E+99

> <Gold.Protein.RotatedTorsions>
[ 6907 6896 6895 6894 ] final -175.25 input  -60.11 | X-H torsion
[ 7974 7965 7964 7962 ] final  -33.31 input  175.53 | X-H torsion
[ 8008 7997 7996 7995 ] final -146.92 input   59.86 | X-H torsion
[ 10167 10162 10161 10158 ] final   18.72 input  -65.29 | X-H torsion
[ 10718 10713 10712 10709 ] final   45.55 input   66.30 | X-H torsion
[ 10763 10752 10751 10750 ] final   50.11 input  -60.55 | X-H torsion
[ 11005 11000 10999 10996 ] final -168.39 input  -57.11 | X-H torsion

> <Gold.Protein.ActiveResidues>
 VAL166  LYS551  ARG553  GLY616  TRP617  ASP618  TYR619  PRO620  LYS621  CYS622 
 ASP623  PHE694  ASN695  SER759  ASP760  ASP761  ALA762  ILE779  LEU786  VAL792 
 PHE793  MET794  SER795  GLU796  ALA797  LYS798  CYS799  TRP800  GLU811  SER814 

> <Gold.Protein.RotatedAtoms>
  151.5855  133.3372  159.3016 H   0  0  0  0  0  0  0  0  0  0  0  0  # atno 6907 bound_to 6896
  150.8289  134.7537  159.6848 H   0  0  0  0  0  0  0  0  0  0  0  0  # atno 6908 bound_to 6896
  152.4375  134.5663  159.9960 H   0  0  0  0  0  0  0  0  0  0  0  0  # atno 6909 bound_to 6896
  146.0921  140.5900  142.8859 H   0  0  0  0  0  0  0  0  0  0  0  0  # atno 7974 bound_to 7965
  155.5671  140.0631  157.2815 H   0  0  0  0  0  0  0  0  0  0  0  0  # atno 8008 bound_to 7997
  154.4372  140.1875  156.0887 H   0  0  0  0  0  0  0  0  0  0  0  0  # atno 8009 bound_to 7997
  156.0404  140.3296  155.7241 H   0  0  0  0  0  0  0  0  0  0  0  0  # atno 8010 bound_to 7997
  140.5632  143.9299  150.6657 H   0  0  0  0  0  0  0  0  0  0  0  0  # atno 10167 bound_to 10162
  157.4388  130.8068  149.7673 H   0  0  0  0  0  0  0  0  0  0  0  0  # atno 10718 bound_to 10713
  152.9785  135.5890  154.4198 H   0  0  0  0  0  0  0  0  0  0  0  0  # atno 10763 bound_to 10752
  154.3824  135.2767  155.2205 H   0  0  0  0  0  0  0  0  0  0  0  0  # atno 10764 bound_to 10752
  154.4113  135.6080  153.6009 H   0  0  0  0  0  0  0  0  0  0  0  0  # atno 10765 bound_to 10752
  140.5425  134.5508  157.5103 H   0  0  0  0  0  0  0  0  0  0  0  0  # atno 11005 bound_to 11000
  144.7368  140.4830  143.6898 LP  0  0  0  0  0  0  0  0  0  0  0  0  # atno 17320 bound_to 7965
  145.6019  139.1504  143.3124 LP  0  0  0  0  0  0  0  0  0  0  0  0  # atno 17321 bound_to 7965
  140.2755  143.3426  152.1199 LP  0  0  0  0  0  0  0  0  0  0  0  0  # atno 17342 bound_to 10162
  139.5080  144.6842  151.5930 LP  0  0  0  0  0  0  0  0  0  0  0  0  # atno 17343 bound_to 10162
  155.9940  130.3920  150.2875 LP  0  0  0  0  0  0  0  0  0  0  0  0  # atno 17370 bound_to 10713
  157.1038  131.0203  151.3075 LP  0  0  0  0  0  0  0  0  0  0  0  0  # atno 17371 bound_to 10713
  139.9497  134.7639  156.0478 LP  0  0  0  0  0  0  0  0  0  0  0  0  # atno 17394 bound_to 11000
  141.1219  133.6610  156.3236 LP  0  0  0  0  0  0  0  0  0  0  0  0  # atno 17395 bound_to 11000

$$$$
