AV-unprocessed.smi:281|AV-procd|sdf|2108|dock8
  -GOLD-   2262021403D 1   1.00000     0.00000
 Structure written by MMmdl.
 55 59  0  0  0  0  0  0  0  0  1 V2000
  151.8316  139.4061  155.2425 C   0  0  0  0  0  0  0  0  0  0  0  0
  150.3740  139.4622  154.7734 C   0  0  1  0  0  0  0  0  0  0  0  0
  149.6629  138.1076  154.9360 C   0  0  0  0  0  0  0  0  0  0  0  0
  148.2588  138.2415  154.5743 N   0  0  0  0  0  0  0  0  0  0  0  0
  147.5762  137.0798  154.5093 C   0  0  0  0  0  0  0  0  0  0  0  0
  147.9333  136.1076  155.3832 N   0  0  0  0  0  0  0  0  0  0  0  0
  147.3010  134.9301  155.3657 C   0  0  0  0  0  0  0  0  0  0  0  0
  146.3065  134.5276  154.5714 N   0  0  0  0  0  0  0  0  0  0  0  0
  145.9488  135.5041  153.6882 C   0  0  0  0  0  0  0  0  0  0  0  0
  146.5311  136.7986  153.5844 C   0  0  0  0  0  0  0  0  0  0  0  0
  145.9226  137.5105  152.5579 N   0  0  0  0  0  0  0  0  0  0  0  0
  145.0267  136.6870  152.0872 C   0  0  0  0  0  0  0  0  0  0  0  0
  144.9638  135.4639  152.7164 N   0  0  0  0  0  0  0  0  0  0  0  0
  144.0599  134.3663  152.4053 C   0  0  0  0  0  0  0  0  0  0  0  0
  144.2768  133.7628  150.9959 C   0  0  2  0  0  0  0  0  0  0  0  0
  143.8314  134.6922  150.0250 O   0  0  0  0  0  0  0  0  0  0  0  0
  143.5279  132.4417  150.8024 C   0  0  0  0  0  0  0  0  0  0  0  0
  144.6390  131.3993  150.7553 C   0  0  0  0  0  0  0  0  0  0  0  0
  145.6945  132.0972  150.1196 O   0  0  0  0  0  0  0  0  0  0  0  0
  145.7439  133.3920  150.7003 C   0  0  0  0  0  0  0  0  0  0  0  0
  147.5751  139.2665  155.3497 C   0  0  0  0  0  0  0  0  0  0  0  0
  148.3126  140.6239  155.2241 C   0  0  1  0  0  0  0  0  0  0  0  0
  148.1442  141.2649  153.8497 C   0  0  0  0  0  0  0  0  0  0  0  0
  146.8135  141.9976  153.9717 C   0  0  0  0  0  0  0  0  0  0  0  0
  146.7212  142.3946  155.3342 O   0  0  0  0  0  0  0  0  0  0  0  0
  147.7267  141.7443  156.1071 C   0  0  1  0  0  0  0  0  0  0  0  0
  147.1772  141.3310  157.4801 C   0  0  0  0  0  0  0  0  0  0  0  0
  149.6954  140.4498  155.5512 O   0  0  0  0  0  0  0  0  0  0  0  0
  152.4008  138.6742  154.6688 H   0  0  0  0  0  0  0  0  0  0  0  0
  151.8971  139.1311  156.2956 H   0  0  0  0  0  0  0  0  0  0  0  0
  152.3175  140.3743  155.1201 H   0  0  0  0  0  0  0  0  0  0  0  0
  150.3655  139.7551  153.7228 H   0  0  0  0  0  0  0  0  0  0  0  0
  150.1373  137.3540  154.3058 H   0  0  0  0  0  0  0  0  0  0  0  0
  149.7514  137.7693  155.9687 H   0  0  0  0  0  0  0  0  0  0  0  0
  147.6404  134.2067  156.0923 H   0  0  0  0  0  0  0  0  0  0  0  0
  144.3807  136.9544  151.2636 H   0  0  0  0  0  0  0  0  0  0  0  0
  144.1883  133.5950  153.1661 H   0  0  0  0  0  0  0  0  0  0  0  0
  143.0355  134.7269  152.5080 H   0  0  0  0  0  0  0  0  0  0  0  0
  142.9656  134.4391  149.7431 H   0  0  0  0  0  0  0  0  0  0  0  0
  142.8009  132.2341  151.5885 H   0  0  0  0  0  0  0  0  0  0  0  0
  142.9911  132.4310  149.8521 H   0  0  0  0  0  0  0  0  0  0  0  0
  144.9440  131.1046  151.7610 H   0  0  0  0  0  0  0  0  0  0  0  0
  144.3557  130.5037  150.2021 H   0  0  0  0  0  0  0  0  0  0  0  0
  146.2547  134.1043  150.0510 H   0  0  0  0  0  0  0  0  0  0  0  0
  146.3224  133.3131  151.6214 H   0  0  0  0  0  0  0  0  0  0  0  0
  146.5379  139.3569  155.0238 H   0  0  0  0  0  0  0  0  0  0  0  0
  147.5548  138.9438  156.3911 H   0  0  0  0  0  0  0  0  0  0  0  0
  148.9403  141.9912  153.6797 H   0  0  0  0  0  0  0  0  0  0  0  0
  148.1599  140.5554  153.0219 H   0  0  0  0  0  0  0  0  0  0  0  0
  146.7474  142.8548  153.3014 H   0  0  0  0  0  0  0  0  0  0  0  0
  145.9838  141.3271  153.7455 H   0  0  0  0  0  0  0  0  0  0  0  0
  148.5070  142.4911  156.2640 H   0  0  0  0  0  0  0  0  0  0  0  0
  147.9366  140.8125  158.0659 H   0  0  0  0  0  0  0  0  0  0  0  0
  146.3118  140.6745  157.3870 H   0  0  0  0  0  0  0  0  0  0  0  0
  146.8616  142.2064  158.0476 H   0  0  0  0  0  0  0  0  0  0  0  0
  1  2  1  0  0  0  0
  1 29  1  0  0  0  0
  1 30  1  0  0  0  0
  1 31  1  0  0  0  0
  2 28  1  0  0  0  0
  2  3  1  0  0  0  0
  2 32  1  0  0  0  0
  3  4  1  0  0  0  0
  3 33  1  0  0  0  0
  3 34  1  0  0  0  0
  4  5  1  0  0  0  0
  4 21  1  0  0  0  0
  5 10  1  0  0  0  0
  5  6  2  0  0  0  0
  6  7  1  0  0  0  0
  7  8  2  0  0  0  0
  7 35  1  0  0  0  0
  8  9  1  0  0  0  0
  9 13  1  0  0  0  0
  9 10  2  0  0  0  0
 10 11  1  0  0  0  0
 11 12  2  0  0  0  0
 12 13  1  0  0  0  0
 12 36  1  0  0  0  0
 13 14  1  0  0  0  0
 14 15  1  0  0  0  0
 14 37  1  0  0  0  0
 14 38  1  0  0  0  0
 15 20  1  0  0  0  0
 15 16  1  0  0  0  0
 15 17  1  0  0  0  0
 16 39  1  0  0  0  0
 17 18  1  0  0  0  0
 17 40  1  0  0  0  0
 17 41  1  0  0  0  0
 18 19  1  0  0  0  0
 18 42  1  0  0  0  0
 18 43  1  0  0  0  0
 19 20  1  0  0  0  0
 20 44  1  0  0  0  0
 20 45  1  0  0  0  0
 21 22  1  0  0  0  0
 21 46  1  0  0  0  0
 21 47  1  0  0  0  0
 22 26  1  0  0  0  0
 22 23  1  0  0  0  0
 22 28  1  0  0  0  0
 23 24  1  0  0  0  0
 23 48  1  0  0  0  0
 23 49  1  0  0  0  0
 24 25  1  0  0  0  0
 24 50  1  0  0  0  0
 24 51  1  0  0  0  0
 25 26  1  0  0  0  0
 26 27  1  0  0  0  0
 26 52  1  0  0  0  0
 27 53  1  0  0  0  0
 27 54  1  0  0  0  0
 27 55  1  0  0  0  0
M  END
> <s_m_source_file>
AV-unprocessed.smi

> <i_m_source_file_index>
281

> <i_lp_mmshare_version>
43012

> <i_f3d_flags>
0

> <s_epik_input>
W0NIM11bQ0BASF0xT1tDSDJdW0NIMl1bQ0BAXTEyW0NIMl1OKFtDSDJdW0NASF0oTzIpW0NIM10pYyhuW2NIXW4zKWMoYzM0KW5bY0hdbjRbQ0gyXVtDQEBdNShbT0hdKVtDSDJdW0NIMl1PW0NIMl01

> <s_epik_cmdline>
J2VwaWtfcHl0aG9uJywgJy1waCcsICc3LjAnLCAnLXRuJywgJzgnLCAnLW1hJywgJzIwMCcsICctbWV0YWxfYmluZGluZycsICctaW1hZScsICc8aW5maWxlLm1hZT4nLCAnLW9tYWUnLCAnPG91dGZpbGUubWFlPic=

> <r_lp_tautomer_probability>
1

> <r_epik_Ionization_Penalty>
0.00571331

> <r_epik_Ionization_Penalty_Charging>
0

> <r_epik_Ionization_Penalty_Neutral>
0.00571331

> <r_epik_State_Penalty>
0.00399586

> <r_epik_Charging_Adjusted_Penalty>
0.00399586

> <i_epik_Tot_Q>
0

> <i_epik_Tot_abs_Q>
0

> <r_epik_Metal_State_Penalty>
-0

> <b_epik_Metal_Only>
0

> <s_lp_Force_Field>
OPLS_2005

> <r_lp_Energy>
55.9706

> <b_lp_Chiralities_Consistent>
1

> <s_lp_Variant>
AV-unprocessed.smi:281-8

> <Gold.Version>
5.8.1

> <Gold.Id.Protein>
6NUR|6NUR_protein|mol2

> <Gold.PLP.Fitness>
38.7728

> <Gold.PLP.PLP>
-34.2202

> <Gold.PLP.part.hbond>
-1.0000

> <Gold.PLP.part.metal>
0.0000

> <Gold.PLP.part.buried>
-4.5598

> <Gold.PLP.part.nonpolar>
-29.8005

> <Gold.PLP.part.repulsive>
0.9161

> <Gold.PLP.ligand.clash>
0.0000

> <Gold.PLP.ligand.torsion>
0.7918

> <Gold.PLP.Chemscore.Hbond>
1.0000

> <Gold.PLP.Chemscore.CHOScore>
1.0000

> <Gold.PLP.Chemscore.Metal>
0.0000

> <Gold.Chemscore.Hbonds>
donor molecule, donor type, donor heavy atom, donor atom, acceptor molecule, acceptor atom, score
      L1  H    16    39       P1 10186  1.00
      L1  C    12    36       P1 10171  1.00

> <Gold.PLP.Chemscore.Internal.Correction>
0.1363

> <Gold.Rescore>
     Score         DG    S(hbond)    S(metal)    S(lipo)     H(rot)  DE(clash)    DE(int)     intcor
     12.23     -13.45       0.98        0.00      86.02       2.09       0.49       0.74       ----

> <Gold.Chemscore.Fitness>
12.2256

> <Gold.Chemscore.DG>
-13.4532

> <Gold.Chemscore.ZeroCoef>
-5.4800

> <Gold.Chemscore.Hbond>
0.9779

> <Gold.Chemscore.Metal>
0.0000

> <Gold.Chemscore.Lipo>
86.0217

> <Gold.Chemscore.Internal_Hbond>
0.0000

> <Gold.Chemscore.DEClash>
0.4877

> <Gold.Chemscore.DEInternal>
0.7399

> <Gold.Chemscore.Rot>
2.0927

> <Gold.Chemscore.Internal.Correction>
   9.000000E+99

> <Gold.Chemscore.Hbonds>
donor molecule, donor type, donor heavy atom, donor atom, acceptor molecule, acceptor atom, score
      L1  H    16    39       P1 10186  0.95

> <Gold.Chemscore.Hbond.Weighted>
-3.2660

> <Gold.Chemscore.Metal.Weighted>
-0.0000

> <Gold.Chemscore.Lipo.Weighted>
-10.0645

> <Gold.Chemscore.Internal_Hbond.Weighted>
0.0000

> <Gold.Chemscore.DEClash.Weighted>
0.4877

> <Gold.Chemscore.DEInternal.Weighted>
0.7399

> <Gold.Chemscore.Rot.Weighted>
5.3573

> <Gold.Chemscore.Internal.Correction.Weighted>
   9.000000E+99

> <Gold.Protein.RotatedTorsions>
[ 6907 6896 6895 6894 ] final   37.32 input  -60.11 | X-H torsion
[ 7974 7965 7964 7962 ] final -145.66 input  175.53 | X-H torsion
[ 8008 7997 7996 7995 ] final   23.91 input   59.86 | X-H torsion
[ 10167 10162 10161 10158 ] final  161.59 input  -65.29 | X-H torsion
[ 10718 10713 10712 10709 ] final  -46.94 input   66.30 | X-H torsion
[ 10763 10752 10751 10750 ] final   42.71 input  -60.55 | X-H torsion
[ 11005 11000 10999 10996 ] final -155.53 input  -57.11 | X-H torsion

> <Gold.Protein.ActiveResidues>
 VAL166  LYS551  ARG553  GLY616  TRP617  ASP618  TYR619  PRO620  LYS621  CYS622 
 ASP623  PHE694  ASN695  SER759  ASP760  ASP761  ALA762  ILE779  LEU786  VAL792 
 PHE793  MET794  SER795  GLU796  ALA797  LYS798  CYS799  TRP800  GLU811  SER814 

> <Gold.Protein.RotatedAtoms>
  152.1416  134.9058  160.0553 H   0  0  0  0  0  0  0  0  0  0  0  0  # atno 6907 bound_to 6896
  152.0123  133.3861  159.4233 H   0  0  0  0  0  0  0  0  0  0  0  0  # atno 6908 bound_to 6896
  150.6866  134.3638  159.5006 H   0  0  0  0  0  0  0  0  0  0  0  0  # atno 6909 bound_to 6896
  144.8212  140.5555  143.5577 H   0  0  0  0  0  0  0  0  0  0  0  0  # atno 7974 bound_to 7965
  154.9881  140.3110  155.4917 H   0  0  0  0  0  0  0  0  0  0  0  0  # atno 8008 bound_to 7997
  156.2944  140.2254  156.4924 H   0  0  0  0  0  0  0  0  0  0  0  0  # atno 8009 bound_to 7997
  154.7728  140.0451  157.1053 H   0  0  0  0  0  0  0  0  0  0  0  0  # atno 8010 bound_to 7997
  139.4851  144.4521  151.8816 H   0  0  0  0  0  0  0  0  0  0  0  0  # atno 10167 bound_to 10162
  156.2133  130.4162  149.9086 H   0  0  0  0  0  0  0  0  0  0  0  0  # atno 10718 bound_to 10713
  152.9877  135.6123  154.2993 H   0  0  0  0  0  0  0  0  0  0  0  0  # atno 10763 bound_to 10752
  154.2714  135.2779  155.2738 H   0  0  0  0  0  0  0  0  0  0  0  0  # atno 10764 bound_to 10752
  154.5118  135.5839  153.6668 H   0  0  0  0  0  0  0  0  0  0  0  0  # atno 10765 bound_to 10752
  140.6855  134.4099  157.5223 H   0  0  0  0  0  0  0  0  0  0  0  0  # atno 11005 bound_to 11000
  145.5101  139.1479  143.3610 LP  0  0  0  0  0  0  0  0  0  0  0  0  # atno 17320 bound_to 7965
  146.2517  140.5241  142.8890 LP  0  0  0  0  0  0  0  0  0  0  0  0  # atno 17321 bound_to 7965
  140.3979  144.2531  150.5895 LP  0  0  0  0  0  0  0  0  0  0  0  0  # atno 17342 bound_to 10162
  140.5085  143.2297  151.8571 LP  0  0  0  0  0  0  0  0  0  0  0  0  # atno 17343 bound_to 10162
  156.6757  130.8838  151.3568 LP  0  0  0  0  0  0  0  0  0  0  0  0  # atno 17370 bound_to 10713
  157.7050  130.9375  150.0903 LP  0  0  0  0  0  0  0  0  0  0  0  0  # atno 17371 bound_to 10713
  139.8939  134.8720  156.2202 LP  0  0  0  0  0  0  0  0  0  0  0  0  # atno 17394 bound_to 11000
  141.0284  133.7002  156.1387 LP  0  0  0  0  0  0  0  0  0  0  0  0  # atno 17395 bound_to 11000

$$$$
