AV-unprocessed.smi:442|AV-procd|sdf|2583|dock10
  -GOLD-   2262022573D 1   1.00000     0.00000
 Structure written by MMmdl.
 37 37  0  0  0  0  0  0  0  0  3 V2000
  152.7041  143.2253  162.2822 C   0  0  0  0  0  0  0  0  0  0  0  0
  152.4096  143.3820  160.7833 C   0  0  0  0  0  0  0  0  0  0  0  0
  152.5006  142.0660  159.9857 C   0  0  2  0  0  0  0  0  0  0  0  0
  153.9210  141.4844  160.0144 C   0  0  0  0  0  0  0  0  0  0  0  0
  152.0985  142.2752  158.5955 N   0  0  0  0  0  0  0  0  0  0  0  0
  150.8501  142.1788  158.1115 C   0  0  0  0  0  0  0  0  0  0  0  0
  149.8698  141.9137  158.8086 O   0  0  0  0  0  0  0  0  0  0  0  0
  150.6937  142.4500  156.6084 C   0  0  0  0  0  0  0  0  0  0  0  0
  150.4119  141.2336  155.8242 N   0  0  0  0  0  0  0  0  0  0  0  0
  151.4437  140.2808  155.7522 C   0  0  0  0  0  0  0  0  0  0  0  0
  151.3148  139.1348  155.0611 C   0  0  0  0  0  0  0  0  0  0  0  0
  152.3943  138.1731  154.9966 N   0  3  0  0  0  0  0  0  0  0  0  0
  153.4245  138.3999  155.6230 O   0  0  0  0  0  0  0  0  0  0  0  0
  152.2503  137.1605  154.3181 O   0  5  0  0  0  0  0  0  0  0  0  0
  150.0607  138.8941  154.3777 C   0  0  0  0  0  0  0  0  0  0  0  0
  149.0524  139.8018  154.4290 C   0  0  0  0  0  0  0  0  0  0  0  0
  147.7544  139.5970  153.7474 C   0  0  0  0  0  0  0  0  0  0  0  0
  147.7205  138.5342  152.9336 N   0  0  0  0  0  0  0  0  0  0  0  0
  146.7436  140.2904  153.8578 O   0  0  0  0  0  0  0  0  0  0  0  0
  149.2075  141.0701  155.1923 C   0  0  0  0  0  0  0  0  0  0  0  0
  148.3451  141.9482  155.2822 O   0  0  0  0  0  0  0  0  0  0  0  0
  152.6838  144.1934  162.7829 H   0  0  0  0  0  0  0  0  0  0  0  0
  153.6891  142.7874  162.4460 H   0  0  0  0  0  0  0  0  0  0  0  0
  151.9678  142.5876  162.7717 H   0  0  0  0  0  0  0  0  0  0  0  0
  151.4203  143.8239  160.6560 H   0  0  0  0  0  0  0  0  0  0  0  0
  153.1168  144.1000  160.3662 H   0  0  0  0  0  0  0  0  0  0  0  0
  151.8440  141.3356  160.4619 H   0  0  0  0  0  0  0  0  0  0  0  0
  154.2447  141.2900  161.0373 H   0  0  0  0  0  0  0  0  0  0  0  0
  154.6409  142.1675  159.5621 H   0  0  0  0  0  0  0  0  0  0  0  0
  153.9698  140.5404  159.4705 H   0  0  0  0  0  0  0  0  0  0  0  0
  152.8355  142.5057  157.9452 H   0  0  0  0  0  0  0  0  0  0  0  0
  149.8971  143.1839  156.4796 H   0  0  0  0  0  0  0  0  0  0  0  0
  151.5920  142.9439  156.2325 H   0  0  0  0  0  0  0  0  0  0  0  0
  152.3429  140.5525  156.2861 H   0  0  0  0  0  0  0  0  0  0  0  0
  149.9534  137.9704  153.8290 H   0  0  0  0  0  0  0  0  0  0  0  0
  146.8776  138.3110  152.4252 H   0  0  0  0  0  0  0  0  0  0  0  0
  148.5429  137.9569  152.8332 H   0  0  0  0  0  0  0  0  0  0  0  0
  1  2  1  0  0  0  0
  1 22  1  0  0  0  0
  1 23  1  0  0  0  0
  1 24  1  0  0  0  0
  2  3  1  0  0  0  0
  2 25  1  0  0  0  0
  2 26  1  0  0  0  0
  3  4  1  0  0  0  0
  3  5  1  0  0  0  0
  3 27  1  0  0  0  0
  4 28  1  0  0  0  0
  4 29  1  0  0  0  0
  4 30  1  0  0  0  0
  5  6  1  0  0  0  0
  5 31  1  0  0  0  0
  6  7  2  0  0  0  0
  6  8  1  0  0  0  0
  8  9  1  0  0  0  0
  8 32  1  0  0  0  0
  8 33  1  0  0  0  0
  9 20  1  0  0  0  0
  9 10  1  0  0  0  0
 10 11  2  0  0  0  0
 10 34  1  0  0  0  0
 11 12  1  0  0  0  0
 11 15  1  0  0  0  0
 12 13  2  0  0  0  0
 12 14  1  0  0  0  0
 15 16  2  0  0  0  0
 15 35  1  0  0  0  0
 16 17  1  0  0  0  0
 16 20  1  0  0  0  0
 17 18  1  0  0  0  0
 17 19  2  0  0  0  0
 18 36  1  0  0  0  0
 18 37  1  0  0  0  0
 20 21  2  0  0  0  0
M  CHG  1  12   1
M  CHG  1  14  -1
M  END
> <s_m_source_file>
AV-unprocessed.smi

> <i_m_source_file_index>
442

> <i_lp_mmshare_version>
43012

> <i_f3d_flags>
0

> <s_epik_input>
W0NIM11bQ0gyXVtDQEhdKFtDSDNdKVtOSF1DKD1PKVtDSDJdbjFbY0hdYyhbTitdKD1PKVtPLV0pW2NIXWMoYzE9TylDKD1PKVtOSDJd

> <s_epik_cmdline>
J2VwaWtfcHl0aG9uJywgJy1waCcsICc3LjAnLCAnLXRuJywgJzgnLCAnLW1hJywgJzIwMCcsICctbWV0YWxfYmluZGluZycsICctaW1hZScsICc8aW5maWxlLm1hZT4nLCAnLW9tYWUnLCAnPG91dGZpbGUubWFlPic=

> <r_lp_tautomer_probability>
1

> <r_epik_Ionization_Penalty>
2.86914e-06

> <r_epik_Ionization_Penalty_Charging>
2.2828e-12

> <r_epik_Ionization_Penalty_Neutral>
2.86914e-06

> <r_epik_State_Penalty>
-0

> <r_epik_Charging_Adjusted_Penalty>
2.2828e-12

> <i_epik_Tot_Q>
0

> <i_epik_Tot_abs_Q>
2

> <r_epik_Metal_State_Penalty>
-0

> <b_epik_Metal_Only>
0

> <s_lp_Force_Field>
OPLS_2005

> <r_lp_Energy>
21.8648

> <b_lp_Chiralities_Consistent>
1

> <s_lp_Variant>
AV-unprocessed.smi:442-1

> <Gold.Version>
5.8.1

> <Gold.Id.Protein>
6NUR|6NUR_protein|mol2

> <Gold.PLP.Fitness>
50.8899

> <Gold.PLP.PLP>
-44.9389

> <Gold.PLP.part.hbond>
-4.8118

> <Gold.PLP.part.metal>
0.0000

> <Gold.PLP.part.buried>
-3.9540

> <Gold.PLP.part.nonpolar>
-39.5620

> <Gold.PLP.part.repulsive>
2.7642

> <Gold.PLP.ligand.clash>
0.0000

> <Gold.PLP.ligand.torsion>
0.5946

> <Gold.PLP.Chemscore.Hbond>
2.3520

> <Gold.PLP.Chemscore.CHOScore>
0.0000

> <Gold.PLP.Chemscore.Metal>
0.0000

> <Gold.Chemscore.Hbonds>
donor molecule, donor type, donor heavy atom, donor atom, acceptor molecule, acceptor atom, score
      L1  H    18    37       P1  7948  0.70
      P1  H  7997  8009       L1    13  0.82
      P1  H 10752 10765       L1    14  0.83

> <Gold.PLP.Chemscore.Internal.Correction>
0.0842

> <Gold.Rescore>
     Score         DG    S(hbond)    S(metal)    S(lipo)     H(rot)  DE(clash)    DE(int)     intcor
     14.58     -17.73       2.32        0.00      83.10       2.03       1.10       2.05       ----

> <Gold.Chemscore.Fitness>
14.5790

> <Gold.Chemscore.DG>
-17.7291

> <Gold.Chemscore.ZeroCoef>
-5.4800

> <Gold.Chemscore.Hbond>
2.3154

> <Gold.Chemscore.Metal>
0.0000

> <Gold.Chemscore.Lipo>
83.0997

> <Gold.Chemscore.Internal_Hbond>
0.0000

> <Gold.Chemscore.DEClash>
1.0974

> <Gold.Chemscore.DEInternal>
2.0527

> <Gold.Chemscore.Rot>
2.0340

> <Gold.Chemscore.Internal.Correction>
   9.000000E+99

> <Gold.Chemscore.Hbonds>
donor molecule, donor type, donor heavy atom, donor atom, acceptor molecule, acceptor atom, score
      L1  H    18    37       P1  7948  0.67
      P1  H  7997  8009       L1    13  0.75
      P1  H 10752 10765       L1    14  0.83

> <Gold.Chemscore.Hbond.Weighted>
-7.7335

> <Gold.Chemscore.Metal.Weighted>
-0.0000

> <Gold.Chemscore.Lipo.Weighted>
-9.7227

> <Gold.Chemscore.Internal_Hbond.Weighted>
0.0000

> <Gold.Chemscore.DEClash.Weighted>
1.0974

> <Gold.Chemscore.DEInternal.Weighted>
2.0527

> <Gold.Chemscore.Rot.Weighted>
5.2071

> <Gold.Chemscore.Internal.Correction.Weighted>
   9.000000E+99

> <Gold.Protein.RotatedTorsions>
[ 6907 6896 6895 6894 ] final  -84.87 input  -60.11 | X-H torsion
[ 7974 7965 7964 7962 ] final -112.73 input  175.53 | X-H torsion
[ 8008 7997 7996 7995 ] final -153.74 input   59.86 | X-H torsion
[ 10167 10162 10161 10158 ] final -100.88 input  -65.29 | X-H torsion
[ 10718 10713 10712 10709 ] final   47.32 input   66.30 | X-H torsion
[ 10763 10752 10751 10750 ] final  150.09 input  -60.55 | X-H torsion
[ 11005 11000 10999 10996 ] final  134.27 input  -57.11 | X-H torsion

> <Gold.Protein.ActiveResidues>
 VAL166  LYS551  ARG553  GLY616  TRP617  ASP618  TYR619  PRO620  LYS621  CYS622 
 ASP623  PHE694  ASN695  SER759  ASP760  ASP761  ALA762  ILE779  LEU786  VAL792 
 PHE793  MET794  SER795  GLU796  ALA797  LYS798  CYS799  TRP800  GLU811  SER814 

> <Gold.Protein.RotatedAtoms>
  150.6873  134.3291  159.4819 H   0  0  0  0  0  0  0  0  0  0  0  0  # atno 6907 bound_to 6896
  152.1158  134.9239  160.0574 H   0  0  0  0  0  0  0  0  0  0  0  0  # atno 6908 bound_to 6896
  152.0464  133.3965  159.4395 H   0  0  0  0  0  0  0  0  0  0  0  0  # atno 6909 bound_to 6896
  145.1405  140.8775  143.3705 H   0  0  0  0  0  0  0  0  0  0  0  0  # atno 7974 bound_to 7965
  155.6755  140.0738  157.2504 H   0  0  0  0  0  0  0  0  0  0  0  0  # atno 8008 bound_to 7997
  154.4115  140.1691  156.1977 H   0  0  0  0  0  0  0  0  0  0  0  0  # atno 8009 bound_to 7997
  155.9579  140.3372  155.6468 H   0  0  0  0  0  0  0  0  0  0  0  0  # atno 8010 bound_to 7997
  140.2472  143.3498  152.0748 H   0  0  0  0  0  0  0  0  0  0  0  0  # atno 10167 bound_to 10162
  157.4573  130.8175  149.7850 H   0  0  0  0  0  0  0  0  0  0  0  0  # atno 10718 bound_to 10713
  154.0818  135.2859  155.3289 H   0  0  0  0  0  0  0  0  0  0  0  0  # atno 10763 bound_to 10752
  154.6679  135.5310  153.8103 H   0  0  0  0  0  0  0  0  0  0  0  0  # atno 10764 bound_to 10752
  153.0446  135.6550  154.0992 H   0  0  0  0  0  0  0  0  0  0  0  0  # atno 10765 bound_to 10752
  139.9904  134.9517  156.9843 H   0  0  0  0  0  0  0  0  0  0  0  0  # atno 11005 bound_to 11000
  145.0537  139.3160  143.5915 LP  0  0  0  0  0  0  0  0  0  0  0  0  # atno 17320 bound_to 7965
  146.3505  139.9955  142.8681 LP  0  0  0  0  0  0  0  0  0  0  0  0  # atno 17321 bound_to 7965
  139.5058  144.6801  151.6029 LP  0  0  0  0  0  0  0  0  0  0  0  0  # atno 17342 bound_to 10162
  140.6069  143.9508  150.6425 LP  0  0  0  0  0  0  0  0  0  0  0  0  # atno 17343 bound_to 10162
  156.0013  130.3879  150.2596 LP  0  0  0  0  0  0  0  0  0  0  0  0  # atno 17370 bound_to 10713
  157.0771  131.0133  151.3169 LP  0  0  0  0  0  0  0  0  0  0  0  0  # atno 17371 bound_to 10713
  140.4919  134.1184  155.7234 LP  0  0  0  0  0  0  0  0  0  0  0  0  # atno 17394 bound_to 11000
  141.1561  133.8880  157.1973 LP  0  0  0  0  0  0  0  0  0  0  0  0  # atno 17395 bound_to 11000

$$$$
