AV-unprocessed.smi:1934|AV-procd|sdf|7825|dock8
  -GOLD-   22720 9573D 1   1.00000     0.00000
 Structure written by MMmdl.
 46 47  0  0  0  0  0  0  0  0  2 V2000
  153.8388  141.6662  160.9228 C   0  0  0  0  0  0  0  0  0  0  0  0
  152.9450  142.3390  159.9230 C   0  0  0  0  0  0  0  0  0  0  0  0
  152.2672  141.7512  158.8159 C   0  0  0  0  0  0  0  0  0  0  0  0
  151.6090  142.8165  158.2642 C   0  0  0  0  0  0  0  0  0  0  0  0
  150.7921  142.8438  157.1774 N   0  0  0  0  0  0  0  0  0  0  0  0
  150.3431  141.8162  156.4358 C   0  0  0  0  0  0  0  0  0  0  0  0
  150.6424  140.6325  156.5950 O   0  0  0  0  0  0  0  0  0  0  0  0
  149.5141  142.2404  155.4711 N   0  0  0  0  0  0  0  0  0  0  0  0
  148.8471  141.3746  154.5057 C   0  0  0  0  0  0  0  0  0  0  0  0
  147.4245  141.0061  154.9676 C   0  0  0  0  0  0  0  0  0  0  0  0
  146.5293  142.1886  155.0247 N   0  3  1  0  0  0  0  0  0  0  0  0
  146.2553  142.7554  153.6791 C   0  0  0  0  0  0  0  0  0  0  0  0
  145.4621  144.0678  153.7824 C   0  0  0  0  0  0  0  0  0  0  0  0
  144.1595  143.8641  154.5688 C   0  0  0  0  0  0  0  0  0  0  0  0
  144.4284  143.2146  155.9391 C   0  0  2  0  0  0  0  0  0  0  0  0
  145.0488  144.1925  156.9521 C   0  0  0  0  0  0  0  0  0  0  0  0
  145.2701  141.9318  155.7758 C   0  0  0  0  0  0  0  0  0  0  0  0
  151.8879  143.9441  159.0067 N   0  0  0  0  0  0  0  0  0  0  0  0
  151.4390  145.3124  158.8333 C   0  0  0  0  0  0  0  0  0  0  0  0
  152.7174  143.6431  160.0287 N   0  0  0  0  0  0  0  0  0  0  0  0
  153.8204  140.5829  160.8021 H   0  0  0  0  0  0  0  0  0  0  0  0
  153.5275  141.8906  161.9433 H   0  0  0  0  0  0  0  0  0  0  0  0
  154.8717  141.9956  160.8087 H   0  0  0  0  0  0  0  0  0  0  0  0
  152.2752  140.7188  158.5009 H   0  0  0  0  0  0  0  0  0  0  0  0
  150.4726  143.7618  156.9054 H   0  0  0  0  0  0  0  0  0  0  0  0
  149.3223  143.2298  155.4075 H   0  0  0  0  0  0  0  0  0  0  0  0
  148.8393  141.8622  153.5303 H   0  0  0  0  0  0  0  0  0  0  0  0
  149.4461  140.4706  154.3931 H   0  0  0  0  0  0  0  0  0  0  0  0
  147.0217  140.2800  154.2598 H   0  0  0  0  0  0  0  0  0  0  0  0
  147.4390  140.5105  155.9398 H   0  0  0  0  0  0  0  0  0  0  0  0
  147.1945  142.9497  153.1597 H   0  0  0  0  0  0  0  0  0  0  0  0
  145.7062  142.0265  153.0804 H   0  0  0  0  0  0  0  0  0  0  0  0
  146.0735  144.8310  154.2648 H   0  0  0  0  0  0  0  0  0  0  0  0
  145.2363  144.4444  152.7843 H   0  0  0  0  0  0  0  0  0  0  0  0
  143.6367  144.8136  154.6898 H   0  0  0  0  0  0  0  0  0  0  0  0
  143.4938  143.2212  153.9913 H   0  0  0  0  0  0  0  0  0  0  0  0
  143.4626  142.9199  156.3516 H   0  0  0  0  0  0  0  0  0  0  0  0
  146.0366  144.5315  156.6404 H   0  0  0  0  0  0  0  0  0  0  0  0
  145.1556  143.7243  157.9311 H   0  0  0  0  0  0  0  0  0  0  0  0
  144.4206  145.0744  157.0800 H   0  0  0  0  0  0  0  0  0  0  0  0
  144.6884  141.1765  155.2448 H   0  0  0  0  0  0  0  0  0  0  0  0
  145.4865  141.5162  156.7595 H   0  0  0  0  0  0  0  0  0  0  0  0
  150.5879  145.3539  158.1537 H   0  0  0  0  0  0  0  0  0  0  0  0
  152.2503  145.9142  158.4235 H   0  0  0  0  0  0  0  0  0  0  0  0
  151.1371  145.7289  159.7949 H   0  0  0  0  0  0  0  0  0  0  0  0
  147.0338  142.9023  155.5307 H   0  0  0  0  0  0  0  0  0  0  0  0
  1  2  1  0  0  0  0
  1 21  1  0  0  0  0
  1 22  1  0  0  0  0
  1 23  1  0  0  0  0
  2 20  2  0  0  0  0
  2  3  1  0  0  0  0
  3  4  2  0  0  0  0
  3 24  1  0  0  0  0
  4  5  1  0  0  0  0
  4 18  1  0  0  0  0
  5  6  1  0  0  0  0
  5 25  1  0  0  0  0
  6  7  2  0  0  0  0
  6  8  1  0  0  0  0
  8  9  1  0  0  0  0
  8 26  1  0  0  0  0
  9 10  1  0  0  0  0
  9 27  1  0  0  0  0
  9 28  1  0  0  0  0
 10 11  1  0  0  0  0
 10 29  1  0  0  0  0
 10 30  1  0  0  0  0
 11 17  1  0  0  0  0
 11 12  1  0  0  0  0
 11 46  1  0  0  0  0
 12 13  1  0  0  0  0
 12 31  1  0  0  0  0
 12 32  1  0  0  0  0
 13 14  1  0  0  0  0
 13 33  1  0  0  0  0
 13 34  1  0  0  0  0
 14 15  1  0  0  0  0
 14 35  1  0  0  0  0
 14 36  1  0  0  0  0
 15 16  1  0  0  0  0
 15 17  1  0  0  0  0
 15 37  1  0  0  0  0
 16 38  1  0  0  0  0
 16 39  1  0  0  0  0
 16 40  1  0  0  0  0
 17 41  1  0  0  0  0
 17 42  1  0  0  0  0
 18 19  1  0  0  0  0
 18 20  1  0  0  0  0
 19 43  1  0  0  0  0
 19 44  1  0  0  0  0
 19 45  1  0  0  0  0
M  CHG  1  11   1
M  END
> <s_m_source_file>
AV-unprocessed.smi

> <i_m_source_file_index>
1934

> <i_lp_mmshare_version>
43012

> <i_f3d_flags>
0

> <s_epik_input>
W0NIM11jMVtjSF1jKG4objEpW0NIM10pW05IXUMoPU8pW05IXVtDSDJdW0NIMl1OMltDSDJdW0NIMl1bQ0gyXVtDQEBIXShbQ0gzXSlbQ0gyXTI=

> <s_epik_cmdline>
J2VwaWtfcHl0aG9uJywgJy1waCcsICc3LjAnLCAnLXRuJywgJzgnLCAnLW1hJywgJzIwMCcsICctbWV0YWxfYmluZGluZycsICctaW1hZScsICc8aW5maWxlLm1hZT4nLCAnLW9tYWUnLCAnPG91dGZpbGUubWFlPic=

> <r_lp_tautomer_probability>
1

> <r_epik_Ionization_Penalty>
0.00202955

> <r_epik_Ionization_Penalty_Charging>
0.00195276

> <r_epik_Ionization_Penalty_Neutral>
7.67968e-05

> <r_epik_State_Penalty>
0.00133177

> <r_epik_Charging_Adjusted_Penalty>
0.00328452

> <i_epik_Tot_Q>
1

> <i_epik_Tot_abs_Q>
1

> <r_epik_Metal_State_Penalty>
-0

> <b_epik_Metal_Only>
0

> <s_lp_Force_Field>
OPLS_2005

> <r_lp_Energy>
20.4325

> <b_lp_Chiralities_Consistent>
1

> <s_lp_Variant>
AV-unprocessed.smi:1934-3

> <Gold.Version>
5.8.1

> <Gold.Id.Protein>
6NUR|6NUR_protein|mol2

> <Gold.PLP.Fitness>
45.7270

> <Gold.PLP.PLP>
-41.7778

> <Gold.PLP.part.hbond>
-1.9113

> <Gold.PLP.part.metal>
0.0000

> <Gold.PLP.part.buried>
-7.6113

> <Gold.PLP.part.nonpolar>
-33.6320

> <Gold.PLP.part.repulsive>
0.2589

> <Gold.PLP.ligand.clash>
0.0000

> <Gold.PLP.ligand.torsion>
0.2498

> <Gold.PLP.Chemscore.Hbond>
1.4732

> <Gold.PLP.Chemscore.CHOScore>
0.0000

> <Gold.PLP.Chemscore.Metal>
0.0000

> <Gold.Chemscore.Hbonds>
donor molecule, donor type, donor heavy atom, donor atom, acceptor molecule, acceptor atom, score
      L1  H     5    25       P1  8028  0.44
      L1  H     8    26       P1  8028  1.00

> <Gold.PLP.Chemscore.Internal.Correction>
0.0293

> <Gold.Rescore>
     Score         DG    S(hbond)    S(metal)    S(lipo)     H(rot)  DE(clash)    DE(int)     intcor
     15.33     -17.21       1.79        0.00      81.71       1.48       0.47       1.42       ----

> <Gold.Chemscore.Fitness>
15.3268

> <Gold.Chemscore.DG>
-17.2139

> <Gold.Chemscore.ZeroCoef>
-5.4800

> <Gold.Chemscore.Hbond>
1.7881

> <Gold.Chemscore.Metal>
0.0000

> <Gold.Chemscore.Lipo>
81.7110

> <Gold.Chemscore.Internal_Hbond>
0.0000

> <Gold.Chemscore.DEClash>
0.4706

> <Gold.Chemscore.DEInternal>
1.4165

> <Gold.Chemscore.Rot>
1.4838

> <Gold.Chemscore.Internal.Correction>
   9.000000E+99

> <Gold.Chemscore.Hbonds>
donor molecule, donor type, donor heavy atom, donor atom, acceptor molecule, acceptor atom, score
      L1  H     5    25       P1  8028  0.44
      L1  H     8    26       P1  8028  0.97

> <Gold.Chemscore.Hbond.Weighted>
-5.9721

> <Gold.Chemscore.Metal.Weighted>
-0.0000

> <Gold.Chemscore.Lipo.Weighted>
-9.5602

> <Gold.Chemscore.Internal_Hbond.Weighted>
0.0000

> <Gold.Chemscore.DEClash.Weighted>
0.4706

> <Gold.Chemscore.DEInternal.Weighted>
1.4165

> <Gold.Chemscore.Rot.Weighted>
3.7985

> <Gold.Chemscore.Internal.Correction.Weighted>
   9.000000E+99

> <Gold.Protein.RotatedTorsions>
[ 6907 6896 6895 6894 ] final  171.12 input  -60.11 | X-H torsion
[ 7974 7965 7964 7962 ] final  -92.12 input  175.53 | X-H torsion
[ 8008 7997 7996 7995 ] final  -74.74 input   59.86 | X-H torsion
[ 10167 10162 10161 10158 ] final  139.29 input  -65.29 | X-H torsion
[ 10718 10713 10712 10709 ] final  171.71 input   66.30 | X-H torsion
[ 10763 10752 10751 10750 ] final  137.78 input  -60.55 | X-H torsion
[ 11005 11000 10999 10996 ] final -138.79 input  -57.11 | X-H torsion

> <Gold.Protein.ActiveResidues>
 VAL166  LYS551  ARG553  GLY616  TRP617  ASP618  TYR619  PRO620  LYS621  CYS622 
 ASP623  PHE694  ASN695  SER759  ASP760  ASP761  ALA762  ILE779  LEU786  VAL792 
 PHE793  MET794  SER795  GLU796  ALA797  LYS798  CYS799  TRP800  GLU811  SER814 

> <Gold.Protein.RotatedAtoms>
  151.8053  133.3375  159.3538 H   0  0  0  0  0  0  0  0  0  0  0  0  # atno 6907 bound_to 6896
  150.7344  134.5715  159.5902 H   0  0  0  0  0  0  0  0  0  0  0  0  # atno 6908 bound_to 6896
  152.3114  134.7494  160.0387 H   0  0  0  0  0  0  0  0  0  0  0  0  # atno 6909 bound_to 6896
  145.4041  140.9540  143.2271 H   0  0  0  0  0  0  0  0  0  0  0  0  # atno 7974 bound_to 7965
  154.5357  140.0756  156.8422 H   0  0  0  0  0  0  0  0  0  0  0  0  # atno 8008 bound_to 7997
  155.3284  140.3400  155.4222 H   0  0  0  0  0  0  0  0  0  0  0  0  # atno 8009 bound_to 7997
  156.1825  140.1657  156.8233 H   0  0  0  0  0  0  0  0  0  0  0  0  # atno 8010 bound_to 7997
  139.5083  144.6303  151.5834 H   0  0  0  0  0  0  0  0  0  0  0  0  # atno 10167 bound_to 10162
  156.9895  131.0143  151.2860 H   0  0  0  0  0  0  0  0  0  0  0  0  # atno 10718 bound_to 10713
  153.8786  135.3047  155.3444 H   0  0  0  0  0  0  0  0  0  0  0  0  # atno 10763 bound_to 10752
  154.7772  135.4855  153.9771 H   0  0  0  0  0  0  0  0  0  0  0  0  # atno 10764 bound_to 10752
  153.1364  135.6815  153.9193 H   0  0  0  0  0  0  0  0  0  0  0  0  # atno 10765 bound_to 10752
  140.8582  134.2202  157.4722 H   0  0  0  0  0  0  0  0  0  0  0  0  # atno 11005 bound_to 11000
  144.8354  139.5560  143.6925 LP  0  0  0  0  0  0  0  0  0  0  0  0  # atno 17320 bound_to 7965
  146.2737  139.6699  142.9278 LP  0  0  0  0  0  0  0  0  0  0  0  0  # atno 17321 bound_to 7965
  140.6034  143.9569  150.6401 LP  0  0  0  0  0  0  0  0  0  0  0  0  # atno 17342 bound_to 10162
  140.2788  143.3404  152.1170 LP  0  0  0  0  0  0  0  0  0  0  0  0  # atno 17343 bound_to 10162
  157.5468  130.8156  149.8096 LP  0  0  0  0  0  0  0  0  0  0  0  0  # atno 17370 bound_to 10713
  156.0212  130.3795  150.1955 LP  0  0  0  0  0  0  0  0  0  0  0  0  # atno 17371 bound_to 10713
  139.8706  134.9717  156.4745 LP  0  0  0  0  0  0  0  0  0  0  0  0  # atno 17394 bound_to 11000
  140.8713  133.7986  155.9367 LP  0  0  0  0  0  0  0  0  0  0  0  0  # atno 17395 bound_to 11000

$$$$
