AV-unprocessed.smi:2706|AV-procd|sdf|10446|dock4
  -GOLD-   2272014483D 1   1.00000     0.00000
 Structure written by MMmdl.
 43 46  0  0  0  0  0  0  0  0  1 V2000
  148.8151  128.9394  153.2469 C   0  0  0  0  0  0  0  0  0  0  0  0
  149.8691  129.3949  154.1481 N   0  0  0  0  0  0  0  0  0  0  0  0
  150.7864  128.4311  154.7430 C   0  0  0  0  0  0  0  0  0  0  0  0
  149.9940  130.7718  154.4421 C   0  0  0  0  0  0  0  0  0  0  0  0
  150.9802  131.2539  155.3357 C   0  0  0  0  0  0  0  0  0  0  0  0
  151.0564  132.6362  155.5832 C   0  0  0  0  0  0  0  0  0  0  0  0
  150.1513  133.4965  154.9362 C   0  0  0  0  0  0  0  0  0  0  0  0
  149.1896  132.9506  154.0605 C   0  0  0  0  0  0  0  0  0  0  0  0
  148.3193  133.8928  153.4502 N   0  0  0  0  0  0  0  0  0  0  0  0
  146.9994  133.7734  153.2203 C   0  0  0  0  0  0  0  0  0  0  0  0
  146.3053  132.8088  153.5443 O   0  0  0  0  0  0  0  0  0  0  0  0
  146.5182  134.8534  152.5895 N   0  0  0  0  0  0  0  0  0  0  0  0
  145.1542  135.0603  152.2202 C   0  0  2  0  0  0  0  0  0  0  0  0
  144.2356  133.8846  151.9100 C   0  0  2  0  0  0  0  0  0  0  0  0
  144.6023  132.4859  151.4086 C   0  0  1  0  0  0  0  0  0  0  0  0
  143.6120  132.1323  150.2781 C   0  0  0  0  0  0  0  0  0  0  0  0
  144.0763  133.0611  149.1270 C   0  0  0  0  0  0  0  0  0  0  0  0
  145.2651  133.8119  149.7661 C   0  0  2  0  0  0  0  0  0  0  0  0
  145.8717  132.6664  150.5766 C   0  0  0  0  0  0  0  0  0  0  0  0
  144.6857  134.7852  150.7957 C   0  0  2  0  0  0  0  0  0  0  0  0
  149.1289  131.6166  153.8310 N   0  0  0  0  0  0  0  0  0  0  0  0
  147.8327  129.1816  153.6537 H   0  0  0  0  0  0  0  0  0  0  0  0
  148.8576  127.8610  153.0954 H   0  0  0  0  0  0  0  0  0  0  0  0
  148.9114  129.4169  152.2709 H   0  0  0  0  0  0  0  0  0  0  0  0
  150.7292  128.4687  155.8312 H   0  0  0  0  0  0  0  0  0  0  0  0
  151.8126  128.6400  154.4390 H   0  0  0  0  0  0  0  0  0  0  0  0
  150.5484  127.4135  154.4330 H   0  0  0  0  0  0  0  0  0  0  0  0
  151.6769  130.5953  155.8318 H   0  0  0  0  0  0  0  0  0  0  0  0
  151.7999  133.0314  156.2595 H   0  0  0  0  0  0  0  0  0  0  0  0
  150.1974  134.5610  155.1150 H   0  0  0  0  0  0  0  0  0  0  0  0
  148.7520  134.7544  153.1522 H   0  0  0  0  0  0  0  0  0  0  0  0
  147.1635  135.5949  152.3600 H   0  0  0  0  0  0  0  0  0  0  0  0
  144.6648  135.9085  152.6968 H   0  0  0  0  0  0  0  0  0  0  0  0
  143.2101  133.9866  152.2607 H   0  0  0  0  0  0  0  0  0  0  0  0
  144.6639  131.7498  152.2100 H   0  0  0  0  0  0  0  0  0  0  0  0
  143.7032  131.0843  149.9894 H   0  0  0  0  0  0  0  0  0  0  0  0
  142.5747  132.3110  150.5642 H   0  0  0  0  0  0  0  0  0  0  0  0
  144.3986  132.4759  148.2649 H   0  0  0  0  0  0  0  0  0  0  0  0
  143.2881  133.7382  148.7949 H   0  0  0  0  0  0  0  0  0  0  0  0
  145.9369  134.2944  149.0558 H   0  0  0  0  0  0  0  0  0  0  0  0
  146.7648  132.9178  151.1414 H   0  0  0  0  0  0  0  0  0  0  0  0
  146.1175  131.7918  149.9703 H   0  0  0  0  0  0  0  0  0  0  0  0
  143.9636  135.4939  150.3942 H   0  0  0  0  0  0  0  0  0  0  0  0
  1  2  1  0  0  0  0
  1 22  1  0  0  0  0
  1 23  1  0  0  0  0
  1 24  1  0  0  0  0
  2  3  1  0  0  0  0
  2  4  1  0  0  0  0
  3 25  1  0  0  0  0
  3 26  1  0  0  0  0
  3 27  1  0  0  0  0
  4 21  1  0  0  0  0
  4  5  2  0  0  0  0
  5  6  1  0  0  0  0
  5 28  1  0  0  0  0
  6  7  2  0  0  0  0
  6 29  1  0  0  0  0
  7  8  1  0  0  0  0
  7 30  1  0  0  0  0
  8  9  1  0  0  0  0
  8 21  2  0  0  0  0
  9 10  1  0  0  0  0
  9 31  1  0  0  0  0
 10 11  2  0  0  0  0
 10 12  1  0  0  0  0
 12 13  1  0  0  0  0
 12 32  1  0  0  0  0
 13 20  1  0  0  0  0
 13 14  1  0  0  0  0
 13 33  1  0  0  0  0
 14 20  1  0  0  0  0
 14 15  1  0  0  0  0
 14 34  1  0  0  0  0
 15 19  1  0  0  0  0
 15 16  1  0  0  0  0
 15 35  1  0  0  0  0
 16 17  1  0  0  0  0
 16 36  1  0  0  0  0
 16 37  1  0  0  0  0
 17 18  1  0  0  0  0
 17 38  1  0  0  0  0
 17 39  1  0  0  0  0
 18 19  1  0  0  0  0
 18 20  1  0  0  0  0
 18 40  1  0  0  0  0
 19 41  1  0  0  0  0
 19 42  1  0  0  0  0
 20 43  1  0  0  0  0
M  END
> <s_m_source_file>
AV-unprocessed.smi

> <i_m_source_file_index>
2706

> <i_lp_mmshare_version>
43012

> <i_f3d_flags>
0

> <s_epik_input>
W0NIM11OKFtDSDNdKWMxW2NIXVtjSF1bY0hdYyhuMSlbTkhdQyg9TylbTkhdW0NASF0yW0NAQEhdM1tDQEBIXShbQ0gyXTQpW0NIMl1bQ0gyXVtDQEBIXTRbQ0BIXTIz

> <s_epik_cmdline>
J2VwaWtfcHl0aG9uJywgJy1waCcsICc3LjAnLCAnLXRuJywgJzgnLCAnLW1hJywgJzIwMCcsICctbWV0YWxfYmluZGluZycsICctaW1hZScsICc8aW5maWxlLm1hZT4nLCAnLW9tYWUnLCAnPG91dGZpbGUubWFlPic=

> <r_lp_tautomer_probability>
1

> <r_epik_Ionization_Penalty>
0.0296788

> <r_epik_Ionization_Penalty_Charging>
0

> <r_epik_Ionization_Penalty_Neutral>
0.0296788

> <r_epik_State_Penalty>
0.0248512

> <r_epik_Charging_Adjusted_Penalty>
0.0248512

> <i_epik_Tot_Q>
0

> <i_epik_Tot_abs_Q>
0

> <r_epik_Metal_State_Penalty>
0.0237882

> <b_epik_Metal_Only>
0

> <s_lp_Force_Field>
OPLS_2005

> <r_lp_Energy>
83.6561

> <b_lp_Chiralities_Consistent>
1

> <s_lp_Variant>
AV-unprocessed.smi:2706-3

> <Gold.Version>
5.8.1

> <Gold.Id.Protein>
6NUR|6NUR_protein|mol2

> <Gold.PLP.Fitness>
41.9392

> <Gold.PLP.PLP>
-37.1844

> <Gold.PLP.part.hbond>
-2.0000

> <Gold.PLP.part.metal>
0.0000

> <Gold.PLP.part.buried>
-2.3318

> <Gold.PLP.part.nonpolar>
-31.9834

> <Gold.PLP.part.repulsive>
0.1705

> <Gold.PLP.ligand.clash>
0.0000

> <Gold.PLP.ligand.torsion>
0.6492

> <Gold.PLP.Chemscore.Hbond>
2.0000

> <Gold.PLP.Chemscore.CHOScore>
0.0000

> <Gold.PLP.Chemscore.Metal>
0.0000

> <Gold.Chemscore.Hbonds>
donor molecule, donor type, donor heavy atom, donor atom, acceptor molecule, acceptor atom, score
      L1  H     9    31       P1  7948  1.00
      L1  H    12    32       P1  7948  1.00

> <Gold.PLP.Chemscore.Internal.Correction>
0.0533

> <Gold.Rescore>
     Score         DG    S(hbond)    S(metal)    S(lipo)     H(rot)  DE(clash)    DE(int)     intcor
     12.58     -17.97       1.46        0.00      86.90       1.00       1.51       3.88       ----

> <Gold.Chemscore.Fitness>
12.5839

> <Gold.Chemscore.DG>
-17.9735

> <Gold.Chemscore.ZeroCoef>
-5.4800

> <Gold.Chemscore.Hbond>
1.4628

> <Gold.Chemscore.Metal>
0.0000

> <Gold.Chemscore.Lipo>
86.9045

> <Gold.Chemscore.Internal_Hbond>
0.0000

> <Gold.Chemscore.DEClash>
1.5086

> <Gold.Chemscore.DEInternal>
3.8811

> <Gold.Chemscore.Rot>
1.0000

> <Gold.Chemscore.Internal.Correction>
   9.000000E+99

> <Gold.Chemscore.Hbonds>
donor molecule, donor type, donor heavy atom, donor atom, acceptor molecule, acceptor atom, score
      L1  H     9    31       P1  7948  0.24
      L1  H    12    32       P1  7948  0.95

> <Gold.Chemscore.Hbond.Weighted>
-4.8857

> <Gold.Chemscore.Metal.Weighted>
-0.0000

> <Gold.Chemscore.Lipo.Weighted>
-10.1678

> <Gold.Chemscore.Internal_Hbond.Weighted>
0.0000

> <Gold.Chemscore.DEClash.Weighted>
1.5086

> <Gold.Chemscore.DEInternal.Weighted>
3.8811

> <Gold.Chemscore.Rot.Weighted>
2.5600

> <Gold.Chemscore.Internal.Correction.Weighted>
   9.000000E+99

> <Gold.Protein.RotatedTorsions>
[ 6907 6896 6895 6894 ] final   75.49 input  -60.11 | X-H torsion
[ 7974 7965 7964 7962 ] final  161.76 input  175.53 | X-H torsion
[ 8008 7997 7996 7995 ] final  101.30 input   59.86 | X-H torsion
[ 10167 10162 10161 10158 ] final  -42.17 input  -65.29 | X-H torsion
[ 10718 10713 10712 10709 ] final   -1.54 input   66.30 | X-H torsion
[ 10763 10752 10751 10750 ] final -174.33 input  -60.55 | X-H torsion
[ 11005 11000 10999 10996 ] final  -95.75 input  -57.11 | X-H torsion

> <Gold.Protein.ActiveResidues>
 VAL166  LYS551  ARG553  GLY616  TRP617  ASP618  TYR619  PRO620  LYS621  CYS622 
 ASP623  PHE694  ASN695  SER759  ASP760  ASP761  ALA762  ILE779  LEU786  VAL792 
 PHE793  MET794  SER795  GLU796  ALA797  LYS798  CYS799  TRP800  GLU811  SER814 

> <Gold.Protein.RotatedAtoms>
  152.5028  134.4113  159.9449 H   0  0  0  0  0  0  0  0  0  0  0  0  # atno 6907 bound_to 6896
  151.4081  133.3730  159.2748 H   0  0  0  0  0  0  0  0  0  0  0  0  # atno 6908 bound_to 6896
  150.9312  134.8748  159.7611 H   0  0  0  0  0  0  0  0  0  0  0  0  # atno 6909 bound_to 6896
  144.7670  139.7943  143.6311 H   0  0  0  0  0  0  0  0  0  0  0  0  # atno 7974 bound_to 7965
  156.1286  140.3199  155.8315 H   0  0  0  0  0  0  0  0  0  0  0  0  # atno 8008 bound_to 7997
  155.4373  140.0523  157.3030 H   0  0  0  0  0  0  0  0  0  0  0  0  # atno 8009 bound_to 7997
  154.4882  140.2081  155.9621 H   0  0  0  0  0  0  0  0  0  0  0  0  # atno 8010 bound_to 7997
  140.6978  143.3053  151.3170 H   0  0  0  0  0  0  0  0  0  0  0  0  # atno 10167 bound_to 10162
  156.8041  130.5402  149.5717 H   0  0  0  0  0  0  0  0  0  0  0  0  # atno 10718 bound_to 10713
  154.5975  135.2851  155.0570 H   0  0  0  0  0  0  0  0  0  0  0  0  # atno 10763 bound_to 10752
  154.1847  135.6451  153.5047 H   0  0  0  0  0  0  0  0  0  0  0  0  # atno 10764 bound_to 10752
  153.0144  135.5432  154.6683 H   0  0  0  0  0  0  0  0  0  0  0  0  # atno 10765 bound_to 10752
  141.1432  133.8048  157.0478 H   0  0  0  0  0  0  0  0  0  0  0  0  # atno 11005 bound_to 11000
  146.1785  139.4967  142.9882 LP  0  0  0  0  0  0  0  0  0  0  0  0  # atno 17320 bound_to 7965
  145.6440  141.0278  143.1796 LP  0  0  0  0  0  0  0  0  0  0  0  0  # atno 17321 bound_to 7965
  139.6456  144.0457  152.2588 LP  0  0  0  0  0  0  0  0  0  0  0  0  # atno 17342 bound_to 10162
  139.9977  144.6316  150.7758 LP  0  0  0  0  0  0  0  0  0  0  0  0  # atno 17343 bound_to 10162
  156.1084  130.6022  151.0007 LP  0  0  0  0  0  0  0  0  0  0  0  0  # atno 17370 bound_to 10713
  157.6539  131.0892  150.7990 LP  0  0  0  0  0  0  0  0  0  0  0  0  # atno 17371 bound_to 10713
  140.0651  134.9733  157.1372 LP  0  0  0  0  0  0  0  0  0  0  0  0  # atno 17394 bound_to 11000
  140.3791  134.2306  155.7172 LP  0  0  0  0  0  0  0  0  0  0  0  0  # atno 17395 bound_to 11000

$$$$
