AV-unprocessed.smi:1260|AV-procd|sdf|5295|dock3
  -GOLD-   22720 4413D 1   1.00000     0.00000
 Structure written by MMmdl.
 37 39  0  0  0  0  0  0  0  0  2 V2000
  144.4365  135.4406  151.1945 O   0  0  0  0  0  0  0  0  0  0  0  0
  145.6637  135.3977  151.2720 C   0  0  0  0  0  0  0  0  0  0  0  0
  146.4122  134.1354  150.8383 C   0  0  0  0  0  0  0  0  0  0  0  0
  145.4963  133.0587  150.5094 N   0  0  0  0  0  0  0  0  0  0  0  0
  144.6114  132.9323  149.5183 C   0  0  0  0  0  0  0  0  0  0  0  0
  143.9568  131.7837  149.5907 N   0  0  0  0  0  0  0  0  0  0  0  0
  144.5011  131.1817  150.7129 N   0  0  0  0  0  0  0  0  0  0  0  0
  145.4152  131.9335  151.2624 N   0  0  0  0  0  0  0  0  0  0  0  0
  146.4088  136.4124  151.7388 N   0  0  0  0  0  0  0  0  0  0  0  0
  145.8909  137.6982  152.1955 C   0  0  2  0  0  0  0  0  0  0  0  0
  147.0027  138.6730  152.6225 C   0  0  0  0  0  0  0  0  0  0  0  0
  146.4476  139.4135  153.8553 C   0  0  0  0  0  0  0  0  0  0  0  0
  145.0605  138.9346  154.0073 N   0  3  2  0  0  0  0  0  0  0  0  0
  144.4612  139.0239  155.3567 C   0  0  0  0  0  0  0  0  0  0  0  0
  142.9931  138.5566  155.2933 C   0  0  0  0  0  0  0  0  0  0  0  0
  142.8632  137.1609  154.6497 C   0  0  0  0  0  0  0  0  0  0  0  0
  143.5868  137.1049  153.2904 C   0  0  0  0  0  0  0  0  0  0  0  0
  145.0432  137.5681  153.4634 C   0  0  1  0  0  0  0  0  0  0  0  0
  147.0285  134.3555  149.9656 H   0  0  0  0  0  0  0  0  0  0  0  0
  147.0832  133.8021  151.6316 H   0  0  0  0  0  0  0  0  0  0  0  0
  144.4440  133.6779  148.7552 H   0  0  0  0  0  0  0  0  0  0  0  0
  147.4106  136.2882  151.7685 H   0  0  0  0  0  0  0  0  0  0  0  0
  145.3009  138.1754  151.4098 H   0  0  0  0  0  0  0  0  0  0  0  0
  147.9176  138.1432  152.8925 H   0  0  0  0  0  0  0  0  0  0  0  0
  147.2510  139.3614  151.8139 H   0  0  0  0  0  0  0  0  0  0  0  0
  147.0326  139.1560  154.7397 H   0  0  0  0  0  0  0  0  0  0  0  0
  146.4723  140.4971  153.7370 H   0  0  0  0  0  0  0  0  0  0  0  0
  145.0282  138.4088  156.0570 H   0  0  0  0  0  0  0  0  0  0  0  0
  144.5139  140.0529  155.7138 H   0  0  0  0  0  0  0  0  0  0  0  0
  142.5601  138.5483  156.2941 H   0  0  0  0  0  0  0  0  0  0  0  0
  142.4117  139.2740  154.7128 H   0  0  0  0  0  0  0  0  0  0  0  0
  143.2911  136.4127  155.3182 H   0  0  0  0  0  0  0  0  0  0  0  0
  141.8115  136.9000  154.5271 H   0  0  0  0  0  0  0  0  0  0  0  0
  143.5538  136.0894  152.8952 H   0  0  0  0  0  0  0  0  0  0  0  0
  143.0725  137.7400  152.5680 H   0  0  0  0  0  0  0  0  0  0  0  0
  145.5529  136.9070  154.1685 H   0  0  0  0  0  0  0  0  0  0  0  0
  144.4930  139.4953  153.3875 H   0  0  0  0  0  0  0  0  0  0  0  0
  1  2  2  0  0  0  0
  2  3  1  0  0  0  0
  2  9  1  0  0  0  0
  3  4  1  0  0  0  0
  3 19  1  0  0  0  0
  3 20  1  0  0  0  0
  4  8  1  0  0  0  0
  4  5  1  0  0  0  0
  5  6  2  0  0  0  0
  5 21  1  0  0  0  0
  6  7  1  0  0  0  0
  7  8  2  0  0  0  0
  9 10  1  0  0  0  0
  9 22  1  0  0  0  0
 10 18  1  0  0  0  0
 10 11  1  0  0  0  0
 10 23  1  0  0  0  0
 11 12  1  0  0  0  0
 11 24  1  0  0  0  0
 11 25  1  0  0  0  0
 12 13  1  0  0  0  0
 12 26  1  0  0  0  0
 12 27  1  0  0  0  0
 13 18  1  0  0  0  0
 13 14  1  0  0  0  0
 13 37  1  0  0  0  0
 14 15  1  0  0  0  0
 14 28  1  0  0  0  0
 14 29  1  0  0  0  0
 15 16  1  0  0  0  0
 15 30  1  0  0  0  0
 15 31  1  0  0  0  0
 16 17  1  0  0  0  0
 16 32  1  0  0  0  0
 16 33  1  0  0  0  0
 17 18  1  0  0  0  0
 17 34  1  0  0  0  0
 17 35  1  0  0  0  0
 18 36  1  0  0  0  0
M  CHG  1  13   1
M  END
> <s_m_source_file>
AV-unprocessed.smi

> <i_m_source_file_index>
1260

> <i_lp_mmshare_version>
43012

> <i_f3d_flags>
0

> <s_epik_input>
bjFubltjSF1uMVtDSDJdQyg9TylbTkhdW0NASF0oW0NIMl1bQ0gyXTIpW0NAQEhdKE4yMylbQ0gyXVtDSDJdW0NIMl1bQ0gyXTM=

> <s_epik_cmdline>
J2VwaWtfcHl0aG9uJywgJy1waCcsICc3LjAnLCAnLXRuJywgJzgnLCAnLW1hJywgJzIwMCcsICctbWV0YWxfYmluZGluZycsICctaW1hZScsICc8aW5maWxlLm1hZT4nLCAnLW9tYWUnLCAnPG91dGZpbGUubWFlPic=

> <r_lp_tautomer_probability>
1

> <r_epik_Ionization_Penalty>
0.00234324

> <r_epik_Ionization_Penalty_Charging>
0.00233897

> <r_epik_Ionization_Penalty_Neutral>
4.26861e-06

> <r_epik_State_Penalty>
0.00161477

> <r_epik_Charging_Adjusted_Penalty>
0.00395374

> <i_epik_Tot_Q>
1

> <i_epik_Tot_abs_Q>
1

> <r_epik_Metal_State_Penalty>
-0

> <b_epik_Metal_Only>
0

> <s_lp_Force_Field>
OPLS_2005

> <r_lp_Energy>
37.0555

> <b_lp_Chiralities_Consistent>
1

> <s_lp_Variant>
AV-unprocessed.smi:1260-3

> <Gold.Version>
5.8.1

> <Gold.Id.Protein>
6NUR|6NUR_protein|mol2

> <Gold.PLP.Fitness>
37.9392

> <Gold.PLP.PLP>
-24.0257

> <Gold.PLP.part.hbond>
-3.1318

> <Gold.PLP.part.metal>
0.0000

> <Gold.PLP.part.buried>
-4.1361

> <Gold.PLP.part.nonpolar>
-17.3314

> <Gold.PLP.part.repulsive>
0.7206

> <Gold.PLP.ligand.clash>
0.0000

> <Gold.PLP.ligand.torsion>
0.1154

> <Gold.PLP.Chemscore.Hbond>
3.8480

> <Gold.PLP.Chemscore.CHOScore>
0.8626

> <Gold.PLP.Chemscore.Metal>
0.0000

> <Gold.Chemscore.Hbonds>
donor molecule, donor type, donor heavy atom, donor atom, acceptor molecule, acceptor atom, score
      L1  H     9    22       P1  7948  0.98
      L1  H    13    37       P1 10175  2.00
      P1  H 10785 10796       L1     6  0.64
      L1  C     5    21       P1  7921  0.89

> <Gold.PLP.Chemscore.Internal.Correction>
0.0124

> <Gold.Rescore>
     Score         DG    S(hbond)    S(metal)    S(lipo)     H(rot)  DE(clash)    DE(int)     intcor
     12.02     -13.99       2.77        0.00      36.95       1.98       0.14       1.84       ----

> <Gold.Chemscore.Fitness>
12.0209

> <Gold.Chemscore.DG>
-13.9930

> <Gold.Chemscore.ZeroCoef>
-5.4800

> <Gold.Chemscore.Hbond>
2.7687

> <Gold.Chemscore.Metal>
0.0000

> <Gold.Chemscore.Lipo>
36.9515

> <Gold.Chemscore.Internal_Hbond>
0.0000

> <Gold.Chemscore.DEClash>
0.1362

> <Gold.Chemscore.DEInternal>
1.8359

> <Gold.Chemscore.Rot>
1.9757

> <Gold.Chemscore.Internal.Correction>
   9.000000E+99

> <Gold.Chemscore.Hbonds>
donor molecule, donor type, donor heavy atom, donor atom, acceptor molecule, acceptor atom, score
      L1  H     9    22       P1  7948  0.91
      L1  H    13    37       P1 10175  0.96
      P1  H 10785 10796       L1     6  0.11

> <Gold.Chemscore.Hbond.Weighted>
-9.2474

> <Gold.Chemscore.Metal.Weighted>
-0.0000

> <Gold.Chemscore.Lipo.Weighted>
-4.3233

> <Gold.Chemscore.Internal_Hbond.Weighted>
0.0000

> <Gold.Chemscore.DEClash.Weighted>
0.1362

> <Gold.Chemscore.DEInternal.Weighted>
1.8359

> <Gold.Chemscore.Rot.Weighted>
5.0578

> <Gold.Chemscore.Internal.Correction.Weighted>
   9.000000E+99

> <Gold.Protein.RotatedTorsions>
[ 6907 6896 6895 6894 ] final  142.31 input  -60.11 | X-H torsion
[ 7974 7965 7964 7962 ] final  105.39 input  175.53 | X-H torsion
[ 8008 7997 7996 7995 ] final  139.60 input   59.86 | X-H torsion
[ 10167 10162 10161 10158 ] final   95.23 input  -65.29 | X-H torsion
[ 10718 10713 10712 10709 ] final  -27.68 input   66.30 | X-H torsion
[ 10763 10752 10751 10750 ] final  -52.12 input  -60.55 | X-H torsion
[ 11005 11000 10999 10996 ] final -178.83 input  -57.11 | X-H torsion

> <Gold.Protein.ActiveResidues>
 VAL166  LYS551  ARG553  GLY616  TRP617  ASP618  TYR619  PRO620  LYS621  CYS622 
 ASP623  PHE694  ASN695  SER759  ASP760  ASP761  ALA762  ILE779  LEU786  VAL792 
 PHE793  MET794  SER795  GLU796  ALA797  LYS798  CYS799  TRP800  GLU811  SER814 

> <Gold.Protein.RotatedAtoms>
  152.2203  133.4978  159.5158 H   0  0  0  0  0  0  0  0  0  0  0  0  # atno 6907 bound_to 6896
  150.7011  134.1351  159.4093 H   0  0  0  0  0  0  0  0  0  0  0  0  # atno 6908 bound_to 6896
  151.9272  135.0272  160.0577 H   0  0  0  0  0  0  0  0  0  0  0  0  # atno 6909 bound_to 6896
  145.3202  139.2515  143.3716 H   0  0  0  0  0  0  0  0  0  0  0  0  # atno 7974 bound_to 7965
  156.2988  140.2363  156.4264 H   0  0  0  0  0  0  0  0  0  0  0  0  # atno 8008 bound_to 7997
  154.8309  140.0433  157.1497 H   0  0  0  0  0  0  0  0  0  0  0  0  # atno 8009 bound_to 7997
  154.9209  140.3003  155.5220 H   0  0  0  0  0  0  0  0  0  0  0  0  # atno 8010 bound_to 7997
  139.8009  144.6814  150.9767 H   0  0  0  0  0  0  0  0  0  0  0  0  # atno 10167 bound_to 10162
  156.4350  130.4453  149.7091 H   0  0  0  0  0  0  0  0  0  0  0  0  # atno 10718 bound_to 10713
  154.1377  135.6510  153.4935 H   0  0  0  0  0  0  0  0  0  0  0  0  # atno 10763 bound_to 10752
  153.0175  135.5308  154.6937 H   0  0  0  0  0  0  0  0  0  0  0  0  # atno 10764 bound_to 10752
  154.6189  135.2962  155.0319 H   0  0  0  0  0  0  0  0  0  0  0  0  # atno 10765 bound_to 10752
  140.4253  134.6568  157.4685 H   0  0  0  0  0  0  0  0  0  0  0  0  # atno 11005 bound_to 11000
  146.3085  140.3758  142.8679 LP  0  0  0  0  0  0  0  0  0  0  0  0  # atno 17320 bound_to 7965
  144.8945  140.7565  143.5906 LP  0  0  0  0  0  0  0  0  0  0  0  0  # atno 17321 bound_to 7965
  140.7820  143.4283  151.0734 LP  0  0  0  0  0  0  0  0  0  0  0  0  # atno 17342 bound_to 10162
  139.7955  143.8158  152.3157 LP  0  0  0  0  0  0  0  0  0  0  0  0  # atno 17343 bound_to 10162
  156.3979  130.7660  151.2665 LP  0  0  0  0  0  0  0  0  0  0  0  0  # atno 17370 bound_to 10713
  157.7507  131.0248  150.3894 LP  0  0  0  0  0  0  0  0  0  0  0  0  # atno 17371 bound_to 10713
  140.0171  134.6602  155.9293 LP  0  0  0  0  0  0  0  0  0  0  0  0  # atno 17394 bound_to 11000
  141.1767  133.6541  156.4858 LP  0  0  0  0  0  0  0  0  0  0  0  0  # atno 17395 bound_to 11000

$$$$
