AV-unprocessed.smi:12|AV-procd|sdf|65|dock5
  -GOLD-   2262015183D 1   1.00000     0.00000
 Structure written by MMmdl.
 41 44  0  0  0  0  0  0  0  0  1 V2000
  145.7172  143.8679  161.0193 C   0  0  0  0  0  0  0  0  0  0  0  0
  145.6945  143.6886  159.5117 C   0  0  0  0  0  0  0  0  0  0  0  0
  146.1942  142.5782  158.9198 C   0  0  0  0  0  0  0  0  0  0  0  0
  146.1550  142.4685  157.5580 N   0  0  0  0  0  0  0  0  0  0  0  0
  145.5741  143.5016  156.7879 C   0  0  0  0  0  0  0  0  0  0  0  0
  145.0741  144.5923  157.2799 N   0  0  0  0  0  0  0  0  0  0  0  0
  145.1075  144.7669  158.6769 C   0  0  0  0  0  0  0  0  0  0  0  0
  144.6557  145.7902  159.1888 O   0  0  0  0  0  0  0  0  0  0  0  0
  145.6179  143.1528  155.4715 O   0  0  0  0  0  0  0  0  0  0  0  0
  146.2629  141.8781  155.3361 C   0  0  1  0  0  0  0  0  0  0  0  0
  147.6152  141.9513  154.6212 C   0  0  1  0  0  0  0  0  0  0  0  0
  148.1181  143.2749  154.5598 O   0  0  0  0  0  0  0  0  0  0  0  0
  148.5126  141.0709  155.5039 C   0  0  1  0  0  0  0  0  0  0  0  0
  150.0251  141.3364  155.4435 C   0  0  0  0  0  0  0  0  0  0  0  0
  150.4616  141.8857  156.6765 O   0  0  0  0  0  0  0  0  0  0  0  0
  151.4155  141.2576  157.3918 C   0  0  0  0  0  0  0  0  0  0  0  0
  151.8871  140.1608  157.0847 O   0  0  0  0  0  0  0  0  0  0  0  0
  151.8445  142.0289  158.5942 C   0  0  0  0  0  0  0  0  0  0  0  0
  151.6424  143.4285  158.6265 C   0  0  0  0  0  0  0  0  0  0  0  0
  152.0326  144.1844  159.7489 C   0  0  0  0  0  0  0  0  0  0  0  0
  152.6306  143.5498  160.8531 C   0  0  0  0  0  0  0  0  0  0  0  0
  152.8382  142.1583  160.8330 C   0  0  0  0  0  0  0  0  0  0  0  0
  152.4487  141.4004  159.7112 C   0  0  0  0  0  0  0  0  0  0  0  0
  148.0099  141.2852  156.8146 O   0  0  0  0  0  0  0  0  0  0  0  0
  146.6222  141.3515  156.7374 C   0  0  1  0  0  0  0  0  0  0  0  0
  146.1698  143.0079  161.5138 H   0  0  0  0  0  0  0  0  0  0  0  0
  144.7042  143.9840  161.4060 H   0  0  0  0  0  0  0  0  0  0  0  0
  146.2934  144.7533  161.2897 H   0  0  0  0  0  0  0  0  0  0  0  0
  146.6273  141.7810  159.5061 H   0  0  0  0  0  0  0  0  0  0  0  0
  145.5980  141.1594  154.8556 H   0  0  0  0  0  0  0  0  0  0  0  0
  147.5533  141.5642  153.6036 H   0  0  0  0  0  0  0  0  0  0  0  0
  148.4953  143.4933  155.3983 H   0  0  0  0  0  0  0  0  0  0  0  0
  148.3274  140.0232  155.2586 H   0  0  0  0  0  0  0  0  0  0  0  0
  150.5734  140.4214  155.2161 H   0  0  0  0  0  0  0  0  0  0  0  0
  150.2393  142.0455  154.6427 H   0  0  0  0  0  0  0  0  0  0  0  0
  151.1846  143.9379  157.7907 H   0  0  0  0  0  0  0  0  0  0  0  0
  151.8717  145.2523  159.7627 H   0  0  0  0  0  0  0  0  0  0  0  0
  152.9290  144.1294  161.7142 H   0  0  0  0  0  0  0  0  0  0  0  0
  153.2965  141.6705  161.6805 H   0  0  0  0  0  0  0  0  0  0  0  0
  152.6224  140.3343  159.7285 H   0  0  0  0  0  0  0  0  0  0  0  0
  146.0822  140.4643  157.0697 H   0  0  0  0  0  0  0  0  0  0  0  0
  1  2  1  0  0  0  0
  1 26  1  0  0  0  0
  1 27  1  0  0  0  0
  1 28  1  0  0  0  0
  2  7  1  0  0  0  0
  2  3  2  0  0  0  0
  3  4  1  0  0  0  0
  3 29  1  0  0  0  0
  4 25  1  0  0  0  0
  4  5  1  0  0  0  0
  5  6  2  0  0  0  0
  5  9  1  0  0  0  0
  6  7  1  0  0  0  0
  7  8  2  0  0  0  0
  9 10  1  0  0  0  0
 10 25  1  0  0  0  0
 10 11  1  0  0  0  0
 10 30  1  0  0  0  0
 11 12  1  0  0  0  0
 11 13  1  0  0  0  0
 11 31  1  0  0  0  0
 12 32  1  0  0  0  0
 13 14  1  0  0  0  0
 13 24  1  0  0  0  0
 13 33  1  0  0  0  0
 14 15  1  0  0  0  0
 14 34  1  0  0  0  0
 14 35  1  0  0  0  0
 15 16  1  0  0  0  0
 16 17  2  0  0  0  0
 16 18  1  0  0  0  0
 18 23  1  0  0  0  0
 18 19  2  0  0  0  0
 19 20  1  0  0  0  0
 19 36  1  0  0  0  0
 20 21  2  0  0  0  0
 20 37  1  0  0  0  0
 21 22  1  0  0  0  0
 21 38  1  0  0  0  0
 22 23  2  0  0  0  0
 22 39  1  0  0  0  0
 23 40  1  0  0  0  0
 24 25  1  0  0  0  0
 25 41  1  0  0  0  0
M  END
> <s_m_source_file>
AV-unprocessed.smi

> <i_m_source_file_index>
12

> <i_lp_mmshare_version>
43012

> <i_f3d_flags>
0

> <s_epik_input>
W0NIM11jKFtjSF0xKWMoPU8pbmMobjEyKU9bQ0BIXTNbQ0BASF0yT1tDQEBIXShbQ0BASF0zW09IXSlbQ0gyXU9DKD1PKWM0W2NIXVtjSF1bY0hdW2NIXVtjSF00

> <s_epik_cmdline>
J2VwaWtfcHl0aG9uJywgJy1waCcsICc3LjAnLCAnLXRuJywgJzgnLCAnLW1hJywgJzIwMCcsICctbWV0YWxfYmluZGluZycsICctaW1hZScsICc8aW5maWxlLm1hZT4nLCAnLW9tYWUnLCAnPG91dGZpbGUubWFlPic=

> <r_lp_tautomer_probability>
0.933681

> <r_epik_Ionization_Penalty>
0.00399549

> <r_epik_Ionization_Penalty_Charging>
3.09373e-09

> <r_epik_Ionization_Penalty_Neutral>
0.00399549

> <r_epik_State_Penalty>
0.00284953

> <r_epik_Charging_Adjusted_Penalty>
0.00284953

> <i_epik_Tot_Q>
0

> <i_epik_Tot_abs_Q>
0

> <r_epik_Metal_State_Penalty>
-0

> <b_epik_Metal_Only>
0

> <s_epik_Chemistry_Notes>
This compound has an ester and may undergo hydrolysis at high or low pH. This compound contains an acetal/aminal-like group ( X-CH(R)-Y where X, Y are N, S, or O) that may be acid/base labile, releasing an aldehyde.

> <s_lp_Force_Field>
OPLS_2005

> <r_lp_Energy>
52.4365

> <b_lp_Chiralities_Consistent>
1

> <s_lp_Variant>
AV-unprocessed.smi:12-5

> <Gold.Version>
5.8.1

> <Gold.Id.Protein>
6NUR|6NUR_protein|mol2

> <Gold.PLP.Fitness>
42.0058

> <Gold.PLP.PLP>
-41.7117

> <Gold.PLP.part.hbond>
-3.0000

> <Gold.PLP.part.metal>
0.0000

> <Gold.PLP.part.buried>
-6.3213

> <Gold.PLP.part.nonpolar>
-33.0697

> <Gold.PLP.part.repulsive>
1.3983

> <Gold.PLP.ligand.clash>
0.0000

> <Gold.PLP.ligand.torsion>
1.3431

> <Gold.PLP.Chemscore.Hbond>
0.9920

> <Gold.PLP.Chemscore.CHOScore>
0.0000

> <Gold.PLP.Chemscore.Metal>
0.0000

> <Gold.Chemscore.Hbonds>
donor molecule, donor type, donor heavy atom, donor atom, acceptor molecule, acceptor atom, score
      L1  H    12    32       P1  8028  0.16
      P1  H  8022  8030       L1    12  1.00

> <Gold.PLP.Chemscore.Internal.Correction>
0.0042

> <Gold.Rescore>
     Score         DG    S(hbond)    S(metal)    S(lipo)     H(rot)  DE(clash)    DE(int)     intcor
     13.71     -15.06       1.29        0.00      92.82       2.18       0.02       1.32       ----

> <Gold.Chemscore.Fitness>
13.7098

> <Gold.Chemscore.DG>
-15.0556

> <Gold.Chemscore.ZeroCoef>
-5.4800

> <Gold.Chemscore.Hbond>
1.2862

> <Gold.Chemscore.Metal>
0.0000

> <Gold.Chemscore.Lipo>
92.8249

> <Gold.Chemscore.Internal_Hbond>
0.0000

> <Gold.Chemscore.DEClash>
0.0217

> <Gold.Chemscore.DEInternal>
1.3241

> <Gold.Chemscore.Rot>
2.1800

> <Gold.Chemscore.Internal.Correction>
   9.000000E+99

> <Gold.Chemscore.Hbonds>
donor molecule, donor type, donor heavy atom, donor atom, acceptor molecule, acceptor atom, score
      L1  H    12    32       P1  8028  0.16
      P1  H  7997  8009       L1    17  0.01
      P1  H  8022  8030       L1    12  0.25

> <Gold.Chemscore.Hbond.Weighted>
-4.2958

> <Gold.Chemscore.Metal.Weighted>
-0.0000

> <Gold.Chemscore.Lipo.Weighted>
-10.8605

> <Gold.Chemscore.Internal_Hbond.Weighted>
0.0000

> <Gold.Chemscore.DEClash.Weighted>
0.0217

> <Gold.Chemscore.DEInternal.Weighted>
1.3241

> <Gold.Chemscore.Rot.Weighted>
5.5807

> <Gold.Chemscore.Internal.Correction.Weighted>
   9.000000E+99

> <Gold.Protein.RotatedTorsions>
[ 6907 6896 6895 6894 ] final   47.72 input  -60.11 | X-H torsion
[ 7974 7965 7964 7962 ] final  122.60 input  175.53 | X-H torsion
[ 8008 7997 7996 7995 ] final -169.62 input   59.86 | X-H torsion
[ 10167 10162 10161 10158 ] final -146.77 input  -65.29 | X-H torsion
[ 10718 10713 10712 10709 ] final  -87.83 input   66.30 | X-H torsion
[ 10763 10752 10751 10750 ] final -137.09 input  -60.55 | X-H torsion
[ 11005 11000 10999 10996 ] final  -91.22 input  -57.11 | X-H torsion

> <Gold.Protein.ActiveResidues>
 VAL166  LYS551  ARG553  GLY616  TRP617  ASP618  TYR619  PRO620  LYS621  CYS622 
 ASP623  PHE694  ASN695  SER759  ASP760  ASP761  ALA762  ILE779  LEU786  VAL792 
 PHE793  MET794  SER795  GLU796  ALA797  LYS798  CYS799  TRP800  GLU811  SER814 

> <Gold.Protein.RotatedAtoms>
  152.2714  134.7929  160.0413 H   0  0  0  0  0  0  0  0  0  0  0  0  # atno 6907 bound_to 6896
  151.8540  133.3440  159.3690 H   0  0  0  0  0  0  0  0  0  0  0  0  # atno 6908 bound_to 6896
  150.7153  134.5199  159.5692 H   0  0  0  0  0  0  0  0  0  0  0  0  # atno 6909 bound_to 6896
  145.1056  139.3488  143.4789 H   0  0  0  0  0  0  0  0  0  0  0  0  # atno 7974 bound_to 7965
  155.9074  140.1051  157.1305 H   0  0  0  0  0  0  0  0  0  0  0  0  # atno 8008 bound_to 7997
  154.4034  140.1281  156.4578 H   0  0  0  0  0  0  0  0  0  0  0  0  # atno 8009 bound_to 7997
  155.7351  140.3468  155.5080 H   0  0  0  0  0  0  0  0  0  0  0  0  # atno 8010 bound_to 7997
  139.7683  143.8275  152.2620 H   0  0  0  0  0  0  0  0  0  0  0  0  # atno 10167 bound_to 10162
  155.9984  130.4814  150.4927 H   0  0  0  0  0  0  0  0  0  0  0  0  # atno 10718 bound_to 10713
  154.8669  135.3652  154.5167 H   0  0  0  0  0  0  0  0  0  0  0  0  # atno 10763 bound_to 10752
  153.5799  135.7018  153.5472 H   0  0  0  0  0  0  0  0  0  0  0  0  # atno 10764 bound_to 10752
  153.3466  135.4083  155.1576 H   0  0  0  0  0  0  0  0  0  0  0  0  # atno 10765 bound_to 10752
  141.1549  133.7742  156.9849 H   0  0  0  0  0  0  0  0  0  0  0  0  # atno 11005 bound_to 11000
  146.3528  140.0953  142.8610 LP  0  0  0  0  0  0  0  0  0  0  0  0  # atno 17320 bound_to 7965
  145.0905  140.9281  143.4772 LP  0  0  0  0  0  0  0  0  0  0  0  0  # atno 17321 bound_to 7965
  139.8302  144.7257  150.9461 LP  0  0  0  0  0  0  0  0  0  0  0  0  # atno 17342 bound_to 10162
  140.7812  143.4077  151.1043 LP  0  0  0  0  0  0  0  0  0  0  0  0  # atno 17343 bound_to 10162
  157.2920  131.0628  151.2127 LP  0  0  0  0  0  0  0  0  0  0  0  0  # atno 17370 bound_to 10713
  157.3136  130.6902  149.6229 LP  0  0  0  0  0  0  0  0  0  0  0  0  # atno 17371 bound_to 10713
  140.1041  134.9517  157.1968 LP  0  0  0  0  0  0  0  0  0  0  0  0  # atno 17394 bound_to 11000
  140.3279  134.2843  155.7233 LP  0  0  0  0  0  0  0  0  0  0  0  0  # atno 17395 bound_to 11000

$$$$
