AV-unprocessed.smi:2525|AV-procd|sdf|9931|dock1
  -GOLD-   2272013573D 1   1.00000     0.00000
 Structure written by MMmdl.
 44 45  0  0  0  0  0  0  0  0  1 V2000
  149.7662  137.9056  157.8563 C   0  0  0  0  0  0  0  0  0  0  0  0
  151.0668  138.2305  158.6104 C   0  0  0  0  0  0  0  0  0  0  0  0
  151.8970  139.4298  158.0910 C   0  0  0  0  0  0  0  0  0  0  0  0
  152.6250  138.9525  156.8013 C   0  0  0  0  0  0  0  0  0  0  0  0
  151.7246  138.4895  155.6402 C   0  0  0  0  0  0  0  0  0  0  0  0
  151.1667  140.8014  157.9801 C   0  0  2  0  0  0  0  0  0  0  0  0
  150.7709  141.1596  156.6222 N   0  0  0  0  0  0  0  0  0  0  0  0
  149.5315  141.5165  156.2553 C   0  0  0  0  0  0  0  0  0  0  0  0
  148.5888  141.6045  157.0415 O   0  0  0  0  0  0  0  0  0  0  0  0
  149.3209  141.8160  154.7708 C   0  0  0  0  0  0  0  0  0  0  0  0
  148.3941  140.8713  154.1734 N   0  0  0  0  0  0  0  0  0  0  0  0
  147.1891  141.1246  153.5495 C   0  0  0  0  0  0  0  0  0  0  0  0
  146.7580  139.8838  153.1761 C   0  0  0  0  0  0  0  0  0  0  0  0
  147.7023  138.9418  153.5813 N   0  0  0  0  0  0  0  0  0  0  0  0
  148.6800  139.5467  154.1796 N   0  0  0  0  0  0  0  0  0  0  0  0
  152.4437  141.5101  158.4486 C   0  0  1  0  0  0  0  0  0  0  0  0
  152.3139  142.7856  159.2723 C   0  0  0  0  0  0  0  0  0  0  0  0
  152.7655  140.1767  159.1439 C   0  0  2  0  0  0  0  0  0  0  0  0
  154.1367  139.8129  159.1120 O   0  0  0  0  0  0  0  0  0  0  0  0
  154.9443  140.5734  159.9931 C   0  0  0  0  0  0  0  0  0  0  0  0
  149.2198  137.1144  158.3698 H   0  0  0  0  0  0  0  0  0  0  0  0
  149.9656  137.5465  156.8466 H   0  0  0  0  0  0  0  0  0  0  0  0
  149.1017  138.7661  157.7902 H   0  0  0  0  0  0  0  0  0  0  0  0
  150.7961  138.4069  159.6517 H   0  0  0  0  0  0  0  0  0  0  0  0
  151.6754  137.3252  158.6130 H   0  0  0  0  0  0  0  0  0  0  0  0
  153.2667  139.7490  156.4225 H   0  0  0  0  0  0  0  0  0  0  0  0
  153.3034  138.1316  157.0332 H   0  0  0  0  0  0  0  0  0  0  0  0
  152.3320  138.0857  154.8301 H   0  0  0  0  0  0  0  0  0  0  0  0
  151.1459  139.3126  155.2218 H   0  0  0  0  0  0  0  0  0  0  0  0
  151.0272  137.7087  155.9391 H   0  0  0  0  0  0  0  0  0  0  0  0
  150.3694  140.9380  158.7117 H   0  0  0  0  0  0  0  0  0  0  0  0
  151.4856  141.1154  155.9105 H   0  0  0  0  0  0  0  0  0  0  0  0
  148.9359  142.8288  154.6424 H   0  0  0  0  0  0  0  0  0  0  0  0
  150.2726  141.7642  154.2400 H   0  0  0  0  0  0  0  0  0  0  0  0
  146.7681  142.1122  153.4307 H   0  0  0  0  0  0  0  0  0  0  0  0
  145.8581  139.5925  152.6546 H   0  0  0  0  0  0  0  0  0  0  0  0
  153.1245  141.6630  157.6093 H   0  0  0  0  0  0  0  0  0  0  0  0
  151.6848  142.6312  160.1492 H   0  0  0  0  0  0  0  0  0  0  0  0
  151.8664  143.5874  158.6851 H   0  0  0  0  0  0  0  0  0  0  0  0
  153.2836  143.1401  159.6188 H   0  0  0  0  0  0  0  0  0  0  0  0
  152.3430  140.1177  160.1488 H   0  0  0  0  0  0  0  0  0  0  0  0
  155.9711  140.2110  159.9478 H   0  0  0  0  0  0  0  0  0  0  0  0
  154.6011  140.4810  161.0243 H   0  0  0  0  0  0  0  0  0  0  0  0
  154.9523  141.6273  159.7174 H   0  0  0  0  0  0  0  0  0  0  0  0
  1  2  1  0  0  0  0
  1 21  1  0  0  0  0
  1 22  1  0  0  0  0
  1 23  1  0  0  0  0
  2  3  1  0  0  0  0
  2 24  1  0  0  0  0
  2 25  1  0  0  0  0
  3 18  1  0  0  0  0
  3  4  1  0  0  0  0
  3  6  1  0  0  0  0
  4  5  1  0  0  0  0
  4 26  1  0  0  0  0
  4 27  1  0  0  0  0
  5 28  1  0  0  0  0
  5 29  1  0  0  0  0
  5 30  1  0  0  0  0
  6  7  1  0  0  0  0
  6 16  1  0  0  0  0
  6 31  1  0  0  0  0
  7  8  1  0  0  0  0
  7 32  1  0  0  0  0
  8  9  2  0  0  0  0
  8 10  1  0  0  0  0
 10 11  1  0  0  0  0
 10 33  1  0  0  0  0
 10 34  1  0  0  0  0
 11 15  1  0  0  0  0
 11 12  1  0  0  0  0
 12 13  2  0  0  0  0
 12 35  1  0  0  0  0
 13 14  1  0  0  0  0
 13 36  1  0  0  0  0
 14 15  2  0  0  0  0
 16 17  1  0  0  0  0
 16 18  1  0  0  0  0
 16 37  1  0  0  0  0
 17 38  1  0  0  0  0
 17 39  1  0  0  0  0
 17 40  1  0  0  0  0
 18 19  1  0  0  0  0
 18 41  1  0  0  0  0
 19 20  1  0  0  0  0
 20 42  1  0  0  0  0
 20 43  1  0  0  0  0
 20 44  1  0  0  0  0
M  END
> <s_m_source_file>
AV-unprocessed.smi

> <i_m_source_file_index>
2525

> <i_lp_mmshare_version>
43012

> <i_f3d_flags>
0

> <s_epik_input>
W0NIM11PW0NAQEhdMVtDQEhdKFtDSDNdKVtDQEBIXShDMShbQ0gyXVtDSDNdKVtDSDJdW0NIM10pW05IXUMoPU8pW0NIMl1uMltjSF1bY0hdbm4y

> <s_epik_cmdline>
J2VwaWtfcHl0aG9uJywgJy1waCcsICc3LjAnLCAnLXRuJywgJzgnLCAnLW1hJywgJzIwMCcsICctbWV0YWxfYmluZGluZycsICctaW1hZScsICc8aW5maWxlLm1hZT4nLCAnLW9tYWUnLCAnPG91dGZpbGUubWFlPic=

> <r_lp_tautomer_probability>
1

> <r_epik_Ionization_Penalty>
1.18045e-06

> <r_epik_Ionization_Penalty_Charging>
0

> <r_epik_Ionization_Penalty_Neutral>
1.18045e-06

> <r_epik_State_Penalty>
-0

> <r_epik_Charging_Adjusted_Penalty>
0

> <i_epik_Tot_Q>
0

> <i_epik_Tot_abs_Q>
0

> <r_epik_Metal_State_Penalty>
-0

> <b_epik_Metal_Only>
0

> <s_lp_Force_Field>
OPLS_2005

> <r_lp_Energy>
27.6116

> <b_lp_Chiralities_Consistent>
1

> <s_lp_Variant>
AV-unprocessed.smi:2525-6

> <Gold.Version>
5.8.1

> <Gold.Id.Protein>
6NUR|6NUR_protein|mol2

> <Gold.PLP.Fitness>
35.7107

> <Gold.PLP.PLP>
-30.0297

> <Gold.PLP.part.hbond>
-1.0000

> <Gold.PLP.part.metal>
0.0000

> <Gold.PLP.part.buried>
-2.4727

> <Gold.PLP.part.nonpolar>
-27.0658

> <Gold.PLP.part.repulsive>
0.5472

> <Gold.PLP.ligand.clash>
0.0000

> <Gold.PLP.ligand.torsion>
0.4680

> <Gold.PLP.Chemscore.Hbond>
1.0000

> <Gold.PLP.Chemscore.CHOScore>
0.9960

> <Gold.PLP.Chemscore.Metal>
0.0000

> <Gold.Chemscore.Hbonds>
donor molecule, donor type, donor heavy atom, donor atom, acceptor molecule, acceptor atom, score
      P1  H  7997  8009       L1    19  1.00
      L1  C    13    36       P1 10175  1.00

> <Gold.PLP.Chemscore.Internal.Correction>
0.6289

> <Gold.Rescore>
     Score         DG    S(hbond)    S(metal)    S(lipo)     H(rot)  DE(clash)    DE(int)     intcor
     10.66     -13.11       0.69        0.00      88.86       1.98       0.80       1.65       ----

> <Gold.Chemscore.Fitness>
10.6638

> <Gold.Chemscore.DG>
-13.1090

> <Gold.Chemscore.ZeroCoef>
-5.4800

> <Gold.Chemscore.Hbond>
0.6902

> <Gold.Chemscore.Metal>
0.0000

> <Gold.Chemscore.Lipo>
88.8623

> <Gold.Chemscore.Internal_Hbond>
0.0000

> <Gold.Chemscore.DEClash>
0.7957

> <Gold.Chemscore.DEInternal>
1.6495

> <Gold.Chemscore.Rot>
1.9817

> <Gold.Chemscore.Internal.Correction>
   9.000000E+99

> <Gold.Chemscore.Hbonds>
donor molecule, donor type, donor heavy atom, donor atom, acceptor molecule, acceptor atom, score
      P1  H  7997  8009       L1    19  0.43

> <Gold.Chemscore.Hbond.Weighted>
-2.3052

> <Gold.Chemscore.Metal.Weighted>
-0.0000

> <Gold.Chemscore.Lipo.Weighted>
-10.3969

> <Gold.Chemscore.Internal_Hbond.Weighted>
0.0000

> <Gold.Chemscore.DEClash.Weighted>
0.7957

> <Gold.Chemscore.DEInternal.Weighted>
1.6495

> <Gold.Chemscore.Rot.Weighted>
5.0731

> <Gold.Chemscore.Internal.Correction.Weighted>
   9.000000E+99

> <Gold.Protein.RotatedTorsions>
[ 6907 6896 6895 6894 ] final -102.62 input  -60.11 | X-H torsion
[ 7974 7965 7964 7962 ] final  -36.34 input  175.53 | X-H torsion
[ 8008 7997 7996 7995 ] final  130.14 input   59.86 | X-H torsion
[ 10167 10162 10161 10158 ] final  126.19 input  -65.29 | X-H torsion
[ 10718 10713 10712 10709 ] final   16.36 input   66.30 | X-H torsion
[ 10763 10752 10751 10750 ] final  -78.44 input  -60.55 | X-H torsion
[ 11005 11000 10999 10996 ] final   18.83 input  -57.11 | X-H torsion

> <Gold.Protein.ActiveResidues>
 VAL166  LYS551  ARG553  GLY616  TRP617  ASP618  TYR619  PRO620  LYS621  CYS622 
 ASP623  PHE694  ASN695  SER759  ASP760  ASP761  ALA762  ILE779  LEU786  VAL792 
 PHE793  MET794  SER795  GLU796  ALA797  LYS798  CYS799  TRP800  GLU811  SER814 

> <Gold.Protein.RotatedAtoms>
  150.7204  134.0554  159.3812 H   0  0  0  0  0  0  0  0  0  0  0  0  # atno 6907 bound_to 6896
  151.8532  135.0548  160.0470 H   0  0  0  0  0  0  0  0  0  0  0  0  # atno 6908 bound_to 6896
  152.2774  133.5403  159.5513 H   0  0  0  0  0  0  0  0  0  0  0  0  # atno 6909 bound_to 6896
  146.0670  140.6266  142.8970 H   0  0  0  0  0  0  0  0  0  0  0  0  # atno 7974 bound_to 7965
  156.2949  140.2603  156.2713 H   0  0  0  0  0  0  0  0  0  0  0  0  # atno 8008 bound_to 7997
  154.9692  140.0391  157.2245 H   0  0  0  0  0  0  0  0  0  0  0  0  # atno 8009 bound_to 7997
  154.7874  140.2806  155.6022 H   0  0  0  0  0  0  0  0  0  0  0  0  # atno 8010 bound_to 7997
  139.5644  144.6902  151.3951 H   0  0  0  0  0  0  0  0  0  0  0  0  # atno 10167 bound_to 10162
  157.0668  130.6331  149.5797 H   0  0  0  0  0  0  0  0  0  0  0  0  # atno 10718 bound_to 10713
  154.5259  135.5730  153.6719 H   0  0  0  0  0  0  0  0  0  0  0  0  # atno 10763 bound_to 10752
  152.9928  135.6193  154.2692 H   0  0  0  0  0  0  0  0  0  0  0  0  # atno 10764 bound_to 10752
  154.2616  135.2856  155.2755 H   0  0  0  0  0  0  0  0  0  0  0  0  # atno 10765 bound_to 10752
  140.4205  134.1524  155.7672 H   0  0  0  0  0  0  0  0  0  0  0  0  # atno 11005 bound_to 11000
  144.7208  140.4368  143.7009 LP  0  0  0  0  0  0  0  0  0  0  0  0  # atno 17320 bound_to 7965
  145.6459  139.1557  143.2889 LP  0  0  0  0  0  0  0  0  0  0  0  0  # atno 17321 bound_to 7965
  140.6927  143.7824  150.7279 LP  0  0  0  0  0  0  0  0  0  0  0  0  # atno 17342 bound_to 10162
  140.1311  143.4525  152.2254 LP  0  0  0  0  0  0  0  0  0  0  0  0  # atno 17343 bound_to 10162
  155.9962  130.5031  150.7488 LP  0  0  0  0  0  0  0  0  0  0  0  0  # atno 17370 bound_to 10713
  157.4911  131.0911  151.0426 LP  0  0  0  0  0  0  0  0  0  0  0  0  # atno 17371 bound_to 10713
  141.1786  133.8462  157.1337 LP  0  0  0  0  0  0  0  0  0  0  0  0  # atno 17394 bound_to 11000
  140.0204  134.9948  157.0579 LP  0  0  0  0  0  0  0  0  0  0  0  0  # atno 17395 bound_to 11000

$$$$
