AV-unprocessed.smi:2988|AV-procd|sdf|11389|dock10
  -GOLD-   2272016313D 1   1.00000     0.00000
 Structure written by MMmdl.
 37 38  0  0  0  0  0  0  0  0  1 V2000
  149.5480  140.2958  154.4793 C   0  0  0  0  0  0  0  0  0  0  0  0
  148.1853  140.7820  155.0029 C   0  0  2  0  0  0  0  0  0  0  0  0
  147.6775  142.0024  154.2074 C   0  0  0  0  0  0  0  0  0  0  0  0
  146.2821  142.4429  154.6778 C   0  0  0  0  0  0  0  0  0  0  0  0
  146.2632  142.7270  156.1872 C   0  0  0  0  0  0  0  0  0  0  0  0
  146.7722  141.5161  156.9894 C   0  0  0  0  0  0  0  0  0  0  0  0
  148.1715  141.0589  156.5299 C   0  0  2  0  0  0  0  0  0  0  0  0
  149.1662  142.0609  156.9169 N   0  0  0  0  0  0  0  0  0  0  0  0
  150.1994  141.8730  157.7521 C   0  0  0  0  0  0  0  0  0  0  0  0
  150.4243  140.8086  158.3292 O   0  0  0  0  0  0  0  0  0  0  0  0
  151.1162  143.0827  157.9739 C   0  0  0  0  0  0  0  0  0  0  0  0
  151.6051  143.1670  159.3573 N   0  0  0  0  0  0  0  0  0  0  0  0
  151.1478  144.2713  160.0547 N   0  0  0  0  0  0  0  0  0  0  0  0
  151.4969  144.4336  161.2843 C   0  0  0  0  0  0  0  0  0  0  0  0
  152.3620  143.4988  161.9697 C   0  0  0  0  0  0  0  0  0  0  0  0
  152.7947  143.7680  163.6213 Cl  0  0  0  0  0  0  0  0  0  0  0  0
  152.8124  142.4248  161.2739 C   0  0  0  0  0  0  0  0  0  0  0  0
  153.8532  141.2639  162.0244 Cl  0  0  0  0  0  0  0  0  0  0  0  0
  152.4364  142.2078  159.8701 C   0  0  0  0  0  0  0  0  0  0  0  0
  152.8284  141.2491  159.2032 O   0  0  0  0  0  0  0  0  0  0  0  0
  150.3060  141.0774  154.5352 H   0  0  0  0  0  0  0  0  0  0  0  0
  149.4764  139.9856  153.4367 H   0  0  0  0  0  0  0  0  0  0  0  0
  149.9066  139.4406  155.0526 H   0  0  0  0  0  0  0  0  0  0  0  0
  147.4802  139.9685  154.8246 H   0  0  0  0  0  0  0  0  0  0  0  0
  148.3779  142.8324  154.3102 H   0  0  0  0  0  0  0  0  0  0  0  0
  147.6413  141.7641  153.1438 H   0  0  0  0  0  0  0  0  0  0  0  0
  145.9683  143.3313  154.1290 H   0  0  0  0  0  0  0  0  0  0  0  0
  145.5557  141.6632  154.4447 H   0  0  0  0  0  0  0  0  0  0  0  0
  146.8801  143.6002  156.4024 H   0  0  0  0  0  0  0  0  0  0  0  0
  145.2515  142.9822  156.5034 H   0  0  0  0  0  0  0  0  0  0  0  0
  146.7828  141.7516  158.0543 H   0  0  0  0  0  0  0  0  0  0  0  0
  146.0693  140.6907  156.8704 H   0  0  0  0  0  0  0  0  0  0  0  0
  148.3910  140.1243  157.0490 H   0  0  0  0  0  0  0  0  0  0  0  0
  149.0686  142.9727  156.4944 H   0  0  0  0  0  0  0  0  0  0  0  0
  151.9600  143.0515  157.2816 H   0  0  0  0  0  0  0  0  0  0  0  0
  150.5568  143.9824  157.7115 H   0  0  0  0  0  0  0  0  0  0  0  0
  151.1585  145.2854  161.8744 H   0  0  0  0  0  0  0  0  0  0  0  0
  1  2  1  0  0  0  0
  1 21  1  0  0  0  0
  1 22  1  0  0  0  0
  1 23  1  0  0  0  0
  2  7  1  0  0  0  0
  2  3  1  0  0  0  0
  2 24  1  0  0  0  0
  3  4  1  0  0  0  0
  3 25  1  0  0  0  0
  3 26  1  0  0  0  0
  4  5  1  0  0  0  0
  4 27  1  0  0  0  0
  4 28  1  0  0  0  0
  5  6  1  0  0  0  0
  5 29  1  0  0  0  0
  5 30  1  0  0  0  0
  6  7  1  0  0  0  0
  6 31  1  0  0  0  0
  6 32  1  0  0  0  0
  7  8  1  0  0  0  0
  7 33  1  0  0  0  0
  8  9  1  0  0  0  0
  8 34  1  0  0  0  0
  9 10  2  0  0  0  0
  9 11  1  0  0  0  0
 11 12  1  0  0  0  0
 11 35  1  0  0  0  0
 11 36  1  0  0  0  0
 12 19  1  0  0  0  0
 12 13  1  0  0  0  0
 13 14  2  0  0  0  0
 14 15  1  0  0  0  0
 14 37  1  0  0  0  0
 15 16  1  0  0  0  0
 15 17  2  0  0  0  0
 17 18  1  0  0  0  0
 17 19  1  0  0  0  0
 19 20  2  0  0  0  0
M  END
> <s_m_source_file>
AV-unprocessed.smi

> <i_m_source_file_index>
2988

> <i_lp_mmshare_version>
43012

> <i_f3d_flags>
0

> <s_epik_input>
W0NIM11bQ0BASF0xW0NIMl1bQ0gyXVtDSDJdW0NIMl1bQ0BIXTFbTkhdQyg9TylbQ0gyXW4ybltjSF1jKENsKWMoQ2wpYzI9Tw==

> <s_epik_cmdline>
J2VwaWtfcHl0aG9uJywgJy1waCcsICc3LjAnLCAnLXRuJywgJzgnLCAnLW1hJywgJzIwMCcsICctbWV0YWxfYmluZGluZycsICctaW1hZScsICc8aW5maWxlLm1hZT4nLCAnLW9tYWUnLCAnPG91dGZpbGUubWFlPic=

> <r_lp_tautomer_probability>
1

> <r_epik_Ionization_Penalty>
1.90782e-08

> <r_epik_Ionization_Penalty_Charging>
3.13143e-11

> <r_epik_Ionization_Penalty_Neutral>
1.90469e-08

> <r_epik_State_Penalty>
-0

> <r_epik_Charging_Adjusted_Penalty>
3.13143e-11

> <i_epik_Tot_Q>
0

> <i_epik_Tot_abs_Q>
0

> <r_epik_Metal_State_Penalty>
-0

> <b_epik_Metal_Only>
0

> <s_lp_Force_Field>
OPLS_2005

> <r_lp_Energy>
23.4163

> <b_lp_Chiralities_Consistent>
1

> <s_lp_Variant>
AV-unprocessed.smi:2988-3

> <Gold.Version>
5.8.1

> <Gold.Id.Protein>
6NUR|6NUR_protein|mol2

> <Gold.PLP.Fitness>
45.9734

> <Gold.PLP.PLP>
-43.7004

> <Gold.PLP.part.hbond>
-1.0000

> <Gold.PLP.part.metal>
0.0000

> <Gold.PLP.part.buried>
-4.8029

> <Gold.PLP.part.nonpolar>
-37.4392

> <Gold.PLP.part.repulsive>
0.0810

> <Gold.PLP.ligand.clash>
0.0000

> <Gold.PLP.ligand.torsion>
0.3668

> <Gold.PLP.Chemscore.Hbond>
1.0000

> <Gold.PLP.Chemscore.CHOScore>
0.0000

> <Gold.PLP.Chemscore.Metal>
0.0000

> <Gold.Chemscore.Hbonds>
donor molecule, donor type, donor heavy atom, donor atom, acceptor molecule, acceptor atom, score
      L1  H     8    34       P1  8028  1.00

> <Gold.PLP.Chemscore.Internal.Correction>
0.0067

> <Gold.Rescore>
     Score         DG    S(hbond)    S(metal)    S(lipo)     H(rot)  DE(clash)    DE(int)     intcor
     12.80     -17.26       1.21        0.00      99.03       1.50       1.50       2.96       ----

> <Gold.Chemscore.Fitness>
12.7970

> <Gold.Chemscore.DG>
-17.2603

> <Gold.Chemscore.ZeroCoef>
-5.4800

> <Gold.Chemscore.Hbond>
1.2059

> <Gold.Chemscore.Metal>
0.0000

> <Gold.Chemscore.Lipo>
99.0320

> <Gold.Chemscore.Internal_Hbond>
0.0000

> <Gold.Chemscore.DEClash>
1.5049

> <Gold.Chemscore.DEInternal>
2.9583

> <Gold.Chemscore.Rot>
1.4977

> <Gold.Chemscore.Internal.Correction>
   9.000000E+99

> <Gold.Chemscore.Hbonds>
donor molecule, donor type, donor heavy atom, donor atom, acceptor molecule, acceptor atom, score
      L1  H     8    34       P1  8028  0.99

> <Gold.Chemscore.Hbond.Weighted>
-4.0276

> <Gold.Chemscore.Metal.Weighted>
-0.0000

> <Gold.Chemscore.Lipo.Weighted>
-11.5867

> <Gold.Chemscore.Internal_Hbond.Weighted>
0.0000

> <Gold.Chemscore.DEClash.Weighted>
1.5049

> <Gold.Chemscore.DEInternal.Weighted>
2.9583

> <Gold.Chemscore.Rot.Weighted>
3.8341

> <Gold.Chemscore.Internal.Correction.Weighted>
   9.000000E+99

> <Gold.Protein.RotatedTorsions>
[ 6907 6896 6895 6894 ] final  -44.12 input  -60.11 | X-H torsion
[ 7974 7965 7964 7962 ] final    6.06 input  175.53 | X-H torsion
[ 8008 7997 7996 7995 ] final  -79.02 input   59.86 | X-H torsion
[ 10167 10162 10161 10158 ] final   80.88 input  -65.29 | X-H torsion
[ 10718 10713 10712 10709 ] final  -34.41 input   66.30 | X-H torsion
[ 10763 10752 10751 10750 ] final   -5.68 input  -60.55 | X-H torsion
[ 11005 11000 10999 10996 ] final  -78.77 input  -57.11 | X-H torsion

> <Gold.Protein.ActiveResidues>
 VAL166  LYS551  ARG553  GLY616  TRP617  ASP618  TYR619  PRO620  LYS621  CYS622 
 ASP623  PHE694  ASN695  SER759  ASP760  ASP761  ALA762  ILE779  LEU786  VAL792 
 PHE793  MET794  SER795  GLU796  ALA797  LYS798  CYS799  TRP800  GLU811  SER814 

> <Gold.Protein.RotatedAtoms>
  150.9363  134.8775  159.7583 H   0  0  0  0  0  0  0  0  0  0  0  0  # atno 6907 bound_to 6896
  152.5060  134.4006  159.9425 H   0  0  0  0  0  0  0  0  0  0  0  0  # atno 6908 bound_to 6896
  151.4030  133.3711  159.2769 H   0  0  0  0  0  0  0  0  0  0  0  0  # atno 6909 bound_to 6896
  146.2437  140.0290  142.8391 H   0  0  0  0  0  0  0  0  0  0  0  0  # atno 7974 bound_to 7965
  154.5744  140.0685  156.9013 H   0  0  0  0  0  0  0  0  0  0  0  0  # atno 8008 bound_to 7997
  155.2575  140.3356  155.4258 H   0  0  0  0  0  0  0  0  0  0  0  0  # atno 8009 bound_to 7997
  156.2143  140.1772  156.7609 H   0  0  0  0  0  0  0  0  0  0  0  0  # atno 8010 bound_to 7997
  139.9451  144.6064  150.8215 H   0  0  0  0  0  0  0  0  0  0  0  0  # atno 10167 bound_to 10162
  156.3509  130.4308  149.7705 H   0  0  0  0  0  0  0  0  0  0  0  0  # atno 10718 bound_to 10713
  153.4019  135.7005  153.6420 H   0  0  0  0  0  0  0  0  0  0  0  0  # atno 10763 bound_to 10752
  153.4950  135.3664  155.2511 H   0  0  0  0  0  0  0  0  0  0  0  0  # atno 10764 bound_to 10752
  154.8711  135.4098  154.3355 H   0  0  0  0  0  0  0  0  0  0  0  0  # atno 10765 bound_to 10752
  141.1666  133.7077  156.8022 H   0  0  0  0  0  0  0  0  0  0  0  0  # atno 11005 bound_to 11000
  145.1172  140.9441  143.4622 LP  0  0  0  0  0  0  0  0  0  0  0  0  # atno 17320 bound_to 7965
  145.0517  139.3176  143.5925 LP  0  0  0  0  0  0  0  0  0  0  0  0  # atno 17321 bound_to 7965
  140.7599  143.3140  151.2776 LP  0  0  0  0  0  0  0  0  0  0  0  0  # atno 17342 bound_to 10162
  139.6673  144.0082  152.2731 LP  0  0  0  0  0  0  0  0  0  0  0  0  # atno 17343 bound_to 10162
  156.4905  130.8083  151.3093 LP  0  0  0  0  0  0  0  0  0  0  0  0  # atno 17370 bound_to 10713
  157.7461  130.9977  150.2824 LP  0  0  0  0  0  0  0  0  0  0  0  0  # atno 17371 bound_to 10713
  140.2248  134.8730  157.3415 LP  0  0  0  0  0  0  0  0  0  0  0  0  # atno 17394 bound_to 11000
  140.1951  134.4324  155.7694 LP  0  0  0  0  0  0  0  0  0  0  0  0  # atno 17395 bound_to 11000

$$$$
