AV-unprocessed.smi:198|AV-procd|sdf|1559|dock1
  -GOLD-   2262019433D 1   1.00000     0.00000
 Structure written by MMmdl.
 59 63  0  0  0  0  0  0  0  0  2 V2000
  146.9986  129.5209  152.0673 C   0  0  0  0  0  0  0  0  0  0  0  0
  146.8167  130.9642  151.8020 N   0  3  2  0  0  0  0  0  0  0  0  0
  146.9245  131.7808  153.0356 C   0  0  0  0  0  0  0  0  0  0  0  0
  146.8374  133.2822  152.7189 C   0  0  0  0  0  0  0  0  0  0  0  0
  145.5311  133.6157  151.9628 C   0  0  2  0  0  0  0  0  0  0  0  0
  145.4649  132.7401  150.6890 C   0  0  2  0  0  0  0  0  0  0  0  0
  144.1893  133.0469  149.8857 C   0  0  0  0  0  0  0  0  0  0  0  0
  144.1169  134.5452  149.5619 C   0  0  0  0  0  0  0  0  0  0  0  0
  144.2148  135.3835  150.8448 C   0  0  0  0  0  0  0  0  0  0  0  0
  145.4103  135.0382  151.6122 N   0  0  0  0  0  0  0  0  0  0  0  0
  145.6012  135.9198  152.6194 C   0  0  0  0  0  0  0  0  0  0  0  0
  145.3115  135.4956  153.8734 N   0  0  0  0  0  0  0  0  0  0  0  0
  145.4790  136.3207  154.9113 C   0  0  0  0  0  0  0  0  0  0  0  0
  145.9127  137.5832  154.9128 N   0  0  0  0  0  0  0  0  0  0  0  0
  146.2082  138.0120  153.6517 C   0  0  0  0  0  0  0  0  0  0  0  0
  146.0928  137.2463  152.4578 C   0  0  0  0  0  0  0  0  0  0  0  0
  146.5115  137.9998  151.3691 N   0  0  0  0  0  0  0  0  0  0  0  0
  146.8589  139.1442  151.8901 C   0  0  0  0  0  0  0  0  0  0  0  0
  146.6726  139.2544  153.2514 N   0  0  0  0  0  0  0  0  0  0  0  0
  146.9939  140.3809  154.0869 C   0  0  0  0  0  0  0  0  0  0  0  0
  148.3376  141.1019  153.9287 C   0  0  0  0  0  0  0  0  0  0  0  0
  148.8791  140.3901  155.1884 C   0  0  0  0  0  0  0  0  0  0  0  0
  149.6368  139.0649  154.9569 C   0  0  0  0  0  0  0  0  0  0  0  0
  150.9762  139.2745  154.5592 O   0  0  0  0  0  0  0  0  0  0  0  0
  149.6746  141.2611  156.1771 C   0  0  0  0  0  0  0  0  0  0  0  0
  148.8441  142.1667  156.8740 O   0  0  0  0  0  0  0  0  0  0  0  0
  147.3919  140.2022  155.5587 C   0  0  0  0  0  0  0  0  0  0  0  0
  145.5671  131.2469  151.0536 C   0  0  0  0  0  0  0  0  0  0  0  0
  146.2086  129.1395  152.7156 H   0  0  0  0  0  0  0  0  0  0  0  0
  147.9580  129.3363  152.5516 H   0  0  0  0  0  0  0  0  0  0  0  0
  146.9819  128.9527  151.1368 H   0  0  0  0  0  0  0  0  0  0  0  0
  146.1323  131.4990  153.7314 H   0  0  0  0  0  0  0  0  0  0  0  0
  147.8724  131.5691  153.5317 H   0  0  0  0  0  0  0  0  0  0  0  0
  146.9004  133.8367  153.6556 H   0  0  0  0  0  0  0  0  0  0  0  0
  147.6999  133.5845  152.1230 H   0  0  0  0  0  0  0  0  0  0  0  0
  144.6846  133.3498  152.5967 H   0  0  0  0  0  0  0  0  0  0  0  0
  146.3198  132.9890  150.0571 H   0  0  0  0  0  0  0  0  0  0  0  0
  144.1730  132.4670  148.9622 H   0  0  0  0  0  0  0  0  0  0  0  0
  143.3080  132.7518  150.4569 H   0  0  0  0  0  0  0  0  0  0  0  0
  144.9298  134.8150  148.8864 H   0  0  0  0  0  0  0  0  0  0  0  0
  143.1882  134.7721  149.0376 H   0  0  0  0  0  0  0  0  0  0  0  0
  144.2289  136.4437  150.5869 H   0  0  0  0  0  0  0  0  0  0  0  0
  143.3297  135.2184  151.4612 H   0  0  0  0  0  0  0  0  0  0  0  0
  145.2292  135.9115  155.8791 H   0  0  0  0  0  0  0  0  0  0  0  0
  147.2571  139.9423  151.2816 H   0  0  0  0  0  0  0  0  0  0  0  0
  146.1577  141.0735  153.9831 H   0  0  0  0  0  0  0  0  0  0  0  0
  148.8820  140.8748  153.0122 H   0  0  0  0  0  0  0  0  0  0  0  0
  148.2436  142.1814  154.0615 H   0  0  0  0  0  0  0  0  0  0  0  0
  149.6333  138.4477  155.8557 H   0  0  0  0  0  0  0  0  0  0  0  0
  149.1585  138.4670  154.1815 H   0  0  0  0  0  0  0  0  0  0  0  0
  151.5395  138.7495  155.1067 H   0  0  0  0  0  0  0  0  0  0  0  0
  150.1761  140.6426  156.9219 H   0  0  0  0  0  0  0  0  0  0  0  0
  150.4591  141.8219  155.6680 H   0  0  0  0  0  0  0  0  0  0  0  0
  148.9971  143.0362  156.5371 H   0  0  0  0  0  0  0  0  0  0  0  0
  147.0022  141.0084  156.1826 H   0  0  0  0  0  0  0  0  0  0  0  0
  147.1596  139.2352  156.0037 H   0  0  0  0  0  0  0  0  0  0  0  0
  145.5507  130.6459  150.1434 H   0  0  0  0  0  0  0  0  0  0  0  0
  144.7062  130.9416  151.6511 H   0  0  0  0  0  0  0  0  0  0  0  0
  147.5802  131.2449  151.2031 H   0  0  0  0  0  0  0  0  0  0  0  0
  1  2  1  0  0  0  0
  1 29  1  0  0  0  0
  1 30  1  0  0  0  0
  1 31  1  0  0  0  0
  2 28  1  0  0  0  0
  2  3  1  0  0  0  0
  2 59  1  0  0  0  0
  3  4  1  0  0  0  0
  3 32  1  0  0  0  0
  3 33  1  0  0  0  0
  4  5  1  0  0  0  0
  4 34  1  0  0  0  0
  4 35  1  0  0  0  0
  5 10  1  0  0  0  0
  5  6  1  0  0  0  0
  5 36  1  0  0  0  0
  6  7  1  0  0  0  0
  6 28  1  0  0  0  0
  6 37  1  0  0  0  0
  7  8  1  0  0  0  0
  7 38  1  0  0  0  0
  7 39  1  0  0  0  0
  8  9  1  0  0  0  0
  8 40  1  0  0  0  0
  8 41  1  0  0  0  0
  9 10  1  0  0  0  0
  9 42  1  0  0  0  0
  9 43  1  0  0  0  0
 10 11  1  0  0  0  0
 11 16  1  0  0  0  0
 11 12  2  0  0  0  0
 12 13  1  0  0  0  0
 13 14  2  0  0  0  0
 13 44  1  0  0  0  0
 14 15  1  0  0  0  0
 15 19  1  0  0  0  0
 15 16  2  0  0  0  0
 16 17  1  0  0  0  0
 17 18  2  0  0  0  0
 18 19  1  0  0  0  0
 18 45  1  0  0  0  0
 19 20  1  0  0  0  0
 20 27  1  0  0  0  0
 20 21  1  0  0  0  0
 20 46  1  0  0  0  0
 21 22  1  0  0  0  0
 21 47  1  0  0  0  0
 21 48  1  0  0  0  0
 22 23  1  0  0  0  0
 22 25  1  0  0  0  0
 22 27  1  0  0  0  0
 23 24  1  0  0  0  0
 23 49  1  0  0  0  0
 23 50  1  0  0  0  0
 24 51  1  0  0  0  0
 25 26  1  0  0  0  0
 25 52  1  0  0  0  0
 25 53  1  0  0  0  0
 26 54  1  0  0  0  0
 27 55  1  0  0  0  0
 27 56  1  0  0  0  0
 28 57  1  0  0  0  0
 28 58  1  0  0  0  0
M  CHG  1   2   1
M  END
> <s_m_source_file>
AV-unprocessed.smi

> <i_m_source_file_index>
198

> <i_lp_mmshare_version>
43012

> <i_f3d_flags>
0

> <s_epik_input>
W0NIMl0xW0NIMl1OKFtDSDNdKVtDSDJdW0NAQEhdKFtDQEhdMTIpW0NIMl1bQ0gyXVtDSDJdTjJjKG5bY0hdbjMpYyhjMzQpbltjSF1uNFtDSF0oW0NIMl01KVtDSDJdQzUoW0NIMl1bT0hdKVtDSDJdW09IXQ==

> <s_epik_cmdline>
J2VwaWtfcHl0aG9uJywgJy1waCcsICc3LjAnLCAnLXRuJywgJzgnLCAnLW1hJywgJzIwMCcsICctbWV0YWxfYmluZGluZycsICctaW1hZScsICc8aW5maWxlLm1hZT4nLCAnLW9tYWUnLCAnPG91dGZpbGUubWFlPic=

> <r_lp_tautomer_probability>
1

> <r_epik_Ionization_Penalty>
0.00239938

> <r_epik_Ionization_Penalty_Charging>
0.00138697

> <r_epik_Ionization_Penalty_Neutral>
0.00101241

> <r_epik_State_Penalty>
-0

> <r_epik_Charging_Adjusted_Penalty>
0.00138697

> <i_epik_Tot_Q>
1

> <i_epik_Tot_abs_Q>
1

> <r_epik_Metal_State_Penalty>
-0

> <b_epik_Metal_Only>
0

> <s_lp_Force_Field>
OPLS_2005

> <r_lp_Energy>
58.4114

> <b_lp_Chiralities_Consistent>
1

> <s_lp_Variant>
AV-unprocessed.smi:198-8

> <Gold.Version>
5.8.1

> <Gold.Id.Protein>
6NUR|6NUR_protein|mol2

> <Gold.PLP.Fitness>
49.1757

> <Gold.PLP.PLP>
-38.3926

> <Gold.PLP.part.hbond>
-4.0000

> <Gold.PLP.part.metal>
0.0000

> <Gold.PLP.part.buried>
3.3116

> <Gold.PLP.part.nonpolar>
-40.3307

> <Gold.PLP.part.repulsive>
1.7877

> <Gold.PLP.ligand.clash>
0.0000

> <Gold.PLP.ligand.torsion>
1.5680

> <Gold.PLP.Chemscore.Hbond>
3.7000

> <Gold.PLP.Chemscore.CHOScore>
0.7040

> <Gold.PLP.Chemscore.Metal>
0.0000

> <Gold.Chemscore.Hbonds>
donor molecule, donor type, donor heavy atom, donor atom, acceptor molecule, acceptor atom, score
      L1  H     2    59       P1 10747  1.00
      L1  H    26    54       P1  8028  1.00
      P1  H  7954  7966       L1    17  0.46
      P1  H  7989  7998       L1    24  1.00
      L1  C    18    45       P1  7957  0.73

> <Gold.PLP.Chemscore.Internal.Correction>
0.7071

> <Gold.Rescore>
     Score         DG    S(hbond)    S(metal)    S(lipo)     H(rot)  DE(clash)    DE(int)     intcor
     13.41     -19.65       3.03        0.00     101.99       3.08       2.76       3.47       ----

> <Gold.Chemscore.Fitness>
13.4130

> <Gold.Chemscore.DG>
-19.6452

> <Gold.Chemscore.ZeroCoef>
-5.4800

> <Gold.Chemscore.Hbond>
3.0277

> <Gold.Chemscore.Metal>
0.0000

> <Gold.Chemscore.Lipo>
101.9880

> <Gold.Chemscore.Internal_Hbond>
0.0000

> <Gold.Chemscore.DEClash>
2.7578

> <Gold.Chemscore.DEInternal>
3.4743

> <Gold.Chemscore.Rot>
3.0781

> <Gold.Chemscore.Internal.Correction>
   9.000000E+99

> <Gold.Chemscore.Hbonds>
donor molecule, donor type, donor heavy atom, donor atom, acceptor molecule, acceptor atom, score
      L1  H     2    59       P1 10747  0.94
      L1  H    26    54       P1  8028  0.99
      P1  H  7954  7966       L1    17  0.08
      P1  H  7989  7998       L1    24  0.93

> <Gold.Chemscore.Hbond.Weighted>
-10.1126

> <Gold.Chemscore.Metal.Weighted>
-0.0000

> <Gold.Chemscore.Lipo.Weighted>
-11.9326

> <Gold.Chemscore.Internal_Hbond.Weighted>
0.0000

> <Gold.Chemscore.DEClash.Weighted>
2.7578

> <Gold.Chemscore.DEInternal.Weighted>
3.4743

> <Gold.Chemscore.Rot.Weighted>
7.8800

> <Gold.Chemscore.Internal.Correction.Weighted>
   9.000000E+99

> <Gold.Protein.RotatedTorsions>
[ 6907 6896 6895 6894 ] final   64.18 input  -60.11 | X-H torsion
[ 7974 7965 7964 7962 ] final  -94.96 input  175.53 | X-H torsion
[ 8008 7997 7996 7995 ] final  172.43 input   59.86 | X-H torsion
[ 10167 10162 10161 10158 ] final  -22.87 input  -65.29 | X-H torsion
[ 10718 10713 10712 10709 ] final  163.17 input   66.30 | X-H torsion
[ 10763 10752 10751 10750 ] final -148.79 input  -60.55 | X-H torsion
[ 11005 11000 10999 10996 ] final -152.36 input  -57.11 | X-H torsion

> <Gold.Protein.ActiveResidues>
 VAL166  LYS551  ARG553  GLY616  TRP617  ASP618  TYR619  PRO620  LYS621  CYS622 
 ASP623  PHE694  ASN695  SER759  ASP760  ASP761  ALA762  ILE779  LEU786  VAL792 
 PHE793  MET794  SER795  GLU796  ALA797  LYS798  CYS799  TRP800  GLU811  SER814 

> <Gold.Protein.RotatedAtoms>
  152.4311  134.5775  159.9938 H   0  0  0  0  0  0  0  0  0  0  0  0  # atno 6907 bound_to 6896
  151.5898  133.3362  159.3033 H   0  0  0  0  0  0  0  0  0  0  0  0  # atno 6908 bound_to 6896
  150.8205  134.7445  159.6832 H   0  0  0  0  0  0  0  0  0  0  0  0  # atno 6909 bound_to 6896
  145.3664  140.9499  143.2472 H   0  0  0  0  0  0  0  0  0  0  0  0  # atno 7974 bound_to 7965
  156.1175  140.1486  156.9252 H   0  0  0  0  0  0  0  0  0  0  0  0  # atno 8008 bound_to 7997
  154.4811  140.0879  156.7421 H   0  0  0  0  0  0  0  0  0  0  0  0  # atno 8009 bound_to 7997
  155.4488  140.3434  155.4300 H   0  0  0  0  0  0  0  0  0  0  0  0  # atno 8010 bound_to 7997
  140.7287  143.4495  151.0537 H   0  0  0  0  0  0  0  0  0  0  0  0  # atno 10167 bound_to 10162
  157.1122  131.0471  151.2452 H   0  0  0  0  0  0  0  0  0  0  0  0  # atno 10718 bound_to 10713
  154.8213  135.3325  154.7028 H   0  0  0  0  0  0  0  0  0  0  0  0  # atno 10763 bound_to 10752
  153.7661  135.6929  153.4920 H   0  0  0  0  0  0  0  0  0  0  0  0  # atno 10764 bound_to 10752
  153.2077  135.4493  155.0291 H   0  0  0  0  0  0  0  0  0  0  0  0  # atno 10765 bound_to 10752
  140.7197  134.3741  157.5185 H   0  0  0  0  0  0  0  0  0  0  0  0  # atno 11005 bound_to 11000
  144.8609  139.5179  143.6813 LP  0  0  0  0  0  0  0  0  0  0  0  0  # atno 17320 bound_to 7965
  146.2905  139.7125  142.9164 LP  0  0  0  0  0  0  0  0  0  0  0  0  # atno 17321 bound_to 7965
  139.8170  143.7872  152.3175 LP  0  0  0  0  0  0  0  0  0  0  0  0  # atno 17342 bound_to 10162
  139.7941  144.7399  150.9914 LP  0  0  0  0  0  0  0  0  0  0  0  0  # atno 17343 bound_to 10162
  157.4549  130.7619  149.7184 LP  0  0  0  0  0  0  0  0  0  0  0  0  # atno 17370 bound_to 10713
  155.9848  130.3989  150.3295 LP  0  0  0  0  0  0  0  0  0  0  0  0  # atno 17371 bound_to 10713
  139.8851  134.8946  156.2662 LP  0  0  0  0  0  0  0  0  0  0  0  0  # atno 17394 bound_to 11000
  141.0014  133.7149  156.0966 LP  0  0  0  0  0  0  0  0  0  0  0  0  # atno 17395 bound_to 11000

$$$$
