AV-unprocessed.smi:2147|AV-procd|sdf|8745|dock1
  -GOLD-   2272011523D 1   1.00000     0.00000
 Structure written by MMmdl.
 42 44  0  0  0  0  0  0  0  0  2 V2000
  154.8203  134.1989  165.3141 C   0  0  0  0  0  0  0  0  0  0  0  0
  155.3005  134.1746  163.8640 C   0  0  0  0  0  0  0  0  0  0  0  0
  155.9767  133.2202  163.4817 O   0  0  0  0  0  0  0  0  0  0  0  0
  154.9172  135.3161  162.9850 C   0  0  0  0  0  0  0  0  0  0  0  0
  154.3578  136.5053  163.5071 C   0  0  0  0  0  0  0  0  0  0  0  0
  154.0035  137.5641  162.6490 C   0  0  0  0  0  0  0  0  0  0  0  0
  154.1958  137.4647  161.2569 C   0  0  0  0  0  0  0  0  0  0  0  0
  153.8132  138.5458  160.4920 O   0  0  0  0  0  0  0  0  0  0  0  0
  153.4164  138.3107  159.1475 C   0  0  0  0  0  0  0  0  0  0  0  0
  153.0371  139.6498  158.4984 C   0  0  1  0  0  0  0  0  0  0  0  0
  152.8864  139.4476  157.1069 O   0  0  0  0  0  0  0  0  0  0  0  0
  151.7356  140.2365  159.0814 C   0  0  0  0  0  0  0  0  0  0  0  0
  151.3648  141.5211  158.4738 N   0  0  0  0  0  0  0  0  0  0  0  0
  150.7191  141.7802  157.3045 C   0  0  0  0  0  0  0  0  0  0  0  0
  150.6151  143.1329  157.1836 N   0  3  0  0  0  0  0  0  0  0  0  0
  151.2050  143.7465  158.2910 C   0  0  0  0  0  0  0  0  0  0  0  0
  151.3499  145.0909  158.6189 C   0  0  0  0  0  0  0  0  0  0  0  0
  152.0083  145.3788  159.8327 C   0  0  0  0  0  0  0  0  0  0  0  0
  152.4933  144.3507  160.6676 C   0  0  0  0  0  0  0  0  0  0  0  0
  152.3408  142.9906  160.3253 C   0  0  0  0  0  0  0  0  0  0  0  0
  151.6887  142.7156  159.1242 C   0  0  0  0  0  0  0  0  0  0  0  0
  154.7615  136.2764  160.7333 C   0  0  0  0  0  0  0  0  0  0  0  0
  155.1166  135.2166  161.5899 C   0  0  0  0  0  0  0  0  0  0  0  0
  153.7317  134.2365  165.3559 H   0  0  0  0  0  0  0  0  0  0  0  0
  155.2236  135.0674  165.8351 H   0  0  0  0  0  0  0  0  0  0  0  0
  155.1506  133.3027  165.8399 H   0  0  0  0  0  0  0  0  0  0  0  0
  154.1892  136.6292  164.5663 H   0  0  0  0  0  0  0  0  0  0  0  0
  153.5755  138.4639  163.0661 H   0  0  0  0  0  0  0  0  0  0  0  0
  154.2456  137.8576  158.6014 H   0  0  0  0  0  0  0  0  0  0  0  0
  152.5686  137.6244  159.1058 H   0  0  0  0  0  0  0  0  0  0  0  0
  153.8555  140.3567  158.6387 H   0  0  0  0  0  0  0  0  0  0  0  0
  152.0933  139.8780  156.8254 H   0  0  0  0  0  0  0  0  0  0  0  0
  150.9052  139.5479  158.9183 H   0  0  0  0  0  0  0  0  0  0  0  0
  151.8147  140.3748  160.1605 H   0  0  0  0  0  0  0  0  0  0  0  0
  150.3592  141.0454  156.5990 H   0  0  0  0  0  0  0  0  0  0  0  0
  150.9803  145.8803  157.9810 H   0  0  0  0  0  0  0  0  0  0  0  0
  152.1444  146.4088  160.1290 H   0  0  0  0  0  0  0  0  0  0  0  0
  152.9930  144.6109  161.5896 H   0  0  0  0  0  0  0  0  0  0  0  0
  152.7166  142.2095  160.9695 H   0  0  0  0  0  0  0  0  0  0  0  0
  154.9340  136.1507  159.6754 H   0  0  0  0  0  0  0  0  0  0  0  0
  155.5444  134.3227  161.1589 H   0  0  0  0  0  0  0  0  0  0  0  0
  150.1759  143.5997  156.4006 H   0  0  0  0  0  0  0  0  0  0  0  0
  1  2  1  0  0  0  0
  1 24  1  0  0  0  0
  1 25  1  0  0  0  0
  1 26  1  0  0  0  0
  2  3  2  0  0  0  0
  2  4  1  0  0  0  0
  4 23  1  0  0  0  0
  4  5  2  0  0  0  0
  5  6  1  0  0  0  0
  5 27  1  0  0  0  0
  6  7  2  0  0  0  0
  6 28  1  0  0  0  0
  7  8  1  0  0  0  0
  7 22  1  0  0  0  0
  8  9  1  0  0  0  0
  9 10  1  0  0  0  0
  9 29  1  0  0  0  0
  9 30  1  0  0  0  0
 10 11  1  0  0  0  0
 10 12  1  0  0  0  0
 10 31  1  0  0  0  0
 11 32  1  0  0  0  0
 12 13  1  0  0  0  0
 12 33  1  0  0  0  0
 12 34  1  0  0  0  0
 13 21  1  0  0  0  0
 13 14  1  0  0  0  0
 14 15  2  0  0  0  0
 14 35  1  0  0  0  0
 15 16  1  0  0  0  0
 15 42  1  0  0  0  0
 16 21  2  0  0  0  0
 16 17  1  0  0  0  0
 17 18  2  0  0  0  0
 17 36  1  0  0  0  0
 18 19  1  0  0  0  0
 18 37  1  0  0  0  0
 19 20  2  0  0  0  0
 19 38  1  0  0  0  0
 20 21  1  0  0  0  0
 20 39  1  0  0  0  0
 22 23  2  0  0  0  0
 22 40  1  0  0  0  0
 23 41  1  0  0  0  0
M  CHG  1  15   1
M  END
> <s_m_source_file>
AV-unprocessed.smi

> <i_m_source_file_index>
2147

> <i_lp_mmshare_version>
43012

> <i_f3d_flags>
0

> <s_epik_input>
W0NIM11DKD1PKWMxW2NIXVtjSF1jKFtjSF1bY0hdMSlPW0NIMl1bQ0BIXShbT0hdKVtDSDJdbihbY0hdbjIpYyhjMjMpW2NIXVtjSF1bY0hdW2NIXTM=

> <s_epik_cmdline>
J2VwaWtfcHl0aG9uJywgJy1waCcsICc3LjAnLCAnLXRuJywgJzgnLCAnLW1hJywgJzIwMCcsICctbWV0YWxfYmluZGluZycsICctaW1hZScsICc8aW5maWxlLm1hZT4nLCAnLW9tYWUnLCAnPG91dGZpbGUubWFlPic=

> <r_lp_tautomer_probability>
0.99995

> <r_epik_Ionization_Penalty>
1.40272

> <r_epik_Ionization_Penalty_Charging>
1.40272

> <r_epik_Ionization_Penalty_Neutral>
2.3993e-06

> <r_epik_State_Penalty>
1.48501

> <r_epik_Charging_Adjusted_Penalty>
2.88772

> <i_epik_Tot_Q>
1

> <i_epik_Tot_abs_Q>
1

> <r_epik_Metal_State_Penalty>
5.5274

> <b_epik_Metal_Only>
0

> <s_lp_Force_Field>
OPLS_2005

> <r_lp_Energy>
26.1974

> <b_lp_Chiralities_Consistent>
1

> <s_lp_Variant>
AV-unprocessed.smi:2147-4

> <Gold.Version>
5.8.1

> <Gold.Id.Protein>
6NUR|6NUR_protein|mol2

> <Gold.PLP.Fitness>
56.5369

> <Gold.PLP.PLP>
-48.7858

> <Gold.PLP.part.hbond>
-1.8360

> <Gold.PLP.part.metal>
0.0000

> <Gold.PLP.part.buried>
-4.6675

> <Gold.PLP.part.nonpolar>
-41.2477

> <Gold.PLP.part.repulsive>
0.0014

> <Gold.PLP.ligand.clash>
0.0000

> <Gold.PLP.ligand.torsion>
0.7967

> <Gold.PLP.Chemscore.Hbond>
3.0000

> <Gold.PLP.Chemscore.CHOScore>
0.0000

> <Gold.PLP.Chemscore.Metal>
0.0000

> <Gold.Chemscore.Hbonds>
donor molecule, donor type, donor heavy atom, donor atom, acceptor molecule, acceptor atom, score
      L1  H    15    42       P1  8028  2.00
      P1  H  7997  8009       L1    11  1.00

> <Gold.PLP.Chemscore.Internal.Correction>
0.3445

> <Gold.Rescore>
     Score         DG    S(hbond)    S(metal)    S(lipo)     H(rot)  DE(clash)    DE(int)     intcor
     19.98     -20.84       1.90        0.00     131.45       2.48       0.02       0.84       ----

> <Gold.Chemscore.Fitness>
19.9814

> <Gold.Chemscore.DG>
-20.8415

> <Gold.Chemscore.ZeroCoef>
-5.4800

> <Gold.Chemscore.Hbond>
1.8987

> <Gold.Chemscore.Metal>
0.0000

> <Gold.Chemscore.Lipo>
131.4472

> <Gold.Chemscore.Internal_Hbond>
0.0000

> <Gold.Chemscore.DEClash>
0.0234

> <Gold.Chemscore.DEInternal>
0.8367

> <Gold.Chemscore.Rot>
2.4842

> <Gold.Chemscore.Internal.Correction>
   9.000000E+99

> <Gold.Chemscore.Hbonds>
donor molecule, donor type, donor heavy atom, donor atom, acceptor molecule, acceptor atom, score
      L1  H    15    42       P1  8028  0.96
      P1  H  7997  8009       L1    11  0.36

> <Gold.Chemscore.Hbond.Weighted>
-6.3416

> <Gold.Chemscore.Metal.Weighted>
-0.0000

> <Gold.Chemscore.Lipo.Weighted>
-15.3793

> <Gold.Chemscore.Internal_Hbond.Weighted>
0.0000

> <Gold.Chemscore.DEClash.Weighted>
0.0234

> <Gold.Chemscore.DEInternal.Weighted>
0.8367

> <Gold.Chemscore.Rot.Weighted>
6.3594

> <Gold.Chemscore.Internal.Correction.Weighted>
   9.000000E+99

> <Gold.Protein.RotatedTorsions>
[ 6907 6896 6895 6894 ] final  144.09 input  -60.11 | X-H torsion
[ 7974 7965 7964 7962 ] final  -13.45 input  175.53 | X-H torsion
[ 8008 7997 7996 7995 ] final -168.73 input   59.86 | X-H torsion
[ 10167 10162 10161 10158 ] final  -77.15 input  -65.29 | X-H torsion
[ 10718 10713 10712 10709 ] final   16.49 input   66.30 | X-H torsion
[ 10763 10752 10751 10750 ] final    1.61 input  -60.55 | X-H torsion
[ 11005 11000 10999 10996 ] final  -74.18 input  -57.11 | X-H torsion

> <Gold.Protein.ActiveResidues>
 VAL166  LYS551  ARG553  GLY616  TRP617  ASP618  TYR619  PRO620  LYS621  CYS622 
 ASP623  PHE694  ASN695  SER759  ASP760  ASP761  ALA762  ILE779  LEU786  VAL792 
 PHE793  MET794  SER795  GLU796  ALA797  LYS798  CYS799  TRP800  GLU811  SER814 

> <Gold.Protein.RotatedAtoms>
  152.1980  133.4821  159.5043 H   0  0  0  0  0  0  0  0  0  0  0  0  # atno 6907 bound_to 6896
  150.6964  134.1626  159.4191 H   0  0  0  0  0  0  0  0  0  0  0  0  # atno 6908 bound_to 6896
  151.9543  135.0154  160.0594 H   0  0  0  0  0  0  0  0  0  0  0  0  # atno 6909 bound_to 6896
  146.2114  140.3205  142.8390 H   0  0  0  0  0  0  0  0  0  0  0  0  # atno 7974 bound_to 7965
  155.8954  140.1032  157.1389 H   0  0  0  0  0  0  0  0  0  0  0  0  # atno 8008 bound_to 7997
  154.4020  140.1303  156.4432 H   0  0  0  0  0  0  0  0  0  0  0  0  # atno 8009 bound_to 7997
  155.7485  140.3465  155.5141 H   0  0  0  0  0  0  0  0  0  0  0  0  # atno 8010 bound_to 7997
  140.4795  143.2406  151.8080 H   0  0  0  0  0  0  0  0  0  0  0  0  # atno 10167 bound_to 10162
  157.0685  130.6338  149.5801 H   0  0  0  0  0  0  0  0  0  0  0  0  # atno 10718 bound_to 10713
  153.3059  135.6959  153.7160 H   0  0  0  0  0  0  0  0  0  0  0  0  # atno 10763 bound_to 10752
  153.6056  135.3454  155.2961 H   0  0  0  0  0  0  0  0  0  0  0  0  # atno 10764 bound_to 10752
  154.8563  135.4351  154.2184 H   0  0  0  0  0  0  0  0  0  0  0  0  # atno 10765 bound_to 10752
  141.1632  133.6902  156.7324 H   0  0  0  0  0  0  0  0  0  0  0  0  # atno 11005 bound_to 11000
  144.8924  140.7540  143.5918 LP  0  0  0  0  0  0  0  0  0  0  0  0  # atno 17320 bound_to 7965
  145.3128  139.1813  143.4630 LP  0  0  0  0  0  0  0  0  0  0  0  0  # atno 17321 bound_to 7965
  139.4831  144.4790  151.9330 LP  0  0  0  0  0  0  0  0  0  0  0  0  # atno 17342 bound_to 10162
  140.3876  144.2657  150.5902 LP  0  0  0  0  0  0  0  0  0  0  0  0  # atno 17343 bound_to 10162
  155.9957  130.5024  150.7469 LP  0  0  0  0  0  0  0  0  0  0  0  0  # atno 17370 bound_to 10713
  157.4897  131.0910  151.0441 LP  0  0  0  0  0  0  0  0  0  0  0  0  # atno 17371 bound_to 10713
  140.2735  134.8373  157.3868 LP  0  0  0  0  0  0  0  0  0  0  0  0  # atno 17394 bound_to 11000
  140.1499  134.4863  155.7968 LP  0  0  0  0  0  0  0  0  0  0  0  0  # atno 17395 bound_to 11000

$$$$
