AV-unprocessed.smi:1066|AV-procd|sdf|4669|dock2
  -GOLD-   22720 3183D 1   1.00000     0.00000
 Structure written by MMmdl.
 38 40  0  0  0  0  0  0  0  0  2 V2000
  151.7290  138.3229  158.8712 C   0  0  0  0  0  0  0  0  0  0  0  0
  150.8866  137.2850  158.1863 C   0  0  0  0  0  0  0  0  0  0  0  0
  150.1397  136.4729  158.9225 N   0  0  0  0  0  0  0  0  0  0  0  0
  149.4834  135.6197  158.0279 O   0  0  0  0  0  0  0  0  0  0  0  0
  149.8777  135.9727  156.7835 C   0  0  0  0  0  0  0  0  0  0  0  0
  149.3215  135.1566  155.3761 Cl  0  0  0  0  0  0  0  0  0  0  0  0
  150.7613  137.0134  156.7915 C   0  0  0  0  0  0  0  0  0  0  0  0
  151.4435  137.6983  155.6340 C   0  0  0  0  0  0  0  0  0  0  0  0
  151.2534  139.2102  155.7506 C   0  0  0  0  0  0  0  0  0  0  0  0
  152.1333  139.9749  155.3569 O   0  0  0  0  0  0  0  0  0  0  0  0
  150.0948  139.6290  156.2823 N   0  0  0  0  0  0  0  0  0  0  0  0
  149.7034  141.0260  156.4262 C   0  0  1  0  0  0  0  0  0  0  0  0
  148.6430  141.2750  157.5025 C   0  0  0  0  0  0  0  0  0  0  0  0
  148.9380  142.6943  158.0160 C   0  0  0  0  0  0  0  0  0  0  0  0
  150.2201  143.1154  157.4046 N   0  3  1  0  0  0  0  0  0  0  0  0
  151.0765  143.9302  158.2921 C   0  0  0  0  0  0  0  0  0  0  0  0
  152.4981  143.4295  158.3838 C   0  0  0  0  0  0  0  0  0  0  0  0
  151.5367  143.1966  159.5289 C   0  0  0  0  0  0  0  0  0  0  0  0
  150.8672  141.8926  156.8974 C   0  0  0  0  0  0  0  0  0  0  0  0
  152.3429  138.8745  158.1596 H   0  0  0  0  0  0  0  0  0  0  0  0
  152.4011  137.8654  159.5976 H   0  0  0  0  0  0  0  0  0  0  0  0
  151.1070  139.0448  159.4008 H   0  0  0  0  0  0  0  0  0  0  0  0
  152.5107  137.4751  155.6064 H   0  0  0  0  0  0  0  0  0  0  0  0
  151.0414  137.3575  154.6794 H   0  0  0  0  0  0  0  0  0  0  0  0
  149.4310  138.9295  156.5828 H   0  0  0  0  0  0  0  0  0  0  0  0
  149.3450  141.4085  155.4682 H   0  0  0  0  0  0  0  0  0  0  0  0
  147.6292  141.1739  157.1139 H   0  0  0  0  0  0  0  0  0  0  0  0
  148.7554  140.5617  158.3208 H   0  0  0  0  0  0  0  0  0  0  0  0
  148.1545  143.3966  157.7302 H   0  0  0  0  0  0  0  0  0  0  0  0
  149.0006  142.6923  159.1055 H   0  0  0  0  0  0  0  0  0  0  0  0
  150.8640  144.9973  158.3273 H   0  0  0  0  0  0  0  0  0  0  0  0
  152.7812  142.5677  157.7817 H   0  0  0  0  0  0  0  0  0  0  0  0
  153.2823  144.1688  158.5342 H   0  0  0  0  0  0  0  0  0  0  0  0
  151.6885  143.7828  160.4330 H   0  0  0  0  0  0  0  0  0  0  0  0
  151.1817  142.1796  159.6880 H   0  0  0  0  0  0  0  0  0  0  0  0
  151.4096  141.3994  157.7069 H   0  0  0  0  0  0  0  0  0  0  0  0
  151.5753  142.1154  156.0982 H   0  0  0  0  0  0  0  0  0  0  0  0
  149.9859  143.6746  156.5967 H   0  0  0  0  0  0  0  0  0  0  0  0
  1  2  1  0  0  0  0
  1 20  1  0  0  0  0
  1 21  1  0  0  0  0
  1 22  1  0  0  0  0
  2  7  1  0  0  0  0
  2  3  2  0  0  0  0
  3  4  1  0  0  0  0
  4  5  1  0  0  0  0
  5  6  1  0  0  0  0
  5  7  2  0  0  0  0
  7  8  1  0  0  0  0
  8  9  1  0  0  0  0
  8 23  1  0  0  0  0
  8 24  1  0  0  0  0
  9 10  2  0  0  0  0
  9 11  1  0  0  0  0
 11 12  1  0  0  0  0
 11 25  1  0  0  0  0
 12 19  1  0  0  0  0
 12 13  1  0  0  0  0
 12 26  1  0  0  0  0
 13 14  1  0  0  0  0
 13 27  1  0  0  0  0
 13 28  1  0  0  0  0
 14 15  1  0  0  0  0
 14 29  1  0  0  0  0
 14 30  1  0  0  0  0
 15 16  1  0  0  0  0
 15 19  1  0  0  0  0
 15 38  1  0  0  0  0
 16 18  1  0  0  0  0
 16 17  1  0  0  0  0
 16 31  1  0  0  0  0
 17 18  1  0  0  0  0
 17 32  1  0  0  0  0
 17 33  1  0  0  0  0
 18 34  1  0  0  0  0
 18 35  1  0  0  0  0
 19 36  1  0  0  0  0
 19 37  1  0  0  0  0
M  CHG  1  15   1
M  END
> <s_m_source_file>
AV-unprocessed.smi

> <i_m_source_file_index>
1066

> <i_lp_mmshare_version>
43012

> <i_f3d_flags>
0

> <s_epik_input>
W0NIM11jMW5vYyhDbCljMVtDSDJdQyg9TylbTkhdW0NAQEhdMltDSDJdW0NIMl1OKFtDSDJdMilbQ0hdM1tDSDJdW0NIMl0z

> <s_epik_cmdline>
J2VwaWtfcHl0aG9uJywgJy1waCcsICc3LjAnLCAnLXRuJywgJzgnLCAnLW1hJywgJzIwMCcsICctbWV0YWxfYmluZGluZycsICctaW1hZScsICc8aW5maWxlLm1hZT4nLCAnLW9tYWUnLCAnPG91dGZpbGUubWFlPic=

> <r_epik_Ionization_Penalty>
0.00108138

> <r_epik_Ionization_Penalty_Charging>
0.00108128

> <r_epik_Ionization_Penalty_Neutral>
9.66632e-08

> <r_epik_State_Penalty>
0.000708577

> <r_epik_Charging_Adjusted_Penalty>
0.00178986

> <i_epik_Tot_Q>
1

> <i_epik_Tot_abs_Q>
1

> <r_epik_Metal_State_Penalty>
-0

> <b_epik_Metal_Only>
0

> <s_lp_Force_Field>
OPLS_2005

> <r_lp_Energy>
30.6816

> <b_lp_Chiralities_Consistent>
1

> <s_lp_Variant>
AV-unprocessed.smi:1066-2

> <Gold.Version>
5.8.1

> <Gold.Id.Protein>
6NUR|6NUR_protein|mol2

> <Gold.PLP.Fitness>
35.7000

> <Gold.PLP.PLP>
-28.9099

> <Gold.PLP.part.hbond>
-3.8235

> <Gold.PLP.part.metal>
0.0000

> <Gold.PLP.part.buried>
-4.9251

> <Gold.PLP.part.nonpolar>
-20.3324

> <Gold.PLP.part.repulsive>
0.0921

> <Gold.PLP.ligand.clash>
2.3074

> <Gold.PLP.ligand.torsion>
1.4468

> <Gold.PLP.Chemscore.Hbond>
3.5728

> <Gold.PLP.Chemscore.CHOScore>
0.0000

> <Gold.PLP.Chemscore.Metal>
0.0000

> <Gold.Chemscore.Hbonds>
donor molecule, donor type, donor heavy atom, donor atom, acceptor molecule, acceptor atom, score
      L1  H    15    38       P1  8028  2.00
      P1  H  6896  6907       L1     3  0.80
      P1  H  7989  7998       L1    10  0.62

> <Gold.PLP.Chemscore.Internal.Correction>
1.2728

> <Gold.Rescore>
     Score         DG    S(hbond)    S(metal)    S(lipo)     H(rot)  DE(clash)    DE(int)     intcor
     15.82     -18.65       2.51        0.00      75.45       1.57       0.01       2.82       ----

> <Gold.Chemscore.Fitness>
15.8228

> <Gold.Chemscore.DG>
-18.6550

> <Gold.Chemscore.ZeroCoef>
-5.4800

> <Gold.Chemscore.Hbond>
2.5057

> <Gold.Chemscore.Metal>
0.0000

> <Gold.Chemscore.Lipo>
75.4518

> <Gold.Chemscore.Internal_Hbond>
0.0000

> <Gold.Chemscore.DEClash>
0.0106

> <Gold.Chemscore.DEInternal>
2.8216

> <Gold.Chemscore.Rot>
1.5711

> <Gold.Chemscore.Internal.Correction>
   9.000000E+99

> <Gold.Chemscore.Hbonds>
donor molecule, donor type, donor heavy atom, donor atom, acceptor molecule, acceptor atom, score
      L1  H    15    38       P1  8028  0.97
      P1  H  6896  6907       L1     3  0.10
      P1  H  7989  7998       L1    10  0.52

> <Gold.Chemscore.Hbond.Weighted>
-8.3692

> <Gold.Chemscore.Metal.Weighted>
-0.0000

> <Gold.Chemscore.Lipo.Weighted>
-8.8279

> <Gold.Chemscore.Internal_Hbond.Weighted>
0.0000

> <Gold.Chemscore.DEClash.Weighted>
0.0106

> <Gold.Chemscore.DEInternal.Weighted>
2.8216

> <Gold.Chemscore.Rot.Weighted>
4.0221

> <Gold.Chemscore.Internal.Correction.Weighted>
   9.000000E+99

> <Gold.Protein.RotatedTorsions>
[ 6907 6896 6895 6894 ] final  -25.60 input  -60.11 | X-H torsion
[ 7974 7965 7964 7962 ] final   43.72 input  175.53 | X-H torsion
[ 8008 7997 7996 7995 ] final    8.59 input   59.86 | X-H torsion
[ 10167 10162 10161 10158 ] final -123.69 input  -65.29 | X-H torsion
[ 10718 10713 10712 10709 ] final   49.02 input   66.30 | X-H torsion
[ 10763 10752 10751 10750 ] final  -91.04 input  -60.55 | X-H torsion
[ 11005 11000 10999 10996 ] final  -32.78 input  -57.11 | X-H torsion

> <Gold.Protein.ActiveResidues>
 VAL166  LYS551  ARG553  GLY616  TRP617  ASP618  TYR619  PRO620  LYS621  CYS622 
 ASP623  PHE694  ASN695  SER759  ASP760  ASP761  ALA762  ILE779  LEU786  VAL792 
 PHE793  MET794  SER795  GLU796  ALA797  LYS798  CYS799  TRP800  GLU811  SER814 

> <Gold.Protein.RotatedAtoms>
  151.1729  135.0326  159.8758 H   0  0  0  0  0  0  0  0  0  0  0  0  # atno 6907 bound_to 6896
  152.5448  134.1150  159.8385 H   0  0  0  0  0  0  0  0  0  0  0  0  # atno 6908 bound_to 6896
  151.1258  133.5025  159.2633 H   0  0  0  0  0  0  0  0  0  0  0  0  # atno 6909 bound_to 6896
  146.0631  139.5155  142.9645 H   0  0  0  0  0  0  0  0  0  0  0  0  # atno 7974 bound_to 7965
  154.7688  140.2798  155.6154 H   0  0  0  0  0  0  0  0  0  0  0  0  # atno 8008 bound_to 7997
  156.2930  140.2645  156.2413 H   0  0  0  0  0  0  0  0  0  0  0  0  # atno 8009 bound_to 7997
  154.9925  140.0373  157.2315 H   0  0  0  0  0  0  0  0  0  0  0  0  # atno 8010 bound_to 7997
  140.0008  143.5542  152.2304 H   0  0  0  0  0  0  0  0  0  0  0  0  # atno 10167 bound_to 10162
  157.4745  130.8276  149.8024 H   0  0  0  0  0  0  0  0  0  0  0  0  # atno 10718 bound_to 10713
  154.6720  135.5282  153.8150 H   0  0  0  0  0  0  0  0  0  0  0  0  # atno 10763 bound_to 10752
  153.0507  135.6531  154.0710 H   0  0  0  0  0  0  0  0  0  0  0  0  # atno 10764 bound_to 10752
  154.0608  135.2962  155.3305 H   0  0  0  0  0  0  0  0  0  0  0  0  # atno 10765 bound_to 10752
  140.9581  133.7181  156.1325 H   0  0  0  0  0  0  0  0  0  0  0  0  # atno 11005 bound_to 11000
  145.6525  141.0260  143.1753 LP  0  0  0  0  0  0  0  0  0  0  0  0  # atno 17320 bound_to 7965
  144.7186  139.8107  143.7390 LP  0  0  0  0  0  0  0  0  0  0  0  0  # atno 17321 bound_to 7965
  139.6273  144.7639  151.2611 LP  0  0  0  0  0  0  0  0  0  0  0  0  # atno 17342 bound_to 10162
  140.7419  143.6542  150.8222 LP  0  0  0  0  0  0  0  0  0  0  0  0  # atno 17343 bound_to 10162
  156.0090  130.3842  150.2331 LP  0  0  0  0  0  0  0  0  0  0  0  0  # atno 17370 bound_to 10713
  157.0514  131.0064  151.3252 LP  0  0  0  0  0  0  0  0  0  0  0  0  # atno 17371 bound_to 10713
  140.7507  134.4048  157.5541 LP  0  0  0  0  0  0  0  0  0  0  0  0  # atno 17394 bound_to 11000
  139.8869  134.8898  156.2560 LP  0  0  0  0  0  0  0  0  0  0  0  0  # atno 17395 bound_to 11000

$$$$
