AV-unprocessed.smi:737|AV-procd|sdf|3536|dock10
  -GOLD-   22720 0533D 1   1.00000     0.00000
 Structure written by MMmdl.
 45 47  0  0  0  0  0  0  0  0  1 V2000
  150.4391  137.0508  159.2593 C   0  0  0  0  0  0  0  0  0  0  0  0
  151.6050  137.4733  158.5001 N   0  0  0  0  0  0  0  0  0  0  0  0
  151.5683  138.6382  157.7212 C   0  0  0  0  0  0  0  0  0  0  0  0
  151.8784  139.8321  158.2776 N   0  0  0  0  0  0  0  0  0  0  0  0
  151.8252  140.9198  157.4980 C   0  0  0  0  0  0  0  0  0  0  0  0
  151.4975  141.0147  156.1999 N   0  0  0  0  0  0  0  0  0  0  0  0
  151.1901  139.8375  155.6387 C   0  0  0  0  0  0  0  0  0  0  0  0
  150.8158  139.6390  154.3207 N   0  0  0  0  0  0  0  0  0  0  0  0
  150.6304  138.3218  154.2873 C   0  0  0  0  0  0  0  0  0  0  0  0
  150.8378  137.6354  155.4281 N   0  0  0  0  0  0  0  0  0  0  0  0
  150.6956  136.2010  155.6093 C   0  0  0  0  0  0  0  0  0  0  0  0
  149.2223  135.7444  155.5855 C   0  0  2  0  0  0  0  0  0  0  0  0
  148.4607  136.3495  156.6118 O   0  0  0  0  0  0  0  0  0  0  0  0
  149.0537  134.2201  155.6749 C   0  0  0  0  0  0  0  0  0  0  0  0
  149.9714  133.5845  154.7954 O   0  0  0  0  0  0  0  0  0  0  0  0
  149.6618  132.2777  154.5226 C   0  0  0  0  0  0  0  0  0  0  0  0
  150.4606  131.2278  155.0361 C   0  0  0  0  0  0  0  0  0  0  0  0
  151.6788  131.5208  155.8930 C   0  0  0  0  0  0  0  0  0  0  0  0
  150.1268  129.8890  154.7452 C   0  0  0  0  0  0  0  0  0  0  0  0
  149.0130  129.5950  153.9372 C   0  0  0  0  0  0  0  0  0  0  0  0
  148.2303  130.6389  153.4103 C   0  0  0  0  0  0  0  0  0  0  0  0
  148.5538  131.9813  153.6953 C   0  0  0  0  0  0  0  0  0  0  0  0
  147.7091  133.0985  153.1119 C   0  0  0  0  0  0  0  0  0  0  0  0
  151.2106  138.6046  156.3580 C   0  0  0  0  0  0  0  0  0  0  0  0
  150.6574  136.1236  159.7888 H   0  0  0  0  0  0  0  0  0  0  0  0
  149.5896  136.8746  158.5987 H   0  0  0  0  0  0  0  0  0  0  0  0
  150.1623  137.8067  159.9949 H   0  0  0  0  0  0  0  0  0  0  0  0
  152.4249  136.8834  158.4899 H   0  0  0  0  0  0  0  0  0  0  0  0
  152.0812  141.8505  157.9819 H   0  0  0  0  0  0  0  0  0  0  0  0
  150.3252  137.8249  153.3778 H   0  0  0  0  0  0  0  0  0  0  0  0
  151.2514  135.6978  154.8170 H   0  0  0  0  0  0  0  0  0  0  0  0
  151.1822  135.9181  156.5418 H   0  0  0  0  0  0  0  0  0  0  0  0
  148.7760  136.0749  154.6469 H   0  0  0  0  0  0  0  0  0  0  0  0
  147.6651  136.6922  156.2341 H   0  0  0  0  0  0  0  0  0  0  0  0
  149.1862  133.8779  156.7022 H   0  0  0  0  0  0  0  0  0  0  0  0
  148.0368  133.9540  155.3820 H   0  0  0  0  0  0  0  0  0  0  0  0
  152.4190  130.7255  155.8008 H   0  0  0  0  0  0  0  0  0  0  0  0
  151.3929  131.5990  156.9416 H   0  0  0  0  0  0  0  0  0  0  0  0
  152.1565  132.4544  155.5947 H   0  0  0  0  0  0  0  0  0  0  0  0
  150.7276  129.0820  155.1384 H   0  0  0  0  0  0  0  0  0  0  0  0
  148.7627  128.5678  153.7160 H   0  0  0  0  0  0  0  0  0  0  0  0
  147.3818  130.4045  152.7846 H   0  0  0  0  0  0  0  0  0  0  0  0
  147.0840  132.7358  152.2955 H   0  0  0  0  0  0  0  0  0  0  0  0
  148.3412  133.8961  152.7204 H   0  0  0  0  0  0  0  0  0  0  0  0
  147.0585  133.5197  153.8781 H   0  0  0  0  0  0  0  0  0  0  0  0
  1  2  1  0  0  0  0
  1 25  1  0  0  0  0
  1 26  1  0  0  0  0
  1 27  1  0  0  0  0
  2  3  1  0  0  0  0
  2 28  1  0  0  0  0
  3 24  1  0  0  0  0
  3  4  2  0  0  0  0
  4  5  1  0  0  0  0
  5  6  2  0  0  0  0
  5 29  1  0  0  0  0
  6  7  1  0  0  0  0
  7 24  2  0  0  0  0
  7  8  1  0  0  0  0
  8  9  2  0  0  0  0
  9 10  1  0  0  0  0
  9 30  1  0  0  0  0
 10 11  1  0  0  0  0
 10 24  1  0  0  0  0
 11 12  1  0  0  0  0
 11 31  1  0  0  0  0
 11 32  1  0  0  0  0
 12 13  1  0  0  0  0
 12 14  1  0  0  0  0
 12 33  1  0  0  0  0
 13 34  1  0  0  0  0
 14 15  1  0  0  0  0
 14 35  1  0  0  0  0
 14 36  1  0  0  0  0
 15 16  1  0  0  0  0
 16 22  1  0  0  0  0
 16 17  2  0  0  0  0
 17 18  1  0  0  0  0
 17 19  1  0  0  0  0
 18 37  1  0  0  0  0
 18 38  1  0  0  0  0
 18 39  1  0  0  0  0
 19 20  2  0  0  0  0
 19 40  1  0  0  0  0
 20 21  1  0  0  0  0
 20 41  1  0  0  0  0
 21 22  2  0  0  0  0
 21 42  1  0  0  0  0
 22 23  1  0  0  0  0
 23 43  1  0  0  0  0
 23 44  1  0  0  0  0
 23 45  1  0  0  0  0
M  END
> <s_m_source_file>
AV-unprocessed.smi

> <i_m_source_file_index>
737

> <i_lp_mmshare_version>
43012

> <i_f3d_flags>
0

> <s_epik_input>
bjFbY0hdbmMoW05IXVtDSDNdKWMoYzEyKW4oW2NIXW4yKVtDSDJdW0NASF0oW09IXSlbQ0gyXU9jM2MoW0NIM10pW2NIXVtjSF1bY0hdYzNbQ0gzXQ==

> <s_epik_cmdline>
J2VwaWtfcHl0aG9uJywgJy1waCcsICc3LjAnLCAnLXRuJywgJzgnLCAnLW1hJywgJzIwMCcsICctbWV0YWxfYmluZGluZycsICctaW1hZScsICc8aW5maWxlLm1hZT4nLCAnLW9tYWUnLCAnPG91dGZpbGUubWFlPic=

> <r_lp_tautomer_probability>
1

> <r_epik_Ionization_Penalty>
0.0070961

> <r_epik_Ionization_Penalty_Charging>
0

> <r_epik_Ionization_Penalty_Neutral>
0.0070961

> <r_epik_State_Penalty>
-0

> <r_epik_Charging_Adjusted_Penalty>
0

> <i_epik_Tot_Q>
0

> <i_epik_Tot_abs_Q>
0

> <r_epik_Metal_State_Penalty>
-0

> <b_epik_Metal_Only>
0

> <s_lp_Force_Field>
OPLS_2005

> <r_lp_Energy>
18.2803

> <b_lp_Chiralities_Consistent>
1

> <s_lp_Variant>
AV-unprocessed.smi:737-1

> <Gold.Version>
5.8.1

> <Gold.Id.Protein>
6NUR|6NUR_protein|mol2

> <Gold.PLP.Fitness>
39.6903

> <Gold.PLP.PLP>
-35.4511

> <Gold.PLP.part.hbond>
-1.0481

> <Gold.PLP.part.metal>
0.0000

> <Gold.PLP.part.buried>
-4.2388

> <Gold.PLP.part.nonpolar>
-30.0176

> <Gold.PLP.part.repulsive>
0.3775

> <Gold.PLP.ligand.clash>
0.0000

> <Gold.PLP.ligand.torsion>
1.1249

> <Gold.PLP.Chemscore.Hbond>
1.0000

> <Gold.PLP.Chemscore.CHOScore>
1.1179

> <Gold.PLP.Chemscore.Metal>
0.0000

> <Gold.Chemscore.Hbonds>
donor molecule, donor type, donor heavy atom, donor atom, acceptor molecule, acceptor atom, score
      P1  H  7989  7998       L1     8  1.00
      L1  C     9    30       P1  7948  0.88
      L1  C     9    30       P1  7949  0.17

> <Gold.PLP.Chemscore.Internal.Correction>
0.1353

> <Gold.Rescore>
     Score         DG    S(hbond)    S(metal)    S(lipo)     H(rot)  DE(clash)    DE(int)     intcor
      7.81      -8.89       0.99        0.00      64.36       2.91       0.01       1.07       ----

> <Gold.Chemscore.Fitness>
7.8100

> <Gold.Chemscore.DG>
-8.8877

> <Gold.Chemscore.ZeroCoef>
-5.4800

> <Gold.Chemscore.Hbond>
0.9936

> <Gold.Chemscore.Metal>
0.0000

> <Gold.Chemscore.Lipo>
64.3609

> <Gold.Chemscore.Internal_Hbond>
0.0000

> <Gold.Chemscore.DEClash>
0.0060

> <Gold.Chemscore.DEInternal>
1.0717

> <Gold.Chemscore.Rot>
2.9067

> <Gold.Chemscore.Internal.Correction>
   9.000000E+99

> <Gold.Chemscore.Hbonds>
donor molecule, donor type, donor heavy atom, donor atom, acceptor molecule, acceptor atom, score
      P1  H  7989  7998       L1     8  0.45

> <Gold.Chemscore.Hbond.Weighted>
-3.3187

> <Gold.Chemscore.Metal.Weighted>
-0.0000

> <Gold.Chemscore.Lipo.Weighted>
-7.5302

> <Gold.Chemscore.Internal_Hbond.Weighted>
0.0000

> <Gold.Chemscore.DEClash.Weighted>
0.0060

> <Gold.Chemscore.DEInternal.Weighted>
1.0717

> <Gold.Chemscore.Rot.Weighted>
7.4412

> <Gold.Chemscore.Internal.Correction.Weighted>
   9.000000E+99

> <Gold.Protein.RotatedTorsions>
[ 6907 6896 6895 6894 ] final -127.47 input  -60.11 | X-H torsion
[ 7974 7965 7964 7962 ] final   25.92 input  175.53 | X-H torsion
[ 8008 7997 7996 7995 ] final  177.69 input   59.86 | X-H torsion
[ 10167 10162 10161 10158 ] final   65.18 input  -65.29 | X-H torsion
[ 10718 10713 10712 10709 ] final  136.67 input   66.30 | X-H torsion
[ 10763 10752 10751 10750 ] final -155.59 input  -60.55 | X-H torsion
[ 11005 11000 10999 10996 ] final  -13.41 input  -57.11 | X-H torsion

> <Gold.Protein.ActiveResidues>
 VAL166  LYS551  ARG553  GLY616  TRP617  ASP618  TYR619  PRO620  LYS621  CYS622 
 ASP623  PHE694  ASN695  SER759  ASP760  ASP761  ALA762  ILE779  LEU786  VAL792 
 PHE793  MET794  SER795  GLU796  ALA797  LYS798  CYS799  TRP800  GLU811  SER814 

> <Gold.Protein.RotatedAtoms>
  150.9076  133.7038  159.2862 H   0  0  0  0  0  0  0  0  0  0  0  0  # atno 6907 bound_to 6896
  151.4536  135.1031  159.9714 H   0  0  0  0  0  0  0  0  0  0  0  0  # atno 6908 bound_to 6896
  152.4912  133.8456  159.7230 H   0  0  0  0  0  0  0  0  0  0  0  0  # atno 6909 bound_to 6896
  146.1864  139.7400  142.8863 H   0  0  0  0  0  0  0  0  0  0  0  0  # atno 7974 bound_to 7965
  156.0628  140.1352  156.9921 H   0  0  0  0  0  0  0  0  0  0  0  0  # atno 8008 bound_to 7997
  154.4491  140.0988  156.6614 H   0  0  0  0  0  0  0  0  0  0  0  0  # atno 8009 bound_to 7997
  155.5350  140.3459  155.4436 H   0  0  0  0  0  0  0  0  0  0  0  0  # atno 8010 bound_to 7997
  140.1141  144.4791  150.6960 H   0  0  0  0  0  0  0  0  0  0  0  0  # atno 10167 bound_to 10162
  157.4443  131.1060  151.0108 H   0  0  0  0  0  0  0  0  0  0  0  0  # atno 10718 bound_to 10713
  154.7776  135.3164  154.8060 H   0  0  0  0  0  0  0  0  0  0  0  0  # atno 10763 bound_to 10752
  153.8779  135.6838  153.4773 H   0  0  0  0  0  0  0  0  0  0  0  0  # atno 10764 bound_to 10752
  153.1403  135.4742  154.9422 H   0  0  0  0  0  0  0  0  0  0  0  0  # atno 10765 bound_to 10752
  140.7758  133.8402  155.9247 H   0  0  0  0  0  0  0  0  0  0  0  0  # atno 11005 bound_to 11000
  145.3925  141.0374  143.3116 LP  0  0  0  0  0  0  0  0  0  0  0  0  # atno 17320 bound_to 7965
  144.8405  139.5479  143.6902 LP  0  0  0  0  0  0  0  0  0  0  0  0  # atno 17321 bound_to 7965
  140.6909  143.2375  151.5133 LP  0  0  0  0  0  0  0  0  0  0  0  0  # atno 17342 bound_to 10162
  139.5603  144.2172  152.1681 LP  0  0  0  0  0  0  0  0  0  0  0  0  # atno 17343 bound_to 10162
  157.0960  130.5962  149.5450 LP  0  0  0  0  0  0  0  0  0  0  0  0  # atno 17370 bound_to 10713
  155.9961  130.5029  150.7483 LP  0  0  0  0  0  0  0  0  0  0  0  0  # atno 17371 bound_to 10713
  140.9530  134.1754  157.4713 LP  0  0  0  0  0  0  0  0  0  0  0  0  # atno 17394 bound_to 11000
  139.8749  134.9916  156.5558 LP  0  0  0  0  0  0  0  0  0  0  0  0  # atno 17395 bound_to 11000

$$$$
