AV-unprocessed.smi:48|AV-procd|sdf|449|dock4
  -GOLD-   2262016313D 1   1.00000     0.00000
 Structure written by MMmdl.
 30 32  0  0  0  0  0  0  0  0  1 V2000
  145.2498  141.3688  154.7611 O   0  0  0  0  0  0  0  0  0  0  0  0
  146.1994  142.4109  154.6933 C   0  0  0  0  0  0  0  0  0  0  0  0
  147.6006  141.8629  155.0018 C   0  0  1  0  0  0  0  0  0  0  0  0
  147.5984  141.2208  156.2725 O   0  0  0  0  0  0  0  0  0  0  0  0
  148.6747  140.3344  156.3559 C   0  0  2  0  0  0  0  0  0  0  0  0
  149.7521  140.9750  157.1794 N   0  0  0  0  0  0  0  0  0  0  0  0
  149.8216  142.2297  157.6747 C   0  0  0  0  0  0  0  0  0  0  0  0
  150.9016  142.5474  158.3888 N   0  0  0  0  0  0  0  0  0  0  0  0
  151.6148  141.3607  158.3550 C   0  0  0  0  0  0  0  0  0  0  0  0
  152.8608  140.9702  158.9027 C   0  0  0  0  0  0  0  0  0  0  0  0
  153.8109  142.0743  159.8280 Cl  0  0  0  0  0  0  0  0  0  0  0  0
  153.2931  139.7052  158.6828 N   0  0  0  0  0  0  0  0  0  0  0  0
  152.5365  138.8689  157.9608 C   0  0  0  0  0  0  0  0  0  0  0  0
  151.3496  139.0930  157.3844 N   0  0  0  0  0  0  0  0  0  0  0  0
  150.9176  140.3687  157.6101 C   0  0  0  0  0  0  0  0  0  0  0  0
  149.1289  140.0337  154.9068 C   0  0  2  0  0  0  0  0  0  0  0  0
  150.4204  140.5336  154.5918 O   0  0  0  0  0  0  0  0  0  0  0  0
  148.0288  140.7117  154.0921 C   0  0  2  0  0  0  0  0  0  0  0  0
  148.4542  141.1456  152.8136 O   0  0  0  0  0  0  0  0  0  0  0  0
  148.3518  142.6547  154.9775 H   0  0  0  0  0  0  0  0  0  0  0  0
  148.3882  139.4467  156.9208 H   0  0  0  0  0  0  0  0  0  0  0  0
  149.1288  138.9556  154.7431 H   0  0  0  0  0  0  0  0  0  0  0  0
  147.1964  140.0170  153.9699 H   0  0  0  0  0  0  0  0  0  0  0  0
  144.7681  141.3482  153.9482 H   0  0  0  0  0  0  0  0  0  0  0  0
  146.1669  142.8932  153.7161 H   0  0  0  0  0  0  0  0  0  0  0  0
  145.9173  143.1594  155.4342 H   0  0  0  0  0  0  0  0  0  0  0  0
  149.0378  142.9533  157.5065 H   0  0  0  0  0  0  0  0  0  0  0  0
  152.9402  137.8765  157.8241 H   0  0  0  0  0  0  0  0  0  0  0  0
  150.6880  141.1257  155.2779 H   0  0  0  0  0  0  0  0  0  0  0  0
  148.7261  140.3899  152.3158 H   0  0  0  0  0  0  0  0  0  0  0  0
  1  2  1  0  0  0  0
  1 24  1  0  0  0  0
  2  3  1  0  0  0  0
  2 25  1  0  0  0  0
  2 26  1  0  0  0  0
  3 20  1  0  0  0  0
  3 18  1  0  0  0  0
  3  4  1  0  0  0  0
  4  5  1  0  0  0  0
  5 21  1  0  0  0  0
  5  6  1  0  0  0  0
  5 16  1  0  0  0  0
  6 15  1  0  0  0  0
  6  7  1  0  0  0  0
  7  8  2  0  0  0  0
  7 27  1  0  0  0  0
  8  9  1  0  0  0  0
  9 15  2  0  0  0  0
  9 10  1  0  0  0  0
 10 11  1  0  0  0  0
 10 12  2  0  0  0  0
 12 13  1  0  0  0  0
 13 14  2  0  0  0  0
 13 28  1  0  0  0  0
 14 15  1  0  0  0  0
 16 22  1  0  0  0  0
 16 17  1  0  0  0  0
 16 18  1  0  0  0  0
 17 29  1  0  0  0  0
 18 23  1  0  0  0  0
 18 19  1  0  0  0  0
 19 30  1  0  0  0  0
M  END
> <s_m_source_file>
AV-unprocessed.smi

> <i_m_source_file_index>
48

> <i_lp_mmshare_version>
43012

> <i_f3d_flags>
0

> <s_epik_input>
W09IXVtDSDJdW0NASF0xT1tDQEhdKFtDQEhdKFtPSF0pW0NAQEhdMVtPSF0pbihbY0hdbjIpYyhjMjMpbltjSF1uYzNDbA==

> <s_epik_cmdline>
J2VwaWtfcHl0aG9uJywgJy1waCcsICc3LjAnLCAnLXRuJywgJzgnLCAnLW1hJywgJzIwMCcsICctbWV0YWxfYmluZGluZycsICctaW1hZScsICc8aW5maWxlLm1hZT4nLCAnLW9tYWUnLCAnPG91dGZpbGUubWFlPic=

> <r_lp_tautomer_probability>
1

> <r_epik_Ionization_Penalty>
3.45505e-06

> <r_epik_Ionization_Penalty_Charging>
0

> <r_epik_Ionization_Penalty_Neutral>
3.45505e-06

> <r_epik_State_Penalty>
-0

> <r_epik_Charging_Adjusted_Penalty>
0

> <i_epik_Tot_Q>
0

> <i_epik_Tot_abs_Q>
0

> <r_epik_Metal_State_Penalty>
-0

> <b_epik_Metal_Only>
0

> <s_epik_Chemistry_Notes>
This compound contains an acetal/aminal-like group ( X-CH(R)-Y where X, Y are N, S, or O) that may be acid/base labile, releasing an aldehyde.

> <s_lp_Force_Field>
OPLS_2005

> <r_lp_Energy>
41.4935

> <b_lp_Chiralities_Consistent>
1

> <s_lp_Variant>
AV-unprocessed.smi:48-3

> <Gold.Version>
5.8.1

> <Gold.Id.Protein>
6NUR|6NUR_protein|mol2

> <Gold.PLP.Fitness>
41.2727

> <Gold.PLP.PLP>
-25.4003

> <Gold.PLP.part.hbond>
-4.1866

> <Gold.PLP.part.metal>
0.0000

> <Gold.PLP.part.buried>
-1.9668

> <Gold.PLP.part.nonpolar>
-18.9640

> <Gold.PLP.part.repulsive>
0.1394

> <Gold.PLP.ligand.clash>
0.0000

> <Gold.PLP.ligand.torsion>
0.1263

> <Gold.PLP.Chemscore.Hbond>
4.3708

> <Gold.PLP.Chemscore.CHOScore>
0.9789

> <Gold.PLP.Chemscore.Metal>
0.0000

> <Gold.Chemscore.Hbonds>
donor molecule, donor type, donor heavy atom, donor atom, acceptor molecule, acceptor atom, score
      L1  H     1    24       P1 10175  1.00
      L1  H    19    30       P1  7957  0.70
      P1  H  7989  7998       L1    17  0.88
      P1  H  7997  8008       L1    12  0.63
      P1  H  8011  8017       L1    19  0.96
      L1  C     7    27       P1  8028  0.93

> <Gold.PLP.Chemscore.Internal.Correction>
0.0757

> <Gold.Rescore>
     Score         DG    S(hbond)    S(metal)    S(lipo)     H(rot)  DE(clash)    DE(int)     intcor
     10.01     -10.33       2.74        0.00      46.46       3.80       0.09       0.24       ----

> <Gold.Chemscore.Fitness>
10.0108

> <Gold.Chemscore.DG>
-10.3333

> <Gold.Chemscore.ZeroCoef>
-5.4800

> <Gold.Chemscore.Hbond>
2.7394

> <Gold.Chemscore.Metal>
0.0000

> <Gold.Chemscore.Lipo>
46.4630

> <Gold.Chemscore.Internal_Hbond>
0.0000

> <Gold.Chemscore.DEClash>
0.0871

> <Gold.Chemscore.DEInternal>
0.2355

> <Gold.Chemscore.Rot>
3.8017

> <Gold.Chemscore.Internal.Correction>
   9.000000E+99

> <Gold.Chemscore.Hbonds>
donor molecule, donor type, donor heavy atom, donor atom, acceptor molecule, acceptor atom, score
      L1  H     1    24       P1 10175  0.42
      L1  H    19    30       P1  7957  0.68
      P1  H  7989  7998       L1    17  0.16
      P1  H  7997  8008       L1    12  0.04
      P1  H  8011  8017       L1    19  0.28

> <Gold.Chemscore.Hbond.Weighted>
-9.1495

> <Gold.Chemscore.Metal.Weighted>
-0.0000

> <Gold.Chemscore.Lipo.Weighted>
-5.4362

> <Gold.Chemscore.Internal_Hbond.Weighted>
0.0000

> <Gold.Chemscore.DEClash.Weighted>
0.0871

> <Gold.Chemscore.DEInternal.Weighted>
0.2355

> <Gold.Chemscore.Rot.Weighted>
9.7324

> <Gold.Chemscore.Internal.Correction.Weighted>
   9.000000E+99

> <Gold.Protein.RotatedTorsions>
[ 6907 6896 6895 6894 ] final -166.37 input  -60.11 | X-H torsion
[ 7974 7965 7964 7962 ] final  -14.60 input  175.53 | X-H torsion
[ 8008 7997 7996 7995 ] final -105.96 input   59.86 | X-H torsion
[ 10167 10162 10161 10158 ] final  113.55 input  -65.29 | X-H torsion
[ 10718 10713 10712 10709 ] final   28.89 input   66.30 | X-H torsion
[ 10763 10752 10751 10750 ] final  169.52 input  -60.55 | X-H torsion
[ 11005 11000 10999 10996 ] final -102.95 input  -57.11 | X-H torsion

> <Gold.Protein.ActiveResidues>
 VAL166  LYS551  ARG553  GLY616  TRP617  ASP618  TYR619  PRO620  LYS621  CYS622 
 ASP623  PHE694  ASN695  SER759  ASP760  ASP761  ALA762  ILE779  LEU786  VAL792 
 PHE793  MET794  SER795  GLU796  ALA797  LYS798  CYS799  TRP800  GLU811  SER814 

> <Gold.Protein.RotatedAtoms>
  151.4426  133.3639  159.2783 H   0  0  0  0  0  0  0  0  0  0  0  0  # atno 6907 bound_to 6896
  150.9147  134.8566  159.7459 H   0  0  0  0  0  0  0  0  0  0  0  0  # atno 6908 bound_to 6896
  152.4951  134.4359  159.9579 H   0  0  0  0  0  0  0  0  0  0  0  0  # atno 6909 bound_to 6896
  146.2067  140.3372  142.8404 H   0  0  0  0  0  0  0  0  0  0  0  0  # atno 7974 bound_to 7965
  154.9075  140.0411  157.1927 H   0  0  0  0  0  0  0  0  0  0  0  0  # atno 8008 bound_to 7997
  154.8382  140.2910  155.5656 H   0  0  0  0  0  0  0  0  0  0  0  0  # atno 8009 bound_to 7997
  156.2991  140.2488  156.3319 H   0  0  0  0  0  0  0  0  0  0  0  0  # atno 8010 bound_to 7997
  139.6453  144.7126  151.2154 H   0  0  0  0  0  0  0  0  0  0  0  0  # atno 10167 bound_to 10162
  157.2393  130.7061  149.6351 H   0  0  0  0  0  0  0  0  0  0  0  0  # atno 10718 bound_to 10713
  154.3844  135.2753  155.2192 H   0  0  0  0  0  0  0  0  0  0  0  0  # atno 10763 bound_to 10752
  154.4285  135.5983  153.6057 H   0  0  0  0  0  0  0  0  0  0  0  0  # atno 10764 bound_to 10752
  152.9833  135.5990  154.4091 H   0  0  0  0  0  0  0  0  0  0  0  0  # atno 10765 bound_to 10752
  141.1167  133.8600  157.1425 H   0  0  0  0  0  0  0  0  0  0  0  0  # atno 11005 bound_to 11000
  144.8811  140.7401  143.5986 LP  0  0  0  0  0  0  0  0  0  0  0  0  # atno 17320 bound_to 7965
  145.3292  139.1764  143.4546 LP  0  0  0  0  0  0  0  0  0  0  0  0  # atno 17321 bound_to 7965
  140.7511  143.6241  150.8485 LP  0  0  0  0  0  0  0  0  0  0  0  0  # atno 17342 bound_to 10162
  139.9883  143.5875  152.2919 LP  0  0  0  0  0  0  0  0  0  0  0  0  # atno 17343 bound_to 10162
  155.9671  130.4463  150.5536 LP  0  0  0  0  0  0  0  0  0  0  0  0  # atno 17370 bound_to 10713
  157.3395  131.0714  151.1799 LP  0  0  0  0  0  0  0  0  0  0  0  0  # atno 17371 bound_to 10713
  140.0094  134.9994  157.0363 LP  0  0  0  0  0  0  0  0  0  0  0  0  # atno 17394 bound_to 11000
  140.4626  134.1469  155.7193 LP  0  0  0  0  0  0  0  0  0  0  0  0  # atno 17395 bound_to 11000

$$$$
