AV-unprocessed.smi:1382|AV-procd|sdf|5620|dock10
  -GOLD-   22720 5233D 1   1.00000     0.00000
 Structure written by MMmdl.
 44 45  0  0  0  0  0  0  0  0  1 V2000
  150.6763  141.3419  155.8760 C   0  0  0  0  0  0  0  0  0  0  0  0
  149.6488  140.7114  154.9267 C   0  0  0  0  0  0  0  0  0  0  0  0
  148.5805  141.6979  154.4302 C   0  0  0  0  0  0  0  0  0  0  0  0
  147.5509  141.0620  153.4777 C   0  0  0  0  0  0  0  0  0  0  0  0
  146.8281  139.9681  154.0960 N   0  0  0  0  0  0  0  0  0  0  0  0
  146.9378  138.6372  153.6820 C   0  0  0  0  0  0  0  0  0  0  0  0
  147.7973  138.3507  152.6311 N   0  0  0  0  0  0  0  0  0  0  0  0
  146.2316  137.6361  154.2876 C   0  0  0  0  0  0  0  0  0  0  0  0
  146.3107  136.3048  153.8399 N   0  0  0  0  0  0  0  0  0  0  0  0
  147.2906  135.4369  154.4993 C   0  0  0  0  0  0  0  0  0  0  0  0
  145.5038  135.7984  152.8721 C   0  0  0  0  0  0  0  0  0  0  0  0
  144.5964  136.4667  152.3729 O   0  0  0  0  0  0  0  0  0  0  0  0
  145.7275  134.3599  152.3555 C   0  0  2  0  0  0  0  0  0  0  0  0
  145.9282  134.2613  150.8306 C   0  0  0  0  0  0  0  0  0  0  0  0
  144.6198  133.6819  150.3342 C   0  0  0  0  0  0  0  0  0  0  0  0
  144.2084  132.8110  151.5117 C   0  0  0  0  0  0  0  0  0  0  0  0
  144.5514  133.6025  152.6385 O   0  0  0  0  0  0  0  0  0  0  0  0
  145.2889  137.9385  155.3736 C   0  0  0  0  0  0  0  0  0  0  0  0
  144.5812  137.1210  155.9603 O   0  0  0  0  0  0  0  0  0  0  0  0
  145.2117  139.2840  155.7242 N   0  0  0  0  0  0  0  0  0  0  0  0
  145.9310  140.3171  155.1343 C   0  0  0  0  0  0  0  0  0  0  0  0
  145.7563  141.4723  155.5234 O   0  0  0  0  0  0  0  0  0  0  0  0
  144.5697  139.5318  156.4631 H   0  0  0  0  0  0  0  0  0  0  0  0
  151.3720  140.5883  156.2461 H   0  0  0  0  0  0  0  0  0  0  0  0
  150.1887  141.7947  156.7398 H   0  0  0  0  0  0  0  0  0  0  0  0
  151.2640  142.1128  155.3779 H   0  0  0  0  0  0  0  0  0  0  0  0
  150.1600  140.2597  154.0760 H   0  0  0  0  0  0  0  0  0  0  0  0
  149.1525  139.8934  155.4499 H   0  0  0  0  0  0  0  0  0  0  0  0
  148.0584  142.1056  155.2966 H   0  0  0  0  0  0  0  0  0  0  0  0
  149.0641  142.5460  153.9439 H   0  0  0  0  0  0  0  0  0  0  0  0
  146.8046  141.7816  153.1441 H   0  0  0  0  0  0  0  0  0  0  0  0
  148.0130  140.6923  152.5607 H   0  0  0  0  0  0  0  0  0  0  0  0
  148.3333  139.0724  152.1703 H   0  0  0  0  0  0  0  0  0  0  0  0
  147.9393  137.4072  152.3001 H   0  0  0  0  0  0  0  0  0  0  0  0
  146.7951  134.6063  155.0036 H   0  0  0  0  0  0  0  0  0  0  0  0
  147.8725  135.9785  155.2463 H   0  0  0  0  0  0  0  0  0  0  0  0
  147.9948  135.0283  153.7732 H   0  0  0  0  0  0  0  0  0  0  0  0
  146.5846  133.8892  152.8371 H   0  0  0  0  0  0  0  0  0  0  0  0
  146.1737  135.2062  150.3438 H   0  0  0  0  0  0  0  0  0  0  0  0
  146.7428  133.5689  150.6143 H   0  0  0  0  0  0  0  0  0  0  0  0
  143.8888  134.4770  150.1818 H   0  0  0  0  0  0  0  0  0  0  0  0
  144.7224  133.1243  149.4032 H   0  0  0  0  0  0  0  0  0  0  0  0
  143.1473  132.5615  151.5036 H   0  0  0  0  0  0  0  0  0  0  0  0
  144.7828  131.8835  151.5296 H   0  0  0  0  0  0  0  0  0  0  0  0
  1  2  1  0  0  0  0
  1 24  1  0  0  0  0
  1 25  1  0  0  0  0
  1 26  1  0  0  0  0
  2  3  1  0  0  0  0
  2 27  1  0  0  0  0
  2 28  1  0  0  0  0
  3  4  1  0  0  0  0
  3 29  1  0  0  0  0
  3 30  1  0  0  0  0
  4  5  1  0  0  0  0
  4 31  1  0  0  0  0
  4 32  1  0  0  0  0
  5 21  1  0  0  0  0
  5  6  1  0  0  0  0
  6  7  1  0  0  0  0
  6  8  2  0  0  0  0
  7 33  1  0  0  0  0
  7 34  1  0  0  0  0
  8  9  1  0  0  0  0
  8 18  1  0  0  0  0
  9 10  1  0  0  0  0
  9 11  1  0  0  0  0
 10 35  1  0  0  0  0
 10 36  1  0  0  0  0
 10 37  1  0  0  0  0
 11 12  2  0  0  0  0
 11 13  1  0  0  0  0
 13 17  1  0  0  0  0
 13 14  1  0  0  0  0
 13 38  1  0  0  0  0
 14 15  1  0  0  0  0
 14 39  1  0  0  0  0
 14 40  1  0  0  0  0
 15 16  1  0  0  0  0
 15 41  1  0  0  0  0
 15 42  1  0  0  0  0
 16 17  1  0  0  0  0
 16 43  1  0  0  0  0
 16 44  1  0  0  0  0
 18 19  2  0  0  0  0
 18 20  1  0  0  0  0
 20 23  1  0  0  0  0
 20 21  1  0  0  0  0
 21 22  2  0  0  0  0
M  END
> <s_m_source_file>
AV-unprocessed.smi

> <i_m_source_file_index>
1382

> <i_lp_mmshare_version>
43012

> <i_f3d_flags>
0

> <s_epik_input>
W0NIM11bQ0gyXVtDSDJdW0NIMl1uMWMoW05IMl0pYyhjKD1PKVtuSF1jMT1PKU4oW0NIM10pQyg9TylbQ0BASF0yW0NIMl1bQ0gyXVtDSDJdTzI=

> <s_epik_cmdline>
J2VwaWtfcHl0aG9uJywgJy1waCcsICc3LjAnLCAnLXRuJywgJzgnLCAnLW1hJywgJzIwMCcsICctbWV0YWxfYmluZGluZycsICctaW1hZScsICc8aW5maWxlLm1hZT4nLCAnLW9tYWUnLCAnPG91dGZpbGUubWFlPic=

> <r_lp_tautomer_probability>
1

> <r_epik_Ionization_Penalty>
1.19634e-05

> <r_epik_Ionization_Penalty_Charging>
6.01811e-06

> <r_epik_Ionization_Penalty_Neutral>
5.94533e-06

> <r_epik_State_Penalty>
-0

> <r_epik_Charging_Adjusted_Penalty>
6.01811e-06

> <i_epik_Tot_Q>
0

> <i_epik_Tot_abs_Q>
0

> <r_epik_Metal_State_Penalty>
-0

> <b_epik_Metal_Only>
0

> <s_epik_Chemistry_Notes>
This compound has an imine and may undergo hydrolysis.

> <s_lp_Force_Field>
OPLS_2005

> <r_lp_Energy>
42.2822

> <b_lp_Chiralities_Consistent>
1

> <s_lp_Variant>
AV-unprocessed.smi:1382-1

> <Gold.Version>
5.8.1

> <Gold.Id.Protein>
6NUR|6NUR_protein|mol2

> <Gold.PLP.Fitness>
32.5987

> <Gold.PLP.PLP>
-27.5355

> <Gold.PLP.part.hbond>
-1.9363

> <Gold.PLP.part.metal>
0.0000

> <Gold.PLP.part.buried>
-2.5381

> <Gold.PLP.part.nonpolar>
-21.9926

> <Gold.PLP.part.repulsive>
0.4477

> <Gold.PLP.ligand.clash>
0.0000

> <Gold.PLP.ligand.torsion>
1.5971

> <Gold.PLP.Chemscore.Hbond>
1.9920

> <Gold.PLP.Chemscore.CHOScore>
0.0000

> <Gold.PLP.Chemscore.Metal>
0.0000

> <Gold.Chemscore.Hbonds>
donor molecule, donor type, donor heavy atom, donor atom, acceptor molecule, acceptor atom, score
      L1  H     7    33       P1  7957  1.00
      L1  H     7    34       P1  7948  0.98

> <Gold.PLP.Chemscore.Internal.Correction>
2.2813

> <Gold.Rescore>
     Score         DG    S(hbond)    S(metal)    S(lipo)     H(rot)  DE(clash)    DE(int)     intcor
     12.84     -14.54       1.96        0.00      58.50       1.69       0.02       1.68       ----

> <Gold.Chemscore.Fitness>
12.8357

> <Gold.Chemscore.DG>
-14.5395

> <Gold.Chemscore.ZeroCoef>
-5.4800

> <Gold.Chemscore.Hbond>
1.9618

> <Gold.Chemscore.Metal>
0.0000

> <Gold.Chemscore.Lipo>
58.4983

> <Gold.Chemscore.Internal_Hbond>
0.0000

> <Gold.Chemscore.DEClash>
0.0221

> <Gold.Chemscore.DEInternal>
1.6816

> <Gold.Chemscore.Rot>
1.6942

> <Gold.Chemscore.Internal.Correction>
   9.000000E+99

> <Gold.Chemscore.Hbonds>
donor molecule, donor type, donor heavy atom, donor atom, acceptor molecule, acceptor atom, score
      L1  H     7    33       P1  7957  0.99
      L1  H     7    34       P1  7948  0.92

> <Gold.Chemscore.Hbond.Weighted>
-6.5524

> <Gold.Chemscore.Metal.Weighted>
-0.0000

> <Gold.Chemscore.Lipo.Weighted>
-6.8443

> <Gold.Chemscore.Internal_Hbond.Weighted>
0.0000

> <Gold.Chemscore.DEClash.Weighted>
0.0221

> <Gold.Chemscore.DEInternal.Weighted>
1.6816

> <Gold.Chemscore.Rot.Weighted>
4.3372

> <Gold.Chemscore.Internal.Correction.Weighted>
   9.000000E+99

> <Gold.Protein.RotatedTorsions>
[ 6907 6896 6895 6894 ] final  172.97 input  -60.11 | X-H torsion
[ 7974 7965 7964 7962 ] final  -17.12 input  175.53 | X-H torsion
[ 8008 7997 7996 7995 ] final  -84.72 input   59.86 | X-H torsion
[ 10167 10162 10161 10158 ] final  129.37 input  -65.29 | X-H torsion
[ 10718 10713 10712 10709 ] final  -29.75 input   66.30 | X-H torsion
[ 10763 10752 10751 10750 ] final -118.61 input  -60.55 | X-H torsion
[ 11005 11000 10999 10996 ] final -159.78 input  -57.11 | X-H torsion

> <Gold.Protein.ActiveResidues>
 VAL166  LYS551  ARG553  GLY616  TRP617  ASP618  TYR619  PRO620  LYS621  CYS622 
 ASP623  PHE694  ASN695  SER759  ASP760  ASP761  ALA762  ILE779  LEU786  VAL792 
 PHE793  MET794  SER795  GLU796  ALA797  LYS798  CYS799  TRP800  GLU811  SER814 

> <Gold.Protein.RotatedAtoms>
  151.7758  133.3345  159.3457 H   0  0  0  0  0  0  0  0  0  0  0  0  # atno 6907 bound_to 6896
  150.7444  134.5976  159.6029 H   0  0  0  0  0  0  0  0  0  0  0  0  # atno 6908 bound_to 6896
  152.3310  134.7261  160.0341 H   0  0  0  0  0  0  0  0  0  0  0  0  # atno 6909 bound_to 6896
  146.1956  140.3733  142.8442 H   0  0  0  0  0  0  0  0  0  0  0  0  # atno 7974 bound_to 7965
  154.6329  140.0601  156.9753 H   0  0  0  0  0  0  0  0  0  0  0  0  # atno 8008 bound_to 7997
  155.1638  140.3285  155.4388 H   0  0  0  0  0  0  0  0  0  0  0  0  # atno 8009 bound_to 7997
  156.2492  140.1926  156.6743 H   0  0  0  0  0  0  0  0  0  0  0  0  # atno 8010 bound_to 7997
  139.5481  144.6790  151.4410 H   0  0  0  0  0  0  0  0  0  0  0  0  # atno 10167 bound_to 10162
  156.4084  130.4403  149.7270 H   0  0  0  0  0  0  0  0  0  0  0  0  # atno 10718 bound_to 10713
  154.8592  135.4268  154.2166 H   0  0  0  0  0  0  0  0  0  0  0  0  # atno 10763 bound_to 10752
  153.3180  135.6980  153.7062 H   0  0  0  0  0  0  0  0  0  0  0  0  # atno 10764 bound_to 10752
  153.6128  135.3516  155.2958 H   0  0  0  0  0  0  0  0  0  0  0  0  # atno 10765 bound_to 10752
  140.6388  134.4573  157.5232 H   0  0  0  0  0  0  0  0  0  0  0  0  # atno 11005 bound_to 11000
  144.8574  140.7090  143.6129 LP  0  0  0  0  0  0  0  0  0  0  0  0  # atno 17320 bound_to 7965
  145.3654  139.1671  143.4361 LP  0  0  0  0  0  0  0  0  0  0  0  0  # atno 17321 bound_to 7965
  140.6735  143.8241  150.7029 LP  0  0  0  0  0  0  0  0  0  0  0  0  # atno 17342 bound_to 10162
  140.1672  143.4225  152.2026 LP  0  0  0  0  0  0  0  0  0  0  0  0  # atno 17343 bound_to 10162
  156.4258  130.7791  151.2810 LP  0  0  0  0  0  0  0  0  0  0  0  0  # atno 17370 bound_to 10713
  157.7506  131.0169  150.3563 LP  0  0  0  0  0  0  0  0  0  0  0  0  # atno 17371 bound_to 10713
  139.9088  134.8390  156.1605 LP  0  0  0  0  0  0  0  0  0  0  0  0  # atno 17394 bound_to 11000
  141.0622  133.6836  156.1974 LP  0  0  0  0  0  0  0  0  0  0  0  0  # atno 17395 bound_to 11000

$$$$
