AV-unprocessed.smi:1794|AV-procd|sdf|7233|dock6
  -GOLD-   22720 8473D 1   1.00000     0.00000
 Structure written by MMmdl.
 55 57  0  0  0  0  0  0  0  0  2 V2000
  149.7798  134.1128  154.5410 C   0  0  0  0  0  0  0  0  0  0  0  0
  148.4797  133.3125  154.2744 C   0  0  0  0  0  0  0  0  0  0  0  0
  148.9201  132.0032  153.5728 C   0  0  0  0  0  0  0  0  0  0  0  0
  147.7623  132.9720  155.6160 C   0  0  0  0  0  0  0  0  0  0  0  0
  147.9401  133.9976  156.6437 N   0  0  0  0  0  0  0  0  0  0  0  0
  147.5739  133.8882  157.9290 C   0  0  0  0  0  0  0  0  0  0  0  0
  147.0579  132.8751  158.3982 O   0  0  0  0  0  0  0  0  0  0  0  0
  147.8391  135.0231  158.5987 N   0  0  0  0  0  0  0  0  0  0  0  0
  147.5701  135.3865  159.9529 C   0  0  0  0  0  0  0  0  0  0  0  0
  147.2106  134.4480  160.9542 C   0  0  0  0  0  0  0  0  0  0  0  0
  146.9180  134.8994  162.2528 C   0  0  0  0  0  0  0  0  0  0  0  0
  146.9880  136.2775  162.5110 C   0  0  0  0  0  0  0  0  0  0  0  0
  147.3313  137.1833  161.5748 N   0  0  0  0  0  0  0  0  0  0  0  0
  147.6297  136.7622  160.3214 C   0  0  0  0  0  0  0  0  0  0  0  0
  148.0052  137.7546  159.3873 N   0  0  0  0  0  0  0  0  0  0  0  0
  149.3977  137.8889  158.9702 C   0  0  0  0  0  0  0  0  0  0  0  0
  149.3493  138.7050  157.6816 C   0  0  0  0  0  0  0  0  0  0  0  0
  148.0581  138.2140  157.0352 C   0  0  0  0  0  0  0  0  0  0  0  0
  147.1367  137.9450  158.2293 C   0  0  0  0  0  0  0  0  0  0  0  0
  147.5838  134.1061  153.3575 N   0  3  0  0  0  0  0  0  0  0  0  0
  146.7016  133.3093  152.4582 C   0  0  0  0  0  0  0  0  0  0  0  0
  145.9885  134.2260  151.4502 C   0  0  0  0  0  0  0  0  0  0  0  0
  145.2372  135.2104  152.1456 O   0  0  0  0  0  0  0  0  0  0  0  0
  146.0706  136.0397  152.9425 C   0  0  0  0  0  0  0  0  0  0  0  0
  146.7873  135.1880  154.0036 C   0  0  0  0  0  0  0  0  0  0  0  0
  150.5455  133.4972  155.0142 H   0  0  0  0  0  0  0  0  0  0  0  0
  149.6163  134.9578  155.2094 H   0  0  0  0  0  0  0  0  0  0  0  0
  150.2097  134.4945  153.6142 H   0  0  0  0  0  0  0  0  0  0  0  0
  149.7188  131.5011  154.1201 H   0  0  0  0  0  0  0  0  0  0  0  0
  149.2965  132.1977  152.5678 H   0  0  0  0  0  0  0  0  0  0  0  0
  148.1086  131.2801  153.4948 H   0  0  0  0  0  0  0  0  0  0  0  0
  146.6986  132.7917  155.4579 H   0  0  0  0  0  0  0  0  0  0  0  0
  148.1597  132.0487  156.0359 H   0  0  0  0  0  0  0  0  0  0  0  0
  148.3602  134.8663  156.3467 H   0  0  0  0  0  0  0  0  0  0  0  0
  148.2757  135.7525  158.0541 H   0  0  0  0  0  0  0  0  0  0  0  0
  147.1412  133.3898  160.7666 H   0  0  0  0  0  0  0  0  0  0  0  0
  146.6391  134.2039  163.0305 H   0  0  0  0  0  0  0  0  0  0  0  0
  146.7639  136.6636  163.4944 H   0  0  0  0  0  0  0  0  0  0  0  0
  149.9947  138.3807  159.7385 H   0  0  0  0  0  0  0  0  0  0  0  0
  149.8421  136.9150  158.7622 H   0  0  0  0  0  0  0  0  0  0  0  0
  149.2700  139.7679  157.9138 H   0  0  0  0  0  0  0  0  0  0  0  0
  150.2268  138.5577  157.0515 H   0  0  0  0  0  0  0  0  0  0  0  0
  147.6368  138.9273  156.3264 H   0  0  0  0  0  0  0  0  0  0  0  0
  148.2484  137.2818  156.5018 H   0  0  0  0  0  0  0  0  0  0  0  0
  146.4927  137.0831  158.0492 H   0  0  0  0  0  0  0  0  0  0  0  0
  146.4992  138.8110  158.4085 H   0  0  0  0  0  0  0  0  0  0  0  0
  147.2665  132.5717  151.8919 H   0  0  0  0  0  0  0  0  0  0  0  0
  145.9568  132.7677  153.0413 H   0  0  0  0  0  0  0  0  0  0  0  0
  146.7066  134.7023  150.7803 H   0  0  0  0  0  0  0  0  0  0  0  0
  145.3112  133.6423  150.8263 H   0  0  0  0  0  0  0  0  0  0  0  0
  146.7901  136.5675  152.3141 H   0  0  0  0  0  0  0  0  0  0  0  0
  145.4540  136.7984  153.4249 H   0  0  0  0  0  0  0  0  0  0  0  0
  146.0470  134.7613  154.6805 H   0  0  0  0  0  0  0  0  0  0  0  0
  147.4155  135.8534  154.5922 H   0  0  0  0  0  0  0  0  0  0  0  0
  148.2213  134.5863  152.7385 H   0  0  0  0  0  0  0  0  0  0  0  0
  1  2  1  0  0  0  0
  1 26  1  0  0  0  0
  1 27  1  0  0  0  0
  1 28  1  0  0  0  0
  2  3  1  0  0  0  0
  2  4  1  0  0  0  0
  2 20  1  0  0  0  0
  3 29  1  0  0  0  0
  3 30  1  0  0  0  0
  3 31  1  0  0  0  0
  4  5  1  0  0  0  0
  4 32  1  0  0  0  0
  4 33  1  0  0  0  0
  5  6  1  0  0  0  0
  5 34  1  0  0  0  0
  6  7  2  0  0  0  0
  6  8  1  0  0  0  0
  8  9  1  0  0  0  0
  8 35  1  0  0  0  0
  9 14  1  0  0  0  0
  9 10  2  0  0  0  0
 10 11  1  0  0  0  0
 10 36  1  0  0  0  0
 11 12  2  0  0  0  0
 11 37  1  0  0  0  0
 12 13  1  0  0  0  0
 12 38  1  0  0  0  0
 13 14  2  0  0  0  0
 14 15  1  0  0  0  0
 15 19  1  0  0  0  0
 15 16  1  0  0  0  0
 16 17  1  0  0  0  0
 16 39  1  0  0  0  0
 16 40  1  0  0  0  0
 17 18  1  0  0  0  0
 17 41  1  0  0  0  0
 17 42  1  0  0  0  0
 18 19  1  0  0  0  0
 18 43  1  0  0  0  0
 18 44  1  0  0  0  0
 19 45  1  0  0  0  0
 19 46  1  0  0  0  0
 20 25  1  0  0  0  0
 20 21  1  0  0  0  0
 20 55  1  0  0  0  0
 21 22  1  0  0  0  0
 21 47  1  0  0  0  0
 21 48  1  0  0  0  0
 22 23  1  0  0  0  0
 22 49  1  0  0  0  0
 22 50  1  0  0  0  0
 23 24  1  0  0  0  0
 24 25  1  0  0  0  0
 24 51  1  0  0  0  0
 24 52  1  0  0  0  0
 25 53  1  0  0  0  0
 25 54  1  0  0  0  0
M  CHG  1  20   1
M  END
> <s_m_source_file>
AV-unprocessed.smi

> <i_m_source_file_index>
1794

> <i_lp_mmshare_version>
43012

> <i_f3d_flags>
0

> <s_epik_input>
W0NIMl0xW0NIMl1PW0NIMl1bQ0gyXU4xQyhbQ0gzXSkoW0NIM10pW0NIMl1bTkhdQyg9TylbTkhdYzJbY0hdW2NIXVtjSF1uYzJOM1tDSDJdW0NIMl1bQ0gyXVtDSDJdMw==

> <s_epik_cmdline>
J2VwaWtfcHl0aG9uJywgJy1waCcsICc3LjAnLCAnLXRuJywgJzgnLCAnLW1hJywgJzIwMCcsICctbWV0YWxfYmluZGluZycsICctaW1hZScsICc8aW5maWxlLm1hZT4nLCAnLW9tYWUnLCAnPG91dGZpbGUubWFlPic=

> <r_lp_tautomer_probability>
1

> <r_epik_Ionization_Penalty>
0.687101

> <r_epik_Ionization_Penalty_Charging>
0.602531

> <r_epik_Ionization_Penalty_Neutral>
0.0845706

> <r_epik_State_Penalty>
0.681137

> <r_epik_Charging_Adjusted_Penalty>
1.28367

> <i_epik_Tot_Q>
1

> <i_epik_Tot_abs_Q>
1

> <r_epik_Metal_State_Penalty>
0.680055

> <b_epik_Metal_Only>
0

> <s_lp_Force_Field>
OPLS_2005

> <r_lp_Energy>
53.5269

> <b_lp_Chiralities_Consistent>
1

> <s_lp_Variant>
AV-unprocessed.smi:1794-2

> <Gold.Version>
5.8.1

> <Gold.Id.Protein>
6NUR|6NUR_protein|mol2

> <Gold.PLP.Fitness>
41.8687

> <Gold.PLP.PLP>
-34.7457

> <Gold.PLP.part.hbond>
-4.3938

> <Gold.PLP.part.metal>
0.0000

> <Gold.PLP.part.buried>
-4.8447

> <Gold.PLP.part.nonpolar>
-26.4139

> <Gold.PLP.part.repulsive>
0.1695

> <Gold.PLP.ligand.clash>
0.0000

> <Gold.PLP.ligand.torsion>
1.5416

> <Gold.PLP.Chemscore.Hbond>
3.2655

> <Gold.PLP.Chemscore.CHOScore>
0.0000

> <Gold.PLP.Chemscore.Metal>
0.0000

> <Gold.Chemscore.Hbonds>
donor molecule, donor type, donor heavy atom, donor atom, acceptor molecule, acceptor atom, score
      L1  H    20    55       P1  7948  2.00
      P1  H  6931  6943       L1    13  0.80
      P1  H  6934  6947       L1    13  0.49

> <Gold.PLP.Chemscore.Internal.Correction>
0.4097

> <Gold.Rescore>
     Score         DG    S(hbond)    S(metal)    S(lipo)     H(rot)  DE(clash)    DE(int)     intcor
     12.99     -15.55       1.84        0.00      68.70       1.60       0.01       2.55       ----

> <Gold.Chemscore.Fitness>
12.9930

> <Gold.Chemscore.DG>
-15.5452

> <Gold.Chemscore.ZeroCoef>
-5.4800

> <Gold.Chemscore.Hbond>
1.8367

> <Gold.Chemscore.Metal>
0.0000

> <Gold.Chemscore.Lipo>
68.6991

> <Gold.Chemscore.Internal_Hbond>
0.0000

> <Gold.Chemscore.DEClash>
0.0064

> <Gold.Chemscore.DEInternal>
2.5458

> <Gold.Chemscore.Rot>
1.6044

> <Gold.Chemscore.Internal.Correction>
   9.000000E+99

> <Gold.Chemscore.Hbonds>
donor molecule, donor type, donor heavy atom, donor atom, acceptor molecule, acceptor atom, score
      L1  H    20    55       P1  7948  0.43
      P1  H  6931  6943       L1    13  0.14
      P1  H  6934  6947       L1    13  0.03

> <Gold.Chemscore.Hbond.Weighted>
-6.1346

> <Gold.Chemscore.Metal.Weighted>
-0.0000

> <Gold.Chemscore.Lipo.Weighted>
-8.0378

> <Gold.Chemscore.Internal_Hbond.Weighted>
0.0000

> <Gold.Chemscore.DEClash.Weighted>
0.0064

> <Gold.Chemscore.DEInternal.Weighted>
2.5458

> <Gold.Chemscore.Rot.Weighted>
4.1072

> <Gold.Chemscore.Internal.Correction.Weighted>
   9.000000E+99

> <Gold.Protein.RotatedTorsions>
[ 6907 6896 6895 6894 ] final  -89.46 input  -60.11 | X-H torsion
[ 7974 7965 7964 7962 ] final   45.55 input  175.53 | X-H torsion
[ 8008 7997 7996 7995 ] final  151.70 input   59.86 | X-H torsion
[ 10167 10162 10161 10158 ] final  -62.94 input  -65.29 | X-H torsion
[ 10718 10713 10712 10709 ] final  -85.37 input   66.30 | X-H torsion
[ 10763 10752 10751 10750 ] final -126.36 input  -60.55 | X-H torsion
[ 11005 11000 10999 10996 ] final  156.83 input  -57.11 | X-H torsion

> <Gold.Protein.ActiveResidues>
 VAL166  LYS551  ARG553  GLY616  TRP617  ASP618  TYR619  PRO620  LYS621  CYS622 
 ASP623  PHE694  ASN695  SER759  ASP760  ASP761  ALA762  ILE779  LEU786  VAL792 
 PHE793  MET794  SER795  GLU796  ALA797  LYS798  CYS799  TRP800  GLU811  SER814 

> <Gold.Protein.RotatedAtoms>
  150.6874  134.2583  159.4538 H   0  0  0  0  0  0  0  0  0  0  0  0  # atno 6907 bound_to 6896
  152.0516  134.9648  160.0584 H   0  0  0  0  0  0  0  0  0  0  0  0  # atno 6908 bound_to 6896
  152.1110  133.4266  159.4668 H   0  0  0  0  0  0  0  0  0  0  0  0  # atno 6909 bound_to 6896
  146.0470  139.4952  142.9742 H   0  0  0  0  0  0  0  0  0  0  0  0  # atno 7974 bound_to 7965
  156.2662  140.2040  156.6218 H   0  0  0  0  0  0  0  0  0  0  0  0  # atno 8008 bound_to 7997
  154.6751  140.0546  157.0231 H   0  0  0  0  0  0  0  0  0  0  0  0  # atno 8009 bound_to 7997
  155.1081  140.3212  155.4532 H   0  0  0  0  0  0  0  0  0  0  0  0  # atno 8010 bound_to 7997
  140.5905  143.2341  151.6150 H   0  0  0  0  0  0  0  0  0  0  0  0  # atno 10167 bound_to 10162
  155.9997  130.4729  150.4552 H   0  0  0  0  0  0  0  0  0  0  0  0  # atno 10718 bound_to 10713
  154.8745  135.3998  154.3419 H   0  0  0  0  0  0  0  0  0  0  0  0  # atno 10763 bound_to 10752
  153.4217  135.7023  153.6295 H   0  0  0  0  0  0  0  0  0  0  0  0  # atno 10764 bound_to 10752
  153.4954  135.3739  155.2483 H   0  0  0  0  0  0  0  0  0  0  0  0  # atno 10765 bound_to 10752
  140.1712  134.8541  157.2693 H   0  0  0  0  0  0  0  0  0  0  0  0  # atno 11005 bound_to 11000
  145.6788  141.0196  143.1617 LP  0  0  0  0  0  0  0  0  0  0  0  0  # atno 17320 bound_to 7965
  144.7103  139.8397  143.7417 LP  0  0  0  0  0  0  0  0  0  0  0  0  # atno 17321 bound_to 7965
  139.5224  144.3163  152.0949 LP  0  0  0  0  0  0  0  0  0  0  0  0  # atno 17342 bound_to 10162
  140.2327  144.4352  150.6293 LP  0  0  0  0  0  0  0  0  0  0  0  0  # atno 17343 bound_to 10162
  157.2581  131.0561  151.2337 LP  0  0  0  0  0  0  0  0  0  0  0  0  # atno 17370 bound_to 10713
  157.3462  130.7058  149.6412 LP  0  0  0  0  0  0  0  0  0  0  0  0  # atno 17371 bound_to 10713
  140.2375  134.3835  155.7495 LP  0  0  0  0  0  0  0  0  0  0  0  0  # atno 17394 bound_to 11000
  141.2217  133.7247  156.8737 LP  0  0  0  0  0  0  0  0  0  0  0  0  # atno 17395 bound_to 11000

$$$$
