AV-unprocessed.smi:263|AV-procd|sdf|2004|dock8
  -GOLD-   2262021203D 1   1.00000     0.00000
 Structure written by MMmdl.
 57 61  0  0  0  0  0  0  0  0  1 V2000
  146.5922  132.3929  150.3626 O   0  0  0  0  0  0  0  0  0  0  0  0
  146.1066  132.7254  151.6515 C   0  0  0  0  0  0  0  0  0  0  0  0
  147.1501  132.2482  152.6922 C   0  0  0  0  0  0  0  0  0  0  0  0
  146.9822  132.8332  154.0133 N   0  0  0  0  0  0  0  0  0  0  0  0
  145.8123  132.9151  154.7345 C   0  0  0  0  0  0  0  0  0  0  0  0
  145.9174  133.4876  155.9023 N   0  0  0  0  0  0  0  0  0  0  0  0
  147.2590  133.8415  155.9878 C   0  0  0  0  0  0  0  0  0  0  0  0
  148.0514  134.4913  156.9758 C   0  0  0  0  0  0  0  0  0  0  0  0
  147.5344  134.9489  158.1441 N   0  0  0  0  0  0  0  0  0  0  0  0
  146.2451  135.6242  158.0133 C   0  0  0  0  0  0  0  0  0  0  0  0
  145.5372  135.7281  159.3751 C   0  0  0  0  0  0  0  0  0  0  0  0
  146.4397  136.3702  160.4556 C   0  0  1  0  0  0  0  0  0  0  0  0
  146.6335  137.7263  160.0951 O   0  0  0  0  0  0  0  0  0  0  0  0
  145.7697  136.3941  161.8498 C   0  0  0  0  0  0  0  0  0  0  0  0
  145.7090  135.0072  162.5104 C   0  0  0  0  0  0  0  0  0  0  0  0
  147.1043  134.3733  162.5859 C   0  0  0  0  0  0  0  0  0  0  0  0
  147.7464  134.2849  161.1942 C   0  0  0  0  0  0  0  0  0  0  0  0
  147.8254  135.6673  160.5085 C   0  0  1  0  0  0  0  0  0  0  0  0
  148.4573  135.5578  159.1040 C   0  0  0  0  0  0  0  0  0  0  0  0
  149.3754  134.6517  156.7088 N   0  0  0  0  0  0  0  0  0  0  0  0
  149.8885  134.2208  155.5526 C   0  0  0  0  0  0  0  0  0  0  0  0
  149.2689  133.6106  154.5406 N   0  0  0  0  0  0  0  0  0  0  0  0
  147.9432  133.4342  154.8075 C   0  0  0  0  0  0  0  0  0  0  0  0
  145.9362  134.2560  151.7290 C   0  0  0  0  0  0  0  0  0  0  0  0
  144.7893  134.7590  150.8347 C   0  0  0  0  0  0  0  0  0  0  0  0
  143.5818  134.0879  151.1724 O   0  0  0  0  0  0  0  0  0  0  0  0
  143.6508  132.6867  150.9387 C   0  0  0  0  0  0  0  0  0  0  0  0
  144.7290  132.0522  151.8354 C   0  0  0  0  0  0  0  0  0  0  0  0
  147.3586  131.8487  150.4603 H   0  0  0  0  0  0  0  0  0  0  0  0
  147.1198  131.1622  152.7914 H   0  0  0  0  0  0  0  0  0  0  0  0
  148.1559  132.4907  152.3466 H   0  0  0  0  0  0  0  0  0  0  0  0
  144.8728  132.5282  154.3671 H   0  0  0  0  0  0  0  0  0  0  0  0
  146.4136  136.6204  157.6023 H   0  0  0  0  0  0  0  0  0  0  0  0
  145.5926  135.1080  157.3100 H   0  0  0  0  0  0  0  0  0  0  0  0
  144.6113  136.2944  159.2666 H   0  0  0  0  0  0  0  0  0  0  0  0
  145.2398  134.7257  159.6816 H   0  0  0  0  0  0  0  0  0  0  0  0
  146.3941  137.8325  159.1871 H   0  0  0  0  0  0  0  0  0  0  0  0
  146.3300  137.0586  162.5095 H   0  0  0  0  0  0  0  0  0  0  0  0
  144.7660  136.8154  161.7808 H   0  0  0  0  0  0  0  0  0  0  0  0
  145.2896  135.0955  163.5130 H   0  0  0  0  0  0  0  0  0  0  0  0
  145.0354  134.3539  161.9557 H   0  0  0  0  0  0  0  0  0  0  0  0
  147.7404  134.9645  163.2461 H   0  0  0  0  0  0  0  0  0  0  0  0
  147.0373  133.3790  163.0281 H   0  0  0  0  0  0  0  0  0  0  0  0
  148.7464  133.8595  161.2833 H   0  0  0  0  0  0  0  0  0  0  0  0
  147.1764  133.5883  160.5783 H   0  0  0  0  0  0  0  0  0  0  0  0
  148.4929  136.2773  161.1196 H   0  0  0  0  0  0  0  0  0  0  0  0
  149.3788  134.9768  159.1626 H   0  0  0  0  0  0  0  0  0  0  0  0
  148.7325  136.5503  158.7444 H   0  0  0  0  0  0  0  0  0  0  0  0
  150.9463  134.3921  155.4182 H   0  0  0  0  0  0  0  0  0  0  0  0
  145.7172  134.5416  152.7589 H   0  0  0  0  0  0  0  0  0  0  0  0
  146.8666  134.7597  151.4637 H   0  0  0  0  0  0  0  0  0  0  0  0
  144.6465  135.8298  150.9803 H   0  0  0  0  0  0  0  0  0  0  0  0
  145.0192  134.6127  149.7782 H   0  0  0  0  0  0  0  0  0  0  0  0
  142.6784  132.2463  151.1590 H   0  0  0  0  0  0  0  0  0  0  0  0
  143.8516  132.4926  149.8841 H   0  0  0  0  0  0  0  0  0  0  0  0
  144.7881  130.9823  151.6314 H   0  0  0  0  0  0  0  0  0  0  0  0
  144.4172  132.1495  152.8760 H   0  0  0  0  0  0  0  0  0  0  0  0
  1  2  1  0  0  0  0
  1 29  1  0  0  0  0
  2 28  1  0  0  0  0
  2  3  1  0  0  0  0
  2 24  1  0  0  0  0
  3  4  1  0  0  0  0
  3 30  1  0  0  0  0
  3 31  1  0  0  0  0
  4 23  1  0  0  0  0
  4  5  1  0  0  0  0
  5  6  2  0  0  0  0
  5 32  1  0  0  0  0
  6  7  1  0  0  0  0
  7 23  2  0  0  0  0
  7  8  1  0  0  0  0
  8  9  1  0  0  0  0
  8 20  2  0  0  0  0
  9 19  1  0  0  0  0
  9 10  1  0  0  0  0
 10 11  1  0  0  0  0
 10 33  1  0  0  0  0
 10 34  1  0  0  0  0
 11 12  1  0  0  0  0
 11 35  1  0  0  0  0
 11 36  1  0  0  0  0
 12 18  1  0  0  0  0
 12 13  1  0  0  0  0
 12 14  1  0  0  0  0
 13 37  1  0  0  0  0
 14 15  1  0  0  0  0
 14 38  1  0  0  0  0
 14 39  1  0  0  0  0
 15 16  1  0  0  0  0
 15 40  1  0  0  0  0
 15 41  1  0  0  0  0
 16 17  1  0  0  0  0
 16 42  1  0  0  0  0
 16 43  1  0  0  0  0
 17 18  1  0  0  0  0
 17 44  1  0  0  0  0
 17 45  1  0  0  0  0
 18 19  1  0  0  0  0
 18 46  1  0  0  0  0
 19 47  1  0  0  0  0
 19 48  1  0  0  0  0
 20 21  1  0  0  0  0
 21 22  2  0  0  0  0
 21 49  1  0  0  0  0
 22 23  1  0  0  0  0
 24 25  1  0  0  0  0
 24 50  1  0  0  0  0
 24 51  1  0  0  0  0
 25 26  1  0  0  0  0
 25 52  1  0  0  0  0
 25 53  1  0  0  0  0
 26 27  1  0  0  0  0
 27 28  1  0  0  0  0
 27 54  1  0  0  0  0
 27 55  1  0  0  0  0
 28 56  1  0  0  0  0
 28 57  1  0  0  0  0
M  END
> <s_m_source_file>
AV-unprocessed.smi

> <i_m_source_file_index>
263

> <i_lp_mmshare_version>
43012

> <i_f3d_flags>
0

> <s_epik_input>
W0NIMl0xW0NIMl1PW0NIMl1bQ0gyXUMxKFtPSF0pW0NIMl1uKFtjSF1uMiljKGMyMyluW2NIXW5jM04oW0NIMl1bQ0gyXTQpW0NIMl1bQ0BASF0oW0NAXTQ1W09IXSlbQ0gyXVtDSDJdW0NIMl1bQ0gyXTU=

> <s_epik_cmdline>
J2VwaWtfcHl0aG9uJywgJy1waCcsICc3LjAnLCAnLXRuJywgJzgnLCAnLW1hJywgJzIwMCcsICctbWV0YWxfYmluZGluZycsICctaW1hZScsICc8aW5maWxlLm1hZT4nLCAnLW9tYWUnLCAnPG91dGZpbGUubWFlPic=

> <r_lp_tautomer_probability>
1

> <r_epik_Ionization_Penalty>
0.00747493

> <r_epik_Ionization_Penalty_Charging>
0

> <r_epik_Ionization_Penalty_Neutral>
0.00747493

> <r_epik_State_Penalty>
0.00549307

> <r_epik_Charging_Adjusted_Penalty>
0.00549307

> <i_epik_Tot_Q>
0

> <i_epik_Tot_abs_Q>
0

> <r_epik_Metal_State_Penalty>
-0

> <b_epik_Metal_Only>
0

> <s_lp_Force_Field>
OPLS_2005

> <r_lp_Energy>
40.0531

> <b_lp_Chiralities_Consistent>
1

> <s_lp_Variant>
AV-unprocessed.smi:263-2

> <Gold.Version>
5.8.1

> <Gold.Id.Protein>
6NUR|6NUR_protein|mol2

> <Gold.PLP.Fitness>
44.8939

> <Gold.PLP.PLP>
-36.5994

> <Gold.PLP.part.hbond>
-1.9151

> <Gold.PLP.part.metal>
0.0000

> <Gold.PLP.part.buried>
-7.2369

> <Gold.PLP.part.nonpolar>
-28.6055

> <Gold.PLP.part.repulsive>
0.3647

> <Gold.PLP.ligand.clash>
0.0000

> <Gold.PLP.ligand.torsion>
0.5296

> <Gold.PLP.Chemscore.Hbond>
2.0000

> <Gold.PLP.Chemscore.CHOScore>
0.9943

> <Gold.PLP.Chemscore.Metal>
0.0000

> <Gold.Chemscore.Hbonds>
donor molecule, donor type, donor heavy atom, donor atom, acceptor molecule, acceptor atom, score
      L1  H     1    29       P1 10747  1.00
      P1  H  6934  6947       L1    13  1.00
      L1  C     5    32       P1 10957  1.00

> <Gold.PLP.Chemscore.Internal.Correction>
0.3709

> <Gold.Rescore>
     Score         DG    S(hbond)    S(metal)    S(lipo)     H(rot)  DE(clash)    DE(int)     intcor
     14.23     -14.80       1.94        0.00      81.80       2.62       0.00       0.56       ----

> <Gold.Chemscore.Fitness>
14.2326

> <Gold.Chemscore.DG>
-14.7999

> <Gold.Chemscore.ZeroCoef>
-5.4800

> <Gold.Chemscore.Hbond>
1.9355

> <Gold.Chemscore.Metal>
0.0000

> <Gold.Chemscore.Lipo>
81.8025

> <Gold.Chemscore.Internal_Hbond>
0.0000

> <Gold.Chemscore.DEClash>
0.0048

> <Gold.Chemscore.DEInternal>
0.5625

> <Gold.Chemscore.Rot>
2.6232

> <Gold.Chemscore.Internal.Correction>
   9.000000E+99

> <Gold.Chemscore.Hbonds>
donor molecule, donor type, donor heavy atom, donor atom, acceptor molecule, acceptor atom, score
      L1  H     1    29       P1 10747  1.00
      P1  H  6934  6947       L1    13  0.94

> <Gold.Chemscore.Hbond.Weighted>
-6.4645

> <Gold.Chemscore.Metal.Weighted>
-0.0000

> <Gold.Chemscore.Lipo.Weighted>
-9.5709

> <Gold.Chemscore.Internal_Hbond.Weighted>
0.0000

> <Gold.Chemscore.DEClash.Weighted>
0.0048

> <Gold.Chemscore.DEInternal.Weighted>
0.5625

> <Gold.Chemscore.Rot.Weighted>
6.7155

> <Gold.Chemscore.Internal.Correction.Weighted>
   9.000000E+99

> <Gold.Protein.RotatedTorsions>
[ 6907 6896 6895 6894 ] final  -36.48 input  -60.11 | X-H torsion
[ 7974 7965 7964 7962 ] final -108.90 input  175.53 | X-H torsion
[ 8008 7997 7996 7995 ] final  -97.90 input   59.86 | X-H torsion
[ 10167 10162 10161 10158 ] final -163.63 input  -65.29 | X-H torsion
[ 10718 10713 10712 10709 ] final  -76.51 input   66.30 | X-H torsion
[ 10763 10752 10751 10750 ] final  109.07 input  -60.55 | X-H torsion
[ 11005 11000 10999 10996 ] final  140.22 input  -57.11 | X-H torsion

> <Gold.Protein.ActiveResidues>
 VAL166  LYS551  ARG553  GLY616  TRP617  ASP618  TYR619  PRO620  LYS621  CYS622 
 ASP623  PHE694  ASN695  SER759  ASP760  ASP761  ALA762  ILE779  LEU786  VAL792 
 PHE793  MET794  SER795  GLU796  ALA797  LYS798  CYS799  TRP800  GLU811  SER814 

> <Gold.Protein.RotatedAtoms>
  151.0266  134.9509  159.8088 H   0  0  0  0  0  0  0  0  0  0  0  0  # atno 6907 bound_to 6896
  152.5337  134.2834  159.9026 H   0  0  0  0  0  0  0  0  0  0  0  0  # atno 6908 bound_to 6896
  151.2842  133.4153  159.2663 H   0  0  0  0  0  0  0  0  0  0  0  0  # atno 6909 bound_to 6896
  145.1871  140.8998  143.3446 H   0  0  0  0  0  0  0  0  0  0  0  0  # atno 7974 bound_to 7965
  154.7939  140.0459  157.1222 H   0  0  0  0  0  0  0  0  0  0  0  0  # atno 8008 bound_to 7997
  154.9558  140.3071  155.5034 H   0  0  0  0  0  0  0  0  0  0  0  0  # atno 8009 bound_to 7997
  156.2953  140.2280  156.4639 H   0  0  0  0  0  0  0  0  0  0  0  0  # atno 8010 bound_to 7997
  139.6307  144.0445  152.2013 H   0  0  0  0  0  0  0  0  0  0  0  0  # atno 10167 bound_to 10162
  156.0173  130.4467  150.3205 H   0  0  0  0  0  0  0  0  0  0  0  0  # atno 10718 bound_to 10713
  153.4296  135.3791  155.2162 H   0  0  0  0  0  0  0  0  0  0  0  0  # atno 10763 bound_to 10752
  154.8749  135.3837  154.4284 H   0  0  0  0  0  0  0  0  0  0  0  0  # atno 10764 bound_to 10752
  153.4815  135.7088  153.5998 H   0  0  0  0  0  0  0  0  0  0  0  0  # atno 10765 bound_to 10752
  140.0312  134.9351  157.0665 H   0  0  0  0  0  0  0  0  0  0  0  0  # atno 11005 bound_to 11000
  145.0078  139.3538  143.6135 LP  0  0  0  0  0  0  0  0  0  0  0  0  # atno 17320 bound_to 7965
  146.3443  139.9328  142.8751 LP  0  0  0  0  0  0  0  0  0  0  0  0  # atno 17321 bound_to 7965
  140.0109  144.6224  150.7648 LP  0  0  0  0  0  0  0  0  0  0  0  0  # atno 17342 bound_to 10162
  140.7437  143.2850  151.3488 LP  0  0  0  0  0  0  0  0  0  0  0  0  # atno 17343 bound_to 10162
  157.1305  131.0270  151.2971 LP  0  0  0  0  0  0  0  0  0  0  0  0  # atno 17370 bound_to 10713
  157.4554  130.7622  149.7188 LP  0  0  0  0  0  0  0  0  0  0  0  0  # atno 17371 bound_to 10713
  140.4223  134.1868  155.7165 LP  0  0  0  0  0  0  0  0  0  0  0  0  # atno 17394 bound_to 11000
  141.1832  133.8370  157.1184 LP  0  0  0  0  0  0  0  0  0  0  0  0  # atno 17395 bound_to 11000

$$$$
