AV-unprocessed.smi:2976|AV-procd|sdf|11359|dock2
  -GOLD-   2272016273D 1   1.00000     0.00000
 Structure written by MMmdl.
 40 41  0  0  0  0  0  0  0  0  1 V2000
  151.9243  145.0499  161.3836 C   0  0  0  0  0  0  0  0  0  0  0  0
  151.9824  143.6909  160.6638 C   0  0  2  0  0  0  0  0  0  0  0  0
  153.0110  142.7753  161.3599 C   0  0  0  0  0  0  0  0  0  0  0  0
  153.1042  141.3958  160.6939 C   0  0  0  0  0  0  0  0  0  0  0  0
  153.4214  141.5257  159.1964 C   0  0  0  0  0  0  0  0  0  0  0  0
  152.4034  142.4244  158.4701 C   0  0  1  0  0  0  0  0  0  0  0  0
  151.1058  141.7484  158.4127 N   0  0  0  0  0  0  0  0  0  0  0  0
  150.8779  140.4988  157.9796 C   0  0  0  0  0  0  0  0  0  0  0  0
  151.7669  139.7360  157.5999 O   0  0  0  0  0  0  0  0  0  0  0  0
  149.4146  140.0396  157.9825 C   0  0  0  0  0  0  0  0  0  0  0  0
  148.5905  140.8000  157.0326 N   0  0  0  0  0  0  0  0  0  0  0  0
  149.0836  140.8162  155.7399 N   0  0  0  0  0  0  0  0  0  0  0  0
  148.4481  141.4669  154.8272 C   0  0  0  0  0  0  0  0  0  0  0  0
  147.2235  142.1852  155.1035 C   0  0  0  0  0  0  0  0  0  0  0  0
  146.4153  143.0405  153.8377 Cl  0  0  0  0  0  0  0  0  0  0  0  0
  146.7454  142.1577  156.3729 C   0  0  0  0  0  0  0  0  0  0  0  0
  145.2854  142.9918  156.7811 Cl  0  0  0  0  0  0  0  0  0  0  0  0
  147.4427  141.4257  157.4394 C   0  0  0  0  0  0  0  0  0  0  0  0
  147.0387  141.3729  158.6021 O   0  0  0  0  0  0  0  0  0  0  0  0
  152.3026  143.8189  159.1481 C   0  0  1  0  0  0  0  0  0  0  0  0
  151.3290  144.7535  158.4013 C   0  0  0  0  0  0  0  0  0  0  0  0
  152.8516  145.6083  161.2532 H   0  0  0  0  0  0  0  0  0  0  0  0
  151.7643  144.9186  162.4541 H   0  0  0  0  0  0  0  0  0  0  0  0
  151.1048  145.6668  161.0159 H   0  0  0  0  0  0  0  0  0  0  0  0
  150.9997  143.2285  160.7690 H   0  0  0  0  0  0  0  0  0  0  0  0
  153.9935  143.2494  161.3456 H   0  0  0  0  0  0  0  0  0  0  0  0
  152.7472  142.6497  162.4107 H   0  0  0  0  0  0  0  0  0  0  0  0
  153.8736  140.7993  161.1850 H   0  0  0  0  0  0  0  0  0  0  0  0
  152.1654  140.8581  160.8318 H   0  0  0  0  0  0  0  0  0  0  0  0
  154.4206  141.9468  159.0785 H   0  0  0  0  0  0  0  0  0  0  0  0
  153.4525  140.5384  158.7335 H   0  0  0  0  0  0  0  0  0  0  0  0
  152.7735  142.5659  157.4531 H   0  0  0  0  0  0  0  0  0  0  0  0
  150.3070  142.2924  158.7045 H   0  0  0  0  0  0  0  0  0  0  0  0
  149.3949  138.9758  157.7392 H   0  0  0  0  0  0  0  0  0  0  0  0
  148.9931  140.1176  158.9868 H   0  0  0  0  0  0  0  0  0  0  0  0
  148.7997  141.5108  153.7963 H   0  0  0  0  0  0  0  0  0  0  0  0
  153.2896  144.2768  159.0644 H   0  0  0  0  0  0  0  0  0  0  0  0
  150.2906  144.4577  158.5508 H   0  0  0  0  0  0  0  0  0  0  0  0
  151.5257  144.7466  157.3290 H   0  0  0  0  0  0  0  0  0  0  0  0
  151.4298  145.7865  158.7327 H   0  0  0  0  0  0  0  0  0  0  0  0
  1  2  1  0  0  0  0
  1 22  1  0  0  0  0
  1 23  1  0  0  0  0
  1 24  1  0  0  0  0
  2 20  1  0  0  0  0
  2  3  1  0  0  0  0
  2 25  1  0  0  0  0
  3  4  1  0  0  0  0
  3 26  1  0  0  0  0
  3 27  1  0  0  0  0
  4  5  1  0  0  0  0
  4 28  1  0  0  0  0
  4 29  1  0  0  0  0
  5  6  1  0  0  0  0
  5 30  1  0  0  0  0
  5 31  1  0  0  0  0
  6  7  1  0  0  0  0
  6 20  1  0  0  0  0
  6 32  1  0  0  0  0
  7  8  1  0  0  0  0
  7 33  1  0  0  0  0
  8  9  2  0  0  0  0
  8 10  1  0  0  0  0
 10 11  1  0  0  0  0
 10 34  1  0  0  0  0
 10 35  1  0  0  0  0
 11 18  1  0  0  0  0
 11 12  1  0  0  0  0
 12 13  2  0  0  0  0
 13 14  1  0  0  0  0
 13 36  1  0  0  0  0
 14 15  1  0  0  0  0
 14 16  2  0  0  0  0
 16 17  1  0  0  0  0
 16 18  1  0  0  0  0
 18 19  2  0  0  0  0
 20 21  1  0  0  0  0
 20 37  1  0  0  0  0
 21 38  1  0  0  0  0
 21 39  1  0  0  0  0
 21 40  1  0  0  0  0
M  END
> <s_m_source_file>
AV-unprocessed.smi

> <i_m_source_file_index>
2976

> <i_lp_mmshare_version>
43012

> <i_f3d_flags>
0

> <s_epik_input>
W0NIM11bQ0BASF0xW0NIMl1bQ0gyXVtDSDJdW0NASF0oW0NASF0xW0NIM10pW05IXUMoPU8pW0NIMl1uMm5bY0hdYyhDbCljKENsKWMyPU8=

> <s_epik_cmdline>
J2VwaWtfcHl0aG9uJywgJy1waCcsICc3LjAnLCAnLXRuJywgJzgnLCAnLW1hJywgJzIwMCcsICctbWV0YWxfYmluZGluZycsICctaW1hZScsICc8aW5maWxlLm1hZT4nLCAnLW9tYWUnLCAnPG91dGZpbGUubWFlPic=

> <r_lp_tautomer_probability>
1

> <r_epik_Ionization_Penalty>
1.90777e-08

> <r_epik_Ionization_Penalty_Charging>
3.07942e-11

> <r_epik_Ionization_Penalty_Neutral>
1.90469e-08

> <r_epik_State_Penalty>
-0

> <r_epik_Charging_Adjusted_Penalty>
3.07942e-11

> <i_epik_Tot_Q>
0

> <i_epik_Tot_abs_Q>
0

> <r_epik_Metal_State_Penalty>
-0

> <b_epik_Metal_Only>
0

> <s_lp_Force_Field>
OPLS_2005

> <r_lp_Energy>
25.2962

> <b_lp_Chiralities_Consistent>
1

> <s_lp_Variant>
AV-unprocessed.smi:2976-1

> <Gold.Version>
5.8.1

> <Gold.Id.Protein>
6NUR|6NUR_protein|mol2

> <Gold.PLP.Fitness>
39.7845

> <Gold.PLP.PLP>
-39.2256

> <Gold.PLP.part.hbond>
-1.0000

> <Gold.PLP.part.metal>
0.0000

> <Gold.PLP.part.buried>
-2.9254

> <Gold.PLP.part.nonpolar>
-34.5410

> <Gold.PLP.part.repulsive>
0.1733

> <Gold.PLP.ligand.clash>
0.0000

> <Gold.PLP.ligand.torsion>
0.1197

> <Gold.PLP.Chemscore.Hbond>
0.2631

> <Gold.PLP.Chemscore.CHOScore>
0.0000

> <Gold.PLP.Chemscore.Metal>
0.0000

> <Gold.Chemscore.Hbonds>
donor molecule, donor type, donor heavy atom, donor atom, acceptor molecule, acceptor atom, score
      P1  H  6934  6946       L1    19  0.26

> <Gold.PLP.Chemscore.Internal.Correction>
0.0090

> <Gold.Rescore>
     Score         DG    S(hbond)    S(metal)    S(lipo)     H(rot)  DE(clash)    DE(int)     intcor
     14.63     -16.76       0.48        0.00     115.24       1.49       0.85       1.28       ----

> <Gold.Chemscore.Fitness>
14.6344

> <Gold.Chemscore.DG>
-16.7616

> <Gold.Chemscore.ZeroCoef>
-5.4800

> <Gold.Chemscore.Hbond>
0.4804

> <Gold.Chemscore.Metal>
0.0000

> <Gold.Chemscore.Lipo>
115.2352

> <Gold.Chemscore.Internal_Hbond>
0.0000

> <Gold.Chemscore.DEClash>
0.8505

> <Gold.Chemscore.DEInternal>
1.2766

> <Gold.Chemscore.Rot>
1.4866

> <Gold.Chemscore.Internal.Correction>
   9.000000E+99

> <Gold.Chemscore.Hbonds>
donor molecule, donor type, donor heavy atom, donor atom, acceptor molecule, acceptor atom, score
      P1  H  6934  6946       L1    19  0.27

> <Gold.Chemscore.Hbond.Weighted>
-1.6047

> <Gold.Chemscore.Metal.Weighted>
-0.0000

> <Gold.Chemscore.Lipo.Weighted>
-13.4825

> <Gold.Chemscore.Internal_Hbond.Weighted>
0.0000

> <Gold.Chemscore.DEClash.Weighted>
0.8505

> <Gold.Chemscore.DEInternal.Weighted>
1.2766

> <Gold.Chemscore.Rot.Weighted>
3.8057

> <Gold.Chemscore.Internal.Correction.Weighted>
   9.000000E+99

> <Gold.Protein.RotatedTorsions>
[ 6907 6896 6895 6894 ] final  -97.30 input  -60.11 | X-H torsion
[ 7974 7965 7964 7962 ] final -160.35 input  175.53 | X-H torsion
[ 8008 7997 7996 7995 ] final  150.86 input   59.86 | X-H torsion
[ 10167 10162 10161 10158 ] final   70.87 input  -65.29 | X-H torsion
[ 10718 10713 10712 10709 ] final  173.40 input   66.30 | X-H torsion
[ 10763 10752 10751 10750 ] final   23.94 input  -60.55 | X-H torsion
[ 11005 11000 10999 10996 ] final  127.33 input  -57.11 | X-H torsion

> <Gold.Protein.ActiveResidues>
 VAL166  LYS551  ARG553  GLY616  TRP617  ASP618  TYR619  PRO620  LYS621  CYS622 
 ASP623  PHE694  ASN695  SER759  ASP760  ASP761  ALA762  ILE779  LEU786  VAL792 
 PHE793  MET794  SER795  GLU796  ALA797  LYS798  CYS799  TRP800  GLU811  SER814 

> <Gold.Protein.RotatedAtoms>
  150.7012  134.1370  159.4090 H   0  0  0  0  0  0  0  0  0  0  0  0  # atno 6907 bound_to 6896
  151.9355  135.0235  160.0541 H   0  0  0  0  0  0  0  0  0  0  0  0  # atno 6908 bound_to 6896
  152.2138  133.4896  159.5161 H   0  0  0  0  0  0  0  0  0  0  0  0  # atno 6909 bound_to 6896
  144.7430  140.3554  143.6107 H   0  0  0  0  0  0  0  0  0  0  0  0  # atno 7974 bound_to 7965
  156.2698  140.2063  156.6084 H   0  0  0  0  0  0  0  0  0  0  0  0  # atno 8008 bound_to 7997
  154.6851  140.0536  157.0330 H   0  0  0  0  0  0  0  0  0  0  0  0  # atno 8009 bound_to 7997
  155.0945  140.3200  155.4567 H   0  0  0  0  0  0  0  0  0  0  0  0  # atno 8010 bound_to 7997
  140.0522  144.5302  150.7355 H   0  0  0  0  0  0  0  0  0  0  0  0  # atno 10167 bound_to 10162
  156.9648  131.0072  151.2919 H   0  0  0  0  0  0  0  0  0  0  0  0  # atno 10718 bound_to 10713
  153.0801  135.6616  154.0064 H   0  0  0  0  0  0  0  0  0  0  0  0  # atno 10763 bound_to 10752
  153.9688  135.2966  155.3430 H   0  0  0  0  0  0  0  0  0  0  0  0  # atno 10764 bound_to 10752
  154.7198  135.5169  153.8865 H   0  0  0  0  0  0  0  0  0  0  0  0  # atno 10765 bound_to 10752
  139.9502  134.9623  156.8838 H   0  0  0  0  0  0  0  0  0  0  0  0  # atno 11005 bound_to 11000
  145.7233  139.1716  143.2472 LP  0  0  0  0  0  0  0  0  0  0  0  0  # atno 17320 bound_to 7965
  146.1261  140.7247  142.9434 LP  0  0  0  0  0  0  0  0  0  0  0  0  # atno 17321 bound_to 7965
  140.7211  143.2590  151.4275 LP  0  0  0  0  0  0  0  0  0  0  0  0  # atno 17342 bound_to 10162
  139.5946  144.1426  152.2128 LP  0  0  0  0  0  0  0  0  0  0  0  0  # atno 17343 bound_to 10162
  157.5633  130.8261  149.8294 LP  0  0  0  0  0  0  0  0  0  0  0  0  # atno 17370 bound_to 10713
  156.0307  130.3765  150.1695 LP  0  0  0  0  0  0  0  0  0  0  0  0  # atno 17371 bound_to 10713
  140.5738  134.0417  155.7440 LP  0  0  0  0  0  0  0  0  0  0  0  0  # atno 17394 bound_to 11000
  141.1162  133.9536  157.2817 LP  0  0  0  0  0  0  0  0  0  0  0  0  # atno 17395 bound_to 11000

$$$$
