AV-unprocessed.smi:155|AV-procd|sdf|1280|dock4
  -GOLD-   2262018553D 1   1.00000     0.00000
 Structure written by MMmdl.
 64 67  0  0  0  0  0  0  0  0  3 V2000
  152.1983  145.2486  159.0084 C   0  0  0  0  0  0  0  0  0  0  0  0
  151.6174  143.9252  159.3300 N   0  3  0  0  0  0  0  0  0  0  0  0
  152.3951  143.2455  160.3918 C   0  0  0  0  0  0  0  0  0  0  0  0
  151.4134  143.0987  158.1091 C   0  0  0  0  0  0  0  0  0  0  0  0
  150.6799  141.7626  158.3741 C   0  0  0  0  0  0  0  0  0  0  0  0
  149.8629  141.2811  157.2273 N   0  3  1  0  0  0  0  0  0  0  0  0
  148.3972  141.3900  157.4563 C   0  0  0  0  0  0  0  0  0  0  0  0
  147.6896  140.0960  157.0172 C   0  0  0  0  0  0  0  0  0  0  0  0
  147.6433  139.8881  155.4917 C   0  0  0  0  0  0  0  0  0  0  0  0
  148.9594  139.9764  154.8602 N   0  0  0  0  0  0  0  0  0  0  0  0
  149.8229  138.9156  154.8321 C   0  0  0  0  0  0  0  0  0  0  0  0
  151.0216  139.0943  154.2129 N   0  0  0  0  0  0  0  0  0  0  0  0
  151.9262  138.1151  154.1580 C   0  0  0  0  0  0  0  0  0  0  0  0
  151.8483  136.8851  154.6610 N   0  0  0  0  0  0  0  0  0  0  0  0
  150.6508  136.6799  155.2776 C   0  0  0  0  0  0  0  0  0  0  0  0
  149.5921  137.6278  155.4135 C   0  0  0  0  0  0  0  0  0  0  0  0
  148.5520  137.0437  156.1297 N   0  0  0  0  0  0  0  0  0  0  0  0
  148.9624  135.8340  156.3895 C   0  0  0  0  0  0  0  0  0  0  0  0
  150.2109  135.5270  155.9040 N   0  0  0  0  0  0  0  0  0  0  0  0
  150.9087  134.2584  156.0440 C   0  0  0  0  0  0  0  0  0  0  0  0
  150.0715  133.1348  156.6986 C   0  0  2  0  0  0  0  0  0  0  0  0
  150.8409  132.4005  157.6309 O   0  0  0  0  0  0  0  0  0  0  0  0
  149.3632  132.1757  155.7144 C   0  0  2  0  0  0  0  0  0  0  0  0
  150.2711  131.1793  154.9868 C   0  0  0  0  0  0  0  0  0  0  0  0
  149.4451  130.8570  153.7622 C   0  0  0  0  0  0  0  0  0  0  0  0
  148.8325  132.2163  153.4393 C   0  0  0  0  0  0  0  0  0  0  0  0
  148.6349  132.8575  154.6953 O   0  0  0  0  0  0  0  0  0  0  0  0
  149.4883  141.3349  154.7007 C   0  0  0  0  0  0  0  0  0  0  0  0
  150.2991  141.8400  155.9162 C   0  0  0  0  0  0  0  0  0  0  0  0
  153.1919  145.1433  158.5704 H   0  0  0  0  0  0  0  0  0  0  0  0
  152.2842  145.8626  159.9058 H   0  0  0  0  0  0  0  0  0  0  0  0
  151.5679  145.7907  158.3025 H   0  0  0  0  0  0  0  0  0  0  0  0
  153.3712  142.9307  160.0213 H   0  0  0  0  0  0  0  0  0  0  0  0
  151.8708  142.3718  160.7733 H   0  0  0  0  0  0  0  0  0  0  0  0
  152.5561  143.9101  161.2414 H   0  0  0  0  0  0  0  0  0  0  0  0
  150.7747  143.6671  157.4315 H   0  0  0  0  0  0  0  0  0  0  0  0
  152.3538  142.9696  157.5744 H   0  0  0  0  0  0  0  0  0  0  0  0
  151.4327  141.0230  158.6500 H   0  0  0  0  0  0  0  0  0  0  0  0
  150.0273  141.8633  159.2425 H   0  0  0  0  0  0  0  0  0  0  0  0
  148.1830  141.5320  158.5159 H   0  0  0  0  0  0  0  0  0  0  0  0
  147.9820  142.2648  156.9534 H   0  0  0  0  0  0  0  0  0  0  0  0
  148.1648  139.2437  157.5024 H   0  0  0  0  0  0  0  0  0  0  0  0
  146.6646  140.1113  157.3885 H   0  0  0  0  0  0  0  0  0  0  0  0
  147.1483  138.9532  155.2341 H   0  0  0  0  0  0  0  0  0  0  0  0
  147.0066  140.6584  155.0552 H   0  0  0  0  0  0  0  0  0  0  0  0
  152.8446  138.3523  153.6411 H   0  0  0  0  0  0  0  0  0  0  0  0
  148.3567  135.1235  156.9335 H   0  0  0  0  0  0  0  0  0  0  0  0
  151.2441  133.9445  155.0548 H   0  0  0  0  0  0  0  0  0  0  0  0
  151.8131  134.4292  156.6292 H   0  0  0  0  0  0  0  0  0  0  0  0
  149.2912  133.6238  157.2827 H   0  0  0  0  0  0  0  0  0  0  0  0
  151.5263  131.9460  157.1657 H   0  0  0  0  0  0  0  0  0  0  0  0
  148.6239  131.5999  156.2733 H   0  0  0  0  0  0  0  0  0  0  0  0
  151.2101  131.6423  154.6808 H   0  0  0  0  0  0  0  0  0  0  0  0
  150.5061  130.3007  155.5880 H   0  0  0  0  0  0  0  0  0  0  0  0
  150.0341  130.4488  152.9405 H   0  0  0  0  0  0  0  0  0  0  0  0
  148.6624  130.1403  154.0141 H   0  0  0  0  0  0  0  0  0  0  0  0
  149.5283  132.8161  152.8513 H   0  0  0  0  0  0  0  0  0  0  0  0
  147.8999  132.1344  152.8809 H   0  0  0  0  0  0  0  0  0  0  0  0
  150.0755  141.4210  153.7856 H   0  0  0  0  0  0  0  0  0  0  0  0
  148.6439  142.0078  154.5483 H   0  0  0  0  0  0  0  0  0  0  0  0
  150.2710  142.9301  155.9438 H   0  0  0  0  0  0  0  0  0  0  0  0
  151.3400  141.5674  155.7512 H   0  0  0  0  0  0  0  0  0  0  0  0
  150.7015  144.1151  159.7120 H   0  0  0  0  0  0  0  0  0  0  0  0
  150.0348  140.2874  157.1774 H   0  0  0  0  0  0  0  0  0  0  0  0
  1  2  1  0  0  0  0
  1 30  1  0  0  0  0
  1 31  1  0  0  0  0
  1 32  1  0  0  0  0
  2  3  1  0  0  0  0
  2  4  1  0  0  0  0
  2 63  1  0  0  0  0
  3 33  1  0  0  0  0
  3 34  1  0  0  0  0
  3 35  1  0  0  0  0
  4  5  1  0  0  0  0
  4 36  1  0  0  0  0
  4 37  1  0  0  0  0
  5  6  1  0  0  0  0
  5 38  1  0  0  0  0
  5 39  1  0  0  0  0
  6 29  1  0  0  0  0
  6  7  1  0  0  0  0
  6 64  1  0  0  0  0
  7  8  1  0  0  0  0
  7 40  1  0  0  0  0
  7 41  1  0  0  0  0
  8  9  1  0  0  0  0
  8 42  1  0  0  0  0
  8 43  1  0  0  0  0
  9 10  1  0  0  0  0
  9 44  1  0  0  0  0
  9 45  1  0  0  0  0
 10 11  1  0  0  0  0
 10 28  1  0  0  0  0
 11 16  1  0  0  0  0
 11 12  2  0  0  0  0
 12 13  1  0  0  0  0
 13 14  2  0  0  0  0
 13 46  1  0  0  0  0
 14 15  1  0  0  0  0
 15 19  1  0  0  0  0
 15 16  2  0  0  0  0
 16 17  1  0  0  0  0
 17 18  2  0  0  0  0
 18 19  1  0  0  0  0
 18 47  1  0  0  0  0
 19 20  1  0  0  0  0
 20 21  1  0  0  0  0
 20 48  1  0  0  0  0
 20 49  1  0  0  0  0
 21 22  1  0  0  0  0
 21 23  1  0  0  0  0
 21 50  1  0  0  0  0
 22 51  1  0  0  0  0
 23 27  1  0  0  0  0
 23 24  1  0  0  0  0
 23 52  1  0  0  0  0
 24 25  1  0  0  0  0
 24 53  1  0  0  0  0
 24 54  1  0  0  0  0
 25 26  1  0  0  0  0
 25 55  1  0  0  0  0
 25 56  1  0  0  0  0
 26 27  1  0  0  0  0
 26 57  1  0  0  0  0
 26 58  1  0  0  0  0
 28 29  1  0  0  0  0
 28 59  1  0  0  0  0
 28 60  1  0  0  0  0
 29 61  1  0  0  0  0
 29 62  1  0  0  0  0
M  CHG  1   2   1
M  CHG  1   6   1
M  END
> <s_m_source_file>
AV-unprocessed.smi

> <i_m_source_file_index>
155

> <i_lp_mmshare_version>
43012

> <i_f3d_flags>
0

> <s_epik_input>
W0NIM11OKFtDSDNdKVtDSDJdW0NIMl1OMVtDSDJdW0NIMl1bQ0gyXU4oW0NIMl1bQ0gyXTEpYyhuW2NIXW4yKWMoYzIzKW5bY0hdbjNbQ0gyXVtDQEhdKFtPSF0pW0NAQEhdNFtDSDJdW0NIMl1bQ0gyXU80

> <s_epik_cmdline>
J2VwaWtfcHl0aG9uJywgJy1waCcsICc3LjAnLCAnLXRuJywgJzgnLCAnLW1hJywgJzIwMCcsICctbWV0YWxfYmluZGluZycsICctaW1hZScsICc8aW5maWxlLm1hZT4nLCAnLW9tYWUnLCAnPG91dGZpbGUubWFlPic=

> <r_lp_tautomer_probability>
1

> <r_epik_Ionization_Penalty>
3.0333

> <r_epik_Ionization_Penalty_Charging>
3.03317

> <r_epik_Ionization_Penalty_Neutral>
0.000131872

> <r_epik_State_Penalty>
1.99939

> <r_epik_Charging_Adjusted_Penalty>
5.03256

> <i_epik_Tot_Q>
2

> <i_epik_Tot_abs_Q>
2

> <r_epik_Metal_State_Penalty>
2.00021

> <b_epik_Metal_Only>
0

> <s_lp_Force_Field>
OPLS_2005

> <r_lp_Energy>
60.5665

> <b_lp_Chiralities_Consistent>
1

> <s_lp_Variant>
AV-unprocessed.smi:155-14

> <Gold.Version>
5.8.1

> <Gold.Id.Protein>
6NUR|6NUR_protein|mol2

> <Gold.PLP.Fitness>
51.5818

> <Gold.PLP.PLP>
-45.3972

> <Gold.PLP.part.hbond>
-3.0000

> <Gold.PLP.part.metal>
0.0000

> <Gold.PLP.part.buried>
-6.7544

> <Gold.PLP.part.nonpolar>
-34.8023

> <Gold.PLP.part.repulsive>
0.4693

> <Gold.PLP.ligand.clash>
0.0000

> <Gold.PLP.ligand.torsion>
1.5676

> <Gold.PLP.Chemscore.Hbond>
3.0000

> <Gold.PLP.Chemscore.CHOScore>
0.0000

> <Gold.PLP.Chemscore.Metal>
0.0000

> <Gold.Chemscore.Hbonds>
donor molecule, donor type, donor heavy atom, donor atom, acceptor molecule, acceptor atom, score
      P1  H  6896  6908       L1    22  1.00
      P1  H  7989  7998       L1    12  1.00
      P1  H 10752 10765       L1    14  1.00

> <Gold.PLP.Chemscore.Internal.Correction>
0.3198

> <Gold.Rescore>
     Score         DG    S(hbond)    S(metal)    S(lipo)     H(rot)  DE(clash)    DE(int)     intcor
     16.11     -18.83       2.69        0.00      97.52       2.75       0.37       2.36       ----

> <Gold.Chemscore.Fitness>
16.1059

> <Gold.Chemscore.DG>
-18.8324

> <Gold.Chemscore.ZeroCoef>
-5.4800

> <Gold.Chemscore.Hbond>
2.6887

> <Gold.Chemscore.Metal>
0.0000

> <Gold.Chemscore.Lipo>
97.5242

> <Gold.Chemscore.Internal_Hbond>
0.0000

> <Gold.Chemscore.DEClash>
0.3690

> <Gold.Chemscore.DEInternal>
2.3575

> <Gold.Chemscore.Rot>
2.7493

> <Gold.Chemscore.Internal.Correction>
   9.000000E+99

> <Gold.Chemscore.Hbonds>
donor molecule, donor type, donor heavy atom, donor atom, acceptor molecule, acceptor atom, score
      P1  H  6896  6908       L1    22  0.74
      P1  H  7989  7998       L1    12  0.86
      P1  H 10752 10765       L1    14  0.94

> <Gold.Chemscore.Hbond.Weighted>
-8.9803

> <Gold.Chemscore.Metal.Weighted>
-0.0000

> <Gold.Chemscore.Lipo.Weighted>
-11.4103

> <Gold.Chemscore.Internal_Hbond.Weighted>
0.0000

> <Gold.Chemscore.DEClash.Weighted>
0.3690

> <Gold.Chemscore.DEInternal.Weighted>
2.3575

> <Gold.Chemscore.Rot.Weighted>
7.0383

> <Gold.Chemscore.Internal.Correction.Weighted>
   9.000000E+99

> <Gold.Protein.RotatedTorsions>
[ 6907 6896 6895 6894 ] final   91.48 input  -60.11 | X-H torsion
[ 7974 7965 7964 7962 ] final  -26.63 input  175.53 | X-H torsion
[ 8008 7997 7996 7995 ] final -108.71 input   59.86 | X-H torsion
[ 10167 10162 10161 10158 ] final -130.58 input  -65.29 | X-H torsion
[ 10718 10713 10712 10709 ] final   73.13 input   66.30 | X-H torsion
[ 10763 10752 10751 10750 ] final  178.89 input  -60.55 | X-H torsion
[ 11005 11000 10999 10996 ] final -150.18 input  -57.11 | X-H torsion

> <Gold.Protein.ActiveResidues>
 VAL166  LYS551  ARG553  GLY616  TRP617  ASP618  TYR619  PRO620  LYS621  CYS622 
 ASP623  PHE694  ASN695  SER759  ASP760  ASP761  ALA762  ILE779  LEU786  VAL792 
 PHE793  MET794  SER795  GLU796  ALA797  LYS798  CYS799  TRP800  GLU811  SER814 

> <Gold.Protein.RotatedAtoms>
  152.5450  134.1650  159.8572 H   0  0  0  0  0  0  0  0  0  0  0  0  # atno 6907 bound_to 6896
  151.1665  133.4804  159.2601 H   0  0  0  0  0  0  0  0  0  0  0  0  # atno 6908 bound_to 6896
  151.1319  135.0146  159.8641 H   0  0  0  0  0  0  0  0  0  0  0  0  # atno 6909 bound_to 6896
  146.1412  140.5046  142.8651 H   0  0  0  0  0  0  0  0  0  0  0  0  # atno 7974 bound_to 7965
  154.9483  140.0401  157.2131 H   0  0  0  0  0  0  0  0  0  0  0  0  # atno 8008 bound_to 7997
  154.8003  140.2850  155.5904 H   0  0  0  0  0  0  0  0  0  0  0  0  # atno 8009 bound_to 7997
  156.2960  140.2556  156.2869 H   0  0  0  0  0  0  0  0  0  0  0  0  # atno 8010 bound_to 7997
  139.9278  143.6307  152.2537 H   0  0  0  0  0  0  0  0  0  0  0  0  # atno 10167 bound_to 10162
  157.6533  130.9613  150.1025 H   0  0  0  0  0  0  0  0  0  0  0  0  # atno 10718 bound_to 10713
  154.5135  135.2790  155.1323 H   0  0  0  0  0  0  0  0  0  0  0  0  # atno 10763 bound_to 10752
  154.2908  135.6267  153.5388 H   0  0  0  0  0  0  0  0  0  0  0  0  # atno 10764 bound_to 10752
  152.9923  135.5673  154.5606 H   0  0  0  0  0  0  0  0  0  0  0  0  # atno 10765 bound_to 10752
  140.7429  134.3493  157.5143 H   0  0  0  0  0  0  0  0  0  0  0  0  # atno 11005 bound_to 11000
  144.7795  140.5809  143.6615 LP  0  0  0  0  0  0  0  0  0  0  0  0  # atno 17320 bound_to 7965
  145.5042  139.1482  143.3640 LP  0  0  0  0  0  0  0  0  0  0  0  0  # atno 17321 bound_to 7965
  139.6807  144.7655  151.1613 LP  0  0  0  0  0  0  0  0  0  0  0  0  # atno 17342 bound_to 10162
  140.7645  143.5728  150.8977 LP  0  0  0  0  0  0  0  0  0  0  0  0  # atno 17343 bound_to 10162
  156.1944  130.3656  149.8868 LP  0  0  0  0  0  0  0  0  0  0  0  0  # atno 17370 bound_to 10713
  156.6788  130.8850  151.3573 LP  0  0  0  0  0  0  0  0  0  0  0  0  # atno 17371 bound_to 10713
  139.8802  134.9092  156.2986 LP  0  0  0  0  0  0  0  0  0  0  0  0  # atno 17394 bound_to 11000
  140.9820  133.7261  156.0686 LP  0  0  0  0  0  0  0  0  0  0  0  0  # atno 17395 bound_to 11000

$$$$
