AV-unprocessed.smi:35|AV-procd|sdf|249|dock2
  -GOLD-   2262016 13D 1   1.00000     0.00000
 Structure written by MMmdl.
 29 30  0  0  0  0  0  0  0  0  1 V2000
  140.9726  134.7398  153.7835 O   0  0  0  0  0  0  0  0  0  0  0  0
  142.0625  135.2396  153.5129 C   0  0  0  0  0  0  0  0  0  0  0  0
  143.2200  134.4556  153.5183 N   0  0  0  0  0  0  0  0  0  0  0  0
  144.5094  134.9081  153.2291 C   0  0  0  0  0  0  0  0  0  0  0  0
  145.4533  134.1197  153.2505 O   0  0  0  0  0  0  0  0  0  0  0  0
  144.6547  136.2780  152.9125 N   0  0  0  0  0  0  0  0  0  0  0  0
  146.0209  136.8378  152.5900 C   0  0  2  0  0  0  0  0  0  0  0  0
  146.5718  137.3489  153.7669 O   0  0  0  0  0  0  0  0  0  0  0  0
  147.1070  138.6451  153.5289 C   0  0  2  0  0  0  0  0  0  0  0  0
  147.1031  139.4379  154.8453 C   0  0  0  0  0  0  0  0  0  0  0  0
  147.5560  140.7577  154.6325 O   0  0  0  0  0  0  0  0  0  0  0  0
  146.1998  139.2085  152.4318 C   0  0  1  0  0  0  0  0  0  0  0  0
  146.7944  140.2722  151.7117 O   0  0  0  0  0  0  0  0  0  0  0  0
  145.9103  137.9830  151.5683 C   0  0  1  0  0  0  0  0  0  0  0  0
  146.8492  137.8203  150.5201 O   0  0  0  0  0  0  0  0  0  0  0  0
  143.5318  137.0936  152.8866 C   0  0  0  0  0  0  0  0  0  0  0  0
  142.2884  136.6381  153.1656 C   0  0  0  0  0  0  0  0  0  0  0  0
  140.8190  137.9633  153.0718 Br  0  0  0  0  0  0  0  0  0  0  0  0
  143.1143  133.4780  153.7477 H   0  0  0  0  0  0  0  0  0  0  0  0
  146.6472  136.0093  152.2550 H   0  0  0  0  0  0  0  0  0  0  0  0
  148.1249  138.5199  153.1546 H   0  0  0  0  0  0  0  0  0  0  0  0
  146.1071  139.4573  155.2888 H   0  0  0  0  0  0  0  0  0  0  0  0
  147.7672  138.9628  155.5676 H   0  0  0  0  0  0  0  0  0  0  0  0
  148.0462  140.7808  153.8245 H   0  0  0  0  0  0  0  0  0  0  0  0
  145.2675  139.5630  152.8729 H   0  0  0  0  0  0  0  0  0  0  0  0
  147.7194  140.0958  151.6278 H   0  0  0  0  0  0  0  0  0  0  0  0
  144.9118  138.0237  151.1307 H   0  0  0  0  0  0  0  0  0  0  0  0
  147.6146  137.3890  150.8680 H   0  0  0  0  0  0  0  0  0  0  0  0
  143.6441  138.1373  152.6330 H   0  0  0  0  0  0  0  0  0  0  0  0
  1  2  2  0  0  0  0
  2 17  1  0  0  0  0
  2  3  1  0  0  0  0
  3 19  1  0  0  0  0
  3  4  1  0  0  0  0
  4  5  2  0  0  0  0
  4  6  1  0  0  0  0
  6  7  1  0  0  0  0
  6 16  1  0  0  0  0
  7 14  1  0  0  0  0
  7  8  1  0  0  0  0
  7 20  1  0  0  0  0
  8  9  1  0  0  0  0
  9 10  1  0  0  0  0
  9 12  1  0  0  0  0
  9 21  1  0  0  0  0
 10 11  1  0  0  0  0
 10 22  1  0  0  0  0
 10 23  1  0  0  0  0
 11 24  1  0  0  0  0
 12 13  1  0  0  0  0
 12 14  1  0  0  0  0
 12 25  1  0  0  0  0
 13 26  1  0  0  0  0
 14 15  1  0  0  0  0
 14 27  1  0  0  0  0
 15 28  1  0  0  0  0
 16 17  2  0  0  0  0
 16 29  1  0  0  0  0
 17 18  1  0  0  0  0
M  END
> <s_m_source_file>
AV-unprocessed.smi

> <i_m_source_file_index>
35

> <i_lp_mmshare_version>
43012

> <i_f3d_flags>
0

> <s_epik_input>
Tz1jMVtuSF1jKD1PKW4oW2NIXWMxQnIpW0NAQEhdMk9bQ0BASF0oW0NIMl1bT0hdKVtDQEBIXShbT0hdKVtDQEhdMltPSF0=

> <s_epik_cmdline>
J2VwaWtfcHl0aG9uJywgJy1waCcsICc3LjAnLCAnLXRuJywgJzgnLCAnLW1hJywgJzIwMCcsICctbWV0YWxfYmluZGluZycsICctaW1hZScsICc8aW5maWxlLm1hZT4nLCAnLW9tYWUnLCAnPG91dGZpbGUubWFlPic=

> <r_lp_tautomer_probability>
0.999537

> <r_epik_Ionization_Penalty>
0.10812

> <r_epik_Ionization_Penalty_Charging>
0.108119

> <r_epik_Ionization_Penalty_Neutral>
4.93006e-07

> <r_epik_State_Penalty>
0.0979238

> <r_epik_Charging_Adjusted_Penalty>
0.206043

> <i_epik_Tot_Q>
0

> <i_epik_Tot_abs_Q>
0

> <r_epik_Metal_State_Penalty>
3.07911

> <b_epik_Metal_Only>
0

> <s_epik_Chemistry_Notes>
This compound contains an acetal/aminal-like group ( X-CH(R)-Y where X, Y are N, S, or O) that may be acid/base labile, releasing an aldehyde.

> <s_lp_Force_Field>
OPLS_2005

> <r_lp_Energy>
30.5202

> <b_lp_Chiralities_Consistent>
1

> <s_lp_Variant>
AV-unprocessed.smi:35-3

> <Gold.Version>
5.8.1

> <Gold.Id.Protein>
6NUR|6NUR_protein|mol2

> <Gold.PLP.Fitness>
38.2252

> <Gold.PLP.PLP>
-24.4832

> <Gold.PLP.part.hbond>
-6.7779

> <Gold.PLP.part.metal>
0.0000

> <Gold.PLP.part.buried>
1.5703

> <Gold.PLP.part.nonpolar>
-18.4880

> <Gold.PLP.part.repulsive>
0.4169

> <Gold.PLP.ligand.clash>
0.0000

> <Gold.PLP.ligand.torsion>
0.7402

> <Gold.PLP.Chemscore.Hbond>
3.9663

> <Gold.PLP.Chemscore.CHOScore>
1.1052

> <Gold.PLP.Chemscore.Metal>
0.0000

> <Gold.Chemscore.Hbonds>
donor molecule, donor type, donor heavy atom, donor atom, acceptor molecule, acceptor atom, score
      L1  H     3    19       P1 10957  0.96
      L1  H    13    26       P1  7957  1.00
      L1  H    15    28       P1  7948  1.00
      P1  H 11000 11005       L1     1  0.89
      L1  C    16    29       P1 10171  0.14
      L1  C    16    29       P1 10175  1.00

> <Gold.PLP.Chemscore.Internal.Correction>
0.0080

> <Gold.Rescore>
     Score         DG    S(hbond)    S(metal)    S(lipo)     H(rot)  DE(clash)    DE(int)     intcor
     12.37     -13.30       3.93        0.00      34.97       3.67       0.22       0.70       ----

> <Gold.Chemscore.Fitness>
12.3739

> <Gold.Chemscore.DG>
-13.2972

> <Gold.Chemscore.ZeroCoef>
-5.4800

> <Gold.Chemscore.Hbond>
3.9284

> <Gold.Chemscore.Metal>
0.0000

> <Gold.Chemscore.Lipo>
34.9734

> <Gold.Chemscore.Internal_Hbond>
0.0000

> <Gold.Chemscore.DEClash>
0.2230

> <Gold.Chemscore.DEInternal>
0.7002

> <Gold.Chemscore.Rot>
3.6701

> <Gold.Chemscore.Internal.Correction>
   9.000000E+99

> <Gold.Chemscore.Hbonds>
donor molecule, donor type, donor heavy atom, donor atom, acceptor molecule, acceptor atom, score
      L1  H     3    19       P1 10957  0.90
      L1  H    13    26       P1  7957  1.00
      L1  H    15    28       P1  7948  0.96
      P1  H 11000 11005       L1     1  0.85

> <Gold.Chemscore.Hbond.Weighted>
-13.1207

> <Gold.Chemscore.Metal.Weighted>
-0.0000

> <Gold.Chemscore.Lipo.Weighted>
-4.0919

> <Gold.Chemscore.Internal_Hbond.Weighted>
0.0000

> <Gold.Chemscore.DEClash.Weighted>
0.2230

> <Gold.Chemscore.DEInternal.Weighted>
0.7002

> <Gold.Chemscore.Rot.Weighted>
9.3955

> <Gold.Chemscore.Internal.Correction.Weighted>
   9.000000E+99

> <Gold.Protein.RotatedTorsions>
[ 6907 6896 6895 6894 ] final   88.43 input  -60.11 | X-H torsion
[ 7974 7965 7964 7962 ] final -132.87 input  175.53 | X-H torsion
[ 8008 7997 7996 7995 ] final   83.34 input   59.86 | X-H torsion
[ 10167 10162 10161 10158 ] final   50.92 input  -65.29 | X-H torsion
[ 10718 10713 10712 10709 ] final -118.34 input   66.30 | X-H torsion
[ 10763 10752 10751 10750 ] final  -57.87 input  -60.55 | X-H torsion
[ 11005 11000 10999 10996 ] final   25.92 input  -57.11 | X-H torsion

> <Gold.Protein.ActiveResidues>
 VAL166  LYS551  ARG553  GLY616  TRP617  ASP618  TYR619  PRO620  LYS621  CYS622 
 ASP623  PHE694  ASN695  SER759  ASP760  ASP761  ALA762  ILE779  LEU786  VAL792 
 PHE793  MET794  SER795  GLU796  ALA797  LYS798  CYS799  TRP800  GLU811  SER814 

> <Gold.Protein.RotatedAtoms>
  152.5425  134.2122  159.8754 H   0  0  0  0  0  0  0  0  0  0  0  0  # atno 6907 bound_to 6896
  151.2104  133.4552  159.2605 H   0  0  0  0  0  0  0  0  0  0  0  0  # atno 6908 bound_to 6896
  151.0902  134.9924  159.8454 H   0  0  0  0  0  0  0  0  0  0  0  0  # atno 6909 bound_to 6896
  144.9245  140.7055  143.4944 H   0  0  0  0  0  0  0  0  0  0  0  0  # atno 7974 bound_to 7965
  155.9227  140.3420  155.6185 H   0  0  0  0  0  0  0  0  0  0  0  0  # atno 8008 bound_to 7997
  155.7254  140.0789  157.2331 H   0  0  0  0  0  0  0  0  0  0  0  0  # atno 8009 bound_to 7997
  154.4072  140.1598  156.2436 H   0  0  0  0  0  0  0  0  0  0  0  0  # atno 8010 bound_to 7997
  140.2673  144.3305  150.6300 H   0  0  0  0  0  0  0  0  0  0  0  0  # atno 10167 bound_to 10162
  156.1099  130.6240  150.9279 H   0  0  0  0  0  0  0  0  0  0  0  0  # atno 10718 bound_to 10713
  154.2292  135.6364  153.5170 H   0  0  0  0  0  0  0  0  0  0  0  0  # atno 10763 bound_to 10752
  152.9952  135.5515  154.6031 H   0  0  0  0  0  0  0  0  0  0  0  0  # atno 10764 bound_to 10752
  154.5510  135.2901  155.0983 H   0  0  0  0  0  0  0  0  0  0  0  0  # atno 10765 bound_to 10752
  140.3426  134.2316  155.7688 H   0  0  0  0  0  0  0  0  0  0  0  0  # atno 11005 bound_to 11000
  145.3241  139.1779  143.4572 LP  0  0  0  0  0  0  0  0  0  0  0  0  # atno 17320 bound_to 7965
  146.3220  140.3262  142.8637 LP  0  0  0  0  0  0  0  0  0  0  0  0  # atno 17321 bound_to 7965
  140.5918  143.2168  151.7239 LP  0  0  0  0  0  0  0  0  0  0  0  0  # atno 17342 bound_to 10162
  139.4999  144.3928  152.0262 LP  0  0  0  0  0  0  0  0  0  0  0  0  # atno 17343 bound_to 10162
  157.6279  131.0924  150.8497 LP  0  0  0  0  0  0  0  0  0  0  0  0  # atno 17370 bound_to 10713
  156.8610  130.5113  149.5304 LP  0  0  0  0  0  0  0  0  0  0  0  0  # atno 17371 bound_to 10713
  141.2034  133.7913  157.0340 LP  0  0  0  0  0  0  0  0  0  0  0  0  # atno 17394 bound_to 11000
  140.0768  134.9671  157.1559 LP  0  0  0  0  0  0  0  0  0  0  0  0  # atno 17395 bound_to 11000

$$$$
