AV-unprocessed.smi:449|AV-procd|sdf|2606|dock3
  -GOLD-   2262023 03D 1   1.00000     0.00000
 Structure written by MMmdl.
 38 39  0  0  0  0  0  0  0  0  1 V2000
  144.1231  135.8346  151.6764 C   0  0  0  0  0  0  0  0  0  0  0  0
  145.6975  136.4084  150.9885 S   0  0  0  0  0  0  0  0  0  0  0  0
  146.0914  137.7108  152.1866 C   0  0  0  0  0  0  0  0  0  0  0  0
  146.9434  138.8196  151.5492 C   0  0  0  0  0  0  0  0  0  0  0  0
  147.5223  139.7879  152.5849 C   0  0  0  0  0  0  0  0  0  0  0  0
  147.0270  140.9073  152.7186 O   0  0  0  0  0  0  0  0  0  0  0  0
  148.5723  139.3271  153.2904 N   0  0  0  0  0  0  0  0  0  0  0  0
  149.3008  139.9840  154.3173 C   0  0  0  0  0  0  0  0  0  0  0  0
  150.4995  139.3474  154.7016 C   0  0  0  0  0  0  0  0  0  0  0  0
  151.2937  139.9160  155.7152 C   0  0  0  0  0  0  0  0  0  0  0  0
  150.8806  141.1207  156.3322 C   0  0  0  0  0  0  0  0  0  0  0  0
  151.6214  141.7467  157.3580 N   0  0  0  0  0  0  0  0  0  0  0  0
  151.8737  140.9390  158.5489 C   0  0  0  0  0  0  0  0  0  0  0  0
  152.9524  141.5998  159.4250 C   0  0  0  0  0  0  0  0  0  0  0  0
  152.5730  142.9376  159.7313 O   0  0  0  0  0  0  0  0  0  0  0  0
  152.4476  143.7328  158.5571 C   0  0  0  0  0  0  0  0  0  0  0  0
  151.3488  143.1507  157.6513 C   0  0  0  0  0  0  0  0  0  0  0  0
  149.6636  141.6795  155.8780 C   0  0  0  0  0  0  0  0  0  0  0  0
  148.9000  141.1351  154.9078 N   0  0  0  0  0  0  0  0  0  0  0  0
  143.7203  135.0240  151.0694 H   0  0  0  0  0  0  0  0  0  0  0  0
  143.3967  136.6472  151.6955 H   0  0  0  0  0  0  0  0  0  0  0  0
  144.2631  135.4683  152.6935 H   0  0  0  0  0  0  0  0  0  0  0  0
  145.1567  138.1175  152.5744 H   0  0  0  0  0  0  0  0  0  0  0  0
  146.6219  137.2613  153.0270 H   0  0  0  0  0  0  0  0  0  0  0  0
  147.7553  138.3696  150.9756 H   0  0  0  0  0  0  0  0  0  0  0  0
  146.3415  139.3913  150.8423 H   0  0  0  0  0  0  0  0  0  0  0  0
  148.8787  138.3903  153.0721 H   0  0  0  0  0  0  0  0  0  0  0  0
  150.8134  138.4292  154.2267 H   0  0  0  0  0  0  0  0  0  0  0  0
  152.2103  139.4188  155.9937 H   0  0  0  0  0  0  0  0  0  0  0  0
  150.9445  140.8439  159.1122 H   0  0  0  0  0  0  0  0  0  0  0  0
  152.1941  139.9300  158.2938 H   0  0  0  0  0  0  0  0  0  0  0  0
  153.0732  141.0438  160.3547 H   0  0  0  0  0  0  0  0  0  0  0  0
  153.9202  141.5910  158.9211 H   0  0  0  0  0  0  0  0  0  0  0  0
  152.1944  144.7533  158.8446 H   0  0  0  0  0  0  0  0  0  0  0  0
  153.4027  143.7778  158.0313 H   0  0  0  0  0  0  0  0  0  0  0  0
  151.3024  143.7277  156.7269 H   0  0  0  0  0  0  0  0  0  0  0  0
  150.3787  143.2359  158.1430 H   0  0  0  0  0  0  0  0  0  0  0  0
  149.2684  142.5846  156.3147 H   0  0  0  0  0  0  0  0  0  0  0  0
  1  2  1  0  0  0  0
  1 20  1  0  0  0  0
  1 21  1  0  0  0  0
  1 22  1  0  0  0  0
  2  3  1  0  0  0  0
  3  4  1  0  0  0  0
  3 23  1  0  0  0  0
  3 24  1  0  0  0  0
  4  5  1  0  0  0  0
  4 25  1  0  0  0  0
  4 26  1  0  0  0  0
  5  6  2  0  0  0  0
  5  7  1  0  0  0  0
  7  8  1  0  0  0  0
  7 27  1  0  0  0  0
  8 19  1  0  0  0  0
  8  9  2  0  0  0  0
  9 10  1  0  0  0  0
  9 28  1  0  0  0  0
 10 11  2  0  0  0  0
 10 29  1  0  0  0  0
 11 12  1  0  0  0  0
 11 18  1  0  0  0  0
 12 17  1  0  0  0  0
 12 13  1  0  0  0  0
 13 14  1  0  0  0  0
 13 30  1  0  0  0  0
 13 31  1  0  0  0  0
 14 15  1  0  0  0  0
 14 32  1  0  0  0  0
 14 33  1  0  0  0  0
 15 16  1  0  0  0  0
 16 17  1  0  0  0  0
 16 34  1  0  0  0  0
 16 35  1  0  0  0  0
 17 36  1  0  0  0  0
 17 37  1  0  0  0  0
 18 19  2  0  0  0  0
 18 38  1  0  0  0  0
M  END
> <s_m_source_file>
AV-unprocessed.smi

> <i_m_source_file_index>
449

> <i_lp_mmshare_version>
43012

> <i_f3d_flags>
0

> <s_epik_input>
W0NIM11TW0NIMl1bQ0gyXUMoPU8pW05IXWMxW2NIXVtjSF1jKFtjSF1uMSlOMltDSDJdW0NIMl1PW0NIMl1bQ0gyXTI=

> <s_epik_cmdline>
J2VwaWtfcHl0aG9uJywgJy1waCcsICc3LjAnLCAnLXRuJywgJzgnLCAnLW1hJywgJzIwMCcsICctbWV0YWxfYmluZGluZycsICctaW1hZScsICc8aW5maWxlLm1hZT4nLCAnLW9tYWUnLCAnPG91dGZpbGUubWFlPic=

> <r_lp_tautomer_probability>
1

> <r_epik_Ionization_Penalty>
0.00212969

> <r_epik_Ionization_Penalty_Charging>
0

> <r_epik_Ionization_Penalty_Neutral>
0.00212969

> <r_epik_State_Penalty>
0.00229518

> <r_epik_Charging_Adjusted_Penalty>
0.00229518

> <i_epik_Tot_Q>
0

> <i_epik_Tot_abs_Q>
0

> <r_epik_Metal_State_Penalty>
-0

> <b_epik_Metal_Only>
0

> <s_lp_Force_Field>
OPLS_2005

> <r_lp_Energy>
23.7251

> <b_lp_Chiralities_Consistent>
1

> <s_lp_Variant>
AV-unprocessed.smi:449-1

> <Gold.Version>
5.8.1

> <Gold.Id.Protein>
6NUR|6NUR_protein|mol2

> <Gold.PLP.Fitness>
40.1633

> <Gold.PLP.PLP>
-38.1427

> <Gold.PLP.part.hbond>
-1.0000

> <Gold.PLP.part.metal>
0.0000

> <Gold.PLP.part.buried>
0.4655

> <Gold.PLP.part.nonpolar>
-37.7888

> <Gold.PLP.part.repulsive>
0.4369

> <Gold.PLP.ligand.clash>
0.0000

> <Gold.PLP.ligand.torsion>
0.6970

> <Gold.PLP.Chemscore.Hbond>
0.0000

> <Gold.PLP.Chemscore.CHOScore>
1.0000

> <Gold.PLP.Chemscore.Metal>
0.0000

> <Gold.Chemscore.Hbonds>
donor molecule, donor type, donor heavy atom, donor atom, acceptor molecule, acceptor atom, score
      L1  C    18    38       P1  8028  1.00

> <Gold.PLP.Chemscore.Internal.Correction>
0.4146

> <Gold.Rescore>
     Score         DG    S(hbond)    S(metal)    S(lipo)     H(rot)  DE(clash)    DE(int)     intcor
     12.24     -15.88       0.91        0.00      94.67       1.45       1.83       1.81       ----

> <Gold.Chemscore.Fitness>
12.2360

> <Gold.Chemscore.DG>
-15.8796

> <Gold.Chemscore.ZeroCoef>
-5.4800

> <Gold.Chemscore.Hbond>
0.9081

> <Gold.Chemscore.Metal>
0.0000

> <Gold.Chemscore.Lipo>
94.6744

> <Gold.Chemscore.Internal_Hbond>
0.0000

> <Gold.Chemscore.DEClash>
1.8345

> <Gold.Chemscore.DEInternal>
1.8091

> <Gold.Chemscore.Rot>
1.4493

> <Gold.Chemscore.Internal.Correction>
   9.000000E+99

> <Gold.Chemscore.Hbonds>
donor molecule, donor type, donor heavy atom, donor atom, acceptor molecule, acceptor atom, score
      L1  H     7    27       P1  7948  0.05

> <Gold.Chemscore.Hbond.Weighted>
-3.0330

> <Gold.Chemscore.Metal.Weighted>
-0.0000

> <Gold.Chemscore.Lipo.Weighted>
-11.0769

> <Gold.Chemscore.Internal_Hbond.Weighted>
0.0000

> <Gold.Chemscore.DEClash.Weighted>
1.8345

> <Gold.Chemscore.DEInternal.Weighted>
1.8091

> <Gold.Chemscore.Rot.Weighted>
3.7103

> <Gold.Chemscore.Internal.Correction.Weighted>
   9.000000E+99

> <Gold.Protein.RotatedTorsions>
[ 6907 6896 6895 6894 ] final   37.93 input  -60.11 | X-H torsion
[ 7974 7965 7964 7962 ] final   -7.02 input  175.53 | X-H torsion
[ 8008 7997 7996 7995 ] final   97.29 input   59.86 | X-H torsion
[ 10167 10162 10161 10158 ] final    9.39 input  -65.29 | X-H torsion
[ 10718 10713 10712 10709 ] final -121.87 input   66.30 | X-H torsion
[ 10763 10752 10751 10750 ] final   66.21 input  -60.55 | X-H torsion
[ 11005 11000 10999 10996 ] final   72.23 input  -57.11 | X-H torsion

> <Gold.Protein.ActiveResidues>
 VAL166  LYS551  ARG553  GLY616  TRP617  ASP618  TYR619  PRO620  LYS621  CYS622 
 ASP623  PHE694  ASN695  SER759  ASP760  ASP761  ALA762  ILE779  LEU786  VAL792 
 PHE793  MET794  SER795  GLU796  ALA797  LYS798  CYS799  TRP800  GLU811  SER814 

> <Gold.Protein.RotatedAtoms>
  152.1497  134.8998  160.0548 H   0  0  0  0  0  0  0  0  0  0  0  0  # atno 6907 bound_to 6896
  152.0035  133.3829  159.4199 H   0  0  0  0  0  0  0  0  0  0  0  0  # atno 6908 bound_to 6896
  150.6874  134.3730  159.5044 H   0  0  0  0  0  0  0  0  0  0  0  0  # atno 6909 bound_to 6896
  146.2317  140.2258  142.8338 H   0  0  0  0  0  0  0  0  0  0  0  0  # atno 7974 bound_to 7965
  156.0886  140.3260  155.7786 H   0  0  0  0  0  0  0  0  0  0  0  0  # atno 8008 bound_to 7997
  155.5034  140.0571  157.2952 H   0  0  0  0  0  0  0  0  0  0  0  0  # atno 8009 bound_to 7997
  154.4624  140.1973  156.0225 H   0  0  0  0  0  0  0  0  0  0  0  0  # atno 8010 bound_to 7997
  140.6258  143.8104  150.7231 H   0  0  0  0  0  0  0  0  0  0  0  0  # atno 10167 bound_to 10162
  156.1372  130.6439  150.9715 H   0  0  0  0  0  0  0  0  0  0  0  0  # atno 10718 bound_to 10713
  153.0130  135.5329  154.6788 H   0  0  0  0  0  0  0  0  0  0  0  0  # atno 10763 bound_to 10752
  154.5953  135.2863  155.0595 H   0  0  0  0  0  0  0  0  0  0  0  0  # atno 10764 bound_to 10752
  154.1672  135.6538  153.5053 H   0  0  0  0  0  0  0  0  0  0  0  0  # atno 10765 bound_to 10752
  139.9501  134.7241  156.0882 H   0  0  0  0  0  0  0  0  0  0  0  0  # atno 11005 bound_to 11000
  144.9596  140.8262  143.5521 LP  0  0  0  0  0  0  0  0  0  0  0  0  # atno 17320 bound_to 7965
  145.2227  139.2151  143.5084 LP  0  0  0  0  0  0  0  0  0  0  0  0  # atno 17321 bound_to 7965
  140.1705  143.4199  152.2004 LP  0  0  0  0  0  0  0  0  0  0  0  0  # atno 17342 bound_to 10162
  139.5479  144.7313  151.4527 LP  0  0  0  0  0  0  0  0  0  0  0  0  # atno 17343 bound_to 10162
  157.6543  131.0892  150.7981 LP  0  0  0  0  0  0  0  0  0  0  0  0  # atno 17370 bound_to 10713
  156.8060  130.4937  149.5362 LP  0  0  0  0  0  0  0  0  0  0  0  0  # atno 17371 bound_to 10713
  141.1162  133.6627  156.3100 LP  0  0  0  0  0  0  0  0  0  0  0  0  # atno 17394 bound_to 11000
  140.5739  134.5813  157.5464 LP  0  0  0  0  0  0  0  0  0  0  0  0  # atno 17395 bound_to 11000

$$$$
