AV-unprocessed.smi:2950|AV-procd|sdf|11288|dock2
  -GOLD-   2272016183D 1   1.00000     0.00000
 Structure written by MMmdl.
 29 30  0  0  0  0  0  0  0  0  1 V2000
  149.2862  140.5716  154.3991 C   0  0  0  0  0  0  0  0  0  0  0  0
  150.6235  140.5082  154.8625 O   0  0  0  0  0  0  0  0  0  0  0  0
  150.8811  141.4342  155.9040 C   0  0  0  0  0  0  0  0  0  0  0  0
  150.5499  140.7731  157.2475 C   0  0  0  0  0  0  0  0  0  0  0  0
  151.3453  141.3310  158.3298 N   0  0  0  0  0  0  0  0  0  0  0  0
  152.2586  140.7004  159.1099 C   0  0  0  0  0  0  0  0  0  0  0  0
  152.5681  139.2418  158.9270 C   0  0  0  0  0  0  0  0  0  0  0  0
  153.1248  138.9266  157.6667 O   0  0  0  0  0  0  0  0  0  0  0  0
  152.8442  141.4595  160.0394 N   0  0  0  0  0  0  0  0  0  0  0  0
  152.2627  142.6955  159.8369 C   0  0  0  0  0  0  0  0  0  0  0  0
  152.4640  143.9259  160.5027 C   0  0  0  0  0  0  0  0  0  0  0  0
  151.7449  145.0747  160.1123 C   0  0  0  0  0  0  0  0  0  0  0  0
  150.8170  145.0101  159.0526 C   0  0  0  0  0  0  0  0  0  0  0  0
  150.6010  143.7939  158.3763 C   0  0  0  0  0  0  0  0  0  0  0  0
  151.3204  142.6500  158.7712 C   0  0  0  0  0  0  0  0  0  0  0  0
  149.1390  139.8409  153.6040 H   0  0  0  0  0  0  0  0  0  0  0  0
  149.0538  141.5585  153.9966 H   0  0  0  0  0  0  0  0  0  0  0  0
  148.5805  140.3447  155.1993 H   0  0  0  0  0  0  0  0  0  0  0  0
  151.9282  141.7403  155.8800 H   0  0  0  0  0  0  0  0  0  0  0  0
  150.2723  142.3293  155.7662 H   0  0  0  0  0  0  0  0  0  0  0  0
  149.4950  140.9152  157.4845 H   0  0  0  0  0  0  0  0  0  0  0  0
  150.7093  139.6960  157.1956 H   0  0  0  0  0  0  0  0  0  0  0  0
  153.2634  138.9279  159.7059 H   0  0  0  0  0  0  0  0  0  0  0  0
  151.6549  138.6595  159.0496 H   0  0  0  0  0  0  0  0  0  0  0  0
  152.4207  138.7382  157.0655 H   0  0  0  0  0  0  0  0  0  0  0  0
  153.1734  143.9853  161.3148 H   0  0  0  0  0  0  0  0  0  0  0  0
  151.9066  146.0100  160.6279 H   0  0  0  0  0  0  0  0  0  0  0  0
  150.2713  145.8951  158.7597 H   0  0  0  0  0  0  0  0  0  0  0  0
  149.8914  143.7414  157.5640 H   0  0  0  0  0  0  0  0  0  0  0  0
  1  2  1  0  0  0  0
  1 16  1  0  0  0  0
  1 17  1  0  0  0  0
  1 18  1  0  0  0  0
  2  3  1  0  0  0  0
  3  4  1  0  0  0  0
  3 19  1  0  0  0  0
  3 20  1  0  0  0  0
  4  5  1  0  0  0  0
  4 21  1  0  0  0  0
  4 22  1  0  0  0  0
  5 15  1  0  0  0  0
  5  6  1  0  0  0  0
  6  7  1  0  0  0  0
  6  9  2  0  0  0  0
  7  8  1  0  0  0  0
  7 23  1  0  0  0  0
  7 24  1  0  0  0  0
  8 25  1  0  0  0  0
  9 10  1  0  0  0  0
 10 15  2  0  0  0  0
 10 11  1  0  0  0  0
 11 12  2  0  0  0  0
 11 26  1  0  0  0  0
 12 13  1  0  0  0  0
 12 27  1  0  0  0  0
 13 14  2  0  0  0  0
 13 28  1  0  0  0  0
 14 15  1  0  0  0  0
 14 29  1  0  0  0  0
M  END
> <s_m_source_file>
AV-unprocessed.smi

> <i_m_source_file_index>
2950

> <i_lp_mmshare_version>
43012

> <i_f3d_flags>
0

> <s_epik_input>
W0NIM11PW0NIMl1bQ0gyXW4oYyhuMSlbQ0gyXVtPSF0pYyhjMTIpW2NIXVtjSF1bY0hdW2NIXTI=

> <s_epik_cmdline>
J2VwaWtfcHl0aG9uJywgJy1waCcsICc3LjAnLCAnLXRuJywgJzgnLCAnLW1hJywgJzIwMCcsICctbWV0YWxfYmluZGluZycsICctaW1hZScsICc8aW5maWxlLm1hZT4nLCAnLW9tYWUnLCAnPG91dGZpbGUubWFlPic=

> <r_epik_Ionization_Penalty>
0.0637339

> <r_epik_Ionization_Penalty_Charging>
0

> <r_epik_Ionization_Penalty_Neutral>
0.0637339

> <r_epik_State_Penalty>
0.0554025

> <r_epik_Charging_Adjusted_Penalty>
0.0554025

> <i_epik_Tot_Q>
0

> <i_epik_Tot_abs_Q>
0

> <r_epik_Metal_State_Penalty>
5.80726e-05

> <b_epik_Metal_Only>
0

> <s_lp_Force_Field>
OPLS_2005

> <r_lp_Energy>
9.41749

> <b_lp_Chiralities_Consistent>
1

> <s_lp_Variant>
AV-unprocessed.smi:2950-1

> <Gold.Version>
5.8.1

> <Gold.Id.Protein>
6NUR|6NUR_protein|mol2

> <Gold.PLP.Fitness>
40.1922

> <Gold.PLP.PLP>
-34.8828

> <Gold.PLP.part.hbond>
-2.0000

> <Gold.PLP.part.metal>
0.0000

> <Gold.PLP.part.buried>
-5.6484

> <Gold.PLP.part.nonpolar>
-26.9131

> <Gold.PLP.part.repulsive>
0.0798

> <Gold.PLP.ligand.clash>
0.0000

> <Gold.PLP.ligand.torsion>
0.3564

> <Gold.PLP.Chemscore.Hbond>
2.0000

> <Gold.PLP.Chemscore.CHOScore>
0.0000

> <Gold.PLP.Chemscore.Metal>
0.0000

> <Gold.Chemscore.Hbonds>
donor molecule, donor type, donor heavy atom, donor atom, acceptor molecule, acceptor atom, score
      P1  H  7989  7998       L1     2  1.00
      P1  H  7997  8008       L1     8  1.00

> <Gold.PLP.Chemscore.Internal.Correction>
0.0223

> <Gold.Rescore>
     Score         DG    S(hbond)    S(metal)    S(lipo)     H(rot)  DE(clash)    DE(int)     intcor
     15.77     -16.03       1.73        0.00      87.74       2.14       0.01       0.26       ----

> <Gold.Chemscore.Fitness>
15.7718

> <Gold.Chemscore.DG>
-16.0345

> <Gold.Chemscore.ZeroCoef>
-5.4800

> <Gold.Chemscore.Hbond>
1.7283

> <Gold.Chemscore.Metal>
0.0000

> <Gold.Chemscore.Lipo>
87.7376

> <Gold.Chemscore.Internal_Hbond>
0.0000

> <Gold.Chemscore.DEClash>
0.0060

> <Gold.Chemscore.DEInternal>
0.2567

> <Gold.Chemscore.Rot>
2.1420

> <Gold.Chemscore.Internal.Correction>
   9.000000E+99

> <Gold.Chemscore.Hbonds>
donor molecule, donor type, donor heavy atom, donor atom, acceptor molecule, acceptor atom, score
      P1  H  7989  7998       L1     2  0.37
      P1  H  7997  8008       L1     8  0.73

> <Gold.Chemscore.Hbond.Weighted>
-5.7727

> <Gold.Chemscore.Metal.Weighted>
-0.0000

> <Gold.Chemscore.Lipo.Weighted>
-10.2653

> <Gold.Chemscore.Internal_Hbond.Weighted>
0.0000

> <Gold.Chemscore.DEClash.Weighted>
0.0060

> <Gold.Chemscore.DEInternal.Weighted>
0.2567

> <Gold.Chemscore.Rot.Weighted>
5.4834

> <Gold.Chemscore.Internal.Correction.Weighted>
   9.000000E+99

> <Gold.Protein.RotatedTorsions>
[ 6907 6896 6895 6894 ] final  -27.58 input  -60.11 | X-H torsion
[ 7974 7965 7964 7962 ] final   18.15 input  175.53 | X-H torsion
[ 8008 7997 7996 7995 ] final  -70.63 input   59.86 | X-H torsion
[ 10167 10162 10161 10158 ] final -136.56 input  -65.29 | X-H torsion
[ 10718 10713 10712 10709 ] final -149.70 input   66.30 | X-H torsion
[ 10763 10752 10751 10750 ] final  -65.96 input  -60.55 | X-H torsion
[ 11005 11000 10999 10996 ] final -133.69 input  -57.11 | X-H torsion

> <Gold.Protein.ActiveResidues>
 VAL166  LYS551  ARG553  GLY616  TRP617  ASP618  TYR619  PRO620  LYS621  CYS622 
 ASP623  PHE694  ASN695  SER759  ASP760  ASP761  ALA762  ILE779  LEU786  VAL792 
 PHE793  MET794  SER795  GLU796  ALA797  LYS798  CYS799  TRP800  GLU811  SER814 

> <Gold.Protein.RotatedAtoms>
  151.1449  135.0198  159.8642 H   0  0  0  0  0  0  0  0  0  0  0  0  # atno 6907 bound_to 6896
  152.5453  134.1455  159.8507 H   0  0  0  0  0  0  0  0  0  0  0  0  # atno 6908 bound_to 6896
  151.1535  133.4846  159.2627 H   0  0  0  0  0  0  0  0  0  0  0  0  # atno 6909 bound_to 6896
  146.2195  139.8499  142.8624 H   0  0  0  0  0  0  0  0  0  0  0  0  # atno 7974 bound_to 7965
  154.5027  140.0830  156.7830 H   0  0  0  0  0  0  0  0  0  0  0  0  # atno 8008 bound_to 7997
  155.3966  140.3435  155.4236 H   0  0  0  0  0  0  0  0  0  0  0  0  # atno 8009 bound_to 7997
  156.1476  140.1548  156.8809 H   0  0  0  0  0  0  0  0  0  0  0  0  # atno 8010 bound_to 7997
  139.8666  143.7010  152.2644 H   0  0  0  0  0  0  0  0  0  0  0  0  # atno 10167 bound_to 10162
  156.4365  130.8101  151.2329 H   0  0  0  0  0  0  0  0  0  0  0  0  # atno 10718 bound_to 10713
  154.3528  135.6133  153.5651 H   0  0  0  0  0  0  0  0  0  0  0  0  # atno 10763 bound_to 10752
  152.9797  135.5796  154.4723 H   0  0  0  0  0  0  0  0  0  0  0  0  # atno 10764 bound_to 10752
  154.4447  135.2851  155.1800 H   0  0  0  0  0  0  0  0  0  0  0  0  # atno 10765 bound_to 10752
  140.9058  134.1631  157.4426 H   0  0  0  0  0  0  0  0  0  0  0  0  # atno 11005 bound_to 11000
  145.2812  141.0139  143.3716 LP  0  0  0  0  0  0  0  0  0  0  0  0  # atno 17320 bound_to 7965
  144.9149  139.4483  143.6569 LP  0  0  0  0  0  0  0  0  0  0  0  0  # atno 17321 bound_to 7965
  139.7323  144.7579  151.0782 LP  0  0  0  0  0  0  0  0  0  0  0  0  # atno 17342 bound_to 10162
  140.7767  143.5073  150.9696 LP  0  0  0  0  0  0  0  0  0  0  0  0  # atno 17343 bound_to 10162
  157.7507  131.0182  150.3615 LP  0  0  0  0  0  0  0  0  0  0  0  0  # atno 17370 bound_to 10713
  156.3963  130.3907  149.6992 LP  0  0  0  0  0  0  0  0  0  0  0  0  # atno 17371 bound_to 10713
  139.8749  134.9916  156.5558 LP  0  0  0  0  0  0  0  0  0  0  0  0  # atno 17394 bound_to 11000
  140.8172  133.8382  155.8863 LP  0  0  0  0  0  0  0  0  0  0  0  0  # atno 17395 bound_to 11000

$$$$
