AV-unprocessed.smi:2102|AV-procd|sdf|8581|dock3
  -GOLD-   2272011313D 1   1.00000     0.00000
 Structure written by MMmdl.
 29 30  0  0  0  0  0  0  0  0  1 V2000
  152.7442  143.9249  162.8170 C   0  0  0  0  0  0  0  0  0  0  0  0
  152.8344  143.1258  161.6128 N   0  0  0  0  0  0  0  0  0  0  0  0
  153.7055  142.0096  161.5857 C   0  0  0  0  0  0  0  0  0  0  0  0
  154.3956  141.6805  162.5510 O   0  0  0  0  0  0  0  0  0  0  0  0
  153.7184  141.2860  160.3198 C   0  0  0  0  0  0  0  0  0  0  0  0
  152.9465  141.6831  159.2845 C   0  0  0  0  0  0  0  0  0  0  0  0
  152.1031  142.7778  159.3384 N   0  0  0  0  0  0  0  0  0  0  0  0
  151.2823  143.1244  158.1710 C   0  0  0  0  0  0  0  0  0  0  0  0
  150.4939  141.9281  157.6201 C   0  0  0  0  0  0  0  0  0  0  0  0
  150.5980  140.8157  158.1392 O   0  0  0  0  0  0  0  0  0  0  0  0
  149.7227  142.1741  156.5512 N   0  0  0  0  0  0  0  0  0  0  0  0
  148.9106  141.2136  155.8767 C   0  0  0  0  0  0  0  0  0  0  0  0
  149.2129  140.9350  154.4203 C   0  0  0  0  0  0  0  0  0  0  0  0
  147.9825  141.7159  154.7918 C   0  0  0  0  0  0  0  0  0  0  0  0
  152.0306  143.5357  160.5268 C   0  0  0  0  0  0  0  0  0  0  0  0
  151.2880  144.5180  160.6037 O   0  0  0  0  0  0  0  0  0  0  0  0
  153.3707  143.5204  163.6111 H   0  0  0  0  0  0  0  0  0  0  0  0
  151.7000  143.9176  163.1349 H   0  0  0  0  0  0  0  0  0  0  0  0
  153.0744  144.9327  162.5595 H   0  0  0  0  0  0  0  0  0  0  0  0
  154.3534  140.4192  160.2110 H   0  0  0  0  0  0  0  0  0  0  0  0
  152.9896  141.1105  158.3693 H   0  0  0  0  0  0  0  0  0  0  0  0
  150.5983  143.9375  158.4217 H   0  0  0  0  0  0  0  0  0  0  0  0
  151.9168  143.5103  157.3717 H   0  0  0  0  0  0  0  0  0  0  0  0
  149.7036  143.1173  156.1914 H   0  0  0  0  0  0  0  0  0  0  0  0
  148.5500  140.3664  156.4588 H   0  0  0  0  0  0  0  0  0  0  0  0
  150.0323  141.4807  153.9560 H   0  0  0  0  0  0  0  0  0  0  0  0
  149.0726  139.9158  154.0657 H   0  0  0  0  0  0  0  0  0  0  0  0
  147.0202  141.2189  154.6866 H   0  0  0  0  0  0  0  0  0  0  0  0
  147.9812  142.7825  154.5746 H   0  0  0  0  0  0  0  0  0  0  0  0
  1  2  1  0  0  0  0
  1 17  1  0  0  0  0
  1 18  1  0  0  0  0
  1 19  1  0  0  0  0
  2 15  1  0  0  0  0
  2  3  1  0  0  0  0
  3  4  2  0  0  0  0
  3  5  1  0  0  0  0
  5  6  2  0  0  0  0
  5 20  1  0  0  0  0
  6  7  1  0  0  0  0
  6 21  1  0  0  0  0
  7  8  1  0  0  0  0
  7 15  1  0  0  0  0
  8  9  1  0  0  0  0
  8 22  1  0  0  0  0
  8 23  1  0  0  0  0
  9 10  2  0  0  0  0
  9 11  1  0  0  0  0
 11 12  1  0  0  0  0
 11 24  1  0  0  0  0
 12 14  1  0  0  0  0
 12 13  1  0  0  0  0
 12 25  1  0  0  0  0
 13 14  1  0  0  0  0
 13 26  1  0  0  0  0
 13 27  1  0  0  0  0
 14 28  1  0  0  0  0
 14 29  1  0  0  0  0
 15 16  2  0  0  0  0
M  END
> <s_m_source_file>
AV-unprocessed.smi

> <i_m_source_file_index>
2102

> <i_lp_mmshare_version>
43012

> <i_f3d_flags>
0

> <s_epik_input>
W0NIM11uMWMoPU8pW2NIXVtjSF1uKGMxPU8pW0NIMl1DKD1PKVtOSF1bQ0hdMltDSDJdW0NIMl0y

> <s_epik_cmdline>
J2VwaWtfcHl0aG9uJywgJy1waCcsICc3LjAnLCAnLXRuJywgJzgnLCAnLW1hJywgJzIwMCcsICctbWV0YWxfYmluZGluZycsICctaW1hZScsICc8aW5maWxlLm1hZT4nLCAnLW9tYWUnLCAnPG91dGZpbGUubWFlPic=

> <r_lp_tautomer_probability>
1

> <r_epik_Ionization_Penalty>
3.25544e-08

> <r_epik_Ionization_Penalty_Charging>
1.18841e-08

> <r_epik_Ionization_Penalty_Neutral>
2.06703e-08

> <r_epik_State_Penalty>
-0

> <r_epik_Charging_Adjusted_Penalty>
1.18841e-08

> <i_epik_Tot_Q>
0

> <i_epik_Tot_abs_Q>
0

> <r_epik_Metal_State_Penalty>
-0

> <b_epik_Metal_Only>
0

> <s_lp_Force_Field>
OPLS_2005

> <r_lp_Energy>
23.1094

> <b_lp_Chiralities_Consistent>
1

> <s_lp_Variant>
AV-unprocessed.smi:2102-1

> <Gold.Version>
5.8.1

> <Gold.Id.Protein>
6NUR|6NUR_protein|mol2

> <Gold.PLP.Fitness>
40.4888

> <Gold.PLP.PLP>
-37.6684

> <Gold.PLP.part.hbond>
-2.0000

> <Gold.PLP.part.metal>
0.0000

> <Gold.PLP.part.buried>
-3.5881

> <Gold.PLP.part.nonpolar>
-32.1472

> <Gold.PLP.part.repulsive>
0.1893

> <Gold.PLP.ligand.clash>
0.0000

> <Gold.PLP.ligand.torsion>
0.1086

> <Gold.PLP.Chemscore.Hbond>
1.0000

> <Gold.PLP.Chemscore.CHOScore>
0.0000

> <Gold.PLP.Chemscore.Metal>
0.0000

> <Gold.Chemscore.Hbonds>
donor molecule, donor type, donor heavy atom, donor atom, acceptor molecule, acceptor atom, score
      L1  H    11    24       P1  8028  1.00

> <Gold.PLP.Chemscore.Internal.Correction>
0.0375

> <Gold.Rescore>
     Score         DG    S(hbond)    S(metal)    S(lipo)     H(rot)  DE(clash)    DE(int)     intcor
     10.14     -11.70       0.99        0.00      60.41       1.62       0.02       1.54       ----

> <Gold.Chemscore.Fitness>
10.1447

> <Gold.Chemscore.DG>
-11.7048

> <Gold.Chemscore.ZeroCoef>
-5.4800

> <Gold.Chemscore.Hbond>
0.9886

> <Gold.Chemscore.Metal>
0.0000

> <Gold.Chemscore.Lipo>
60.4119

> <Gold.Chemscore.Internal_Hbond>
0.0000

> <Gold.Chemscore.DEClash>
0.0215

> <Gold.Chemscore.DEInternal>
1.5386

> <Gold.Chemscore.Rot>
1.6192

> <Gold.Chemscore.Internal.Correction>
   9.000000E+99

> <Gold.Chemscore.Hbonds>
donor molecule, donor type, donor heavy atom, donor atom, acceptor molecule, acceptor atom, score
      L1  H    11    24       P1  8028  0.98

> <Gold.Chemscore.Hbond.Weighted>
-3.3019

> <Gold.Chemscore.Metal.Weighted>
-0.0000

> <Gold.Chemscore.Lipo.Weighted>
-7.0682

> <Gold.Chemscore.Internal_Hbond.Weighted>
0.0000

> <Gold.Chemscore.DEClash.Weighted>
0.0215

> <Gold.Chemscore.DEInternal.Weighted>
1.5386

> <Gold.Chemscore.Rot.Weighted>
4.1452

> <Gold.Chemscore.Internal.Correction.Weighted>
   9.000000E+99

> <Gold.Protein.RotatedTorsions>
[ 6907 6896 6895 6894 ] final   -2.37 input  -60.11 | X-H torsion
[ 7974 7965 7964 7962 ] final   58.27 input  175.53 | X-H torsion
[ 8008 7997 7996 7995 ] final -160.17 input   59.86 | X-H torsion
[ 10167 10162 10161 10158 ] final  -60.81 input  -65.29 | X-H torsion
[ 10718 10713 10712 10709 ] final -176.09 input   66.30 | X-H torsion
[ 10763 10752 10751 10750 ] final -137.37 input  -60.55 | X-H torsion
[ 11005 11000 10999 10996 ] final    2.48 input  -57.11 | X-H torsion

> <Gold.Protein.ActiveResidues>
 VAL166  LYS551  ARG553  GLY616  TRP617  ASP618  TYR619  PRO620  LYS621  CYS622 
 ASP623  PHE694  ASN695  SER759  ASP760  ASP761  ALA762  ILE779  LEU786  VAL792 
 PHE793  MET794  SER795  GLU796  ALA797  LYS798  CYS799  TRP800  GLU811  SER814 

> <Gold.Protein.RotatedAtoms>
  151.5309  135.1068  159.9902 H   0  0  0  0  0  0  0  0  0  0  0  0  # atno 6907 bound_to 6896
  152.4579  133.7756  159.6833 H   0  0  0  0  0  0  0  0  0  0  0  0  # atno 6908 bound_to 6896
  150.8529  133.7694  159.3044 H   0  0  0  0  0  0  0  0  0  0  0  0  # atno 6909 bound_to 6896
  145.9200  139.3722  143.0484 H   0  0  0  0  0  0  0  0  0  0  0  0  # atno 7974 bound_to 7965
  155.7735  140.0855  157.2096 H   0  0  0  0  0  0  0  0  0  0  0  0  # atno 8008 bound_to 7997
  154.3994  140.1521  156.3026 H   0  0  0  0  0  0  0  0  0  0  0  0  # atno 8009 bound_to 7997
  155.8724  140.3425  155.5833 H   0  0  0  0  0  0  0  0  0  0  0  0  # atno 8010 bound_to 7997
  140.6047  143.2370  151.5848 H   0  0  0  0  0  0  0  0  0  0  0  0  # atno 10167 bound_to 10162
  156.8095  130.9581  151.3116 H   0  0  0  0  0  0  0  0  0  0  0  0  # atno 10718 bound_to 10713
  154.8663  135.3644  154.5211 H   0  0  0  0  0  0  0  0  0  0  0  0  # atno 10763 bound_to 10752
  153.5841  135.7017  153.5455 H   0  0  0  0  0  0  0  0  0  0  0  0  # atno 10764 bound_to 10752
  153.3431  135.4092  155.1549 H   0  0  0  0  0  0  0  0  0  0  0  0  # atno 10765 bound_to 10752
  140.6039  133.9811  155.8145 H   0  0  0  0  0  0  0  0  0  0  0  0  # atno 11005 bound_to 11000
  145.8562  140.9501  143.0724 LP  0  0  0  0  0  0  0  0  0  0  0  0  # atno 17320 bound_to 7965
  144.6752  140.0471  143.7479 LP  0  0  0  0  0  0  0  0  0  0  0  0  # atno 17321 bound_to 7965
  139.5316  144.2899  152.1161 LP  0  0  0  0  0  0  0  0  0  0  0  0  # atno 17342 bound_to 10162
  140.2086  144.4585  150.6396 LP  0  0  0  0  0  0  0  0  0  0  0  0  # atno 17343 bound_to 10162
  157.6513  130.8887  149.9639 LP  0  0  0  0  0  0  0  0  0  0  0  0  # atno 17370 bound_to 10713
  156.1053  130.3653  150.0145 LP  0  0  0  0  0  0  0  0  0  0  0  0  # atno 17371 bound_to 10713
  141.0854  133.9999  157.3322 LP  0  0  0  0  0  0  0  0  0  0  0  0  # atno 17394 bound_to 11000
  139.9221  135.0201  156.8101 LP  0  0  0  0  0  0  0  0  0  0  0  0  # atno 17395 bound_to 11000

$$$$
