AV-unprocessed.smi:112|AV-procd|sdf|1083|dock6
  -GOLD-   2262018173D 1   1.00000     0.00000
 Structure written by MMmdl.
 54 57  0  0  0  0  0  0  0  0  3 V2000
  144.3112  137.5272  155.7130 C   0  0  0  0  0  0  0  0  0  0  0  0
  144.9775  137.7725  154.3680 C   0  0  0  0  0  0  0  0  0  0  0  0
  144.9483  136.8562  153.3729 C   0  0  0  0  0  0  0  0  0  0  0  0
  145.5428  137.0499  152.1388 N   0  0  0  0  0  0  0  0  0  0  0  0
  145.4643  136.0156  151.0364 C   0  0  2  0  0  0  0  0  0  0  0  0
  143.9998  135.7057  150.6932 C   0  0  0  0  0  0  0  0  0  0  0  0
  143.9911  134.1927  150.5947 C   0  0  1  0  0  0  0  0  0  0  0  0
  144.2921  133.7759  149.2760 O   0  0  0  0  0  0  0  0  0  0  0  0
  145.0869  133.7999  151.5933 C   0  0  1  0  0  0  0  0  0  0  0  0
  145.7170  132.4068  151.4247 C   0  0  0  0  0  0  0  0  0  0  0  0
  146.9439  132.3363  152.1195 O   0  0  0  0  0  0  0  0  0  0  0  0
  146.0664  134.8250  151.4569 O   0  0  0  0  0  0  0  0  0  0  0  0
  146.2102  138.2613  151.8694 C   0  0  0  0  0  0  0  0  0  0  0  0
  146.7192  138.4683  150.7652 O   0  0  0  0  0  0  0  0  0  0  0  0
  146.2679  139.2353  152.8914 N   0  0  0  0  0  0  0  0  0  0  0  0
  146.9554  140.5156  152.6088 C   0  0  0  0  0  0  0  0  0  0  0  0
  147.8998  140.9763  153.7412 C   0  0  0  0  0  0  0  0  0  0  0  0
  147.8363  142.1430  154.1310 O   0  0  0  0  0  0  0  0  0  0  0  0
  148.7618  140.0655  154.2576 N   0  0  0  0  0  0  0  0  0  0  0  0
  148.8331  138.6653  153.8040 C   0  0  0  0  0  0  0  0  0  0  0  0
  149.9391  137.9921  154.6457 C   0  0  0  0  0  0  0  0  0  0  0  0
  150.4159  139.1050  155.5316 C   0  0  0  0  0  0  0  0  0  0  0  0
  151.4300  139.0297  156.5014 C   0  0  0  0  0  0  0  0  0  0  0  0
  151.7517  140.1910  157.2473 C   0  0  0  0  0  0  0  0  0  0  0  0
  152.8139  140.1504  158.2721 N   0  3  0  0  0  0  0  0  0  0  0  0
  152.8416  141.0398  159.1167 O   0  0  0  0  0  0  0  0  0  0  0  0
  153.6234  139.2292  158.2336 O   0  5  0  0  0  0  0  0  0  0  0  0
  151.0392  141.3932  156.9941 C   0  0  0  0  0  0  0  0  0  0  0  0
  150.0223  141.4506  156.0161 C   0  0  0  0  0  0  0  0  0  0  0  0
  149.7193  140.2821  155.2840 C   0  0  0  0  0  0  0  0  0  0  0  0
  145.6626  139.0503  154.1586 C   0  0  0  0  0  0  0  0  0  0  0  0
  145.7158  139.9351  155.0151 O   0  0  0  0  0  0  0  0  0  0  0  0
  143.8507  136.5402  155.7645 H   0  0  0  0  0  0  0  0  0  0  0  0
  143.5317  138.2684  155.8924 H   0  0  0  0  0  0  0  0  0  0  0  0
  145.0418  137.5956  156.5198 H   0  0  0  0  0  0  0  0  0  0  0  0
  144.4264  135.9315  153.5649 H   0  0  0  0  0  0  0  0  0  0  0  0
  146.0401  136.4099  150.1974 H   0  0  0  0  0  0  0  0  0  0  0  0
  143.3564  136.0264  151.5144 H   0  0  0  0  0  0  0  0  0  0  0  0
  143.6866  136.2199  149.7837 H   0  0  0  0  0  0  0  0  0  0  0  0
  143.0232  133.7752  150.8736 H   0  0  0  0  0  0  0  0  0  0  0  0
  144.9890  134.3202  148.9422 H   0  0  0  0  0  0  0  0  0  0  0  0
  144.6755  133.8816  152.6007 H   0  0  0  0  0  0  0  0  0  0  0  0
  145.0495  131.6188  151.7737 H   0  0  0  0  0  0  0  0  0  0  0  0
  145.9099  132.2136  150.3693 H   0  0  0  0  0  0  0  0  0  0  0  0
  147.6025  131.9966  151.5326 H   0  0  0  0  0  0  0  0  0  0  0  0
  147.5226  140.4496  151.6796 H   0  0  0  0  0  0  0  0  0  0  0  0
  146.2213  141.2997  152.4178 H   0  0  0  0  0  0  0  0  0  0  0  0
  147.8791  138.1594  153.9580 H   0  0  0  0  0  0  0  0  0  0  0  0
  149.0818  138.6130  152.7432 H   0  0  0  0  0  0  0  0  0  0  0  0
  149.5501  137.1674  155.2437 H   0  0  0  0  0  0  0  0  0  0  0  0
  150.7551  137.6231  154.0234 H   0  0  0  0  0  0  0  0  0  0  0  0
  151.9475  138.0956  156.6635 H   0  0  0  0  0  0  0  0  0  0  0  0
  151.2672  142.2903  157.5509 H   0  0  0  0  0  0  0  0  0  0  0  0
  149.5067  142.3840  155.8549 H   0  0  0  0  0  0  0  0  0  0  0  0
  1  2  1  0  0  0  0
  1 33  1  0  0  0  0
  1 34  1  0  0  0  0
  1 35  1  0  0  0  0
  2 31  1  0  0  0  0
  2  3  2  0  0  0  0
  3  4  1  0  0  0  0
  3 36  1  0  0  0  0
  4  5  1  0  0  0  0
  4 13  1  0  0  0  0
  5 12  1  0  0  0  0
  5  6  1  0  0  0  0
  5 37  1  0  0  0  0
  6  7  1  0  0  0  0
  6 38  1  0  0  0  0
  6 39  1  0  0  0  0
  7  8  1  0  0  0  0
  7  9  1  0  0  0  0
  7 40  1  0  0  0  0
  8 41  1  0  0  0  0
  9 10  1  0  0  0  0
  9 12  1  0  0  0  0
  9 42  1  0  0  0  0
 10 11  1  0  0  0  0
 10 43  1  0  0  0  0
 10 44  1  0  0  0  0
 11 45  1  0  0  0  0
 13 14  2  0  0  0  0
 13 15  1  0  0  0  0
 15 16  1  0  0  0  0
 15 31  1  0  0  0  0
 16 17  1  0  0  0  0
 16 46  1  0  0  0  0
 16 47  1  0  0  0  0
 17 18  2  0  0  0  0
 17 19  1  0  0  0  0
 19 30  1  0  0  0  0
 19 20  1  0  0  0  0
 20 21  1  0  0  0  0
 20 48  1  0  0  0  0
 20 49  1  0  0  0  0
 21 22  1  0  0  0  0
 21 50  1  0  0  0  0
 21 51  1  0  0  0  0
 22 30  2  0  0  0  0
 22 23  1  0  0  0  0
 23 24  2  0  0  0  0
 23 52  1  0  0  0  0
 24 25  1  0  0  0  0
 24 28  1  0  0  0  0
 25 26  2  0  0  0  0
 25 27  1  0  0  0  0
 28 29  2  0  0  0  0
 28 53  1  0  0  0  0
 29 30  1  0  0  0  0
 29 54  1  0  0  0  0
 31 32  2  0  0  0  0
M  CHG  1  25   1
M  CHG  1  27  -1
M  END
> <s_m_source_file>
AV-unprocessed.smi

> <i_m_source_file_index>
112

> <i_lp_mmshare_version>
43012

> <i_f3d_flags>
0

> <s_epik_input>
W09IXVtDSDJdW0NAQEhdKE8xKVtDQEhdKFtPSF0pW0NIMl1bQ0BIXTFuKFtjSF1jMltDSDNdKWMoPU8pbihjMj1PKVtDSDJdQyg9TylOKFtDSDJdW0NIMl0zKWMoYzM0KVtjSF1bY0hdYyhbY0hdNClbTitdKD1PKVtPLV0=

> <s_epik_cmdline>
J2VwaWtfcHl0aG9uJywgJy1waCcsICc3LjAnLCAnLXRuJywgJzgnLCAnLW1hJywgJzIwMCcsICctbWV0YWxfYmluZGluZycsICctaW1hZScsICc8aW5maWxlLm1hZT4nLCAnLW9tYWUnLCAnPG91dGZpbGUubWFlPic=

> <r_lp_tautomer_probability>
1

> <r_epik_Ionization_Penalty>
2.5696e-07

> <r_epik_Ionization_Penalty_Charging>
1.04886e-08

> <r_epik_Ionization_Penalty_Neutral>
2.46472e-07

> <r_epik_State_Penalty>
-0

> <r_epik_Charging_Adjusted_Penalty>
1.04886e-08

> <i_epik_Tot_Q>
0

> <i_epik_Tot_abs_Q>
2

> <r_epik_Metal_State_Penalty>
-0

> <b_epik_Metal_Only>
0

> <s_epik_Chemistry_Notes>
This compound contains an acetal/aminal-like group ( X-CH(R)-Y where X, Y are N, S, or O) that may be acid/base labile, releasing an aldehyde.

> <s_lp_Force_Field>
OPLS_2005

> <r_lp_Energy>
59.5699

> <b_lp_Chiralities_Consistent>
1

> <s_lp_Variant>
AV-unprocessed.smi:112-1

> <Gold.Version>
5.8.1

> <Gold.Id.Protein>
6NUR|6NUR_protein|mol2

> <Gold.PLP.Fitness>
52.5792

> <Gold.PLP.PLP>
-42.5401

> <Gold.PLP.part.hbond>
-4.0000

> <Gold.PLP.part.metal>
0.0000

> <Gold.PLP.part.buried>
-1.8020

> <Gold.PLP.part.nonpolar>
-40.5400

> <Gold.PLP.part.repulsive>
2.3863

> <Gold.PLP.ligand.clash>
0.5660

> <Gold.PLP.ligand.torsion>
0.6038

> <Gold.PLP.Chemscore.Hbond>
3.9280

> <Gold.PLP.Chemscore.CHOScore>
0.0000

> <Gold.PLP.Chemscore.Metal>
0.0000

> <Gold.Chemscore.Hbonds>
donor molecule, donor type, donor heavy atom, donor atom, acceptor molecule, acceptor atom, score
      L1  H     8    41       P1  7921  1.00
      L1  H    11    45       P1 10747  0.62
      P1  H  7954  7966       L1    14  0.96
      P1  H  7997  8010       L1    27  0.99

> <Gold.PLP.Chemscore.Internal.Correction>
0.0286

> <Gold.Rescore>
     Score         DG    S(hbond)    S(metal)    S(lipo)     H(rot)  DE(clash)    DE(int)     intcor
     12.62     -18.19       3.50        0.00      80.89       3.29       0.32       5.25       ----

> <Gold.Chemscore.Fitness>
12.6168

> <Gold.Chemscore.DG>
-18.1918

> <Gold.Chemscore.ZeroCoef>
-5.4800

> <Gold.Chemscore.Hbond>
3.4952

> <Gold.Chemscore.Metal>
0.0000

> <Gold.Chemscore.Lipo>
80.8929

> <Gold.Chemscore.Internal_Hbond>
0.0000

> <Gold.Chemscore.DEClash>
0.3216

> <Gold.Chemscore.DEInternal>
5.2534

> <Gold.Chemscore.Rot>
3.2916

> <Gold.Chemscore.Internal.Correction>
   9.000000E+99

> <Gold.Chemscore.Hbonds>
donor molecule, donor type, donor heavy atom, donor atom, acceptor molecule, acceptor atom, score
      L1  H     8    41       P1  7921  0.95
      L1  H    11    45       P1 10747  0.63
      P1  H  7954  7966       L1    14  0.92
      P1  H  7997  8010       L1    27  0.28

> <Gold.Chemscore.Hbond.Weighted>
-11.6739

> <Gold.Chemscore.Metal.Weighted>
-0.0000

> <Gold.Chemscore.Lipo.Weighted>
-9.4645

> <Gold.Chemscore.Internal_Hbond.Weighted>
0.0000

> <Gold.Chemscore.DEClash.Weighted>
0.3216

> <Gold.Chemscore.DEInternal.Weighted>
5.2534

> <Gold.Chemscore.Rot.Weighted>
8.4265

> <Gold.Chemscore.Internal.Correction.Weighted>
   9.000000E+99

> <Gold.Protein.RotatedTorsions>
[ 6907 6896 6895 6894 ] final   54.70 input  -60.11 | X-H torsion
[ 7974 7965 7964 7962 ] final  108.83 input  175.53 | X-H torsion
[ 8008 7997 7996 7995 ] final    6.81 input   59.86 | X-H torsion
[ 10167 10162 10161 10158 ] final -154.49 input  -65.29 | X-H torsion
[ 10718 10713 10712 10709 ] final -113.95 input   66.30 | X-H torsion
[ 10763 10752 10751 10750 ] final  -14.71 input  -60.55 | X-H torsion
[ 11005 11000 10999 10996 ] final  158.36 input  -57.11 | X-H torsion

> <Gold.Protein.ActiveResidues>
 VAL166  LYS551  ARG553  GLY616  TRP617  ASP618  TYR619  PRO620  LYS621  CYS622 
 ASP623  PHE694  ASN695  SER759  ASP760  ASP761  ALA762  ILE779  LEU786  VAL792 
 PHE793  MET794  SER795  GLU796  ALA797  LYS798  CYS799  TRP800  GLU811  SER814 

> <Gold.Protein.RotatedAtoms>
  152.3465  134.7064  160.0248 H   0  0  0  0  0  0  0  0  0  0  0  0  # atno 6907 bound_to 6896
  151.7432  133.3317  159.3379 H   0  0  0  0  0  0  0  0  0  0  0  0  # atno 6908 bound_to 6896
  150.7512  134.6193  159.6172 H   0  0  0  0  0  0  0  0  0  0  0  0  # atno 6909 bound_to 6896
  145.2756  139.2651  143.3943 H   0  0  0  0  0  0  0  0  0  0  0  0  # atno 7974 bound_to 7965
  154.7458  140.2757  155.6334 H   0  0  0  0  0  0  0  0  0  0  0  0  # atno 8008 bound_to 7997
  156.2884  140.2688  156.2124 H   0  0  0  0  0  0  0  0  0  0  0  0  # atno 8009 bound_to 7997
  155.0200  140.0371  157.2423 H   0  0  0  0  0  0  0  0  0  0  0  0  # atno 8010 bound_to 7997
  139.7009  143.9265  152.2428 H   0  0  0  0  0  0  0  0  0  0  0  0  # atno 10167 bound_to 10162
  156.0799  130.6000  150.8710 H   0  0  0  0  0  0  0  0  0  0  0  0  # atno 10718 bound_to 10713
  153.5323  135.7014  153.5677 H   0  0  0  0  0  0  0  0  0  0  0  0  # atno 10763 bound_to 10752
  153.3679  135.3952  155.1767 H   0  0  0  0  0  0  0  0  0  0  0  0  # atno 10764 bound_to 10752
  154.8683  135.3804  154.4821 H   0  0  0  0  0  0  0  0  0  0  0  0  # atno 10765 bound_to 10752
  140.1858  134.8443  157.2856 H   0  0  0  0  0  0  0  0  0  0  0  0  # atno 11005 bound_to 11000
  146.3233  140.3210  142.8633 LP  0  0  0  0  0  0  0  0  0  0  0  0  # atno 17320 bound_to 7965
  144.9297  140.7961  143.5697 LP  0  0  0  0  0  0  0  0  0  0  0  0  # atno 17321 bound_to 7965
  139.9107  144.6858  150.8565 LP  0  0  0  0  0  0  0  0  0  0  0  0  # atno 17342 bound_to 10162
  140.7709  143.3445  151.2138 LP  0  0  0  0  0  0  0  0  0  0  0  0  # atno 17343 bound_to 10162
  157.5911  131.0944  150.9117 LP  0  0  0  0  0  0  0  0  0  0  0  0  # atno 17370 bound_to 10713
  156.9293  130.5344  149.5279 LP  0  0  0  0  0  0  0  0  0  0  0  0  # atno 17371 bound_to 10713
  140.2215  134.4017  155.7563 LP  0  0  0  0  0  0  0  0  0  0  0  0  # atno 17394 bound_to 11000
  141.2225  133.7168  156.8498 LP  0  0  0  0  0  0  0  0  0  0  0  0  # atno 17395 bound_to 11000

$$$$
