AV-unprocessed.smi:2088|AV-procd|sdf|8527|dock9
  -GOLD-   2272011243D 1   1.00000     0.00000
 Structure written by MMmdl.
 33 34  0  0  0  0  0  0  0  0  1 V2000
  151.9178  139.8716  155.0649 O   0  0  0  0  0  0  0  0  0  0  0  0
  151.3982  140.1781  156.1376 C   0  0  0  0  0  0  0  0  0  0  0  0
  151.9715  139.6364  157.4461 C   0  0  0  0  0  0  0  0  0  0  0  0
  152.1962  140.7204  158.3852 N   0  0  0  0  0  0  0  0  0  0  0  0
  152.7557  140.6606  159.6434 C   0  0  0  0  0  0  0  0  0  0  0  0
  152.7870  141.9344  160.1336 C   0  0  0  0  0  0  0  0  0  0  0  0
  152.2194  142.7224  159.0903 C   0  0  0  0  0  0  0  0  0  0  0  0
  152.0021  144.2122  159.0563 C   0  0  0  0  0  0  0  0  0  0  0  0
  152.7830  144.7730  158.1330 F   0  0  0  0  0  0  0  0  0  0  0  0
  150.7297  144.4782  158.7607 F   0  0  0  0  0  0  0  0  0  0  0  0
  152.2929  144.7426  160.2441 F   0  0  0  0  0  0  0  0  0  0  0  0
  151.8648  141.9851  158.0463 N   0  0  0  0  0  0  0  0  0  0  0  0
  150.3506  141.0095  156.2483 N   0  0  0  0  0  0  0  0  0  0  0  0
  149.7462  141.7604  155.1538 C   0  0  0  0  0  0  0  0  0  0  0  0
  148.2564  141.4105  155.0014 C   0  0  1  0  0  0  0  0  0  0  0  0
  147.4171  142.4522  154.2593 C   0  0  0  0  0  0  0  0  0  0  0  0
  146.2677  141.6103  153.7566 C   0  0  0  0  0  0  0  0  0  0  0  0
  146.9759  140.3114  153.3815 C   0  0  0  0  0  0  0  0  0  0  0  0
  148.1021  140.2098  154.2498 O   0  0  0  0  0  0  0  0  0  0  0  0
  151.2942  138.9035  157.8876 H   0  0  0  0  0  0  0  0  0  0  0  0
  152.9189  139.1298  157.2577 H   0  0  0  0  0  0  0  0  0  0  0  0
  153.0869  139.7282  160.0766 H   0  0  0  0  0  0  0  0  0  0  0  0
  153.1643  142.2570  161.0925 H   0  0  0  0  0  0  0  0  0  0  0  0
  149.9945  141.1951  157.1749 H   0  0  0  0  0  0  0  0  0  0  0  0
  149.8727  142.8354  155.2915 H   0  0  0  0  0  0  0  0  0  0  0  0
  150.2768  141.5057  154.2362 H   0  0  0  0  0  0  0  0  0  0  0  0
  147.8155  141.2370  155.9847 H   0  0  0  0  0  0  0  0  0  0  0  0
  147.0975  143.2767  154.8978 H   0  0  0  0  0  0  0  0  0  0  0  0
  147.9729  142.8659  153.4165 H   0  0  0  0  0  0  0  0  0  0  0  0
  145.5547  141.4318  154.5626 H   0  0  0  0  0  0  0  0  0  0  0  0
  145.7343  142.0636  152.9205 H   0  0  0  0  0  0  0  0  0  0  0  0
  146.3237  139.4427  153.4719 H   0  0  0  0  0  0  0  0  0  0  0  0
  147.3368  140.3581  152.3536 H   0  0  0  0  0  0  0  0  0  0  0  0
  1  2  2  0  0  0  0
  2  3  1  0  0  0  0
  2 13  1  0  0  0  0
  3  4  1  0  0  0  0
  3 20  1  0  0  0  0
  3 21  1  0  0  0  0
  4 12  1  0  0  0  0
  4  5  1  0  0  0  0
  5  6  2  0  0  0  0
  5 22  1  0  0  0  0
  6  7  1  0  0  0  0
  6 23  1  0  0  0  0
  7  8  1  0  0  0  0
  7 12  2  0  0  0  0
  8  9  1  0  0  0  0
  8 10  1  0  0  0  0
  8 11  1  0  0  0  0
 13 14  1  0  0  0  0
 13 24  1  0  0  0  0
 14 15  1  0  0  0  0
 14 25  1  0  0  0  0
 14 26  1  0  0  0  0
 15 19  1  0  0  0  0
 15 16  1  0  0  0  0
 15 27  1  0  0  0  0
 16 17  1  0  0  0  0
 16 28  1  0  0  0  0
 16 29  1  0  0  0  0
 17 18  1  0  0  0  0
 17 30  1  0  0  0  0
 17 31  1  0  0  0  0
 18 19  1  0  0  0  0
 18 32  1  0  0  0  0
 18 33  1  0  0  0  0
M  END
> <s_m_source_file>
AV-unprocessed.smi

> <i_m_source_file_index>
2088

> <i_lp_mmshare_version>
43012

> <i_f3d_flags>
0

> <s_epik_input>
TzFbQ0gyXVtDSDJdW0NIMl1bQ0BIXTFbQ0gyXVtOSF1DKD1PKVtDSDJdbjJbY0hdW2NIXWMobjIpQyhGKShGKUY=

> <s_epik_cmdline>
J2VwaWtfcHl0aG9uJywgJy1waCcsICc3LjAnLCAnLXRuJywgJzgnLCAnLW1hJywgJzIwMCcsICctbWV0YWxfYmluZGluZycsICctaW1hZScsICc8aW5maWxlLm1hZT4nLCAnLW9tYWUnLCAnPG91dGZpbGUubWFlPic=

> <r_lp_tautomer_probability>
1

> <r_epik_Ionization_Penalty>
2.25732e-07

> <r_epik_Ionization_Penalty_Charging>
0

> <r_epik_Ionization_Penalty_Neutral>
2.25732e-07

> <r_epik_State_Penalty>
-0

> <r_epik_Charging_Adjusted_Penalty>
0

> <i_epik_Tot_Q>
0

> <i_epik_Tot_abs_Q>
0

> <r_epik_Metal_State_Penalty>
-0

> <b_epik_Metal_Only>
0

> <s_lp_Force_Field>
OPLS_2005

> <r_lp_Energy>
19.1857

> <b_lp_Chiralities_Consistent>
1

> <s_lp_Variant>
AV-unprocessed.smi:2088-2

> <Gold.Version>
5.8.1

> <Gold.Id.Protein>
6NUR|6NUR_protein|mol2

> <Gold.PLP.Fitness>
44.9380

> <Gold.PLP.PLP>
-43.2090

> <Gold.PLP.part.hbond>
-1.0000

> <Gold.PLP.part.metal>
0.0000

> <Gold.PLP.part.buried>
-2.2050

> <Gold.PLP.part.nonpolar>
-38.8323

> <Gold.PLP.part.repulsive>
0.2469

> <Gold.PLP.ligand.clash>
0.0000

> <Gold.PLP.ligand.torsion>
0.4428

> <Gold.PLP.Chemscore.Hbond>
0.8640

> <Gold.PLP.Chemscore.CHOScore>
0.0000

> <Gold.PLP.Chemscore.Metal>
0.0000

> <Gold.Chemscore.Hbonds>
donor molecule, donor type, donor heavy atom, donor atom, acceptor molecule, acceptor atom, score
      P1  H  7989  7998       L1     1  0.91

> <Gold.PLP.Chemscore.Internal.Correction>
0.0226

> <Gold.Rescore>
     Score         DG    S(hbond)    S(metal)    S(lipo)     H(rot)  DE(clash)    DE(int)     intcor
     11.93     -12.68       0.90        0.00      77.27       1.89       0.34       0.41       ----

> <Gold.Chemscore.Fitness>
11.9311

> <Gold.Chemscore.DG>
-12.6811

> <Gold.Chemscore.ZeroCoef>
-5.4800

> <Gold.Chemscore.Hbond>
0.9001

> <Gold.Chemscore.Metal>
0.0000

> <Gold.Chemscore.Lipo>
77.2671

> <Gold.Chemscore.Internal_Hbond>
0.0000

> <Gold.Chemscore.DEClash>
0.3361

> <Gold.Chemscore.DEInternal>
0.4139

> <Gold.Chemscore.Rot>
1.8928

> <Gold.Chemscore.Internal.Correction>
   9.000000E+99

> <Gold.Chemscore.Hbonds>
donor molecule, donor type, donor heavy atom, donor atom, acceptor molecule, acceptor atom, score
      P1  H  7989  7998       L1     1  0.89

> <Gold.Chemscore.Hbond.Weighted>
-3.0063

> <Gold.Chemscore.Metal.Weighted>
-0.0000

> <Gold.Chemscore.Lipo.Weighted>
-9.0403

> <Gold.Chemscore.Internal_Hbond.Weighted>
0.0000

> <Gold.Chemscore.DEClash.Weighted>
0.3361

> <Gold.Chemscore.DEInternal.Weighted>
0.4139

> <Gold.Chemscore.Rot.Weighted>
4.8455

> <Gold.Chemscore.Internal.Correction.Weighted>
   9.000000E+99

> <Gold.Protein.RotatedTorsions>
[ 6907 6896 6895 6894 ] final   29.01 input  -60.11 | X-H torsion
[ 7974 7965 7964 7962 ] final   34.89 input  175.53 | X-H torsion
[ 8008 7997 7996 7995 ] final  174.71 input   59.86 | X-H torsion
[ 10167 10162 10161 10158 ] final  -79.75 input  -65.29 | X-H torsion
[ 10718 10713 10712 10709 ] final -128.95 input   66.30 | X-H torsion
[ 10763 10752 10751 10750 ] final   12.39 input  -60.55 | X-H torsion
[ 11005 11000 10999 10996 ] final   22.98 input  -57.11 | X-H torsion

> <Gold.Protein.ActiveResidues>
 VAL166  LYS551  ARG553  GLY616  TRP617  ASP618  TYR619  PRO620  LYS621  CYS622 
 ASP623  PHE694  ASN695  SER759  ASP760  ASP761  ALA762  ILE779  LEU786  VAL792 
 PHE793  MET794  SER795  GLU796  ALA797  LYS798  CYS799  TRP800  GLU811  SER814 

> <Gold.Protein.RotatedAtoms>
  152.0253  134.9799  160.0571 H   0  0  0  0  0  0  0  0  0  0  0  0  # atno 6907 bound_to 6896
  152.1297  133.4396  159.4723 H   0  0  0  0  0  0  0  0  0  0  0  0  # atno 6908 bound_to 6896
  150.6855  134.2354  159.4494 H   0  0  0  0  0  0  0  0  0  0  0  0  # atno 6909 bound_to 6896
  146.1322  139.6212  142.9219 H   0  0  0  0  0  0  0  0  0  0  0  0  # atno 7974 bound_to 7965
  156.0946  140.1427  156.9548 H   0  0  0  0  0  0  0  0  0  0  0  0  # atno 8008 bound_to 7997
  154.4663  140.0925  156.7075 H   0  0  0  0  0  0  0  0  0  0  0  0  # atno 8009 bound_to 7997
  155.4863  140.3446  155.4350 H   0  0  0  0  0  0  0  0  0  0  0  0  # atno 8010 bound_to 7997
  140.4565  143.2467  151.8412 H   0  0  0  0  0  0  0  0  0  0  0  0  # atno 10167 bound_to 10162
  156.1999  130.6851  151.0527 H   0  0  0  0  0  0  0  0  0  0  0  0  # atno 10718 bound_to 10713
  153.1828  135.6830  153.8455 H   0  0  0  0  0  0  0  0  0  0  0  0  # atno 10763 bound_to 10752
  153.7781  135.3186  155.3363 H   0  0  0  0  0  0  0  0  0  0  0  0  # atno 10764 bound_to 10752
  154.8070  135.4742  154.0513 H   0  0  0  0  0  0  0  0  0  0  0  0  # atno 10765 bound_to 10752
  140.3746  134.1985  155.7665 H   0  0  0  0  0  0  0  0  0  0  0  0  # atno 11005 bound_to 11000
  145.5236  141.0430  143.2422 LP  0  0  0  0  0  0  0  0  0  0  0  0  # atno 17320 bound_to 7965
  144.7702  139.6753  143.7198 LP  0  0  0  0  0  0  0  0  0  0  0  0  # atno 17321 bound_to 7965
  139.4801  144.5059  151.8998 LP  0  0  0  0  0  0  0  0  0  0  0  0  # atno 17342 bound_to 10162
  140.4145  144.2325  150.5888 LP  0  0  0  0  0  0  0  0  0  0  0  0  # atno 17343 bound_to 10162
  157.6980  131.0787  150.6910 LP  0  0  0  0  0  0  0  0  0  0  0  0  # atno 17370 bound_to 10713
  156.6967  130.4611  149.5584 LP  0  0  0  0  0  0  0  0  0  0  0  0  # atno 17371 bound_to 10713
  141.1943  133.8130  157.0761 LP  0  0  0  0  0  0  0  0  0  0  0  0  # atno 17394 bound_to 11000
  140.0525  134.9798  157.1162 LP  0  0  0  0  0  0  0  0  0  0  0  0  # atno 17395 bound_to 11000

$$$$
