AV-unprocessed.smi:1208|AV-procd|sdf|5061|dock7
  -GOLD-   22720 4103D 1   1.00000     0.00000
 Structure written by MMmdl.
 35 36  0  0  0  0  0  0  0  0  2 V2000
  151.0920  136.7495  156.4957 C   0  0  0  0  0  0  0  0  0  0  0  0
  151.1477  137.4588  157.8577 C   0  0  2  0  0  0  0  0  0  0  0  0
  149.8088  137.4471  158.4434 N   0  0  0  0  0  0  0  0  0  0  0  0
  149.0302  136.3674  158.6170 C   0  0  0  0  0  0  0  0  0  0  0  0
  149.3690  135.2292  158.2879 O   0  0  0  0  0  0  0  0  0  0  0  0
  147.6623  136.6402  159.2635 C   0  0  0  0  0  0  0  0  0  0  0  0
  147.5089  136.0873  160.6174 N   0  0  0  0  0  0  0  0  0  0  0  0
  147.7581  137.0564  161.6816 N   0  5  0  0  0  0  0  0  0  0  0  0
  147.6352  136.6635  162.9772 C   0  0  0  0  0  0  0  0  0  0  0  0
  147.8169  137.4247  163.9248 O   0  0  0  0  0  0  0  0  0  0  0  0
  147.2769  135.2798  163.2418 C   0  0  0  0  0  0  0  0  0  0  0  0
  147.0736  134.4016  162.2400 C   0  0  0  0  0  0  0  0  0  0  0  0
  147.1936  134.7788  160.8368 C   0  0  0  0  0  0  0  0  0  0  0  0
  147.0211  133.9789  159.9168 O   0  0  0  0  0  0  0  0  0  0  0  0
  151.6504  138.9124  157.7440 C   0  0  2  0  0  0  0  0  0  0  0  0
  151.8128  139.6366  159.0827 C   0  0  0  0  0  0  0  0  0  0  0  0
  151.6735  141.0835  158.6710 C   0  0  0  0  0  0  0  0  0  0  0  0
  150.5772  140.9944  157.6154 C   0  0  0  0  0  0  0  0  0  0  0  0
  150.7204  139.7113  157.0129 O   0  0  0  0  0  0  0  0  0  0  0  0
  152.0785  136.6908  156.0359 H   0  0  0  0  0  0  0  0  0  0  0  0
  150.4319  137.2718  155.8024 H   0  0  0  0  0  0  0  0  0  0  0  0
  150.7233  135.7287  156.6015 H   0  0  0  0  0  0  0  0  0  0  0  0
  151.8406  136.9036  158.4922 H   0  0  0  0  0  0  0  0  0  0  0  0
  149.4425  138.3368  158.7486 H   0  0  0  0  0  0  0  0  0  0  0  0
  147.4943  137.7183  159.2859 H   0  0  0  0  0  0  0  0  0  0  0  0
  146.8887  136.2394  158.6054 H   0  0  0  0  0  0  0  0  0  0  0  0
  147.1736  134.9484  164.2645 H   0  0  0  0  0  0  0  0  0  0  0  0
  146.8103  133.3829  162.4830 H   0  0  0  0  0  0  0  0  0  0  0  0
  152.6001  138.9423  157.2072 H   0  0  0  0  0  0  0  0  0  0  0  0
  151.0080  139.3667  159.7682 H   0  0  0  0  0  0  0  0  0  0  0  0
  152.7642  139.4231  159.5706 H   0  0  0  0  0  0  0  0  0  0  0  0
  151.4174  141.7448  159.4990 H   0  0  0  0  0  0  0  0  0  0  0  0
  152.6027  141.4368  158.2219 H   0  0  0  0  0  0  0  0  0  0  0  0
  149.5935  141.0475  158.0834 H   0  0  0  0  0  0  0  0  0  0  0  0
  150.6446  141.7926  156.8761 H   0  0  0  0  0  0  0  0  0  0  0  0
  1  2  1  0  0  0  0
  1 20  1  0  0  0  0
  1 21  1  0  0  0  0
  1 22  1  0  0  0  0
  2  3  1  0  0  0  0
  2 15  1  0  0  0  0
  2 23  1  0  0  0  0
  3  4  1  0  0  0  0
  3 24  1  0  0  0  0
  4  5  2  0  0  0  0
  4  6  1  0  0  0  0
  6 25  1  0  0  0  0
  6 26  1  0  0  0  0
  6  7  1  0  0  0  0
  7  8  1  0  0  0  0
  7 13  1  0  0  0  0
  8  9  1  0  0  0  0
  9 10  2  0  0  0  0
  9 11  1  0  0  0  0
 11 27  1  0  0  0  0
 11 12  2  0  0  0  0
 12 28  1  0  0  0  0
 12 13  1  0  0  0  0
 13 14  2  0  0  0  0
 15 19  1  0  0  0  0
 15 16  1  0  0  0  0
 15 29  1  0  0  0  0
 16 17  1  0  0  0  0
 16 30  1  0  0  0  0
 16 31  1  0  0  0  0
 17 18  1  0  0  0  0
 17 32  1  0  0  0  0
 17 33  1  0  0  0  0
 18 19  1  0  0  0  0
 18 34  1  0  0  0  0
 18 35  1  0  0  0  0
M  CHG  1   8  -1
M  END
> <s_m_source_file>
AV-unprocessed.smi

> <i_m_source_file_index>
1208

> <i_lp_mmshare_version>
43012

> <i_f3d_flags>
0

> <s_epik_input>
TzFbQ0gyXVtDSDJdW0NIMl1bQ0BIXTFbQ0BIXShbQ0gzXSlbTkhdQyg9TylbQ0gyXW4yW25IXWMoPU8pW2NIXVtjSF1jMj1P

> <s_epik_cmdline>
J2VwaWtfcHl0aG9uJywgJy1waCcsICc3LjAnLCAnLXRuJywgJzgnLCAnLW1hJywgJzIwMCcsICctbWV0YWxfYmluZGluZycsICctaW1hZScsICc8aW5maWxlLm1hZT4nLCAnLW9tYWUnLCAnPG91dGZpbGUubWFlPic=

> <r_lp_tautomer_probability>
1

> <r_epik_Ionization_Penalty>
0.0975494

> <r_epik_Ionization_Penalty_Charging>
0.0975494

> <r_epik_Ionization_Penalty_Neutral>
2.30132e-08

> <r_epik_State_Penalty>
0.034345

> <r_epik_Charging_Adjusted_Penalty>
0.131894

> <i_epik_Tot_Q>
-1

> <i_epik_Tot_abs_Q>
1

> <r_epik_Metal_State_Penalty>
0.034345

> <b_epik_Metal_Only>
0

> <s_lp_Force_Field>
OPLS_2005

> <r_lp_Energy>
34.668

> <b_lp_Chiralities_Consistent>
1

> <s_lp_Variant>
AV-unprocessed.smi:1208-1

> <Gold.Version>
5.8.1

> <Gold.Id.Protein>
6NUR|6NUR_protein|mol2

> <Gold.PLP.Fitness>
40.9755

> <Gold.PLP.PLP>
-29.2386

> <Gold.PLP.part.hbond>
-4.3290

> <Gold.PLP.part.metal>
0.0000

> <Gold.PLP.part.buried>
-3.2143

> <Gold.PLP.part.nonpolar>
-23.4152

> <Gold.PLP.part.repulsive>
0.2086

> <Gold.PLP.ligand.clash>
0.0000

> <Gold.PLP.ligand.torsion>
0.4325

> <Gold.PLP.Chemscore.Hbond>
4.1969

> <Gold.PLP.Chemscore.CHOScore>
0.0000

> <Gold.PLP.Chemscore.Metal>
0.0000

> <Gold.Chemscore.Hbonds>
donor molecule, donor type, donor heavy atom, donor atom, acceptor molecule, acceptor atom, score
      P1  H  6896  6908       L1     5  1.00
      P1  H  6931  6943       L1     8  1.80
      P1  H  6934  6947       L1     8  0.91

> <Gold.PLP.Chemscore.Internal.Correction>
0.0112

> <Gold.Rescore>
     Score         DG    S(hbond)    S(metal)    S(lipo)     H(rot)  DE(clash)    DE(int)     intcor
     10.62     -12.66       1.90        0.00      50.89       1.99       0.37       1.67       ----

> <Gold.Chemscore.Fitness>
10.6248

> <Gold.Chemscore.DG>
-12.6602

> <Gold.Chemscore.ZeroCoef>
-5.4800

> <Gold.Chemscore.Hbond>
1.8954

> <Gold.Chemscore.Metal>
0.0000

> <Gold.Chemscore.Lipo>
50.8922

> <Gold.Chemscore.Internal_Hbond>
0.0000

> <Gold.Chemscore.DEClash>
0.3663

> <Gold.Chemscore.DEInternal>
1.6691

> <Gold.Chemscore.Rot>
1.9940

> <Gold.Chemscore.Internal.Correction>
   9.000000E+99

> <Gold.Chemscore.Hbonds>
donor molecule, donor type, donor heavy atom, donor atom, acceptor molecule, acceptor atom, score
      P1  H  6896  6908       L1     5  0.92
      P1  H  6931  6943       L1     8  0.18
      P1  H  6934  6947       L1     8  0.30

> <Gold.Chemscore.Hbond.Weighted>
-6.3305

> <Gold.Chemscore.Metal.Weighted>
-0.0000

> <Gold.Chemscore.Lipo.Weighted>
-5.9544

> <Gold.Chemscore.Internal_Hbond.Weighted>
0.0000

> <Gold.Chemscore.DEClash.Weighted>
0.3663

> <Gold.Chemscore.DEInternal.Weighted>
1.6691

> <Gold.Chemscore.Rot.Weighted>
5.1047

> <Gold.Chemscore.Internal.Correction.Weighted>
   9.000000E+99

> <Gold.Protein.RotatedTorsions>
[ 6907 6896 6895 6894 ] final  153.83 input  -60.11 | X-H torsion
[ 7974 7965 7964 7962 ] final   16.29 input  175.53 | X-H torsion
[ 8008 7997 7996 7995 ] final    0.12 input   59.86 | X-H torsion
[ 10167 10162 10161 10158 ] final  -17.79 input  -65.29 | X-H torsion
[ 10718 10713 10712 10709 ] final   12.63 input   66.30 | X-H torsion
[ 10763 10752 10751 10750 ] final  -31.86 input  -60.55 | X-H torsion
[ 11005 11000 10999 10996 ] final   83.79 input  -57.11 | X-H torsion

> <Gold.Protein.ActiveResidues>
 VAL166  LYS551  ARG553  GLY616  TRP617  ASP618  TYR619  PRO620  LYS621  CYS622 
 ASP623  PHE694  ASN695  SER759  ASP760  ASP761  ALA762  ILE779  LEU786  VAL792 
 PHE793  MET794  SER795  GLU796  ALA797  LYS798  CYS799  TRP800  GLU811  SER814 

> <Gold.Protein.RotatedAtoms>
  152.0671  133.4089  159.4442 H   0  0  0  0  0  0  0  0  0  0  0  0  # atno 6907 bound_to 6896
  150.6864  134.3134  159.4765 H   0  0  0  0  0  0  0  0  0  0  0  0  # atno 6908 bound_to 6896
  152.0962  134.9373  160.0621 H   0  0  0  0  0  0  0  0  0  0  0  0  # atno 6909 bound_to 6896
  146.2254  139.8769  142.8577 H   0  0  0  0  0  0  0  0  0  0  0  0  # atno 7974 bound_to 7965
  154.6644  140.2598  155.7074 H   0  0  0  0  0  0  0  0  0  0  0  0  # atno 8008 bound_to 7997
  156.2632  140.2842  156.1050 H   0  0  0  0  0  0  0  0  0  0  0  0  # atno 8009 bound_to 7997
  155.1261  140.0378  157.2753 H   0  0  0  0  0  0  0  0  0  0  0  0  # atno 8010 bound_to 7997
  140.7251  143.4980  150.9906 H   0  0  0  0  0  0  0  0  0  0  0  0  # atno 10167 bound_to 10162
  157.0129  130.6124  149.5710 H   0  0  0  0  0  0  0  0  0  0  0  0  # atno 10718 bound_to 10713
  153.8043  135.6887  153.4850 H   0  0  0  0  0  0  0  0  0  0  0  0  # atno 10763 bound_to 10752
  153.1668  135.4558  154.9847 H   0  0  0  0  0  0  0  0  0  0  0  0  # atno 10764 bound_to 10752
  154.7993  135.3331  154.7529 H   0  0  0  0  0  0  0  0  0  0  0  0  # atno 10765 bound_to 10752
  139.9020  134.8170  156.2358 H   0  0  0  0  0  0  0  0  0  0  0  0  # atno 11005 bound_to 11000
  145.2552  141.0058  143.3858 LP  0  0  0  0  0  0  0  0  0  0  0  0  # atno 17320 bound_to 7965
  144.9343  139.4262  143.6480 LP  0  0  0  0  0  0  0  0  0  0  0  0  # atno 17321 bound_to 7965
  139.8688  143.7219  152.3168 LP  0  0  0  0  0  0  0  0  0  0  0  0  # atno 17342 bound_to 10162
  139.7461  144.7547  151.0578 LP  0  0  0  0  0  0  0  0  0  0  0  0  # atno 17343 bound_to 10162
  156.0129  130.5222  150.8046 LP  0  0  0  0  0  0  0  0  0  0  0  0  # atno 17370 bound_to 10713
  157.5307  131.0936  150.9959 LP  0  0  0  0  0  0  0  0  0  0  0  0  # atno 17371 bound_to 10713
  141.0317  133.6985  156.1441 LP  0  0  0  0  0  0  0  0  0  0  0  0  # atno 17394 bound_to 11000
  140.7087  134.4485  157.5583 LP  0  0  0  0  0  0  0  0  0  0  0  0  # atno 17395 bound_to 11000

$$$$
