AV-unprocessed.smi:2528|AV-procd|sdf|9953|dock8
  -GOLD-   2272013593D 1   1.00000     0.00000
 Structure written by MMmdl.
 44 46  0  0  0  0  0  0  0  0  2 V2000
  144.7680  137.4849  152.4198 O   0  0  0  0  0  0  0  0  0  0  0  0
  145.9502  137.1901  152.2399 C   0  0  0  0  0  0  0  0  0  0  0  0
  146.9529  138.0730  152.3540 N   0  0  0  0  0  0  0  0  0  0  0  0
  146.7897  139.4766  152.7179 C   0  0  0  0  0  0  0  0  0  0  0  0
  147.6071  139.8470  153.9682 C   0  0  1  0  0  0  0  0  0  0  0  0
  147.9546  141.3518  153.9984 C   0  0  0  0  0  0  0  0  0  0  0  0
  148.6433  141.7264  155.2574 N   0  3  2  0  0  0  0  0  0  0  0  0
  150.0774  141.3284  155.2876 C   0  0  0  0  0  0  0  0  0  0  0  0
  150.7607  141.7963  156.5805 C   0  0  0  0  0  0  0  0  0  0  0  0
  150.0261  141.2482  157.8089 C   0  0  0  0  0  0  0  0  0  0  0  0
  148.5517  141.6716  157.7650 C   0  0  0  0  0  0  0  0  0  0  0  0
  147.8619  141.2751  156.4422 C   0  0  2  0  0  0  0  0  0  0  0  0
  147.5310  139.7714  156.3367 C   0  0  0  0  0  0  0  0  0  0  0  0
  146.8327  139.5284  155.1211 O   0  0  0  0  0  0  0  0  0  0  0  0
  146.4081  135.9700  151.9092 N   0  0  0  0  0  0  0  0  0  0  0  0
  145.6616  134.7789  151.7046 C   0  0  0  0  0  0  0  0  0  0  0  0
  146.4334  133.6002  151.5928 C   0  0  0  0  0  0  0  0  0  0  0  0
  145.7869  132.3653  151.3903 C   0  0  0  0  0  0  0  0  0  0  0  0
  144.3834  132.3412  151.3039 C   0  0  0  0  0  0  0  0  0  0  0  0
  143.6906  133.5599  151.4236 C   0  0  0  0  0  0  0  0  0  0  0  0
  144.3081  134.7446  151.6175 N   0  0  0  0  0  0  0  0  0  0  0  0
  147.8951  137.7516  152.1862 H   0  0  0  0  0  0  0  0  0  0  0  0
  147.0815  140.1046  151.8743 H   0  0  0  0  0  0  0  0  0  0  0  0
  145.7301  139.6666  152.8915 H   0  0  0  0  0  0  0  0  0  0  0  0
  148.5254  139.2586  153.9774 H   0  0  0  0  0  0  0  0  0  0  0  0
  148.5685  141.6260  153.1396 H   0  0  0  0  0  0  0  0  0  0  0  0
  147.0384  141.9393  153.9228 H   0  0  0  0  0  0  0  0  0  0  0  0
  150.1790  140.2472  155.1954 H   0  0  0  0  0  0  0  0  0  0  0  0
  150.5897  141.7637  154.4289 H   0  0  0  0  0  0  0  0  0  0  0  0
  151.8006  141.4686  156.5916 H   0  0  0  0  0  0  0  0  0  0  0  0
  150.7781  142.8865  156.6158 H   0  0  0  0  0  0  0  0  0  0  0  0
  150.1055  140.1608  157.8362 H   0  0  0  0  0  0  0  0  0  0  0  0
  150.4949  141.6166  158.7219 H   0  0  0  0  0  0  0  0  0  0  0  0
  148.0139  141.2479  158.6139 H   0  0  0  0  0  0  0  0  0  0  0  0
  148.4950  142.7546  157.8835 H   0  0  0  0  0  0  0  0  0  0  0  0
  146.9104  141.8085  156.4118 H   0  0  0  0  0  0  0  0  0  0  0  0
  148.4268  139.1513  156.3857 H   0  0  0  0  0  0  0  0  0  0  0  0
  146.8928  139.4686  157.1669 H   0  0  0  0  0  0  0  0  0  0  0  0
  147.4074  135.8798  151.7997 H   0  0  0  0  0  0  0  0  0  0  0  0
  147.5109  133.6365  151.6631 H   0  0  0  0  0  0  0  0  0  0  0  0
  146.3589  131.4533  151.3033 H   0  0  0  0  0  0  0  0  0  0  0  0
  143.8518  131.4139  151.1494 H   0  0  0  0  0  0  0  0  0  0  0  0
  142.6125  133.5855  151.3615 H   0  0  0  0  0  0  0  0  0  0  0  0
  148.6474  142.7361  155.2892 H   0  0  0  0  0  0  0  0  0  0  0  0
  1  2  2  0  0  0  0
  2  3  1  0  0  0  0
  2 15  1  0  0  0  0
  3  4  1  0  0  0  0
  3 22  1  0  0  0  0
  4  5  1  0  0  0  0
  4 23  1  0  0  0  0
  4 24  1  0  0  0  0
  5 14  1  0  0  0  0
  5  6  1  0  0  0  0
  5 25  1  0  0  0  0
  6  7  1  0  0  0  0
  6 26  1  0  0  0  0
  6 27  1  0  0  0  0
  7 12  1  0  0  0  0
  7  8  1  0  0  0  0
  7 44  1  0  0  0  0
  8  9  1  0  0  0  0
  8 28  1  0  0  0  0
  8 29  1  0  0  0  0
  9 10  1  0  0  0  0
  9 30  1  0  0  0  0
  9 31  1  0  0  0  0
 10 11  1  0  0  0  0
 10 32  1  0  0  0  0
 10 33  1  0  0  0  0
 11 12  1  0  0  0  0
 11 34  1  0  0  0  0
 11 35  1  0  0  0  0
 12 13  1  0  0  0  0
 12 36  1  0  0  0  0
 13 14  1  0  0  0  0
 13 37  1  0  0  0  0
 13 38  1  0  0  0  0
 15 16  1  0  0  0  0
 15 39  1  0  0  0  0
 16 21  1  0  0  0  0
 16 17  2  0  0  0  0
 17 18  1  0  0  0  0
 17 40  1  0  0  0  0
 18 19  2  0  0  0  0
 18 41  1  0  0  0  0
 19 20  1  0  0  0  0
 19 42  1  0  0  0  0
 20 21  2  0  0  0  0
 20 43  1  0  0  0  0
M  CHG  1   7   1
M  END
> <s_m_source_file>
AV-unprocessed.smi

> <i_m_source_file_index>
2528

> <i_lp_mmshare_version>
43012

> <i_f3d_flags>
0

> <s_epik_input>
bjFbY0hdW2NIXVtjSF1bY0hdYzFbTkhdQyg9TylbTkhdW0NIMl1bQ0BIXShbQ0gyXTIpT1tDSDJdW0NAQEhdKE4yMylbQ0gyXVtDSDJdW0NIMl1bQ0gyXTM=

> <s_epik_cmdline>
J2VwaWtfcHl0aG9uJywgJy1waCcsICc3LjAnLCAnLXRuJywgJzgnLCAnLW1hJywgJzIwMCcsICctbWV0YWxfYmluZGluZycsICctaW1hZScsICc8aW5maWxlLm1hZT4nLCAnLW9tYWUnLCAnPG91dGZpbGUubWFlPic=

> <r_epik_Ionization_Penalty>
0.0932337

> <r_epik_Ionization_Penalty_Charging>
0.0931942

> <r_epik_Ionization_Penalty_Neutral>
3.9565e-05

> <r_epik_State_Penalty>
0.0834605

> <r_epik_Charging_Adjusted_Penalty>
0.176655

> <i_epik_Tot_Q>
1

> <i_epik_Tot_abs_Q>
1

> <r_epik_Metal_State_Penalty>
0.0834607

> <b_epik_Metal_Only>
0

> <s_lp_Force_Field>
OPLS_2005

> <r_lp_Energy>
28.0088

> <b_lp_Chiralities_Consistent>
1

> <s_lp_Variant>
AV-unprocessed.smi:2528-6

> <Gold.Version>
5.8.1

> <Gold.Id.Protein>
6NUR|6NUR_protein|mol2

> <Gold.PLP.Fitness>
46.3587

> <Gold.PLP.PLP>
-32.2476

> <Gold.PLP.part.hbond>
-3.0000

> <Gold.PLP.part.metal>
0.0000

> <Gold.PLP.part.buried>
-5.6599

> <Gold.PLP.part.nonpolar>
-25.7570

> <Gold.PLP.part.repulsive>
1.7699

> <Gold.PLP.ligand.clash>
0.0000

> <Gold.PLP.ligand.torsion>
0.3131

> <Gold.PLP.Chemscore.Hbond>
3.9120

> <Gold.PLP.Chemscore.CHOScore>
0.9999

> <Gold.PLP.Chemscore.Metal>
0.0000

> <Gold.Chemscore.Hbonds>
donor molecule, donor type, donor heavy atom, donor atom, acceptor molecule, acceptor atom, score
      L1  H     3    22       P1  7948  0.90
      L1  H     7    44       P1  8028  2.00
      L1  H    15    39       P1  7948  1.00
      L1  C    20    43       P1 10186  0.95

> <Gold.PLP.Chemscore.Internal.Correction>
0.0017

> <Gold.Rescore>
     Score         DG    S(hbond)    S(metal)    S(lipo)     H(rot)  DE(clash)    DE(int)     intcor
     18.38     -20.12       2.85        0.00      71.83       1.29       0.17       1.57       ----

> <Gold.Chemscore.Fitness>
18.3822

> <Gold.Chemscore.DG>
-20.1232

> <Gold.Chemscore.ZeroCoef>
-5.4800

> <Gold.Chemscore.Hbond>
2.8545

> <Gold.Chemscore.Metal>
0.0000

> <Gold.Chemscore.Lipo>
71.8281

> <Gold.Chemscore.Internal_Hbond>
0.0000

> <Gold.Chemscore.DEClash>
0.1733

> <Gold.Chemscore.DEInternal>
1.5677

> <Gold.Chemscore.Rot>
1.2870

> <Gold.Chemscore.Internal.Correction>
   9.000000E+99

> <Gold.Chemscore.Hbonds>
donor molecule, donor type, donor heavy atom, donor atom, acceptor molecule, acceptor atom, score
      L1  H     3    22       P1  7948  0.88
      L1  H     7    44       P1  8028  0.94
      L1  H    15    39       P1  7948  0.95

> <Gold.Chemscore.Hbond.Weighted>
-9.5341

> <Gold.Chemscore.Metal.Weighted>
-0.0000

> <Gold.Chemscore.Lipo.Weighted>
-8.4039

> <Gold.Chemscore.Internal_Hbond.Weighted>
0.0000

> <Gold.Chemscore.DEClash.Weighted>
0.1733

> <Gold.Chemscore.DEInternal.Weighted>
1.5677

> <Gold.Chemscore.Rot.Weighted>
3.2948

> <Gold.Chemscore.Internal.Correction.Weighted>
   9.000000E+99

> <Gold.Protein.RotatedTorsions>
[ 6907 6896 6895 6894 ] final -120.32 input  -60.11 | X-H torsion
[ 7974 7965 7964 7962 ] final  -40.46 input  175.53 | X-H torsion
[ 8008 7997 7996 7995 ] final   15.13 input   59.86 | X-H torsion
[ 10167 10162 10161 10158 ] final  -63.38 input  -65.29 | X-H torsion
[ 10718 10713 10712 10709 ] final  -60.41 input   66.30 | X-H torsion
[ 10763 10752 10751 10750 ] final  -92.32 input  -60.55 | X-H torsion
[ 11005 11000 10999 10996 ] final   37.45 input  -57.11 | X-H torsion

> <Gold.Protein.ActiveResidues>
 VAL166  LYS551  ARG553  GLY616  TRP617  ASP618  TYR619  PRO620  LYS621  CYS622 
 ASP623  PHE694  ASN695  SER759  ASP760  ASP761  ALA762  ILE779  LEU786  VAL792 
 PHE793  MET794  SER795  GLU796  ALA797  LYS798  CYS799  TRP800  GLU811  SER814 

> <Gold.Protein.RotatedAtoms>
  150.8383  133.7977  159.3070 H   0  0  0  0  0  0  0  0  0  0  0  0  # atno 6907 bound_to 6896
  151.5687  135.1061  159.9999 H   0  0  0  0  0  0  0  0  0  0  0  0  # atno 6908 bound_to 6896
  152.4451  133.7479  159.6734 H   0  0  0  0  0  0  0  0  0  0  0  0  # atno 6909 bound_to 6896
  146.0302  140.6741  142.9136 H   0  0  0  0  0  0  0  0  0  0  0  0  # atno 7974 bound_to 7965
  154.8582  140.2940  155.5555 H   0  0  0  0  0  0  0  0  0  0  0  0  # atno 8008 bound_to 7997
  156.3019  140.2483  156.3485 H   0  0  0  0  0  0  0  0  0  0  0  0  # atno 8009 bound_to 7997
  154.8947  140.0393  157.1848 H   0  0  0  0  0  0  0  0  0  0  0  0  # atno 8010 bound_to 7997
  140.5875  143.2336  151.6212 H   0  0  0  0  0  0  0  0  0  0  0  0  # atno 10167 bound_to 10162
  156.0992  130.4188  150.0851 H   0  0  0  0  0  0  0  0  0  0  0  0  # atno 10718 bound_to 10713
  154.6849  135.5235  153.8312 H   0  0  0  0  0  0  0  0  0  0  0  0  # atno 10763 bound_to 10752
  153.0590  135.6561  154.0517 H   0  0  0  0  0  0  0  0  0  0  0  0  # atno 10764 bound_to 10752
  154.0399  135.2978  155.3336 H   0  0  0  0  0  0  0  0  0  0  0  0  # atno 10765 bound_to 10752
  140.2224  134.3625  155.7999 H   0  0  0  0  0  0  0  0  0  0  0  0  # atno 11005 bound_to 11000
  144.7027  140.3722  143.7143 LP  0  0  0  0  0  0  0  0  0  0  0  0  # atno 17320 bound_to 7965
  145.7053  139.1671  143.2569 LP  0  0  0  0  0  0  0  0  0  0  0  0  # atno 17321 bound_to 7965
  139.5206  144.3217  152.0905 LP  0  0  0  0  0  0  0  0  0  0  0  0  # atno 17342 bound_to 10162
  140.2376  144.4303  150.6273 LP  0  0  0  0  0  0  0  0  0  0  0  0  # atno 17343 bound_to 10162
  156.8842  130.9567  151.3596 LP  0  0  0  0  0  0  0  0  0  0  0  0  # atno 17370 bound_to 10713
  157.6159  130.8618  149.9028 LP  0  0  0  0  0  0  0  0  0  0  0  0  # atno 17371 bound_to 10713
  141.2222  133.7201  156.8598 LP  0  0  0  0  0  0  0  0  0  0  0  0  # atno 17394 bound_to 11000
  140.1835  134.9016  157.2977 LP  0  0  0  0  0  0  0  0  0  0  0  0  # atno 17395 bound_to 11000

$$$$
