AV-unprocessed.smi:1564|AV-procd|sdf|6294|dock3
  -GOLD-   22720 6493D 1   1.00000     0.00000
 Structure written by MMmdl.
 43 44  0  0  0  0  0  0  0  0  2 V2000
  136.2074  137.2508  155.6462 C   0  0  0  0  0  0  0  0  0  0  0  0
  136.6269  138.1205  154.6006 O   0  0  0  0  0  0  0  0  0  0  0  0
  137.9538  138.0982  154.2224 C   0  0  0  0  0  0  0  0  0  0  0  0
  138.6984  136.9234  154.4464 C   0  0  0  0  0  0  0  0  0  0  0  0
  140.0529  136.8914  154.0640 C   0  0  0  0  0  0  0  0  0  0  0  0
  140.6207  138.0383  153.4589 C   0  0  0  0  0  0  0  0  0  0  0  0
  141.9768  138.1396  153.0448 N   0  0  0  0  0  0  0  0  0  0  0  0
  142.9611  137.2327  153.1690 C   0  0  0  0  0  0  0  0  0  0  0  0
  142.8403  136.1093  153.6567 O   0  0  0  0  0  0  0  0  0  0  0  0
  144.1154  137.6956  152.6691 N   0  0  0  0  0  0  0  0  0  0  0  0
  145.3646  136.9423  152.6419 C   0  0  1  0  0  0  0  0  0  0  0  0
  145.7532  136.3160  153.9820 C   0  0  0  0  0  0  0  0  0  0  0  0
  146.5259  135.0419  153.6034 C   0  0  0  0  0  0  0  0  0  0  0  0
  146.4167  134.8832  152.1304 N   0  3  1  0  0  0  0  0  0  0  0  0
  146.3789  133.4742  151.6469 C   0  0  0  0  0  0  0  0  0  0  0  0
  144.9318  132.9519  151.5731 C   0  0  0  0  0  0  0  0  0  0  0  0
  147.2183  132.5431  152.5419 C   0  0  0  0  0  0  0  0  0  0  0  0
  145.2813  135.7330  151.7167 C   0  0  0  0  0  0  0  0  0  0  0  0
  139.7930  139.1681  153.2916 C   0  0  0  0  0  0  0  0  0  0  0  0
  138.4938  139.2053  153.6555 N   0  0  0  0  0  0  0  0  0  0  0  0
  135.1399  137.3853  155.8201 H   0  0  0  0  0  0  0  0  0  0  0  0
  136.7250  137.4720  156.5807 H   0  0  0  0  0  0  0  0  0  0  0  0
  136.3705  136.2043  155.3847 H   0  0  0  0  0  0  0  0  0  0  0  0
  138.2396  136.0620  154.9089 H   0  0  0  0  0  0  0  0  0  0  0  0
  140.6254  135.9975  154.2556 H   0  0  0  0  0  0  0  0  0  0  0  0
  142.2131  138.9870  152.5494 H   0  0  0  0  0  0  0  0  0  0  0  0
  144.1291  138.6275  152.2810 H   0  0  0  0  0  0  0  0  0  0  0  0
  146.1753  137.5877  152.2969 H   0  0  0  0  0  0  0  0  0  0  0  0
  146.3453  136.9959  154.5958 H   0  0  0  0  0  0  0  0  0  0  0  0
  144.8623  136.0474  154.5521 H   0  0  0  0  0  0  0  0  0  0  0  0
  147.5766  135.1130  153.8859 H   0  0  0  0  0  0  0  0  0  0  0  0
  146.0973  134.1857  154.1266 H   0  0  0  0  0  0  0  0  0  0  0  0
  146.8029  133.4473  150.6419 H   0  0  0  0  0  0  0  0  0  0  0  0
  144.9074  131.9110  151.2490 H   0  0  0  0  0  0  0  0  0  0  0  0
  144.3274  133.5175  150.8639 H   0  0  0  0  0  0  0  0  0  0  0  0
  144.4416  133.0048  152.5459 H   0  0  0  0  0  0  0  0  0  0  0  0
  147.1332  131.5063  152.2148 H   0  0  0  0  0  0  0  0  0  0  0  0
  146.8893  132.5881  153.5807 H   0  0  0  0  0  0  0  0  0  0  0  0
  148.2784  132.7953  152.5129 H   0  0  0  0  0  0  0  0  0  0  0  0
  144.3427  135.1957  151.8669 H   0  0  0  0  0  0  0  0  0  0  0  0
  145.3491  136.0222  150.6675 H   0  0  0  0  0  0  0  0  0  0  0  0
  140.1829  140.0721  152.8471 H   0  0  0  0  0  0  0  0  0  0  0  0
  147.2422  135.3131  151.7379 H   0  0  0  0  0  0  0  0  0  0  0  0
  1  2  1  0  0  0  0
  1 21  1  0  0  0  0
  1 22  1  0  0  0  0
  1 23  1  0  0  0  0
  2  3  1  0  0  0  0
  3 20  1  0  0  0  0
  3  4  2  0  0  0  0
  4  5  1  0  0  0  0
  4 24  1  0  0  0  0
  5  6  2  0  0  0  0
  5 25  1  0  0  0  0
  6  7  1  0  0  0  0
  6 19  1  0  0  0  0
  7  8  1  0  0  0  0
  7 26  1  0  0  0  0
  8  9  2  0  0  0  0
  8 10  1  0  0  0  0
 10 11  1  0  0  0  0
 10 27  1  0  0  0  0
 11 18  1  0  0  0  0
 11 12  1  0  0  0  0
 11 28  1  0  0  0  0
 12 13  1  0  0  0  0
 12 29  1  0  0  0  0
 12 30  1  0  0  0  0
 13 14  1  0  0  0  0
 13 31  1  0  0  0  0
 13 32  1  0  0  0  0
 14 15  1  0  0  0  0
 14 18  1  0  0  0  0
 14 43  1  0  0  0  0
 15 16  1  0  0  0  0
 15 17  1  0  0  0  0
 15 33  1  0  0  0  0
 16 34  1  0  0  0  0
 16 35  1  0  0  0  0
 16 36  1  0  0  0  0
 17 37  1  0  0  0  0
 17 38  1  0  0  0  0
 17 39  1  0  0  0  0
 18 40  1  0  0  0  0
 18 41  1  0  0  0  0
 19 20  2  0  0  0  0
 19 42  1  0  0  0  0
M  CHG  1  14   1
M  END
> <s_m_source_file>
AV-unprocessed.smi

> <i_m_source_file_index>
1564

> <i_lp_mmshare_version>
43012

> <i_f3d_flags>
0

> <s_epik_input>
W0NIM11PYzFbY0hdW2NIXWMoW2NIXW4xKVtOSF1DKD1PKVtOSF1bQ0BASF0yW0NIMl1bQ0gyXU4oW0NIMl0yKVtDSF0oW0NIM10pW0NIM10=

> <s_epik_cmdline>
J2VwaWtfcHl0aG9uJywgJy1waCcsICc3LjAnLCAnLXRuJywgJzgnLCAnLW1hJywgJzIwMCcsICctbWV0YWxfYmluZGluZycsICctaW1hZScsICc8aW5maWxlLm1hZT4nLCAnLW9tYWUnLCAnPG91dGZpbGUubWFlPic=

> <r_lp_tautomer_probability>
1

> <r_epik_Ionization_Penalty>
0.000679474

> <r_epik_Ionization_Penalty_Charging>
0.000606352

> <r_epik_Ionization_Penalty_Neutral>
7.31222e-05

> <r_epik_State_Penalty>
0.000382168

> <r_epik_Charging_Adjusted_Penalty>
0.00098852

> <i_epik_Tot_Q>
1

> <i_epik_Tot_abs_Q>
1

> <r_epik_Metal_State_Penalty>
-0

> <b_epik_Metal_Only>
0

> <s_lp_Force_Field>
OPLS_2005

> <r_lp_Energy>
32.3031

> <b_lp_Chiralities_Consistent>
1

> <s_lp_Variant>
AV-unprocessed.smi:1564-2

> <Gold.Version>
5.8.1

> <Gold.Id.Protein>
6NUR|6NUR_protein|mol2

> <Gold.PLP.Fitness>
45.5990

> <Gold.PLP.PLP>
-33.3684

> <Gold.PLP.part.hbond>
-4.0000

> <Gold.PLP.part.metal>
0.0000

> <Gold.PLP.part.buried>
-2.5744

> <Gold.PLP.part.nonpolar>
-27.1025

> <Gold.PLP.part.repulsive>
0.3003

> <Gold.PLP.ligand.clash>
0.0000

> <Gold.PLP.ligand.torsion>
1.0426

> <Gold.PLP.Chemscore.Hbond>
3.8960

> <Gold.PLP.Chemscore.CHOScore>
0.8682

> <Gold.PLP.Chemscore.Metal>
0.0000

> <Gold.Chemscore.Hbonds>
donor molecule, donor type, donor heavy atom, donor atom, acceptor molecule, acceptor atom, score
      L1  H     7    26       P1 10175  0.86
      L1  H    10    27       P1 10175  0.98
      L1  H    14    43       P1  7948  2.00
      L1  C    19    42       P1 10160  0.98

> <Gold.PLP.Chemscore.Internal.Correction>
0.0233

> <Gold.Rescore>
     Score         DG    S(hbond)    S(metal)    S(lipo)     H(rot)  DE(clash)    DE(int)     intcor
     16.04     -18.99       2.95        0.00      62.99       1.44       0.00       2.95       ----

> <Gold.Chemscore.Fitness>
16.0447

> <Gold.Chemscore.DG>
-18.9900

> <Gold.Chemscore.ZeroCoef>
-5.4800

> <Gold.Chemscore.Hbond>
2.9456

> <Gold.Chemscore.Metal>
0.0000

> <Gold.Chemscore.Lipo>
62.9884

> <Gold.Chemscore.Internal_Hbond>
0.0000

> <Gold.Chemscore.DEClash>
0.0000

> <Gold.Chemscore.DEInternal>
2.9453

> <Gold.Chemscore.Rot>
1.4445

> <Gold.Chemscore.Internal.Correction>
   9.000000E+99

> <Gold.Chemscore.Hbonds>
donor molecule, donor type, donor heavy atom, donor atom, acceptor molecule, acceptor atom, score
      L1  H     7    26       P1 10175  0.76
      L1  H    10    27       P1 10175  0.93
      L1  H    14    43       P1  7948  0.96

> <Gold.Chemscore.Hbond.Weighted>
-9.8382

> <Gold.Chemscore.Metal.Weighted>
-0.0000

> <Gold.Chemscore.Lipo.Weighted>
-7.3696

> <Gold.Chemscore.Internal_Hbond.Weighted>
0.0000

> <Gold.Chemscore.DEClash.Weighted>
0.0000

> <Gold.Chemscore.DEInternal.Weighted>
2.9453

> <Gold.Chemscore.Rot.Weighted>
3.6979

> <Gold.Chemscore.Internal.Correction.Weighted>
   9.000000E+99

> <Gold.Protein.RotatedTorsions>
[ 6907 6896 6895 6894 ] final -116.91 input  -60.11 | X-H torsion
[ 7974 7965 7964 7962 ] final   94.91 input  175.53 | X-H torsion
[ 8008 7997 7996 7995 ] final  154.14 input   59.86 | X-H torsion
[ 10167 10162 10161 10158 ] final  -29.77 input  -65.29 | X-H torsion
[ 10718 10713 10712 10709 ] final  -38.48 input   66.30 | X-H torsion
[ 10763 10752 10751 10750 ] final -137.27 input  -60.55 | X-H torsion
[ 11005 11000 10999 10996 ] final  -38.10 input  -57.11 | X-H torsion

> <Gold.Protein.ActiveResidues>
 VAL166  LYS551  ARG553  GLY616  TRP617  ASP618  TYR619  PRO620  LYS621  CYS622 
 ASP623  PHE694  ASN695  SER759  ASP760  ASP761  ALA762  ILE779  LEU786  VAL792 
 PHE793  MET794  SER795  GLU796  ALA797  LYS798  CYS799  TRP800  GLU811  SER814 

> <Gold.Protein.RotatedAtoms>
  150.8094  133.8450  159.3189 H   0  0  0  0  0  0  0  0  0  0  0  0  # atno 6907 bound_to 6896
  151.6240  135.1027  160.0117 H   0  0  0  0  0  0  0  0  0  0  0  0  # atno 6908 bound_to 6896
  152.4185  133.7038  159.6496 H   0  0  0  0  0  0  0  0  0  0  0  0  # atno 6909 bound_to 6896
  145.4592  139.2288  143.2997 H   0  0  0  0  0  0  0  0  0  0  0  0  # atno 7974 bound_to 7965
  156.2546  140.1974  156.6599 H   0  0  0  0  0  0  0  0  0  0  0  0  # atno 8008 bound_to 7997
  154.6472  140.0576  156.9939 H   0  0  0  0  0  0  0  0  0  0  0  0  # atno 8009 bound_to 7997
  155.1473  140.3248  155.4441 H   0  0  0  0  0  0  0  0  0  0  0  0  # atno 8010 bound_to 7997
  140.7257  143.3901  151.1444 H   0  0  0  0  0  0  0  0  0  0  0  0  # atno 10167 bound_to 10162
  156.3032  130.4243  149.8122 H   0  0  0  0  0  0  0  0  0  0  0  0  # atno 10718 bound_to 10713
  154.8665  135.3647  154.5195 H   0  0  0  0  0  0  0  0  0  0  0  0  # atno 10763 bound_to 10752
  153.5826  135.7018  153.5462 H   0  0  0  0  0  0  0  0  0  0  0  0  # atno 10764 bound_to 10752
  153.3444  135.4089  155.1559 H   0  0  0  0  0  0  0  0  0  0  0  0  # atno 10765 bound_to 10752
  141.0002  133.6959  156.2008 H   0  0  0  0  0  0  0  0  0  0  0  0  # atno 11005 bound_to 11000
  146.2460  140.5359  142.8913 LP  0  0  0  0  0  0  0  0  0  0  0  0  # atno 17320 bound_to 7965
  144.8013  140.6218  143.6476 LP  0  0  0  0  0  0  0  0  0  0  0  0  # atno 17321 bound_to 7965
  139.7505  143.8786  152.3075 LP  0  0  0  0  0  0  0  0  0  0  0  0  # atno 17342 bound_to 10162
  139.8638  144.7104  150.9068 LP  0  0  0  0  0  0  0  0  0  0  0  0  # atno 17343 bound_to 10162
  156.5493  130.8334  151.3294 LP  0  0  0  0  0  0  0  0  0  0  0  0  # atno 17370 bound_to 10713
  157.7373  130.9794  150.2186 LP  0  0  0  0  0  0  0  0  0  0  0  0  # atno 17371 bound_to 10713
  140.6902  134.4674  157.5588 LP  0  0  0  0  0  0  0  0  0  0  0  0  # atno 17394 bound_to 11000
  139.9035  134.8502  156.1800 LP  0  0  0  0  0  0  0  0  0  0  0  0  # atno 17395 bound_to 11000

$$$$
