AV-unprocessed.smi:2062|AV-procd|sdf|8405|dock4
  -GOLD-   2272011 93D 1   1.00000     0.00000
 Structure written by MMmdl.
 42 43  0  0  0  0  0  0  0  0  3 V2000
  144.8546  134.6511  151.5215 C   0  0  0  0  0  0  0  0  0  0  0  0
  146.2513  134.3580  152.0949 C   0  0  0  0  0  0  0  0  0  0  0  0
  146.5193  132.8457  152.1059 C   0  0  0  0  0  0  0  0  0  0  0  0
  146.4292  134.9509  153.5096 C   0  0  0  0  0  0  0  0  0  0  0  0
  147.8537  135.1008  153.9029 N   0  3  2  0  0  0  0  0  0  0  0  0
  148.5430  133.8113  154.1554 C   0  0  0  0  0  0  0  0  0  0  0  0
  150.0186  134.0550  154.5107 C   0  0  0  0  0  0  0  0  0  0  0  0
  150.0981  134.9231  155.6328 O   0  0  0  0  0  0  0  0  0  0  0  0
  149.5288  136.2018  155.3692 C   0  0  2  0  0  0  0  0  0  0  0  0
  149.7556  137.0942  156.5968 C   0  0  0  0  0  0  0  0  0  0  0  0
  149.6060  136.3148  157.8203 N   0  0  0  0  0  0  0  0  0  0  0  0
  149.0231  136.7229  158.9550 C   0  0  0  0  0  0  0  0  0  0  0  0
  148.5714  137.8668  159.0434 O   0  0  0  0  0  0  0  0  0  0  0  0
  148.9995  135.7738  159.9175 N   0  5  0  0  0  0  0  0  0  0  0  0
  148.2332  135.9402  161.0078 C   0  0  0  0  0  0  0  0  0  0  0  0
  147.6796  137.1126  161.3374 N   0  0  0  0  0  0  0  0  0  0  0  0
  146.9285  137.0610  162.5130 C   0  0  0  0  0  0  0  0  0  0  0  0
  146.9168  135.8221  163.0967 C   0  0  0  0  0  0  0  0  0  0  0  0
  147.8555  134.6764  162.1823 S   0  0  0  0  0  0  0  0  0  0  0  0
  148.0318  136.0147  155.0561 C   0  0  0  0  0  0  0  0  0  0  0  0
  144.0703  134.2359  152.1554 H   0  0  0  0  0  0  0  0  0  0  0  0
  144.7405  134.2180  150.5272 H   0  0  0  0  0  0  0  0  0  0  0  0
  144.6765  135.7227  151.4295 H   0  0  0  0  0  0  0  0  0  0  0  0
  146.9885  134.8008  151.4258 H   0  0  0  0  0  0  0  0  0  0  0  0
  145.8117  132.3213  152.7489 H   0  0  0  0  0  0  0  0  0  0  0  0
  147.5242  132.6265  152.4678 H   0  0  0  0  0  0  0  0  0  0  0  0
  146.4333  132.4231  151.1043 H   0  0  0  0  0  0  0  0  0  0  0  0
  145.9428  135.9274  153.5334 H   0  0  0  0  0  0  0  0  0  0  0  0
  145.9147  134.3382  154.2518 H   0  0  0  0  0  0  0  0  0  0  0  0
  148.0474  133.2841  154.9723 H   0  0  0  0  0  0  0  0  0  0  0  0
  148.4877  133.1668  153.2790 H   0  0  0  0  0  0  0  0  0  0  0  0
  150.5064  133.1122  154.7590 H   0  0  0  0  0  0  0  0  0  0  0  0
  150.5601  134.4810  153.6645 H   0  0  0  0  0  0  0  0  0  0  0  0
  150.0261  136.6524  154.5077 H   0  0  0  0  0  0  0  0  0  0  0  0
  150.7655  137.5050  156.5822 H   0  0  0  0  0  0  0  0  0  0  0  0
  149.0686  137.9415  156.5672 H   0  0  0  0  0  0  0  0  0  0  0  0
  149.9619  135.3705  157.8046 H   0  0  0  0  0  0  0  0  0  0  0  0
  146.4363  137.9562  162.8624 H   0  0  0  0  0  0  0  0  0  0  0  0
  146.4185  135.5147  164.0035 H   0  0  0  0  0  0  0  0  0  0  0  0
  147.5826  136.9826  154.8295 H   0  0  0  0  0  0  0  0  0  0  0  0
  147.5086  135.6130  155.9257 H   0  0  0  0  0  0  0  0  0  0  0  0
  148.3219  135.5397  153.1229 H   0  0  0  0  0  0  0  0  0  0  0  0
  1  2  1  0  0  0  0
  1 21  1  0  0  0  0
  1 22  1  0  0  0  0
  1 23  1  0  0  0  0
  2  3  1  0  0  0  0
  2  4  1  0  0  0  0
  2 24  1  0  0  0  0
  3 25  1  0  0  0  0
  3 26  1  0  0  0  0
  3 27  1  0  0  0  0
  4  5  1  0  0  0  0
  4 28  1  0  0  0  0
  4 29  1  0  0  0  0
  5 20  1  0  0  0  0
  5  6  1  0  0  0  0
  5 42  1  0  0  0  0
  6  7  1  0  0  0  0
  6 30  1  0  0  0  0
  6 31  1  0  0  0  0
  7  8  1  0  0  0  0
  7 32  1  0  0  0  0
  7 33  1  0  0  0  0
  8  9  1  0  0  0  0
  9 10  1  0  0  0  0
  9 20  1  0  0  0  0
  9 34  1  0  0  0  0
 10 11  1  0  0  0  0
 10 35  1  0  0  0  0
 10 36  1  0  0  0  0
 11 12  1  0  0  0  0
 11 37  1  0  0  0  0
 12 13  2  0  0  0  0
 12 14  1  0  0  0  0
 14 15  1  0  0  0  0
 15 19  1  0  0  0  0
 15 16  2  0  0  0  0
 16 17  1  0  0  0  0
 17 18  2  0  0  0  0
 17 38  1  0  0  0  0
 18 19  1  0  0  0  0
 18 39  1  0  0  0  0
 20 40  1  0  0  0  0
 20 41  1  0  0  0  0
M  CHG  1   5   1
M  CHG  1  14  -1
M  END
> <s_m_source_file>
AV-unprocessed.smi

> <i_m_source_file_index>
2062

> <i_lp_mmshare_version>
43012

> <i_f3d_flags>
0

> <s_epik_input>
W0NIM11bQ0hdKFtDSDNdKVtDSDJdTjFbQ0gyXVtDSDJdT1tDQEhdKFtDSDJdMSlbQ0gyXVtOSF1DKD1PKVtOSF1jMm5bY0hdW2NIXXMy

> <s_epik_cmdline>
J2VwaWtfcHl0aG9uJywgJy1waCcsICc3LjAnLCAnLXRuJywgJzgnLCAnLW1hJywgJzIwMCcsICctbWV0YWxfYmluZGluZycsICctaW1hZScsICc8aW5maWxlLm1hZT4nLCAnLW9tYWUnLCAnPG91dGZpbGUubWFlPic=

> <r_lp_tautomer_probability>
0.999

> <r_epik_Ionization_Penalty>
6.35835

> <r_epik_Ionization_Penalty_Charging>
5.49938

> <r_epik_Ionization_Penalty_Neutral>
0.858963

> <r_epik_State_Penalty>
5.49328

> <r_epik_Charging_Adjusted_Penalty>
10.9927

> <i_epik_Tot_Q>
0

> <i_epik_Tot_abs_Q>
2

> <r_epik_Metal_State_Penalty>
1.51523

> <b_epik_Metal_Only>
1

> <s_lp_Force_Field>
OPLS_2005

> <r_lp_Energy>
7.82162

> <b_lp_Chiralities_Consistent>
1

> <s_lp_Variant>
AV-unprocessed.smi:2062-10

> <Gold.Version>
5.8.1

> <Gold.Id.Protein>
6NUR|6NUR_protein|mol2

> <Gold.PLP.Fitness>
45.6446

> <Gold.PLP.PLP>
-30.8889

> <Gold.PLP.part.hbond>
-4.6926

> <Gold.PLP.part.metal>
0.0000

> <Gold.PLP.part.buried>
-4.3177

> <Gold.PLP.part.nonpolar>
-22.0855

> <Gold.PLP.part.repulsive>
0.1519

> <Gold.PLP.ligand.clash>
0.0000

> <Gold.PLP.ligand.torsion>
0.6905

> <Gold.PLP.Chemscore.Hbond>
5.3156

> <Gold.PLP.Chemscore.CHOScore>
0.0000

> <Gold.PLP.Chemscore.Metal>
0.0000

> <Gold.Chemscore.Hbonds>
donor molecule, donor type, donor heavy atom, donor atom, acceptor molecule, acceptor atom, score
      L1  H     5    42       P1  7948  2.00
      P1  H  6896  6908       L1    14  1.95
      P1  H  6931  6943       L1    16  0.95
      P1  H  6934  6947       L1    16  0.58

> <Gold.PLP.Chemscore.Internal.Correction>
0.1899

> <Gold.Rescore>
     Score         DG    S(hbond)    S(metal)    S(lipo)     H(rot)  DE(clash)    DE(int)     intcor
     11.34     -13.92       1.56        0.00      65.07       1.72       0.07       2.50       ----

> <Gold.Chemscore.Fitness>
11.3439

> <Gold.Chemscore.DG>
-13.9154

> <Gold.Chemscore.ZeroCoef>
-5.4800

> <Gold.Chemscore.Hbond>
1.5640

> <Gold.Chemscore.Metal>
0.0000

> <Gold.Chemscore.Lipo>
65.0724

> <Gold.Chemscore.Internal_Hbond>
0.0000

> <Gold.Chemscore.DEClash>
0.0688

> <Gold.Chemscore.DEInternal>
2.5026

> <Gold.Chemscore.Rot>
1.7194

> <Gold.Chemscore.Internal.Correction>
   9.000000E+99

> <Gold.Chemscore.Hbonds>
donor molecule, donor type, donor heavy atom, donor atom, acceptor molecule, acceptor atom, score
      L1  H     5    42       P1  7948  0.95
      P1  H  6896  6908       L1    14  0.45
      P1  H  6931  6943       L1    16  0.13
      P1  H  6934  6947       L1    16  0.06

> <Gold.Chemscore.Hbond.Weighted>
-5.2236

> <Gold.Chemscore.Metal.Weighted>
-0.0000

> <Gold.Chemscore.Lipo.Weighted>
-7.6135

> <Gold.Chemscore.Internal_Hbond.Weighted>
0.0000

> <Gold.Chemscore.DEClash.Weighted>
0.0688

> <Gold.Chemscore.DEInternal.Weighted>
2.5026

> <Gold.Chemscore.Rot.Weighted>
4.4017

> <Gold.Chemscore.Internal.Correction.Weighted>
   9.000000E+99

> <Gold.Protein.RotatedTorsions>
[ 6907 6896 6895 6894 ] final -178.07 input  -60.11 | X-H torsion
[ 7974 7965 7964 7962 ] final  171.88 input  175.53 | X-H torsion
[ 8008 7997 7996 7995 ] final -161.88 input   59.86 | X-H torsion
[ 10167 10162 10161 10158 ] final  110.35 input  -65.29 | X-H torsion
[ 10718 10713 10712 10709 ] final   -3.77 input   66.30 | X-H torsion
[ 10763 10752 10751 10750 ] final   50.95 input  -60.55 | X-H torsion
[ 11005 11000 10999 10996 ] final   84.64 input  -57.11 | X-H torsion

> <Gold.Protein.ActiveResidues>
 VAL166  LYS551  ARG553  GLY616  TRP617  ASP618  TYR619  PRO620  LYS621  CYS622 
 ASP623  PHE694  ASN695  SER759  ASP760  ASP761  ALA762  ILE779  LEU786  VAL792 
 PHE793  MET794  SER795  GLU796  ALA797  LYS798  CYS799  TRP800  GLU811  SER814 

> <Gold.Protein.RotatedAtoms>
  151.6313  133.3332  159.3109 H   0  0  0  0  0  0  0  0  0  0  0  0  # atno 6907 bound_to 6896
  150.8055  134.7181  159.6651 H   0  0  0  0  0  0  0  0  0  0  0  0  # atno 6908 bound_to 6896
  152.4150  134.6062  160.0065 H   0  0  0  0  0  0  0  0  0  0  0  0  # atno 6909 bound_to 6896
  144.7283  139.9416  143.6429 H   0  0  0  0  0  0  0  0  0  0  0  0  # atno 7974 bound_to 7965
  155.7986  140.0888  157.1969 H   0  0  0  0  0  0  0  0  0  0  0  0  # atno 8008 bound_to 7997
  154.3982  140.1476  156.3307 H   0  0  0  0  0  0  0  0  0  0  0  0  # atno 8009 bound_to 7997
  155.8485  140.3435  155.5680 H   0  0  0  0  0  0  0  0  0  0  0  0  # atno 8010 bound_to 7997
  139.6695  144.7126  151.1714 H   0  0  0  0  0  0  0  0  0  0  0  0  # atno 10167 bound_to 10162
  156.7712  130.5300  149.5767 H   0  0  0  0  0  0  0  0  0  0  0  0  # atno 10718 bound_to 10713
  152.9784  135.5862  154.4336 H   0  0  0  0  0  0  0  0  0  0  0  0  # atno 10763 bound_to 10752
  154.3946  135.2768  155.2136 H   0  0  0  0  0  0  0  0  0  0  0  0  # atno 10764 bound_to 10752
  154.3993  135.6107  153.5942 H   0  0  0  0  0  0  0  0  0  0  0  0  # atno 10765 bound_to 10752
  139.8994  134.8231  156.2473 H   0  0  0  0  0  0  0  0  0  0  0  0  # atno 11005 bound_to 11000
  146.0780  139.3768  143.0482 LP  0  0  0  0  0  0  0  0  0  0  0  0  # atno 17320 bound_to 7965
  145.7879  140.9827  143.1064 LP  0  0  0  0  0  0  0  0  0  0  0  0  # atno 17321 bound_to 7965
  140.7612  143.5866  150.8839 LP  0  0  0  0  0  0  0  0  0  0  0  0  # atno 17342 bound_to 10162
  139.9530  143.6250  152.3024 LP  0  0  0  0  0  0  0  0  0  0  0  0  # atno 17343 bound_to 10162
  156.1277  130.6155  151.0287 LP  0  0  0  0  0  0  0  0  0  0  0  0  # atno 17370 bound_to 10713
  157.6690  131.0865  150.7658 LP  0  0  0  0  0  0  0  0  0  0  0  0  # atno 17371 bound_to 10713
  141.0246  133.7022  156.1326 LP  0  0  0  0  0  0  0  0  0  0  0  0  # atno 17394 bound_to 11000
  140.7184  134.4385  157.5576 LP  0  0  0  0  0  0  0  0  0  0  0  0  # atno 17395 bound_to 11000

$$$$
