AV-unprocessed.smi:1567|AV-procd|sdf|6308|dock6
  -GOLD-   22720 6513D 1   1.00000     0.00000
 Structure written by MMmdl.
 43 45  0  0  0  0  0  0  0  0  2 V2000
  152.2032  135.6957  156.7816 O   0  0  0  0  0  0  0  0  0  0  0  0
  150.9692  136.2350  156.3619 C   0  0  0  0  0  0  0  0  0  0  0  0
  150.9898  136.4479  154.8400 C   0  0  0  0  0  0  0  0  0  0  0  0
  151.4788  137.8429  154.4164 C   0  0  0  0  0  0  0  0  0  0  0  0
  150.3633  138.8364  154.3294 C   0  0  0  0  0  0  0  0  0  0  0  0
  149.2330  138.6972  153.5806 N   0  3  0  0  0  0  0  0  0  0  0  0
  148.4206  139.8208  153.7362 C   0  0  0  0  0  0  0  0  0  0  0  0
  147.1824  140.1324  153.1828 C   0  0  0  0  0  0  0  0  0  0  0  0
  146.6167  141.3698  153.5543 C   0  0  0  0  0  0  0  0  0  0  0  0
  147.2784  142.2421  154.4425 C   0  0  0  0  0  0  0  0  0  0  0  0
  148.5340  141.9156  154.9959 C   0  0  0  0  0  0  0  0  0  0  0  0
  149.0882  140.6909  154.6222 C   0  0  0  0  0  0  0  0  0  0  0  0
  150.2847  140.0450  154.9586 N   0  0  0  0  0  0  0  0  0  0  0  0
  151.2307  140.7015  155.8759 C   0  0  0  0  0  0  0  0  0  0  0  0
  150.8955  140.4574  157.3616 C   0  0  2  0  0  0  0  0  0  0  0  0
  149.5112  140.6328  157.5927 O   0  0  0  0  0  0  0  0  0  0  0  0
  151.7476  141.3257  158.2768 C   0  0  0  0  0  0  0  0  0  0  0  0
  151.6482  142.7317  158.1935 C   0  0  0  0  0  0  0  0  0  0  0  0
  152.4245  143.5522  159.0345 C   0  0  0  0  0  0  0  0  0  0  0  0
  152.3231  144.8995  158.9463 F   0  0  0  0  0  0  0  0  0  0  0  0
  153.3052  142.9722  159.9668 C   0  0  0  0  0  0  0  0  0  0  0  0
  153.4073  141.5712  160.0586 C   0  0  0  0  0  0  0  0  0  0  0  0
  152.6318  140.7482  159.2184 C   0  0  0  0  0  0  0  0  0  0  0  0
  152.7403  139.4019  159.3259 F   0  0  0  0  0  0  0  0  0  0  0  0
  152.4977  136.1714  157.5435 H   0  0  0  0  0  0  0  0  0  0  0  0
  150.1682  135.5514  156.6443 H   0  0  0  0  0  0  0  0  0  0  0  0
  150.8009  137.1743  156.8894 H   0  0  0  0  0  0  0  0  0  0  0  0
  151.6133  135.6858  154.3703 H   0  0  0  0  0  0  0  0  0  0  0  0
  149.9827  136.2990  154.4487 H   0  0  0  0  0  0  0  0  0  0  0  0
  152.2102  138.2081  155.1379 H   0  0  0  0  0  0  0  0  0  0  0  0
  151.9976  137.7854  153.4595 H   0  0  0  0  0  0  0  0  0  0  0  0
  146.6728  139.4647  152.5038 H   0  0  0  0  0  0  0  0  0  0  0  0
  145.6555  141.6548  153.1518 H   0  0  0  0  0  0  0  0  0  0  0  0
  146.8134  143.1808  154.7067 H   0  0  0  0  0  0  0  0  0  0  0  0
  149.0270  142.5889  155.6814 H   0  0  0  0  0  0  0  0  0  0  0  0
  152.2230  140.3093  155.6525 H   0  0  0  0  0  0  0  0  0  0  0  0
  151.2745  141.7654  155.6436 H   0  0  0  0  0  0  0  0  0  0  0  0
  151.1077  139.4125  157.5916 H   0  0  0  0  0  0  0  0  0  0  0  0
  149.2616  140.1030  158.3345 H   0  0  0  0  0  0  0  0  0  0  0  0
  150.9748  143.1892  157.4836 H   0  0  0  0  0  0  0  0  0  0  0  0
  153.9011  143.6013  160.6118 H   0  0  0  0  0  0  0  0  0  0  0  0
  154.0814  141.1265  160.7759 H   0  0  0  0  0  0  0  0  0  0  0  0
  149.0339  137.8895  153.0043 H   0  0  0  0  0  0  0  0  0  0  0  0
  1  2  1  0  0  0  0
  1 25  1  0  0  0  0
  2  3  1  0  0  0  0
  2 26  1  0  0  0  0
  2 27  1  0  0  0  0
  3  4  1  0  0  0  0
  3 28  1  0  0  0  0
  3 29  1  0  0  0  0
  4  5  1  0  0  0  0
  4 30  1  0  0  0  0
  4 31  1  0  0  0  0
  5 13  1  0  0  0  0
  5  6  2  0  0  0  0
  6  7  1  0  0  0  0
  6 43  1  0  0  0  0
  7 12  2  0  0  0  0
  7  8  1  0  0  0  0
  8  9  2  0  0  0  0
  8 32  1  0  0  0  0
  9 10  1  0  0  0  0
  9 33  1  0  0  0  0
 10 11  2  0  0  0  0
 10 34  1  0  0  0  0
 11 12  1  0  0  0  0
 11 35  1  0  0  0  0
 12 13  1  0  0  0  0
 13 14  1  0  0  0  0
 14 15  1  0  0  0  0
 14 36  1  0  0  0  0
 14 37  1  0  0  0  0
 15 16  1  0  0  0  0
 15 17  1  0  0  0  0
 15 38  1  0  0  0  0
 16 39  1  0  0  0  0
 17 23  1  0  0  0  0
 17 18  2  0  0  0  0
 18 19  1  0  0  0  0
 18 40  1  0  0  0  0
 19 20  1  0  0  0  0
 19 21  2  0  0  0  0
 21 22  1  0  0  0  0
 21 41  1  0  0  0  0
 22 23  2  0  0  0  0
 22 42  1  0  0  0  0
 23 24  1  0  0  0  0
M  CHG  1   6   1
M  END
> <s_m_source_file>
AV-unprocessed.smi

> <i_m_source_file_index>
1567

> <i_lp_mmshare_version>
43012

> <i_f3d_flags>
0

> <s_epik_input>
W09IXVtDSDJdW0NIMl1bQ0gyXWMobjEpbihjKGMxMilbY0hdW2NIXVtjSF1bY0hdMilbQ0gyXVtDQEhdKFtPSF0pYzNbY0hdYyhGKVtjSF1bY0hdYzNG

> <s_epik_cmdline>
J2VwaWtfcHl0aG9uJywgJy1waCcsICc3LjAnLCAnLXRuJywgJzgnLCAnLW1hJywgJzIwMCcsICctbWV0YWxfYmluZGluZycsICctaW1hZScsICc8aW5maWxlLm1hZT4nLCAnLW9tYWUnLCAnPG91dGZpbGUubWFlPic=

> <r_epik_Ionization_Penalty>
0.786443

> <r_epik_Ionization_Penalty_Charging>
0.786439

> <r_epik_Ionization_Penalty_Neutral>
3.69699e-06

> <r_epik_State_Penalty>
0.816472

> <r_epik_Charging_Adjusted_Penalty>
1.60291

> <i_epik_Tot_Q>
1

> <i_epik_Tot_abs_Q>
1

> <r_epik_Metal_State_Penalty>
4.73733

> <b_epik_Metal_Only>
0

> <s_lp_Force_Field>
OPLS_2005

> <r_lp_Energy>
17.4114

> <b_lp_Chiralities_Consistent>
1

> <s_lp_Variant>
AV-unprocessed.smi:1567-3

> <Gold.Version>
5.8.1

> <Gold.Id.Protein>
6NUR|6NUR_protein|mol2

> <Gold.PLP.Fitness>
62.1945

> <Gold.PLP.PLP>
-54.7997

> <Gold.PLP.part.hbond>
-3.0000

> <Gold.PLP.part.metal>
0.0000

> <Gold.PLP.part.buried>
1.9589

> <Gold.PLP.part.nonpolar>
-54.0520

> <Gold.PLP.part.repulsive>
0.0694

> <Gold.PLP.ligand.clash>
0.0000

> <Gold.PLP.ligand.torsion>
0.8338

> <Gold.PLP.Chemscore.Hbond>
3.0000

> <Gold.PLP.Chemscore.CHOScore>
0.0000

> <Gold.PLP.Chemscore.Metal>
0.0000

> <Gold.Chemscore.Hbonds>
donor molecule, donor type, donor heavy atom, donor atom, acceptor molecule, acceptor atom, score
      L1  H     6    43       P1  7948  2.00
      P1  H 10752 10763       L1     1  1.00

> <Gold.PLP.Chemscore.Internal.Correction>
0.0624

> <Gold.Rescore>
     Score         DG    S(hbond)    S(metal)    S(lipo)     H(rot)  DE(clash)    DE(int)     intcor
     15.80     -17.66       1.75        0.00     126.54       3.31       0.99       0.88       ----

> <Gold.Chemscore.Fitness>
15.7950

> <Gold.Chemscore.DG>
-17.6631

> <Gold.Chemscore.ZeroCoef>
-5.4800

> <Gold.Chemscore.Hbond>
1.7541

> <Gold.Chemscore.Metal>
0.0000

> <Gold.Chemscore.Lipo>
126.5387

> <Gold.Chemscore.Internal_Hbond>
0.0000

> <Gold.Chemscore.DEClash>
0.9885

> <Gold.Chemscore.DEInternal>
0.8796

> <Gold.Chemscore.Rot>
3.3127

> <Gold.Chemscore.Internal.Correction>
   9.000000E+99

> <Gold.Chemscore.Hbonds>
donor molecule, donor type, donor heavy atom, donor atom, acceptor molecule, acceptor atom, score
      L1  H     6    43       P1  7948  0.97
      P1  H 10752 10763       L1     1  0.55

> <Gold.Chemscore.Hbond.Weighted>
-5.8586

> <Gold.Chemscore.Metal.Weighted>
-0.0000

> <Gold.Chemscore.Lipo.Weighted>
-14.8050

> <Gold.Chemscore.Internal_Hbond.Weighted>
0.0000

> <Gold.Chemscore.DEClash.Weighted>
0.9885

> <Gold.Chemscore.DEInternal.Weighted>
0.8796

> <Gold.Chemscore.Rot.Weighted>
8.4805

> <Gold.Chemscore.Internal.Correction.Weighted>
   9.000000E+99

> <Gold.Protein.RotatedTorsions>
[ 6907 6896 6895 6894 ] final  -78.22 input  -60.11 | X-H torsion
[ 7974 7965 7964 7962 ] final  156.56 input  175.53 | X-H torsion
[ 8008 7997 7996 7995 ] final   51.79 input   59.86 | X-H torsion
[ 10167 10162 10161 10158 ] final -130.29 input  -65.29 | X-H torsion
[ 10718 10713 10712 10709 ] final  107.58 input   66.30 | X-H torsion
[ 10763 10752 10751 10750 ] final   97.44 input  -60.55 | X-H torsion
[ 11005 11000 10999 10996 ] final  135.75 input  -57.11 | X-H torsion

> <Gold.Protein.ActiveResidues>
 VAL166  LYS551  ARG553  GLY616  TRP617  ASP618  TYR619  PRO620  LYS621  CYS622 
 ASP623  PHE694  ASN695  SER759  ASP760  ASP761  ALA762  ILE779  LEU786  VAL792 
 PHE793  MET794  SER795  GLU796  ALA797  LYS798  CYS799  TRP800  GLU811  SER814 

> <Gold.Protein.RotatedAtoms>
  150.6978  134.4305  159.5245 H   0  0  0  0  0  0  0  0  0  0  0  0  # atno 6907 bound_to 6896
  152.2032  134.8566  160.0515 H   0  0  0  0  0  0  0  0  0  0  0  0  # atno 6908 bound_to 6896
  151.9478  133.3622  159.4026 H   0  0  0  0  0  0  0  0  0  0  0  0  # atno 6909 bound_to 6896
  144.7956  139.7220  143.6203 H   0  0  0  0  0  0  0  0  0  0  0  0  # atno 7974 bound_to 7965
  155.4412  140.3454  155.4290 H   0  0  0  0  0  0  0  0  0  0  0  0  # atno 8008 bound_to 7997
  156.1278  140.1505  156.9141 H   0  0  0  0  0  0  0  0  0  0  0  0  # atno 8009 bound_to 7997
  154.4871  140.0852  156.7491 H   0  0  0  0  0  0  0  0  0  0  0  0  # atno 8010 bound_to 7997
  139.9309  143.6273  152.2530 H   0  0  0  0  0  0  0  0  0  0  0  0  # atno 10167 bound_to 10162
  157.6622  131.0876  150.6178 H   0  0  0  0  0  0  0  0  0  0  0  0  # atno 10718 bound_to 10713
  153.2769  135.4183  155.1042 H   0  0  0  0  0  0  0  0  0  0  0  0  # atno 10763 bound_to 10752
  154.8476  135.3486  154.6166 H   0  0  0  0  0  0  0  0  0  0  0  0  # atno 10764 bound_to 10752
  153.6586  135.7049  153.5242 H   0  0  0  0  0  0  0  0  0  0  0  0  # atno 10765 bound_to 10752
  140.0000  134.9482  157.0051 H   0  0  0  0  0  0  0  0  0  0  0  0  # atno 11005 bound_to 11000
  146.2223  139.5658  142.9610 LP  0  0  0  0  0  0  0  0  0  0  0  0  # atno 17320 bound_to 7965
  145.5682  141.0397  143.2188 LP  0  0  0  0  0  0  0  0  0  0  0  0  # atno 17321 bound_to 7965
  139.6783  144.7657  151.1655 LP  0  0  0  0  0  0  0  0  0  0  0  0  # atno 17342 bound_to 10162
  140.7637  143.5762  150.8943 LP  0  0  0  0  0  0  0  0  0  0  0  0  # atno 17343 bound_to 10162
  156.6480  130.4477  149.5729 LP  0  0  0  0  0  0  0  0  0  0  0  0  # atno 17370 bound_to 10713
  156.2159  130.6707  151.1318 LP  0  0  0  0  0  0  0  0  0  0  0  0  # atno 17371 bound_to 10713
  140.4745  134.1352  155.7208 LP  0  0  0  0  0  0  0  0  0  0  0  0  # atno 17394 bound_to 11000
  141.1635  133.8748  157.1782 LP  0  0  0  0  0  0  0  0  0  0  0  0  # atno 17395 bound_to 11000

$$$$
