AV-unprocessed.smi:623|AV-procd|sdf|3097|dock4
  -GOLD-   22720 0 13D 1   1.00000     0.00000
 Structure written by MMmdl.
 44 46  0  0  0  0  0  0  0  0  2 V2000
  143.3980  137.1547  153.4899 C   0  0  0  0  0  0  0  0  0  0  0  0
  143.7077  135.7378  152.9293 C   0  0  0  0  0  0  0  0  0  0  0  0
  142.5793  134.8256  153.4876 C   0  0  0  0  0  0  0  0  0  0  0  0
  143.8679  135.6834  151.3967 C   0  0  2  0  0  0  0  0  0  0  0  0
  144.2713  134.2158  151.1278 C   0  0  0  0  0  0  0  0  0  0  0  0
  145.1515  133.8809  152.3505 C   0  0  0  0  0  0  0  0  0  0  0  0
  145.1553  135.2126  153.1447 C   0  0  2  0  0  0  0  0  0  0  0  0
  145.5942  135.0258  154.6113 C   0  0  0  0  0  0  0  0  0  0  0  0
  146.0490  136.1760  152.3050 C   0  0  2  0  0  0  0  0  0  0  0  0
  146.5040  137.3307  153.0699 N   0  0  0  0  0  0  0  0  0  0  0  0
  146.9594  138.4929  152.5780 C   0  0  0  0  0  0  0  0  0  0  0  0
  147.0681  138.7128  151.3723 O   0  0  0  0  0  0  0  0  0  0  0  0
  147.3345  139.5917  153.5884 C   0  0  0  0  0  0  0  0  0  0  0  0
  148.7270  139.5183  154.0714 N   0  0  0  0  0  0  0  0  0  0  0  0
  149.2803  138.2389  154.2568 C   0  0  0  0  0  0  0  0  0  0  0  0
  150.5577  138.0658  154.6457 C   0  0  0  0  0  0  0  0  0  0  0  0
  151.3743  139.2504  154.8777 C   0  0  0  0  0  0  0  0  0  0  0  0
  152.5439  139.1121  155.2301 O   0  0  0  0  0  0  0  0  0  0  0  0
  150.7918  140.4701  154.6870 N   0  5  0  0  0  0  0  0  0  0  0  0
  149.4925  140.6308  154.2872 C   0  0  0  0  0  0  0  0  0  0  0  0
  148.9930  141.7405  154.1012 O   0  0  0  0  0  0  0  0  0  0  0  0
  145.1213  136.5463  151.1246 C   0  0  0  0  0  0  0  0  0  0  0  0
  142.3817  137.4548  153.2339 H   0  0  0  0  0  0  0  0  0  0  0  0
  144.0412  137.9502  153.1251 H   0  0  0  0  0  0  0  0  0  0  0  0
  143.4699  137.1672  154.5781 H   0  0  0  0  0  0  0  0  0  0  0  0
  142.6429  133.7792  153.1981 H   0  0  0  0  0  0  0  0  0  0  0  0
  141.6022  135.1768  153.1542 H   0  0  0  0  0  0  0  0  0  0  0  0
  142.5709  134.8452  154.5778 H   0  0  0  0  0  0  0  0  0  0  0  0
  142.9925  136.0028  150.8306 H   0  0  0  0  0  0  0  0  0  0  0  0
  143.3999  133.5629  151.0766 H   0  0  0  0  0  0  0  0  0  0  0  0
  144.8127  134.1010  150.1880 H   0  0  0  0  0  0  0  0  0  0  0  0
  144.7232  133.0625  152.9295 H   0  0  0  0  0  0  0  0  0  0  0  0
  146.1527  133.5610  152.0595 H   0  0  0  0  0  0  0  0  0  0  0  0
  146.6266  134.6796  154.6669 H   0  0  0  0  0  0  0  0  0  0  0  0
  144.9724  134.2896  155.1206 H   0  0  0  0  0  0  0  0  0  0  0  0
  145.5273  135.9546  155.1784 H   0  0  0  0  0  0  0  0  0  0  0  0
  146.9385  135.6556  151.9442 H   0  0  0  0  0  0  0  0  0  0  0  0
  146.4616  137.2440  154.0754 H   0  0  0  0  0  0  0  0  0  0  0  0
  147.1360  140.5637  153.1342 H   0  0  0  0  0  0  0  0  0  0  0  0
  146.6464  139.5284  154.4326 H   0  0  0  0  0  0  0  0  0  0  0  0
  148.6110  137.4157  154.0531 H   0  0  0  0  0  0  0  0  0  0  0  0
  150.9691  137.0759  154.7766 H   0  0  0  0  0  0  0  0  0  0  0  0
  145.5799  136.3167  150.1623 H   0  0  0  0  0  0  0  0  0  0  0  0
  144.8764  137.6086  151.1071 H   0  0  0  0  0  0  0  0  0  0  0  0
  1  2  1  0  0  0  0
  1 23  1  0  0  0  0
  1 24  1  0  0  0  0
  1 25  1  0  0  0  0
  2  7  1  0  0  0  0
  2  3  1  0  0  0  0
  2  4  1  0  0  0  0
  3 26  1  0  0  0  0
  3 27  1  0  0  0  0
  3 28  1  0  0  0  0
  4 22  1  0  0  0  0
  4  5  1  0  0  0  0
  4 29  1  0  0  0  0
  5  6  1  0  0  0  0
  5 30  1  0  0  0  0
  5 31  1  0  0  0  0
  6  7  1  0  0  0  0
  6 32  1  0  0  0  0
  6 33  1  0  0  0  0
  7  8  1  0  0  0  0
  7  9  1  0  0  0  0
  8 34  1  0  0  0  0
  8 35  1  0  0  0  0
  8 36  1  0  0  0  0
  9 10  1  0  0  0  0
  9 22  1  0  0  0  0
  9 37  1  0  0  0  0
 10 11  1  0  0  0  0
 10 38  1  0  0  0  0
 11 12  2  0  0  0  0
 11 13  1  0  0  0  0
 13 14  1  0  0  0  0
 13 39  1  0  0  0  0
 13 40  1  0  0  0  0
 14 20  1  0  0  0  0
 14 15  1  0  0  0  0
 15 16  2  0  0  0  0
 15 41  1  0  0  0  0
 16 17  1  0  0  0  0
 16 42  1  0  0  0  0
 17 18  2  0  0  0  0
 17 19  1  0  0  0  0
 19 20  1  0  0  0  0
 20 21  2  0  0  0  0
 22 43  1  0  0  0  0
 22 44  1  0  0  0  0
M  CHG  1  19  -1
M  END
> <s_m_source_file>
AV-unprocessed.smi

> <i_m_source_file_index>
623

> <i_lp_mmshare_version>
43012

> <i_f3d_flags>
0

> <s_epik_input>
W0NIM11bQ0BdMTJDKFtDSDNdKShbQ0gzXSlbQ0BIXShbQ0gyXVtDSDJdMSlbQ0gyXVtDQEBIXTJbTkhdQyg9TylbQ0gyXW4zW2NIXVtjSF1jKD1PKVtuSF1jMz1P

> <s_epik_cmdline>
J2VwaWtfcHl0aG9uJywgJy1waCcsICc3LjAnLCAnLXRuJywgJzgnLCAnLW1hJywgJzIwMCcsICctbWV0YWxfYmluZGluZycsICctaW1hZScsICc8aW5maWxlLm1hZT4nLCAnLW9tYWUnLCAnPG91dGZpbGUubWFlPic=

> <r_lp_tautomer_probability>
0.999537

> <r_epik_Ionization_Penalty>
3.12624

> <r_epik_Ionization_Penalty_Charging>
3.01273e-08

> <r_epik_Ionization_Penalty_Neutral>
3.12624

> <r_epik_State_Penalty>
3.12534

> <r_epik_Charging_Adjusted_Penalty>
3.12534

> <i_epik_Tot_Q>
-1

> <i_epik_Tot_abs_Q>
1

> <r_epik_Metal_State_Penalty>
0.46406

> <b_epik_Metal_Only>
1

> <s_lp_Force_Field>
OPLS_2005

> <r_lp_Energy>
63.0451

> <b_lp_Chiralities_Consistent>
1

> <s_lp_Variant>
AV-unprocessed.smi:623-7

> <Gold.Version>
5.8.1

> <Gold.Id.Protein>
6NUR|6NUR_protein|mol2

> <Gold.PLP.Fitness>
38.7906

> <Gold.PLP.PLP>
-29.9812

> <Gold.PLP.part.hbond>
-4.3107

> <Gold.PLP.part.metal>
0.0000

> <Gold.PLP.part.buried>
4.2597

> <Gold.PLP.part.nonpolar>
-30.7050

> <Gold.PLP.part.repulsive>
3.0073

> <Gold.PLP.ligand.clash>
0.0000

> <Gold.PLP.ligand.torsion>
0.9212

> <Gold.PLP.Chemscore.Hbond>
2.8527

> <Gold.PLP.Chemscore.CHOScore>
0.6933

> <Gold.PLP.Chemscore.Metal>
0.0000

> <Gold.Chemscore.Hbonds>
donor molecule, donor type, donor heavy atom, donor atom, acceptor molecule, acceptor atom, score
      P1  H  7954  7966       L1    12  1.00
      P1  H  7989  7998       L1    19  0.80
      P1  H  7997  8009       L1    18  0.39
      P1  H  8011  8017       L1    21  0.51
      L1  C    15    41       P1  7948  0.71

> <Gold.PLP.Chemscore.Internal.Correction>
0.0135

> <Gold.Rescore>
     Score         DG    S(hbond)    S(metal)    S(lipo)     H(rot)  DE(clash)    DE(int)     intcor
      8.06     -14.57       1.99        0.00      56.63       1.63       4.35       2.16       ----

> <Gold.Chemscore.Fitness>
8.0594

> <Gold.Chemscore.DG>
-14.5705

> <Gold.Chemscore.ZeroCoef>
-5.4800

> <Gold.Chemscore.Hbond>
1.9888

> <Gold.Chemscore.Metal>
0.0000

> <Gold.Chemscore.Lipo>
56.6337

> <Gold.Chemscore.Internal_Hbond>
0.0000

> <Gold.Chemscore.DEClash>
4.3505

> <Gold.Chemscore.DEInternal>
2.1606

> <Gold.Chemscore.Rot>
1.6322

> <Gold.Chemscore.Internal.Correction>
   9.000000E+99

> <Gold.Chemscore.Hbonds>
donor molecule, donor type, donor heavy atom, donor atom, acceptor molecule, acceptor atom, score
      P1  H  7954  7966       L1    12  0.90
      P1  H  7989  7998       L1    19  0.06
      P1  H  7997  8009       L1    18  0.39
      P1  H  8011  8017       L1    21  0.27

> <Gold.Chemscore.Hbond.Weighted>
-6.6426

> <Gold.Chemscore.Metal.Weighted>
-0.0000

> <Gold.Chemscore.Lipo.Weighted>
-6.6261

> <Gold.Chemscore.Internal_Hbond.Weighted>
0.0000

> <Gold.Chemscore.DEClash.Weighted>
4.3505

> <Gold.Chemscore.DEInternal.Weighted>
2.1606

> <Gold.Chemscore.Rot.Weighted>
4.1783

> <Gold.Chemscore.Internal.Correction.Weighted>
   9.000000E+99

> <Gold.Protein.RotatedTorsions>
[ 6907 6896 6895 6894 ] final   12.92 input  -60.11 | X-H torsion
[ 7974 7965 7964 7962 ] final  -57.72 input  175.53 | X-H torsion
[ 8008 7997 7996 7995 ] final -141.85 input   59.86 | X-H torsion
[ 10167 10162 10161 10158 ] final  -60.24 input  -65.29 | X-H torsion
[ 10718 10713 10712 10709 ] final   52.36 input   66.30 | X-H torsion
[ 10763 10752 10751 10750 ] final   87.11 input  -60.55 | X-H torsion
[ 11005 11000 10999 10996 ] final  -98.48 input  -57.11 | X-H torsion

> <Gold.Protein.ActiveResidues>
 VAL166  LYS551  ARG553  GLY616  TRP617  ASP618  TYR619  PRO620  LYS621  CYS622 
 ASP623  PHE694  ASN695  SER759  ASP760  ASP761  ALA762  ILE779  LEU786  VAL792 
 PHE793  MET794  SER795  GLU796  ALA797  LYS798  CYS799  TRP800  GLU811  SER814 

> <Gold.Protein.RotatedAtoms>
  151.7780  135.0769  160.0369 H   0  0  0  0  0  0  0  0  0  0  0  0  # atno 6907 bound_to 6896
  152.3243  133.5883  159.5774 H   0  0  0  0  0  0  0  0  0  0  0  0  # atno 6908 bound_to 6896
  150.7386  133.9880  159.3640 H   0  0  0  0  0  0  0  0  0  0  0  0  # atno 6909 bound_to 6896
  145.8478  140.8373  143.0001 H   0  0  0  0  0  0  0  0  0  0  0  0  # atno 7974 bound_to 7965
  155.4846  140.0563  157.2962 H   0  0  0  0  0  0  0  0  0  0  0  0  # atno 8008 bound_to 7997
  154.4647  140.2013  156.0102 H   0  0  0  0  0  0  0  0  0  0  0  0  # atno 8009 bound_to 7997
  156.0953  140.3227  155.7874 H   0  0  0  0  0  0  0  0  0  0  0  0  # atno 8010 bound_to 7997
  140.6084  143.2380  151.5768 H   0  0  0  0  0  0  0  0  0  0  0  0  # atno 10167 bound_to 10162
  157.5068  130.8474  149.8384 H   0  0  0  0  0  0  0  0  0  0  0  0  # atno 10718 bound_to 10713
  153.1636  135.4556  154.9806 H   0  0  0  0  0  0  0  0  0  0  0  0  # atno 10763 bound_to 10752
  154.7915  135.3222  154.7768 H   0  0  0  0  0  0  0  0  0  0  0  0  # atno 10764 bound_to 10752
  153.8254  135.6943  153.4876 H   0  0  0  0  0  0  0  0  0  0  0  0  # atno 10765 bound_to 10752
  141.1343  133.8248  157.0845 H   0  0  0  0  0  0  0  0  0  0  0  0  # atno 11005 bound_to 11000
  144.6730  140.0907  143.7465 LP  0  0  0  0  0  0  0  0  0  0  0  0  # atno 17320 bound_to 7965
  145.9392  139.2658  143.1279 LP  0  0  0  0  0  0  0  0  0  0  0  0  # atno 17321 bound_to 7965
  139.5342  144.2828  152.1215 LP  0  0  0  0  0  0  0  0  0  0  0  0  # atno 17342 bound_to 10162
  140.2023  144.4646  150.6426 LP  0  0  0  0  0  0  0  0  0  0  0  0  # atno 17343 bound_to 10162
  156.0263  130.3778  150.1814 LP  0  0  0  0  0  0  0  0  0  0  0  0  # atno 17370 bound_to 10713
  157.0003  130.9920  151.3392 LP  0  0  0  0  0  0  0  0  0  0  0  0  # atno 17371 bound_to 10713
  140.0431  134.9844  157.0998 LP  0  0  0  0  0  0  0  0  0  0  0  0  # atno 17394 bound_to 11000
  140.4105  134.1986  155.7163 LP  0  0  0  0  0  0  0  0  0  0  0  0  # atno 17395 bound_to 11000

$$$$
