AV-unprocessed.smi:1795|AV-procd|sdf|7243|dock3
  -GOLD-   22720 8493D 1   1.00000     0.00000
 Structure written by MMmdl.
 48 49  0  0  0  0  0  0  0  0  2 V2000
  152.9610  138.3603  154.6534 C   0  0  0  0  0  0  0  0  0  0  0  0
  151.5984  137.6631  154.5687 C   0  0  2  0  0  0  0  0  0  0  0  0
  150.4406  138.6739  154.4696 C   0  0  0  0  0  0  0  0  0  0  0  0
  149.1221  137.9850  154.4903 N   0  3  2  0  0  0  0  0  0  0  0  0
  147.9187  138.8645  154.3195 C   0  0  2  0  0  0  0  0  0  0  0  0
  147.9907  139.5969  152.9604 C   0  0  0  0  0  0  0  0  0  0  0  0
  147.7149  139.8889  155.4720 C   0  0  0  0  0  0  0  0  0  0  0  0
  148.7363  140.9323  155.5021 N   0  0  0  0  0  0  0  0  0  0  0  0
  149.5979  141.1354  156.5106 C   0  0  0  0  0  0  0  0  0  0  0  0
  149.5929  140.4642  157.5434 O   0  0  0  0  0  0  0  0  0  0  0  0
  150.5989  142.2844  156.3227 C   0  0  0  0  0  0  0  0  0  0  0  0
  151.2689  142.6814  157.5725 N   0  0  0  0  0  0  0  0  0  0  0  0
  151.0950  144.0129  158.0005 C   0  0  0  0  0  0  0  0  0  0  0  0
  151.6608  144.4763  159.1262 C   0  0  0  0  0  0  0  0  0  0  0  0
  152.4677  143.5695  159.9082 C   0  0  0  0  0  0  0  0  0  0  0  0
  152.6377  142.2931  159.5098 C   0  0  0  0  0  0  0  0  0  0  0  0
  152.0197  141.7817  158.2809 C   0  0  0  0  0  0  0  0  0  0  0  0
  152.1665  140.6164  157.9109 O   0  0  0  0  0  0  0  0  0  0  0  0
  149.0313  137.1319  155.7062 C   0  0  0  0  0  0  0  0  0  0  0  0
  150.2135  136.1500  155.8068 C   0  0  1  0  0  0  0  0  0  0  0  0
  150.1408  134.9909  154.7964 C   0  0  0  0  0  0  0  0  0  0  0  0
  151.4457  136.8627  155.7354 O   0  0  0  0  0  0  0  0  0  0  0  0
  153.1397  138.9827  153.7763 H   0  0  0  0  0  0  0  0  0  0  0  0
  153.7695  137.6311  154.7124 H   0  0  0  0  0  0  0  0  0  0  0  0
  153.0241  138.9988  155.5351 H   0  0  0  0  0  0  0  0  0  0  0  0
  151.6032  137.0257  153.6842 H   0  0  0  0  0  0  0  0  0  0  0  0
  150.4889  139.3941  155.2883 H   0  0  0  0  0  0  0  0  0  0  0  0
  150.5753  139.2231  153.5385 H   0  0  0  0  0  0  0  0  0  0  0  0
  147.0425  138.2144  154.3111 H   0  0  0  0  0  0  0  0  0  0  0  0
  147.1047  140.2057  152.7812 H   0  0  0  0  0  0  0  0  0  0  0  0
  148.0579  138.9118  152.1171 H   0  0  0  0  0  0  0  0  0  0  0  0
  148.8572  140.2576  152.9174 H   0  0  0  0  0  0  0  0  0  0  0  0
  146.7483  140.3888  155.3953 H   0  0  0  0  0  0  0  0  0  0  0  0
  147.7299  139.3784  156.4355 H   0  0  0  0  0  0  0  0  0  0  0  0
  148.8042  141.5310  154.6915 H   0  0  0  0  0  0  0  0  0  0  0  0
  151.3432  142.0005  155.5760 H   0  0  0  0  0  0  0  0  0  0  0  0
  150.0662  143.1306  155.8867 H   0  0  0  0  0  0  0  0  0  0  0  0
  150.4724  144.6247  157.3638 H   0  0  0  0  0  0  0  0  0  0  0  0
  151.5137  145.4992  159.4404 H   0  0  0  0  0  0  0  0  0  0  0  0
  152.9360  143.9157  160.8179 H   0  0  0  0  0  0  0  0  0  0  0  0
  153.2437  141.6288  160.1086 H   0  0  0  0  0  0  0  0  0  0  0  0
  149.0230  137.7749  156.5880 H   0  0  0  0  0  0  0  0  0  0  0  0
  148.1010  136.5669  155.7295 H   0  0  0  0  0  0  0  0  0  0  0  0
  150.1861  135.7010  156.8001 H   0  0  0  0  0  0  0  0  0  0  0  0
  149.2479  134.3885  154.9646 H   0  0  0  0  0  0  0  0  0  0  0  0
  151.0044  134.3331  154.8973 H   0  0  0  0  0  0  0  0  0  0  0  0
  150.1043  135.3400  153.7650 H   0  0  0  0  0  0  0  0  0  0  0  0
  149.1281  137.3629  153.6945 H   0  0  0  0  0  0  0  0  0  0  0  0
  1  2  1  0  0  0  0
  1 23  1  0  0  0  0
  1 24  1  0  0  0  0
  1 25  1  0  0  0  0
  2 22  1  0  0  0  0
  2  3  1  0  0  0  0
  2 26  1  0  0  0  0
  3  4  1  0  0  0  0
  3 27  1  0  0  0  0
  3 28  1  0  0  0  0
  4  5  1  0  0  0  0
  4 19  1  0  0  0  0
  4 48  1  0  0  0  0
  5  6  1  0  0  0  0
  5  7  1  0  0  0  0
  5 29  1  0  0  0  0
  6 30  1  0  0  0  0
  6 31  1  0  0  0  0
  6 32  1  0  0  0  0
  7  8  1  0  0  0  0
  7 33  1  0  0  0  0
  7 34  1  0  0  0  0
  8  9  1  0  0  0  0
  8 35  1  0  0  0  0
  9 10  2  0  0  0  0
  9 11  1  0  0  0  0
 11 12  1  0  0  0  0
 11 36  1  0  0  0  0
 11 37  1  0  0  0  0
 12 17  1  0  0  0  0
 12 13  1  0  0  0  0
 13 14  2  0  0  0  0
 13 38  1  0  0  0  0
 14 15  1  0  0  0  0
 14 39  1  0  0  0  0
 15 16  2  0  0  0  0
 15 40  1  0  0  0  0
 16 17  1  0  0  0  0
 16 41  1  0  0  0  0
 17 18  2  0  0  0  0
 19 20  1  0  0  0  0
 19 42  1  0  0  0  0
 19 43  1  0  0  0  0
 20 21  1  0  0  0  0
 20 22  1  0  0  0  0
 20 44  1  0  0  0  0
 21 45  1  0  0  0  0
 21 46  1  0  0  0  0
 21 47  1  0  0  0  0
M  CHG  1   4   1
M  END
> <s_m_source_file>
AV-unprocessed.smi

> <i_m_source_file_index>
1795

> <i_lp_mmshare_version>
43012

> <i_f3d_flags>
0

> <s_epik_input>
W0NIM11bQ0BASF0xW0NIMl1OKFtDSDJdW0NASF0oTzEpW0NIM10pW0NASF0oW0NIM10pW0NIMl1bTkhdQyg9TylbQ0gyXW4yW2NIXVtjSF1bY0hdW2NIXWMyPU8=

> <s_epik_cmdline>
J2VwaWtfcHl0aG9uJywgJy1waCcsICc3LjAnLCAnLXRuJywgJzgnLCAnLW1hJywgJzIwMCcsICctbWV0YWxfYmluZGluZycsICctaW1hZScsICc8aW5maWxlLm1hZT4nLCAnLW9tYWUnLCAnPG91dGZpbGUubWFlPic=

> <r_lp_tautomer_probability>
1

> <r_epik_Ionization_Penalty>
0.656654

> <r_epik_Ionization_Penalty_Charging>
0.656654

> <r_epik_Ionization_Penalty_Neutral>
8.90321e-08

> <r_epik_State_Penalty>
0.675641

> <r_epik_Charging_Adjusted_Penalty>
1.33229

> <i_epik_Tot_Q>
1

> <i_epik_Tot_abs_Q>
1

> <r_epik_Metal_State_Penalty>
0.675691

> <b_epik_Metal_Only>
0

> <s_lp_Force_Field>
OPLS_2005

> <r_lp_Energy>
31.532

> <b_lp_Chiralities_Consistent>
1

> <s_lp_Variant>
AV-unprocessed.smi:1795-7

> <Gold.Version>
5.8.1

> <Gold.Id.Protein>
6NUR|6NUR_protein|mol2

> <Gold.PLP.Fitness>
47.9798

> <Gold.PLP.PLP>
-36.0658

> <Gold.PLP.part.hbond>
-2.4858

> <Gold.PLP.part.metal>
0.0000

> <Gold.PLP.part.buried>
1.4155

> <Gold.PLP.part.nonpolar>
-34.2262

> <Gold.PLP.part.repulsive>
0.1540

> <Gold.PLP.ligand.clash>
0.0000

> <Gold.PLP.ligand.torsion>
0.2240

> <Gold.PLP.Chemscore.Hbond>
3.0947

> <Gold.PLP.Chemscore.CHOScore>
1.0000

> <Gold.PLP.Chemscore.Metal>
0.0000

> <Gold.Chemscore.Hbonds>
donor molecule, donor type, donor heavy atom, donor atom, acceptor molecule, acceptor atom, score
      L1  H     4    48       P1  7948  1.43
      P1  H 10752 10763       L1    22  0.19
      L1  C    13    38       P1  8028  1.00

> <Gold.PLP.Chemscore.Internal.Correction>
0.0780

> <Gold.Rescore>
     Score         DG    S(hbond)    S(metal)    S(lipo)     H(rot)  DE(clash)    DE(int)     intcor
     12.05     -18.89       1.52        0.00     112.43       1.89       2.17       4.67       ----

> <Gold.Chemscore.Fitness>
12.0477

> <Gold.Chemscore.DG>
-18.8911

> <Gold.Chemscore.ZeroCoef>
-5.4800

> <Gold.Chemscore.Hbond>
1.5232

> <Gold.Chemscore.Metal>
0.0000

> <Gold.Chemscore.Lipo>
112.4301

> <Gold.Chemscore.Internal_Hbond>
0.0000

> <Gold.Chemscore.DEClash>
2.1706

> <Gold.Chemscore.DEInternal>
4.6728

> <Gold.Chemscore.Rot>
1.8870

> <Gold.Chemscore.Internal.Correction>
   9.000000E+99

> <Gold.Chemscore.Hbonds>
donor molecule, donor type, donor heavy atom, donor atom, acceptor molecule, acceptor atom, score
      L1  H     4    48       P1  7948  0.73
      P1  H 10752 10763       L1    22  0.01

> <Gold.Chemscore.Hbond.Weighted>
-5.0876

> <Gold.Chemscore.Metal.Weighted>
-0.0000

> <Gold.Chemscore.Lipo.Weighted>
-13.1543

> <Gold.Chemscore.Internal_Hbond.Weighted>
0.0000

> <Gold.Chemscore.DEClash.Weighted>
2.1706

> <Gold.Chemscore.DEInternal.Weighted>
4.6728

> <Gold.Chemscore.Rot.Weighted>
4.8308

> <Gold.Chemscore.Internal.Correction.Weighted>
   9.000000E+99

> <Gold.Protein.RotatedTorsions>
[ 6907 6896 6895 6894 ] final  150.66 input  -60.11 | X-H torsion
[ 7974 7965 7964 7962 ] final  169.95 input  175.53 | X-H torsion
[ 8008 7997 7996 7995 ] final  -80.64 input   59.86 | X-H torsion
[ 10167 10162 10161 10158 ] final   21.18 input  -65.29 | X-H torsion
[ 10718 10713 10712 10709 ] final  133.69 input   66.30 | X-H torsion
[ 10763 10752 10751 10750 ] final   83.84 input  -60.55 | X-H torsion
[ 11005 11000 10999 10996 ] final  132.65 input  -57.11 | X-H torsion

> <Gold.Protein.ActiveResidues>
 VAL166  LYS551  ARG553  GLY616  TRP617  ASP618  TYR619  PRO620  LYS621  CYS622 
 ASP623  PHE694  ASN695  SER759  ASP760  ASP761  ALA762  ILE779  LEU786  VAL792 
 PHE793  MET794  SER795  GLU796  ALA797  LYS798  CYS799  TRP800  GLU811  SER814 

> <Gold.Protein.RotatedAtoms>
  152.1114  133.4303  159.4632 H   0  0  0  0  0  0  0  0  0  0  0  0  # atno 6907 bound_to 6896
  150.6867  134.2643  159.4571 H   0  0  0  0  0  0  0  0  0  0  0  0  # atno 6908 bound_to 6896
  152.0512  134.9652  160.0625 H   0  0  0  0  0  0  0  0  0  0  0  0  # atno 6909 bound_to 6896
  144.7339  139.9130  143.6416 H   0  0  0  0  0  0  0  0  0  0  0  0  # atno 7974 bound_to 7965
  154.5903  140.0660  156.9229 H   0  0  0  0  0  0  0  0  0  0  0  0  # atno 8008 bound_to 7997
  155.2307  140.3337  155.4285 H   0  0  0  0  0  0  0  0  0  0  0  0  # atno 8009 bound_to 7997
  156.2251  140.1815  156.7367 H   0  0  0  0  0  0  0  0  0  0  0  0  # atno 8010 bound_to 7997
  140.5447  143.9616  150.6540 H   0  0  0  0  0  0  0  0  0  0  0  0  # atno 10167 bound_to 10162
  157.4748  131.1082  150.9757 H   0  0  0  0  0  0  0  0  0  0  0  0  # atno 10718 bound_to 10713
  153.1328  135.4676  154.9375 H   0  0  0  0  0  0  0  0  0  0  0  0  # atno 10763 bound_to 10752
  154.7679  135.3150  154.8251 H   0  0  0  0  0  0  0  0  0  0  0  0  # atno 10764 bound_to 10752
  153.8790  135.6896  153.4822 H   0  0  0  0  0  0  0  0  0  0  0  0  # atno 10765 bound_to 10752
  139.9803  134.9550  156.9612 H   0  0  0  0  0  0  0  0  0  0  0  0  # atno 11005 bound_to 11000
  146.0987  139.3980  143.0360 LP  0  0  0  0  0  0  0  0  0  0  0  0  # atno 17320 bound_to 7965
  145.7610  140.9935  143.1200 LP  0  0  0  0  0  0  0  0  0  0  0  0  # atno 17321 bound_to 7965
  140.3026  143.3250  152.0957 LP  0  0  0  0  0  0  0  0  0  0  0  0  # atno 17342 bound_to 10162
  139.5002  144.6687  151.6294 LP  0  0  0  0  0  0  0  0  0  0  0  0  # atno 17343 bound_to 10162
  157.0510  130.5787  149.5370 LP  0  0  0  0  0  0  0  0  0  0  0  0  # atno 17370 bound_to 10713
  156.0091  130.5181  150.7929 LP  0  0  0  0  0  0  0  0  0  0  0  0  # atno 17371 bound_to 10713
  140.5110  134.1002  155.7270 LP  0  0  0  0  0  0  0  0  0  0  0  0  # atno 17394 bound_to 11000
  141.1476  133.9027  157.2178 LP  0  0  0  0  0  0  0  0  0  0  0  0  # atno 17395 bound_to 11000

$$$$
