AV-unprocessed.smi:1724|AV-procd|sdf|6951|dock7
  -GOLD-   22720 8163D 1   1.00000     0.00000
 Structure written by MMmdl.
 37 38  0  0  0  0  0  0  0  0  2 V2000
  150.1673  140.2189  154.1685 O   0  0  0  0  0  0  0  0  0  0  0  0
  149.2134  140.3809  154.9289 C   0  0  0  0  0  0  0  0  0  0  0  0
  147.9377  140.2092  154.5530 N   0  0  0  0  0  0  0  0  0  0  0  0
  147.4878  139.8332  153.2152 C   0  0  0  0  0  0  0  0  0  0  0  0
  146.7742  138.4656  153.1962 C   0  0  2  0  0  0  0  0  0  0  0  0
  146.2539  138.0728  151.8001 C   0  0  0  0  0  0  0  0  0  0  0  0
  145.4738  136.7555  151.8741 C   0  0  0  0  0  0  0  0  0  0  0  0
  144.3827  136.8365  152.9517 C   0  0  0  0  0  0  0  0  0  0  0  0
  144.9696  137.1685  154.2048 O   0  0  0  0  0  0  0  0  0  0  0  0
  145.6043  138.4432  154.2015 C   0  0  0  0  0  0  0  0  0  0  0  0
  149.2840  140.7296  156.2268 N   0  0  0  0  0  0  0  0  0  0  0  0
  150.4067  141.0238  157.0206 C   0  0  0  0  0  0  0  0  0  0  0  0
  150.5085  142.0835  157.8704 C   0  0  0  0  0  0  0  0  0  0  0  0
  151.6978  142.3262  158.6771 C   0  0  0  0  0  0  0  0  0  0  0  0
  151.8818  143.5491  159.5582 C   0  0  0  0  0  0  0  0  0  0  0  0
  152.2947  143.2041  160.7780 F   0  0  0  0  0  0  0  0  0  0  0  0
  152.7758  144.3867  159.0326 F   0  0  0  0  0  0  0  0  0  0  0  0
  150.7251  144.1988  159.6794 F   0  0  0  0  0  0  0  0  0  0  0  0
  152.6782  141.3767  158.4650 C   0  0  0  0  0  0  0  0  0  0  0  0
  152.6489  140.2880  157.6659 N   0  5  0  0  0  0  0  0  0  0  0  0
  151.5316  140.0705  156.9162 C   0  0  0  0  0  0  0  0  0  0  0  0
  151.4423  139.1016  156.1610 O   0  0  0  0  0  0  0  0  0  0  0  0
  147.2196  140.3561  155.2470 H   0  0  0  0  0  0  0  0  0  0  0  0
  146.7981  140.6075  152.8782 H   0  0  0  0  0  0  0  0  0  0  0  0
  148.3166  139.8398  152.5049 H   0  0  0  0  0  0  0  0  0  0  0  0
  147.4937  137.7082  153.5120 H   0  0  0  0  0  0  0  0  0  0  0  0
  145.6072  138.8606  151.4107 H   0  0  0  0  0  0  0  0  0  0  0  0
  147.0775  137.9667  151.0936 H   0  0  0  0  0  0  0  0  0  0  0  0
  145.0313  136.5251  150.9046 H   0  0  0  0  0  0  0  0  0  0  0  0
  146.1567  135.9381  152.1090 H   0  0  0  0  0  0  0  0  0  0  0  0
  143.6243  137.5744  152.6850 H   0  0  0  0  0  0  0  0  0  0  0  0
  143.8746  135.8764  153.0435 H   0  0  0  0  0  0  0  0  0  0  0  0
  145.9710  138.6446  155.2084 H   0  0  0  0  0  0  0  0  0  0  0  0
  144.8742  139.2208  153.9704 H   0  0  0  0  0  0  0  0  0  0  0  0
  148.4074  140.7703  156.7260 H   0  0  0  0  0  0  0  0  0  0  0  0
  149.6963  142.7800  157.9916 H   0  0  0  0  0  0  0  0  0  0  0  0
  153.6320  141.5154  159.0174 H   0  0  0  0  0  0  0  0  0  0  0  0
  1  2  2  0  0  0  0
  2  3  1  0  0  0  0
  2 11  1  0  0  0  0
  3  4  1  0  0  0  0
  3 23  1  0  0  0  0
  4  5  1  0  0  0  0
  4 24  1  0  0  0  0
  4 25  1  0  0  0  0
  5 10  1  0  0  0  0
  5  6  1  0  0  0  0
  5 26  1  0  0  0  0
  6  7  1  0  0  0  0
  6 27  1  0  0  0  0
  6 28  1  0  0  0  0
  7  8  1  0  0  0  0
  7 29  1  0  0  0  0
  7 30  1  0  0  0  0
  8  9  1  0  0  0  0
  8 31  1  0  0  0  0
  8 32  1  0  0  0  0
  9 10  1  0  0  0  0
 10 33  1  0  0  0  0
 10 34  1  0  0  0  0
 11 12  1  0  0  0  0
 11 35  1  0  0  0  0
 12 21  1  0  0  0  0
 12 13  2  0  0  0  0
 13 14  1  0  0  0  0
 13 36  1  0  0  0  0
 14 15  1  0  0  0  0
 14 19  2  0  0  0  0
 15 16  1  0  0  0  0
 15 17  1  0  0  0  0
 15 18  1  0  0  0  0
 19 20  1  0  0  0  0
 19 37  1  0  0  0  0
 20 21  1  0  0  0  0
 21 22  2  0  0  0  0
M  CHG  1  20  -1
M  END
> <s_m_source_file>
AV-unprocessed.smi

> <i_m_source_file_index>
1724

> <i_lp_mmshare_version>
43012

> <i_f3d_flags>
0

> <s_epik_input>
Tz1jMVtuSF1bY0hdYyhDKEYpKEYpRilbY0hdYzFbTkhdQyg9TylbTkhdW0NIMl1bQ0BASF0yW0NIMl1bQ0gyXVtDSDJdT1tDSDJdMg==

> <s_epik_cmdline>
J2VwaWtfcHl0aG9uJywgJy1waCcsICc3LjAnLCAnLXRuJywgJzgnLCAnLW1hJywgJzIwMCcsICctbWV0YWxfYmluZGluZycsICctaW1hZScsICc8aW5maWxlLm1hZT4nLCAnLW9tYWUnLCAnPG91dGZpbGUubWFlPic=

> <r_lp_tautomer_probability>
1

> <r_epik_Ionization_Penalty>
3.16025

> <r_epik_Ionization_Penalty_Charging>
0.171172

> <r_epik_Ionization_Penalty_Neutral>
2.98908

> <r_epik_State_Penalty>
2.98521

> <r_epik_Charging_Adjusted_Penalty>
3.15638

> <i_epik_Tot_Q>
-1

> <i_epik_Tot_abs_Q>
1

> <r_epik_Metal_State_Penalty>
0.452642

> <b_epik_Metal_Only>
1

> <s_lp_Force_Field>
OPLS_2005

> <r_lp_Energy>
24.3751

> <b_lp_Chiralities_Consistent>
1

> <s_lp_Variant>
AV-unprocessed.smi:1724-3

> <Gold.Version>
5.8.1

> <Gold.Id.Protein>
6NUR|6NUR_protein|mol2

> <Gold.PLP.Fitness>
42.1606

> <Gold.PLP.PLP>
-34.6966

> <Gold.PLP.part.hbond>
-2.0000

> <Gold.PLP.part.metal>
0.0000

> <Gold.PLP.part.buried>
-2.7155

> <Gold.PLP.part.nonpolar>
-30.4829

> <Gold.PLP.part.repulsive>
0.4599

> <Gold.PLP.ligand.clash>
0.0000

> <Gold.PLP.ligand.torsion>
0.6627

> <Gold.PLP.Chemscore.Hbond>
2.9120

> <Gold.PLP.Chemscore.CHOScore>
0.0000

> <Gold.PLP.Chemscore.Metal>
0.0000

> <Gold.Chemscore.Hbonds>
donor molecule, donor type, donor heavy atom, donor atom, acceptor molecule, acceptor atom, score
      P1  H  7989  7998       L1     1  0.96
      P1  H  7997  8009       L1    20  1.89

> <Gold.PLP.Chemscore.Internal.Correction>
0.0534

> <Gold.Rescore>
     Score         DG    S(hbond)    S(metal)    S(lipo)     H(rot)  DE(clash)    DE(int)     intcor
     11.61     -15.28       1.44        0.00      71.76       1.32       0.23       3.44       ----

> <Gold.Chemscore.Fitness>
11.6112

> <Gold.Chemscore.DG>
-15.2808

> <Gold.Chemscore.ZeroCoef>
-5.4800

> <Gold.Chemscore.Hbond>
1.4360

> <Gold.Chemscore.Metal>
0.0000

> <Gold.Chemscore.Lipo>
71.7612

> <Gold.Chemscore.Internal_Hbond>
0.0000

> <Gold.Chemscore.DEClash>
0.2258

> <Gold.Chemscore.DEInternal>
3.4437

> <Gold.Chemscore.Rot>
1.3248

> <Gold.Chemscore.Internal.Correction>
   9.000000E+99

> <Gold.Chemscore.Hbonds>
donor molecule, donor type, donor heavy atom, donor atom, acceptor molecule, acceptor atom, score
      P1  H  7989  7998       L1     1  0.92
      P1  H  7997  8009       L1    20  0.52

> <Gold.Chemscore.Hbond.Weighted>
-4.7962

> <Gold.Chemscore.Metal.Weighted>
-0.0000

> <Gold.Chemscore.Lipo.Weighted>
-8.3961

> <Gold.Chemscore.Internal_Hbond.Weighted>
0.0000

> <Gold.Chemscore.DEClash.Weighted>
0.2258

> <Gold.Chemscore.DEInternal.Weighted>
3.4437

> <Gold.Chemscore.Rot.Weighted>
3.3915

> <Gold.Chemscore.Internal.Correction.Weighted>
   9.000000E+99

> <Gold.Protein.RotatedTorsions>
[ 6907 6896 6895 6894 ] final   38.35 input  -60.11 | X-H torsion
[ 7974 7965 7964 7962 ] final  145.19 input  175.53 | X-H torsion
[ 8008 7997 7996 7995 ] final  165.46 input   59.86 | X-H torsion
[ 10167 10162 10161 10158 ] final -112.75 input  -65.29 | X-H torsion
[ 10718 10713 10712 10709 ] final   29.44 input   66.30 | X-H torsion
[ 10763 10752 10751 10750 ] final  -82.14 input  -60.55 | X-H torsion
[ 11005 11000 10999 10996 ] final  175.66 input  -57.11 | X-H torsion

> <Gold.Protein.ActiveResidues>
 VAL166  LYS551  ARG553  GLY616  TRP617  ASP618  TYR619  PRO620  LYS621  CYS622 
 ASP623  PHE694  ASN695  SER759  ASP760  ASP761  ALA762  ILE779  LEU786  VAL792 
 PHE793  MET794  SER795  GLU796  ALA797  LYS798  CYS799  TRP800  GLU811  SER814 

> <Gold.Protein.RotatedAtoms>
  152.1553  134.8956  160.0545 H   0  0  0  0  0  0  0  0  0  0  0  0  # atno 6907 bound_to 6896
  151.9972  133.3807  159.4176 H   0  0  0  0  0  0  0  0  0  0  0  0  # atno 6908 bound_to 6896
  150.6880  134.3795  159.5071 H   0  0  0  0  0  0  0  0  0  0  0  0  # atno 6909 bound_to 6896
  144.8773  139.5752  143.5859 H   0  0  0  0  0  0  0  0  0  0  0  0  # atno 7974 bound_to 7965
  156.1798  140.1669  156.8295 H   0  0  0  0  0  0  0  0  0  0  0  0  # atno 8008 bound_to 7997
  154.5347  140.0749  156.8440 H   0  0  0  0  0  0  0  0  0  0  0  0  # atno 8009 bound_to 7997
  155.3334  140.3380  155.4241 H   0  0  0  0  0  0  0  0  0  0  0  0  # atno 8010 bound_to 7997
  140.1193  143.4457  152.1701 H   0  0  0  0  0  0  0  0  0  0  0  0  # atno 10167 bound_to 10162
  157.2466  130.7095  149.6384 H   0  0  0  0  0  0  0  0  0  0  0  0  # atno 10718 bound_to 10713
  154.5721  135.5602  153.7104 H   0  0  0  0  0  0  0  0  0  0  0  0  # atno 10763 bound_to 10752
  153.0052  135.6299  154.2100 H   0  0  0  0  0  0  0  0  0  0  0  0  # atno 10764 bound_to 10752
  154.2040  135.2876  155.2961 H   0  0  0  0  0  0  0  0  0  0  0  0  # atno 10765 bound_to 10752
  140.3646  134.7083  157.4353 H   0  0  0  0  0  0  0  0  0  0  0  0  # atno 11005 bound_to 11000
  146.2971  139.7312  142.9118 LP  0  0  0  0  0  0  0  0  0  0  0  0  # atno 17320 bound_to 7965
  145.4018  141.0386  143.3066 LP  0  0  0  0  0  0  0  0  0  0  0  0  # atno 17321 bound_to 7965
  139.5577  144.7384  151.4246 LP  0  0  0  0  0  0  0  0  0  0  0  0  # atno 17342 bound_to 10162
  140.6881  143.7926  150.7215 LP  0  0  0  0  0  0  0  0  0  0  0  0  # atno 17343 bound_to 10162
  155.9668  130.4441  150.5447 LP  0  0  0  0  0  0  0  0  0  0  0  0  # atno 17370 bound_to 10713
  157.3322  131.0701  151.1852 LP  0  0  0  0  0  0  0  0  0  0  0  0  # atno 17371 bound_to 10713
  140.0600  134.6010  155.8760 LP  0  0  0  0  0  0  0  0  0  0  0  0  # atno 17394 bound_to 11000
  141.1973  133.6596  156.5737 LP  0  0  0  0  0  0  0  0  0  0  0  0  # atno 17395 bound_to 11000

$$$$
