AV-unprocessed.smi:2244|AV-procd|sdf|9074|dock2
  -GOLD-   2272012283D 1   1.00000     0.00000
 Structure written by MMmdl.
 49 51  0  0  0  0  0  0  0  0  1 V2000
  146.6678  133.0143  150.4959 C   0  0  0  0  0  0  0  0  0  0  0  0
  145.3552  132.8937  151.3030 C   0  0  0  0  0  0  0  0  0  0  0  0
  144.3800  132.0322  150.4737 C   0  0  0  0  0  0  0  0  0  0  0  0
  145.6899  132.1798  152.6290 C   0  0  0  0  0  0  0  0  0  0  0  0
  144.7188  134.2638  151.5980 C   0  0  0  0  0  0  0  0  0  0  0  0
  145.2929  135.4883  151.1889 C   0  0  0  0  0  0  0  0  0  0  0  0
  144.6174  136.6729  151.5270 C   0  0  0  0  0  0  0  0  0  0  0  0
  143.4101  136.5802  152.2484 C   0  0  0  0  0  0  0  0  0  0  0  0
  142.8011  137.8308  152.5597 N   0  0  0  0  0  0  0  0  0  0  0  0
  141.6605  138.1289  153.2177 C   0  0  0  0  0  0  0  0  0  0  0  0
  140.9447  137.2405  153.6768 O   0  0  0  0  0  0  0  0  0  0  0  0
  141.3682  139.4342  153.3414 N   0  0  0  0  0  0  0  0  0  0  0  0
  140.1874  139.9833  154.0002 C   0  0  2  0  0  0  0  0  0  0  0  0
  138.9046  139.4696  153.3267 C   0  0  0  0  0  0  0  0  0  0  0  0
  137.6683  140.1785  153.9021 C   0  0  0  0  0  0  0  0  0  0  0  0
  137.8069  141.5892  153.7678 O   0  0  0  0  0  0  0  0  0  0  0  0
  138.9157  142.1141  154.4919 C   0  0  2  0  0  0  0  0  0  0  0  0
  138.8886  143.6249  154.3713 C   0  0  0  0  0  0  0  0  0  0  0  0
  137.8477  144.4387  155.1042 C   0  0  0  0  0  0  0  0  0  0  0  0
  137.7907  144.3192  153.6002 C   0  0  0  0  0  0  0  0  0  0  0  0
  140.2201  141.5170  153.9330 C   0  0  0  0  0  0  0  0  0  0  0  0
  142.9186  135.3672  152.6088 N   0  0  0  0  0  0  0  0  0  0  0  0
  143.5549  134.2363  152.2918 N   0  0  0  0  0  0  0  0  0  0  0  0
  147.1003  132.0330  150.2963 H   0  0  0  0  0  0  0  0  0  0  0  0
  147.4217  133.5899  151.0346 H   0  0  0  0  0  0  0  0  0  0  0  0
  146.5049  133.4925  149.5292 H   0  0  0  0  0  0  0  0  0  0  0  0
  144.1264  132.5197  149.5317 H   0  0  0  0  0  0  0  0  0  0  0  0
  143.4480  131.8445  151.0078 H   0  0  0  0  0  0  0  0  0  0  0  0
  144.8136  131.0606  150.2345 H   0  0  0  0  0  0  0  0  0  0  0  0
  146.1599  131.2117  152.4518 H   0  0  0  0  0  0  0  0  0  0  0  0
  144.7975  131.9982  153.2292 H   0  0  0  0  0  0  0  0  0  0  0  0
  146.3771  132.7727  153.2339 H   0  0  0  0  0  0  0  0  0  0  0  0
  146.2186  135.5458  150.6376 H   0  0  0  0  0  0  0  0  0  0  0  0
  145.0225  137.6317  151.2371 H   0  0  0  0  0  0  0  0  0  0  0  0
  143.3392  138.6363  152.2754 H   0  0  0  0  0  0  0  0  0  0  0  0
  142.0106  140.0991  152.9339 H   0  0  0  0  0  0  0  0  0  0  0  0
  140.1809  139.6885  155.0513 H   0  0  0  0  0  0  0  0  0  0  0  0
  138.9524  139.6505  152.2517 H   0  0  0  0  0  0  0  0  0  0  0  0
  138.8110  138.3912  153.4583 H   0  0  0  0  0  0  0  0  0  0  0  0
  136.7728  139.8609  153.3678 H   0  0  0  0  0  0  0  0  0  0  0  0
  137.5225  139.9150  154.9507 H   0  0  0  0  0  0  0  0  0  0  0  0
  138.8119  141.8497  155.5463 H   0  0  0  0  0  0  0  0  0  0  0  0
  139.8765  144.0757  154.2970 H   0  0  0  0  0  0  0  0  0  0  0  0
  137.0963  143.9011  155.6793 H   0  0  0  0  0  0  0  0  0  0  0  0
  138.1605  145.3933  155.5222 H   0  0  0  0  0  0  0  0  0  0  0  0
  138.0652  145.1945  153.0150 H   0  0  0  0  0  0  0  0  0  0  0  0
  137.0020  143.7020  153.1743 H   0  0  0  0  0  0  0  0  0  0  0  0
  141.0766  141.8983  154.4905 H   0  0  0  0  0  0  0  0  0  0  0  0
  140.3524  141.8393  152.8988 H   0  0  0  0  0  0  0  0  0  0  0  0
  1  2  1  0  0  0  0
  1 24  1  0  0  0  0
  1 25  1  0  0  0  0
  1 26  1  0  0  0  0
  2  3  1  0  0  0  0
  2  4  1  0  0  0  0
  2  5  1  0  0  0  0
  3 27  1  0  0  0  0
  3 28  1  0  0  0  0
  3 29  1  0  0  0  0
  4 30  1  0  0  0  0
  4 31  1  0  0  0  0
  4 32  1  0  0  0  0
  5 23  1  0  0  0  0
  5  6  2  0  0  0  0
  6  7  1  0  0  0  0
  6 33  1  0  0  0  0
  7  8  2  0  0  0  0
  7 34  1  0  0  0  0
  8  9  1  0  0  0  0
  8 22  1  0  0  0  0
  9 10  1  0  0  0  0
  9 35  1  0  0  0  0
 10 11  2  0  0  0  0
 10 12  1  0  0  0  0
 12 13  1  0  0  0  0
 12 36  1  0  0  0  0
 13 21  1  0  0  0  0
 13 14  1  0  0  0  0
 13 37  1  0  0  0  0
 14 15  1  0  0  0  0
 14 38  1  0  0  0  0
 14 39  1  0  0  0  0
 15 16  1  0  0  0  0
 15 40  1  0  0  0  0
 15 41  1  0  0  0  0
 16 17  1  0  0  0  0
 17 18  1  0  0  0  0
 17 21  1  0  0  0  0
 17 42  1  0  0  0  0
 18 20  1  0  0  0  0
 18 19  1  0  0  0  0
 18 43  1  0  0  0  0
 19 20  1  0  0  0  0
 19 44  1  0  0  0  0
 19 45  1  0  0  0  0
 20 46  1  0  0  0  0
 20 47  1  0  0  0  0
 21 48  1  0  0  0  0
 21 49  1  0  0  0  0
 22 23  2  0  0  0  0
M  END
> <s_m_source_file>
AV-unprocessed.smi

> <i_m_source_file_index>
2244

> <i_lp_mmshare_version>
43012

> <i_f3d_flags>
0

> <s_epik_input>
W0NIM11DKFtDSDNdKShbQ0gzXSljMVtjSF1bY0hdYyhubjEpW05IXUMoPU8pW05IXVtDQEBIXTJbQ0gyXVtDSDJdT1tDQEhdKFtDSDJdMilbQ0hdM1tDSDJdW0NIMl0z

> <s_epik_cmdline>
J2VwaWtfcHl0aG9uJywgJy1waCcsICc3LjAnLCAnLXRuJywgJzgnLCAnLW1hJywgJzIwMCcsICctbWV0YWxfYmluZGluZycsICctaW1hZScsICc8aW5maWxlLm1hZT4nLCAnLW9tYWUnLCAnPG91dGZpbGUubWFlPic=

> <r_lp_tautomer_probability>
1

> <r_epik_Ionization_Penalty>
0.011369

> <r_epik_Ionization_Penalty_Charging>
0

> <r_epik_Ionization_Penalty_Neutral>
0.011369

> <r_epik_State_Penalty>
0.00456331

> <r_epik_Charging_Adjusted_Penalty>
0.00456331

> <i_epik_Tot_Q>
0

> <i_epik_Tot_abs_Q>
0

> <r_epik_Metal_State_Penalty>
-0

> <b_epik_Metal_Only>
0

> <s_lp_Force_Field>
OPLS_2005

> <r_lp_Energy>
27.8211

> <b_lp_Chiralities_Consistent>
1

> <s_lp_Variant>
AV-unprocessed.smi:2244-3

> <Gold.Version>
5.8.1

> <Gold.Id.Protein>
6NUR|6NUR_protein|mol2

> <Gold.PLP.Fitness>
39.6989

> <Gold.PLP.PLP>
-34.2723

> <Gold.PLP.part.hbond>
-3.7055

> <Gold.PLP.part.metal>
0.0000

> <Gold.PLP.part.buried>
-1.6333

> <Gold.PLP.part.nonpolar>
-29.2355

> <Gold.PLP.part.repulsive>
0.5481

> <Gold.PLP.ligand.clash>
0.0000

> <Gold.PLP.ligand.torsion>
0.8277

> <Gold.PLP.Chemscore.Hbond>
2.0000

> <Gold.PLP.Chemscore.CHOScore>
0.0000

> <Gold.PLP.Chemscore.Metal>
0.0000

> <Gold.Chemscore.Hbonds>
donor molecule, donor type, donor heavy atom, donor atom, acceptor molecule, acceptor atom, score
      L1  H     9    35       P1 10175  0.94
      L1  H    12    36       P1 10175  0.83

> <Gold.PLP.Chemscore.Internal.Correction>
1.0819

> <Gold.Rescore>
     Score         DG    S(hbond)    S(metal)    S(lipo)     H(rot)  DE(clash)    DE(int)     intcor
     13.36     -15.70       1.54        0.00      71.88       1.30       0.23       2.11       ----

> <Gold.Chemscore.Fitness>
13.3648

> <Gold.Chemscore.DG>
-15.7020

> <Gold.Chemscore.ZeroCoef>
-5.4800

> <Gold.Chemscore.Hbond>
1.5390

> <Gold.Chemscore.Metal>
0.0000

> <Gold.Chemscore.Lipo>
71.8810

> <Gold.Chemscore.Internal_Hbond>
0.0000

> <Gold.Chemscore.DEClash>
0.2256

> <Gold.Chemscore.DEInternal>
2.1116

> <Gold.Chemscore.Rot>
1.3002

> <Gold.Chemscore.Internal.Correction>
   9.000000E+99

> <Gold.Chemscore.Hbonds>
donor molecule, donor type, donor heavy atom, donor atom, acceptor molecule, acceptor atom, score
      L1  H     9    35       P1 10175  0.91
      L1  H    12    36       P1 10175  0.14

> <Gold.Chemscore.Hbond.Weighted>
-5.1404

> <Gold.Chemscore.Metal.Weighted>
-0.0000

> <Gold.Chemscore.Lipo.Weighted>
-8.4101

> <Gold.Chemscore.Internal_Hbond.Weighted>
0.0000

> <Gold.Chemscore.DEClash.Weighted>
0.2256

> <Gold.Chemscore.DEInternal.Weighted>
2.1116

> <Gold.Chemscore.Rot.Weighted>
3.3284

> <Gold.Chemscore.Internal.Correction.Weighted>
   9.000000E+99

> <Gold.Protein.RotatedTorsions>
[ 6907 6896 6895 6894 ] final -177.77 input  -60.11 | X-H torsion
[ 7974 7965 7964 7962 ] final -102.64 input  175.53 | X-H torsion
[ 8008 7997 7996 7995 ] final -119.13 input   59.86 | X-H torsion
[ 10167 10162 10161 10158 ] final   96.61 input  -65.29 | X-H torsion
[ 10718 10713 10712 10709 ] final  -83.72 input   66.30 | X-H torsion
[ 10763 10752 10751 10750 ] final  -51.10 input  -60.55 | X-H torsion
[ 11005 11000 10999 10996 ] final -107.82 input  -57.11 | X-H torsion

> <Gold.Protein.ActiveResidues>
 VAL166  LYS551  ARG553  GLY616  TRP617  ASP618  TYR619  PRO620  LYS621  CYS622 
 ASP623  PHE694  ASN695  SER759  ASP760  ASP761  ALA762  ILE779  LEU786  VAL792 
 PHE793  MET794  SER795  GLU796  ALA797  LYS798  CYS799  TRP800  GLU811  SER814 

> <Gold.Protein.RotatedAtoms>
  151.6265  133.3335  159.3099 H   0  0  0  0  0  0  0  0  0  0  0  0  # atno 6907 bound_to 6896
  150.8079  134.7219  159.6672 H   0  0  0  0  0  0  0  0  0  0  0  0  # atno 6908 bound_to 6896
  152.4175  134.6020  160.0054 H   0  0  0  0  0  0  0  0  0  0  0  0  # atno 6909 bound_to 6896
  145.2661  140.9284  143.3013 H   0  0  0  0  0  0  0  0  0  0  0  0  # atno 7974 bound_to 7965
  155.1107  140.0397  157.2723 H   0  0  0  0  0  0  0  0  0  0  0  0  # atno 8008 bound_to 7997
  154.6687  140.2607  155.7004 H   0  0  0  0  0  0  0  0  0  0  0  0  # atno 8009 bound_to 7997
  156.2649  140.2802  156.1188 H   0  0  0  0  0  0  0  0  0  0  0  0  # atno 8010 bound_to 7997
  139.7878  144.6864  150.9934 H   0  0  0  0  0  0  0  0  0  0  0  0  # atno 10167 bound_to 10162
  156.0015  130.4675  150.4301 H   0  0  0  0  0  0  0  0  0  0  0  0  # atno 10718 bound_to 10713
  154.1210  135.6534  153.4903 H   0  0  0  0  0  0  0  0  0  0  0  0  # atno 10763 bound_to 10752
  153.0225  135.5270  154.7096 H   0  0  0  0  0  0  0  0  0  0  0  0  # atno 10764 bound_to 10752
  154.6304  135.2975  155.0193 H   0  0  0  0  0  0  0  0  0  0  0  0  # atno 10765 bound_to 10752
  141.0934  133.9015  157.2022 H   0  0  0  0  0  0  0  0  0  0  0  0  # atno 11005 bound_to 11000
  144.9376  139.4226  143.6465 LP  0  0  0  0  0  0  0  0  0  0  0  0  # atno 17320 bound_to 7965
  146.3260  139.8319  142.8907 LP  0  0  0  0  0  0  0  0  0  0  0  0  # atno 17321 bound_to 7965
  140.7820  143.4413  151.0547 LP  0  0  0  0  0  0  0  0  0  0  0  0  # atno 17342 bound_to 10162
  139.8091  143.7976  152.3170 LP  0  0  0  0  0  0  0  0  0  0  0  0  # atno 17343 bound_to 10162
  157.2351  131.0513  151.2470 LP  0  0  0  0  0  0  0  0  0  0  0  0  # atno 17370 bound_to 10713
  157.3674  130.7163  149.6542 LP  0  0  0  0  0  0  0  0  0  0  0  0  # atno 17371 bound_to 10713
  139.9765  135.0112  156.9643 LP  0  0  0  0  0  0  0  0  0  0  0  0  # atno 17394 bound_to 11000
  140.5198  134.0918  155.7289 LP  0  0  0  0  0  0  0  0  0  0  0  0  # atno 17395 bound_to 11000

$$$$
