AV-unprocessed.smi:2032|AV-procd|sdf|8250|dock4
  -GOLD-   2272010523D 1   1.00000     0.00000
 Structure written by MMmdl.
 41 42  0  0  0  0  0  0  0  0  2 V2000
  151.7576  144.9439  158.9256 C   0  0  0  0  0  0  0  0  0  0  0  0
  151.1551  143.6671  159.5370 C   0  0  1  0  0  0  0  0  0  0  0  0
  150.5718  142.7021  158.4856 C   0  0  0  0  0  0  0  0  0  0  0  0
  151.5928  141.9877  157.7107 N   0  0  0  0  0  0  0  0  0  0  0  0
  151.0052  141.0530  156.7209 C   0  0  1  0  0  0  0  0  0  0  0  0
  149.9368  141.7276  155.8222 C   0  0  0  0  0  0  0  0  0  0  0  0
  152.0655  140.3714  155.8118 C   0  0  0  0  0  0  0  0  0  0  0  0
  151.6175  139.0793  155.3027 N   0  0  0  0  0  0  0  0  0  0  0  0
  152.3219  138.2812  154.4896 C   0  0  0  0  0  0  0  0  0  0  0  0
  153.4490  138.6210  154.1216 O   0  0  0  0  0  0  0  0  0  0  0  0
  151.6783  137.1397  154.1537 N   0  5  0  0  0  0  0  0  0  0  0  0
  151.1148  136.3816  155.1084 C   0  0  0  0  0  0  0  0  0  0  0  0
  151.0044  136.7758  156.3825 N   0  0  0  0  0  0  0  0  0  0  0  0
  150.3886  135.8304  157.2047 C   0  0  0  0  0  0  0  0  0  0  0  0
  150.0320  134.6849  156.5438 C   0  0  0  0  0  0  0  0  0  0  0  0
  150.4602  134.7603  154.8585 S   0  0  0  0  0  0  0  0  0  0  0  0
  152.4919  141.3221  158.6581 C   0  0  0  0  0  0  0  0  0  0  0  0
  153.1175  142.2946  159.6745 C   0  0  2  0  0  0  0  0  0  0  0  0
  153.9840  141.5675  160.7082 C   0  0  0  0  0  0  0  0  0  0  0  0
  152.0874  142.9857  160.3727 O   0  0  0  0  0  0  0  0  0  0  0  0
  150.9962  145.5157  158.3950 H   0  0  0  0  0  0  0  0  0  0  0  0
  152.5525  144.7233  158.2134 H   0  0  0  0  0  0  0  0  0  0  0  0
  152.1720  145.5882  159.7013 H   0  0  0  0  0  0  0  0  0  0  0  0
  150.3395  143.9832  160.1881 H   0  0  0  0  0  0  0  0  0  0  0  0
  149.9293  141.9778  158.9887 H   0  0  0  0  0  0  0  0  0  0  0  0
  149.9277  143.2882  157.8326 H   0  0  0  0  0  0  0  0  0  0  0  0
  150.5009  140.2566  157.2705 H   0  0  0  0  0  0  0  0  0  0  0  0
  149.5518  141.0576  155.0542 H   0  0  0  0  0  0  0  0  0  0  0  0
  150.3446  142.6029  155.3158 H   0  0  0  0  0  0  0  0  0  0  0  0
  149.0601  142.0414  156.3867 H   0  0  0  0  0  0  0  0  0  0  0  0
  152.3160  141.0262  154.9756 H   0  0  0  0  0  0  0  0  0  0  0  0
  152.9889  140.1706  156.3528 H   0  0  0  0  0  0  0  0  0  0  0  0
  150.6988  138.7683  155.5821 H   0  0  0  0  0  0  0  0  0  0  0  0
  150.2455  136.0567  158.2510 H   0  0  0  0  0  0  0  0  0  0  0  0
  149.5469  133.8066  156.9419 H   0  0  0  0  0  0  0  0  0  0  0  0
  151.9526  140.5337  159.1856 H   0  0  0  0  0  0  0  0  0  0  0  0
  153.3183  140.8456  158.1358 H   0  0  0  0  0  0  0  0  0  0  0  0
  153.7464  143.0137  159.1491 H   0  0  0  0  0  0  0  0  0  0  0  0
  154.8014  141.0298  160.2268 H   0  0  0  0  0  0  0  0  0  0  0  0
  153.3973  140.8457  161.2771 H   0  0  0  0  0  0  0  0  0  0  0  0
  154.4211  142.2730  161.4152 H   0  0  0  0  0  0  0  0  0  0  0  0
  1  2  1  0  0  0  0
  1 21  1  0  0  0  0
  1 22  1  0  0  0  0
  1 23  1  0  0  0  0
  2 20  1  0  0  0  0
  2  3  1  0  0  0  0
  2 24  1  0  0  0  0
  3  4  1  0  0  0  0
  3 25  1  0  0  0  0
  3 26  1  0  0  0  0
  4  5  1  0  0  0  0
  4 17  1  0  0  0  0
  5  6  1  0  0  0  0
  5  7  1  0  0  0  0
  5 27  1  0  0  0  0
  6 28  1  0  0  0  0
  6 29  1  0  0  0  0
  6 30  1  0  0  0  0
  7  8  1  0  0  0  0
  7 31  1  0  0  0  0
  7 32  1  0  0  0  0
  8  9  1  0  0  0  0
  8 33  1  0  0  0  0
  9 10  2  0  0  0  0
  9 11  1  0  0  0  0
 11 12  1  0  0  0  0
 12 16  1  0  0  0  0
 12 13  2  0  0  0  0
 13 14  1  0  0  0  0
 14 15  2  0  0  0  0
 14 34  1  0  0  0  0
 15 16  1  0  0  0  0
 15 35  1  0  0  0  0
 17 18  1  0  0  0  0
 17 36  1  0  0  0  0
 17 37  1  0  0  0  0
 18 19  1  0  0  0  0
 18 20  1  0  0  0  0
 18 38  1  0  0  0  0
 19 39  1  0  0  0  0
 19 40  1  0  0  0  0
 19 41  1  0  0  0  0
M  CHG  1  11  -1
M  END
> <s_m_source_file>
AV-unprocessed.smi

> <i_m_source_file_index>
2032

> <i_lp_mmshare_version>
43012

> <i_f3d_flags>
0

> <s_epik_input>
W0NIM11bQ0BASF0xW0NIMl1OKFtDSDJdW0NASF0oTzEpW0NIM10pW0NASF0oW0NIM10pW0NIMl1bTkhdQyg9TylbTkhdYzJuW2NIXVtjSF1zMg==

> <s_epik_cmdline>
J2VwaWtfcHl0aG9uJywgJy1waCcsICc3LjAnLCAnLXRuJywgJzgnLCAnLW1hJywgJzIwMCcsICctbWV0YWxfYmluZGluZycsICctaW1hZScsICc8aW5maWxlLm1hZT4nLCAnLW9tYWUnLCAnPG91dGZpbGUubWFlPic=

> <r_lp_tautomer_probability>
0.999

> <r_epik_Ionization_Penalty>
7.22375

> <r_epik_Ionization_Penalty_Charging>
5.82415

> <r_epik_Ionization_Penalty_Neutral>
1.39959

> <r_epik_State_Penalty>
6.03347

> <r_epik_Charging_Adjusted_Penalty>
11.8576

> <i_epik_Tot_Q>
-1

> <i_epik_Tot_abs_Q>
1

> <r_epik_Metal_State_Penalty>
2.01024

> <b_epik_Metal_Only>
1

> <s_lp_Force_Field>
OPLS_2005

> <r_lp_Energy>
26.7829

> <b_lp_Chiralities_Consistent>
1

> <s_lp_Variant>
AV-unprocessed.smi:2032-20

> <Gold.Version>
5.8.1

> <Gold.Id.Protein>
6NUR|6NUR_protein|mol2

> <Gold.PLP.Fitness>
41.7214

> <Gold.PLP.PLP>
-37.1139

> <Gold.PLP.part.hbond>
-1.8128

> <Gold.PLP.part.metal>
0.0000

> <Gold.PLP.part.buried>
-5.1472

> <Gold.PLP.part.nonpolar>
-30.2786

> <Gold.PLP.part.repulsive>
0.6959

> <Gold.PLP.ligand.clash>
0.0000

> <Gold.PLP.ligand.torsion>
0.7312

> <Gold.PLP.Chemscore.Hbond>
2.0000

> <Gold.PLP.Chemscore.CHOScore>
0.0000

> <Gold.PLP.Chemscore.Metal>
0.0000

> <Gold.Chemscore.Hbonds>
donor molecule, donor type, donor heavy atom, donor atom, acceptor molecule, acceptor atom, score
      P1  H 10752 10764       L1    11  0.50

> <Gold.PLP.Chemscore.Internal.Correction>
0.0699

> <Gold.Rescore>
     Score         DG    S(hbond)    S(metal)    S(lipo)     H(rot)  DE(clash)    DE(int)     intcor
     12.86     -15.57       1.08        0.00      89.08       1.54       0.24       2.46       ----

> <Gold.Chemscore.Fitness>
12.8627

> <Gold.Chemscore.DG>
-15.5677

> <Gold.Chemscore.ZeroCoef>
-5.4800

> <Gold.Chemscore.Hbond>
1.0826

> <Gold.Chemscore.Metal>
0.0000

> <Gold.Chemscore.Lipo>
89.0764

> <Gold.Chemscore.Internal_Hbond>
0.0000

> <Gold.Chemscore.DEClash>
0.2407

> <Gold.Chemscore.DEInternal>
2.4643

> <Gold.Chemscore.Rot>
1.5431

> <Gold.Chemscore.Internal.Correction>
   9.000000E+99

> <Gold.Chemscore.Hbond.Weighted>
-3.6160

> <Gold.Chemscore.Metal.Weighted>
-0.0000

> <Gold.Chemscore.Lipo.Weighted>
-10.4219

> <Gold.Chemscore.Internal_Hbond.Weighted>
0.0000

> <Gold.Chemscore.DEClash.Weighted>
0.2407

> <Gold.Chemscore.DEInternal.Weighted>
2.4643

> <Gold.Chemscore.Rot.Weighted>
3.9503

> <Gold.Chemscore.Internal.Correction.Weighted>
   9.000000E+99

> <Gold.Protein.RotatedTorsions>
[ 6907 6896 6895 6894 ] final -151.75 input  -60.11 | X-H torsion
[ 7974 7965 7964 7962 ] final -138.57 input  175.53 | X-H torsion
[ 8008 7997 7996 7995 ] final  147.77 input   59.86 | X-H torsion
[ 10167 10162 10161 10158 ] final  100.37 input  -65.29 | X-H torsion
[ 10718 10713 10712 10709 ] final  152.75 input   66.30 | X-H torsion
[ 10763 10752 10751 10750 ] final  -92.93 input  -60.55 | X-H torsion
[ 11005 11000 10999 10996 ] final  -49.39 input  -57.11 | X-H torsion

> <Gold.Protein.ActiveResidues>
 VAL166  LYS551  ARG553  GLY616  TRP617  ASP618  TYR619  PRO620  LYS621  CYS622 
 ASP623  PHE694  ASN695  SER759  ASP760  ASP761  ALA762  ILE779  LEU786  VAL792 
 PHE793  MET794  SER795  GLU796  ALA797  LYS798  CYS799  TRP800  GLU811  SER814 

> <Gold.Protein.RotatedAtoms>
  151.2177  133.4520  159.2599 H   0  0  0  0  0  0  0  0  0  0  0  0  # atno 6907 bound_to 6896
  151.0915  134.9919  159.8415 H   0  0  0  0  0  0  0  0  0  0  0  0  # atno 6908 bound_to 6896
  152.5435  134.2110  159.8803 H   0  0  0  0  0  0  0  0  0  0  0  0  # atno 6909 bound_to 6896
  144.8747  140.6419  143.5244 H   0  0  0  0  0  0  0  0  0  0  0  0  # atno 7974 bound_to 7965
  156.2814  140.2147  156.5591 H   0  0  0  0  0  0  0  0  0  0  0  0  # atno 8008 bound_to 7997
  154.7228  140.0502  157.0678 H   0  0  0  0  0  0  0  0  0  0  0  0  # atno 8009 bound_to 7997
  155.0456  140.3150  155.4712 H   0  0  0  0  0  0  0  0  0  0  0  0  # atno 8010 bound_to 7997
  139.7533  144.6977  151.0400 H   0  0  0  0  0  0  0  0  0  0  0  0  # atno 10167 bound_to 10162
  157.2537  131.0784  151.1712 H   0  0  0  0  0  0  0  0  0  0  0  0  # atno 10718 bound_to 10713
  154.6909  135.5213  153.8392 H   0  0  0  0  0  0  0  0  0  0  0  0  # atno 10763 bound_to 10752
  153.0632  135.6575  154.0425 H   0  0  0  0  0  0  0  0  0  0  0  0  # atno 10764 bound_to 10752
  154.0299  135.2986  155.3349 H   0  0  0  0  0  0  0  0  0  0  0  0  # atno 10765 bound_to 10752
  141.0756  133.6667  156.3578 H   0  0  0  0  0  0  0  0  0  0  0  0  # atno 11005 bound_to 11000
  145.4064  139.1588  143.4149 LP  0  0  0  0  0  0  0  0  0  0  0  0  # atno 17320 bound_to 7965
  146.2954  140.4165  142.8723 LP  0  0  0  0  0  0  0  0  0  0  0  0  # atno 17321 bound_to 7965
  140.7800  143.4783  151.0052 LP  0  0  0  0  0  0  0  0  0  0  0  0  # atno 17342 bound_to 10162
  139.8470  143.7488  152.3179 LP  0  0  0  0  0  0  0  0  0  0  0  0  # atno 17343 bound_to 10162
  157.3250  130.6956  149.6291 LP  0  0  0  0  0  0  0  0  0  0  0  0  # atno 17370 bound_to 10713
  155.9665  130.4324  150.4962 LP  0  0  0  0  0  0  0  0  0  0  0  0  # atno 17371 bound_to 10713
  140.5580  134.5962  157.5426 LP  0  0  0  0  0  0  0  0  0  0  0  0  # atno 17394 bound_to 11000
  139.9568  134.7520  156.0323 LP  0  0  0  0  0  0  0  0  0  0  0  0  # atno 17395 bound_to 11000

$$$$
