AV-unprocessed.smi:1803|AV-procd|sdf|7283|dock8
  -GOLD-   22720 8543D 1   1.00000     0.00000
 Structure written by MMmdl.
 36 38  0  0  0  0  0  0  0  0  2 V2000
  145.7412  138.8172  153.7723 O   0  0  0  0  0  0  0  0  0  0  0  0
  146.5488  138.0526  153.2480 C   0  0  0  0  0  0  0  0  0  0  0  0
  147.8754  138.2964  153.2961 N   0  0  0  0  0  0  0  0  0  0  0  0
  148.6108  139.3649  153.8873 C   0  0  0  0  0  0  0  0  0  0  0  0
  149.9253  139.3189  154.1606 N   0  0  0  0  0  0  0  0  0  0  0  0
  150.3870  140.5071  154.7099 N   0  0  0  0  0  0  0  0  0  0  0  0
  149.4080  141.4096  154.8172 C   0  0  0  0  0  0  0  0  0  0  0  0
  147.8263  140.8939  154.2585 S   0  0  0  0  0  0  0  0  0  0  0  0
  146.1780  136.9354  152.6001 N   0  0  0  0  0  0  0  0  0  0  0  0
  144.8045  136.4905  152.3770 C   0  0  2  0  0  0  0  0  0  0  0  0
  144.0707  136.1480  153.6884 C   0  0  0  0  0  0  0  0  0  0  0  0
  143.3109  134.8528  153.3847 C   0  0  0  0  0  0  0  0  0  0  0  0
  144.1881  134.1742  152.4237 N   0  3  1  0  0  0  0  0  0  0  0  0
  143.6669  132.9923  151.7073 C   0  0  0  0  0  0  0  0  0  0  0  0
  144.8215  132.3614  150.8995 C   0  0  0  0  0  0  0  0  0  0  0  0
  145.5338  133.3919  149.9946 C   0  0  0  0  0  0  0  0  0  0  0  0
  145.9404  134.6582  150.7787 C   0  0  0  0  0  0  0  0  0  0  0  0
  144.7056  135.2108  151.5140 C   0  0  2  0  0  0  0  0  0  0  0  0
  148.4507  137.5570  152.9191 H   0  0  0  0  0  0  0  0  0  0  0  0
  149.6194  142.3869  155.2253 H   0  0  0  0  0  0  0  0  0  0  0  0
  146.9105  136.3616  152.2067 H   0  0  0  0  0  0  0  0  0  0  0  0
  144.2470  137.2854  151.8778 H   0  0  0  0  0  0  0  0  0  0  0  0
  144.7898  135.9615  154.4880 H   0  0  0  0  0  0  0  0  0  0  0  0
  143.4105  136.9491  154.0221 H   0  0  0  0  0  0  0  0  0  0  0  0
  143.1339  134.2486  154.2748 H   0  0  0  0  0  0  0  0  0  0  0  0
  142.3501  135.0720  152.9161 H   0  0  0  0  0  0  0  0  0  0  0  0
  143.2714  132.2719  152.4241 H   0  0  0  0  0  0  0  0  0  0  0  0
  142.8450  133.2826  151.0510 H   0  0  0  0  0  0  0  0  0  0  0  0
  145.5492  131.9348  151.5912 H   0  0  0  0  0  0  0  0  0  0  0  0
  144.4481  131.5314  150.2987 H   0  0  0  0  0  0  0  0  0  0  0  0
  146.4114  132.9403  149.5312 H   0  0  0  0  0  0  0  0  0  0  0  0
  144.8666  133.6730  149.1787 H   0  0  0  0  0  0  0  0  0  0  0  0
  146.7326  134.4183  151.4896 H   0  0  0  0  0  0  0  0  0  0  0  0
  146.3430  135.4038  150.0924 H   0  0  0  0  0  0  0  0  0  0  0  0
  143.9324  135.4055  150.7676 H   0  0  0  0  0  0  0  0  0  0  0  0
  144.9813  133.8562  152.9622 H   0  0  0  0  0  0  0  0  0  0  0  0
  1  2  2  0  0  0  0
  2  3  1  0  0  0  0
  2  9  1  0  0  0  0
  3  4  1  0  0  0  0
  3 19  1  0  0  0  0
  4  8  1  0  0  0  0
  4  5  2  0  0  0  0
  5  6  1  0  0  0  0
  6  7  2  0  0  0  0
  7  8  1  0  0  0  0
  7 20  1  0  0  0  0
  9 10  1  0  0  0  0
  9 21  1  0  0  0  0
 10 18  1  0  0  0  0
 10 11  1  0  0  0  0
 10 22  1  0  0  0  0
 11 12  1  0  0  0  0
 11 23  1  0  0  0  0
 11 24  1  0  0  0  0
 12 13  1  0  0  0  0
 12 25  1  0  0  0  0
 12 26  1  0  0  0  0
 13 18  1  0  0  0  0
 13 14  1  0  0  0  0
 13 36  1  0  0  0  0
 14 15  1  0  0  0  0
 14 27  1  0  0  0  0
 14 28  1  0  0  0  0
 15 16  1  0  0  0  0
 15 29  1  0  0  0  0
 15 30  1  0  0  0  0
 16 17  1  0  0  0  0
 16 31  1  0  0  0  0
 16 32  1  0  0  0  0
 17 18  1  0  0  0  0
 17 33  1  0  0  0  0
 17 34  1  0  0  0  0
 18 35  1  0  0  0  0
M  CHG  1  13   1
M  END
> <s_m_source_file>
AV-unprocessed.smi

> <i_m_source_file_index>
1803

> <i_lp_mmshare_version>
43012

> <i_f3d_flags>
0

> <s_epik_input>
czFbY0hdbm5jMVtOSF1DKD1PKVtOSF1bQ0BIXShbQ0gyXVtDSDJdMilbQ0BASF0oTjIzKVtDSDJdW0NIMl1bQ0gyXVtDSDJdMw==

> <s_epik_cmdline>
J2VwaWtfcHl0aG9uJywgJy1waCcsICc3LjAnLCAnLXRuJywgJzgnLCAnLW1hJywgJzIwMCcsICctbWV0YWxfYmluZGluZycsICctaW1hZScsICc8aW5maWxlLm1hZT4nLCAnLW9tYWUnLCAnPG91dGZpbGUubWFlPic=

> <r_lp_tautomer_probability>
1

> <r_epik_Ionization_Penalty>
0.00213286

> <r_epik_Ionization_Penalty_Charging>
0.00107044

> <r_epik_Ionization_Penalty_Neutral>
0.00106242

> <r_epik_State_Penalty>
-0

> <r_epik_Charging_Adjusted_Penalty>
0.00107044

> <i_epik_Tot_Q>
1

> <i_epik_Tot_abs_Q>
1

> <r_epik_Metal_State_Penalty>
0.292783

> <b_epik_Metal_Only>
0

> <s_lp_Force_Field>
OPLS_2005

> <r_lp_Energy>
42.6799

> <b_lp_Chiralities_Consistent>
1

> <s_lp_Variant>
AV-unprocessed.smi:1803-5

> <Gold.Version>
5.8.1

> <Gold.Id.Protein>
6NUR|6NUR_protein|mol2

> <Gold.PLP.Fitness>
36.0172

> <Gold.PLP.PLP>
-24.5536

> <Gold.PLP.part.hbond>
-3.4849

> <Gold.PLP.part.metal>
0.0000

> <Gold.PLP.part.buried>
-0.2515

> <Gold.PLP.part.nonpolar>
-20.5509

> <Gold.PLP.part.repulsive>
1.7915

> <Gold.PLP.ligand.clash>
0.0000

> <Gold.PLP.ligand.torsion>
0.0985

> <Gold.PLP.Chemscore.Hbond>
2.8882

> <Gold.PLP.Chemscore.CHOScore>
0.9983

> <Gold.PLP.Chemscore.Metal>
0.0000

> <Gold.Chemscore.Hbonds>
donor molecule, donor type, donor heavy atom, donor atom, acceptor molecule, acceptor atom, score
      L1  H     3    19       P1  7948  1.00
      L1  H     9    21       P1  7948  0.84
      P1  H  7989  7998       L1     6  0.89
      L1  C     7    20       P1  8028  1.00

> <Gold.PLP.Chemscore.Internal.Correction>
0.0013

> <Gold.Rescore>
     Score         DG    S(hbond)    S(metal)    S(lipo)     H(rot)  DE(clash)    DE(int)     intcor
     13.47     -16.02       1.89        0.00      57.96       1.00       1.40       1.15       ----

> <Gold.Chemscore.Fitness>
13.4742

> <Gold.Chemscore.DG>
-16.0155

> <Gold.Chemscore.ZeroCoef>
-5.4800

> <Gold.Chemscore.Hbond>
1.8905

> <Gold.Chemscore.Metal>
0.0000

> <Gold.Chemscore.Lipo>
57.9601

> <Gold.Chemscore.Internal_Hbond>
0.0000

> <Gold.Chemscore.DEClash>
1.3955

> <Gold.Chemscore.DEInternal>
1.1457

> <Gold.Chemscore.Rot>
1.0000

> <Gold.Chemscore.Internal.Correction>
   9.000000E+99

> <Gold.Chemscore.Hbonds>
donor molecule, donor type, donor heavy atom, donor atom, acceptor molecule, acceptor atom, score
      L1  H     3    19       P1  7948  0.99
      L1  H     9    21       P1  7948  0.78
      P1  H  7989  7998       L1     6  0.15

> <Gold.Chemscore.Hbond.Weighted>
-6.3141

> <Gold.Chemscore.Metal.Weighted>
-0.0000

> <Gold.Chemscore.Lipo.Weighted>
-6.7813

> <Gold.Chemscore.Internal_Hbond.Weighted>
0.0000

> <Gold.Chemscore.DEClash.Weighted>
1.3955

> <Gold.Chemscore.DEInternal.Weighted>
1.1457

> <Gold.Chemscore.Rot.Weighted>
2.5600

> <Gold.Chemscore.Internal.Correction.Weighted>
   9.000000E+99

> <Gold.Protein.RotatedTorsions>
[ 6907 6896 6895 6894 ] final    4.84 input  -60.11 | X-H torsion
[ 7974 7965 7964 7962 ] final  -26.03 input  175.53 | X-H torsion
[ 8008 7997 7996 7995 ] final -124.85 input   59.86 | X-H torsion
[ 10167 10162 10161 10158 ] final  -18.01 input  -65.29 | X-H torsion
[ 10718 10713 10712 10709 ] final  -89.57 input   66.30 | X-H torsion
[ 10763 10752 10751 10750 ] final -130.19 input  -60.55 | X-H torsion
[ 11005 11000 10999 10996 ] final  118.47 input  -57.11 | X-H torsion

> <Gold.Protein.ActiveResidues>
 VAL166  LYS551  ARG553  GLY616  TRP617  ASP618  TYR619  PRO620  LYS621  CYS622 
 ASP623  PHE694  ASN695  SER759  ASP760  ASP761  ALA762  ILE779  LEU786  VAL792 
 PHE793  MET794  SER795  GLU796  ALA797  LYS798  CYS799  TRP800  GLU811  SER814 

> <Gold.Protein.RotatedAtoms>
  151.6478  135.1005  160.0154 H   0  0  0  0  0  0  0  0  0  0  0  0  # atno 6907 bound_to 6896
  152.4018  133.6824  159.6331 H   0  0  0  0  0  0  0  0  0  0  0  0  # atno 6908 bound_to 6896
  150.7917  133.8695  159.3296 H   0  0  0  0  0  0  0  0  0  0  0  0  # atno 6909 bound_to 6896
  146.1452  140.4965  142.8635 H   0  0  0  0  0  0  0  0  0  0  0  0  # atno 7974 bound_to 7965
  155.2036  140.0416  157.2921 H   0  0  0  0  0  0  0  0  0  0  0  0  # atno 8008 bound_to 7997
  154.6058  140.2464  155.7704 H   0  0  0  0  0  0  0  0  0  0  0  0  # atno 8009 bound_to 7997
  156.2349  140.2925  156.0296 H   0  0  0  0  0  0  0  0  0  0  0  0  # atno 8010 bound_to 7997
  140.7254  143.4959  150.9932 H   0  0  0  0  0  0  0  0  0  0  0  0  # atno 10167 bound_to 10162
  155.9985  130.4877  150.5192 H   0  0  0  0  0  0  0  0  0  0  0  0  # atno 10718 bound_to 10713
  154.8756  135.3870  154.4043 H   0  0  0  0  0  0  0  0  0  0  0  0  # atno 10763 bound_to 10752
  153.4764  135.7030  153.5969 H   0  0  0  0  0  0  0  0  0  0  0  0  # atno 10764 bound_to 10752
  153.4403  135.3857  155.2192 H   0  0  0  0  0  0  0  0  0  0  0  0  # atno 10765 bound_to 10752
  139.9111  134.9620  156.7508 H   0  0  0  0  0  0  0  0  0  0  0  0  # atno 11005 bound_to 11000
  144.7838  140.5895  143.6587 LP  0  0  0  0  0  0  0  0  0  0  0  0  # atno 17320 bound_to 7965
  145.4953  139.1486  143.3687 LP  0  0  0  0  0  0  0  0  0  0  0  0  # atno 17321 bound_to 7965
  139.8666  143.7246  152.3169 LP  0  0  0  0  0  0  0  0  0  0  0  0  # atno 17342 bound_to 10162
  139.7480  144.7542  151.0549 LP  0  0  0  0  0  0  0  0  0  0  0  0  # atno 17343 bound_to 10162
  157.3155  131.0672  151.1970 LP  0  0  0  0  0  0  0  0  0  0  0  0  # atno 17370 bound_to 10713
  157.2901  130.6792  149.6110 LP  0  0  0  0  0  0  0  0  0  0  0  0  # atno 17371 bound_to 10713
  140.6775  133.9504  155.7891 LP  0  0  0  0  0  0  0  0  0  0  0  0  # atno 17394 bound_to 11000
  141.0534  134.0452  157.3754 LP  0  0  0  0  0  0  0  0  0  0  0  0  # atno 17395 bound_to 11000

$$$$
