AV-unprocessed.smi:344|AV-procd|sdf|2390|dock7
  -GOLD-   2262022323D 1   1.00000     0.00000
 Structure written by MMmdl.
 37 38  0  0  0  0  0  0  0  0  2 V2000
  144.5853  138.0745  153.2625 N   0  0  0  0  0  0  0  0  0  0  0  0
  145.7079  137.6218  152.6963 C   0  0  0  0  0  0  0  0  0  0  0  0
  146.0497  136.4429  152.7679 O   0  0  0  0  0  0  0  0  0  0  0  0
  146.5797  138.6386  151.9552 C   0  0  0  0  0  0  0  0  0  0  0  0
  147.1181  139.6689  152.9056 C   0  0  0  0  0  0  0  0  0  0  0  0
  146.8209  141.0074  152.9278 C   0  0  0  0  0  0  0  0  0  0  0  0
  147.6656  141.8333  154.2058 S   0  0  0  0  0  0  0  0  0  0  0  0
  148.4244  140.3100  154.6739 C   0  0  0  0  0  0  0  0  0  0  0  0
  149.2810  140.1564  155.6953 N   0  5  0  0  0  0  0  0  0  0  0  0
  150.5596  140.5860  155.5683 C   0  0  0  0  0  0  0  0  0  0  0  0
  151.5048  140.0461  154.9917 O   0  0  0  0  0  0  0  0  0  0  0  0
  150.7821  141.9295  156.2692 C   0  0  0  0  0  0  0  0  0  0  0  0
  151.2722  141.7442  157.7169 C   0  0  0  0  0  0  0  0  0  0  0  0
  151.8365  143.0353  158.3357 C   0  0  0  0  0  0  0  0  0  0  0  0
  152.1527  142.9069  159.8275 C   0  0  0  0  0  0  0  0  0  0  0  0
  152.2170  144.3471  160.3464 C   0  0  0  0  0  0  0  0  0  0  0  0
  151.3812  145.1920  159.3728 C   0  0  0  0  0  0  0  0  0  0  0  0
  150.8798  144.2310  158.2887 C   0  0  0  0  0  0  0  0  0  0  0  0
  148.0282  139.2947  153.8989 N   0  0  0  0  0  0  0  0  0  0  0  0
  143.9703  137.4345  153.7433 H   0  0  0  0  0  0  0  0  0  0  0  0
  144.3467  139.0537  153.1884 H   0  0  0  0  0  0  0  0  0  0  0  0
  147.3907  138.1114  151.4509 H   0  0  0  0  0  0  0  0  0  0  0  0
  145.9901  139.1159  151.1715 H   0  0  0  0  0  0  0  0  0  0  0  0
  146.1549  141.5540  152.2772 H   0  0  0  0  0  0  0  0  0  0  0  0
  151.5181  142.5001  155.7013 H   0  0  0  0  0  0  0  0  0  0  0  0
  149.8627  142.5173  156.2485 H   0  0  0  0  0  0  0  0  0  0  0  0
  150.4599  141.3650  158.3392 H   0  0  0  0  0  0  0  0  0  0  0  0
  152.0484  140.9776  157.7333 H   0  0  0  0  0  0  0  0  0  0  0  0
  152.7575  143.3076  157.8176 H   0  0  0  0  0  0  0  0  0  0  0  0
  151.3448  142.3757  160.3331 H   0  0  0  0  0  0  0  0  0  0  0  0
  153.0754  142.3560  160.0128 H   0  0  0  0  0  0  0  0  0  0  0  0
  151.8486  144.4185  161.3702 H   0  0  0  0  0  0  0  0  0  0  0  0
  153.2491  144.6994  160.3457 H   0  0  0  0  0  0  0  0  0  0  0  0
  150.5500  145.6882  159.8754 H   0  0  0  0  0  0  0  0  0  0  0  0
  152.0047  145.9693  158.9295 H   0  0  0  0  0  0  0  0  0  0  0  0
  150.8446  144.7008  157.3052 H   0  0  0  0  0  0  0  0  0  0  0  0
  149.8674  143.9055  158.5331 H   0  0  0  0  0  0  0  0  0  0  0  0
  1  2  1  0  0  0  0
  1 20  1  0  0  0  0
  1 21  1  0  0  0  0
  2  3  2  0  0  0  0
  2  4  1  0  0  0  0
  4  5  1  0  0  0  0
  4 22  1  0  0  0  0
  4 23  1  0  0  0  0
  5 19  1  0  0  0  0
  5  6  2  0  0  0  0
  6  7  1  0  0  0  0
  6 24  1  0  0  0  0
  7  8  1  0  0  0  0
  8  9  1  0  0  0  0
  8 19  2  0  0  0  0
  9 10  1  0  0  0  0
 10 11  2  0  0  0  0
 10 12  1  0  0  0  0
 12 13  1  0  0  0  0
 12 25  1  0  0  0  0
 12 26  1  0  0  0  0
 13 14  1  0  0  0  0
 13 27  1  0  0  0  0
 13 28  1  0  0  0  0
 14 18  1  0  0  0  0
 14 15  1  0  0  0  0
 14 29  1  0  0  0  0
 15 16  1  0  0  0  0
 15 30  1  0  0  0  0
 15 31  1  0  0  0  0
 16 17  1  0  0  0  0
 16 32  1  0  0  0  0
 16 33  1  0  0  0  0
 17 18  1  0  0  0  0
 17 34  1  0  0  0  0
 17 35  1  0  0  0  0
 18 36  1  0  0  0  0
 18 37  1  0  0  0  0
M  CHG  1   9  -1
M  END
> <s_m_source_file>
AV-unprocessed.smi

> <i_m_source_file_index>
344

> <i_lp_mmshare_version>
43012

> <i_f3d_flags>
0

> <s_epik_input>
W05IMl1DKD1PKVtDSDJdYzFbY0hdc2MobjEpW05IXUMoPU8pW0NIMl1bQ0gyXVtDSF0yW0NIMl1bQ0gyXVtDSDJdW0NIMl0y

> <s_epik_cmdline>
J2VwaWtfcHl0aG9uJywgJy1waCcsICc3LjAnLCAnLXRuJywgJzgnLCAnLW1hJywgJzIwMCcsICctbWV0YWxfYmluZGluZycsICctaW1hZScsICc8aW5maWxlLm1hZT4nLCAnLW9tYWUnLCAnPG91dGZpbGUubWFlPic=

> <r_lp_tautomer_probability>
1

> <r_epik_Ionization_Penalty>
5.48595

> <r_epik_Ionization_Penalty_Charging>
4.99802

> <r_epik_Ionization_Penalty_Neutral>
0.48793

> <r_epik_State_Penalty>
4.99789

> <r_epik_Charging_Adjusted_Penalty>
9.99592

> <i_epik_Tot_Q>
-1

> <i_epik_Tot_abs_Q>
1

> <r_epik_Metal_State_Penalty>
1.11866

> <b_epik_Metal_Only>
1

> <s_lp_Force_Field>
OPLS_2005

> <r_lp_Energy>
17.7805

> <b_lp_Chiralities_Consistent>
1

> <s_lp_Variant>
AV-unprocessed.smi:344-2

> <Gold.Version>
5.8.1

> <Gold.Id.Protein>
6NUR|6NUR_protein|mol2

> <Gold.PLP.Fitness>
43.4687

> <Gold.PLP.PLP>
-40.8806

> <Gold.PLP.part.hbond>
-2.0000

> <Gold.PLP.part.metal>
0.0000

> <Gold.PLP.part.buried>
-5.2058

> <Gold.PLP.part.nonpolar>
-35.5935

> <Gold.PLP.part.repulsive>
0.4440

> <Gold.PLP.ligand.clash>
0.0000

> <Gold.PLP.ligand.torsion>
1.9208

> <Gold.PLP.Chemscore.Hbond>
2.0000

> <Gold.PLP.Chemscore.CHOScore>
0.0716

> <Gold.PLP.Chemscore.Metal>
0.0000

> <Gold.Chemscore.Hbonds>
donor molecule, donor type, donor heavy atom, donor atom, acceptor molecule, acceptor atom, score
      L1  H     1    21       P1 10175  1.00
      P1  H  7989  7998       L1    11  1.00
      L1  C     6    24       P1 10175  0.07

> <Gold.PLP.Chemscore.Internal.Correction>
0.2150

> <Gold.Rescore>
     Score         DG    S(hbond)    S(metal)    S(lipo)     H(rot)  DE(clash)    DE(int)     intcor
     15.35     -17.43       1.67        0.00     106.64       2.39       0.16       1.92       ----

> <Gold.Chemscore.Fitness>
15.3464

> <Gold.Chemscore.DG>
-17.4264

> <Gold.Chemscore.ZeroCoef>
-5.4800

> <Gold.Chemscore.Hbond>
1.6735

> <Gold.Chemscore.Metal>
0.0000

> <Gold.Chemscore.Lipo>
106.6407

> <Gold.Chemscore.Internal_Hbond>
0.0000

> <Gold.Chemscore.DEClash>
0.1554

> <Gold.Chemscore.DEInternal>
1.9246

> <Gold.Chemscore.Rot>
2.3907

> <Gold.Chemscore.Internal.Correction>
   9.000000E+99

> <Gold.Chemscore.Hbonds>
donor molecule, donor type, donor heavy atom, donor atom, acceptor molecule, acceptor atom, score
      L1  H     1    21       P1 10175  0.98
      P1  H  7989  7998       L1    11  0.49

> <Gold.Chemscore.Hbond.Weighted>
-5.5896

> <Gold.Chemscore.Metal.Weighted>
-0.0000

> <Gold.Chemscore.Lipo.Weighted>
-12.4770

> <Gold.Chemscore.Internal_Hbond.Weighted>
0.0000

> <Gold.Chemscore.DEClash.Weighted>
0.1554

> <Gold.Chemscore.DEInternal.Weighted>
1.9246

> <Gold.Chemscore.Rot.Weighted>
6.1201

> <Gold.Chemscore.Internal.Correction.Weighted>
   9.000000E+99

> <Gold.Protein.RotatedTorsions>
[ 6907 6896 6895 6894 ] final   28.32 input  -60.11 | X-H torsion
[ 7974 7965 7964 7962 ] final   90.41 input  175.53 | X-H torsion
[ 8008 7997 7996 7995 ] final   55.95 input   59.86 | X-H torsion
[ 10167 10162 10161 10158 ] final -148.45 input  -65.29 | X-H torsion
[ 10718 10713 10712 10709 ] final  -82.87 input   66.30 | X-H torsion
[ 10763 10752 10751 10750 ] final  166.72 input  -60.55 | X-H torsion
[ 11005 11000 10999 10996 ] final  -52.10 input  -57.11 | X-H torsion

> <Gold.Protein.ActiveResidues>
 VAL166  LYS551  ARG553  GLY616  TRP617  ASP618  TYR619  PRO620  LYS621  CYS622 
 ASP623  PHE694  ASN695  SER759  ASP760  ASP761  ALA762  ILE779  LEU786  VAL792 
 PHE793  MET794  SER795  GLU796  ALA797  LYS798  CYS799  TRP800  GLU811  SER814 

> <Gold.Protein.RotatedAtoms>
  152.0152  134.9854  160.0568 H   0  0  0  0  0  0  0  0  0  0  0  0  # atno 6907 bound_to 6896
  152.1390  133.4448  159.4766 H   0  0  0  0  0  0  0  0  0  0  0  0  # atno 6908 bound_to 6896
  150.6863  134.2246  159.4453 H   0  0  0  0  0  0  0  0  0  0  0  0  # atno 6909 bound_to 6896
  145.5194  139.2279  143.2680 H   0  0  0  0  0  0  0  0  0  0  0  0  # atno 7974 bound_to 7965
  155.5094  140.3476  155.4385 H   0  0  0  0  0  0  0  0  0  0  0  0  # atno 8008 bound_to 7997
  156.0859  140.1398  156.9681 H   0  0  0  0  0  0  0  0  0  0  0  0  # atno 8009 bound_to 7997
  154.4606  140.0936  156.6860 H   0  0  0  0  0  0  0  0  0  0  0  0  # atno 8010 bound_to 7997
  139.7530  143.8489  152.2591 H   0  0  0  0  0  0  0  0  0  0  0  0  # atno 10167 bound_to 10162
  156.0026  130.4648  150.4171 H   0  0  0  0  0  0  0  0  0  0  0  0  # atno 10718 bound_to 10713
  154.3432  135.2754  155.2412 H   0  0  0  0  0  0  0  0  0  0  0  0  # atno 10763 bound_to 10752
  154.4673  135.5892  153.6300 H   0  0  0  0  0  0  0  0  0  0  0  0  # atno 10764 bound_to 10752
  152.9856  135.6079  154.3635 H   0  0  0  0  0  0  0  0  0  0  0  0  # atno 10765 bound_to 10752
  141.0906  133.6633  156.3974 H   0  0  0  0  0  0  0  0  0  0  0  0  # atno 11005 bound_to 11000
  146.2116  140.6005  142.9057 LP  0  0  0  0  0  0  0  0  0  0  0  0  # atno 17320 bound_to 7965
  144.7684  140.5583  143.6687 LP  0  0  0  0  0  0  0  0  0  0  0  0  # atno 17321 bound_to 7965
  139.8473  144.7181  150.9257 LP  0  0  0  0  0  0  0  0  0  0  0  0  # atno 17342 bound_to 10162
  140.7800  143.3930  151.1278 LP  0  0  0  0  0  0  0  0  0  0  0  0  # atno 17343 bound_to 10162
  157.2230  131.0486  151.2536 LP  0  0  0  0  0  0  0  0  0  0  0  0  # atno 17370 bound_to 10713
  157.3783  130.7217  149.6612 LP  0  0  0  0  0  0  0  0  0  0  0  0  # atno 17371 bound_to 10713
  140.5260  134.6258  157.5334 LP  0  0  0  0  0  0  0  0  0  0  0  0  # atno 17394 bound_to 11000
  139.9731  134.7259  156.0001 LP  0  0  0  0  0  0  0  0  0  0  0  0  # atno 17395 bound_to 11000

$$$$
