AV-unprocessed.smi:2804|AV-procd|sdf|10809|dock8
  -GOLD-   2272015243D 1   1.00000     0.00000
 Structure written by MMmdl.
 35 36  0  0  0  0  0  0  0  0  1 V2000
  149.4990  141.2113  155.0011 C   0  0  0  0  0  0  0  0  0  0  0  0
  150.1627  141.1107  156.3780 C   0  0  0  0  0  0  0  0  0  0  0  0
  151.1951  142.2238  156.6154 C   0  0  0  0  0  0  0  0  0  0  0  0
  151.8791  142.0439  157.8932 N   0  0  0  0  0  0  0  0  0  0  0  0
  152.5576  140.9448  158.2976 C   0  0  0  0  0  0  0  0  0  0  0  0
  152.7247  139.9155  157.6435 O   0  0  0  0  0  0  0  0  0  0  0  0
  153.0056  141.1662  159.5560 N   0  0  0  0  0  0  0  0  0  0  0  0
  153.7681  140.2312  160.3824 C   0  0  0  0  0  0  0  0  0  0  0  0
  155.2135  140.0625  159.8684 C   0  0  2  0  0  0  0  0  0  0  0  0
  155.1776  139.3083  158.6721 O   0  0  0  0  0  0  0  0  0  0  0  0
  156.1184  139.3211  160.8718 C   0  0  0  0  0  0  0  0  0  0  0  0
  156.0339  139.8904  162.0746 F   0  0  0  0  0  0  0  0  0  0  0  0
  155.7150  138.0560  160.9880 F   0  0  0  0  0  0  0  0  0  0  0  0
  157.3877  139.3282  160.4626 F   0  0  0  0  0  0  0  0  0  0  0  0
  152.5865  142.4373  159.9756 C   0  0  0  0  0  0  0  0  0  0  0  0
  152.7727  143.1215  161.1899 C   0  0  0  0  0  0  0  0  0  0  0  0
  152.2001  144.4103  161.3005 C   0  0  0  0  0  0  0  0  0  0  0  0
  151.4688  144.9763  160.2240 C   0  0  0  0  0  0  0  0  0  0  0  0
  151.2953  144.2657  159.0133 C   0  0  0  0  0  0  0  0  0  0  0  0
  151.8764  142.9884  158.9293 C   0  0  0  0  0  0  0  0  0  0  0  0
  148.7695  140.4131  154.8625 H   0  0  0  0  0  0  0  0  0  0  0  0
  150.2367  141.1308  154.2022 H   0  0  0  0  0  0  0  0  0  0  0  0
  148.9786  142.1622  154.8840 H   0  0  0  0  0  0  0  0  0  0  0  0
  149.3930  141.1524  157.1496 H   0  0  0  0  0  0  0  0  0  0  0  0
  150.6431  140.1363  156.4739 H   0  0  0  0  0  0  0  0  0  0  0  0
  151.9250  142.2363  155.8043 H   0  0  0  0  0  0  0  0  0  0  0  0
  150.7092  143.1999  156.5991 H   0  0  0  0  0  0  0  0  0  0  0  0
  153.7835  140.6281  161.3984 H   0  0  0  0  0  0  0  0  0  0  0  0
  153.2614  139.2684  160.4542 H   0  0  0  0  0  0  0  0  0  0  0  0
  155.6563  141.0359  159.6528 H   0  0  0  0  0  0  0  0  0  0  0  0
  154.2864  139.0339  158.5185 H   0  0  0  0  0  0  0  0  0  0  0  0
  153.3247  142.6855  162.0091 H   0  0  0  0  0  0  0  0  0  0  0  0
  152.3186  144.9693  162.2169 H   0  0  0  0  0  0  0  0  0  0  0  0
  151.0375  145.9607  160.3309 H   0  0  0  0  0  0  0  0  0  0  0  0
  150.7364  144.6894  158.1921 H   0  0  0  0  0  0  0  0  0  0  0  0
  1  2  1  0  0  0  0
  1 21  1  0  0  0  0
  1 22  1  0  0  0  0
  1 23  1  0  0  0  0
  2  3  1  0  0  0  0
  2 24  1  0  0  0  0
  2 25  1  0  0  0  0
  3  4  1  0  0  0  0
  3 26  1  0  0  0  0
  3 27  1  0  0  0  0
  4 20  1  0  0  0  0
  4  5  1  0  0  0  0
  5  6  2  0  0  0  0
  5  7  1  0  0  0  0
  7  8  1  0  0  0  0
  7 15  1  0  0  0  0
  8  9  1  0  0  0  0
  8 28  1  0  0  0  0
  8 29  1  0  0  0  0
  9 10  1  0  0  0  0
  9 11  1  0  0  0  0
  9 30  1  0  0  0  0
 10 31  1  0  0  0  0
 11 12  1  0  0  0  0
 11 13  1  0  0  0  0
 11 14  1  0  0  0  0
 15 20  2  0  0  0  0
 15 16  1  0  0  0  0
 16 17  2  0  0  0  0
 16 32  1  0  0  0  0
 17 18  1  0  0  0  0
 17 33  1  0  0  0  0
 18 19  2  0  0  0  0
 18 34  1  0  0  0  0
 19 20  1  0  0  0  0
 19 35  1  0  0  0  0
M  END
> <s_m_source_file>
AV-unprocessed.smi

> <i_m_source_file_index>
2804

> <i_lp_mmshare_version>
43012

> <i_f3d_flags>
0

> <s_epik_input>
W2NIXTFbY0hdW2NIXVtjSF1jKGMxMiluKFtDSDJdW0NIMl1bQ0gzXSljKD1PKW4yW0NIMl1bQ0BIXShbT0hdKUMoRikoRilG

> <s_epik_cmdline>
J2VwaWtfcHl0aG9uJywgJy1waCcsICc3LjAnLCAnLXRuJywgJzgnLCAnLW1hJywgJzIwMCcsICctbWV0YWxfYmluZGluZycsICctaW1hZScsICc8aW5maWxlLm1hZT4nLCAnLW9tYWUnLCAnPG91dGZpbGUubWFlPic=

> <r_epik_Ionization_Penalty>
0.0117937

> <r_epik_Ionization_Penalty_Charging>
3.30828e-09

> <r_epik_Ionization_Penalty_Neutral>
0.0117937

> <r_epik_State_Penalty>
0.00909547

> <r_epik_Charging_Adjusted_Penalty>
0.00909547

> <i_epik_Tot_Q>
0

> <i_epik_Tot_abs_Q>
0

> <r_epik_Metal_State_Penalty>
0.00909547

> <b_epik_Metal_Only>
0

> <s_lp_Force_Field>
OPLS_2005

> <r_lp_Energy>
41.5992

> <b_lp_Chiralities_Consistent>
1

> <s_lp_Variant>
AV-unprocessed.smi:2804-1

> <Gold.Version>
5.8.1

> <Gold.Id.Protein>
6NUR|6NUR_protein|mol2

> <Gold.PLP.Fitness>
45.9835

> <Gold.PLP.PLP>
-42.4807

> <Gold.PLP.part.hbond>
-1.8882

> <Gold.PLP.part.metal>
0.0000

> <Gold.PLP.part.buried>
-4.8441

> <Gold.PLP.part.nonpolar>
-33.8706

> <Gold.PLP.part.repulsive>
0.0000

> <Gold.PLP.ligand.clash>
0.0000

> <Gold.PLP.ligand.torsion>
0.2790

> <Gold.PLP.Chemscore.Hbond>
1.3440

> <Gold.PLP.Chemscore.CHOScore>
0.0000

> <Gold.PLP.Chemscore.Metal>
0.0000

> <Gold.Chemscore.Hbonds>
donor molecule, donor type, donor heavy atom, donor atom, acceptor molecule, acceptor atom, score
      P1  H  7997  8008       L1    10  0.53
      P1  H  7997  8009       L1     6  0.82

> <Gold.PLP.Chemscore.Internal.Correction>
0.0287

> <Gold.Rescore>
     Score         DG    S(hbond)    S(metal)    S(lipo)     H(rot)  DE(clash)    DE(int)     intcor
     16.04     -16.47       1.20        0.00     110.27       2.32       0.15       0.27       ----

> <Gold.Chemscore.Fitness>
16.0417

> <Gold.Chemscore.DG>
-16.4691

> <Gold.Chemscore.ZeroCoef>
-5.4800

> <Gold.Chemscore.Hbond>
1.2018

> <Gold.Chemscore.Metal>
0.0000

> <Gold.Chemscore.Lipo>
110.2735

> <Gold.Chemscore.Internal_Hbond>
0.0000

> <Gold.Chemscore.DEClash>
0.1532

> <Gold.Chemscore.DEInternal>
0.2741

> <Gold.Chemscore.Rot>
2.3152

> <Gold.Chemscore.Internal.Correction>
   9.000000E+99

> <Gold.Chemscore.Hbonds>
donor molecule, donor type, donor heavy atom, donor atom, acceptor molecule, acceptor atom, score
      P1  H  7997  8008       L1    10  0.37
      P1  H  7997  8009       L1     6  0.57

> <Gold.Chemscore.Hbond.Weighted>
-4.0139

> <Gold.Chemscore.Metal.Weighted>
-0.0000

> <Gold.Chemscore.Lipo.Weighted>
-12.9020

> <Gold.Chemscore.Internal_Hbond.Weighted>
0.0000

> <Gold.Chemscore.DEClash.Weighted>
0.1532

> <Gold.Chemscore.DEInternal.Weighted>
0.2741

> <Gold.Chemscore.Rot.Weighted>
5.9268

> <Gold.Chemscore.Internal.Correction.Weighted>
   9.000000E+99

> <Gold.Protein.RotatedTorsions>
[ 6907 6896 6895 6894 ] final  -24.64 input  -60.11 | X-H torsion
[ 7974 7965 7964 7962 ] final  -97.20 input  175.53 | X-H torsion
[ 8008 7997 7996 7995 ] final -166.54 input   59.86 | X-H torsion
[ 10167 10162 10161 10158 ] final   38.59 input  -65.29 | X-H torsion
[ 10718 10713 10712 10709 ] final  -10.71 input   66.30 | X-H torsion
[ 10763 10752 10751 10750 ] final  146.12 input  -60.55 | X-H torsion
[ 11005 11000 10999 10996 ] final  109.30 input  -57.11 | X-H torsion

> <Gold.Protein.ActiveResidues>
 VAL166  LYS551  ARG553  GLY616  TRP617  ASP618  TYR619  PRO620  LYS621  CYS622 
 ASP623  PHE694  ASN695  SER759  ASP760  ASP761  ALA762  ILE779  LEU786  VAL792 
 PHE793  MET794  SER795  GLU796  ALA797  LYS798  CYS799  TRP800  GLU811  SER814 

> <Gold.Protein.RotatedAtoms>
  151.1866  135.0384  159.8814 H   0  0  0  0  0  0  0  0  0  0  0  0  # atno 6907 bound_to 6896
  152.5442  134.1003  159.8325 H   0  0  0  0  0  0  0  0  0  0  0  0  # atno 6908 bound_to 6896
  151.1126  133.5115  159.2637 H   0  0  0  0  0  0  0  0  0  0  0  0  # atno 6909 bound_to 6896
  145.3368  140.9452  143.2630 H   0  0  0  0  0  0  0  0  0  0  0  0  # atno 7974 bound_to 7965
  155.8652  140.0984  157.1587 H   0  0  0  0  0  0  0  0  0  0  0  0  # atno 8008 bound_to 7997
  154.3993  140.1357  156.4073 H   0  0  0  0  0  0  0  0  0  0  0  0  # atno 8009 bound_to 7997
  155.7812  140.3458  155.5301 H   0  0  0  0  0  0  0  0  0  0  0  0  # atno 8010 bound_to 7997
  140.3922  144.1838  150.6131 H   0  0  0  0  0  0  0  0  0  0  0  0  # atno 10167 bound_to 10162
  156.6695  130.5005  149.6004 H   0  0  0  0  0  0  0  0  0  0  0  0  # atno 10718 bound_to 10713
  154.0166  135.2909  155.3386 H   0  0  0  0  0  0  0  0  0  0  0  0  # atno 10763 bound_to 10752
  154.7071  135.5165  153.8614 H   0  0  0  0  0  0  0  0  0  0  0  0  # atno 10764 bound_to 10752
  153.0699  135.6644  154.0392 H   0  0  0  0  0  0  0  0  0  0  0  0  # atno 10765 bound_to 10752
  139.8859  134.9454  156.6104 H   0  0  0  0  0  0  0  0  0  0  0  0  # atno 11005 bound_to 11000
  144.8821  139.4890  143.6718 LP  0  0  0  0  0  0  0  0  0  0  0  0  # atno 17320 bound_to 7965
  146.3023  139.7467  142.9082 LP  0  0  0  0  0  0  0  0  0  0  0  0  # atno 17321 bound_to 7965
  140.4828  143.2373  151.8931 LP  0  0  0  0  0  0  0  0  0  0  0  0  # atno 17342 bound_to 10162
  139.4788  144.5251  151.8747 LP  0  0  0  0  0  0  0  0  0  0  0  0  # atno 17343 bound_to 10162
  156.1949  130.6583  151.1103 LP  0  0  0  0  0  0  0  0  0  0  0  0  # atno 17370 bound_to 10713
  157.7082  131.0747  150.6594 LP  0  0  0  0  0  0  0  0  0  0  0  0  # atno 17371 bound_to 10713
  140.7816  133.8656  155.8572 LP  0  0  0  0  0  0  0  0  0  0  0  0  # atno 17394 bound_to 11000
  140.9756  134.1474  157.4539 LP  0  0  0  0  0  0  0  0  0  0  0  0  # atno 17395 bound_to 11000

$$$$
