AV-unprocessed.smi:26|AV-procd|sdf|186|dock8
  -GOLD-   2262015453D 1   1.00000     0.00000
 Structure written by MMmdl.
 58 61  0  0  0  0  0  0  0  0  1 V2000
  153.2737  138.7589  155.5803 C   0  0  0  0  0  0  0  0  0  0  0  0
  151.9468  138.6445  156.2618 C   0  0  0  0  0  0  0  0  0  0  0  0
  151.3474  137.5328  156.7730 C   0  0  0  0  0  0  0  0  0  0  0  0
  150.0881  137.9048  157.3148 C   0  0  0  0  0  0  0  0  0  0  0  0
  149.0684  137.0332  157.9544 C   0  0  0  0  0  0  0  0  0  0  0  0
  147.8569  137.1672  157.7748 O   0  0  0  0  0  0  0  0  0  0  0  0
  149.6146  135.9232  158.8725 C   0  0  0  0  0  0  0  0  0  0  0  0
  148.5727  135.0410  159.3847 N   0  0  0  0  0  0  0  0  0  0  0  0
  148.5828  133.6891  158.9578 C   0  0  0  0  0  0  0  0  0  0  0  0
  149.4354  133.2539  158.1817 O   0  0  0  0  0  0  0  0  0  0  0  0
  147.5006  132.8742  159.4988 C   0  0  0  0  0  0  0  0  0  0  0  0
  147.4111  131.5773  159.1582 F   0  0  0  0  0  0  0  0  0  0  0  0
  146.5810  133.4021  160.3350 C   0  0  0  0  0  0  0  0  0  0  0  0
  146.5948  134.7277  160.7345 N   0  0  0  0  0  0  0  0  0  0  0  0
  145.5291  135.2781  161.6553 C   0  0  1  0  0  0  0  0  0  0  0  0
  144.7120  136.3570  160.9353 C   0  0  0  0  0  0  0  0  0  0  0  0
  143.5137  135.5717  160.4470 C   0  0  0  0  0  0  0  0  0  0  0  0
  143.3333  134.5579  161.5705 C   0  0  0  0  0  0  0  0  0  0  0  0
  144.6533  134.2448  162.0057 O   0  0  0  0  0  0  0  0  0  0  0  0
  147.5967  135.5959  160.2478 C   0  0  0  0  0  0  0  0  0  0  0  0
  147.6035  136.7901  160.5550 O   0  0  0  0  0  0  0  0  0  0  0  0
  149.9493  139.2629  157.1379 C   0  0  0  0  0  0  0  0  0  0  0  0
  148.8128  140.1626  157.5402 C   0  0  0  0  0  0  0  0  0  0  0  0
  151.0940  139.7268  156.4728 N   0  0  0  0  0  0  0  0  0  0  0  0
  151.3813  141.1065  156.0479 C   0  0  1  0  0  0  0  0  0  0  0  0
  150.3450  141.6046  155.0198 C   0  0  0  0  0  0  0  0  0  0  0  0
  151.6590  142.0338  157.2356 C   0  0  0  0  0  0  0  0  0  0  0  0
  151.8652  143.4117  156.9977 C   0  0  0  0  0  0  0  0  0  0  0  0
  152.1117  144.2964  158.0651 C   0  0  0  0  0  0  0  0  0  0  0  0
  152.1492  143.8127  159.3858 C   0  0  0  0  0  0  0  0  0  0  0  0
  151.9373  142.4444  159.6364 C   0  0  0  0  0  0  0  0  0  0  0  0
  151.6901  141.5595  158.5690 C   0  0  0  0  0  0  0  0  0  0  0  0
  153.7637  137.7868  155.5189 H   0  0  0  0  0  0  0  0  0  0  0  0
  153.9379  139.4290  156.1266 H   0  0  0  0  0  0  0  0  0  0  0  0
  153.1603  139.1361  154.5635 H   0  0  0  0  0  0  0  0  0  0  0  0
  151.7752  136.5412  156.7491 H   0  0  0  0  0  0  0  0  0  0  0  0
  150.3484  135.3070  158.3507 H   0  0  0  0  0  0  0  0  0  0  0  0
  150.1483  136.3494  159.7234 H   0  0  0  0  0  0  0  0  0  0  0  0
  145.8001  132.7501  160.6965 H   0  0  0  0  0  0  0  0  0  0  0  0
  146.0450  135.6359  162.5476 H   0  0  0  0  0  0  0  0  0  0  0  0
  144.4054  137.1064  161.6661 H   0  0  0  0  0  0  0  0  0  0  0  0
  145.2770  136.8475  160.1417 H   0  0  0  0  0  0  0  0  0  0  0  0
  142.6316  136.1917  160.2868 H   0  0  0  0  0  0  0  0  0  0  0  0
  143.7499  135.0634  159.5114 H   0  0  0  0  0  0  0  0  0  0  0  0
  142.7861  135.0058  162.4011 H   0  0  0  0  0  0  0  0  0  0  0  0
  142.7949  133.6658  161.2502 H   0  0  0  0  0  0  0  0  0  0  0  0
  148.5670  140.0220  158.5927 H   0  0  0  0  0  0  0  0  0  0  0  0
  147.9215  139.9365  156.9551 H   0  0  0  0  0  0  0  0  0  0  0  0
  149.0244  141.2192  157.4147 H   0  0  0  0  0  0  0  0  0  0  0  0
  152.3262  141.1061  155.5086 H   0  0  0  0  0  0  0  0  0  0  0  0
  150.6476  142.5583  154.5870 H   0  0  0  0  0  0  0  0  0  0  0  0
  149.3523  141.7349  155.4480 H   0  0  0  0  0  0  0  0  0  0  0  0
  150.2517  140.8960  154.1964 H   0  0  0  0  0  0  0  0  0  0  0  0
  151.8362  143.7973  155.9891 H   0  0  0  0  0  0  0  0  0  0  0  0
  152.2712  145.3465  157.8699 H   0  0  0  0  0  0  0  0  0  0  0  0
  152.3381  144.4905  160.2051 H   0  0  0  0  0  0  0  0  0  0  0  0
  151.9635  142.0719  160.6499 H   0  0  0  0  0  0  0  0  0  0  0  0
  151.5312  140.5163  158.7948 H   0  0  0  0  0  0  0  0  0  0  0  0
  1  2  1  0  0  0  0
  1 33  1  0  0  0  0
  1 34  1  0  0  0  0
  1 35  1  0  0  0  0
  2 24  1  0  0  0  0
  2  3  2  0  0  0  0
  3  4  1  0  0  0  0
  3 36  1  0  0  0  0
  4  5  1  0  0  0  0
  4 22  2  0  0  0  0
  5  6  2  0  0  0  0
  5  7  1  0  0  0  0
  7  8  1  0  0  0  0
  7 37  1  0  0  0  0
  7 38  1  0  0  0  0
  8 20  1  0  0  0  0
  8  9  1  0  0  0  0
  9 10  2  0  0  0  0
  9 11  1  0  0  0  0
 11 12  1  0  0  0  0
 11 13  2  0  0  0  0
 13 14  1  0  0  0  0
 13 39  1  0  0  0  0
 14 15  1  0  0  0  0
 14 20  1  0  0  0  0
 15 19  1  0  0  0  0
 15 16  1  0  0  0  0
 15 40  1  0  0  0  0
 16 17  1  0  0  0  0
 16 41  1  0  0  0  0
 16 42  1  0  0  0  0
 17 18  1  0  0  0  0
 17 43  1  0  0  0  0
 17 44  1  0  0  0  0
 18 19  1  0  0  0  0
 18 45  1  0  0  0  0
 18 46  1  0  0  0  0
 20 21  2  0  0  0  0
 22 23  1  0  0  0  0
 22 24  1  0  0  0  0
 23 47  1  0  0  0  0
 23 48  1  0  0  0  0
 23 49  1  0  0  0  0
 24 25  1  0  0  0  0
 25 26  1  0  0  0  0
 25 27  1  0  0  0  0
 25 50  1  0  0  0  0
 26 51  1  0  0  0  0
 26 52  1  0  0  0  0
 26 53  1  0  0  0  0
 27 32  1  0  0  0  0
 27 28  2  0  0  0  0
 28 29  1  0  0  0  0
 28 54  1  0  0  0  0
 29 30  2  0  0  0  0
 29 55  1  0  0  0  0
 30 31  1  0  0  0  0
 30 56  1  0  0  0  0
 31 32  2  0  0  0  0
 31 57  1  0  0  0  0
 32 58  1  0  0  0  0
M  END
> <s_m_source_file>
AV-unprocessed.smi

> <i_m_source_file_index>
26

> <i_lp_mmshare_version>
43012

> <i_f3d_flags>
0

> <s_epik_input>
W2NIXTFbY0hdW2NIXVtjSF1bY0hdYzFbQ0BASF0oW0NIM10pbjJjKFtDSDNdKWMoW2NIXWMyW0NIM10pQyg9TylbQ0gyXW4zYyg9TyljKEYpW2NIXW4oYzM9TylbQ0BASF00W0NIMl1bQ0gyXVtDSDJdTzQ=

> <s_epik_cmdline>
J2VwaWtfcHl0aG9uJywgJy1waCcsICc3LjAnLCAnLXRuJywgJzgnLCAnLW1hJywgJzIwMCcsICctbWV0YWxfYmluZGluZycsICctaW1hZScsICc8aW5maWxlLm1hZT4nLCAnLW9tYWUnLCAnPG91dGZpbGUubWFlPic=

> <r_lp_tautomer_probability>
1

> <r_epik_Ionization_Penalty>
5.02402e-09

> <r_epik_Ionization_Penalty_Charging>
5.01743e-09

> <r_epik_Ionization_Penalty_Neutral>
6.58831e-12

> <r_epik_State_Penalty>
-0

> <r_epik_Charging_Adjusted_Penalty>
5.01743e-09

> <i_epik_Tot_Q>
0

> <i_epik_Tot_abs_Q>
0

> <r_epik_Metal_State_Penalty>
-0

> <b_epik_Metal_Only>
0

> <s_epik_Chemistry_Notes>
This compound contains an acetal/aminal-like group ( X-CH(R)-Y where X, Y are N, S, or O) that may be acid/base labile, releasing an aldehyde.

> <s_lp_Force_Field>
OPLS_2005

> <r_lp_Energy>
50.594

> <b_lp_Chiralities_Consistent>
1

> <s_lp_Variant>
AV-unprocessed.smi:26-4

> <Gold.Version>
5.8.1

> <Gold.Id.Protein>
6NUR|6NUR_protein|mol2

> <Gold.PLP.Fitness>
55.2999

> <Gold.PLP.PLP>
-48.5926

> <Gold.PLP.part.hbond>
-3.0000

> <Gold.PLP.part.metal>
0.0000

> <Gold.PLP.part.buried>
-0.8614

> <Gold.PLP.part.nonpolar>
-45.0598

> <Gold.PLP.part.repulsive>
0.0485

> <Gold.PLP.ligand.clash>
0.0000

> <Gold.PLP.ligand.torsion>
0.9315

> <Gold.PLP.Chemscore.Hbond>
2.7420

> <Gold.PLP.Chemscore.CHOScore>
0.0000

> <Gold.PLP.Chemscore.Metal>
0.0000

> <Gold.Chemscore.Hbonds>
donor molecule, donor type, donor heavy atom, donor atom, acceptor molecule, acceptor atom, score
      P1  H  6896  6908       L1    10  0.55
      P1  H  6934  6947       L1    21  0.32

> <Gold.PLP.Chemscore.Internal.Correction>
0.3444

> <Gold.Rescore>
     Score         DG    S(hbond)    S(metal)    S(lipo)     H(rot)  DE(clash)    DE(int)     intcor
     17.85     -21.71       1.58        0.00     133.74       1.84       1.79       2.07       ----

> <Gold.Chemscore.Fitness>
17.8546

> <Gold.Chemscore.DG>
-21.7134

> <Gold.Chemscore.ZeroCoef>
-5.4800

> <Gold.Chemscore.Hbond>
1.5825

> <Gold.Chemscore.Metal>
0.0000

> <Gold.Chemscore.Lipo>
133.7424

> <Gold.Chemscore.Internal_Hbond>
0.0000

> <Gold.Chemscore.DEClash>
1.7901

> <Gold.Chemscore.DEInternal>
2.0688

> <Gold.Chemscore.Rot>
1.8359

> <Gold.Chemscore.Internal.Correction>
   9.000000E+99

> <Gold.Chemscore.Hbonds>
donor molecule, donor type, donor heavy atom, donor atom, acceptor molecule, acceptor atom, score
      P1  H  6896  6908       L1    10  0.03
      P1  H  6931  6943       L1    21  0.05
      P1  H  6934  6947       L1    21  0.32

> <Gold.Chemscore.Hbond.Weighted>
-5.2856

> <Gold.Chemscore.Metal.Weighted>
-0.0000

> <Gold.Chemscore.Lipo.Weighted>
-15.6479

> <Gold.Chemscore.Internal_Hbond.Weighted>
0.0000

> <Gold.Chemscore.DEClash.Weighted>
1.7901

> <Gold.Chemscore.DEInternal.Weighted>
2.0688

> <Gold.Chemscore.Rot.Weighted>
4.7000

> <Gold.Chemscore.Internal.Correction.Weighted>
   9.000000E+99

> <Gold.Protein.RotatedTorsions>
[ 6907 6896 6895 6894 ] final  121.81 input  -60.11 | X-H torsion
[ 7974 7965 7964 7962 ] final -154.25 input  175.53 | X-H torsion
[ 8008 7997 7996 7995 ] final -169.69 input   59.86 | X-H torsion
[ 10167 10162 10161 10158 ] final -129.81 input  -65.29 | X-H torsion
[ 10718 10713 10712 10709 ] final  -57.48 input   66.30 | X-H torsion
[ 10763 10752 10751 10750 ] final  -57.56 input  -60.55 | X-H torsion
[ 11005 11000 10999 10996 ] final  114.67 input  -57.11 | X-H torsion

> <Gold.Protein.ActiveResidues>
 VAL166  LYS551  ARG553  GLY616  TRP617  ASP618  TYR619  PRO620  LYS621  CYS622 
 ASP623  PHE694  ASN695  SER759  ASP760  ASP761  ALA762  ILE779  LEU786  VAL792 
 PHE793  MET794  SER795  GLU796  ALA797  LYS798  CYS799  TRP800  GLU811  SER814 

> <Gold.Protein.RotatedAtoms>
  152.4292  133.7249  159.6553 H   0  0  0  0  0  0  0  0  0  0  0  0  # atno 6907 bound_to 6896
  150.8171  133.8308  159.3162 H   0  0  0  0  0  0  0  0  0  0  0  0  # atno 6908 bound_to 6896
  151.6001  135.1050  160.0110 H   0  0  0  0  0  0  0  0  0  0  0  0  # atno 6909 bound_to 6896
  144.7699  140.4413  143.5915 H   0  0  0  0  0  0  0  0  0  0  0  0  # atno 7974 bound_to 7965
  155.9084  140.1053  157.1298 H   0  0  0  0  0  0  0  0  0  0  0  0  # atno 8008 bound_to 7997
  154.4036  140.1279  156.4590 H   0  0  0  0  0  0  0  0  0  0  0  0  # atno 8009 bound_to 7997
  155.7340  140.3468  155.5075 H   0  0  0  0  0  0  0  0  0  0  0  0  # atno 8010 bound_to 7997
  139.9359  143.6218  152.2517 H   0  0  0  0  0  0  0  0  0  0  0  0  # atno 10167 bound_to 10162
  156.1208  130.4166  150.0446 H   0  0  0  0  0  0  0  0  0  0  0  0  # atno 10718 bound_to 10713
  154.2243  135.6372  153.5154 H   0  0  0  0  0  0  0  0  0  0  0  0  # atno 10763 bound_to 10752
  152.9962  135.5504  154.6081 H   0  0  0  0  0  0  0  0  0  0  0  0  # atno 10764 bound_to 10752
  154.5548  135.2904  155.0949 H   0  0  0  0  0  0  0  0  0  0  0  0  # atno 10765 bound_to 10752
  139.8987  134.9572  156.6928 H   0  0  0  0  0  0  0  0  0  0  0  0  # atno 11005 bound_to 11000
  145.6357  139.1542  143.2944 LP  0  0  0  0  0  0  0  0  0  0  0  0  # atno 17320 bound_to 7965
  146.1837  140.6457  142.9177 LP  0  0  0  0  0  0  0  0  0  0  0  0  # atno 17321 bound_to 7965
  139.6744  144.7659  151.1723 LP  0  0  0  0  0  0  0  0  0  0  0  0  # atno 17342 bound_to 10162
  140.7624  143.5817  150.8888 LP  0  0  0  0  0  0  0  0  0  0  0  0  # atno 17343 bound_to 10162
  156.8385  130.9417  151.3633 LP  0  0  0  0  0  0  0  0  0  0  0  0  # atno 17370 bound_to 10713
  157.6391  130.8791  149.9414 LP  0  0  0  0  0  0  0  0  0  0  0  0  # atno 17371 bound_to 10713
  140.7211  133.9140  155.8147 LP  0  0  0  0  0  0  0  0  0  0  0  0  # atno 17394 bound_to 11000
  141.0226  134.0867  157.4103 LP  0  0  0  0  0  0  0  0  0  0  0  0  # atno 17395 bound_to 11000

$$$$
