AV-unprocessed.smi:2521|AV-procd|sdf|9916|dock2
  -GOLD-   2272013553D 1   1.00000     0.00000
 Structure written by MMmdl.
 36 37  0  0  0  0  0  0  0  0  1 V2000
  146.4974  128.9756  151.4880 C   0  0  0  0  0  0  0  0  0  0  0  0
  145.8078  130.2121  152.0828 C   0  0  0  0  0  0  0  0  0  0  0  0
  144.8683  130.9137  151.0911 C   0  0  0  0  0  0  0  0  0  0  0  0
  146.7865  131.1610  152.7014 C   0  0  0  0  0  0  0  0  0  0  0  0
  147.6721  130.7896  153.6361 N   0  0  0  0  0  0  0  0  0  0  0  0
  148.4708  131.8436  154.0560 N   0  0  0  0  0  0  0  0  0  0  0  0
  148.1639  132.9850  153.4251 C   0  0  0  0  0  0  0  0  0  0  0  0
  148.8224  134.2203  153.6633 N   0  0  0  0  0  0  0  0  0  0  0  0
  149.5144  134.5993  154.7521 C   0  0  0  0  0  0  0  0  0  0  0  0
  149.6994  133.9098  155.7552 O   0  0  0  0  0  0  0  0  0  0  0  0
  149.9952  135.8430  154.6121 N   0  0  0  0  0  0  0  0  0  0  0  0
  150.8051  136.5437  155.6030 C   0  0  0  0  0  0  0  0  0  0  0  0
  150.5098  138.0554  155.6253 C   0  0  1  0  0  0  0  0  0  0  0  0
  151.6190  138.9123  156.2036 C   0  0  0  0  0  0  0  0  0  0  0  0
  151.2630  140.2913  155.6585 C   0  0  0  0  0  0  0  0  0  0  0  0
  150.6529  140.0609  154.3920 O   0  0  0  0  0  0  0  0  0  0  0  0
  150.3481  138.6772  154.2386 C   0  0  0  0  0  0  0  0  0  0  0  0
  146.8608  132.8628  152.2560 S   0  0  0  0  0  0  0  0  0  0  0  0
  147.0868  128.4543  152.2430 H   0  0  0  0  0  0  0  0  0  0  0  0
  147.1673  129.2483  150.6719 H   0  0  0  0  0  0  0  0  0  0  0  0
  145.7659  128.2692  151.0946 H   0  0  0  0  0  0  0  0  0  0  0  0
  145.1773  129.8491  152.8953 H   0  0  0  0  0  0  0  0  0  0  0  0
  144.3334  131.7337  151.5709 H   0  0  0  0  0  0  0  0  0  0  0  0
  144.1249  130.2203  150.6967 H   0  0  0  0  0  0  0  0  0  0  0  0
  145.4198  131.3247  150.2449 H   0  0  0  0  0  0  0  0  0  0  0  0
  148.7621  134.8938  152.9142 H   0  0  0  0  0  0  0  0  0  0  0  0
  149.7947  136.3388  153.7559 H   0  0  0  0  0  0  0  0  0  0  0  0
  150.5959  136.1056  156.5793 H   0  0  0  0  0  0  0  0  0  0  0  0
  151.8647  136.3690  155.4090 H   0  0  0  0  0  0  0  0  0  0  0  0
  149.5960  138.2421  156.1923 H   0  0  0  0  0  0  0  0  0  0  0  0
  151.6601  138.8859  157.2928 H   0  0  0  0  0  0  0  0  0  0  0  0
  152.5882  138.5952  155.8156 H   0  0  0  0  0  0  0  0  0  0  0  0
  150.5370  140.7806  156.3092 H   0  0  0  0  0  0  0  0  0  0  0  0
  152.1329  140.9426  155.5709 H   0  0  0  0  0  0  0  0  0  0  0  0
  151.0619  138.2471  153.5347 H   0  0  0  0  0  0  0  0  0  0  0  0
  149.3465  138.5333  153.8325 H   0  0  0  0  0  0  0  0  0  0  0  0
  1  2  1  0  0  0  0
  1 19  1  0  0  0  0
  1 20  1  0  0  0  0
  1 21  1  0  0  0  0
  2  3  1  0  0  0  0
  2  4  1  0  0  0  0
  2 22  1  0  0  0  0
  3 23  1  0  0  0  0
  3 24  1  0  0  0  0
  3 25  1  0  0  0  0
  4 18  1  0  0  0  0
  4  5  2  0  0  0  0
  5  6  1  0  0  0  0
  6  7  2  0  0  0  0
  7  8  1  0  0  0  0
  7 18  1  0  0  0  0
  8  9  1  0  0  0  0
  8 26  1  0  0  0  0
  9 10  2  0  0  0  0
  9 11  1  0  0  0  0
 11 12  1  0  0  0  0
 11 27  1  0  0  0  0
 12 13  1  0  0  0  0
 12 28  1  0  0  0  0
 12 29  1  0  0  0  0
 13 17  1  0  0  0  0
 13 14  1  0  0  0  0
 13 30  1  0  0  0  0
 14 15  1  0  0  0  0
 14 31  1  0  0  0  0
 14 32  1  0  0  0  0
 15 16  1  0  0  0  0
 15 33  1  0  0  0  0
 15 34  1  0  0  0  0
 16 17  1  0  0  0  0
 17 35  1  0  0  0  0
 17 36  1  0  0  0  0
M  END
> <s_m_source_file>
AV-unprocessed.smi

> <i_m_source_file_index>
2521

> <i_lp_mmshare_version>
43012

> <i_f3d_flags>
0

> <s_epik_input>
W0NIM11bQ0hdKFtDSDNdKWMxbm5jKHMxKVtOSF1DKD1PKVtOSF1bQ0gyXVtDQEBIXTJbQ0gyXVtDSDJdT1tDSDJdMg==

> <s_epik_cmdline>
J2VwaWtfcHl0aG9uJywgJy1waCcsICc3LjAnLCAnLXRuJywgJzgnLCAnLW1hJywgJzIwMCcsICctbWV0YWxfYmluZGluZycsICctaW1hZScsICc8aW5maWxlLm1hZT4nLCAnLW9tYWUnLCAnPG91dGZpbGUubWFlPic=

> <r_lp_tautomer_probability>
1

> <r_epik_Ionization_Penalty>
0.000452582

> <r_epik_Ionization_Penalty_Charging>
0

> <r_epik_Ionization_Penalty_Neutral>
0.000452582

> <r_epik_State_Penalty>
-0

> <r_epik_Charging_Adjusted_Penalty>
0

> <i_epik_Tot_Q>
0

> <i_epik_Tot_abs_Q>
0

> <r_epik_Metal_State_Penalty>
0.207746

> <b_epik_Metal_Only>
0

> <s_lp_Force_Field>
OPLS_2005

> <r_lp_Energy>
10.682

> <b_lp_Chiralities_Consistent>
1

> <s_lp_Variant>
AV-unprocessed.smi:2521-2

> <Gold.Version>
5.8.1

> <Gold.Id.Protein>
6NUR|6NUR_protein|mol2

> <Gold.PLP.Fitness>
39.3010

> <Gold.PLP.PLP>
-31.6391

> <Gold.PLP.part.hbond>
-3.0996

> <Gold.PLP.part.metal>
0.0000

> <Gold.PLP.part.buried>
-3.8448

> <Gold.PLP.part.nonpolar>
-24.6607

> <Gold.PLP.part.repulsive>
0.3385

> <Gold.PLP.ligand.clash>
0.0000

> <Gold.PLP.ligand.torsion>
0.5180

> <Gold.PLP.Chemscore.Hbond>
2.8699

> <Gold.PLP.Chemscore.CHOScore>
0.0000

> <Gold.PLP.Chemscore.Metal>
0.0000

> <Gold.Chemscore.Hbonds>
donor molecule, donor type, donor heavy atom, donor atom, acceptor molecule, acceptor atom, score
      L1  H     8    26       P1  7948  0.95
      L1  H    11    27       P1  7948  0.90
      P1  H  7989  7998       L1    16  1.00

> <Gold.PLP.Chemscore.Internal.Correction>
0.0882

> <Gold.Rescore>
     Score         DG    S(hbond)    S(metal)    S(lipo)     H(rot)  DE(clash)    DE(int)     intcor
     12.36     -14.10       1.19        0.00      71.25       1.45       0.06       1.69       ----

> <Gold.Chemscore.Fitness>
12.3570

> <Gold.Chemscore.DG>
-14.1016

> <Gold.Chemscore.ZeroCoef>
-5.4800

> <Gold.Chemscore.Hbond>
1.1936

> <Gold.Chemscore.Metal>
0.0000

> <Gold.Chemscore.Lipo>
71.2541

> <Gold.Chemscore.Internal_Hbond>
0.0000

> <Gold.Chemscore.DEClash>
0.0557

> <Gold.Chemscore.DEInternal>
1.6889

> <Gold.Chemscore.Rot>
1.4461

> <Gold.Chemscore.Internal.Correction>
   9.000000E+99

> <Gold.Chemscore.Hbonds>
donor molecule, donor type, donor heavy atom, donor atom, acceptor molecule, acceptor atom, score
      L1  H     8    26       P1  7948  0.22
      L1  H    11    27       P1  7948  0.29
      P1  H  7989  7998       L1    16  0.24

> <Gold.Chemscore.Hbond.Weighted>
-3.9868

> <Gold.Chemscore.Metal.Weighted>
-0.0000

> <Gold.Chemscore.Lipo.Weighted>
-8.3367

> <Gold.Chemscore.Internal_Hbond.Weighted>
0.0000

> <Gold.Chemscore.DEClash.Weighted>
0.0557

> <Gold.Chemscore.DEInternal.Weighted>
1.6889

> <Gold.Chemscore.Rot.Weighted>
3.7019

> <Gold.Chemscore.Internal.Correction.Weighted>
   9.000000E+99

> <Gold.Protein.RotatedTorsions>
[ 6907 6896 6895 6894 ] final  -53.73 input  -60.11 | X-H torsion
[ 7974 7965 7964 7962 ] final -116.94 input  175.53 | X-H torsion
[ 8008 7997 7996 7995 ] final  -71.50 input   59.86 | X-H torsion
[ 10167 10162 10161 10158 ] final   37.55 input  -65.29 | X-H torsion
[ 10718 10713 10712 10709 ] final  -69.42 input   66.30 | X-H torsion
[ 10763 10752 10751 10750 ] final -161.21 input  -60.55 | X-H torsion
[ 11005 11000 10999 10996 ] final  177.12 input  -57.11 | X-H torsion

> <Gold.Protein.ActiveResidues>
 VAL166  LYS551  ARG553  GLY616  TRP617  ASP618  TYR619  PRO620  LYS621  CYS622 
 ASP623  PHE694  ASN695  SER759  ASP760  ASP761  ALA762  ILE779  LEU786  VAL792 
 PHE793  MET794  SER795  GLU796  ALA797  LYS798  CYS799  TRP800  GLU811  SER814 

> <Gold.Protein.RotatedAtoms>
  150.8400  134.7689  159.6924 H   0  0  0  0  0  0  0  0  0  0  0  0  # atno 6907 bound_to 6896
  152.4490  134.5431  159.9855 H   0  0  0  0  0  0  0  0  0  0  0  0  # atno 6908 bound_to 6896
  151.5573  133.3370  159.3000 H   0  0  0  0  0  0  0  0  0  0  0  0  # atno 6909 bound_to 6896
  145.0910  140.8490  143.3982 H   0  0  0  0  0  0  0  0  0  0  0  0  # atno 7974 bound_to 7965
  154.5092  140.0814  156.7956 H   0  0  0  0  0  0  0  0  0  0  0  0  # atno 8008 bound_to 7997
  155.3823  140.3428  155.4229 H   0  0  0  0  0  0  0  0  0  0  0  0  # atno 8009 bound_to 7997
  156.1553  140.1571  156.8690 H   0  0  0  0  0  0  0  0  0  0  0  0  # atno 8010 bound_to 7997
  140.4021  144.1709  150.6134 H   0  0  0  0  0  0  0  0  0  0  0  0  # atno 10167 bound_to 10162
  156.0456  130.4312  150.2145 H   0  0  0  0  0  0  0  0  0  0  0  0  # atno 10718 bound_to 10713
  154.7323  135.3049  154.8871 H   0  0  0  0  0  0  0  0  0  0  0  0  # atno 10763 bound_to 10752
  153.9710  135.6742  153.4751 H   0  0  0  0  0  0  0  0  0  0  0  0  # atno 10764 bound_to 10752
  153.0930  135.4950  154.8647 H   0  0  0  0  0  0  0  0  0  0  0  0  # atno 10765 bound_to 10752
  140.3806  134.6949  157.4449 H   0  0  0  0  0  0  0  0  0  0  0  0  # atno 11005 bound_to 11000
  145.1066  139.2786  143.5659 LP  0  0  0  0  0  0  0  0  0  0  0  0  # atno 17320 bound_to 7965
  146.3531  140.0649  142.8627 LP  0  0  0  0  0  0  0  0  0  0  0  0  # atno 17321 bound_to 7965
  140.4728  143.2406  151.9065 LP  0  0  0  0  0  0  0  0  0  0  0  0  # atno 17342 bound_to 10162
  139.4784  144.5351  151.8610 LP  0  0  0  0  0  0  0  0  0  0  0  0  # atno 17343 bound_to 10162
  157.0235  130.9986  151.3333 LP  0  0  0  0  0  0  0  0  0  0  0  0  # atno 17370 bound_to 10713
  157.5328  130.8069  149.7936 LP  0  0  0  0  0  0  0  0  0  0  0  0  # atno 17371 bound_to 10713
  140.0481  134.6170  155.8896 LP  0  0  0  0  0  0  0  0  0  0  0  0  # atno 17394 bound_to 11000
  141.1924  133.6575  156.5502 LP  0  0  0  0  0  0  0  0  0  0  0  0  # atno 17395 bound_to 11000

$$$$
