AV-unprocessed.smi:2021|AV-procd|sdf|8176|dock4
  -GOLD-   2272010423D 1   1.00000     0.00000
 Structure written by MMmdl.
 42 43  0  0  0  0  0  0  0  0  2 V2000
  146.2407  134.2373  151.6250 C   0  0  0  0  0  0  0  0  0  0  0  0
  146.4992  132.7290  151.4932 C   0  0  0  0  0  0  0  0  0  0  0  0
  145.2317  132.0080  151.0046 C   0  0  0  0  0  0  0  0  0  0  0  0
  147.0132  132.1483  152.8287 C   0  0  0  0  0  0  0  0  0  0  0  0
  148.4969  132.0390  152.8854 N   0  3  2  0  0  0  0  0  0  0  0  0
  148.9766  130.8810  153.6783 C   0  0  0  0  0  0  0  0  0  0  0  0
  148.8909  131.1681  155.1878 C   0  0  0  0  0  0  0  0  0  0  0  0
  149.6368  132.3413  155.4870 O   0  0  0  0  0  0  0  0  0  0  0  0
  149.1231  133.4963  154.8302 C   0  0  1  0  0  0  0  0  0  0  0  0
  149.9510  134.7151  155.2766 C   0  0  0  0  0  0  0  0  0  0  0  0
  149.6317  135.9082  154.4989 N   0  0  0  0  0  0  0  0  0  0  0  0
  149.5161  137.1444  155.0049 C   0  0  0  0  0  0  0  0  0  0  0  0
  149.6702  137.4016  156.1991 O   0  0  0  0  0  0  0  0  0  0  0  0
  149.2185  138.0400  154.0471 N   0  0  0  0  0  0  0  0  0  0  0  0
  149.0484  139.4441  154.1789 C   0  0  0  0  0  0  0  0  0  0  0  0
  150.0537  140.3278  154.0795 N   0  0  0  0  0  0  0  0  0  0  0  0
  149.6145  141.6353  154.2418 N   0  0  0  0  0  0  0  0  0  0  0  0
  148.2966  141.6866  154.4563 C   0  0  0  0  0  0  0  0  0  0  0  0
  147.4633  140.1422  154.4804 S   0  0  0  0  0  0  0  0  0  0  0  0
  149.2018  133.2789  153.3028 C   0  0  0  0  0  0  0  0  0  0  0  0
  145.4697  134.4454  152.3678 H   0  0  0  0  0  0  0  0  0  0  0  0
  145.9134  134.6654  150.6771 H   0  0  0  0  0  0  0  0  0  0  0  0
  147.1452  134.7665  151.9270 H   0  0  0  0  0  0  0  0  0  0  0  0
  147.2672  132.6107  150.7296 H   0  0  0  0  0  0  0  0  0  0  0  0
  144.4192  132.1012  151.7261 H   0  0  0  0  0  0  0  0  0  0  0  0
  145.4132  130.9455  150.8423 H   0  0  0  0  0  0  0  0  0  0  0  0
  144.8838  132.4244  150.0588 H   0  0  0  0  0  0  0  0  0  0  0  0
  146.6500  132.7435  153.6663 H   0  0  0  0  0  0  0  0  0  0  0  0
  146.5734  131.1583  152.9564 H   0  0  0  0  0  0  0  0  0  0  0  0
  148.4219  129.9779  153.4206 H   0  0  0  0  0  0  0  0  0  0  0  0
  150.0154  130.6875  153.4081 H   0  0  0  0  0  0  0  0  0  0  0  0
  147.8559  131.2826  155.5137 H   0  0  0  0  0  0  0  0  0  0  0  0
  149.3097  130.3343  155.7512 H   0  0  0  0  0  0  0  0  0  0  0  0
  148.0844  133.6472  155.1259 H   0  0  0  0  0  0  0  0  0  0  0  0
  149.7646  134.9298  156.3293 H   0  0  0  0  0  0  0  0  0  0  0  0
  151.0176  134.5013  155.1887 H   0  0  0  0  0  0  0  0  0  0  0  0
  149.4895  135.7816  153.5074 H   0  0  0  0  0  0  0  0  0  0  0  0
  149.1081  137.6774  153.1117 H   0  0  0  0  0  0  0  0  0  0  0  0
  147.8118  142.6410  154.6001 H   0  0  0  0  0  0  0  0  0  0  0  0
  150.2473  133.1852  153.0057 H   0  0  0  0  0  0  0  0  0  0  0  0
  148.8158  134.1477  152.7718 H   0  0  0  0  0  0  0  0  0  0  0  0
  148.7789  131.8540  151.9331 H   0  0  0  0  0  0  0  0  0  0  0  0
  1  2  1  0  0  0  0
  1 21  1  0  0  0  0
  1 22  1  0  0  0  0
  1 23  1  0  0  0  0
  2  3  1  0  0  0  0
  2  4  1  0  0  0  0
  2 24  1  0  0  0  0
  3 25  1  0  0  0  0
  3 26  1  0  0  0  0
  3 27  1  0  0  0  0
  4  5  1  0  0  0  0
  4 28  1  0  0  0  0
  4 29  1  0  0  0  0
  5 20  1  0  0  0  0
  5  6  1  0  0  0  0
  5 42  1  0  0  0  0
  6  7  1  0  0  0  0
  6 30  1  0  0  0  0
  6 31  1  0  0  0  0
  7  8  1  0  0  0  0
  7 32  1  0  0  0  0
  7 33  1  0  0  0  0
  8  9  1  0  0  0  0
  9 10  1  0  0  0  0
  9 20  1  0  0  0  0
  9 34  1  0  0  0  0
 10 11  1  0  0  0  0
 10 35  1  0  0  0  0
 10 36  1  0  0  0  0
 11 12  1  0  0  0  0
 11 37  1  0  0  0  0
 12 13  2  0  0  0  0
 12 14  1  0  0  0  0
 14 15  1  0  0  0  0
 14 38  1  0  0  0  0
 15 19  1  0  0  0  0
 15 16  2  0  0  0  0
 16 17  1  0  0  0  0
 17 18  2  0  0  0  0
 18 19  1  0  0  0  0
 18 39  1  0  0  0  0
 20 40  1  0  0  0  0
 20 41  1  0  0  0  0
M  CHG  1   5   1
M  END
> <s_m_source_file>
AV-unprocessed.smi

> <i_m_source_file_index>
2021

> <i_lp_mmshare_version>
43012

> <i_f3d_flags>
0

> <s_epik_input>
W0NIM11bQ0hdKFtDSDNdKVtDSDJdTjFbQ0gyXVtDSDJdT1tDQEhdKFtDSDJdMSlbQ0gyXVtOSF1DKD1PKVtOSF1jMm5uW2NIXXMy

> <s_epik_cmdline>
J2VwaWtfcHl0aG9uJywgJy1waCcsICc3LjAnLCAnLXRuJywgJzgnLCAnLW1hJywgJzIwMCcsICctbWV0YWxfYmluZGluZycsICctaW1hZScsICc8aW5maWxlLm1hZT4nLCAnLW9tYWUnLCAnPG91dGZpbGUubWFlPic=

> <r_lp_tautomer_probability>
1

> <r_epik_Ionization_Penalty>
0.102019

> <r_epik_Ionization_Penalty_Charging>
0.098413

> <r_epik_Ionization_Penalty_Neutral>
0.00360555

> <r_epik_State_Penalty>
0.0884988

> <r_epik_Charging_Adjusted_Penalty>
0.186912

> <i_epik_Tot_Q>
1

> <i_epik_Tot_abs_Q>
1

> <r_epik_Metal_State_Penalty>
0.454709

> <b_epik_Metal_Only>
0

> <s_lp_Force_Field>
OPLS_2005

> <r_lp_Energy>
18.1157

> <b_lp_Chiralities_Consistent>
1

> <s_lp_Variant>
AV-unprocessed.smi:2021-2

> <Gold.Version>
5.8.1

> <Gold.Id.Protein>
6NUR|6NUR_protein|mol2

> <Gold.PLP.Fitness>
43.3619

> <Gold.PLP.PLP>
-32.1943

> <Gold.PLP.part.hbond>
-6.0000

> <Gold.PLP.part.metal>
0.0000

> <Gold.PLP.part.buried>
-2.7952

> <Gold.PLP.part.nonpolar>
-23.1807

> <Gold.PLP.part.repulsive>
1.3183

> <Gold.PLP.ligand.clash>
0.0000

> <Gold.PLP.ligand.torsion>
1.8101

> <Gold.PLP.Chemscore.Hbond>
3.9635

> <Gold.PLP.Chemscore.CHOScore>
0.9321

> <Gold.PLP.Chemscore.Metal>
0.0000

> <Gold.Chemscore.Hbonds>
donor molecule, donor type, donor heavy atom, donor atom, acceptor molecule, acceptor atom, score
      L1  H     5    42       P1 10747  1.00
      L1  H    11    37       P1  7948  1.00
      L1  H    14    38       P1  7948  1.00
      P1  H  7989  7998       L1    16  0.46
      P1  H  8011  8017       L1    17  0.48
      L1  C    18    39       P1  8028  0.92

> <Gold.PLP.Chemscore.Internal.Correction>
0.1007

> <Gold.Rescore>
     Score         DG    S(hbond)    S(metal)    S(lipo)     H(rot)  DE(clash)    DE(int)     intcor
     14.72     -16.36       2.62        0.00      59.22       1.88       0.00       1.64       ----

> <Gold.Chemscore.Fitness>
14.7184

> <Gold.Chemscore.DG>
-16.3596

> <Gold.Chemscore.ZeroCoef>
-5.4800

> <Gold.Chemscore.Hbond>
2.6249

> <Gold.Chemscore.Metal>
0.0000

> <Gold.Chemscore.Lipo>
59.2168

> <Gold.Chemscore.Internal_Hbond>
0.0000

> <Gold.Chemscore.DEClash>
0.0000

> <Gold.Chemscore.DEInternal>
1.6412

> <Gold.Chemscore.Rot>
1.8812

> <Gold.Chemscore.Internal.Correction>
   9.000000E+99

> <Gold.Chemscore.Hbonds>
donor molecule, donor type, donor heavy atom, donor atom, acceptor molecule, acceptor atom, score
      L1  H     5    42       P1 10747  0.96
      L1  H    11    37       P1  7948  0.30
      L1  H    14    38       P1  7948  0.97
      P1  H  7989  7998       L1    16  0.03
      P1  H  8011  8017       L1    17  0.08

> <Gold.Chemscore.Hbond.Weighted>
-8.7671

> <Gold.Chemscore.Metal.Weighted>
-0.0000

> <Gold.Chemscore.Lipo.Weighted>
-6.9284

> <Gold.Chemscore.Internal_Hbond.Weighted>
0.0000

> <Gold.Chemscore.DEClash.Weighted>
0.0000

> <Gold.Chemscore.DEInternal.Weighted>
1.6412

> <Gold.Chemscore.Rot.Weighted>
4.8159

> <Gold.Chemscore.Internal.Correction.Weighted>
   9.000000E+99

> <Gold.Protein.RotatedTorsions>
[ 6907 6896 6895 6894 ] final   61.98 input  -60.11 | X-H torsion
[ 7974 7965 7964 7962 ] final   83.79 input  175.53 | X-H torsion
[ 8008 7997 7996 7995 ] final -121.94 input   59.86 | X-H torsion
[ 10167 10162 10161 10158 ] final   20.12 input  -65.29 | X-H torsion
[ 10718 10713 10712 10709 ] final  113.64 input   66.30 | X-H torsion
[ 10763 10752 10751 10750 ] final   79.57 input  -60.55 | X-H torsion
[ 11005 11000 10999 10996 ] final -151.84 input  -57.11 | X-H torsion

> <Gold.Protein.ActiveResidues>
 VAL166  LYS551  ARG553  GLY616  TRP617  ASP618  TYR619  PRO620  LYS621  CYS622 
 ASP623  PHE694  ASN695  SER759  ASP760  ASP761  ALA762  ILE779  LEU786  VAL792 
 PHE793  MET794  SER795  GLU796  ALA797  LYS798  CYS799  TRP800  GLU811  SER814 

> <Gold.Protein.RotatedAtoms>
  152.4134  134.6085  160.0018 H   0  0  0  0  0  0  0  0  0  0  0  0  # atno 6907 bound_to 6896
  151.6255  133.3330  159.3105 H   0  0  0  0  0  0  0  0  0  0  0  0  # atno 6908 bound_to 6896
  150.8023  134.7166  159.6679 H   0  0  0  0  0  0  0  0  0  0  0  0  # atno 6909 bound_to 6896
  145.6073  139.2362  143.2212 H   0  0  0  0  0  0  0  0  0  0  0  0  # atno 7974 bound_to 7965
  155.1562  140.0405  157.2832 H   0  0  0  0  0  0  0  0  0  0  0  0  # atno 8008 bound_to 7997
  154.6369  140.2537  155.7341 H   0  0  0  0  0  0  0  0  0  0  0  0  # atno 8009 bound_to 7997
  156.2513  140.2864  156.0745 H   0  0  0  0  0  0  0  0  0  0  0  0  # atno 8010 bound_to 7997
  140.5527  143.9480  150.6589 H   0  0  0  0  0  0  0  0  0  0  0  0  # atno 10167 bound_to 10162
  157.6326  131.0987  150.7070 H   0  0  0  0  0  0  0  0  0  0  0  0  # atno 10718 bound_to 10713
  153.0963  135.4835  154.8785 H   0  0  0  0  0  0  0  0  0  0  0  0  # atno 10763 bound_to 10752
  154.7328  135.3064  154.8864 H   0  0  0  0  0  0  0  0  0  0  0  0  # atno 10764 bound_to 10752
  153.9494  135.6825  153.4797 H   0  0  0  0  0  0  0  0  0  0  0  0  # atno 10765 bound_to 10752
  140.7253  134.3682  157.5176 H   0  0  0  0  0  0  0  0  0  0  0  0  # atno 11005 bound_to 11000
  146.1531  140.6896  142.9312 LP  0  0  0  0  0  0  0  0  0  0  0  0  # atno 17320 bound_to 7965
  144.7285  140.4598  143.6955 LP  0  0  0  0  0  0  0  0  0  0  0  0  # atno 17321 bound_to 7965
  140.2910  143.3324  152.1062 LP  0  0  0  0  0  0  0  0  0  0  0  0  # atno 17342 bound_to 10162
  139.5034  144.6755  151.6138 LP  0  0  0  0  0  0  0  0  0  0  0  0  # atno 17343 bound_to 10162
  156.7407  130.4738  149.5478 LP  0  0  0  0  0  0  0  0  0  0  0  0  # atno 17370 bound_to 10713
  156.1541  130.6330  151.0635 LP  0  0  0  0  0  0  0  0  0  0  0  0  # atno 17371 bound_to 10713
  139.8838  134.8982  156.2740 LP  0  0  0  0  0  0  0  0  0  0  0  0  # atno 17394 bound_to 11000
  140.9968  133.7175  156.0898 LP  0  0  0  0  0  0  0  0  0  0  0  0  # atno 17395 bound_to 11000

$$$$
