AV-unprocessed.smi:2735|AV-procd|sdf|10541|dock7
  -GOLD-   2272014593D 1   1.00000     0.00000
 Structure written by MMmdl.
 42 42  0  0  0  0  0  0  0  0  2 V2000
  153.0153  140.4126  162.9848 C   0  0  0  0  0  0  0  0  0  0  0  0
  152.4886  141.4329  162.0196 C   0  0  0  0  0  0  0  0  0  0  0  0
  151.8568  142.6736  162.3062 C   0  0  0  0  0  0  0  0  0  0  0  0
  151.5877  143.2072  161.0776 C   0  0  0  0  0  0  0  0  0  0  0  0
  150.9460  144.5092  160.7248 C   0  0  0  0  0  0  0  0  0  0  0  0
  152.0309  142.2970  160.1307 N   0  0  0  0  0  0  0  0  0  0  0  0
  152.0193  142.4154  158.6719 C   0  0  2  0  0  0  0  0  0  0  0  0
  152.4485  143.8130  158.1790 C   0  0  0  0  0  0  0  0  0  0  0  0
  150.6409  142.0198  158.1226 C   0  0  0  0  0  0  0  0  0  0  0  0
  149.6770  141.9034  158.8801 O   0  0  0  0  0  0  0  0  0  0  0  0
  150.5682  141.8110  156.7986 N   0  0  0  0  0  0  0  0  0  0  0  0
  149.3844  141.3584  156.0695 C   0  0  1  0  0  0  0  0  0  0  0  0
  149.0732  142.3627  154.9338 C   0  0  0  0  0  0  0  0  0  0  0  0
  147.7404  142.1198  154.1887 C   0  0  0  0  0  0  0  0  0  0  0  0
  147.8294  140.9591  153.1835 C   0  0  0  0  0  0  0  0  0  0  0  0
  147.2758  143.4031  153.4838 C   0  0  0  0  0  0  0  0  0  0  0  0
  149.6725  139.9887  155.4334 C   0  0  0  0  0  0  0  0  0  0  0  0
  150.6426  139.9225  154.6475 O   0  0  0  0  0  0  0  0  0  0  0  0
  148.9291  139.0307  155.7455 O   0  5  0  0  0  0  0  0  0  0  0  0
  152.5973  141.2171  160.7202 N   0  0  0  0  0  0  0  0  0  0  0  0
  148.5273  141.2655  156.7380 H   0  0  0  0  0  0  0  0  0  0  0  0
  152.8763  140.7378  164.0160 H   0  0  0  0  0  0  0  0  0  0  0  0
  154.0811  140.2407  162.8321 H   0  0  0  0  0  0  0  0  0  0  0  0
  152.5022  139.4584  162.8655 H   0  0  0  0  0  0  0  0  0  0  0  0
  151.6421  143.1119  163.2696 H   0  0  0  0  0  0  0  0  0  0  0  0
  150.6496  145.0518  161.6224 H   0  0  0  0  0  0  0  0  0  0  0  0
  150.0535  144.3530  160.1192 H   0  0  0  0  0  0  0  0  0  0  0  0
  151.6333  145.1432  160.1654 H   0  0  0  0  0  0  0  0  0  0  0  0
  152.7552  141.7096  158.2843 H   0  0  0  0  0  0  0  0  0  0  0  0
  152.5028  143.8424  157.0902 H   0  0  0  0  0  0  0  0  0  0  0  0
  153.4359  144.0736  158.5608 H   0  0  0  0  0  0  0  0  0  0  0  0
  151.7543  144.5936  158.4928 H   0  0  0  0  0  0  0  0  0  0  0  0
  151.4125  141.9193  156.2565 H   0  0  0  0  0  0  0  0  0  0  0  0
  149.0621  143.3749  155.3428 H   0  0  0  0  0  0  0  0  0  0  0  0
  149.8864  142.3476  154.2060 H   0  0  0  0  0  0  0  0  0  0  0  0
  146.9735  141.8666  154.9212 H   0  0  0  0  0  0  0  0  0  0  0  0
  148.6199  141.1274  152.4515 H   0  0  0  0  0  0  0  0  0  0  0  0
  146.8923  140.8402  152.6391 H   0  0  0  0  0  0  0  0  0  0  0  0
  148.0301  140.0110  153.6816 H   0  0  0  0  0  0  0  0  0  0  0  0
  147.9933  143.7210  152.7267 H   0  0  0  0  0  0  0  0  0  0  0  0
  147.1565  144.2216  154.1940 H   0  0  0  0  0  0  0  0  0  0  0  0
  146.3145  143.2559  152.9908 H   0  0  0  0  0  0  0  0  0  0  0  0
  1  2  1  0  0  0  0
  1 22  1  0  0  0  0
  1 23  1  0  0  0  0
  1 24  1  0  0  0  0
  2 20  2  0  0  0  0
  2  3  1  0  0  0  0
  3  4  2  0  0  0  0
  3 25  1  0  0  0  0
  4  5  1  0  0  0  0
  4  6  1  0  0  0  0
  5 26  1  0  0  0  0
  5 27  1  0  0  0  0
  5 28  1  0  0  0  0
  6  7  1  0  0  0  0
  6 20  1  0  0  0  0
  7  8  1  0  0  0  0
  7  9  1  0  0  0  0
  7 29  1  0  0  0  0
  8 30  1  0  0  0  0
  8 31  1  0  0  0  0
  8 32  1  0  0  0  0
  9 10  2  0  0  0  0
  9 11  1  0  0  0  0
 11 12  1  0  0  0  0
 11 33  1  0  0  0  0
 12 21  1  0  0  0  0
 12 13  1  0  0  0  0
 12 17  1  0  0  0  0
 13 14  1  0  0  0  0
 13 34  1  0  0  0  0
 13 35  1  0  0  0  0
 14 15  1  0  0  0  0
 14 16  1  0  0  0  0
 14 36  1  0  0  0  0
 15 37  1  0  0  0  0
 15 38  1  0  0  0  0
 15 39  1  0  0  0  0
 16 40  1  0  0  0  0
 16 41  1  0  0  0  0
 16 42  1  0  0  0  0
 17 18  2  0  0  0  0
 17 19  1  0  0  0  0
M  CHG  1  19  -1
M  END
> <s_m_source_file>
AV-unprocessed.smi

> <i_m_source_file_index>
2735

> <i_lp_mmshare_version>
43012

> <i_f3d_flags>
0

> <s_epik_input>
W0NIM11jMVtjSF1jKFtDSDNdKW4objEpW0NASF0oW0NIM10pQyg9TylbTkhdW0NASF0oQyg9TylbT0hdKVtDSDJdW0NIXShbQ0gzXSlbQ0gzXQ==

> <s_epik_cmdline>
J2VwaWtfcHl0aG9uJywgJy1waCcsICc3LjAnLCAnLXRuJywgJzgnLCAnLW1hJywgJzIwMCcsICctbWV0YWxfYmluZGluZycsICctaW1hZScsICc8aW5maWxlLm1hZT4nLCAnLW9tYWUnLCAnPG91dGZpbGUubWFlPic=

> <r_lp_tautomer_probability>
1

> <r_epik_Ionization_Penalty>
0.0012303

> <r_epik_Ionization_Penalty_Charging>
0.000186407

> <r_epik_Ionization_Penalty_Neutral>
0.0010439

> <r_epik_State_Penalty>
-0

> <r_epik_Charging_Adjusted_Penalty>
0.000186407

> <i_epik_Tot_Q>
-1

> <i_epik_Tot_abs_Q>
1

> <r_epik_Metal_State_Penalty>
-0

> <b_epik_Metal_Only>
0

> <s_lp_Force_Field>
OPLS_2005

> <r_lp_Energy>
6.85708

> <b_lp_Chiralities_Consistent>
1

> <s_lp_Variant>
AV-unprocessed.smi:2735-1

> <Gold.Version>
5.8.1

> <Gold.Id.Protein>
6NUR|6NUR_protein|mol2

> <Gold.PLP.Fitness>
46.3122

> <Gold.PLP.PLP>
-45.0574

> <Gold.PLP.part.hbond>
-1.8835

> <Gold.PLP.part.metal>
0.0000

> <Gold.PLP.part.buried>
-1.8200

> <Gold.PLP.part.nonpolar>
-40.9085

> <Gold.PLP.part.repulsive>
0.2303

> <Gold.PLP.ligand.clash>
0.0000

> <Gold.PLP.ligand.torsion>
0.9340

> <Gold.PLP.Chemscore.Hbond>
1.0000

> <Gold.PLP.Chemscore.CHOScore>
0.0000

> <Gold.PLP.Chemscore.Metal>
0.0000

> <Gold.Chemscore.Hbonds>
donor molecule, donor type, donor heavy atom, donor atom, acceptor molecule, acceptor atom, score
      P1  H  7989  7998       L1    18  1.00

> <Gold.PLP.Chemscore.Internal.Correction>
0.1227

> <Gold.Rescore>
     Score         DG    S(hbond)    S(metal)    S(lipo)     H(rot)  DE(clash)    DE(int)     intcor
     13.66     -16.48       1.00        0.00     114.46       2.24       1.72       1.10       ----

> <Gold.Chemscore.Fitness>
13.6590

> <Gold.Chemscore.DG>
-16.4784

> <Gold.Chemscore.ZeroCoef>
-5.4800

> <Gold.Chemscore.Hbond>
0.9994

> <Gold.Chemscore.Metal>
0.0000

> <Gold.Chemscore.Lipo>
114.4581

> <Gold.Chemscore.Internal_Hbond>
0.0000

> <Gold.Chemscore.DEClash>
1.7181

> <Gold.Chemscore.DEInternal>
1.1013

> <Gold.Chemscore.Rot>
2.2388

> <Gold.Chemscore.Internal.Correction>
   9.000000E+99

> <Gold.Chemscore.Hbonds>
donor molecule, donor type, donor heavy atom, donor atom, acceptor molecule, acceptor atom, score
      P1  H  7989  7998       L1    18  1.00

> <Gold.Chemscore.Hbond.Weighted>
-3.3381

> <Gold.Chemscore.Metal.Weighted>
-0.0000

> <Gold.Chemscore.Lipo.Weighted>
-13.3916

> <Gold.Chemscore.Internal_Hbond.Weighted>
0.0000

> <Gold.Chemscore.DEClash.Weighted>
1.7181

> <Gold.Chemscore.DEInternal.Weighted>
1.1013

> <Gold.Chemscore.Rot.Weighted>
5.7314

> <Gold.Chemscore.Internal.Correction.Weighted>
   9.000000E+99

> <Gold.Protein.RotatedTorsions>
[ 6907 6896 6895 6894 ] final   95.03 input  -60.11 | X-H torsion
[ 7974 7965 7964 7962 ] final  -72.91 input  175.53 | X-H torsion
[ 8008 7997 7996 7995 ] final    1.63 input   59.86 | X-H torsion
[ 10167 10162 10161 10158 ] final  155.83 input  -65.29 | X-H torsion
[ 10718 10713 10712 10709 ] final   -3.87 input   66.30 | X-H torsion
[ 10763 10752 10751 10750 ] final    0.24 input  -60.55 | X-H torsion
[ 11005 11000 10999 10996 ] final   57.87 input  -57.11 | X-H torsion

> <Gold.Protein.ActiveResidues>
 VAL166  LYS551  ARG553  GLY616  TRP617  ASP618  TYR619  PRO620  LYS621  CYS622 
 ASP623  PHE694  ASN695  SER759  ASP760  ASP761  ALA762  ILE779  LEU786  VAL792 
 PHE793  MET794  SER795  GLU796  ALA797  LYS798  CYS799  TRP800  GLU811  SER814 

> <Gold.Protein.RotatedAtoms>
  152.5446  134.1102  159.8354 H   0  0  0  0  0  0  0  0  0  0  0  0  # atno 6907 bound_to 6896
  151.1169  133.5125  159.2611 H   0  0  0  0  0  0  0  0  0  0  0  0  # atno 6908 bound_to 6896
  151.1822  135.0375  159.8851 H   0  0  0  0  0  0  0  0  0  0  0  0  # atno 6909 bound_to 6896
  145.6590  140.9259  143.0944 H   0  0  0  0  0  0  0  0  0  0  0  0  # atno 7974 bound_to 7965
  154.6820  140.2634  155.6899 H   0  0  0  0  0  0  0  0  0  0  0  0  # atno 8008 bound_to 7997
  156.2700  140.2808  156.1290 H   0  0  0  0  0  0  0  0  0  0  0  0  # atno 8009 bound_to 7997
  155.1018  140.0374  157.2689 H   0  0  0  0  0  0  0  0  0  0  0  0  # atno 8010 bound_to 7997
  139.4821  144.5064  151.8092 H   0  0  0  0  0  0  0  0  0  0  0  0  # atno 10167 bound_to 10162
  156.7697  130.5296  149.5769 H   0  0  0  0  0  0  0  0  0  0  0  0  # atno 10718 bound_to 10713
  153.3232  135.6970  153.7012 H   0  0  0  0  0  0  0  0  0  0  0  0  # atno 10763 bound_to 10752
  153.5843  135.3492  155.2887 H   0  0  0  0  0  0  0  0  0  0  0  0  # atno 10764 bound_to 10752
  154.8602  135.4302  154.2402 H   0  0  0  0  0  0  0  0  0  0  0  0  # atno 10765 bound_to 10752
  140.0420  134.5860  155.9370 H   0  0  0  0  0  0  0  0  0  0  0  0  # atno 11005 bound_to 11000
  144.7096  139.8424  143.7419 LP  0  0  0  0  0  0  0  0  0  0  0  0  # atno 17320 bound_to 7965
  146.1141  139.4149  143.0269 LP  0  0  0  0  0  0  0  0  0  0  0  0  # atno 17321 bound_to 7965
  140.4562  144.1786  150.5902 LP  0  0  0  0  0  0  0  0  0  0  0  0  # atno 17342 bound_to 10162
  140.4533  143.2478  151.9319 LP  0  0  0  0  0  0  0  0  0  0  0  0  # atno 17343 bound_to 10162
  156.1286  130.6161  151.0300 LP  0  0  0  0  0  0  0  0  0  0  0  0  # atno 17370 bound_to 10713
  157.6697  131.0864  150.7643 LP  0  0  0  0  0  0  0  0  0  0  0  0  # atno 17371 bound_to 10713
  141.1888  133.6563  156.5339 LP  0  0  0  0  0  0  0  0  0  0  0  0  # atno 17394 bound_to 11000
  140.4054  134.7320  157.4804 LP  0  0  0  0  0  0  0  0  0  0  0  0  # atno 17395 bound_to 11000

$$$$
