AV-unprocessed.smi:2569|AV-procd|sdf|10105|dock7
  -GOLD-   2272014123D 1   1.00000     0.00000
 Structure written by MMmdl.
 40 42  0  0  0  0  0  0  0  0  2 V2000
  152.4185  143.5501  161.4376 C   0  0  0  0  0  0  0  0  0  0  0  0
  152.2059  142.8073  160.1294 C   0  0  0  0  0  0  0  0  0  0  0  0
  151.3540  143.3805  159.1587 C   0  0  0  0  0  0  0  0  0  0  0  0
  151.1828  142.6789  157.9711 C   0  0  0  0  0  0  0  0  0  0  0  0
  150.4253  142.9742  156.8356 N   0  3  0  0  0  0  0  0  0  0  0  0
  150.5727  141.9779  155.9191 C   0  0  0  0  0  0  0  0  0  0  0  0
  151.4154  141.0516  156.4513 N   0  0  0  0  0  0  0  0  0  0  0  0
  151.8954  139.7848  155.8813 C   0  0  0  0  0  0  0  0  0  0  0  0
  150.7597  138.9142  155.3006 C   0  0  1  0  0  0  0  0  0  0  0  0
  150.4941  139.2836  153.9627 O   0  0  0  0  0  0  0  0  0  0  0  0
  151.0655  137.4038  155.3249 C   0  0  0  0  0  0  0  0  0  0  0  0
  151.5753  136.9549  156.6098 N   0  0  0  0  0  0  0  0  0  0  0  0
  152.6793  136.1715  156.6900 N   0  0  0  0  0  0  0  0  0  0  0  0
  152.8891  135.9489  157.9556 N   0  0  0  0  0  0  0  0  0  0  0  0
  151.9354  136.5705  158.7401 N   0  0  0  0  0  0  0  0  0  0  0  0
  151.1475  137.1740  157.8601 C   0  0  0  0  0  0  0  0  0  0  0  0
  149.9468  137.9962  158.1939 C   0  0  0  0  0  0  0  0  0  0  0  0
  151.8212  141.4463  157.7318 C   0  0  0  0  0  0  0  0  0  0  0  0
  152.6631  140.8674  158.6785 C   0  0  0  0  0  0  0  0  0  0  0  0
  152.8525  141.5666  159.8917 C   0  0  0  0  0  0  0  0  0  0  0  0
  153.7684  140.9605  160.9412 C   0  0  0  0  0  0  0  0  0  0  0  0
  151.8646  144.4889  161.4580 H   0  0  0  0  0  0  0  0  0  0  0  0
  153.4738  143.7842  161.5780 H   0  0  0  0  0  0  0  0  0  0  0  0
  152.0816  142.9457  162.2803 H   0  0  0  0  0  0  0  0  0  0  0  0
  150.8591  144.3250  159.3325 H   0  0  0  0  0  0  0  0  0  0  0  0
  150.1040  141.9301  154.9466 H   0  0  0  0  0  0  0  0  0  0  0  0
  152.6572  139.9941  155.1299 H   0  0  0  0  0  0  0  0  0  0  0  0
  152.4024  139.2534  156.6873 H   0  0  0  0  0  0  0  0  0  0  0  0
  149.8492  139.0997  155.8712 H   0  0  0  0  0  0  0  0  0  0  0  0
  150.3933  138.4970  153.4488 H   0  0  0  0  0  0  0  0  0  0  0  0
  150.1665  136.8310  155.0942 H   0  0  0  0  0  0  0  0  0  0  0  0
  151.7953  137.1540  154.5528 H   0  0  0  0  0  0  0  0  0  0  0  0
  149.7072  137.9059  159.2538 H   0  0  0  0  0  0  0  0  0  0  0  0
  149.0852  137.6611  157.6161 H   0  0  0  0  0  0  0  0  0  0  0  0
  150.1371  139.0456  157.9690 H   0  0  0  0  0  0  0  0  0  0  0  0
  153.1603  139.9259  158.4971 H   0  0  0  0  0  0  0  0  0  0  0  0
  154.1746  140.0039  160.6115 H   0  0  0  0  0  0  0  0  0  0  0  0
  153.2254  140.7887  161.8709 H   0  0  0  0  0  0  0  0  0  0  0  0
  154.6077  141.6251  161.1466 H   0  0  0  0  0  0  0  0  0  0  0  0
  149.8481  143.7935  156.6942 H   0  0  0  0  0  0  0  0  0  0  0  0
  1  2  1  0  0  0  0
  1 22  1  0  0  0  0
  1 23  1  0  0  0  0
  1 24  1  0  0  0  0
  2 20  1  0  0  0  0
  2  3  2  0  0  0  0
  3  4  1  0  0  0  0
  3 25  1  0  0  0  0
  4 18  2  0  0  0  0
  4  5  1  0  0  0  0
  5  6  2  0  0  0  0
  5 40  1  0  0  0  0
  6  7  1  0  0  0  0
  6 26  1  0  0  0  0
  7  8  1  0  0  0  0
  7 18  1  0  0  0  0
  8  9  1  0  0  0  0
  8 27  1  0  0  0  0
  8 28  1  0  0  0  0
  9 10  1  0  0  0  0
  9 11  1  0  0  0  0
  9 29  1  0  0  0  0
 10 30  1  0  0  0  0
 11 12  1  0  0  0  0
 11 31  1  0  0  0  0
 11 32  1  0  0  0  0
 12 16  1  0  0  0  0
 12 13  1  0  0  0  0
 13 14  2  0  0  0  0
 14 15  1  0  0  0  0
 15 16  2  0  0  0  0
 16 17  1  0  0  0  0
 17 33  1  0  0  0  0
 17 34  1  0  0  0  0
 17 35  1  0  0  0  0
 18 19  1  0  0  0  0
 19 20  2  0  0  0  0
 19 36  1  0  0  0  0
 20 21  1  0  0  0  0
 21 37  1  0  0  0  0
 21 38  1  0  0  0  0
 21 39  1  0  0  0  0
M  CHG  1   5   1
M  END
> <s_m_source_file>
AV-unprocessed.smi

> <i_m_source_file_index>
2569

> <i_lp_mmshare_version>
43012

> <i_f3d_flags>
0

> <s_epik_input>
W0NIM11jKFtjSF0xKWMoW0NIM10pW2NIXWMoYzEyKW4oW2NIXW4yKVtDSDJdW0NASF0oW09IXSlbQ0gyXW4zbm5uYzNbQ0gzXQ==

> <s_epik_cmdline>
J2VwaWtfcHl0aG9uJywgJy1waCcsICc3LjAnLCAnLXRuJywgJzgnLCAnLW1hJywgJzIwMCcsICctbWV0YWxfYmluZGluZycsICctaW1hZScsICc8aW5maWxlLm1hZT4nLCAnLW9tYWUnLCAnPG91dGZpbGUubWFlPic=

> <r_lp_tautomer_probability>
1

> <r_epik_Ionization_Penalty>
1.13338

> <r_epik_Ionization_Penalty_Charging>
1.13335

> <r_epik_Ionization_Penalty_Neutral>
3.02334e-05

> <r_epik_State_Penalty>
1.19324

> <r_epik_Charging_Adjusted_Penalty>
2.3266

> <i_epik_Tot_Q>
1

> <i_epik_Tot_abs_Q>
1

> <r_epik_Metal_State_Penalty>
1.27602

> <b_epik_Metal_Only>
0

> <s_lp_Force_Field>
OPLS_2005

> <r_lp_Energy>
16.0623

> <b_lp_Chiralities_Consistent>
1

> <s_lp_Variant>
AV-unprocessed.smi:2569-4

> <Gold.Version>
5.8.1

> <Gold.Id.Protein>
6NUR|6NUR_protein|mol2

> <Gold.PLP.Fitness>
54.9943

> <Gold.PLP.PLP>
-42.1209

> <Gold.PLP.part.hbond>
-5.9358

> <Gold.PLP.part.metal>
0.0000

> <Gold.PLP.part.buried>
-5.3391

> <Gold.PLP.part.nonpolar>
-30.0955

> <Gold.PLP.part.repulsive>
0.0334

> <Gold.PLP.ligand.clash>
0.0000

> <Gold.PLP.ligand.torsion>
0.6261

> <Gold.PLP.Chemscore.Hbond>
4.7040

> <Gold.PLP.Chemscore.CHOScore>
0.0000

> <Gold.PLP.Chemscore.Metal>
0.0000

> <Gold.Chemscore.Hbonds>
donor molecule, donor type, donor heavy atom, donor atom, acceptor molecule, acceptor atom, score
      L1  H     5    40       P1  8028  1.98
      P1  H  6896  6909       L1    15  0.72
      P1  H  7989  7998       L1    10  1.00
      P1  H 10752 10763       L1    13  1.00

> <Gold.PLP.Chemscore.Internal.Correction>
0.0135

> <Gold.Rescore>
     Score         DG    S(hbond)    S(metal)    S(lipo)     H(rot)  DE(clash)    DE(int)     intcor
     20.28     -20.73       3.14        0.00      97.22       2.59       0.02       0.44       ----

> <Gold.Chemscore.Fitness>
20.2757

> <Gold.Chemscore.DG>
-20.7327

> <Gold.Chemscore.ZeroCoef>
-5.4800

> <Gold.Chemscore.Hbond>
3.1427

> <Gold.Chemscore.Metal>
0.0000

> <Gold.Chemscore.Lipo>
97.2210

> <Gold.Chemscore.Internal_Hbond>
0.0000

> <Gold.Chemscore.DEClash>
0.0174

> <Gold.Chemscore.DEInternal>
0.4396

> <Gold.Chemscore.Rot>
2.5854

> <Gold.Chemscore.Internal.Correction>
   9.000000E+99

> <Gold.Chemscore.Hbonds>
donor molecule, donor type, donor heavy atom, donor atom, acceptor molecule, acceptor atom, score
      L1  H     5    40       P1  8028  0.94
      P1  H  6896  6909       L1    15  0.18
      P1  H  7989  7998       L1    10  0.70
      P1  H 10752 10763       L1    13  0.99

> <Gold.Chemscore.Hbond.Weighted>
-10.4965

> <Gold.Chemscore.Metal.Weighted>
-0.0000

> <Gold.Chemscore.Lipo.Weighted>
-11.3749

> <Gold.Chemscore.Internal_Hbond.Weighted>
0.0000

> <Gold.Chemscore.DEClash.Weighted>
0.0174

> <Gold.Chemscore.DEInternal.Weighted>
0.4396

> <Gold.Chemscore.Rot.Weighted>
6.6187

> <Gold.Chemscore.Internal.Correction.Weighted>
   9.000000E+99

> <Gold.Protein.RotatedTorsions>
[ 6907 6896 6895 6894 ] final  117.97 input  -60.11 | X-H torsion
[ 7974 7965 7964 7962 ] final   51.39 input  175.53 | X-H torsion
[ 8008 7997 7996 7995 ] final   86.19 input   59.86 | X-H torsion
[ 10167 10162 10161 10158 ] final   76.62 input  -65.29 | X-H torsion
[ 10718 10713 10712 10709 ] final  -87.54 input   66.30 | X-H torsion
[ 10763 10752 10751 10750 ] final  108.13 input  -60.55 | X-H torsion
[ 11005 11000 10999 10996 ] final  163.00 input  -57.11 | X-H torsion

> <Gold.Protein.ActiveResidues>
 VAL166  LYS551  ARG553  GLY616  TRP617  ASP618  TYR619  PRO620  LYS621  CYS622 
 ASP623  PHE694  ASN695  SER759  ASP760  ASP761  ALA762  ILE779  LEU786  VAL792 
 PHE793  MET794  SER795  GLU796  ALA797  LYS798  CYS799  TRP800  GLU811  SER814 

> <Gold.Protein.RotatedAtoms>
  152.4575  133.7754  159.6821 H   0  0  0  0  0  0  0  0  0  0  0  0  # atno 6907 bound_to 6896
  150.8507  133.7782  159.3033 H   0  0  0  0  0  0  0  0  0  0  0  0  # atno 6908 bound_to 6896
  151.5378  135.1071  159.9970 H   0  0  0  0  0  0  0  0  0  0  0  0  # atno 6909 bound_to 6896
  145.9918  139.4347  143.0069 H   0  0  0  0  0  0  0  0  0  0  0  0  # atno 7974 bound_to 7965
  155.9596  140.3394  155.6479 H   0  0  0  0  0  0  0  0  0  0  0  0  # atno 8008 bound_to 7997
  155.6816  140.0738  157.2501 H   0  0  0  0  0  0  0  0  0  0  0  0  # atno 8009 bound_to 7997
  154.4140  140.1673  156.1976 H   0  0  0  0  0  0  0  0  0  0  0  0  # atno 8010 bound_to 7997
  139.9903  144.5762  150.7824 H   0  0  0  0  0  0  0  0  0  0  0  0  # atno 10167 bound_to 10162
  155.9985  130.4803  150.4883 H   0  0  0  0  0  0  0  0  0  0  0  0  # atno 10718 bound_to 10713
  153.4164  135.3822  155.2083 H   0  0  0  0  0  0  0  0  0  0  0  0  # atno 10763 bound_to 10752
  154.8741  135.3806  154.4437 H   0  0  0  0  0  0  0  0  0  0  0  0  # atno 10764 bound_to 10752
  153.4952  135.7088  153.5924 H   0  0  0  0  0  0  0  0  0  0  0  0  # atno 10765 bound_to 10752
  140.2314  134.8121  157.3321 H   0  0  0  0  0  0  0  0  0  0  0  0  # atno 11005 bound_to 11000
  145.7619  140.9932  143.1195 LP  0  0  0  0  0  0  0  0  0  0  0  0  # atno 17320 bound_to 7965
  144.6891  139.9340  143.7473 LP  0  0  0  0  0  0  0  0  0  0  0  0  # atno 17321 bound_to 7965
  140.7457  143.2880  151.3410 LP  0  0  0  0  0  0  0  0  0  0  0  0  # atno 17342 bound_to 10162
  139.6345  144.0657  152.2504 LP  0  0  0  0  0  0  0  0  0  0  0  0  # atno 17343 bound_to 10162
  157.2881  131.0620  151.2153 LP  0  0  0  0  0  0  0  0  0  0  0  0  # atno 17370 bound_to 10713
  157.3175  130.6920  149.6250 LP  0  0  0  0  0  0  0  0  0  0  0  0  # atno 17371 bound_to 10713
  140.1747  134.4565  155.7809 LP  0  0  0  0  0  0  0  0  0  0  0  0  # atno 17394 bound_to 11000
  141.2217  133.6957  156.7766 LP  0  0  0  0  0  0  0  0  0  0  0  0  # atno 17395 bound_to 11000

$$$$
