AV-unprocessed.smi:1484|AV-procd|sdf|5994|dock1
  -GOLD-   22720 6 83D 1   1.00000     0.00000
 Structure written by MMmdl.
 37 38  0  0  0  0  0  0  0  0  2 V2000
  151.9118  145.6177  159.7081 C   0  0  0  0  0  0  0  0  0  0  0  0
  152.1827  144.3358  158.9074 C   0  0  1  0  0  0  0  0  0  0  0  0
  152.4160  143.1292  159.8368 C   0  0  0  0  0  0  0  0  0  0  0  0
  152.6871  141.8452  159.0369 C   0  0  0  0  0  0  0  0  0  0  0  0
  151.5525  141.5559  158.0423 C   0  0  0  0  0  0  0  0  0  0  0  0
  151.3077  142.7542  157.1065 C   0  0  1  0  0  0  0  0  0  0  0  0
  150.1706  142.4760  156.2334 N   0  0  0  0  0  0  0  0  0  0  0  0
  150.0271  141.4023  155.4407 C   0  0  0  0  0  0  0  0  0  0  0  0
  150.8706  140.5084  155.3538 O   0  0  0  0  0  0  0  0  0  0  0  0
  148.7208  141.3512  154.6316 C   0  0  0  0  0  0  0  0  0  0  0  0
  147.5173  141.7088  155.3976 N   0  0  0  0  0  0  0  0  0  0  0  0
  147.5115  141.1897  156.7627 N   0  5  0  0  0  0  0  0  0  0  0  0
  146.4584  141.4723  157.5745 C   0  0  0  0  0  0  0  0  0  0  0  0
  146.3913  141.0838  158.7384 O   0  0  0  0  0  0  0  0  0  0  0  0
  145.3682  142.2649  157.0304 C   0  0  0  0  0  0  0  0  0  0  0  0
  145.3883  142.7093  155.7584 C   0  0  0  0  0  0  0  0  0  0  0  0
  146.4976  142.4330  154.8538 C   0  0  0  0  0  0  0  0  0  0  0  0
  146.5172  142.8268  153.6873 O   0  0  0  0  0  0  0  0  0  0  0  0
  151.0409  144.0380  157.9156 C   0  0  0  0  0  0  0  0  0  0  0  0
  151.0065  145.5272  160.3091 H   0  0  0  0  0  0  0  0  0  0  0  0
  151.7869  146.4747  159.0456 H   0  0  0  0  0  0  0  0  0  0  0  0
  152.7384  145.8414  160.3832 H   0  0  0  0  0  0  0  0  0  0  0  0
  153.0945  144.4971  158.3302 H   0  0  0  0  0  0  0  0  0  0  0  0
  153.2560  143.3279  160.5033 H   0  0  0  0  0  0  0  0  0  0  0  0
  151.5439  142.9813  160.4753 H   0  0  0  0  0  0  0  0  0  0  0  0
  153.6299  141.9422  158.4971 H   0  0  0  0  0  0  0  0  0  0  0  0
  152.8066  141.0020  159.7178 H   0  0  0  0  0  0  0  0  0  0  0  0
  151.7937  140.6676  157.4571 H   0  0  0  0  0  0  0  0  0  0  0  0
  150.6401  141.3244  158.5942 H   0  0  0  0  0  0  0  0  0  0  0  0
  152.2096  142.9148  156.5130 H   0  0  0  0  0  0  0  0  0  0  0  0
  149.4241  143.1556  156.2350 H   0  0  0  0  0  0  0  0  0  0  0  0
  148.8169  142.0143  153.7703 H   0  0  0  0  0  0  0  0  0  0  0  0
  148.6175  140.3475  154.2149 H   0  0  0  0  0  0  0  0  0  0  0  0
  144.5223  142.5006  157.6593 H   0  0  0  0  0  0  0  0  0  0  0  0
  144.5557  143.2932  155.3954 H   0  0  0  0  0  0  0  0  0  0  0  0
  150.1011  143.9401  158.4613 H   0  0  0  0  0  0  0  0  0  0  0  0
  150.9152  144.8805  157.2340 H   0  0  0  0  0  0  0  0  0  0  0  0
  1  2  1  0  0  0  0
  1 20  1  0  0  0  0
  1 21  1  0  0  0  0
  1 22  1  0  0  0  0
  2 19  1  0  0  0  0
  2  3  1  0  0  0  0
  2 23  1  0  0  0  0
  3  4  1  0  0  0  0
  3 24  1  0  0  0  0
  3 25  1  0  0  0  0
  4  5  1  0  0  0  0
  4 26  1  0  0  0  0
  4 27  1  0  0  0  0
  5  6  1  0  0  0  0
  5 28  1  0  0  0  0
  5 29  1  0  0  0  0
  6  7  1  0  0  0  0
  6 19  1  0  0  0  0
  6 30  1  0  0  0  0
  7  8  1  0  0  0  0
  7 31  1  0  0  0  0
  8  9  2  0  0  0  0
  8 10  1  0  0  0  0
 10 32  1  0  0  0  0
 10 33  1  0  0  0  0
 10 11  1  0  0  0  0
 11 12  1  0  0  0  0
 11 17  1  0  0  0  0
 12 13  1  0  0  0  0
 13 14  2  0  0  0  0
 13 15  1  0  0  0  0
 15 34  1  0  0  0  0
 15 16  2  0  0  0  0
 16 35  1  0  0  0  0
 16 17  1  0  0  0  0
 17 18  2  0  0  0  0
 19 36  1  0  0  0  0
 19 37  1  0  0  0  0
M  CHG  1  12  -1
M  END
> <s_m_source_file>
AV-unprocessed.smi

> <i_m_source_file_index>
1484

> <i_lp_mmshare_version>
43012

> <i_f3d_flags>
0

> <s_epik_input>
W0NIM11bQ0BASF0xW0NIMl1bQ0gyXVtDSDJdW0NASF0oW0NIMl0xKVtOSF1DKD1PKVtDSDJdbjJbbkhdYyg9TylbY0hdW2NIXWMyPU8=

> <s_epik_cmdline>
J2VwaWtfcHl0aG9uJywgJy1waCcsICc3LjAnLCAnLXRuJywgJzgnLCAnLW1hJywgJzIwMCcsICctbWV0YWxfYmluZGluZycsICctaW1hZScsICc8aW5maWxlLm1hZT4nLCAnLW9tYWUnLCAnPG91dGZpbGUubWFlPic=

> <r_lp_tautomer_probability>
1

> <r_epik_Ionization_Penalty>
0.101352

> <r_epik_Ionization_Penalty_Charging>
0.101352

> <r_epik_Ionization_Penalty_Neutral>
1.90469e-08

> <r_epik_State_Penalty>
0.0358555

> <r_epik_Charging_Adjusted_Penalty>
0.137208

> <i_epik_Tot_Q>
-1

> <i_epik_Tot_abs_Q>
1

> <r_epik_Metal_State_Penalty>
0.0358555

> <b_epik_Metal_Only>
0

> <s_lp_Force_Field>
OPLS_2005

> <r_lp_Energy>
25.5617

> <b_lp_Chiralities_Consistent>
1

> <s_lp_Variant>
AV-unprocessed.smi:1484-2

> <Gold.Version>
5.8.1

> <Gold.Id.Protein>
6NUR|6NUR_protein|mol2

> <Gold.PLP.Fitness>
45.3844

> <Gold.PLP.PLP>
-39.3819

> <Gold.PLP.part.hbond>
-3.0000

> <Gold.PLP.part.metal>
0.0000

> <Gold.PLP.part.buried>
-4.4120

> <Gold.PLP.part.nonpolar>
-32.5930

> <Gold.PLP.part.repulsive>
0.4005

> <Gold.PLP.ligand.clash>
0.0000

> <Gold.PLP.ligand.torsion>
0.5311

> <Gold.PLP.Chemscore.Hbond>
2.3520

> <Gold.PLP.Chemscore.CHOScore>
0.0000

> <Gold.PLP.Chemscore.Metal>
0.0000

> <Gold.Chemscore.Hbonds>
donor molecule, donor type, donor heavy atom, donor atom, acceptor molecule, acceptor atom, score
      L1  H     7    31       P1  8028  0.93
      P1  H  6934  6946       L1    14  0.48
      P1  H  7989  7998       L1     9  0.95

> <Gold.PLP.Chemscore.Internal.Correction>
0.0086

> <Gold.Rescore>
     Score         DG    S(hbond)    S(metal)    S(lipo)     H(rot)  DE(clash)    DE(int)     intcor
     16.95     -17.49       1.89        0.00      85.02       1.65       0.14       0.41       ----

> <Gold.Chemscore.Fitness>
16.9469

> <Gold.Chemscore.DG>
-17.4906

> <Gold.Chemscore.ZeroCoef>
-5.4800

> <Gold.Chemscore.Hbond>
1.8862

> <Gold.Chemscore.Metal>
0.0000

> <Gold.Chemscore.Lipo>
85.0192

> <Gold.Chemscore.Internal_Hbond>
0.0000

> <Gold.Chemscore.DEClash>
0.1381

> <Gold.Chemscore.DEInternal>
0.4056

> <Gold.Chemscore.Rot>
1.6549

> <Gold.Chemscore.Internal.Correction>
   9.000000E+99

> <Gold.Chemscore.Hbonds>
donor molecule, donor type, donor heavy atom, donor atom, acceptor molecule, acceptor atom, score
      L1  H     7    31       P1  8028  0.90
      P1  H  6934  6946       L1    14  0.45
      P1  H  7989  7998       L1     9  0.26

> <Gold.Chemscore.Hbond.Weighted>
-6.2998

> <Gold.Chemscore.Metal.Weighted>
-0.0000

> <Gold.Chemscore.Lipo.Weighted>
-9.9472

> <Gold.Chemscore.Internal_Hbond.Weighted>
0.0000

> <Gold.Chemscore.DEClash.Weighted>
0.1381

> <Gold.Chemscore.DEInternal.Weighted>
0.4056

> <Gold.Chemscore.Rot.Weighted>
4.2364

> <Gold.Chemscore.Internal.Correction.Weighted>
   9.000000E+99

> <Gold.Protein.RotatedTorsions>
[ 6907 6896 6895 6894 ] final  -25.37 input  -60.11 | X-H torsion
[ 7974 7965 7964 7962 ] final  -74.23 input  175.53 | X-H torsion
[ 8008 7997 7996 7995 ] final  -64.56 input   59.86 | X-H torsion
[ 10167 10162 10161 10158 ] final   -3.72 input  -65.29 | X-H torsion
[ 10718 10713 10712 10709 ] final  102.39 input   66.30 | X-H torsion
[ 10763 10752 10751 10750 ] final -123.46 input  -60.55 | X-H torsion
[ 11005 11000 10999 10996 ] final   55.72 input  -57.11 | X-H torsion

> <Gold.Protein.ActiveResidues>
 VAL166  LYS551  ARG553  GLY616  TRP617  ASP618  TYR619  PRO620  LYS621  CYS622 
 ASP623  PHE694  ASN695  SER759  ASP760  ASP761  ALA762  ILE779  LEU786  VAL792 
 PHE793  MET794  SER795  GLU796  ALA797  LYS798  CYS799  TRP800  GLU811  SER814 

> <Gold.Protein.RotatedAtoms>
  151.1761  135.0340  159.8772 H   0  0  0  0  0  0  0  0  0  0  0  0  # atno 6907 bound_to 6896
  152.5447  134.1116  159.8371 H   0  0  0  0  0  0  0  0  0  0  0  0  # atno 6908 bound_to 6896
  151.1227  133.5046  159.2634 H   0  0  0  0  0  0  0  0  0  0  0  0  # atno 6909 bound_to 6896
  145.6418  140.9309  143.1032 H   0  0  0  0  0  0  0  0  0  0  0  0  # atno 7974 bound_to 7965
  154.4619  140.0951  156.6916 H   0  0  0  0  0  0  0  0  0  0  0  0  # atno 8008 bound_to 7997
  155.4970  140.3472  155.4346 H   0  0  0  0  0  0  0  0  0  0  0  0  # atno 8009 bound_to 7997
  156.0886  140.1391  156.9610 H   0  0  0  0  0  0  0  0  0  0  0  0  # atno 8010 bound_to 7997
  140.6900  143.6507  150.8352 H   0  0  0  0  0  0  0  0  0  0  0  0  # atno 10167 bound_to 10162
  157.6803  131.0751  150.5396 H   0  0  0  0  0  0  0  0  0  0  0  0  # atno 10718 bound_to 10713
  154.8708  135.4097  154.2947 H   0  0  0  0  0  0  0  0  0  0  0  0  # atno 10763 bound_to 10752
  153.3816  135.7011  153.6566 H   0  0  0  0  0  0  0  0  0  0  0  0  # atno 10764 bound_to 10752
  153.5386  135.3653  155.2680 H   0  0  0  0  0  0  0  0  0  0  0  0  # atno 10765 bound_to 10752
  140.0585  134.5636  155.9180 H   0  0  0  0  0  0  0  0  0  0  0  0  # atno 11005 bound_to 11000
  144.7155  139.8214  143.7400 LP  0  0  0  0  0  0  0  0  0  0  0  0  # atno 17320 bound_to 7965
  146.1275  139.4304  143.0190 LP  0  0  0  0  0  0  0  0  0  0  0  0  # atno 17321 bound_to 7965
  140.0219  143.5533  152.2797 LP  0  0  0  0  0  0  0  0  0  0  0  0  # atno 17342 bound_to 10162
  139.6295  144.7642  151.2567 LP  0  0  0  0  0  0  0  0  0  0  0  0  # atno 17343 bound_to 10162
  156.5704  130.4278  149.6022 LP  0  0  0  0  0  0  0  0  0  0  0  0  # atno 17370 bound_to 10713
  156.2746  130.7036  151.1843 LP  0  0  0  0  0  0  0  0  0  0  0  0  # atno 17371 bound_to 10713
  141.1962  133.6591  156.5683 LP  0  0  0  0  0  0  0  0  0  0  0  0  # atno 17394 bound_to 11000
  140.3807  134.7526  157.4659 LP  0  0  0  0  0  0  0  0  0  0  0  0  # atno 17395 bound_to 11000

$$$$
