AV-unprocessed.smi:511|AV-procd|sdf|2764|dock3
  -GOLD-   2262023233D 1   1.00000     0.00000
 Structure written by MMmdl.
 46 48  0  0  0  0  0  0  0  0  2 V2000
  148.4344  141.0283  154.4574 C   0  0  0  0  0  0  0  0  0  0  0  0
  149.8388  140.8568  154.5312 O   0  0  0  0  0  0  0  0  0  0  0  0
  150.4218  141.6052  155.5838 C   0  0  0  0  0  0  0  0  0  0  0  0
  150.2674  140.8204  156.8920 C   0  0  0  0  0  0  0  0  0  0  0  0
  151.3474  141.1233  157.8270 N   0  0  0  0  0  0  0  0  0  0  0  0
  151.6442  142.3036  158.4357 C   0  0  0  0  0  0  0  0  0  0  0  0
  150.8567  143.4421  158.2664 N   0  0  0  0  0  0  0  0  0  0  0  0
  149.3951  143.4550  158.2575 C   0  0  0  0  0  0  0  0  0  0  0  0
  148.8288  143.9787  159.5908 C   0  0  0  0  0  0  0  0  0  0  0  0
  149.3656  145.3237  159.9077 N   0  3  0  0  0  0  0  0  0  0  0  0
  148.8388  145.8630  161.1792 C   0  0  0  0  0  0  0  0  0  0  0  0
  150.8461  145.3546  159.8443 C   0  0  0  0  0  0  0  0  0  0  0  0
  151.3416  144.7995  158.4979 C   0  0  0  0  0  0  0  0  0  0  0  0
  152.7541  142.2856  159.1794 N   0  0  0  0  0  0  0  0  0  0  0  0
  153.1873  140.9743  159.0575 C   0  0  0  0  0  0  0  0  0  0  0  0
  152.3607  140.2630  158.2509 C   0  0  0  0  0  0  0  0  0  0  0  0
  152.6001  138.8508  157.9282 C   0  0  0  0  0  0  0  0  0  0  0  0
  151.8733  138.1928  157.1873 O   0  0  0  0  0  0  0  0  0  0  0  0
  153.7064  138.3497  158.5300 N   0  0  0  0  0  0  0  0  0  0  0  0
  154.5751  139.0077  159.3577 C   0  0  0  0  0  0  0  0  0  0  0  0
  155.5378  138.4065  159.8328 O   0  0  0  0  0  0  0  0  0  0  0  0
  154.3236  140.3316  159.6220 N   0  0  0  0  0  0  0  0  0  0  0  0
  155.1931  141.1266  160.4914 C   0  0  0  0  0  0  0  0  0  0  0  0
  153.9148  137.3792  158.3454 H   0  0  0  0  0  0  0  0  0  0  0  0
  148.0351  140.4321  153.6369 H   0  0  0  0  0  0  0  0  0  0  0  0
  148.1732  142.0712  154.2735 H   0  0  0  0  0  0  0  0  0  0  0  0
  147.9484  140.7020  155.3777 H   0  0  0  0  0  0  0  0  0  0  0  0
  151.4765  141.7885  155.3732 H   0  0  0  0  0  0  0  0  0  0  0  0
  149.9289  142.5750  155.6692 H   0  0  0  0  0  0  0  0  0  0  0  0
  149.3035  141.0525  157.3368 H   0  0  0  0  0  0  0  0  0  0  0  0
  150.2510  139.7480  156.6996 H   0  0  0  0  0  0  0  0  0  0  0  0
  149.0435  144.0654  157.4248 H   0  0  0  0  0  0  0  0  0  0  0  0
  149.0140  142.4473  158.0937 H   0  0  0  0  0  0  0  0  0  0  0  0
  147.7403  144.0209  159.5394 H   0  0  0  0  0  0  0  0  0  0  0  0
  149.0842  143.2875  160.3959 H   0  0  0  0  0  0  0  0  0  0  0  0
  149.1502  145.2489  162.0252 H   0  0  0  0  0  0  0  0  0  0  0  0
  147.7488  145.8944  161.1618 H   0  0  0  0  0  0  0  0  0  0  0  0
  149.1984  146.8793  161.3434 H   0  0  0  0  0  0  0  0  0  0  0  0
  151.1980  146.3785  159.9747 H   0  0  0  0  0  0  0  0  0  0  0  0
  151.2609  144.7667  160.6650 H   0  0  0  0  0  0  0  0  0  0  0  0
  152.4321  144.8054  158.4723 H   0  0  0  0  0  0  0  0  0  0  0  0
  151.0118  145.4409  157.6794 H   0  0  0  0  0  0  0  0  0  0  0  0
  156.0967  140.6066  160.8108 H   0  0  0  0  0  0  0  0  0  0  0  0
  154.6489  141.4231  161.3884 H   0  0  0  0  0  0  0  0  0  0  0  0
  155.5096  142.0339  159.9755 H   0  0  0  0  0  0  0  0  0  0  0  0
  149.0388  145.9381  159.1756 H   0  0  0  0  0  0  0  0  0  0  0  0
  1  2  1  0  0  0  0
  1 25  1  0  0  0  0
  1 26  1  0  0  0  0
  1 27  1  0  0  0  0
  2  3  1  0  0  0  0
  3  4  1  0  0  0  0
  3 28  1  0  0  0  0
  3 29  1  0  0  0  0
  4  5  1  0  0  0  0
  4 30  1  0  0  0  0
  4 31  1  0  0  0  0
  5 16  1  0  0  0  0
  5  6  1  0  0  0  0
  6  7  1  0  0  0  0
  6 14  2  0  0  0  0
  7 13  1  0  0  0  0
  7  8  1  0  0  0  0
  8  9  1  0  0  0  0
  8 32  1  0  0  0  0
  8 33  1  0  0  0  0
  9 10  1  0  0  0  0
  9 34  1  0  0  0  0
  9 35  1  0  0  0  0
 10 11  1  0  0  0  0
 10 12  1  0  0  0  0
 10 46  1  0  0  0  0
 11 36  1  0  0  0  0
 11 37  1  0  0  0  0
 11 38  1  0  0  0  0
 12 13  1  0  0  0  0
 12 39  1  0  0  0  0
 12 40  1  0  0  0  0
 13 41  1  0  0  0  0
 13 42  1  0  0  0  0
 14 15  1  0  0  0  0
 15 22  1  0  0  0  0
 15 16  2  0  0  0  0
 16 17  1  0  0  0  0
 17 18  2  0  0  0  0
 17 19  1  0  0  0  0
 19 24  1  0  0  0  0
 19 20  1  0  0  0  0
 20 21  2  0  0  0  0
 20 22  1  0  0  0  0
 22 23  1  0  0  0  0
 23 43  1  0  0  0  0
 23 44  1  0  0  0  0
 23 45  1  0  0  0  0
M  CHG  1  10   1
M  END
> <s_m_source_file>
AV-unprocessed.smi

> <i_m_source_file_index>
511

> <i_lp_mmshare_version>
43012

> <i_f3d_flags>
0

> <s_epik_input>
W0NIM11uMWMoPU8pW25IXWMoPU8pYyhjMTIpbihbQ0gyXVtDSDJdT1tDSDNdKWMobjIpTjNbQ0gyXVtDSDJdTihbQ0gzXSlbQ0gyXVtDSDJdMw==

> <s_epik_cmdline>
J2VwaWtfcHl0aG9uJywgJy1waCcsICc3LjAnLCAnLXRuJywgJzgnLCAnLW1hJywgJzIwMCcsICctbWV0YWxfYmluZGluZycsICctaW1hZScsICc8aW5maWxlLm1hZT4nLCAnLW9tYWUnLCAnPG91dGZpbGUubWFlPic=

> <r_epik_Ionization_Penalty>
0.064781

> <r_epik_Ionization_Penalty_Charging>
0.0647789

> <r_epik_Ionization_Penalty_Neutral>
2.1607e-06

> <r_epik_State_Penalty>
0.0564218

> <r_epik_Charging_Adjusted_Penalty>
0.121201

> <i_epik_Tot_Q>
1

> <i_epik_Tot_abs_Q>
1

> <r_epik_Metal_State_Penalty>
0.0833038

> <b_epik_Metal_Only>
0

> <s_lp_Force_Field>
OPLS_2005

> <r_lp_Energy>
49.4722

> <b_lp_Chiralities_Consistent>
1

> <s_lp_Variant>
AV-unprocessed.smi:511-1

> <Gold.Version>
5.8.1

> <Gold.Id.Protein>
6NUR|6NUR_protein|mol2

> <Gold.PLP.Fitness>
44.0964

> <Gold.PLP.PLP>
-36.0564

> <Gold.PLP.part.hbond>
-2.0000

> <Gold.PLP.part.metal>
0.0000

> <Gold.PLP.part.buried>
-4.2603

> <Gold.PLP.part.nonpolar>
-30.6861

> <Gold.PLP.part.repulsive>
0.3716

> <Gold.PLP.ligand.clash>
0.0000

> <Gold.PLP.ligand.torsion>
0.7508

> <Gold.PLP.Chemscore.Hbond>
2.9920

> <Gold.PLP.Chemscore.CHOScore>
0.0000

> <Gold.PLP.Chemscore.Metal>
0.0000

> <Gold.Chemscore.Hbonds>
donor molecule, donor type, donor heavy atom, donor atom, acceptor molecule, acceptor atom, score
      L1  H    10    46       P1  8029  0.98
      P1  H  7989  7998       L1     2  0.35

> <Gold.PLP.Chemscore.Internal.Correction>
0.5656

> <Gold.Rescore>
     Score         DG    S(hbond)    S(metal)    S(lipo)     H(rot)  DE(clash)    DE(int)     intcor
     12.80     -14.67       1.65        0.00      64.32       1.51       0.87       1.00       ----

> <Gold.Chemscore.Fitness>
12.8014

> <Gold.Chemscore.DG>
-14.6703

> <Gold.Chemscore.ZeroCoef>
-5.4800

> <Gold.Chemscore.Hbond>
1.6547

> <Gold.Chemscore.Metal>
0.0000

> <Gold.Chemscore.Lipo>
64.3215

> <Gold.Chemscore.Internal_Hbond>
0.0000

> <Gold.Chemscore.DEClash>
0.8708

> <Gold.Chemscore.DEInternal>
0.9981

> <Gold.Chemscore.Rot>
1.5086

> <Gold.Chemscore.Internal.Correction>
   9.000000E+99

> <Gold.Chemscore.Hbonds>
donor molecule, donor type, donor heavy atom, donor atom, acceptor molecule, acceptor atom, score
      L1  H    10    46       P1  8029  0.48
      P1  H  7989  7998       L1     2  0.02

> <Gold.Chemscore.Hbond.Weighted>
-5.5267

> <Gold.Chemscore.Metal.Weighted>
-0.0000

> <Gold.Chemscore.Lipo.Weighted>
-7.5256

> <Gold.Chemscore.Internal_Hbond.Weighted>
0.0000

> <Gold.Chemscore.DEClash.Weighted>
0.8708

> <Gold.Chemscore.DEInternal.Weighted>
0.9981

> <Gold.Chemscore.Rot.Weighted>
3.8620

> <Gold.Chemscore.Internal.Correction.Weighted>
   9.000000E+99

> <Gold.Protein.RotatedTorsions>
[ 6907 6896 6895 6894 ] final  -81.36 input  -60.11 | X-H torsion
[ 7974 7965 7964 7962 ] final  127.82 input  175.53 | X-H torsion
[ 8008 7997 7996 7995 ] final  101.85 input   59.86 | X-H torsion
[ 10167 10162 10161 10158 ] final   20.38 input  -65.29 | X-H torsion
[ 10718 10713 10712 10709 ] final   43.80 input   66.30 | X-H torsion
[ 10763 10752 10751 10750 ] final  143.34 input  -60.55 | X-H torsion
[ 11005 11000 10999 10996 ] final  144.56 input  -57.11 | X-H torsion

> <Gold.Protein.ActiveResidues>
 VAL166  LYS551  ARG553  GLY616  TRP617  ASP618  TYR619  PRO620  LYS621  CYS622 
 ASP623  PHE694  ASN695  SER759  ASP760  ASP761  ALA762  ILE779  LEU786  VAL792 
 PHE793  MET794  SER795  GLU796  ALA797  LYS798  CYS799  TRP800  GLU811  SER814 

> <Gold.Protein.RotatedAtoms>
  150.6913  134.3829  159.5041 H   0  0  0  0  0  0  0  0  0  0  0  0  # atno 6907 bound_to 6896
  152.1628  134.8895  160.0549 H   0  0  0  0  0  0  0  0  0  0  0  0  # atno 6908 bound_to 6896
  151.9950  133.3770  159.4196 H   0  0  0  0  0  0  0  0  0  0  0  0  # atno 6909 bound_to 6896
  145.0464  139.3920  143.5076 H   0  0  0  0  0  0  0  0  0  0  0  0  # atno 7974 bound_to 7965
  156.1338  140.3191  155.8390 H   0  0  0  0  0  0  0  0  0  0  0  0  # atno 8008 bound_to 7997
  155.4282  140.0517  157.3037 H   0  0  0  0  0  0  0  0  0  0  0  0  # atno 8009 bound_to 7997
  154.4920  140.2096  155.9540 H   0  0  0  0  0  0  0  0  0  0  0  0  # atno 8010 bound_to 7997
  140.5508  143.9513  150.6577 H   0  0  0  0  0  0  0  0  0  0  0  0  # atno 10167 bound_to 10162
  157.4198  130.7963  149.7505 H   0  0  0  0  0  0  0  0  0  0  0  0  # atno 10718 bound_to 10713
  153.9707  135.2951  155.3427 H   0  0  0  0  0  0  0  0  0  0  0  0  # atno 10763 bound_to 10752
  154.7324  135.5062  153.8988 H   0  0  0  0  0  0  0  0  0  0  0  0  # atno 10764 bound_to 10752
  153.0901  135.6705  153.9983 H   0  0  0  0  0  0  0  0  0  0  0  0  # atno 10765 bound_to 10752
  140.0642  134.9188  157.1236 H   0  0  0  0  0  0  0  0  0  0  0  0  # atno 11005 bound_to 11000
  146.3514  140.0091  142.8669 LP  0  0  0  0  0  0  0  0  0  0  0  0  # atno 17320 bound_to 7965
  145.1583  140.9659  143.4392 LP  0  0  0  0  0  0  0  0  0  0  0  0  # atno 17321 bound_to 7965
  140.2938  143.3306  152.1037 LP  0  0  0  0  0  0  0  0  0  0  0  0  # atno 17342 bound_to 10162
  139.5026  144.6739  151.6176 LP  0  0  0  0  0  0  0  0  0  0  0  0  # atno 17343 bound_to 10162
  155.9877  130.3965  150.3153 LP  0  0  0  0  0  0  0  0  0  0  0  0  # atno 17370 bound_to 10713
  157.1299  131.0269  151.2973 LP  0  0  0  0  0  0  0  0  0  0  0  0  # atno 17371 bound_to 10713
  140.3724  134.2375  155.7177 LP  0  0  0  0  0  0  0  0  0  0  0  0  # atno 17394 bound_to 11000
  141.1986  133.8032  157.0576 LP  0  0  0  0  0  0  0  0  0  0  0  0  # atno 17395 bound_to 11000

$$$$
