AV-unprocessed.smi:231|AV-procd|sdf|1766|dock2
  -GOLD-   2262020303D 1   1.00000     0.00000
 Structure written by MMmdl.
 50 53  0  0  0  0  0  0  0  0  1 V2000
  147.4759  142.1534  154.0675 C   0  0  0  0  0  0  0  0  0  0  0  0
  146.8531  140.8190  153.6384 C   0  0  0  0  0  0  0  0  0  0  0  0
  147.3160  139.6822  154.4311 N   0  0  0  0  0  0  0  0  0  0  0  0
  146.7803  138.4761  154.1275 C   0  0  0  0  0  0  0  0  0  0  0  0
  146.5253  137.6265  155.1535 N   0  0  0  0  0  0  0  0  0  0  0  0
  146.0093  136.4185  154.9091 C   0  0  0  0  0  0  0  0  0  0  0  0
  145.6724  135.8765  153.7371 N   0  0  0  0  0  0  0  0  0  0  0  0
  145.9030  136.7397  152.7063 C   0  0  0  0  0  0  0  0  0  0  0  0
  146.4481  138.0503  152.8113 C   0  0  0  0  0  0  0  0  0  0  0  0
  146.5399  138.6250  151.5500 N   0  0  0  0  0  0  0  0  0  0  0  0
  146.0958  137.7002  150.7439 C   0  0  0  0  0  0  0  0  0  0  0  0
  145.6695  136.5436  151.3566 N   0  0  0  0  0  0  0  0  0  0  0  0
  145.1834  135.3571  150.7161 C   0  0  0  0  0  0  0  0  0  0  0  0
  143.9991  134.5664  151.2835 C   0  0  0  0  0  0  0  0  0  0  0  0
  144.6327  133.2625  150.7447 C   0  0  0  0  0  0  0  0  0  0  0  0
  144.5143  132.0146  151.6417 C   0  0  0  0  0  0  0  0  0  0  0  0
  145.3441  130.9543  151.2113 O   0  0  0  0  0  0  0  0  0  0  0  0
  144.1454  132.8600  149.3394 C   0  0  0  0  0  0  0  0  0  0  0  0
  142.9120  132.1722  149.3934 O   0  0  0  0  0  0  0  0  0  0  0  0
  145.9672  134.0433  150.7858 C   0  0  0  0  0  0  0  0  0  0  0  0
  148.4490  139.7973  155.3640 C   0  0  1  0  0  0  0  0  0  0  0  0
  148.1666  139.1596  156.7402 C   0  0  0  0  0  0  0  0  0  0  0  0
  148.9762  137.8552  156.7688 C   0  0  0  0  0  0  0  0  0  0  0  0
  149.9560  138.0185  155.7138 N   0  0  0  0  0  0  0  0  0  0  0  0
  149.7017  139.0505  154.9100 C   0  0  0  0  0  0  0  0  0  0  0  0
  150.3840  139.3848  153.9442 O   0  0  0  0  0  0  0  0  0  0  0  0
  147.1279  142.9625  153.4255 H   0  0  0  0  0  0  0  0  0  0  0  0
  148.5633  142.1262  154.0020 H   0  0  0  0  0  0  0  0  0  0  0  0
  147.2035  142.4100  155.0908 H   0  0  0  0  0  0  0  0  0  0  0  0
  145.7676  140.8795  153.7233 H   0  0  0  0  0  0  0  0  0  0  0  0
  147.0602  140.6472  152.5808 H   0  0  0  0  0  0  0  0  0  0  0  0
  145.8437  135.7969  155.7765 H   0  0  0  0  0  0  0  0  0  0  0  0
  146.0656  137.8412  149.6734 H   0  0  0  0  0  0  0  0  0  0  0  0
  144.9972  135.6368  149.6779 H   0  0  0  0  0  0  0  0  0  0  0  0
  143.9517  134.6154  152.3724 H   0  0  0  0  0  0  0  0  0  0  0  0
  143.0354  134.8234  150.8429 H   0  0  0  0  0  0  0  0  0  0  0  0
  144.7827  132.2510  152.6718 H   0  0  0  0  0  0  0  0  0  0  0  0
  143.4900  131.6411  151.6614 H   0  0  0  0  0  0  0  0  0  0  0  0
  145.3005  130.2605  151.8515 H   0  0  0  0  0  0  0  0  0  0  0  0
  144.0307  133.7348  148.6986 H   0  0  0  0  0  0  0  0  0  0  0  0
  144.8649  132.2110  148.8398 H   0  0  0  0  0  0  0  0  0  0  0  0
  142.2173  132.8074  149.4776 H   0  0  0  0  0  0  0  0  0  0  0  0
  146.6298  133.8718  149.9372 H   0  0  0  0  0  0  0  0  0  0  0  0
  146.5094  133.9355  151.7267 H   0  0  0  0  0  0  0  0  0  0  0  0
  148.6941  140.8527  155.4920 H   0  0  0  0  0  0  0  0  0  0  0  0
  148.5414  139.8250  157.5194 H   0  0  0  0  0  0  0  0  0  0  0  0
  147.1102  139.0018  156.9555 H   0  0  0  0  0  0  0  0  0  0  0  0
  149.4524  137.6849  157.7347 H   0  0  0  0  0  0  0  0  0  0  0  0
  148.3441  136.9967  156.5372 H   0  0  0  0  0  0  0  0  0  0  0  0
  150.7411  137.3936  155.5995 H   0  0  0  0  0  0  0  0  0  0  0  0
  1  2  1  0  0  0  0
  1 27  1  0  0  0  0
  1 28  1  0  0  0  0
  1 29  1  0  0  0  0
  2  3  1  0  0  0  0
  2 30  1  0  0  0  0
  2 31  1  0  0  0  0
  3  4  1  0  0  0  0
  3 21  1  0  0  0  0
  4  9  1  0  0  0  0
  4  5  2  0  0  0  0
  5  6  1  0  0  0  0
  6  7  2  0  0  0  0
  6 32  1  0  0  0  0
  7  8  1  0  0  0  0
  8 12  1  0  0  0  0
  8  9  2  0  0  0  0
  9 10  1  0  0  0  0
 10 11  2  0  0  0  0
 11 12  1  0  0  0  0
 11 33  1  0  0  0  0
 12 13  1  0  0  0  0
 13 20  1  0  0  0  0
 13 14  1  0  0  0  0
 13 34  1  0  0  0  0
 14 15  1  0  0  0  0
 14 35  1  0  0  0  0
 14 36  1  0  0  0  0
 15 16  1  0  0  0  0
 15 18  1  0  0  0  0
 15 20  1  0  0  0  0
 16 17  1  0  0  0  0
 16 37  1  0  0  0  0
 16 38  1  0  0  0  0
 17 39  1  0  0  0  0
 18 19  1  0  0  0  0
 18 40  1  0  0  0  0
 18 41  1  0  0  0  0
 19 42  1  0  0  0  0
 20 43  1  0  0  0  0
 20 44  1  0  0  0  0
 21 25  1  0  0  0  0
 21 22  1  0  0  0  0
 21 45  1  0  0  0  0
 22 23  1  0  0  0  0
 22 46  1  0  0  0  0
 22 47  1  0  0  0  0
 23 24  1  0  0  0  0
 23 48  1  0  0  0  0
 23 49  1  0  0  0  0
 24 25  1  0  0  0  0
 24 50  1  0  0  0  0
 25 26  2  0  0  0  0
M  END
> <s_m_source_file>
AV-unprocessed.smi

> <i_m_source_file_index>
231

> <i_lp_mmshare_version>
43012

> <i_f3d_flags>
0

> <s_epik_input>
Tz1DMVtOSF1bQ0gyXVtDSDJdW0NASF0xTihbQ0gyXVtDSDNdKWMobltjSF1uMiljKGMyMyluW2NIXW4zW0NIXShbQ0gyXTQpW0NIMl1DNChbQ0gyXVtPSF0pW0NIMl1bT0hd

> <s_epik_cmdline>
J2VwaWtfcHl0aG9uJywgJy1waCcsICc3LjAnLCAnLXRuJywgJzgnLCAnLW1hJywgJzIwMCcsICctbWV0YWxfYmluZGluZycsICctaW1hZScsICc8aW5maWxlLm1hZT4nLCAnLW9tYWUnLCAnPG91dGZpbGUubWFlPic=

> <r_lp_tautomer_probability>
1

> <r_epik_Ionization_Penalty>
0.000842899

> <r_epik_Ionization_Penalty_Charging>
0

> <r_epik_Ionization_Penalty_Neutral>
0.000842899

> <r_epik_State_Penalty>
0.000441286

> <r_epik_Charging_Adjusted_Penalty>
0.000441286

> <i_epik_Tot_Q>
0

> <i_epik_Tot_abs_Q>
0

> <r_epik_Metal_State_Penalty>
-0

> <b_epik_Metal_Only>
0

> <s_lp_Force_Field>
OPLS_2005

> <r_lp_Energy>
52.3391

> <b_lp_Chiralities_Consistent>
1

> <s_lp_Variant>
AV-unprocessed.smi:231-2

> <Gold.Version>
5.8.1

> <Gold.Id.Protein>
6NUR|6NUR_protein|mol2

> <Gold.PLP.Fitness>
42.1855

> <Gold.PLP.PLP>
-35.0622

> <Gold.PLP.part.hbond>
-3.6748

> <Gold.PLP.part.metal>
0.0000

> <Gold.PLP.part.buried>
-1.1944

> <Gold.PLP.part.nonpolar>
-31.5740

> <Gold.PLP.part.repulsive>
0.9289

> <Gold.PLP.ligand.clash>
0.0070

> <Gold.PLP.ligand.torsion>
1.3120

> <Gold.PLP.Chemscore.Hbond>
2.6975

> <Gold.PLP.Chemscore.CHOScore>
0.2254

> <Gold.PLP.Chemscore.Metal>
0.0000

> <Gold.Chemscore.Hbonds>
donor molecule, donor type, donor heavy atom, donor atom, acceptor molecule, acceptor atom, score
      L1  H    19    42       P1 10186  1.00
      P1  H  7989  7998       L1    26  1.00
      P1  H 10785 10796       L1    19  0.70
      L1  C    11    33       P1 10171  0.24

> <Gold.PLP.Chemscore.Internal.Correction>
0.9855

> <Gold.Rescore>
     Score         DG    S(hbond)    S(metal)    S(lipo)     H(rot)  DE(clash)    DE(int)     intcor
      6.12     -11.85       2.35        0.00      66.63       3.63       2.01       3.71       ----

> <Gold.Chemscore.Fitness>
6.1225

> <Gold.Chemscore.DG>
-11.8498

> <Gold.Chemscore.ZeroCoef>
-5.4800

> <Gold.Chemscore.Hbond>
2.3527

> <Gold.Chemscore.Metal>
0.0000

> <Gold.Chemscore.Lipo>
66.6259

> <Gold.Chemscore.Internal_Hbond>
0.0000

> <Gold.Chemscore.DEClash>
2.0135

> <Gold.Chemscore.DEInternal>
3.7138

> <Gold.Chemscore.Rot>
3.6264

> <Gold.Chemscore.Internal.Correction>
   9.000000E+99

> <Gold.Chemscore.Hbonds>
donor molecule, donor type, donor heavy atom, donor atom, acceptor molecule, acceptor atom, score
      L1  H    19    42       P1 10186  0.95
      P1  H  7989  7998       L1    26  0.95
      P1  H 10785 10796       L1    19  0.51

> <Gold.Chemscore.Hbond.Weighted>
-7.8581

> <Gold.Chemscore.Metal.Weighted>
-0.0000

> <Gold.Chemscore.Lipo.Weighted>
-7.7952

> <Gold.Chemscore.Internal_Hbond.Weighted>
0.0000

> <Gold.Chemscore.DEClash.Weighted>
2.0135

> <Gold.Chemscore.DEInternal.Weighted>
3.7138

> <Gold.Chemscore.Rot.Weighted>
9.2835

> <Gold.Chemscore.Internal.Correction.Weighted>
   9.000000E+99

> <Gold.Protein.RotatedTorsions>
[ 6907 6896 6895 6894 ] final   83.97 input  -60.11 | X-H torsion
[ 7974 7965 7964 7962 ] final   98.40 input  175.53 | X-H torsion
[ 8008 7997 7996 7995 ] final  -65.27 input   59.86 | X-H torsion
[ 10167 10162 10161 10158 ] final -122.56 input  -65.29 | X-H torsion
[ 10718 10713 10712 10709 ] final -143.64 input   66.30 | X-H torsion
[ 10763 10752 10751 10750 ] final  171.21 input  -60.55 | X-H torsion
[ 11005 11000 10999 10996 ] final  174.95 input  -57.11 | X-H torsion

> <Gold.Protein.ActiveResidues>
 VAL166  LYS551  ARG553  GLY616  TRP617  ASP618  TYR619  PRO620  LYS621  CYS622 
 ASP623  PHE694  ASN695  SER759  ASP760  ASP761  ALA762  ILE779  LEU786  VAL792 
 PHE793  MET794  SER795  GLU796  ALA797  LYS798  CYS799  TRP800  GLU811  SER814 

> <Gold.Protein.RotatedAtoms>
  152.5341  134.2812  159.9007 H   0  0  0  0  0  0  0  0  0  0  0  0  # atno 6907 bound_to 6896
  151.2767  133.4223  159.2632 H   0  0  0  0  0  0  0  0  0  0  0  0  # atno 6908 bound_to 6896
  151.0320  134.9561  159.8173 H   0  0  0  0  0  0  0  0  0  0  0  0  # atno 6909 bound_to 6896
  145.4127  139.2331  143.3239 H   0  0  0  0  0  0  0  0  0  0  0  0  # atno 7974 bound_to 7965
  154.4662  140.0936  156.7025 H   0  0  0  0  0  0  0  0  0  0  0  0  # atno 8008 bound_to 7997
  155.4853  140.3469  155.4328 H   0  0  0  0  0  0  0  0  0  0  0  0  # atno 8009 bound_to 7997
  156.0959  140.1409  156.9520 H   0  0  0  0  0  0  0  0  0  0  0  0  # atno 8010 bound_to 7997
  140.0129  143.5423  152.2255 H   0  0  0  0  0  0  0  0  0  0  0  0  # atno 10167 bound_to 10162
  156.3604  130.7735  151.1901 H   0  0  0  0  0  0  0  0  0  0  0  0  # atno 10718 bound_to 10713
  154.4087  135.2756  155.2050 H   0  0  0  0  0  0  0  0  0  0  0  0  # atno 10763 bound_to 10752
  154.4045  135.6036  153.5920 H   0  0  0  0  0  0  0  0  0  0  0  0  # atno 10764 bound_to 10752
  152.9831  135.5934  154.4366 H   0  0  0  0  0  0  0  0  0  0  0  0  # atno 10765 bound_to 10752
  140.3569  134.7146  157.4305 H   0  0  0  0  0  0  0  0  0  0  0  0  # atno 11005 bound_to 11000
  146.2697  140.4840  142.8819 LP  0  0  0  0  0  0  0  0  0  0  0  0  # atno 17320 bound_to 7965
  144.8298  140.6688  143.6298 LP  0  0  0  0  0  0  0  0  0  0  0  0  # atno 17321 bound_to 7965
  139.6192  144.7626  151.2777 LP  0  0  0  0  0  0  0  0  0  0  0  0  # atno 17342 bound_to 10162
  140.7374  143.6679  150.8107 LP  0  0  0  0  0  0  0  0  0  0  0  0  # atno 17343 bound_to 10162
  157.7472  131.0402  150.4585 LP  0  0  0  0  0  0  0  0  0  0  0  0  # atno 17370 bound_to 10713
  156.4795  130.4070  149.6470 LP  0  0  0  0  0  0  0  0  0  0  0  0  # atno 17371 bound_to 10713
  140.0658  134.5932  155.8697 LP  0  0  0  0  0  0  0  0  0  0  0  0  # atno 17394 bound_to 11000
  141.1995  133.6607  156.5850 LP  0  0  0  0  0  0  0  0  0  0  0  0  # atno 17395 bound_to 11000

$$$$
