AV-unprocessed.smi:3327|AV-procd|sdf|12789|dock9
  -GOLD-   2272019143D 1   1.00000     0.00000
 Structure written by MMmdl.
 40 41  0  0  0  0  0  0  0  0  1 V2000
  152.9926  143.7391  163.0860 C   0  0  0  0  0  0  0  0  0  0  0  0
  152.8600  142.6021  162.0631 C   0  0  2  0  0  0  0  0  0  0  0  0
  154.0322  141.6034  162.1713 C   0  0  0  0  0  0  0  0  0  0  0  0
  153.9750  140.5273  161.0709 C   0  0  0  0  0  0  0  0  0  0  0  0
  153.8101  141.1671  159.6811 C   0  0  0  0  0  0  0  0  0  0  0  0
  152.6083  142.0128  159.6921 N   0  0  0  0  0  0  0  0  0  0  0  0
  151.4456  141.7427  159.0488 C   0  0  0  0  0  0  0  0  0  0  0  0
  150.4387  142.4370  159.2030 O   0  0  0  0  0  0  0  0  0  0  0  0
  151.3713  140.5138  158.1191 C   0  0  0  0  0  0  0  0  0  0  0  0
  151.6054  140.7877  156.6912 N   0  0  0  0  0  0  0  0  0  0  0  0
  150.4224  141.2862  155.9958 C   0  0  0  0  0  0  0  0  0  0  0  0
  149.7924  140.1701  155.1454 C   0  0  0  0  0  0  0  0  0  0  0  0
  148.5043  140.5490  154.5919 N   0  0  0  0  0  0  0  0  0  0  0  0
  147.8719  141.7731  154.6523 C   0  0  0  0  0  0  0  0  0  0  0  0
  146.6852  141.6506  153.9881 C   0  0  0  0  0  0  0  0  0  0  0  0
  146.6812  140.2967  153.5505 C   0  0  0  0  0  0  0  0  0  0  0  0
  147.7725  139.6405  153.9110 N   0  0  0  0  0  0  0  0  0  0  0  0
  152.7540  143.1421  160.6210 C   0  0  0  0  0  0  0  0  0  0  0  0
  153.8932  144.3285  162.9101 H   0  0  0  0  0  0  0  0  0  0  0  0
  153.0433  143.3486  164.1028 H   0  0  0  0  0  0  0  0  0  0  0  0
  152.1379  144.4139  163.0348 H   0  0  0  0  0  0  0  0  0  0  0  0
  151.9377  142.0641  162.2879 H   0  0  0  0  0  0  0  0  0  0  0  0
  154.9758  142.1442  162.0867 H   0  0  0  0  0  0  0  0  0  0  0  0
  154.0361  141.1300  163.1536 H   0  0  0  0  0  0  0  0  0  0  0  0
  154.8783  139.9172  161.0994 H   0  0  0  0  0  0  0  0  0  0  0  0
  153.1392  139.8526  161.2618 H   0  0  0  0  0  0  0  0  0  0  0  0
  154.6798  141.7833  159.4485 H   0  0  0  0  0  0  0  0  0  0  0  0
  153.7974  140.3857  158.9240 H   0  0  0  0  0  0  0  0  0  0  0  0
  152.0861  139.7574  158.4450 H   0  0  0  0  0  0  0  0  0  0  0  0
  150.3774  140.0774  158.2209 H   0  0  0  0  0  0  0  0  0  0  0  0
  151.9793  139.9799  156.2137 H   0  0  0  0  0  0  0  0  0  0  0  0
  149.6823  141.6425  156.7116 H   0  0  0  0  0  0  0  0  0  0  0  0
  150.6881  142.1357  155.3649 H   0  0  0  0  0  0  0  0  0  0  0  0
  150.4583  139.8844  154.3299 H   0  0  0  0  0  0  0  0  0  0  0  0
  149.6498  139.2773  155.7557 H   0  0  0  0  0  0  0  0  0  0  0  0
  148.3136  142.6188  155.1582 H   0  0  0  0  0  0  0  0  0  0  0  0
  145.9342  142.4116  153.8380 H   0  0  0  0  0  0  0  0  0  0  0  0
  145.9239  139.7755  152.9838 H   0  0  0  0  0  0  0  0  0  0  0  0
  151.9306  143.8541  160.5474 H   0  0  0  0  0  0  0  0  0  0  0  0
  153.6516  143.7061  160.3619 H   0  0  0  0  0  0  0  0  0  0  0  0
  1  2  1  0  0  0  0
  1 19  1  0  0  0  0
  1 20  1  0  0  0  0
  1 21  1  0  0  0  0
  2 18  1  0  0  0  0
  2  3  1  0  0  0  0
  2 22  1  0  0  0  0
  3  4  1  0  0  0  0
  3 23  1  0  0  0  0
  3 24  1  0  0  0  0
  4  5  1  0  0  0  0
  4 25  1  0  0  0  0
  4 26  1  0  0  0  0
  5  6  1  0  0  0  0
  5 27  1  0  0  0  0
  5 28  1  0  0  0  0
  6  7  1  0  0  0  0
  6 18  1  0  0  0  0
  7  8  2  0  0  0  0
  7  9  1  0  0  0  0
  9 10  1  0  0  0  0
  9 29  1  0  0  0  0
  9 30  1  0  0  0  0
 10 11  1  0  0  0  0
 10 31  1  0  0  0  0
 11 12  1  0  0  0  0
 11 32  1  0  0  0  0
 11 33  1  0  0  0  0
 12 13  1  0  0  0  0
 12 34  1  0  0  0  0
 12 35  1  0  0  0  0
 13 17  1  0  0  0  0
 13 14  1  0  0  0  0
 14 15  2  0  0  0  0
 14 36  1  0  0  0  0
 15 16  1  0  0  0  0
 15 37  1  0  0  0  0
 16 17  2  0  0  0  0
 16 38  1  0  0  0  0
 18 39  1  0  0  0  0
 18 40  1  0  0  0  0
M  END
> <s_m_source_file>
AV-unprocessed.smi

> <i_m_source_file_index>
3327

> <i_lp_mmshare_version>
43012

> <i_f3d_flags>
0

> <s_epik_input>
W0NIM11bQ0BASF0xW0NIMl1bQ0gyXVtDSDJdTihbQ0gyXTEpQyg9TylbQ0gyXVtOSF1bQ0gyXVtDSDJdbjJbY0hdW2NIXVtjSF1uMg==

> <s_epik_cmdline>
J2VwaWtfcHl0aG9uJywgJy1waCcsICc3LjAnLCAnLXRuJywgJzgnLCAnLW1hJywgJzIwMCcsICctbWV0YWxfYmluZGluZycsICctaW1hZScsICc8aW5maWxlLm1hZT4nLCAnLW9tYWUnLCAnPG91dGZpbGUubWFlPic=

> <r_lp_tautomer_probability>
1

> <r_epik_Ionization_Penalty>
0.752964

> <r_epik_Ionization_Penalty_Charging>
0

> <r_epik_Ionization_Penalty_Neutral>
0.752964

> <r_epik_State_Penalty>
0.778238

> <r_epik_Charging_Adjusted_Penalty>
0.778238

> <i_epik_Tot_Q>
0

> <i_epik_Tot_abs_Q>
0

> <r_epik_Metal_State_Penalty>
0.776974

> <b_epik_Metal_Only>
0

> <s_lp_Force_Field>
OPLS_2005

> <r_lp_Energy>
27.1089

> <b_lp_Chiralities_Consistent>
1

> <s_lp_Variant>
AV-unprocessed.smi:3327-3

> <Gold.Version>
5.8.1

> <Gold.Id.Protein>
6NUR|6NUR_protein|mol2

> <Gold.PLP.Fitness>
47.9754

> <Gold.PLP.PLP>
-43.5983

> <Gold.PLP.part.hbond>
-0.7713

> <Gold.PLP.part.metal>
0.0000

> <Gold.PLP.part.buried>
-1.5630

> <Gold.PLP.part.nonpolar>
-40.9742

> <Gold.PLP.part.repulsive>
0.7904

> <Gold.PLP.ligand.clash>
0.0000

> <Gold.PLP.ligand.torsion>
0.8258

> <Gold.PLP.Chemscore.Hbond>
0.0000

> <Gold.PLP.Chemscore.CHOScore>
2.0000

> <Gold.PLP.Chemscore.Metal>
0.0000

> <Gold.Chemscore.Hbonds>
donor molecule, donor type, donor heavy atom, donor atom, acceptor molecule, acceptor atom, score
      L1  C    14    36       P1  8028  1.00
      L1  C    16    38       P1 10175  0.97

> <Gold.PLP.Chemscore.Internal.Correction>
0.0288

> <Gold.Rescore>
     Score         DG    S(hbond)    S(metal)    S(lipo)     H(rot)  DE(clash)    DE(int)     intcor
     12.39     -13.53       0.00        0.00     106.67       1.73       0.31       0.83       ----

> <Gold.Chemscore.Fitness>
12.3934

> <Gold.Chemscore.DG>
-13.5324

> <Gold.Chemscore.ZeroCoef>
-5.4800

> <Gold.Chemscore.Hbond>
0.0000

> <Gold.Chemscore.Metal>
0.0000

> <Gold.Chemscore.Lipo>
106.6685

> <Gold.Chemscore.Internal_Hbond>
0.0000

> <Gold.Chemscore.DEClash>
0.3055

> <Gold.Chemscore.DEInternal>
0.8335

> <Gold.Chemscore.Rot>
1.7296

> <Gold.Chemscore.Internal.Correction>
   9.000000E+99

> <Gold.Chemscore.Hbond.Weighted>
-0.0000

> <Gold.Chemscore.Metal.Weighted>
-0.0000

> <Gold.Chemscore.Lipo.Weighted>
-12.4802

> <Gold.Chemscore.Internal_Hbond.Weighted>
0.0000

> <Gold.Chemscore.DEClash.Weighted>
0.3055

> <Gold.Chemscore.DEInternal.Weighted>
0.8335

> <Gold.Chemscore.Rot.Weighted>
4.4278

> <Gold.Chemscore.Internal.Correction.Weighted>
   9.000000E+99

> <Gold.Protein.RotatedTorsions>
[ 6907 6896 6895 6894 ] final   66.40 input  -60.11 | X-H torsion
[ 7974 7965 7964 7962 ] final   47.78 input  175.53 | X-H torsion
[ 8008 7997 7996 7995 ] final  -70.47 input   59.86 | X-H torsion
[ 10167 10162 10161 10158 ] final -178.06 input  -65.29 | X-H torsion
[ 10718 10713 10712 10709 ] final  -78.03 input   66.30 | X-H torsion
[ 10763 10752 10751 10750 ] final -111.02 input  -60.55 | X-H torsion
[ 11005 11000 10999 10996 ] final -139.10 input  -57.11 | X-H torsion

> <Gold.Protein.ActiveResidues>
 VAL166  LYS551  ARG553  GLY616  TRP617  ASP618  TYR619  PRO620  LYS621  CYS622 
 ASP623  PHE694  ASN695  SER759  ASP760  ASP761  ALA762  ILE779  LEU786  VAL792 
 PHE793  MET794  SER795  GLU796  ALA797  LYS798  CYS799  TRP800  GLU811  SER814 

> <Gold.Protein.RotatedAtoms>
  152.4478  134.5458  159.9852 H   0  0  0  0  0  0  0  0  0  0  0  0  # atno 6907 bound_to 6896
  151.5538  133.3407  159.2966 H   0  0  0  0  0  0  0  0  0  0  0  0  # atno 6908 bound_to 6896
  150.8399  134.7719  159.6987 H   0  0  0  0  0  0  0  0  0  0  0  0  # atno 6909 bound_to 6896
  146.0265  139.4713  142.9864 H   0  0  0  0  0  0  0  0  0  0  0  0  # atno 7974 bound_to 7965
  154.5014  140.0834  156.7806 H   0  0  0  0  0  0  0  0  0  0  0  0  # atno 8008 bound_to 7997
  155.3993  140.3436  155.4238 H   0  0  0  0  0  0  0  0  0  0  0  0  # atno 8009 bound_to 7997
  156.1462  140.1544  156.8831 H   0  0  0  0  0  0  0  0  0  0  0  0  # atno 8010 bound_to 7997
  139.5450  144.2259  152.0971 H   0  0  0  0  0  0  0  0  0  0  0  0  # atno 10167 bound_to 10162
  156.0128  130.4507  150.3435 H   0  0  0  0  0  0  0  0  0  0  0  0  # atno 10718 bound_to 10713
  154.8279  135.4542  154.0975 H   0  0  0  0  0  0  0  0  0  0  0  0  # atno 10763 bound_to 10752
  153.2274  135.6901  153.7936 H   0  0  0  0  0  0  0  0  0  0  0  0  # atno 10764 bound_to 10752
  153.7331  135.3324  155.3266 H   0  0  0  0  0  0  0  0  0  0  0  0  # atno 10765 bound_to 10752
  140.8552  134.2237  157.4738 H   0  0  0  0  0  0  0  0  0  0  0  0  # atno 11005 bound_to 11000
  145.7109  141.0106  143.1454 LP  0  0  0  0  0  0  0  0  0  0  0  0  # atno 17320 bound_to 7965
  144.7012  139.8756  143.7443 LP  0  0  0  0  0  0  0  0  0  0  0  0  # atno 17321 bound_to 7965
  140.1744  144.4905  150.6562 LP  0  0  0  0  0  0  0  0  0  0  0  0  # atno 17342 bound_to 10162
  140.6695  143.2280  151.5660 LP  0  0  0  0  0  0  0  0  0  0  0  0  # atno 17343 bound_to 10162
  157.1530  131.0325  151.2876 LP  0  0  0  0  0  0  0  0  0  0  0  0  # atno 17370 bound_to 10713
  157.4376  130.7526  149.7042 LP  0  0  0  0  0  0  0  0  0  0  0  0  # atno 17371 bound_to 10713
  139.8705  134.9703  156.4695 LP  0  0  0  0  0  0  0  0  0  0  0  0  # atno 17394 bound_to 11000
  140.8745  133.7963  155.9400 LP  0  0  0  0  0  0  0  0  0  0  0  0  # atno 17395 bound_to 11000

$$$$
