AV-unprocessed.smi:2313|AV-procd|sdf|9265|dock3
  -GOLD-   2272012493D 1   1.00000     0.00000
 Structure written by MMmdl.
 37 38  0  0  0  0  0  0  0  0  1 V2000
  152.4665  143.6614  161.5438 C   0  0  0  0  0  0  0  0  0  0  0  0
  152.1367  143.0454  160.1969 C   0  0  0  0  0  0  0  0  0  0  0  0
  151.3052  143.7646  159.2542 C   0  0  0  0  0  0  0  0  0  0  0  0
  151.0208  143.2050  158.0688 C   0  0  0  0  0  0  0  0  0  0  0  0
  151.5083  141.9361  157.7097 N   0  0  0  0  0  0  0  0  0  0  0  0
  151.1249  141.4158  156.3866 C   0  0  0  0  0  0  0  0  0  0  0  0
  149.6732  140.9214  156.3486 C   0  0  0  0  0  0  0  0  0  0  0  0
  149.3941  139.7906  156.7463 O   0  0  0  0  0  0  0  0  0  0  0  0
  148.7700  141.7896  155.8623 N   0  0  0  0  0  0  0  0  0  0  0  0
  147.3314  141.5862  155.6492 C   0  0  2  0  0  0  0  0  0  0  0  0
  146.7342  141.2890  157.0345 C   0  0  0  0  0  0  0  0  0  0  0  0
  147.0635  140.4189  154.7860 C   0  0  0  0  0  0  0  0  0  0  0  0
  146.8560  139.5024  154.1104 N   0  0  0  0  0  0  0  0  0  0  0  0
  146.5920  142.7851  155.0492 C   0  0  0  0  0  0  0  0  0  0  0  0
  145.1792  142.7299  154.5083 C   0  0  0  0  0  0  0  0  0  0  0  0
  146.3442  142.9207  153.5632 C   0  0  0  0  0  0  0  0  0  0  0  0
  152.2996  141.2007  158.5483 C   0  0  0  0  0  0  0  0  0  0  0  0
  152.7248  140.0891  158.2270 O   0  0  0  0  0  0  0  0  0  0  0  0
  152.6023  141.8225  159.8471 C   0  0  0  0  0  0  0  0  0  0  0  0
  153.4223  141.0508  160.7243 C   0  0  0  0  0  0  0  0  0  0  0  0
  154.1021  140.4384  161.4334 N   0  0  0  0  0  0  0  0  0  0  0  0
  152.0112  144.6466  161.6493 H   0  0  0  0  0  0  0  0  0  0  0  0
  153.5449  143.7740  161.6582 H   0  0  0  0  0  0  0  0  0  0  0  0
  152.0973  143.0300  162.3524 H   0  0  0  0  0  0  0  0  0  0  0  0
  150.9112  144.7397  159.5005 H   0  0  0  0  0  0  0  0  0  0  0  0
  150.4001  143.6882  157.3283 H   0  0  0  0  0  0  0  0  0  0  0  0
  151.2421  142.1793  155.6167 H   0  0  0  0  0  0  0  0  0  0  0  0
  151.8025  140.6098  156.0976 H   0  0  0  0  0  0  0  0  0  0  0  0
  149.1240  142.6907  155.5758 H   0  0  0  0  0  0  0  0  0  0  0  0
  145.6633  141.0927  156.9708 H   0  0  0  0  0  0  0  0  0  0  0  0
  146.8742  142.1283  157.7171 H   0  0  0  0  0  0  0  0  0  0  0  0
  147.1985  140.4121  157.4879 H   0  0  0  0  0  0  0  0  0  0  0  0
  146.8328  143.7146  155.5624 H   0  0  0  0  0  0  0  0  0  0  0  0
  144.6603  141.7767  154.4654 H   0  0  0  0  0  0  0  0  0  0  0  0
  144.5407  143.5908  154.6943 H   0  0  0  0  0  0  0  0  0  0  0  0
  146.4772  143.9063  153.1216 H   0  0  0  0  0  0  0  0  0  0  0  0
  146.6028  142.0849  152.9163 H   0  0  0  0  0  0  0  0  0  0  0  0
  1  2  1  0  0  0  0
  1 22  1  0  0  0  0
  1 23  1  0  0  0  0
  1 24  1  0  0  0  0
  2 19  2  0  0  0  0
  2  3  1  0  0  0  0
  3  4  2  0  0  0  0
  3 25  1  0  0  0  0
  4  5  1  0  0  0  0
  4 26  1  0  0  0  0
  5  6  1  0  0  0  0
  5 17  1  0  0  0  0
  6  7  1  0  0  0  0
  6 27  1  0  0  0  0
  6 28  1  0  0  0  0
  7  8  2  0  0  0  0
  7  9  1  0  0  0  0
  9 10  1  0  0  0  0
  9 29  1  0  0  0  0
 10 11  1  0  0  0  0
 10 12  1  0  0  0  0
 10 14  1  0  0  0  0
 11 30  1  0  0  0  0
 11 31  1  0  0  0  0
 11 32  1  0  0  0  0
 12 13  3  0  0  0  0
 14 16  1  0  0  0  0
 14 15  1  0  0  0  0
 14 33  1  0  0  0  0
 15 16  1  0  0  0  0
 15 34  1  0  0  0  0
 15 35  1  0  0  0  0
 16 36  1  0  0  0  0
 16 37  1  0  0  0  0
 17 18  2  0  0  0  0
 17 19  1  0  0  0  0
 19 20  1  0  0  0  0
 20 21  3  0  0  0  0
M  END
> <s_m_source_file>
AV-unprocessed.smi

> <i_m_source_file_index>
2313

> <i_lp_mmshare_version>
43012

> <i_f3d_flags>
0

> <s_epik_input>
W0NIM11jMVtjSF1bY0hdbihjKD1PKWMxQyNOKVtDSDJdQyg9TylbTkhdW0NAQF0oW0NIM10pKEMjTilbQ0hdMltDSDJdW0NIMl0y

> <s_epik_cmdline>
J2VwaWtfcHl0aG9uJywgJy1waCcsICc3LjAnLCAnLXRuJywgJzgnLCAnLW1hJywgJzIwMCcsICctbWV0YWxfYmluZGluZycsICctaW1hZScsICc8aW5maWxlLm1hZT4nLCAnLW9tYWUnLCAnPG91dGZpbGUubWFlPic=

> <r_lp_tautomer_probability>
1

> <r_epik_Ionization_Penalty>
4.65501e-07

> <r_epik_Ionization_Penalty_Charging>
2.39086e-10

> <r_epik_Ionization_Penalty_Neutral>
4.65262e-07

> <r_epik_State_Penalty>
-0

> <r_epik_Charging_Adjusted_Penalty>
2.39086e-10

> <i_epik_Tot_Q>
0

> <i_epik_Tot_abs_Q>
0

> <r_epik_Metal_State_Penalty>
-0

> <b_epik_Metal_Only>
0

> <s_lp_Force_Field>
OPLS_2005

> <r_lp_Energy>
23.1169

> <b_lp_Chiralities_Consistent>
1

> <s_lp_Variant>
AV-unprocessed.smi:2313-2

> <Gold.Version>
5.8.1

> <Gold.Id.Protein>
6NUR|6NUR_protein|mol2

> <Gold.PLP.Fitness>
47.0755

> <Gold.PLP.PLP>
-39.2431

> <Gold.PLP.part.hbond>
-2.0000

> <Gold.PLP.part.metal>
0.0000

> <Gold.PLP.part.buried>
-5.5622

> <Gold.PLP.part.nonpolar>
-31.4711

> <Gold.PLP.part.repulsive>
0.2200

> <Gold.PLP.ligand.clash>
0.0000

> <Gold.PLP.ligand.torsion>
1.3194

> <Gold.PLP.Chemscore.Hbond>
1.9920

> <Gold.PLP.Chemscore.CHOScore>
1.0000

> <Gold.PLP.Chemscore.Metal>
0.0000

> <Gold.Chemscore.Hbonds>
donor molecule, donor type, donor heavy atom, donor atom, acceptor molecule, acceptor atom, score
      L1  H     9    29       P1  8028  0.90
      P1  H  7997  8008       L1    18  0.54
      L1  C     4    26       P1  8028  1.00

> <Gold.PLP.Chemscore.Internal.Correction>
1.4951

> <Gold.Rescore>
     Score         DG    S(hbond)    S(metal)    S(lipo)     H(rot)  DE(clash)    DE(int)     intcor
     14.62     -16.63       1.92        0.00      79.70       1.80       0.02       1.99       ----

> <Gold.Chemscore.Fitness>
14.6229

> <Gold.Chemscore.DG>
-16.6303

> <Gold.Chemscore.ZeroCoef>
-5.4800

> <Gold.Chemscore.Hbond>
1.9227

> <Gold.Chemscore.Metal>
0.0000

> <Gold.Chemscore.Lipo>
79.7020

> <Gold.Chemscore.Internal_Hbond>
0.0000

> <Gold.Chemscore.DEClash>
0.0174

> <Gold.Chemscore.DEInternal>
1.9900

> <Gold.Chemscore.Rot>
1.7955

> <Gold.Chemscore.Internal.Correction>
   9.000000E+99

> <Gold.Chemscore.Hbonds>
donor molecule, donor type, donor heavy atom, donor atom, acceptor molecule, acceptor atom, score
      L1  H     9    29       P1  8028  0.82
      P1  H  7997  8008       L1    18  0.48

> <Gold.Chemscore.Hbond.Weighted>
-6.4217

> <Gold.Chemscore.Metal.Weighted>
-0.0000

> <Gold.Chemscore.Lipo.Weighted>
-9.3251

> <Gold.Chemscore.Internal_Hbond.Weighted>
0.0000

> <Gold.Chemscore.DEClash.Weighted>
0.0174

> <Gold.Chemscore.DEInternal.Weighted>
1.9900

> <Gold.Chemscore.Rot.Weighted>
4.5965

> <Gold.Chemscore.Internal.Correction.Weighted>
   9.000000E+99

> <Gold.Protein.RotatedTorsions>
[ 6907 6896 6895 6894 ] final -147.26 input  -60.11 | X-H torsion
[ 7974 7965 7964 7962 ] final  -41.48 input  175.53 | X-H torsion
[ 8008 7997 7996 7995 ] final  -72.47 input   59.86 | X-H torsion
[ 10167 10162 10161 10158 ] final  -16.80 input  -65.29 | X-H torsion
[ 10718 10713 10712 10709 ] final   39.72 input   66.30 | X-H torsion
[ 10763 10752 10751 10750 ] final -107.46 input  -60.55 | X-H torsion
[ 11005 11000 10999 10996 ] final  108.81 input  -57.11 | X-H torsion

> <Gold.Protein.ActiveResidues>
 VAL166  LYS551  ARG553  GLY616  TRP617  ASP618  TYR619  PRO620  LYS621  CYS622 
 ASP623  PHE694  ASN695  SER759  ASP760  ASP761  ALA762  ILE779  LEU786  VAL792 
 PHE793  MET794  SER795  GLU796  ALA797  LYS798  CYS799  TRP800  GLU811  SER814 

> <Gold.Protein.RotatedAtoms>
  151.1532  133.4893  159.2594 H   0  0  0  0  0  0  0  0  0  0  0  0  # atno 6907 bound_to 6896
  151.1532  135.0237  159.8687 H   0  0  0  0  0  0  0  0  0  0  0  0  # atno 6908 bound_to 6896
  152.5463  134.1414  159.8533 H   0  0  0  0  0  0  0  0  0  0  0  0  # atno 6909 bound_to 6896
  146.0206  140.6854  142.9180 H   0  0  0  0  0  0  0  0  0  0  0  0  # atno 7974 bound_to 7965
  154.5169  140.0796  156.8097 H   0  0  0  0  0  0  0  0  0  0  0  0  # atno 8008 bound_to 7997
  155.3661  140.3420  155.4224 H   0  0  0  0  0  0  0  0  0  0  0  0  # atno 8009 bound_to 7997
  156.1637  140.1597  156.8555 H   0  0  0  0  0  0  0  0  0  0  0  0  # atno 8010 bound_to 7997
  140.7239  143.5079  150.9786 H   0  0  0  0  0  0  0  0  0  0  0  0  # atno 10167 bound_to 10162
  157.3739  130.7716  149.7140 H   0  0  0  0  0  0  0  0  0  0  0  0  # atno 10718 bound_to 10713
  154.8076  135.4674  154.0433 H   0  0  0  0  0  0  0  0  0  0  0  0  # atno 10763 bound_to 10752
  153.1889  135.6852  153.8385 H   0  0  0  0  0  0  0  0  0  0  0  0  # atno 10764 bound_to 10752
  153.7910  135.3243  155.3356 H   0  0  0  0  0  0  0  0  0  0  0  0  # atno 10765 bound_to 10752
  139.8851  134.9441  156.6030 H   0  0  0  0  0  0  0  0  0  0  0  0  # atno 11005 bound_to 11000
  144.6988  140.3560  143.7173 LP  0  0  0  0  0  0  0  0  0  0  0  0  # atno 17320 bound_to 7965
  145.7198  139.1707  143.2491 LP  0  0  0  0  0  0  0  0  0  0  0  0  # atno 17321 bound_to 7965
  139.8792  143.7094  152.3159 LP  0  0  0  0  0  0  0  0  0  0  0  0  # atno 17342 bound_to 10162
  139.7370  144.7569  151.0712 LP  0  0  0  0  0  0  0  0  0  0  0  0  # atno 17343 bound_to 10162
  155.9761  130.4080  150.3802 LP  0  0  0  0  0  0  0  0  0  0  0  0  # atno 17370 bound_to 10713
  157.1896  131.0412  151.2707 LP  0  0  0  0  0  0  0  0  0  0  0  0  # atno 17371 bound_to 10713
  140.7869  133.8614  155.8614 LP  0  0  0  0  0  0  0  0  0  0  0  0  # atno 17394 bound_to 11000
  140.9711  134.1530  157.4575 LP  0  0  0  0  0  0  0  0  0  0  0  0  # atno 17395 bound_to 11000

$$$$
