AV-unprocessed.smi:341|AV-procd|sdf|2383|dock4
  -GOLD-   2262022303D 1   1.00000     0.00000
 Structure written by MMmdl.
 44 46  0  0  0  0  0  0  0  0  1 V2000
  153.8937  141.2180  161.3394 C   0  0  0  0  0  0  0  0  0  0  0  0
  153.7902  140.8445  159.8553 C   0  0  0  0  0  0  0  0  0  0  0  0
  152.6289  141.4741  159.2318 N   0  0  0  0  0  0  0  0  0  0  0  0
  151.7593  140.8926  158.3724 C   0  0  0  0  0  0  0  0  0  0  0  0
  151.7952  139.7244  157.9865 O   0  0  0  0  0  0  0  0  0  0  0  0
  150.8433  141.8210  158.0083 N   0  0  0  0  0  0  0  0  0  0  0  0
  149.7174  141.6223  157.0961 C   0  0  0  0  0  0  0  0  0  0  0  0
  150.1889  141.2021  155.6890 C   0  0  1  0  0  0  0  0  0  0  0  0
  150.5464  139.8351  155.7431 O   0  0  0  0  0  0  0  0  0  0  0  0
  149.0678  141.3387  154.6451 C   0  0  0  0  0  0  0  0  0  0  0  0
  147.8126  141.2646  155.3086 O   0  0  0  0  0  0  0  0  0  0  0  0
  146.8592  142.2152  155.0132 C   0  0  0  0  0  0  0  0  0  0  0  0
  146.8876  142.7671  153.7159 C   0  0  0  0  0  0  0  0  0  0  0  0
  145.9521  143.7447  153.3261 C   0  0  0  0  0  0  0  0  0  0  0  0
  144.9713  144.1840  154.2366 C   0  0  0  0  0  0  0  0  0  0  0  0
  144.0043  145.1930  153.8377 C   0  0  0  0  0  0  0  0  0  0  0  0
  143.2344  145.9961  153.5200 N   0  0  0  0  0  0  0  0  0  0  0  0
  144.9319  143.6406  155.5358 C   0  0  0  0  0  0  0  0  0  0  0  0
  145.8687  142.6627  155.9239 C   0  0  0  0  0  0  0  0  0  0  0  0
  151.1373  143.0324  158.6508 C   0  0  0  0  0  0  0  0  0  0  0  0
  150.4970  144.2834  158.6072 C   0  0  0  0  0  0  0  0  0  0  0  0
  151.0557  145.3238  159.3859 C   0  0  0  0  0  0  0  0  0  0  0  0
  152.2151  145.1004  160.1731 C   0  0  0  0  0  0  0  0  0  0  0  0
  152.8393  143.8312  160.1996 C   0  0  0  0  0  0  0  0  0  0  0  0
  152.2621  142.8146  159.4189 C   0  0  0  0  0  0  0  0  0  0  0  0
  154.7629  140.7469  161.7984 H   0  0  0  0  0  0  0  0  0  0  0  0
  153.0104  140.8934  161.8904 H   0  0  0  0  0  0  0  0  0  0  0  0
  153.9930  142.2962  161.4693 H   0  0  0  0  0  0  0  0  0  0  0  0
  154.7005  141.1443  159.3338 H   0  0  0  0  0  0  0  0  0  0  0  0
  153.7226  139.7618  159.7458 H   0  0  0  0  0  0  0  0  0  0  0  0
  149.0049  140.9042  157.5039 H   0  0  0  0  0  0  0  0  0  0  0  0
  149.1747  142.5669  157.0347 H   0  0  0  0  0  0  0  0  0  0  0  0
  151.0470  141.8027  155.3838 H   0  0  0  0  0  0  0  0  0  0  0  0
  150.5633  139.5653  156.6485 H   0  0  0  0  0  0  0  0  0  0  0  0
  149.1739  142.2672  154.0806 H   0  0  0  0  0  0  0  0  0  0  0  0
  149.1264  140.5101  153.9376 H   0  0  0  0  0  0  0  0  0  0  0  0
  147.6358  142.4362  153.0105 H   0  0  0  0  0  0  0  0  0  0  0  0
  145.9930  144.1532  152.3264 H   0  0  0  0  0  0  0  0  0  0  0  0
  144.1836  143.9700  156.2425 H   0  0  0  0  0  0  0  0  0  0  0  0
  145.8056  142.2714  156.9277 H   0  0  0  0  0  0  0  0  0  0  0  0
  149.6149  144.4490  158.0067 H   0  0  0  0  0  0  0  0  0  0  0  0
  150.5943  146.3001  159.3801 H   0  0  0  0  0  0  0  0  0  0  0  0
  152.6261  145.9088  160.7592 H   0  0  0  0  0  0  0  0  0  0  0  0
  153.7223  143.6559  160.7960 H   0  0  0  0  0  0  0  0  0  0  0  0
  1  2  1  0  0  0  0
  1 26  1  0  0  0  0
  1 27  1  0  0  0  0
  1 28  1  0  0  0  0
  2  3  1  0  0  0  0
  2 29  1  0  0  0  0
  2 30  1  0  0  0  0
  3 25  1  0  0  0  0
  3  4  1  0  0  0  0
  4  5  2  0  0  0  0
  4  6  1  0  0  0  0
  6  7  1  0  0  0  0
  6 20  1  0  0  0  0
  7  8  1  0  0  0  0
  7 31  1  0  0  0  0
  7 32  1  0  0  0  0
  8  9  1  0  0  0  0
  8 10  1  0  0  0  0
  8 33  1  0  0  0  0
  9 34  1  0  0  0  0
 10 11  1  0  0  0  0
 10 35  1  0  0  0  0
 10 36  1  0  0  0  0
 11 12  1  0  0  0  0
 12 19  1  0  0  0  0
 12 13  2  0  0  0  0
 13 14  1  0  0  0  0
 13 37  1  0  0  0  0
 14 15  2  0  0  0  0
 14 38  1  0  0  0  0
 15 16  1  0  0  0  0
 15 18  1  0  0  0  0
 16 17  3  0  0  0  0
 18 19  2  0  0  0  0
 18 39  1  0  0  0  0
 19 40  1  0  0  0  0
 20 25  2  0  0  0  0
 20 21  1  0  0  0  0
 21 22  2  0  0  0  0
 21 41  1  0  0  0  0
 22 23  1  0  0  0  0
 22 42  1  0  0  0  0
 23 24  2  0  0  0  0
 23 43  1  0  0  0  0
 24 25  1  0  0  0  0
 24 44  1  0  0  0  0
M  END
> <s_m_source_file>
AV-unprocessed.smi

> <i_m_source_file_index>
341

> <i_lp_mmshare_version>
43012

> <i_f3d_flags>
0

> <s_epik_input>
W2NIXTFbY0hdW2NIXVtjSF1jKGMxMiluKFtDSDJdW0NIM10pYyg9TyluMltDSDJdW0NASF0oW09IXSlbQ0gyXU9jM1tjSF1bY0hdYyhDI04pW2NIXVtjSF0z

> <s_epik_cmdline>
J2VwaWtfcHl0aG9uJywgJy1waCcsICc3LjAnLCAnLXRuJywgJzgnLCAnLW1hJywgJzIwMCcsICctbWV0YWxfYmluZGluZycsICctaW1hZScsICc8aW5maWxlLm1hZT4nLCAnLW9tYWUnLCAnPG91dGZpbGUubWFlPic=

> <r_lp_tautomer_probability>
1

> <r_epik_Ionization_Penalty>
2.40146e-06

> <r_epik_Ionization_Penalty_Charging>
2.16099e-09

> <r_epik_Ionization_Penalty_Neutral>
2.3993e-06

> <r_epik_State_Penalty>
-0

> <r_epik_Charging_Adjusted_Penalty>
2.16099e-09

> <i_epik_Tot_Q>
0

> <i_epik_Tot_abs_Q>
0

> <r_epik_Metal_State_Penalty>
-0

> <b_epik_Metal_Only>
0

> <s_lp_Force_Field>
OPLS_2005

> <r_lp_Energy>
47.9836

> <b_lp_Chiralities_Consistent>
1

> <s_lp_Variant>
AV-unprocessed.smi:341-2

> <Gold.Version>
5.8.1

> <Gold.Id.Protein>
6NUR|6NUR_protein|mol2

> <Gold.PLP.Fitness>
53.4417

> <Gold.PLP.PLP>
-56.3611

> <Gold.PLP.part.hbond>
-1.0000

> <Gold.PLP.part.metal>
0.0000

> <Gold.PLP.part.buried>
-9.9745

> <Gold.PLP.part.nonpolar>
-45.6356

> <Gold.PLP.part.repulsive>
0.1635

> <Gold.PLP.ligand.clash>
0.0000

> <Gold.PLP.ligand.torsion>
1.5084

> <Gold.PLP.Chemscore.Hbond>
0.0000

> <Gold.PLP.Chemscore.CHOScore>
0.0000

> <Gold.PLP.Chemscore.Metal>
0.0000

> <Gold.PLP.Chemscore.Internal.Correction>
0.0974

> <Gold.Rescore>
     Score         DG    S(hbond)    S(metal)    S(lipo)     H(rot)  DE(clash)    DE(int)     intcor
     13.53     -14.94       0.00        0.00     135.08       2.48       0.07       1.34       ----

> <Gold.Chemscore.Fitness>
13.5324

> <Gold.Chemscore.DG>
-14.9440

> <Gold.Chemscore.ZeroCoef>
-5.4800

> <Gold.Chemscore.Hbond>
0.0000

> <Gold.Chemscore.Metal>
0.0000

> <Gold.Chemscore.Lipo>
135.0827

> <Gold.Chemscore.Internal_Hbond>
0.0000

> <Gold.Chemscore.DEClash>
0.0684

> <Gold.Chemscore.DEInternal>
1.3433

> <Gold.Chemscore.Rot>
2.4768

> <Gold.Chemscore.Internal.Correction>
   9.000000E+99

> <Gold.Chemscore.Hbond.Weighted>
-0.0001

> <Gold.Chemscore.Metal.Weighted>
-0.0000

> <Gold.Chemscore.Lipo.Weighted>
-15.8047

> <Gold.Chemscore.Internal_Hbond.Weighted>
0.0000

> <Gold.Chemscore.DEClash.Weighted>
0.0684

> <Gold.Chemscore.DEInternal.Weighted>
1.3433

> <Gold.Chemscore.Rot.Weighted>
6.3407

> <Gold.Chemscore.Internal.Correction.Weighted>
   9.000000E+99

> <Gold.Protein.RotatedTorsions>
[ 6907 6896 6895 6894 ] final -130.31 input  -60.11 | X-H torsion
[ 7974 7965 7964 7962 ] final -140.52 input  175.53 | X-H torsion
[ 8008 7997 7996 7995 ] final  -62.96 input   59.86 | X-H torsion
[ 10167 10162 10161 10158 ] final  148.76 input  -65.29 | X-H torsion
[ 10718 10713 10712 10709 ] final   89.53 input   66.30 | X-H torsion
[ 10763 10752 10751 10750 ] final  -55.14 input  -60.55 | X-H torsion
[ 11005 11000 10999 10996 ] final   34.42 input  -57.11 | X-H torsion

> <Gold.Protein.ActiveResidues>
 VAL166  LYS551  ARG553  GLY616  TRP617  ASP618  TYR619  PRO620  LYS621  CYS622 
 ASP623  PHE694  ASN695  SER759  ASP760  ASP761  ALA762  ILE779  LEU786  VAL792 
 PHE793  MET794  SER795  GLU796  ALA797  LYS798  CYS799  TRP800  GLU811  SER814 

> <Gold.Protein.RotatedAtoms>
  150.9383  133.6686  159.2795 H   0  0  0  0  0  0  0  0  0  0  0  0  # atno 6907 bound_to 6896
  151.4084  135.0980  159.9587 H   0  0  0  0  0  0  0  0  0  0  0  0  # atno 6908 bound_to 6896
  152.5058  133.8861  159.7425 H   0  0  0  0  0  0  0  0  0  0  0  0  # atno 6909 bound_to 6896
  144.8591  140.6190  143.5340 H   0  0  0  0  0  0  0  0  0  0  0  0  # atno 7974 bound_to 7965
  154.4528  140.0985  156.6668 H   0  0  0  0  0  0  0  0  0  0  0  0  # atno 8008 bound_to 7997
  155.5232  140.3479  155.4392 H   0  0  0  0  0  0  0  0  0  0  0  0  # atno 8009 bound_to 7997
  156.0716  140.1351  156.9811 H   0  0  0  0  0  0  0  0  0  0  0  0  # atno 8010 bound_to 7997
  139.4870  144.5655  151.7153 H   0  0  0  0  0  0  0  0  0  0  0  0  # atno 10167 bound_to 10162
  157.6955  131.0337  150.3441 H   0  0  0  0  0  0  0  0  0  0  0  0  # atno 10718 bound_to 10713
  154.1860  135.6435  153.5047 H   0  0  0  0  0  0  0  0  0  0  0  0  # atno 10763 bound_to 10752
  153.0047  135.5417  154.6464 H   0  0  0  0  0  0  0  0  0  0  0  0  # atno 10764 bound_to 10752
  154.5841  135.2928  155.0675 H   0  0  0  0  0  0  0  0  0  0  0  0  # atno 10765 bound_to 10752
  140.2530  134.3281  155.7883 H   0  0  0  0  0  0  0  0  0  0  0  0  # atno 11005 bound_to 11000
  145.4348  139.1544  143.4002 LP  0  0  0  0  0  0  0  0  0  0  0  0  # atno 17320 bound_to 7965
  146.2846  140.4466  142.8763 LP  0  0  0  0  0  0  0  0  0  0  0  0  # atno 17321 bound_to 7965
  140.5232  144.0846  150.6029 LP  0  0  0  0  0  0  0  0  0  0  0  0  # atno 17342 bound_to 10162
  140.3811  143.2802  152.0169 LP  0  0  0  0  0  0  0  0  0  0  0  0  # atno 17343 bound_to 10162
  156.3897  130.3895  149.7039 LP  0  0  0  0  0  0  0  0  0  0  0  0  # atno 17370 bound_to 10713
  156.4393  130.7853  151.2874 LP  0  0  0  0  0  0  0  0  0  0  0  0  # atno 17371 bound_to 10713
  141.2199  133.7364  156.9067 LP  0  0  0  0  0  0  0  0  0  0  0  0  # atno 17394 bound_to 11000
  140.1539  134.9211  157.2628 LP  0  0  0  0  0  0  0  0  0  0  0  0  # atno 17395 bound_to 11000

$$$$
