AV-unprocessed.smi:2892|AV-procd|sdf|11120|dock7
  -GOLD-   2272015593D 1   1.00000     0.00000
 Structure written by MMmdl.
 42 42  0  0  0  0  0  0  0  0  2 V2000
  149.2286  139.6669  156.8274 C   0  0  0  0  0  0  0  0  0  0  0  0
  150.4031  138.7651  157.2355 C   0  0  0  0  0  0  0  0  0  0  0  0
  151.8026  139.3346  156.8812 C   0  0  2  0  0  0  0  0  0  0  0  0
  152.0778  139.1771  155.3674 C   0  0  0  0  0  0  0  0  0  0  0  0
  152.9426  138.6867  157.7282 C   0  0  1  0  0  0  0  0  0  0  0  0
  152.9008  139.2330  159.0836 N   0  0  0  0  0  0  0  0  0  0  0  0
  153.9191  139.8162  159.7373 C   0  0  0  0  0  0  0  0  0  0  0  0
  155.0504  139.9319  159.2664 O   0  0  0  0  0  0  0  0  0  0  0  0
  153.6200  140.3532  161.1418 C   0  0  0  0  0  0  0  0  0  0  0  0
  153.1153  141.7736  161.0896 C   0  0  0  0  0  0  0  0  0  0  0  0
  152.9154  142.6722  162.1761 C   0  0  0  0  0  0  0  0  0  0  0  0
  152.4136  143.7968  161.5869 C   0  0  0  0  0  0  0  0  0  0  0  0
  152.3408  143.5549  160.2315 N   0  0  0  0  0  0  0  0  0  0  0  0
  151.8433  144.4358  159.1854 C   0  0  0  0  0  0  0  0  0  0  0  0
  150.5137  143.9156  158.6160 C   0  0  0  0  0  0  0  0  0  0  0  0
  152.8948  144.6505  158.0843 C   0  0  0  0  0  0  0  0  0  0  0  0
  152.7795  142.3136  159.9264 N   0  0  0  0  0  0  0  0  0  0  0  0
  152.7529  137.1626  157.8383 C   0  0  0  0  0  0  0  0  0  0  0  0
  153.4135  136.4351  157.0625 O   0  0  0  0  0  0  0  0  0  0  0  0
  151.9481  136.7520  158.7027 O   0  5  0  0  0  0  0  0  0  0  0  0
  148.2881  139.2619  157.2009 H   0  0  0  0  0  0  0  0  0  0  0  0
  149.1345  139.7516  155.7454 H   0  0  0  0  0  0  0  0  0  0  0  0
  149.3417  140.6704  157.2386 H   0  0  0  0  0  0  0  0  0  0  0  0
  150.3170  138.6101  158.3105 H   0  0  0  0  0  0  0  0  0  0  0  0
  150.2811  137.7796  156.7847 H   0  0  0  0  0  0  0  0  0  0  0  0
  151.7878  140.4049  157.0944 H   0  0  0  0  0  0  0  0  0  0  0  0
  152.1097  138.1258  155.0797 H   0  0  0  0  0  0  0  0  0  0  0  0
  153.0257  139.6274  155.0730 H   0  0  0  0  0  0  0  0  0  0  0  0
  151.3146  139.6648  154.7627 H   0  0  0  0  0  0  0  0  0  0  0  0
  153.9053  138.9021  157.2603 H   0  0  0  0  0  0  0  0  0  0  0  0
  152.0143  139.1660  159.5615 H   0  0  0  0  0  0  0  0  0  0  0  0
  152.8809  139.7032  161.6109 H   0  0  0  0  0  0  0  0  0  0  0  0
  154.5211  140.2928  161.7535 H   0  0  0  0  0  0  0  0  0  0  0  0
  153.0976  142.5087  163.2280 H   0  0  0  0  0  0  0  0  0  0  0  0
  152.1002  144.7367  162.0166 H   0  0  0  0  0  0  0  0  0  0  0  0
  151.6493  145.4042  159.6483 H   0  0  0  0  0  0  0  0  0  0  0  0
  150.1068  144.6076  157.8785 H   0  0  0  0  0  0  0  0  0  0  0  0
  149.7685  143.7982  159.4034 H   0  0  0  0  0  0  0  0  0  0  0  0
  150.6373  142.9476  158.1289 H   0  0  0  0  0  0  0  0  0  0  0  0
  152.5449  145.3743  157.3480 H   0  0  0  0  0  0  0  0  0  0  0  0
  153.1182  143.7237  157.5546 H   0  0  0  0  0  0  0  0  0  0  0  0
  153.8278  145.0301  158.5020 H   0  0  0  0  0  0  0  0  0  0  0  0
  1  2  1  0  0  0  0
  1 21  1  0  0  0  0
  1 22  1  0  0  0  0
  1 23  1  0  0  0  0
  2  3  1  0  0  0  0
  2 24  1  0  0  0  0
  2 25  1  0  0  0  0
  3  4  1  0  0  0  0
  3  5  1  0  0  0  0
  3 26  1  0  0  0  0
  4 27  1  0  0  0  0
  4 28  1  0  0  0  0
  4 29  1  0  0  0  0
  5  6  1  0  0  0  0
  5 18  1  0  0  0  0
  5 30  1  0  0  0  0
  6  7  1  0  0  0  0
  6 31  1  0  0  0  0
  7  8  2  0  0  0  0
  7  9  1  0  0  0  0
  9 10  1  0  0  0  0
  9 32  1  0  0  0  0
  9 33  1  0  0  0  0
 10 17  2  0  0  0  0
 10 11  1  0  0  0  0
 11 12  2  0  0  0  0
 11 34  1  0  0  0  0
 12 13  1  0  0  0  0
 12 35  1  0  0  0  0
 13 14  1  0  0  0  0
 13 17  1  0  0  0  0
 14 15  1  0  0  0  0
 14 16  1  0  0  0  0
 14 36  1  0  0  0  0
 15 37  1  0  0  0  0
 15 38  1  0  0  0  0
 15 39  1  0  0  0  0
 16 40  1  0  0  0  0
 16 41  1  0  0  0  0
 16 42  1  0  0  0  0
 18 19  2  0  0  0  0
 18 20  1  0  0  0  0
M  CHG  1  20  -1
M  END
> <s_m_source_file>
AV-unprocessed.smi

> <i_m_source_file_index>
2892

> <i_lp_mmshare_version>
43012

> <i_f3d_flags>
0

> <s_epik_input>
W0NIM11bQ0gyXVtDQEhdKFtDSDNdKVtDQEBIXShDKD1PKVtPSF0pW05IXUMoPU8pW0NIMl1jMVtjSF1bY0hdbihuMSlbQ0hdKFtDSDNdKVtDSDNd

> <s_epik_cmdline>
J2VwaWtfcHl0aG9uJywgJy1waCcsICc3LjAnLCAnLXRuJywgJzgnLCAnLW1hJywgJzIwMCcsICctbWV0YWxfYmluZGluZycsICctaW1hZScsICc8aW5maWxlLm1hZT4nLCAnLW9tYWUnLCAnPG91dGZpbGUubWFlPic=

> <r_lp_tautomer_probability>
1

> <r_epik_Ionization_Penalty>
0.000286846

> <r_epik_Ionization_Penalty_Charging>
0.000224481

> <r_epik_Ionization_Penalty_Neutral>
6.23655e-05

> <r_epik_State_Penalty>
-0

> <r_epik_Charging_Adjusted_Penalty>
0.000224481

> <i_epik_Tot_Q>
-1

> <i_epik_Tot_abs_Q>
1

> <r_epik_Metal_State_Penalty>
-0

> <b_epik_Metal_Only>
0

> <s_lp_Force_Field>
OPLS_2005

> <r_lp_Energy>
13.0415

> <b_lp_Chiralities_Consistent>
1

> <s_lp_Variant>
AV-unprocessed.smi:2892-3

> <Gold.Version>
5.8.1

> <Gold.Id.Protein>
6NUR|6NUR_protein|mol2

> <Gold.PLP.Fitness>
52.4708

> <Gold.PLP.PLP>
-42.1587

> <Gold.PLP.part.hbond>
-3.0000

> <Gold.PLP.part.metal>
0.0000

> <Gold.PLP.part.buried>
-5.3031

> <Gold.PLP.part.nonpolar>
-33.5177

> <Gold.PLP.part.repulsive>
0.0906

> <Gold.PLP.ligand.clash>
0.0000

> <Gold.PLP.ligand.torsion>
1.6963

> <Gold.PLP.Chemscore.Hbond>
4.5120

> <Gold.PLP.Chemscore.CHOScore>
0.0000

> <Gold.PLP.Chemscore.Metal>
0.0000

> <Gold.Chemscore.Hbonds>
donor molecule, donor type, donor heavy atom, donor atom, acceptor molecule, acceptor atom, score
      P1  H  6896  6908       L1    20  1.45
      P1  H  7997  8009       L1     8  0.94
      P1  H 10752 10763       L1    19  1.98

> <Gold.PLP.Chemscore.Internal.Correction>
0.1687

> <Gold.Rescore>
     Score         DG    S(hbond)    S(metal)    S(lipo)     H(rot)  DE(clash)    DE(int)     intcor
     19.50     -20.87       2.78        0.00     104.31       2.39       0.23       1.15       ----

> <Gold.Chemscore.Fitness>
19.4953

> <Gold.Chemscore.DG>
-20.8746

> <Gold.Chemscore.ZeroCoef>
-5.4800

> <Gold.Chemscore.Hbond>
2.7844

> <Gold.Chemscore.Metal>
0.0000

> <Gold.Chemscore.Lipo>
104.3090

> <Gold.Chemscore.Internal_Hbond>
0.0000

> <Gold.Chemscore.DEClash>
0.2292

> <Gold.Chemscore.DEInternal>
1.1502

> <Gold.Chemscore.Rot>
2.3865

> <Gold.Chemscore.Internal.Correction>
   9.000000E+99

> <Gold.Chemscore.Hbonds>
donor molecule, donor type, donor heavy atom, donor atom, acceptor molecule, acceptor atom, score
      P1  H  6896  6908       L1    20  0.69
      P1  H  7997  8009       L1     8  0.91
      P1  H 10752 10763       L1    19  0.91

> <Gold.Chemscore.Hbond.Weighted>
-9.2998

> <Gold.Chemscore.Metal.Weighted>
-0.0000

> <Gold.Chemscore.Lipo.Weighted>
-12.2042

> <Gold.Chemscore.Internal_Hbond.Weighted>
0.0000

> <Gold.Chemscore.DEClash.Weighted>
0.2292

> <Gold.Chemscore.DEInternal.Weighted>
1.1502

> <Gold.Chemscore.Rot.Weighted>
6.1093

> <Gold.Chemscore.Internal.Correction.Weighted>
   9.000000E+99

> <Gold.Protein.RotatedTorsions>
[ 6907 6896 6895 6894 ] final -123.08 input  -60.11 | X-H torsion
[ 7974 7965 7964 7962 ] final   -8.86 input  175.53 | X-H torsion
[ 8008 7997 7996 7995 ] final   98.12 input   59.86 | X-H torsion
[ 10167 10162 10161 10158 ] final -138.24 input  -65.29 | X-H torsion
[ 10718 10713 10712 10709 ] final   67.83 input   66.30 | X-H torsion
[ 10763 10752 10751 10750 ] final  114.93 input  -60.55 | X-H torsion
[ 11005 11000 10999 10996 ] final -146.08 input  -57.11 | X-H torsion

> <Gold.Protein.ActiveResidues>
 VAL166  LYS551  ARG553  GLY616  TRP617  ASP618  TYR619  PRO620  LYS621  CYS622 
 ASP623  PHE694  ASN695  SER759  ASP760  ASP761  ALA762  ILE779  LEU786  VAL792 
 PHE793  MET794  SER795  GLU796  ALA797  LYS798  CYS799  TRP800  GLU811  SER814 

> <Gold.Protein.RotatedAtoms>
  150.8636  133.7607  159.2983 H   0  0  0  0  0  0  0  0  0  0  0  0  # atno 6907 bound_to 6896
  151.5241  135.1066  159.9895 H   0  0  0  0  0  0  0  0  0  0  0  0  # atno 6908 bound_to 6896
  152.4645  133.7848  159.6926 H   0  0  0  0  0  0  0  0  0  0  0  0  # atno 6909 bound_to 6896
  146.2268  140.2530  142.8348 H   0  0  0  0  0  0  0  0  0  0  0  0  # atno 7974 bound_to 7965
  156.0972  140.3248  155.7893 H   0  0  0  0  0  0  0  0  0  0  0  0  # atno 8008 bound_to 7997
  155.4898  140.0560  157.2972 H   0  0  0  0  0  0  0  0  0  0  0  0  # atno 8009 bound_to 7997
  154.4674  140.1995  156.0099 H   0  0  0  0  0  0  0  0  0  0  0  0  # atno 8010 bound_to 7997
  139.8498  143.7213  152.2658 H   0  0  0  0  0  0  0  0  0  0  0  0  # atno 10167 bound_to 10162
  157.6254  130.9342  150.0296 H   0  0  0  0  0  0  0  0  0  0  0  0  # atno 10718 bound_to 10713
  153.5146  135.3610  155.2603 H   0  0  0  0  0  0  0  0  0  0  0  0  # atno 10763 bound_to 10752
  154.8739  135.4031  154.3329 H   0  0  0  0  0  0  0  0  0  0  0  0  # atno 10764 bound_to 10752
  153.3989  135.7074  153.6507 H   0  0  0  0  0  0  0  0  0  0  0  0  # atno 10765 bound_to 10752
  140.7857  134.3027  157.5031 H   0  0  0  0  0  0  0  0  0  0  0  0  # atno 11005 bound_to 11000
  144.9397  140.8065  143.5638 LP  0  0  0  0  0  0  0  0  0  0  0  0  # atno 17320 bound_to 7965
  145.2481  139.2043  143.4957 LP  0  0  0  0  0  0  0  0  0  0  0  0  # atno 17321 bound_to 7965
  139.7476  144.7543  151.0555 LP  0  0  0  0  0  0  0  0  0  0  0  0  # atno 17342 bound_to 10162
  140.7789  143.4897  150.9909 LP  0  0  0  0  0  0  0  0  0  0  0  0  # atno 17343 bound_to 10162
  156.1423  130.3642  149.9564 LP  0  0  0  0  0  0  0  0  0  0  0  0  # atno 17370 bound_to 10713
  156.7602  130.9148  151.3641 LP  0  0  0  0  0  0  0  0  0  0  0  0  # atno 17371 bound_to 10713
  139.8737  134.9345  156.3608 LP  0  0  0  0  0  0  0  0  0  0  0  0  # atno 17394 bound_to 11000
  140.9439  133.7496  156.0183 LP  0  0  0  0  0  0  0  0  0  0  0  0  # atno 17395 bound_to 11000

$$$$
