AV-unprocessed.smi:1377|AV-procd|sdf|5595|dock4
  -GOLD-   22720 5203D 1   1.00000     0.00000
 Structure written by MMmdl.
 28 29  0  0  0  0  0  0  0  0  2 V2000
  150.0858  138.4038  153.3451 N   0  0  0  0  0  0  0  0  0  0  0  0
  150.9174  138.6735  154.3545 C   0  0  0  0  0  0  0  0  0  0  0  0
  151.2377  139.8265  154.6401 O   0  0  0  0  0  0  0  0  0  0  0  0
  151.4543  137.4661  155.1353 C   0  0  0  0  0  0  0  0  0  0  0  0
  150.3769  136.7590  155.9102 C   0  0  0  0  0  0  0  0  0  0  0  0
  149.3216  136.0474  155.3992 C   0  0  0  0  0  0  0  0  0  0  0  0
  148.3172  135.3900  156.6589 S   0  0  0  0  0  0  0  0  0  0  0  0
  149.3932  136.0932  157.8682 C   0  0  0  0  0  0  0  0  0  0  0  0
  149.2321  135.9869  159.1963 N   0  5  0  0  0  0  0  0  0  0  0  0
  147.9861  136.0346  159.7250 C   0  0  0  0  0  0  0  0  0  0  0  0
  146.9343  136.3851  159.1866 O   0  0  0  0  0  0  0  0  0  0  0  0
  147.9852  135.5567  161.1857 C   0  0  0  0  0  0  0  0  0  0  0  0
  147.0241  134.3988  161.5181 C   0  0  0  0  0  0  0  0  0  0  0  0
  146.6414  135.1463  162.7994 C   0  0  0  0  0  0  0  0  0  0  0  0
  147.1562  136.4307  162.1430 C   0  0  0  0  0  0  0  0  0  0  0  0
  150.3999  136.7724  157.3080 N   0  0  0  0  0  0  0  0  0  0  0  0
  149.7055  139.1604  152.7954 H   0  0  0  0  0  0  0  0  0  0  0  0
  149.8433  137.4472  153.1328 H   0  0  0  0  0  0  0  0  0  0  0  0
  151.9242  136.7732  154.4364 H   0  0  0  0  0  0  0  0  0  0  0  0
  152.2442  137.8120  155.8031 H   0  0  0  0  0  0  0  0  0  0  0  0
  149.0707  135.8771  154.3632 H   0  0  0  0  0  0  0  0  0  0  0  0
  148.9910  135.3699  161.5671 H   0  0  0  0  0  0  0  0  0  0  0  0
  146.1808  134.2970  160.8330 H   0  0  0  0  0  0  0  0  0  0  0  0
  147.5152  133.4412  161.6915 H   0  0  0  0  0  0  0  0  0  0  0  0
  145.5751  135.1467  163.0264 H   0  0  0  0  0  0  0  0  0  0  0  0
  147.2402  134.8429  163.6594 H   0  0  0  0  0  0  0  0  0  0  0  0
  147.7496  137.0633  162.8034 H   0  0  0  0  0  0  0  0  0  0  0  0
  146.3677  136.9992  161.6459 H   0  0  0  0  0  0  0  0  0  0  0  0
  1  2  1  0  0  0  0
  1 17  1  0  0  0  0
  1 18  1  0  0  0  0
  2  3  2  0  0  0  0
  2  4  1  0  0  0  0
  4  5  1  0  0  0  0
  4 19  1  0  0  0  0
  4 20  1  0  0  0  0
  5 16  1  0  0  0  0
  5  6  2  0  0  0  0
  6  7  1  0  0  0  0
  6 21  1  0  0  0  0
  7  8  1  0  0  0  0
  8  9  1  0  0  0  0
  8 16  2  0  0  0  0
  9 10  1  0  0  0  0
 10 11  2  0  0  0  0
 10 12  1  0  0  0  0
 12 15  1  0  0  0  0
 12 13  1  0  0  0  0
 12 22  1  0  0  0  0
 13 14  1  0  0  0  0
 13 23  1  0  0  0  0
 13 24  1  0  0  0  0
 14 15  1  0  0  0  0
 14 25  1  0  0  0  0
 14 26  1  0  0  0  0
 15 27  1  0  0  0  0
 15 28  1  0  0  0  0
M  CHG  1   9  -1
M  END
> <s_m_source_file>
AV-unprocessed.smi

> <i_m_source_file_index>
1377

> <i_lp_mmshare_version>
43012

> <i_f3d_flags>
0

> <s_epik_input>
W05IMl1DKD1PKVtDSDJdYzFbY0hdc2MobjEpW05IXUMoPU8pW0NIXTJbQ0gyXVtDSDJdW0NIMl0y

> <s_epik_cmdline>
J2VwaWtfcHl0aG9uJywgJy1waCcsICc3LjAnLCAnLXRuJywgJzgnLCAnLW1hJywgJzIwMCcsICctbWV0YWxfYmluZGluZycsICctaW1hZScsICc8aW5maWxlLm1hZT4nLCAnLW9tYWUnLCAnPG91dGZpbGUubWFlPic=

> <r_lp_tautomer_probability>
1

> <r_epik_Ionization_Penalty>
5.13356

> <r_epik_Ionization_Penalty_Charging>
4.74096

> <r_epik_Ionization_Penalty_Neutral>
0.392596

> <r_epik_State_Penalty>
4.74076

> <r_epik_Charging_Adjusted_Penalty>
9.48173

> <i_epik_Tot_Q>
-1

> <i_epik_Tot_abs_Q>
1

> <r_epik_Metal_State_Penalty>
0.951691

> <b_epik_Metal_Only>
1

> <s_lp_Force_Field>
OPLS_2005

> <r_lp_Energy>
7.89776

> <b_lp_Chiralities_Consistent>
1

> <s_lp_Variant>
AV-unprocessed.smi:1377-2

> <Gold.Version>
5.8.1

> <Gold.Id.Protein>
6NUR|6NUR_protein|mol2

> <Gold.PLP.Fitness>
43.6635

> <Gold.PLP.PLP>
-26.9971

> <Gold.PLP.part.hbond>
-4.3127

> <Gold.PLP.part.metal>
0.0000

> <Gold.PLP.part.buried>
-4.1832

> <Gold.PLP.part.nonpolar>
-18.4120

> <Gold.PLP.part.repulsive>
0.1696

> <Gold.PLP.ligand.clash>
0.0000

> <Gold.PLP.ligand.torsion>
0.6508

> <Gold.PLP.Chemscore.Hbond>
4.8560

> <Gold.PLP.Chemscore.CHOScore>
1.0000

> <Gold.PLP.Chemscore.Metal>
0.0000

> <Gold.Chemscore.Hbonds>
donor molecule, donor type, donor heavy atom, donor atom, acceptor molecule, acceptor atom, score
      L1  H     1    17       P1  7957  0.94
      L1  H     1    18       P1  7948  0.91
      P1  H  6896  6907       L1     9  2.00
      P1  H  7989  7998       L1     3  1.00
      L1  C     6    21       P1  7948  1.00

> <Gold.PLP.Chemscore.Internal.Correction>
0.4000

> <Gold.Rescore>
     Score         DG    S(hbond)    S(metal)    S(lipo)     H(rot)  DE(clash)    DE(int)     intcor
     17.23     -18.10       3.44        0.00      51.24       1.89       0.12       0.75       ----

> <Gold.Chemscore.Fitness>
17.2268

> <Gold.Chemscore.DG>
-18.1015

> <Gold.Chemscore.ZeroCoef>
-5.4800

> <Gold.Chemscore.Hbond>
3.4354

> <Gold.Chemscore.Metal>
0.0000

> <Gold.Chemscore.Lipo>
51.2359

> <Gold.Chemscore.Internal_Hbond>
0.0000

> <Gold.Chemscore.DEClash>
0.1243

> <Gold.Chemscore.DEInternal>
0.7503

> <Gold.Chemscore.Rot>
1.8935

> <Gold.Chemscore.Internal.Correction>
   9.000000E+99

> <Gold.Chemscore.Hbonds>
donor molecule, donor type, donor heavy atom, donor atom, acceptor molecule, acceptor atom, score
      L1  H     1    17       P1  7957  0.88
      L1  H     1    18       P1  7948  0.40
      P1  H  6896  6907       L1     9  0.29
      P1  H  7989  7998       L1     3  0.96

> <Gold.Chemscore.Hbond.Weighted>
-11.4743

> <Gold.Chemscore.Metal.Weighted>
-0.0000

> <Gold.Chemscore.Lipo.Weighted>
-5.9946

> <Gold.Chemscore.Internal_Hbond.Weighted>
0.0000

> <Gold.Chemscore.DEClash.Weighted>
0.1243

> <Gold.Chemscore.DEInternal.Weighted>
0.7503

> <Gold.Chemscore.Rot.Weighted>
4.8475

> <Gold.Chemscore.Internal.Correction.Weighted>
   9.000000E+99

> <Gold.Protein.RotatedTorsions>
[ 6907 6896 6895 6894 ] final  -53.77 input  -60.11 | X-H torsion
[ 7974 7965 7964 7962 ] final -143.81 input  175.53 | X-H torsion
[ 8008 7997 7996 7995 ] final  -50.00 input   59.86 | X-H torsion
[ 10167 10162 10161 10158 ] final  -41.29 input  -65.29 | X-H torsion
[ 10718 10713 10712 10709 ] final   14.73 input   66.30 | X-H torsion
[ 10763 10752 10751 10750 ] final  -41.58 input  -60.55 | X-H torsion
[ 11005 11000 10999 10996 ] final  -82.56 input  -57.11 | X-H torsion

> <Gold.Protein.ActiveResidues>
 VAL166  LYS551  ARG553  GLY616  TRP617  ASP618  TYR619  PRO620  LYS621  CYS622 
 ASP623  PHE694  ASN695  SER759  ASP760  ASP761  ALA762  ILE779  LEU786  VAL792 
 PHE793  MET794  SER795  GLU796  ALA797  LYS798  CYS799  TRP800  GLU811  SER814 

> <Gold.Protein.RotatedAtoms>
  150.8397  134.7684  159.6921 H   0  0  0  0  0  0  0  0  0  0  0  0  # atno 6907 bound_to 6896
  152.4487  134.5437  159.9856 H   0  0  0  0  0  0  0  0  0  0  0  0  # atno 6908 bound_to 6896
  151.5580  133.3369  159.3001 H   0  0  0  0  0  0  0  0  0  0  0  0  # atno 6909 bound_to 6896
  144.8342  140.5788  143.5495 H   0  0  0  0  0  0  0  0  0  0  0  0  # atno 7974 bound_to 7965
  154.4054  140.1283  156.4594 H   0  0  0  0  0  0  0  0  0  0  0  0  # atno 8008 bound_to 7997
  155.7288  140.3491  155.5030 H   0  0  0  0  0  0  0  0  0  0  0  0  # atno 8009 bound_to 7997
  155.9147  140.1042  157.1243 H   0  0  0  0  0  0  0  0  0  0  0  0  # atno 8010 bound_to 7997
  140.7007  143.3103  151.3045 H   0  0  0  0  0  0  0  0  0  0  0  0  # atno 10167 bound_to 10162
  157.0433  130.6240  149.5754 H   0  0  0  0  0  0  0  0  0  0  0  0  # atno 10718 bound_to 10713
  153.9648  135.6735  153.4746 H   0  0  0  0  0  0  0  0  0  0  0  0  # atno 10763 bound_to 10752
  153.0821  135.4918  154.8520 H   0  0  0  0  0  0  0  0  0  0  0  0  # atno 10764 bound_to 10752
  154.7252  135.3126  154.8942 H   0  0  0  0  0  0  0  0  0  0  0  0  # atno 10765 bound_to 10752
  141.1662  133.7250  156.8589 H   0  0  0  0  0  0  0  0  0  0  0  0  # atno 11005 bound_to 11000
  145.4830  139.1494  143.3751 LP  0  0  0  0  0  0  0  0  0  0  0  0  # atno 17320 bound_to 7965
  146.2642  140.4966  142.8841 LP  0  0  0  0  0  0  0  0  0  0  0  0  # atno 17321 bound_to 7965
  139.6523  144.0339  152.2635 LP  0  0  0  0  0  0  0  0  0  0  0  0  # atno 17342 bound_to 10162
  139.9879  144.6382  150.7841 LP  0  0  0  0  0  0  0  0  0  0  0  0  # atno 17343 bound_to 10162
  156.0031  130.5113  150.7734 LP  0  0  0  0  0  0  0  0  0  0  0  0  # atno 17370 bound_to 10713
  157.5088  131.0924  151.0224 LP  0  0  0  0  0  0  0  0  0  0  0  0  # atno 17371 bound_to 10713
  140.1862  134.8998  157.3007 LP  0  0  0  0  0  0  0  0  0  0  0  0  # atno 17394 bound_to 11000
  140.2340  134.3875  155.7509 LP  0  0  0  0  0  0  0  0  0  0  0  0  # atno 17395 bound_to 11000

$$$$
