AV-unprocessed.smi:3113|AV-procd|sdf|11855|dock2
  -GOLD-   2272017233D 1   1.00000     0.00000
 Structure written by MMmdl.
 34 35  0  0  0  0  0  0  0  0  1 V2000
  153.4007  143.1032  161.4780 C   0  0  0  0  0  0  0  0  0  0  0  0
  154.0348  142.5266  160.3420 C   0  0  0  0  0  0  0  0  0  0  0  0
  153.7887  143.1938  159.2261 N   0  0  0  0  0  0  0  0  0  0  0  0
  152.9915  144.2138  159.6111 N   0  0  0  0  0  0  0  0  0  0  0  0
  152.5077  145.1633  158.6249 C   0  0  0  0  0  0  0  0  0  0  0  0
  151.8902  144.4672  157.4016 C   0  0  0  0  0  0  0  0  0  0  0  0
  150.6033  143.8587  157.7262 N   0  0  0  0  0  0  0  0  0  0  0  0
  150.6790  142.4223  157.9748 C   0  0  0  0  0  0  0  0  0  0  0  0
  150.5291  141.6088  156.6781 C   0  0  1  0  0  0  0  0  0  0  0  0
  151.2081  140.2234  156.7290 C   0  0  0  0  0  0  0  0  0  0  0  0
  150.9790  139.4682  155.4154 C   0  0  0  0  0  0  0  0  0  0  0  0
  149.4807  139.4348  155.0945 C   0  0  0  0  0  0  0  0  0  0  0  0
  148.8962  140.8569  155.1135 C   0  0  0  0  0  0  0  0  0  0  0  0
  149.1419  141.4734  156.3742 O   0  0  0  0  0  0  0  0  0  0  0  0
  152.7409  144.1839  160.9670 C   0  0  0  0  0  0  0  0  0  0  0  0
  153.4251  142.7735  162.5059 H   0  0  0  0  0  0  0  0  0  0  0  0
  154.6622  141.6485  160.2954 H   0  0  0  0  0  0  0  0  0  0  0  0
  151.7819  145.8255  159.0987 H   0  0  0  0  0  0  0  0  0  0  0  0
  153.3436  145.7906  158.3118 H   0  0  0  0  0  0  0  0  0  0  0  0
  151.7575  145.2007  156.6058 H   0  0  0  0  0  0  0  0  0  0  0  0
  152.5788  143.7135  157.0176 H   0  0  0  0  0  0  0  0  0  0  0  0
  149.9382  144.0391  156.9808 H   0  0  0  0  0  0  0  0  0  0  0  0
  151.6308  142.1754  158.4467 H   0  0  0  0  0  0  0  0  0  0  0  0
  149.8987  142.1279  158.6777 H   0  0  0  0  0  0  0  0  0  0  0  0
  150.9905  142.1909  155.8782 H   0  0  0  0  0  0  0  0  0  0  0  0
  152.2764  140.3313  156.9179 H   0  0  0  0  0  0  0  0  0  0  0  0
  150.8033  139.6343  157.5526 H   0  0  0  0  0  0  0  0  0  0  0  0
  151.5173  139.9641  154.6067 H   0  0  0  0  0  0  0  0  0  0  0  0
  151.3771  138.4555  155.4840 H   0  0  0  0  0  0  0  0  0  0  0  0
  149.3143  138.9712  154.1218 H   0  0  0  0  0  0  0  0  0  0  0  0
  148.9616  138.8179  155.8288 H   0  0  0  0  0  0  0  0  0  0  0  0
  149.3232  141.4623  154.3127 H   0  0  0  0  0  0  0  0  0  0  0  0
  147.8200  140.8217  154.9442 H   0  0  0  0  0  0  0  0  0  0  0  0
  152.1175  144.9232  161.4481 H   0  0  0  0  0  0  0  0  0  0  0  0
  1 15  2  0  0  0  0
  1  2  1  0  0  0  0
  1 16  1  0  0  0  0
  2  3  2  0  0  0  0
  2 17  1  0  0  0  0
  3  4  1  0  0  0  0
  4  5  1  0  0  0  0
  4 15  1  0  0  0  0
  5  6  1  0  0  0  0
  5 18  1  0  0  0  0
  5 19  1  0  0  0  0
  6  7  1  0  0  0  0
  6 20  1  0  0  0  0
  6 21  1  0  0  0  0
  7  8  1  0  0  0  0
  7 22  1  0  0  0  0
  8  9  1  0  0  0  0
  8 23  1  0  0  0  0
  8 24  1  0  0  0  0
  9 14  1  0  0  0  0
  9 10  1  0  0  0  0
  9 25  1  0  0  0  0
 10 11  1  0  0  0  0
 10 26  1  0  0  0  0
 10 27  1  0  0  0  0
 11 12  1  0  0  0  0
 11 28  1  0  0  0  0
 11 29  1  0  0  0  0
 12 13  1  0  0  0  0
 12 30  1  0  0  0  0
 12 31  1  0  0  0  0
 13 14  1  0  0  0  0
 13 32  1  0  0  0  0
 13 33  1  0  0  0  0
 15 34  1  0  0  0  0
M  END
> <s_m_source_file>
AV-unprocessed.smi

> <i_m_source_file_index>
3113

> <i_lp_mmshare_version>
43012

> <i_f3d_flags>
0

> <s_epik_input>
W2NIXTFbY0hdW2NIXW5uMVtDSDJdW0NIMl1bTkhdW0NIMl1bQ0BASF0yW0NIMl1bQ0gyXVtDSDJdW0NIMl1PMg==

> <s_epik_cmdline>
J2VwaWtfcHl0aG9uJywgJy1waCcsICc3LjAnLCAnLXRuJywgJzgnLCAnLW1hJywgJzIwMCcsICctbWV0YWxfYmluZGluZycsICctaW1hZScsICc8aW5maWxlLm1hZT4nLCAnLW9tYWUnLCAnPG91dGZpbGUubWFlPic=

> <r_lp_tautomer_probability>
1

> <r_epik_Ionization_Penalty>
2.521

> <r_epik_Ionization_Penalty_Charging>
0

> <r_epik_Ionization_Penalty_Neutral>
2.521

> <r_epik_State_Penalty>
2.68614

> <r_epik_Charging_Adjusted_Penalty>
2.68614

> <i_epik_Tot_Q>
0

> <i_epik_Tot_abs_Q>
0

> <r_epik_Metal_State_Penalty>
2.68493

> <b_epik_Metal_Only>
0

> <s_lp_Force_Field>
OPLS_2005

> <r_lp_Energy>
15.0278

> <b_lp_Chiralities_Consistent>
1

> <s_lp_Variant>
AV-unprocessed.smi:3113-4

> <Gold.Version>
5.8.1

> <Gold.Id.Protein>
6NUR|6NUR_protein|mol2

> <Gold.PLP.Fitness>
45.5603

> <Gold.PLP.PLP>
-44.1904

> <Gold.PLP.part.hbond>
-1.0000

> <Gold.PLP.part.metal>
0.0000

> <Gold.PLP.part.buried>
-4.2516

> <Gold.PLP.part.nonpolar>
-38.9116

> <Gold.PLP.part.repulsive>
0.0903

> <Gold.PLP.ligand.clash>
0.0000

> <Gold.PLP.ligand.torsion>
0.8421

> <Gold.PLP.Chemscore.Hbond>
1.0000

> <Gold.PLP.Chemscore.CHOScore>
0.0000

> <Gold.PLP.Chemscore.Metal>
0.0000

> <Gold.Chemscore.Hbonds>
donor molecule, donor type, donor heavy atom, donor atom, acceptor molecule, acceptor atom, score
      L1  H     7    22       P1  8028  1.00

> <Gold.PLP.Chemscore.Internal.Correction>
0.0542

> <Gold.Rescore>
     Score         DG    S(hbond)    S(metal)    S(lipo)     H(rot)  DE(clash)    DE(int)     intcor
     15.98     -16.92       0.99        0.00     105.06       1.62       0.01       0.94       ----

> <Gold.Chemscore.Fitness>
15.9770

> <Gold.Chemscore.DG>
-16.9217

> <Gold.Chemscore.ZeroCoef>
-5.4800

> <Gold.Chemscore.Hbond>
0.9880

> <Gold.Chemscore.Metal>
0.0000

> <Gold.Chemscore.Lipo>
105.0635

> <Gold.Chemscore.Internal_Hbond>
0.0000

> <Gold.Chemscore.DEClash>
0.0089

> <Gold.Chemscore.DEInternal>
0.9359

> <Gold.Chemscore.Rot>
1.6213

> <Gold.Chemscore.Internal.Correction>
   9.000000E+99

> <Gold.Chemscore.Hbonds>
donor molecule, donor type, donor heavy atom, donor atom, acceptor molecule, acceptor atom, score
      L1  H     7    22       P1  8028  0.91

> <Gold.Chemscore.Hbond.Weighted>
-3.2998

> <Gold.Chemscore.Metal.Weighted>
-0.0000

> <Gold.Chemscore.Lipo.Weighted>
-12.2924

> <Gold.Chemscore.Internal_Hbond.Weighted>
0.0000

> <Gold.Chemscore.DEClash.Weighted>
0.0089

> <Gold.Chemscore.DEInternal.Weighted>
0.9359

> <Gold.Chemscore.Rot.Weighted>
4.1505

> <Gold.Chemscore.Internal.Correction.Weighted>
   9.000000E+99

> <Gold.Protein.RotatedTorsions>
[ 6907 6896 6895 6894 ] final   90.61 input  -60.11 | X-H torsion
[ 7974 7965 7964 7962 ] final  -92.17 input  175.53 | X-H torsion
[ 8008 7997 7996 7995 ] final  104.21 input   59.86 | X-H torsion
[ 10167 10162 10161 10158 ] final   27.61 input  -65.29 | X-H torsion
[ 10718 10713 10712 10709 ] final  -73.17 input   66.30 | X-H torsion
[ 10763 10752 10751 10750 ] final  -16.09 input  -60.55 | X-H torsion
[ 11005 11000 10999 10996 ] final  160.60 input  -57.11 | X-H torsion

> <Gold.Protein.ActiveResidues>
 VAL166  LYS551  ARG553  GLY616  TRP617  ASP618  TYR619  PRO620  LYS621  CYS622 
 ASP623  PHE694  ASN695  SER759  ASP760  ASP761  ALA762  ILE779  LEU786  VAL792 
 PHE793  MET794  SER795  GLU796  ALA797  LYS798  CYS799  TRP800  GLU811  SER814 

> <Gold.Protein.RotatedAtoms>
  152.5445  134.1785  159.8625 H   0  0  0  0  0  0  0  0  0  0  0  0  # atno 6907 bound_to 6896
  151.1789  133.4730  159.2601 H   0  0  0  0  0  0  0  0  0  0  0  0  # atno 6908 bound_to 6896
  151.1198  135.0084  159.8588 H   0  0  0  0  0  0  0  0  0  0  0  0  # atno 6909 bound_to 6896
  145.4034  140.9539  143.2274 H   0  0  0  0  0  0  0  0  0  0  0  0  # atno 7974 bound_to 7965
  156.1553  140.3151  155.8715 H   0  0  0  0  0  0  0  0  0  0  0  0  # atno 8008 bound_to 7997
  155.3891  140.0492  157.3058 H   0  0  0  0  0  0  0  0  0  0  0  0  # atno 8009 bound_to 7997
  154.5095  140.2159  155.9195 H   0  0  0  0  0  0  0  0  0  0  0  0  # atno 8010 bound_to 7997
  140.4923  144.0447  150.6302 H   0  0  0  0  0  0  0  0  0  0  0  0  # atno 10167 bound_to 10162
  156.0291  130.4388  150.2702 H   0  0  0  0  0  0  0  0  0  0  0  0  # atno 10718 bound_to 10713
  153.5533  135.7011  153.5581 H   0  0  0  0  0  0  0  0  0  0  0  0  # atno 10763 bound_to 10752
  153.3496  135.3999  155.1635 H   0  0  0  0  0  0  0  0  0  0  0  0  # atno 10764 bound_to 10752
  154.8658  135.3762  154.5045 H   0  0  0  0  0  0  0  0  0  0  0  0  # atno 10765 bound_to 10752
  140.2075  134.8292  157.3085 H   0  0  0  0  0  0  0  0  0  0  0  0  # atno 11005 bound_to 11000
  144.8358  139.5553  143.6923 LP  0  0  0  0  0  0  0  0  0  0  0  0  # atno 17320 bound_to 7965
  146.2740  139.6707  142.9276 LP  0  0  0  0  0  0  0  0  0  0  0  0  # atno 17321 bound_to 7965
  140.3719  143.2850  152.0268 LP  0  0  0  0  0  0  0  0  0  0  0  0  # atno 17342 bound_to 10162
  139.4854  144.6223  151.7232 LP  0  0  0  0  0  0  0  0  0  0  0  0  # atno 17343 bound_to 10162
  157.0804  131.0142  151.3158 LP  0  0  0  0  0  0  0  0  0  0  0  0  # atno 17370 bound_to 10713
  157.4931  130.7834  149.7528 LP  0  0  0  0  0  0  0  0  0  0  0  0  # atno 17371 bound_to 10713
  140.1987  134.4282  155.7675 LP  0  0  0  0  0  0  0  0  0  0  0  0  # atno 17394 bound_to 11000
  141.2227  133.7061  156.8147 LP  0  0  0  0  0  0  0  0  0  0  0  0  # atno 17395 bound_to 11000

$$$$
