AV-unprocessed.smi:1394|AV-procd|sdf|5667|dock6
  -GOLD-   22720 5293D 1   1.00000     0.00000
 Structure written by MMmdl.
 41 42  0  0  0  0  0  0  0  0  1 V2000
  147.7966  140.5197  153.4733 C   0  0  0  0  0  0  0  0  0  0  0  0
  146.8083  141.1745  154.4536 C   0  0  2  0  0  0  0  0  0  0  0  0
  146.3196  142.5428  153.9347 C   0  0  0  0  0  0  0  0  0  0  0  0
  145.2770  143.1653  154.8774 C   0  0  0  0  0  0  0  0  0  0  0  0
  145.8177  143.2854  156.3100 C   0  0  0  0  0  0  0  0  0  0  0  0
  146.3118  141.9260  156.8358 C   0  0  0  0  0  0  0  0  0  0  0  0
  147.3565  141.2836  155.9009 C   0  0  2  0  0  0  0  0  0  0  0  0
  148.6046  142.0472  155.9617 N   0  0  0  0  0  0  0  0  0  0  0  0
  149.7647  141.6330  156.4937 C   0  0  0  0  0  0  0  0  0  0  0  0
  149.9178  140.5216  157.0022 O   0  0  0  0  0  0  0  0  0  0  0  0
  150.9200  142.6420  156.4252 C   0  0  0  0  0  0  0  0  0  0  0  0
  151.4080  143.0716  157.7468 N   0  0  0  0  0  0  0  0  0  0  0  0
  151.0952  144.3858  158.1370 C   0  0  0  0  0  0  0  0  0  0  0  0
  151.4890  144.8843  159.3163 C   0  0  0  0  0  0  0  0  0  0  0  0
  152.2523  144.0330  160.1957 C   0  0  0  0  0  0  0  0  0  0  0  0
  152.5742  142.7663  159.8453 C   0  0  0  0  0  0  0  0  0  0  0  0
  153.3746  141.8499  160.7679 C   0  0  0  0  0  0  0  0  0  0  0  0
  152.7847  140.6587  160.8755 F   0  0  0  0  0  0  0  0  0  0  0  0
  154.6050  141.6641  160.2890 F   0  0  0  0  0  0  0  0  0  0  0  0
  153.4872  142.3596  161.9956 F   0  0  0  0  0  0  0  0  0  0  0  0
  152.1395  142.2286  158.5396 C   0  0  0  0  0  0  0  0  0  0  0  0
  152.4160  141.0855  158.1722 O   0  0  0  0  0  0  0  0  0  0  0  0
  148.6742  141.1444  153.3059 H   0  0  0  0  0  0  0  0  0  0  0  0
  147.3280  140.3475  152.5041 H   0  0  0  0  0  0  0  0  0  0  0  0
  148.1393  139.5549  153.8482 H   0  0  0  0  0  0  0  0  0  0  0  0
  145.9371  140.5185  154.4954 H   0  0  0  0  0  0  0  0  0  0  0  0
  147.1648  143.2232  153.8238 H   0  0  0  0  0  0  0  0  0  0  0  0
  145.8862  142.4305  152.9404 H   0  0  0  0  0  0  0  0  0  0  0  0
  144.9822  144.1483  154.5085 H   0  0  0  0  0  0  0  0  0  0  0  0
  144.3747  142.5526  154.8786 H   0  0  0  0  0  0  0  0  0  0  0  0
  146.6319  144.0106  156.3341 H   0  0  0  0  0  0  0  0  0  0  0  0
  145.0403  143.6762  156.9671 H   0  0  0  0  0  0  0  0  0  0  0  0
  146.7228  142.0410  157.8394 H   0  0  0  0  0  0  0  0  0  0  0  0
  145.4596  141.2524  156.9347 H   0  0  0  0  0  0  0  0  0  0  0  0
  147.5397  140.2737  156.2723 H   0  0  0  0  0  0  0  0  0  0  0  0
  148.5789  142.9760  155.5666 H   0  0  0  0  0  0  0  0  0  0  0  0
  151.7368  142.1955  155.8558 H   0  0  0  0  0  0  0  0  0  0  0  0
  150.5997  143.5003  155.8321 H   0  0  0  0  0  0  0  0  0  0  0  0
  150.5262  144.9578  157.4183 H   0  0  0  0  0  0  0  0  0  0  0  0
  151.2430  145.8971  159.5999 H   0  0  0  0  0  0  0  0  0  0  0  0
  152.5650  144.4310  161.1494 H   0  0  0  0  0  0  0  0  0  0  0  0
  1  2  1  0  0  0  0
  1 23  1  0  0  0  0
  1 24  1  0  0  0  0
  1 25  1  0  0  0  0
  2  7  1  0  0  0  0
  2  3  1  0  0  0  0
  2 26  1  0  0  0  0
  3  4  1  0  0  0  0
  3 27  1  0  0  0  0
  3 28  1  0  0  0  0
  4  5  1  0  0  0  0
  4 29  1  0  0  0  0
  4 30  1  0  0  0  0
  5  6  1  0  0  0  0
  5 31  1  0  0  0  0
  5 32  1  0  0  0  0
  6  7  1  0  0  0  0
  6 33  1  0  0  0  0
  6 34  1  0  0  0  0
  7  8  1  0  0  0  0
  7 35  1  0  0  0  0
  8  9  1  0  0  0  0
  8 36  1  0  0  0  0
  9 10  2  0  0  0  0
  9 11  1  0  0  0  0
 11 12  1  0  0  0  0
 11 37  1  0  0  0  0
 11 38  1  0  0  0  0
 12 21  1  0  0  0  0
 12 13  1  0  0  0  0
 13 14  2  0  0  0  0
 13 39  1  0  0  0  0
 14 15  1  0  0  0  0
 14 40  1  0  0  0  0
 15 16  2  0  0  0  0
 15 41  1  0  0  0  0
 16 17  1  0  0  0  0
 16 21  1  0  0  0  0
 17 18  1  0  0  0  0
 17 19  1  0  0  0  0
 17 20  1  0  0  0  0
 21 22  2  0  0  0  0
M  END
> <s_m_source_file>
AV-unprocessed.smi

> <i_m_source_file_index>
1394

> <i_lp_mmshare_version>
43012

> <i_f3d_flags>
0

> <s_epik_input>
W0NIM11bQ0BASF0xW0NIMl1bQ0gyXVtDSDJdW0NIMl1bQ0BIXTFbTkhdQyg9TylbQ0gyXW4yW2NIXVtjSF1bY0hdYyhDKEYpKEYpRiljMj1P

> <s_epik_cmdline>
J2VwaWtfcHl0aG9uJywgJy1waCcsICc3LjAnLCAnLXRuJywgJzgnLCAnLW1hJywgJzIwMCcsICctbWV0YWxfYmluZGluZycsICctaW1hZScsICc8aW5maWxlLm1hZT4nLCAnLW9tYWUnLCAnPG91dGZpbGUubWFlPic=

> <r_lp_tautomer_probability>
1

> <r_epik_Ionization_Penalty>
2.11487e-08

> <r_epik_Ionization_Penalty_Charging>
2.10183e-09

> <r_epik_Ionization_Penalty_Neutral>
1.90469e-08

> <r_epik_State_Penalty>
-0

> <r_epik_Charging_Adjusted_Penalty>
2.10183e-09

> <i_epik_Tot_Q>
0

> <i_epik_Tot_abs_Q>
0

> <r_epik_Metal_State_Penalty>
-0

> <b_epik_Metal_Only>
0

> <s_lp_Force_Field>
OPLS_2005

> <r_lp_Energy>
20.183

> <b_lp_Chiralities_Consistent>
1

> <s_lp_Variant>
AV-unprocessed.smi:1394-3

> <Gold.Version>
5.8.1

> <Gold.Id.Protein>
6NUR|6NUR_protein|mol2

> <Gold.PLP.Fitness>
50.7177

> <Gold.PLP.PLP>
-45.4511

> <Gold.PLP.part.hbond>
-1.1807

> <Gold.PLP.part.metal>
0.0000

> <Gold.PLP.part.buried>
-2.2866

> <Gold.PLP.part.nonpolar>
-40.3857

> <Gold.PLP.part.repulsive>
0.0909

> <Gold.PLP.ligand.clash>
0.0000

> <Gold.PLP.ligand.torsion>
0.5432

> <Gold.PLP.Chemscore.Hbond>
1.0000

> <Gold.PLP.Chemscore.CHOScore>
0.9992

> <Gold.PLP.Chemscore.Metal>
0.0000

> <Gold.Chemscore.Hbonds>
donor molecule, donor type, donor heavy atom, donor atom, acceptor molecule, acceptor atom, score
      L1  H     8    36       P1  8028  1.00
      L1  C    13    39       P1  8028  0.97
      L1  C    13    39       P1  8029  0.01

> <Gold.PLP.Chemscore.Internal.Correction>
0.3554

> <Gold.Rescore>
     Score         DG    S(hbond)    S(metal)    S(lipo)     H(rot)  DE(clash)    DE(int)     intcor
     12.85     -16.68       1.05        0.00      99.14       1.52       0.43       3.40       ----

> <Gold.Chemscore.Fitness>
12.8452

> <Gold.Chemscore.DG>
-16.6801

> <Gold.Chemscore.ZeroCoef>
-5.4800

> <Gold.Chemscore.Hbond>
1.0486

> <Gold.Chemscore.Metal>
0.0000

> <Gold.Chemscore.Lipo>
99.1432

> <Gold.Chemscore.Internal_Hbond>
0.0000

> <Gold.Chemscore.DEClash>
0.4332

> <Gold.Chemscore.DEInternal>
3.4018

> <Gold.Chemscore.Rot>
1.5242

> <Gold.Chemscore.Internal.Correction>
   9.000000E+99

> <Gold.Chemscore.Hbonds>
donor molecule, donor type, donor heavy atom, donor atom, acceptor molecule, acceptor atom, score
      L1  H     8    36       P1  8028  0.97

> <Gold.Chemscore.Hbond.Weighted>
-3.5023

> <Gold.Chemscore.Metal.Weighted>
-0.0000

> <Gold.Chemscore.Lipo.Weighted>
-11.5998

> <Gold.Chemscore.Internal_Hbond.Weighted>
0.0000

> <Gold.Chemscore.DEClash.Weighted>
0.4332

> <Gold.Chemscore.DEInternal.Weighted>
3.4018

> <Gold.Chemscore.Rot.Weighted>
3.9019

> <Gold.Chemscore.Internal.Correction.Weighted>
   9.000000E+99

> <Gold.Protein.RotatedTorsions>
[ 6907 6896 6895 6894 ] final    7.52 input  -60.11 | X-H torsion
[ 7974 7965 7964 7962 ] final  -45.64 input  175.53 | X-H torsion
[ 8008 7997 7996 7995 ] final   52.04 input   59.86 | X-H torsion
[ 10167 10162 10161 10158 ] final -112.26 input  -65.29 | X-H torsion
[ 10718 10713 10712 10709 ] final -160.08 input   66.30 | X-H torsion
[ 10763 10752 10751 10750 ] final  158.64 input  -60.55 | X-H torsion
[ 11005 11000 10999 10996 ] final  -42.44 input  -57.11 | X-H torsion

> <Gold.Protein.ActiveResidues>
 VAL166  LYS551  ARG553  GLY616  TRP617  ASP618  TYR619  PRO620  LYS621  CYS622 
 ASP623  PHE694  ASN695  SER759  ASP760  ASP761  ALA762  ILE779  LEU786  VAL792 
 PHE793  MET794  SER795  GLU796  ALA797  LYS798  CYS799  TRP800  GLU811  SER814 

> <Gold.Protein.RotatedAtoms>
  151.6912  135.0946  160.0233 H   0  0  0  0  0  0  0  0  0  0  0  0  # atno 6907 bound_to 6896
  152.3777  133.6499  159.6145 H   0  0  0  0  0  0  0  0  0  0  0  0  # atno 6908 bound_to 6896
  150.7722  133.9082  159.3403 H   0  0  0  0  0  0  0  0  0  0  0  0  # atno 6909 bound_to 6896
  145.9800  140.7293  142.9368 H   0  0  0  0  0  0  0  0  0  0  0  0  # atno 7974 bound_to 7965
  155.4452  140.3456  155.4294 H   0  0  0  0  0  0  0  0  0  0  0  0  # atno 8008 bound_to 7997
  156.1254  140.1499  156.9173 H   0  0  0  0  0  0  0  0  0  0  0  0  # atno 8009 bound_to 7997
  154.4854  140.0857  156.7454 H   0  0  0  0  0  0  0  0  0  0  0  0  # atno 8010 bound_to 7997
  140.1247  143.4413  152.1668 H   0  0  0  0  0  0  0  0  0  0  0  0  # atno 10167 bound_to 10162
  156.5771  130.8713  151.2854 H   0  0  0  0  0  0  0  0  0  0  0  0  # atno 10718 bound_to 10713
  154.2192  135.2783  155.2931 H   0  0  0  0  0  0  0  0  0  0  0  0  # atno 10763 bound_to 10752
  154.5715  135.5617  153.7103 H   0  0  0  0  0  0  0  0  0  0  0  0  # atno 10764 bound_to 10752
  153.0045  135.6322  154.2332 H   0  0  0  0  0  0  0  0  0  0  0  0  # atno 10765 bound_to 10752
  141.0316  133.6818  156.2595 H   0  0  0  0  0  0  0  0  0  0  0  0  # atno 11005 bound_to 11000
  144.6859  140.2893  143.7280 LP  0  0  0  0  0  0  0  0  0  0  0  0  # atno 17320 bound_to 7965
  145.7782  139.1882  143.2173 LP  0  0  0  0  0  0  0  0  0  0  0  0  # atno 17321 bound_to 7965
  139.5550  144.7366  151.4320 LP  0  0  0  0  0  0  0  0  0  0  0  0  # atno 17342 bound_to 10162
  140.6852  143.7991  150.7176 LP  0  0  0  0  0  0  0  0  0  0  0  0  # atno 17343 bound_to 10162
  157.7335  130.9731  150.1981 LP  0  0  0  0  0  0  0  0  0  0  0  0  # atno 17370 bound_to 10713
  156.2664  130.3716  149.8077 LP  0  0  0  0  0  0  0  0  0  0  0  0  # atno 17371 bound_to 10713
  140.6397  134.5179  157.5568 LP  0  0  0  0  0  0  0  0  0  0  0  0  # atno 17394 bound_to 11000
  139.9212  134.8146  156.1207 LP  0  0  0  0  0  0  0  0  0  0  0  0  # atno 17395 bound_to 11000

$$$$
