AV-unprocessed.smi:3303|AV-procd|sdf|12684|dock4
  -GOLD-   2272019 23D 1   1.00000     0.00000
 Structure written by MMmdl.
 44 45  0  0  0  0  0  0  0  0  2 V2000
  152.0270  138.6685  154.1606 C   0  0  0  0  0  0  0  0  0  0  0  0
  150.9137  139.7303  154.1230 C   0  0  1  0  0  0  0  0  0  0  0  0
  149.5234  139.1124  153.8775 C   0  0  0  0  0  0  0  0  0  0  0  0
  148.4874  140.1657  153.7370 N   0  3  1  0  0  0  0  0  0  0  0  0
  147.1897  139.6350  153.2610 C   0  0  0  0  0  0  0  0  0  0  0  0
  148.3834  141.0587  154.9260 C   0  0  1  0  0  0  0  0  0  0  0  0
  147.7144  140.3899  156.1470 C   0  0  0  0  0  0  0  0  0  0  0  0
  149.7567  141.6883  155.2548 C   0  0  0  0  0  0  0  0  0  0  0  0
  150.9167  140.6685  155.3522 C   0  0  1  0  0  0  0  0  0  0  0  0
  150.8908  139.9027  156.5959 N   0  0  0  0  0  0  0  0  0  0  0  0
  150.7839  140.7539  157.7724 C   0  0  0  0  0  0  0  0  0  0  0  0
  152.1522  141.3777  158.0765 C   0  0  0  0  0  0  0  0  0  0  0  0
  152.0500  142.5112  159.0790 C   0  0  0  0  0  0  0  0  0  0  0  0
  151.5800  143.7818  158.6834 C   0  0  0  0  0  0  0  0  0  0  0  0
  151.5134  144.8032  159.6507 C   0  0  0  0  0  0  0  0  0  0  0  0
  151.9183  144.5167  160.9687 C   0  0  0  0  0  0  0  0  0  0  0  0
  152.3745  143.2160  161.2619 C   0  0  0  0  0  0  0  0  0  0  0  0
  152.4427  142.2295  160.3419 N   0  0  0  0  0  0  0  0  0  0  0  0
  151.8656  137.9394  154.9552 H   0  0  0  0  0  0  0  0  0  0  0  0
  153.0027  139.1280  154.3212 H   0  0  0  0  0  0  0  0  0  0  0  0
  152.0743  138.1200  153.2194 H   0  0  0  0  0  0  0  0  0  0  0  0
  151.1298  140.3595  153.2579 H   0  0  0  0  0  0  0  0  0  0  0  0
  149.5520  138.5222  152.9605 H   0  0  0  0  0  0  0  0  0  0  0  0
  149.2572  138.4231  154.6794 H   0  0  0  0  0  0  0  0  0  0  0  0
  146.7865  138.8895  153.9471 H   0  0  0  0  0  0  0  0  0  0  0  0
  147.3087  139.1617  152.2860 H   0  0  0  0  0  0  0  0  0  0  0  0
  146.4587  140.4369  153.1519 H   0  0  0  0  0  0  0  0  0  0  0  0
  147.7311  141.8837  154.6364 H   0  0  0  0  0  0  0  0  0  0  0  0
  147.7083  141.0669  157.0016 H   0  0  0  0  0  0  0  0  0  0  0  0
  148.2234  139.4792  156.4587 H   0  0  0  0  0  0  0  0  0  0  0  0
  146.6753  140.1316  155.9439 H   0  0  0  0  0  0  0  0  0  0  0  0
  150.0022  142.3817  154.4493 H   0  0  0  0  0  0  0  0  0  0  0  0
  149.6859  142.3124  156.1450 H   0  0  0  0  0  0  0  0  0  0  0  0
  151.8597  141.2175  155.3356 H   0  0  0  0  0  0  0  0  0  0  0  0
  151.7451  139.3681  156.6690 H   0  0  0  0  0  0  0  0  0  0  0  0
  150.0492  141.5398  157.5926 H   0  0  0  0  0  0  0  0  0  0  0  0
  150.4470  140.1790  158.6341 H   0  0  0  0  0  0  0  0  0  0  0  0
  152.8322  140.6178  158.4641 H   0  0  0  0  0  0  0  0  0  0  0  0
  152.6057  141.7575  157.1597 H   0  0  0  0  0  0  0  0  0  0  0  0
  151.2788  143.9720  157.6637 H   0  0  0  0  0  0  0  0  0  0  0  0
  151.1590  145.7885  159.3861 H   0  0  0  0  0  0  0  0  0  0  0  0
  151.8808  145.2752  161.7364 H   0  0  0  0  0  0  0  0  0  0  0  0
  152.6938  142.9616  162.2617 H   0  0  0  0  0  0  0  0  0  0  0  0
  148.8174  140.7618  152.9914 H   0  0  0  0  0  0  0  0  0  0  0  0
  1  2  1  0  0  0  0
  1 19  1  0  0  0  0
  1 20  1  0  0  0  0
  1 21  1  0  0  0  0
  2  9  1  0  0  0  0
  2  3  1  0  0  0  0
  2 22  1  0  0  0  0
  3  4  1  0  0  0  0
  3 23  1  0  0  0  0
  3 24  1  0  0  0  0
  4  5  1  0  0  0  0
  4  6  1  0  0  0  0
  4 44  1  0  0  0  0
  5 25  1  0  0  0  0
  5 26  1  0  0  0  0
  5 27  1  0  0  0  0
  6  7  1  0  0  0  0
  6  8  1  0  0  0  0
  6 28  1  0  0  0  0
  7 29  1  0  0  0  0
  7 30  1  0  0  0  0
  7 31  1  0  0  0  0
  8  9  1  0  0  0  0
  8 32  1  0  0  0  0
  8 33  1  0  0  0  0
  9 10  1  0  0  0  0
  9 34  1  0  0  0  0
 10 11  1  0  0  0  0
 10 35  1  0  0  0  0
 11 12  1  0  0  0  0
 11 36  1  0  0  0  0
 11 37  1  0  0  0  0
 12 13  1  0  0  0  0
 12 38  1  0  0  0  0
 12 39  1  0  0  0  0
 13 18  1  0  0  0  0
 13 14  2  0  0  0  0
 14 15  1  0  0  0  0
 14 40  1  0  0  0  0
 15 16  2  0  0  0  0
 15 41  1  0  0  0  0
 16 17  1  0  0  0  0
 16 42  1  0  0  0  0
 17 18  2  0  0  0  0
 17 43  1  0  0  0  0
M  CHG  1   4   1
M  END
> <s_m_source_file>
AV-unprocessed.smi

> <i_m_source_file_index>
3303

> <i_lp_mmshare_version>
43012

> <i_f3d_flags>
0

> <s_epik_input>
W0NIM11bQ0BASF0xW0NIMl1OKFtDSDNdKVtDQEBIXShbQ0gzXSlbQ0gyXVtDQEhdMVtOSF1bQ0gyXVtDSDJdYzJbY0hdW2NIXVtjSF1bY0hdbjI=

> <s_epik_cmdline>
J2VwaWtfcHl0aG9uJywgJy1waCcsICc3LjAnLCAnLXRuJywgJzgnLCAnLW1hJywgJzIwMCcsICctbWV0YWxfYmluZGluZycsICctaW1hZScsICc8aW5maWxlLm1hZT4nLCAnLW9tYWUnLCAnPG91dGZpbGUubWFlPic=

> <r_epik_Ionization_Penalty>
2.31085

> <r_epik_Ionization_Penalty_Charging>
0.000313057

> <r_epik_Ionization_Penalty_Neutral>
2.31054

> <r_epik_State_Penalty>
2.4087

> <r_epik_Charging_Adjusted_Penalty>
2.40902

> <i_epik_Tot_Q>
1

> <i_epik_Tot_abs_Q>
1

> <r_epik_Metal_State_Penalty>
2.30979

> <b_epik_Metal_Only>
0

> <s_lp_Force_Field>
OPLS_2005

> <r_lp_Energy>
26.6876

> <b_lp_Chiralities_Consistent>
1

> <s_lp_Variant>
AV-unprocessed.smi:3303-28

> <Gold.Version>
5.8.1

> <Gold.Id.Protein>
6NUR|6NUR_protein|mol2

> <Gold.PLP.Fitness>
44.6052

> <Gold.PLP.PLP>
-42.3291

> <Gold.PLP.part.hbond>
-1.0000

> <Gold.PLP.part.metal>
0.0000

> <Gold.PLP.part.buried>
-3.5808

> <Gold.PLP.part.nonpolar>
-37.3138

> <Gold.PLP.part.repulsive>
0.1139

> <Gold.PLP.ligand.clash>
0.0000

> <Gold.PLP.ligand.torsion>
0.3678

> <Gold.PLP.Chemscore.Hbond>
1.0000

> <Gold.PLP.Chemscore.CHOScore>
0.0000

> <Gold.PLP.Chemscore.Metal>
0.0000

> <Gold.Chemscore.Hbonds>
donor molecule, donor type, donor heavy atom, donor atom, acceptor molecule, acceptor atom, score
      L1  H     4    44       P1  7957  0.39

> <Gold.PLP.Chemscore.Internal.Correction>
0.0117

> <Gold.Rescore>
     Score         DG    S(hbond)    S(metal)    S(lipo)     H(rot)  DE(clash)    DE(int)     intcor
     19.48     -19.93       0.97        0.00     124.87       1.33       0.33       0.12       ----

> <Gold.Chemscore.Fitness>
19.4760

> <Gold.Chemscore.DG>
-19.9294

> <Gold.Chemscore.ZeroCoef>
-5.4800

> <Gold.Chemscore.Hbond>
0.9693

> <Gold.Chemscore.Metal>
0.0000

> <Gold.Chemscore.Lipo>
124.8689

> <Gold.Chemscore.Internal_Hbond>
0.0000

> <Gold.Chemscore.DEClash>
0.3326

> <Gold.Chemscore.DEInternal>
0.1207

> <Gold.Chemscore.Rot>
1.3272

> <Gold.Chemscore.Internal.Correction>
   9.000000E+99

> <Gold.Chemscore.Hbonds>
donor molecule, donor type, donor heavy atom, donor atom, acceptor molecule, acceptor atom, score
      L1  H     4    44       P1  7957  0.39

> <Gold.Chemscore.Hbond.Weighted>
-3.2373

> <Gold.Chemscore.Metal.Weighted>
-0.0000

> <Gold.Chemscore.Lipo.Weighted>
-14.6097

> <Gold.Chemscore.Internal_Hbond.Weighted>
0.0000

> <Gold.Chemscore.DEClash.Weighted>
0.3326

> <Gold.Chemscore.DEInternal.Weighted>
0.1207

> <Gold.Chemscore.Rot.Weighted>
3.3976

> <Gold.Chemscore.Internal.Correction.Weighted>
   9.000000E+99

> <Gold.Protein.RotatedTorsions>
[ 6907 6896 6895 6894 ] final  -16.05 input  -60.11 | X-H torsion
[ 7974 7965 7964 7962 ] final   47.63 input  175.53 | X-H torsion
[ 8008 7997 7996 7995 ] final   68.88 input   59.86 | X-H torsion
[ 10167 10162 10161 10158 ] final   41.94 input  -65.29 | X-H torsion
[ 10718 10713 10712 10709 ] final  160.78 input   66.30 | X-H torsion
[ 10763 10752 10751 10750 ] final   11.40 input  -60.55 | X-H torsion
[ 11005 11000 10999 10996 ] final -152.58 input  -57.11 | X-H torsion

> <Gold.Protein.ActiveResidues>
 VAL166  LYS551  ARG553  GLY616  TRP617  ASP618  TYR619  PRO620  LYS621  CYS622 
 ASP623  PHE694  ASN695  SER759  ASP760  ASP761  ALA762  ILE779  LEU786  VAL792 
 PHE793  MET794  SER795  GLU796  ALA797  LYS798  CYS799  TRP800  GLU811  SER814 

> <Gold.Protein.RotatedAtoms>
  151.3146  135.0803  159.9283 H   0  0  0  0  0  0  0  0  0  0  0  0  # atno 6907 bound_to 6896
  152.5270  133.9701  159.7768 H   0  0  0  0  0  0  0  0  0  0  0  0  # atno 6908 bound_to 6896
  151.0011  133.6003  159.2725 H   0  0  0  0  0  0  0  0  0  0  0  0  # atno 6909 bound_to 6896
  146.0279  139.4729  142.9856 H   0  0  0  0  0  0  0  0  0  0  0  0  # atno 7974 bound_to 7965
  155.7150  140.3494  155.4990 H   0  0  0  0  0  0  0  0  0  0  0  0  # atno 8008 bound_to 7997
  155.9321  140.1086  157.1145 H   0  0  0  0  0  0  0  0  0  0  0  0  # atno 8009 bound_to 7997
  154.4087  140.1229  156.4803 H   0  0  0  0  0  0  0  0  0  0  0  0  # atno 8010 bound_to 7997
  140.3594  144.2248  150.6139 H   0  0  0  0  0  0  0  0  0  0  0  0  # atno 10167 bound_to 10162
  157.1457  131.0551  151.2305 H   0  0  0  0  0  0  0  0  0  0  0  0  # atno 10718 bound_to 10713
  153.1930  135.6845  153.8328 H   0  0  0  0  0  0  0  0  0  0  0  0  # atno 10763 bound_to 10752
  153.7621  135.3208  155.3340 H   0  0  0  0  0  0  0  0  0  0  0  0  # atno 10764 bound_to 10752
  154.8128  135.4706  154.0661 H   0  0  0  0  0  0  0  0  0  0  0  0  # atno 10765 bound_to 10752
  140.7173  134.3766  157.5189 H   0  0  0  0  0  0  0  0  0  0  0  0  # atno 11005 bound_to 11000
  145.7088  141.0113  143.1465 LP  0  0  0  0  0  0  0  0  0  0  0  0  # atno 17320 bound_to 7965
  144.7017  139.8732  143.7442 LP  0  0  0  0  0  0  0  0  0  0  0  0  # atno 17321 bound_to 7965
  140.5142  143.2282  151.8489 LP  0  0  0  0  0  0  0  0  0  0  0  0  # atno 17342 bound_to 10162
  139.4816  144.4914  151.9180 LP  0  0  0  0  0  0  0  0  0  0  0  0  # atno 17343 bound_to 10162
  157.4266  130.7467  149.6956 LP  0  0  0  0  0  0  0  0  0  0  0  0  # atno 17370 bound_to 10713
  155.9780  130.4056  150.3677 LP  0  0  0  0  0  0  0  0  0  0  0  0  # atno 17371 bound_to 10713
  139.8857  134.8931  156.2630 LP  0  0  0  0  0  0  0  0  0  0  0  0  # atno 17394 bound_to 11000
  141.0033  133.7138  156.0995 LP  0  0  0  0  0  0  0  0  0  0  0  0  # atno 17395 bound_to 11000

$$$$
