AV-unprocessed.smi:21|AV-procd|sdf|144|dock4
  -GOLD-   2262015353D 1   1.00000     0.00000
 Structure written by MMmdl.
 62 65  0  0  0  0  0  0  0  0  2 V2000
  146.1806  129.3090  151.7608 C   0  0  0  0  0  0  0  0  0  0  0  0
  145.4954  130.4504  152.2521 O   0  0  0  0  0  0  0  0  0  0  0  0
  145.3412  131.4862  151.2903 C   0  0  2  0  0  0  0  0  0  0  0  0
  146.2246  132.6936  151.6076 C   0  0  0  0  0  0  0  0  0  0  0  0
  145.4348  133.5123  152.6453 C   0  0  2  0  0  0  0  0  0  0  0  0
  145.9415  133.3370  154.0928 C   0  0  0  0  0  0  0  0  0  0  0  0
  147.2268  133.9968  154.3401 N   0  0  0  0  0  0  0  0  0  0  0  0
  148.4507  133.3393  153.8972 C   0  0  0  0  0  0  0  0  0  0  0  0
  147.2731  135.2417  154.9008 C   0  0  0  0  0  0  0  0  0  0  0  0
  146.1034  135.9194  155.0614 N   0  0  0  0  0  0  0  0  0  0  0  0
  146.0823  137.1414  155.5985 C   0  0  0  0  0  0  0  0  0  0  0  0
  147.1037  137.8729  156.0407 N   0  0  0  0  0  0  0  0  0  0  0  0
  148.2844  137.2098  155.8893 C   0  0  0  0  0  0  0  0  0  0  0  0
  148.4629  135.9070  155.3361 C   0  0  0  0  0  0  0  0  0  0  0  0
  149.8187  135.5891  155.3471 N   0  0  0  0  0  0  0  0  0  0  0  0
  150.3993  136.6315  155.8741 C   0  0  0  0  0  0  0  0  0  0  0  0
  149.5495  137.6505  156.2328 N   0  0  0  0  0  0  0  0  0  0  0  0
  149.9138  138.9227  156.8303 C   0  0  0  0  0  0  0  0  0  0  0  0
  150.3459  140.0006  155.8009 C   0  0  1  0  0  0  0  0  0  0  0  0
  149.2138  140.3416  154.7981 C   0  0  0  0  0  0  0  0  0  0  0  0
  149.7232  140.7652  153.5504 O   0  0  0  0  0  0  0  0  0  0  0  0
  150.8469  141.2770  156.5259 C   0  0  2  0  0  0  0  0  0  0  0  0
  151.9575  141.0379  157.5502 C   0  0  0  0  0  0  0  0  0  0  0  0
  151.6482  141.9983  158.7025 C   0  0  0  0  0  0  0  0  0  0  0  0
  150.5709  142.7987  158.2438 O   0  0  0  0  0  0  0  0  0  0  0  0
  149.7940  141.9953  157.3743 C   0  0  0  0  0  0  0  0  0  0  0  0
  144.0319  133.0405  152.5512 N   0  3  1  0  0  0  0  0  0  0  0  0
  143.0225  134.1195  152.4962 C   0  0  0  0  0  0  0  0  0  0  0  0
  143.9385  132.0678  151.4428 C   0  0  0  0  0  0  0  0  0  0  0  0
  145.4993  131.1019  150.2812 H   0  0  0  0  0  0  0  0  0  0  0  0
  145.4864  134.5655  152.3650 H   0  0  0  0  0  0  0  0  0  0  0  0
  146.2439  128.5574  152.5475 H   0  0  0  0  0  0  0  0  0  0  0  0
  147.1970  129.5472  151.4480 H   0  0  0  0  0  0  0  0  0  0  0  0
  145.6509  128.8648  150.9172 H   0  0  0  0  0  0  0  0  0  0  0  0
  147.2307  132.4279  151.9265 H   0  0  0  0  0  0  0  0  0  0  0  0
  146.3350  133.2907  150.7014 H   0  0  0  0  0  0  0  0  0  0  0  0
  145.2000  133.7138  154.7981 H   0  0  0  0  0  0  0  0  0  0  0  0
  146.0301  132.2740  154.3199 H   0  0  0  0  0  0  0  0  0  0  0  0
  149.1699  133.2731  154.7140 H   0  0  0  0  0  0  0  0  0  0  0  0
  148.9047  133.8859  153.0705 H   0  0  0  0  0  0  0  0  0  0  0  0
  148.2536  132.3243  153.5515 H   0  0  0  0  0  0  0  0  0  0  0  0
  145.1077  137.5984  155.6861 H   0  0  0  0  0  0  0  0  0  0  0  0
  151.4684  136.6836  156.0205 H   0  0  0  0  0  0  0  0  0  0  0  0
  149.0695  139.2828  157.4197 H   0  0  0  0  0  0  0  0  0  0  0  0
  150.7174  138.7207  157.5381 H   0  0  0  0  0  0  0  0  0  0  0  0
  151.1909  139.6069  155.2335 H   0  0  0  0  0  0  0  0  0  0  0  0
  148.5540  139.4859  154.6522 H   0  0  0  0  0  0  0  0  0  0  0  0
  148.5899  141.1552  155.1660 H   0  0  0  0  0  0  0  0  0  0  0  0
  149.5081  140.1135  152.9007 H   0  0  0  0  0  0  0  0  0  0  0  0
  151.2163  141.9881  155.7848 H   0  0  0  0  0  0  0  0  0  0  0  0
  151.9589  140.0104  157.9169 H   0  0  0  0  0  0  0  0  0  0  0  0
  152.9381  141.2358  157.1164 H   0  0  0  0  0  0  0  0  0  0  0  0
  151.3320  141.4447  159.5879 H   0  0  0  0  0  0  0  0  0  0  0  0
  152.5043  142.6159  158.9752 H   0  0  0  0  0  0  0  0  0  0  0  0
  149.1160  142.6089  156.7806 H   0  0  0  0  0  0  0  0  0  0  0  0
  149.2015  141.2886  157.9583 H   0  0  0  0  0  0  0  0  0  0  0  0
  143.1583  134.7418  151.6107 H   0  0  0  0  0  0  0  0  0  0  0  0
  143.0998  134.7564  153.3779 H   0  0  0  0  0  0  0  0  0  0  0  0
  142.0167  133.6993  152.4700 H   0  0  0  0  0  0  0  0  0  0  0  0
  143.6651  132.5897  150.5240 H   0  0  0  0  0  0  0  0  0  0  0  0
  143.1799  131.3078  151.6331 H   0  0  0  0  0  0  0  0  0  0  0  0
  143.8624  132.5145  153.3966 H   0  0  0  0  0  0  0  0  0  0  0  0
  1  2  1  0  0  0  0
  1 32  1  0  0  0  0
  1 33  1  0  0  0  0
  1 34  1  0  0  0  0
  2  3  1  0  0  0  0
  3 30  1  0  0  0  0
  3 29  1  0  0  0  0
  3  4  1  0  0  0  0
  4  5  1  0  0  0  0
  4 35  1  0  0  0  0
  4 36  1  0  0  0  0
  5 31  1  0  0  0  0
  5  6  1  0  0  0  0
  5 27  1  0  0  0  0
  6  7  1  0  0  0  0
  6 37  1  0  0  0  0
  6 38  1  0  0  0  0
  7  8  1  0  0  0  0
  7  9  1  0  0  0  0
  8 39  1  0  0  0  0
  8 40  1  0  0  0  0
  8 41  1  0  0  0  0
  9 14  1  0  0  0  0
  9 10  2  0  0  0  0
 10 11  1  0  0  0  0
 11 12  2  0  0  0  0
 11 42  1  0  0  0  0
 12 13  1  0  0  0  0
 13 17  1  0  0  0  0
 13 14  2  0  0  0  0
 14 15  1  0  0  0  0
 15 16  2  0  0  0  0
 16 17  1  0  0  0  0
 16 43  1  0  0  0  0
 17 18  1  0  0  0  0
 18 19  1  0  0  0  0
 18 44  1  0  0  0  0
 18 45  1  0  0  0  0
 19 20  1  0  0  0  0
 19 22  1  0  0  0  0
 19 46  1  0  0  0  0
 20 21  1  0  0  0  0
 20 47  1  0  0  0  0
 20 48  1  0  0  0  0
 21 49  1  0  0  0  0
 22 26  1  0  0  0  0
 22 23  1  0  0  0  0
 22 50  1  0  0  0  0
 23 24  1  0  0  0  0
 23 51  1  0  0  0  0
 23 52  1  0  0  0  0
 24 25  1  0  0  0  0
 24 53  1  0  0  0  0
 24 54  1  0  0  0  0
 25 26  1  0  0  0  0
 26 55  1  0  0  0  0
 26 56  1  0  0  0  0
 27 28  1  0  0  0  0
 27 29  1  0  0  0  0
 27 62  1  0  0  0  0
 28 57  1  0  0  0  0
 28 58  1  0  0  0  0
 28 59  1  0  0  0  0
 29 60  1  0  0  0  0
 29 61  1  0  0  0  0
M  CHG  1  27   1
M  END
> <s_m_source_file>
AV-unprocessed.smi

> <i_m_source_file_index>
21

> <i_lp_mmshare_version>
43012

> <i_f3d_flags>
0

> <s_epik_input>
W0NIM11PW0NASF0xW0NIMl1bQ0BIXShOKFtDSDNdKVtDSDJdMSlbQ0gyXU4oW0NIM10pYyhuW2NIXW4yKWMoYzIzKW5bY0hdbjNbQ0gyXVtDQEhdKFtDSDJdW09IXSlbQ0BASF00W0NIMl1bQ0gyXU9bQ0gyXTQ=

> <s_epik_cmdline>
J2VwaWtfcHl0aG9uJywgJy1waCcsICc3LjAnLCAnLXRuJywgJzgnLCAnLW1hJywgJzIwMCcsICctbWV0YWxfYmluZGluZycsICctaW1hZScsICc8aW5maWxlLm1hZT4nLCAnLW9tYWUnLCAnPG91dGZpbGUubWFlPic=

> <r_lp_tautomer_probability>
1

> <r_epik_Ionization_Penalty>
0.0157465

> <r_epik_Ionization_Penalty_Charging>
0.015354

> <r_epik_Ionization_Penalty_Neutral>
0.000392529

> <r_epik_State_Penalty>
0.0120612

> <r_epik_Charging_Adjusted_Penalty>
0.0274152

> <i_epik_Tot_Q>
1

> <i_epik_Tot_abs_Q>
1

> <r_epik_Metal_State_Penalty>
0.0121253

> <b_epik_Metal_Only>
0

> <s_lp_Force_Field>
OPLS_2005

> <r_lp_Energy>
59.4837

> <b_lp_Chiralities_Consistent>
1

> <s_lp_Variant>
AV-unprocessed.smi:21-24

> <Gold.Version>
5.8.1

> <Gold.Id.Protein>
6NUR|6NUR_protein|mol2

> <Gold.PLP.Fitness>
45.1026

> <Gold.PLP.PLP>
-36.9727

> <Gold.PLP.part.hbond>
-3.4282

> <Gold.PLP.part.metal>
0.0000

> <Gold.PLP.part.buried>
-6.7905

> <Gold.PLP.part.nonpolar>
-27.6813

> <Gold.PLP.part.repulsive>
0.4677

> <Gold.PLP.ligand.clash>
0.0000

> <Gold.PLP.ligand.torsion>
1.7188

> <Gold.PLP.Chemscore.Hbond>
3.6630

> <Gold.PLP.Chemscore.CHOScore>
0.0000

> <Gold.PLP.Chemscore.Metal>
0.0000

> <Gold.Chemscore.Hbonds>
donor molecule, donor type, donor heavy atom, donor atom, acceptor molecule, acceptor atom, score
      L1  H    21    49       P1  7957  0.69
      L1  H    27    62       P1 10957  2.00
      P1  H  7989  7998       L1    21  0.38
      P1  H  8011  8017       L1    21  0.91

> <Gold.PLP.Chemscore.Internal.Correction>
0.5785

> <Gold.Rescore>
     Score         DG    S(hbond)    S(metal)    S(lipo)     H(rot)  DE(clash)    DE(int)     intcor
     11.74     -14.85       1.98        0.00      90.90       3.08       0.09       3.01       ----

> <Gold.Chemscore.Fitness>
11.7441

> <Gold.Chemscore.DG>
-14.8482

> <Gold.Chemscore.ZeroCoef>
-5.4800

> <Gold.Chemscore.Hbond>
1.9781

> <Gold.Chemscore.Metal>
0.0000

> <Gold.Chemscore.Lipo>
90.9014

> <Gold.Chemscore.Internal_Hbond>
0.0000

> <Gold.Chemscore.DEClash>
0.0935

> <Gold.Chemscore.DEInternal>
3.0106

> <Gold.Chemscore.Rot>
3.0758

> <Gold.Chemscore.Internal.Correction>
   9.000000E+99

> <Gold.Chemscore.Hbonds>
donor molecule, donor type, donor heavy atom, donor atom, acceptor molecule, acceptor atom, score
      L1  H    21    49       P1  7957  0.68
      L1  H    27    62       P1 10957  0.24
      P1  H  7989  7998       L1    21  0.15
      P1  H  8011  8017       L1    21  0.19

> <Gold.Chemscore.Hbond.Weighted>
-6.6069

> <Gold.Chemscore.Metal.Weighted>
-0.0000

> <Gold.Chemscore.Lipo.Weighted>
-10.6355

> <Gold.Chemscore.Internal_Hbond.Weighted>
0.0000

> <Gold.Chemscore.DEClash.Weighted>
0.0935

> <Gold.Chemscore.DEInternal.Weighted>
3.0106

> <Gold.Chemscore.Rot.Weighted>
7.8741

> <Gold.Chemscore.Internal.Correction.Weighted>
   9.000000E+99

> <Gold.Protein.RotatedTorsions>
[ 6907 6896 6895 6894 ] final   90.53 input  -60.11 | X-H torsion
[ 7974 7965 7964 7962 ] final  113.29 input  175.53 | X-H torsion
[ 8008 7997 7996 7995 ] final  -29.44 input   59.86 | X-H torsion
[ 10167 10162 10161 10158 ] final   50.25 input  -65.29 | X-H torsion
[ 10718 10713 10712 10709 ] final  -49.78 input   66.30 | X-H torsion
[ 10763 10752 10751 10750 ] final   32.83 input  -60.55 | X-H torsion
[ 11005 11000 10999 10996 ] final  -49.51 input  -57.11 | X-H torsion

> <Gold.Protein.ActiveResidues>
 VAL166  LYS551  ARG553  GLY616  TRP617  ASP618  TYR619  PRO620  LYS621  CYS622 
 ASP623  PHE694  ASN695  SER759  ASP760  ASP761  ALA762  ILE779  LEU786  VAL792 
 PHE793  MET794  SER795  GLU796  ALA797  LYS798  CYS799  TRP800  GLU811  SER814 

> <Gold.Protein.RotatedAtoms>
  152.5445  134.1797  159.8630 H   0  0  0  0  0  0  0  0  0  0  0  0  # atno 6907 bound_to 6896
  151.1800  133.4724  159.2601 H   0  0  0  0  0  0  0  0  0  0  0  0  # atno 6908 bound_to 6896
  151.1188  135.0079  159.8584 H   0  0  0  0  0  0  0  0  0  0  0  0  # atno 6909 bound_to 6896
  145.2189  139.2871  143.4229 H   0  0  0  0  0  0  0  0  0  0  0  0  # atno 7974 bound_to 7965
  154.4290  140.1818  156.1248 H   0  0  0  0  0  0  0  0  0  0  0  0  # atno 8008 bound_to 7997
  156.0114  140.3350  155.6920 H   0  0  0  0  0  0  0  0  0  0  0  0  # atno 8009 bound_to 7997
  155.6105  140.0649  157.2698 H   0  0  0  0  0  0  0  0  0  0  0  0  # atno 8010 bound_to 7997
  140.2743  144.3229  150.6281 H   0  0  0  0  0  0  0  0  0  0  0  0  # atno 10167 bound_to 10162
  156.1861  130.4151  149.9437 H   0  0  0  0  0  0  0  0  0  0  0  0  # atno 10718 bound_to 10713
  153.0242  135.6403  154.1417 H   0  0  0  0  0  0  0  0  0  0  0  0  # atno 10763 bound_to 10752
  154.1148  135.2850  155.3224 H   0  0  0  0  0  0  0  0  0  0  0  0  # atno 10764 bound_to 10752
  154.6306  135.5494  153.7738 H   0  0  0  0  0  0  0  0  0  0  0  0  # atno 10765 bound_to 10752
  141.0763  133.6665  156.3596 H   0  0  0  0  0  0  0  0  0  0  0  0  # atno 11005 bound_to 11000
  146.3381  140.2488  142.8598 LP  0  0  0  0  0  0  0  0  0  0  0  0  # atno 17320 bound_to 7965
  144.9785  140.8436  143.5412 LP  0  0  0  0  0  0  0  0  0  0  0  0  # atno 17321 bound_to 7965
  140.5864  143.2170  151.7335 LP  0  0  0  0  0  0  0  0  0  0  0  0  # atno 17342 bound_to 10162
  139.4980  144.4005  152.0186 LP  0  0  0  0  0  0  0  0  0  0  0  0  # atno 17343 bound_to 10162
  156.7192  130.9000  151.3616 LP  0  0  0  0  0  0  0  0  0  0  0  0  # atno 17370 bound_to 10713
  157.6900  130.9224  150.0488 LP  0  0  0  0  0  0  0  0  0  0  0  0  # atno 17371 bound_to 10713
  140.5565  134.5976  157.5422 LP  0  0  0  0  0  0  0  0  0  0  0  0  # atno 17394 bound_to 11000
  139.9576  134.7508  156.0308 LP  0  0  0  0  0  0  0  0  0  0  0  0  # atno 17395 bound_to 11000

$$$$
