AV-unprocessed.smi:1261|AV-procd|sdf|5306|dock1
  -GOLD-   22720 4423D 1   1.00000     0.00000
 Structure written by MMmdl.
 50 51  0  0  0  0  0  0  0  0  2 V2000
  146.1437  128.9176  152.5684 C   0  0  0  0  0  0  0  0  0  0  0  0
  146.5221  130.2335  151.8736 C   0  0  1  0  0  0  0  0  0  0  0  0
  145.2753  131.0643  151.5270 C   0  0  0  0  0  0  0  0  0  0  0  0
  145.6757  132.3874  150.8533 C   0  0  1  0  0  0  0  0  0  0  0  0
  144.4448  133.2412  150.5172 C   0  0  0  0  0  0  0  0  0  0  0  0
  146.6714  133.1569  151.7426 C   0  0  0  0  0  0  0  0  0  0  0  0
  147.8687  132.3338  152.0533 N   0  3  1  0  0  0  0  0  0  0  0  0
  148.9061  133.1056  152.7839 C   0  0  0  0  0  0  0  0  0  0  0  0
  148.4601  133.4909  154.2045 C   0  0  0  0  0  0  0  0  0  0  0  0
  149.5762  134.1896  154.9981 C   0  0  0  0  0  0  0  0  0  0  0  0
  149.7070  135.5884  154.6108 N   0  0  0  0  0  0  0  0  0  0  0  0
  150.6955  136.4121  155.0001 C   0  0  0  0  0  0  0  0  0  0  0  0
  151.5980  136.0545  155.7566 O   0  0  0  0  0  0  0  0  0  0  0  0
  150.6977  137.8545  154.4631 C   0  0  0  0  0  0  0  0  0  0  0  0
  150.7076  138.9047  155.4950 N   0  0  0  0  0  0  0  0  0  0  0  0
  149.5592  138.9467  156.2714 N   0  0  0  0  0  0  0  0  0  0  0  0
  149.4491  139.8215  157.2136 C   0  0  0  0  0  0  0  0  0  0  0  0
  148.2947  139.8293  157.9574 O   0  0  0  0  0  0  0  0  0  0  0  0
  150.5084  140.7693  157.4823 C   0  0  0  0  0  0  0  0  0  0  0  0
  151.6227  140.7217  156.7198 C   0  0  0  0  0  0  0  0  0  0  0  0
  151.7783  139.7450  155.6403 C   0  0  0  0  0  0  0  0  0  0  0  0
  152.7748  139.6891  154.9203 O   0  0  0  0  0  0  0  0  0  0  0  0
  147.4955  131.0641  152.7322 C   0  0  0  0  0  0  0  0  0  0  0  0
  147.7807  139.1062  157.6327 H   0  0  0  0  0  0  0  0  0  0  0  0
  145.6323  129.1002  153.5141 H   0  0  0  0  0  0  0  0  0  0  0  0
  147.0281  128.3157  152.7796 H   0  0  0  0  0  0  0  0  0  0  0  0
  145.4813  128.3195  151.9419 H   0  0  0  0  0  0  0  0  0  0  0  0
  147.0286  129.9779  150.9414 H   0  0  0  0  0  0  0  0  0  0  0  0
  144.6201  130.4945  150.8668 H   0  0  0  0  0  0  0  0  0  0  0  0
  144.7023  131.2685  152.4331 H   0  0  0  0  0  0  0  0  0  0  0  0
  146.1763  132.1504  149.9130 H   0  0  0  0  0  0  0  0  0  0  0  0
  143.8933  133.5152  151.4172 H   0  0  0  0  0  0  0  0  0  0  0  0
  143.7617  132.7030  149.8595 H   0  0  0  0  0  0  0  0  0  0  0  0
  144.7318  134.1622  150.0092 H   0  0  0  0  0  0  0  0  0  0  0  0
  146.9798  134.0675  151.2268 H   0  0  0  0  0  0  0  0  0  0  0  0
  146.1920  133.4664  152.6731 H   0  0  0  0  0  0  0  0  0  0  0  0
  149.8089  132.4994  152.8711 H   0  0  0  0  0  0  0  0  0  0  0  0
  149.1846  133.9909  152.2099 H   0  0  0  0  0  0  0  0  0  0  0  0
  147.5919  134.1478  154.1614 H   0  0  0  0  0  0  0  0  0  0  0  0
  148.1426  132.5956  154.7408 H   0  0  0  0  0  0  0  0  0  0  0  0
  149.3537  134.1546  156.0649 H   0  0  0  0  0  0  0  0  0  0  0  0
  150.5274  133.6721  154.8612 H   0  0  0  0  0  0  0  0  0  0  0  0
  149.0006  135.9606  153.9923 H   0  0  0  0  0  0  0  0  0  0  0  0
  151.5680  137.9659  153.8139 H   0  0  0  0  0  0  0  0  0  0  0  0
  149.8342  137.9833  153.8081 H   0  0  0  0  0  0  0  0  0  0  0  0
  150.4034  141.4941  158.2762 H   0  0  0  0  0  0  0  0  0  0  0  0
  152.4220  141.4228  156.9102 H   0  0  0  0  0  0  0  0  0  0  0  0
  147.0477  131.2887  153.7019 H   0  0  0  0  0  0  0  0  0  0  0  0
  148.3858  130.4682  152.9293 H   0  0  0  0  0  0  0  0  0  0  0  0
  148.2742  132.0839  151.1626 H   0  0  0  0  0  0  0  0  0  0  0  0
  1  2  1  0  0  0  0
  1 25  1  0  0  0  0
  1 26  1  0  0  0  0
  1 27  1  0  0  0  0
  2 23  1  0  0  0  0
  2  3  1  0  0  0  0
  2 28  1  0  0  0  0
  3  4  1  0  0  0  0
  3 29  1  0  0  0  0
  3 30  1  0  0  0  0
  4  5  1  0  0  0  0
  4  6  1  0  0  0  0
  4 31  1  0  0  0  0
  5 32  1  0  0  0  0
  5 33  1  0  0  0  0
  5 34  1  0  0  0  0
  6  7  1  0  0  0  0
  6 35  1  0  0  0  0
  6 36  1  0  0  0  0
  7  8  1  0  0  0  0
  7 23  1  0  0  0  0
  7 50  1  0  0  0  0
  8  9  1  0  0  0  0
  8 37  1  0  0  0  0
  8 38  1  0  0  0  0
  9 10  1  0  0  0  0
  9 39  1  0  0  0  0
  9 40  1  0  0  0  0
 10 11  1  0  0  0  0
 10 41  1  0  0  0  0
 10 42  1  0  0  0  0
 11 12  1  0  0  0  0
 11 43  1  0  0  0  0
 12 13  2  0  0  0  0
 12 14  1  0  0  0  0
 14 44  1  0  0  0  0
 14 45  1  0  0  0  0
 14 15  1  0  0  0  0
 15 16  1  0  0  0  0
 15 21  1  0  0  0  0
 16 17  2  0  0  0  0
 17 18  1  0  0  0  0
 17 19  1  0  0  0  0
 18 24  1  0  0  0  0
 19 46  1  0  0  0  0
 19 20  2  0  0  0  0
 20 47  1  0  0  0  0
 20 21  1  0  0  0  0
 21 22  2  0  0  0  0
 23 48  1  0  0  0  0
 23 49  1  0  0  0  0
M  CHG  1   7   1
M  END
> <s_m_source_file>
AV-unprocessed.smi

> <i_m_source_file_index>
1261

> <i_lp_mmshare_version>
43012

> <i_f3d_flags>
0

> <s_epik_input>
W0NIM11bQ0BASF0xW0NIMl1bQ0BASF0oW0NIM10pW0NIMl1OKFtDSDJdMSlbQ0gyXVtDSDJdW0NIMl1bTkhdQyg9TylbQ0gyXW4yW25IXWMoPU8pW2NIXVtjSF1jMj1P

> <s_epik_cmdline>
J2VwaWtfcHl0aG9uJywgJy1waCcsICc3LjAnLCAnLXRuJywgJzgnLCAnLW1hJywgJzIwMCcsICctbWV0YWxfYmluZGluZycsICctaW1hZScsICc8aW5maWxlLm1hZT4nLCAnLW9tYWUnLCAnPG91dGZpbGUubWFlPic=

> <r_lp_tautomer_probability>
0.9996

> <r_epik_Ionization_Penalty>
2.1425

> <r_epik_Ionization_Penalty_Charging>
0.000312112

> <r_epik_Ionization_Penalty_Neutral>
2.14218

> <r_epik_State_Penalty>
1.71978

> <r_epik_Charging_Adjusted_Penalty>
1.72009

> <i_epik_Tot_Q>
1

> <i_epik_Tot_abs_Q>
1

> <r_epik_Metal_State_Penalty>
1.71978

> <b_epik_Metal_Only>
0

> <s_lp_Force_Field>
OPLS_2005

> <r_lp_Energy>
26.9224

> <b_lp_Chiralities_Consistent>
1

> <s_lp_Variant>
AV-unprocessed.smi:1261-6

> <Gold.Version>
5.8.1

> <Gold.Id.Protein>
6NUR|6NUR_protein|mol2

> <Gold.PLP.Fitness>
52.9800

> <Gold.PLP.PLP>
-42.7801

> <Gold.PLP.part.hbond>
-5.4571

> <Gold.PLP.part.metal>
0.0000

> <Gold.PLP.part.buried>
-4.7467

> <Gold.PLP.part.nonpolar>
-31.7801

> <Gold.PLP.part.repulsive>
0.1202

> <Gold.PLP.ligand.clash>
0.0000

> <Gold.PLP.ligand.torsion>
0.1843

> <Gold.PLP.Chemscore.Hbond>
3.4896

> <Gold.PLP.Chemscore.CHOScore>
0.0000

> <Gold.PLP.Chemscore.Metal>
0.0000

> <Gold.Chemscore.Hbonds>
donor molecule, donor type, donor heavy atom, donor atom, acceptor molecule, acceptor atom, score
      L1  H     7    50       P1 10747  0.91
      L1  H    11    43       P1  7948  0.45
      P1  H  7989  7998       L1    22  0.15
      P1  H  7997  8009       L1    22  1.00
      P1  H 10752 10763       L1    13  1.00

> <Gold.PLP.Chemscore.Internal.Correction>
0.0997

> <Gold.Rescore>
     Score         DG    S(hbond)    S(metal)    S(lipo)     H(rot)  DE(clash)    DE(int)     intcor
     19.51     -19.87       3.52        0.00      91.21       3.14       0.18       0.18       ----

> <Gold.Chemscore.Fitness>
19.5095

> <Gold.Chemscore.DG>
-19.8702

> <Gold.Chemscore.ZeroCoef>
-5.4800

> <Gold.Chemscore.Hbond>
3.5164

> <Gold.Chemscore.Metal>
0.0000

> <Gold.Chemscore.Lipo>
91.2085

> <Gold.Chemscore.Internal_Hbond>
0.0000

> <Gold.Chemscore.DEClash>
0.1778

> <Gold.Chemscore.DEInternal>
0.1829

> <Gold.Chemscore.Rot>
3.1352

> <Gold.Chemscore.Internal.Correction>
   9.000000E+99

> <Gold.Chemscore.Hbonds>
donor molecule, donor type, donor heavy atom, donor atom, acceptor molecule, acceptor atom, score
      L1  H     7    50       P1 10747  0.89
      L1  H    11    43       P1  7948  0.44
      P1  H  7997  8009       L1    22  0.75
      P1  H 10752 10763       L1    13  0.78

> <Gold.Chemscore.Hbond.Weighted>
-11.7449

> <Gold.Chemscore.Metal.Weighted>
-0.0000

> <Gold.Chemscore.Lipo.Weighted>
-10.6714

> <Gold.Chemscore.Internal_Hbond.Weighted>
0.0000

> <Gold.Chemscore.DEClash.Weighted>
0.1778

> <Gold.Chemscore.DEInternal.Weighted>
0.1829

> <Gold.Chemscore.Rot.Weighted>
8.0260

> <Gold.Chemscore.Internal.Correction.Weighted>
   9.000000E+99

> <Gold.Protein.RotatedTorsions>
[ 6907 6896 6895 6894 ] final  -99.51 input  -60.11 | X-H torsion
[ 7974 7965 7964 7962 ] final    1.27 input  175.53 | X-H torsion
[ 8008 7997 7996 7995 ] final -138.34 input   59.86 | X-H torsion
[ 10167 10162 10161 10158 ] final  145.21 input  -65.29 | X-H torsion
[ 10718 10713 10712 10709 ] final  -58.13 input   66.30 | X-H torsion
[ 10763 10752 10751 10750 ] final   74.85 input  -60.55 | X-H torsion
[ 11005 11000 10999 10996 ] final   -2.29 input  -57.11 | X-H torsion

> <Gold.Protein.ActiveResidues>
 VAL166  LYS551  ARG553  GLY616  TRP617  ASP618  TYR619  PRO620  LYS621  CYS622 
 ASP623  PHE694  ASN695  SER759  ASP760  ASP761  ALA762  ILE779  LEU786  VAL792 
 PHE793  MET794  SER795  GLU796  ALA797  LYS798  CYS799  TRP800  GLU811  SER814 

> <Gold.Protein.RotatedAtoms>
  150.7082  134.1030  159.3972 H   0  0  0  0  0  0  0  0  0  0  0  0  # atno 6907 bound_to 6896
  151.9016  135.0373  160.0516 H   0  0  0  0  0  0  0  0  0  0  0  0  # atno 6908 bound_to 6896
  152.2409  133.5099  159.5306 H   0  0  0  0  0  0  0  0  0  0  0  0  # atno 6909 bound_to 6896
  146.2439  140.1012  142.8347 H   0  0  0  0  0  0  0  0  0  0  0  0  # atno 7974 bound_to 7965
  155.4267  140.0522  157.3021 H   0  0  0  0  0  0  0  0  0  0  0  0  # atno 8008 bound_to 7997
  154.4878  140.2108  155.9574 H   0  0  0  0  0  0  0  0  0  0  0  0  # atno 8009 bound_to 7997
  156.1300  140.3173  155.8339 H   0  0  0  0  0  0  0  0  0  0  0  0  # atno 8010 bound_to 7997
  139.4931  144.5917  151.6666 H   0  0  0  0  0  0  0  0  0  0  0  0  # atno 10167 bound_to 10162
  156.1158  130.4170  150.0534 H   0  0  0  0  0  0  0  0  0  0  0  0  # atno 10718 bound_to 10713
  153.0614  135.5010  154.8103 H   0  0  0  0  0  0  0  0  0  0  0  0  # atno 10763 bound_to 10752
  154.6889  135.2981  154.9510 H   0  0  0  0  0  0  0  0  0  0  0  0  # atno 10764 bound_to 10752
  154.0272  135.6734  153.4830 H   0  0  0  0  0  0  0  0  0  0  0  0  # atno 10765 bound_to 10752
  140.6568  133.9356  155.8412 H   0  0  0  0  0  0  0  0  0  0  0  0  # atno 11005 bound_to 11000
  145.0567  140.9057  143.4963 LP  0  0  0  0  0  0  0  0  0  0  0  0  # atno 17320 bound_to 7965
  145.1120  139.2751  143.5632 LP  0  0  0  0  0  0  0  0  0  0  0  0  # atno 17321 bound_to 7965
  140.5546  144.0369  150.6142 LP  0  0  0  0  0  0  0  0  0  0  0  0  # atno 17342 bound_to 10162
  140.3435  143.3005  152.0563 LP  0  0  0  0  0  0  0  0  0  0  0  0  # atno 17343 bound_to 10162
  156.8486  130.9451  151.3627 LP  0  0  0  0  0  0  0  0  0  0  0  0  # atno 17370 bound_to 10713
  157.6342  130.8753  149.9328 LP  0  0  0  0  0  0  0  0  0  0  0  0  # atno 17371 bound_to 10713
  141.0496  134.0504  157.3801 LP  0  0  0  0  0  0  0  0  0  0  0  0  # atno 17394 bound_to 11000
  139.9027  135.0170  156.7343 LP  0  0  0  0  0  0  0  0  0  0  0  0  # atno 17395 bound_to 11000

$$$$
