AV-unprocessed.smi:529|AV-procd|sdf|2840|dock9
  -GOLD-   2262023333D 1   1.00000     0.00000
 Structure written by MMmdl.
 30 31  0  0  0  0  0  0  0  0  1 V2000
  149.2959  142.0964  156.7611 N   0  0  0  0  0  0  0  0  0  0  0  0
  149.3288  141.0450  156.0202 C   0  0  0  0  0  0  0  0  0  0  0  0
  148.6726  140.8893  154.3220 S   0  0  0  0  0  0  0  0  0  0  0  0
  149.2171  139.2262  154.2733 C   0  0  0  0  0  0  0  0  0  0  0  0
  149.8101  138.8583  155.4078 C   0  0  0  0  0  0  0  0  0  0  0  0
  149.8864  139.8201  156.3946 N   0  0  0  0  0  0  0  0  0  0  0  0
  150.5427  139.5741  157.6793 C   0  0  0  0  0  0  0  0  0  0  0  0
  151.7099  140.5296  157.9634 C   0  0  0  0  0  0  0  0  0  0  0  0
  152.8785  140.1733  157.8054 O   0  0  0  0  0  0  0  0  0  0  0  0
  151.3696  141.7521  158.3985 N   0  0  0  0  0  0  0  0  0  0  0  0
  152.3133  142.8160  158.7309 C   0  0  0  0  0  0  0  0  0  0  0  0
  152.3153  143.1292  160.2421 C   0  0  0  0  0  0  0  0  0  0  0  0
  152.1725  144.6475  160.3615 C   0  0  0  0  0  0  0  0  0  0  0  0
  151.3868  145.0507  159.1179 C   0  0  0  0  0  0  0  0  0  0  0  0
  151.9227  144.1270  158.0240 C   0  0  0  0  0  0  0  0  0  0  0  0
  148.8431  142.8553  156.2733 H   0  0  0  0  0  0  0  0  0  0  0  0
  149.0668  138.6132  153.3972 H   0  0  0  0  0  0  0  0  0  0  0  0
  150.2333  137.8882  155.6241 H   0  0  0  0  0  0  0  0  0  0  0  0
  149.8165  139.6364  158.4913 H   0  0  0  0  0  0  0  0  0  0  0  0
  150.9239  138.5521  157.6974 H   0  0  0  0  0  0  0  0  0  0  0  0
  150.3880  141.9628  158.5065 H   0  0  0  0  0  0  0  0  0  0  0  0
  153.3133  142.5250  158.4039 H   0  0  0  0  0  0  0  0  0  0  0  0
  151.4657  142.6544  160.7357 H   0  0  0  0  0  0  0  0  0  0  0  0
  153.2168  142.7647  160.7354 H   0  0  0  0  0  0  0  0  0  0  0  0
  151.6826  144.9518  161.2868 H   0  0  0  0  0  0  0  0  0  0  0  0
  153.1589  145.1126  160.3377 H   0  0  0  0  0  0  0  0  0  0  0  0
  150.3248  144.8578  159.2759 H   0  0  0  0  0  0  0  0  0  0  0  0
  151.5018  146.1062  158.8705 H   0  0  0  0  0  0  0  0  0  0  0  0
  152.8143  144.5759  157.5842 H   0  0  0  0  0  0  0  0  0  0  0  0
  151.2041  143.9877  157.2152 H   0  0  0  0  0  0  0  0  0  0  0  0
  1  2  2  0  0  0  0
  1 16  1  0  0  0  0
  2  6  1  0  0  0  0
  2  3  1  0  0  0  0
  3  4  1  0  0  0  0
  4  5  2  0  0  0  0
  4 17  1  0  0  0  0
  5  6  1  0  0  0  0
  5 18  1  0  0  0  0
  6  7  1  0  0  0  0
  7  8  1  0  0  0  0
  7 19  1  0  0  0  0
  7 20  1  0  0  0  0
  8  9  2  0  0  0  0
  8 10  1  0  0  0  0
 10 11  1  0  0  0  0
 10 21  1  0  0  0  0
 11 15  1  0  0  0  0
 11 12  1  0  0  0  0
 11 22  1  0  0  0  0
 12 13  1  0  0  0  0
 12 23  1  0  0  0  0
 12 24  1  0  0  0  0
 13 14  1  0  0  0  0
 13 25  1  0  0  0  0
 13 26  1  0  0  0  0
 14 15  1  0  0  0  0
 14 27  1  0  0  0  0
 14 28  1  0  0  0  0
 15 29  1  0  0  0  0
 15 30  1  0  0  0  0
M  END
> <s_m_source_file>
AV-unprocessed.smi

> <i_m_source_file_index>
529

> <i_lp_mmshare_version>
43012

> <i_f3d_flags>
0

> <s_epik_input>
W0hdL049YzFcc1tjSF1bY0hdbjFbQ0gyXUMoPU8pW05IXVtDSF0yW0NIMl1bQ0gyXVtDSDJdW0NIMl0y

> <s_epik_cmdline>
J2VwaWtfcHl0aG9uJywgJy1waCcsICc3LjAnLCAnLXRuJywgJzgnLCAnLW1hJywgJzIwMCcsICctbWV0YWxfYmluZGluZycsICctaW1hZScsICc8aW5maWxlLm1hZT4nLCAnLW9tYWUnLCAnPG91dGZpbGUubWFlPic=

> <r_epik_Ionization_Penalty>
2.18041

> <r_epik_Ionization_Penalty_Charging>
2.18041

> <r_epik_Ionization_Penalty_Neutral>
1.25369e-07

> <r_epik_State_Penalty>
2.33404

> <r_epik_Charging_Adjusted_Penalty>
4.51444

> <i_epik_Tot_Q>
0

> <i_epik_Tot_abs_Q>
0

> <r_epik_Metal_State_Penalty>
2.33404

> <b_epik_Metal_Only>
0

> <s_lp_Force_Field>
OPLS_2005

> <r_lp_Energy>
15.3577

> <b_lp_Chiralities_Consistent>
1

> <s_lp_Variant>
AV-unprocessed.smi:529-2

> <Gold.Version>
5.8.1

> <Gold.Id.Protein>
6NUR|6NUR_protein|mol2

> <Gold.PLP.Fitness>
41.1301

> <Gold.PLP.PLP>
-32.5622

> <Gold.PLP.part.hbond>
-2.0000

> <Gold.PLP.part.metal>
0.0000

> <Gold.PLP.part.buried>
-1.4376

> <Gold.PLP.part.nonpolar>
-29.0072

> <Gold.PLP.part.repulsive>
0.0765

> <Gold.PLP.ligand.clash>
0.0000

> <Gold.PLP.ligand.torsion>
0.3405

> <Gold.PLP.Chemscore.Hbond>
2.0000

> <Gold.PLP.Chemscore.CHOScore>
1.0808

> <Gold.PLP.Chemscore.Metal>
0.0000

> <Gold.Chemscore.Hbonds>
donor molecule, donor type, donor heavy atom, donor atom, acceptor molecule, acceptor atom, score
      L1  H     1    16       P1  8028  0.99
      P1  H  7997  8010       L1     9  1.00
      L1  C     4    17       P1  7948  0.31
      L1  C     4    17       P1  7957  0.36

> <Gold.PLP.Chemscore.Internal.Correction>
0.0066

> <Gold.Rescore>
     Score         DG    S(hbond)    S(metal)    S(lipo)     H(rot)  DE(clash)    DE(int)     intcor
     17.69     -18.01       1.93        0.00      86.28       1.56       0.10       0.22       ----

> <Gold.Chemscore.Fitness>
17.6868

> <Gold.Chemscore.DG>
-18.0135

> <Gold.Chemscore.ZeroCoef>
-5.4800

> <Gold.Chemscore.Hbond>
1.9284

> <Gold.Chemscore.Metal>
0.0000

> <Gold.Chemscore.Lipo>
86.2825

> <Gold.Chemscore.Internal_Hbond>
0.0000

> <Gold.Chemscore.DEClash>
0.1045

> <Gold.Chemscore.DEInternal>
0.2221

> <Gold.Chemscore.Rot>
1.5635

> <Gold.Chemscore.Internal.Correction>
   9.000000E+99

> <Gold.Chemscore.Hbonds>
donor molecule, donor type, donor heavy atom, donor atom, acceptor molecule, acceptor atom, score
      L1  H     1    16       P1  8028  0.92
      P1  H  7997  8010       L1     9  0.94

> <Gold.Chemscore.Hbond.Weighted>
-6.4410

> <Gold.Chemscore.Metal.Weighted>
-0.0000

> <Gold.Chemscore.Lipo.Weighted>
-10.0951

> <Gold.Chemscore.Internal_Hbond.Weighted>
0.0000

> <Gold.Chemscore.DEClash.Weighted>
0.1045

> <Gold.Chemscore.DEInternal.Weighted>
0.2221

> <Gold.Chemscore.Rot.Weighted>
4.0025

> <Gold.Chemscore.Internal.Correction.Weighted>
   9.000000E+99

> <Gold.Protein.RotatedTorsions>
[ 6907 6896 6895 6894 ] final   -0.09 input  -60.11 | X-H torsion
[ 7974 7965 7964 7962 ] final -107.23 input  175.53 | X-H torsion
[ 8008 7997 7996 7995 ] final   47.33 input   59.86 | X-H torsion
[ 10167 10162 10161 10158 ] final -168.18 input  -65.29 | X-H torsion
[ 10718 10713 10712 10709 ] final  136.25 input   66.30 | X-H torsion
[ 10763 10752 10751 10750 ] final  -20.76 input  -60.55 | X-H torsion
[ 11005 11000 10999 10996 ] final  105.38 input  -57.11 | X-H torsion

> <Gold.Protein.ActiveResidues>
 VAL166  LYS551  ARG553  GLY616  TRP617  ASP618  TYR619  PRO620  LYS621  CYS622 
 ASP623  PHE694  ASN695  SER759  ASP760  ASP761  ALA762  ILE779  LEU786  VAL792 
 PHE793  MET794  SER795  GLU796  ALA797  LYS798  CYS799  TRP800  GLU811  SER814 

> <Gold.Protein.RotatedAtoms>
  151.5680  135.1063  159.9988 H   0  0  0  0  0  0  0  0  0  0  0  0  # atno 6907 bound_to 6896
  152.4415  133.7452  159.6674 H   0  0  0  0  0  0  0  0  0  0  0  0  # atno 6908 bound_to 6896
  150.8321  133.8005  159.3118 H   0  0  0  0  0  0  0  0  0  0  0  0  # atno 6909 bound_to 6896
  145.2079  140.9084  143.3331 H   0  0  0  0  0  0  0  0  0  0  0  0  # atno 7974 bound_to 7965
  155.3672  140.3422  155.4242 H   0  0  0  0  0  0  0  0  0  0  0  0  # atno 8008 bound_to 7997
  156.1682  140.1623  156.8528 H   0  0  0  0  0  0  0  0  0  0  0  0  # atno 8009 bound_to 7997
  154.5206  140.0768  156.8147 H   0  0  0  0  0  0  0  0  0  0  0  0  # atno 8010 bound_to 7997
  139.6002  144.1027  152.1734 H   0  0  0  0  0  0  0  0  0  0  0  0  # atno 10167 bound_to 10162
  157.4486  131.1064  151.0060 H   0  0  0  0  0  0  0  0  0  0  0  0  # atno 10718 bound_to 10713
  153.6255  135.6991  153.5295 H   0  0  0  0  0  0  0  0  0  0  0  0  # atno 10763 bound_to 10752
  153.2902  135.4159  155.1159 H   0  0  0  0  0  0  0  0  0  0  0  0  # atno 10764 bound_to 10752
  154.8534  135.3623  154.5797 H   0  0  0  0  0  0  0  0  0  0  0  0  # atno 10765 bound_to 10752
  139.8801  134.9333  156.5504 H   0  0  0  0  0  0  0  0  0  0  0  0  # atno 11005 bound_to 11000
  144.9884  139.3713  143.6227 LP  0  0  0  0  0  0  0  0  0  0  0  0  # atno 17320 bound_to 7965
  146.3404  139.9056  142.8788 LP  0  0  0  0  0  0  0  0  0  0  0  0  # atno 17321 bound_to 7965
  140.0622  144.5848  150.7255 LP  0  0  0  0  0  0  0  0  0  0  0  0  # atno 17342 bound_to 10162
  140.7243  143.2620  151.4172 LP  0  0  0  0  0  0  0  0  0  0  0  0  # atno 17343 bound_to 10162
  157.0898  130.5937  149.5437 LP  0  0  0  0  0  0  0  0  0  0  0  0  # atno 17370 bound_to 10713
  155.9978  130.5050  150.7546 LP  0  0  0  0  0  0  0  0  0  0  0  0  # atno 17371 bound_to 10713
  140.8244  133.8328  155.8925 LP  0  0  0  0  0  0  0  0  0  0  0  0  # atno 17394 bound_to 11000
  140.9388  134.1927  157.4812 LP  0  0  0  0  0  0  0  0  0  0  0  0  # atno 17395 bound_to 11000

$$$$
