AV-unprocessed.smi:381|AV-procd|sdf|2461|dock3
  -GOLD-   2262022403D 1   1.00000     0.00000
 Structure written by MMmdl.
 45 46  0  0  0  0  0  0  0  0  1 V2000
  150.4492  141.3115  155.6739 O   0  0  0  0  0  0  0  0  0  0  0  0
  149.7153  142.2690  155.9109 C   0  0  0  0  0  0  0  0  0  0  0  0
  148.5240  142.4497  155.3186 N   0  0  0  0  0  0  0  0  0  0  0  0
  147.9441  141.5399  154.3410 C   0  0  0  0  0  0  0  0  0  0  0  0
  146.4145  141.6617  154.3290 C   0  0  0  0  0  0  0  0  0  0  0  0
  145.7592  140.5371  153.5515 C   0  0  0  0  0  0  0  0  0  0  0  0
  145.0714  139.5028  154.2194 C   0  0  0  0  0  0  0  0  0  0  0  0
  144.4713  138.4833  153.4557 C   0  0  0  0  0  0  0  0  0  0  0  0
  144.5864  138.5410  152.0524 C   0  0  0  0  0  0  0  0  0  0  0  0
  145.2434  139.5255  151.4019 N   0  0  0  0  0  0  0  0  0  0  0  0
  145.8147  140.5002  152.1417 C   0  0  0  0  0  0  0  0  0  0  0  0
  150.0562  143.2198  156.8001 N   0  0  0  0  0  0  0  0  0  0  0  0
  151.2718  143.3261  157.6132 C   0  0  0  0  0  0  0  0  0  0  0  0
  151.4289  142.0142  158.4173 C   0  0  0  0  0  0  0  0  0  0  0  0
  152.5736  141.9734  159.4468 C   0  0  0  0  0  0  0  0  0  0  0  0
  152.1755  142.3489  160.8925 C   0  0  0  0  0  0  0  0  0  0  0  0
  152.2795  143.8451  161.2422 C   0  0  0  0  0  0  0  0  0  0  0  0
  151.0035  144.6893  161.0380 C   0  0  0  0  0  0  0  0  0  0  0  0
  150.2995  144.5724  159.6739 C   0  0  0  0  0  0  0  0  0  0  0  0
  151.2448  144.6208  158.4576 C   0  0  0  0  0  0  0  0  0  0  0  0
  147.9817  143.2630  155.5713 H   0  0  0  0  0  0  0  0  0  0  0  0
  148.3429  141.7620  153.3495 H   0  0  0  0  0  0  0  0  0  0  0  0
  148.2396  140.5190  154.5872 H   0  0  0  0  0  0  0  0  0  0  0  0
  146.0304  141.6642  155.3500 H   0  0  0  0  0  0  0  0  0  0  0  0
  146.1179  142.6133  153.8855 H   0  0  0  0  0  0  0  0  0  0  0  0
  145.0012  139.4919  155.2973 H   0  0  0  0  0  0  0  0  0  0  0  0
  143.9346  137.6773  153.9336 H   0  0  0  0  0  0  0  0  0  0  0  0
  144.1382  137.7759  151.4360 H   0  0  0  0  0  0  0  0  0  0  0  0
  146.3290  141.2741  151.5910 H   0  0  0  0  0  0  0  0  0  0  0  0
  149.3876  143.9660  156.9261 H   0  0  0  0  0  0  0  0  0  0  0  0
  152.1342  143.3881  156.9474 H   0  0  0  0  0  0  0  0  0  0  0  0
  150.4926  141.7326  158.8999 H   0  0  0  0  0  0  0  0  0  0  0  0
  151.6100  141.2191  157.6925 H   0  0  0  0  0  0  0  0  0  0  0  0
  152.9257  140.9415  159.4803 H   0  0  0  0  0  0  0  0  0  0  0  0
  153.4314  142.5538  159.1055 H   0  0  0  0  0  0  0  0  0  0  0  0
  151.1915  141.9555  161.1491 H   0  0  0  0  0  0  0  0  0  0  0  0
  152.8697  141.8258  161.5517 H   0  0  0  0  0  0  0  0  0  0  0  0
  152.5401  143.9240  162.2984 H   0  0  0  0  0  0  0  0  0  0  0  0
  153.1266  144.2905  160.7208 H   0  0  0  0  0  0  0  0  0  0  0  0
  150.2824  144.4383  161.8167 H   0  0  0  0  0  0  0  0  0  0  0  0
  151.2628  145.7348  161.2079 H   0  0  0  0  0  0  0  0  0  0  0  0
  149.6882  143.6714  159.6588 H   0  0  0  0  0  0  0  0  0  0  0  0
  149.5792  145.3870  159.5918 H   0  0  0  0  0  0  0  0  0  0  0  0
  152.2592  144.8702  158.7633 H   0  0  0  0  0  0  0  0  0  0  0  0
  150.9539  145.4589  157.8235 H   0  0  0  0  0  0  0  0  0  0  0  0
  1  2  2  0  0  0  0
  2  3  1  0  0  0  0
  2 12  1  0  0  0  0
  3  4  1  0  0  0  0
  3 21  1  0  0  0  0
  4  5  1  0  0  0  0
  4 22  1  0  0  0  0
  4 23  1  0  0  0  0
  5  6  1  0  0  0  0
  5 24  1  0  0  0  0
  5 25  1  0  0  0  0
  6 11  1  0  0  0  0
  6  7  2  0  0  0  0
  7  8  1  0  0  0  0
  7 26  1  0  0  0  0
  8  9  2  0  0  0  0
  8 27  1  0  0  0  0
  9 10  1  0  0  0  0
  9 28  1  0  0  0  0
 10 11  2  0  0  0  0
 11 29  1  0  0  0  0
 12 13  1  0  0  0  0
 12 30  1  0  0  0  0
 13 20  1  0  0  0  0
 13 14  1  0  0  0  0
 13 31  1  0  0  0  0
 14 15  1  0  0  0  0
 14 32  1  0  0  0  0
 14 33  1  0  0  0  0
 15 16  1  0  0  0  0
 15 34  1  0  0  0  0
 15 35  1  0  0  0  0
 16 17  1  0  0  0  0
 16 36  1  0  0  0  0
 16 37  1  0  0  0  0
 17 18  1  0  0  0  0
 17 38  1  0  0  0  0
 17 39  1  0  0  0  0
 18 19  1  0  0  0  0
 18 40  1  0  0  0  0
 18 41  1  0  0  0  0
 19 20  1  0  0  0  0
 19 42  1  0  0  0  0
 19 43  1  0  0  0  0
 20 44  1  0  0  0  0
 20 45  1  0  0  0  0
M  END
> <s_m_source_file>
AV-unprocessed.smi

> <i_m_source_file_index>
381

> <i_lp_mmshare_version>
43012

> <i_f3d_flags>
0

> <s_epik_input>
W0NIMl0xW0NIMl1bQ0gyXVtDSDJdW0NIMl1bQ0gyXVtDSDJdW0NIXTFbTkhdQyg9TylbTkhdW0NIMl1bQ0gyXWMyW2NIXVtjSF1bY0hdbltjSF0y

> <s_epik_cmdline>
J2VwaWtfcHl0aG9uJywgJy1waCcsICc3LjAnLCAnLXRuJywgJzgnLCAnLW1hJywgJzIwMCcsICctbWV0YWxfYmluZGluZycsICctaW1hZScsICc8aW5maWxlLm1hZT4nLCAnLW9tYWUnLCAnPG91dGZpbGUubWFlPic=

> <r_epik_Ionization_Penalty>
0.0144395

> <r_epik_Ionization_Penalty_Charging>
0

> <r_epik_Ionization_Penalty_Neutral>
0.0144395

> <r_epik_State_Penalty>
0.0112394

> <r_epik_Charging_Adjusted_Penalty>
0.0112394

> <i_epik_Tot_Q>
0

> <i_epik_Tot_abs_Q>
0

> <r_epik_Metal_State_Penalty>
0.0109727

> <b_epik_Metal_Only>
0

> <s_lp_Force_Field>
OPLS_2005

> <r_lp_Energy>
29.8357

> <b_lp_Chiralities_Consistent>
1

> <s_lp_Variant>
AV-unprocessed.smi:381-1

> <Gold.Version>
5.8.1

> <Gold.Id.Protein>
6NUR|6NUR_protein|mol2

> <Gold.PLP.Fitness>
52.0946

> <Gold.PLP.PLP>
-41.2472

> <Gold.PLP.part.hbond>
-4.0000

> <Gold.PLP.part.metal>
0.0000

> <Gold.PLP.part.buried>
0.7833

> <Gold.PLP.part.nonpolar>
-38.3280

> <Gold.PLP.part.repulsive>
1.3295

> <Gold.PLP.ligand.clash>
0.0000

> <Gold.PLP.ligand.torsion>
0.3809

> <Gold.PLP.Chemscore.Hbond>
3.2646

> <Gold.PLP.Chemscore.CHOScore>
0.5864

> <Gold.PLP.Chemscore.Metal>
0.0000

> <Gold.Chemscore.Hbonds>
donor molecule, donor type, donor heavy atom, donor atom, acceptor molecule, acceptor atom, score
      L1  H     3    21       P1  8028  0.32
      L1  H    12    30       P1  8028  0.38
      L1  C     9    28       P1 10171  0.25

> <Gold.PLP.Chemscore.Internal.Correction>
0.0561

> <Gold.Rescore>
     Score         DG    S(hbond)    S(metal)    S(lipo)     H(rot)  DE(clash)    DE(int)     intcor
     21.88     -26.46       2.57        0.00     137.13       1.42       2.99       1.59       ----

> <Gold.Chemscore.Fitness>
21.8842

> <Gold.Chemscore.DG>
-26.4598

> <Gold.Chemscore.ZeroCoef>
-5.4800

> <Gold.Chemscore.Hbond>
2.5671

> <Gold.Chemscore.Metal>
0.0000

> <Gold.Chemscore.Lipo>
137.1285

> <Gold.Chemscore.Internal_Hbond>
0.0000

> <Gold.Chemscore.DEClash>
2.9888

> <Gold.Chemscore.DEInternal>
1.5868

> <Gold.Chemscore.Rot>
1.4213

> <Gold.Chemscore.Internal.Correction>
   9.000000E+99

> <Gold.Chemscore.Hbonds>
donor molecule, donor type, donor heavy atom, donor atom, acceptor molecule, acceptor atom, score
      L1  H     3    21       P1  8028  0.19
      L1  H    12    30       P1  8028  0.25
      P1  H  7989  7998       L1     1  0.01

> <Gold.Chemscore.Hbond.Weighted>
-8.5742

> <Gold.Chemscore.Metal.Weighted>
-0.0000

> <Gold.Chemscore.Lipo.Weighted>
-16.0440

> <Gold.Chemscore.Internal_Hbond.Weighted>
0.0000

> <Gold.Chemscore.DEClash.Weighted>
2.9888

> <Gold.Chemscore.DEInternal.Weighted>
1.5868

> <Gold.Chemscore.Rot.Weighted>
3.6385

> <Gold.Chemscore.Internal.Correction.Weighted>
   9.000000E+99

> <Gold.Protein.RotatedTorsions>
[ 6907 6896 6895 6894 ] final  -52.95 input  -60.11 | X-H torsion
[ 7974 7965 7964 7962 ] final   90.22 input  175.53 | X-H torsion
[ 8008 7997 7996 7995 ] final -135.83 input   59.86 | X-H torsion
[ 10167 10162 10161 10158 ] final  122.40 input  -65.29 | X-H torsion
[ 10718 10713 10712 10709 ] final   58.90 input   66.30 | X-H torsion
[ 10763 10752 10751 10750 ] final  -46.88 input  -60.55 | X-H torsion
[ 11005 11000 10999 10996 ] final  -84.54 input  -57.11 | X-H torsion

> <Gold.Protein.ActiveResidues>
 VAL166  LYS551  ARG553  GLY616  TRP617  ASP618  TYR619  PRO620  LYS621  CYS622 
 ASP623  PHE694  ASN695  SER759  ASP760  ASP761  ALA762  ILE779  LEU786  VAL792 
 PHE793  MET794  SER795  GLU796  ALA797  LYS798  CYS799  TRP800  GLU811  SER814 

> <Gold.Protein.RotatedAtoms>
  150.8470  134.7783  159.6978 H   0  0  0  0  0  0  0  0  0  0  0  0  # atno 6907 bound_to 6896
  152.4545  134.5319  159.9823 H   0  0  0  0  0  0  0  0  0  0  0  0  # atno 6908 bound_to 6896
  151.5447  133.3389  159.2977 H   0  0  0  0  0  0  0  0  0  0  0  0  # atno 6909 bound_to 6896
  145.5219  139.2279  143.2667 H   0  0  0  0  0  0  0  0  0  0  0  0  # atno 7974 bound_to 7965
  155.3851  140.0496  157.3042 H   0  0  0  0  0  0  0  0  0  0  0  0  # atno 8008 bound_to 7997
  154.5063  140.2175  155.9205 H   0  0  0  0  0  0  0  0  0  0  0  0  # atno 8009 bound_to 7997
  156.1530  140.3132  155.8684 H   0  0  0  0  0  0  0  0  0  0  0  0  # atno 8010 bound_to 7997
  139.5861  144.7007  151.3406 H   0  0  0  0  0  0  0  0  0  0  0  0  # atno 10167 bound_to 10162
  157.5633  130.8852  149.9146 H   0  0  0  0  0  0  0  0  0  0  0  0  # atno 10718 bound_to 10713
  154.0523  135.6629  153.4802 H   0  0  0  0  0  0  0  0  0  0  0  0  # atno 10763 bound_to 10752
  153.0459  135.5115  154.7739 H   0  0  0  0  0  0  0  0  0  0  0  0  # atno 10764 bound_to 10752
  154.6749  135.3035  154.9658 H   0  0  0  0  0  0  0  0  0  0  0  0  # atno 10765 bound_to 10752
  141.1649  133.7351  156.8883 H   0  0  0  0  0  0  0  0  0  0  0  0  # atno 11005 bound_to 11000
  146.2100  140.6032  142.9064 LP  0  0  0  0  0  0  0  0  0  0  0  0  # atno 17320 bound_to 7965
  144.7671  140.5555  143.6695 LP  0  0  0  0  0  0  0  0  0  0  0  0  # atno 17321 bound_to 7965
  140.7132  143.7335  150.7606 LP  0  0  0  0  0  0  0  0  0  0  0  0  # atno 17342 bound_to 10162
  140.0880  143.4905  152.2494 LP  0  0  0  0  0  0  0  0  0  0  0  0  # atno 17343 bound_to 10162
  156.0683  130.3689  150.0830 LP  0  0  0  0  0  0  0  0  0  0  0  0  # atno 17370 bound_to 10713
  156.8991  130.9614  151.3578 LP  0  0  0  0  0  0  0  0  0  0  0  0  # atno 17371 bound_to 10713
  140.1666  134.9129  157.2781 LP  0  0  0  0  0  0  0  0  0  0  0  0  # atno 17394 bound_to 11000
  140.2550  134.3638  155.7428 LP  0  0  0  0  0  0  0  0  0  0  0  0  # atno 17395 bound_to 11000

$$$$
