AV-unprocessed.smi:1684|AV-procd|sdf|6754|dock3
  -GOLD-   22720 7513D 1   1.00000     0.00000
 Structure written by MMmdl.
 42 43  0  0  0  0  0  0  0  0  1 V2000
  147.4045  132.8713  152.2661 C   0  0  0  0  0  0  0  0  0  0  0  0
  146.2416  133.0653  151.3066 C   0  0  0  0  0  0  0  0  0  0  0  0
  145.7175  131.9478  150.6227 C   0  0  0  0  0  0  0  0  0  0  0  0
  144.6434  132.1288  149.7347 C   0  0  0  0  0  0  0  0  0  0  0  0
  144.1365  133.4287  149.5664 C   0  0  0  0  0  0  0  0  0  0  0  0
  144.6308  134.5020  150.2162 N   0  0  0  0  0  0  0  0  0  0  0  0
  145.6672  134.3446  151.0776 C   0  0  0  0  0  0  0  0  0  0  0  0
  146.2355  135.4300  151.8022 N   0  0  0  0  0  0  0  0  0  0  0  0
  145.6059  136.4031  152.4837 C   0  0  0  0  0  0  0  0  0  0  0  0
  144.3846  136.5297  152.5795 O   0  0  0  0  0  0  0  0  0  0  0  0
  146.4874  137.2413  153.0494 N   0  0  0  0  0  0  0  0  0  0  0  0
  146.1572  138.4390  153.8205 C   0  0  1  0  0  0  0  0  0  0  0  0
  146.1786  138.1014  155.3174 C   0  0  0  0  0  0  0  0  0  0  0  0
  147.1483  139.5732  153.4847 C   0  0  0  0  0  0  0  0  0  0  0  0
  148.2546  139.7479  154.4276 N   0  0  0  0  0  0  0  0  0  0  0  0
  149.3671  138.8351  154.1718 C   0  0  0  0  0  0  0  0  0  0  0  0
  150.5232  139.0501  155.1639 C   0  0  0  0  0  0  0  0  0  0  0  0
  150.9544  140.4061  155.1114 O   0  0  0  0  0  0  0  0  0  0  0  0
  149.9072  141.3265  155.4005 C   0  0  0  0  0  0  0  0  0  0  0  0
  148.7508  141.1193  154.4072 C   0  0  0  0  0  0  0  0  0  0  0  0
  147.7110  131.8260  152.3124 H   0  0  0  0  0  0  0  0  0  0  0  0
  147.1254  133.1838  153.2727 H   0  0  0  0  0  0  0  0  0  0  0  0
  148.2651  133.4590  151.9456 H   0  0  0  0  0  0  0  0  0  0  0  0
  146.1318  130.9619  150.7749 H   0  0  0  0  0  0  0  0  0  0  0  0
  144.2196  131.2938  149.1965 H   0  0  0  0  0  0  0  0  0  0  0  0
  143.3121  133.6125  148.8933 H   0  0  0  0  0  0  0  0  0  0  0  0
  147.2438  135.4690  151.7993 H   0  0  0  0  0  0  0  0  0  0  0  0
  147.4696  137.0548  152.9109 H   0  0  0  0  0  0  0  0  0  0  0  0
  145.1462  138.7757  153.5894 H   0  0  0  0  0  0  0  0  0  0  0  0
  145.9121  138.9712  155.9183 H   0  0  0  0  0  0  0  0  0  0  0  0
  147.1658  137.7661  155.6371 H   0  0  0  0  0  0  0  0  0  0  0  0
  145.4656  137.3099  155.5512 H   0  0  0  0  0  0  0  0  0  0  0  0
  147.5473  139.4184  152.4810 H   0  0  0  0  0  0  0  0  0  0  0  0
  146.5819  140.5045  153.4364 H   0  0  0  0  0  0  0  0  0  0  0  0
  149.0351  137.8004  154.2477 H   0  0  0  0  0  0  0  0  0  0  0  0
  149.7338  138.9735  153.1536 H   0  0  0  0  0  0  0  0  0  0  0  0
  150.2115  138.7986  156.1788 H   0  0  0  0  0  0  0  0  0  0  0  0
  151.3619  138.3990  154.9157 H   0  0  0  0  0  0  0  0  0  0  0  0
  149.5645  141.1882  156.4272 H   0  0  0  0  0  0  0  0  0  0  0  0
  150.2940  142.3428  155.3249 H   0  0  0  0  0  0  0  0  0  0  0  0
  149.0887  141.3760  153.4019 H   0  0  0  0  0  0  0  0  0  0  0  0
  147.9417  141.8095  154.6493 H   0  0  0  0  0  0  0  0  0  0  0  0
  1  2  1  0  0  0  0
  1 21  1  0  0  0  0
  1 22  1  0  0  0  0
  1 23  1  0  0  0  0
  2  7  1  0  0  0  0
  2  3  2  0  0  0  0
  3  4  1  0  0  0  0
  3 24  1  0  0  0  0
  4  5  2  0  0  0  0
  4 25  1  0  0  0  0
  5  6  1  0  0  0  0
  5 26  1  0  0  0  0
  6  7  2  0  0  0  0
  7  8  1  0  0  0  0
  8  9  1  0  0  0  0
  8 27  1  0  0  0  0
  9 10  2  0  0  0  0
  9 11  1  0  0  0  0
 11 12  1  0  0  0  0
 11 28  1  0  0  0  0
 12 13  1  0  0  0  0
 12 14  1  0  0  0  0
 12 29  1  0  0  0  0
 13 30  1  0  0  0  0
 13 31  1  0  0  0  0
 13 32  1  0  0  0  0
 14 15  1  0  0  0  0
 14 33  1  0  0  0  0
 14 34  1  0  0  0  0
 15 20  1  0  0  0  0
 15 16  1  0  0  0  0
 16 17  1  0  0  0  0
 16 35  1  0  0  0  0
 16 36  1  0  0  0  0
 17 18  1  0  0  0  0
 17 37  1  0  0  0  0
 17 38  1  0  0  0  0
 18 19  1  0  0  0  0
 19 20  1  0  0  0  0
 19 39  1  0  0  0  0
 19 40  1  0  0  0  0
 20 41  1  0  0  0  0
 20 42  1  0  0  0  0
M  END
> <s_m_source_file>
AV-unprocessed.smi

> <i_m_source_file_index>
1684

> <i_lp_mmshare_version>
43012

> <i_f3d_flags>
0

> <s_epik_input>
W0NIM11jMVtjSF1bY0hdW2NIXW5jMVtOSF1DKD1PKVtOSF1bQ0BIXShbQ0gzXSlbQ0gyXU4yW0NIMl1bQ0gyXU9bQ0gyXVtDSDJdMg==

> <s_epik_cmdline>
J2VwaWtfcHl0aG9uJywgJy1waCcsICc3LjAnLCAnLXRuJywgJzgnLCAnLW1hJywgJzIwMCcsICctbWV0YWxfYmluZGluZycsICctaW1hZScsICc8aW5maWxlLm1hZT4nLCAnLW9tYWUnLCAnPG91dGZpbGUubWFlPic=

> <r_epik_Ionization_Penalty>
0.26605

> <r_epik_Ionization_Penalty_Charging>
0

> <r_epik_Ionization_Penalty_Neutral>
0.26605

> <r_epik_State_Penalty>
0.257924

> <r_epik_Charging_Adjusted_Penalty>
0.257924

> <i_epik_Tot_Q>
0

> <i_epik_Tot_abs_Q>
0

> <r_epik_Metal_State_Penalty>
0.257922

> <b_epik_Metal_Only>
0

> <s_lp_Force_Field>
OPLS_2005

> <r_lp_Energy>
28.5554

> <b_lp_Chiralities_Consistent>
1

> <s_lp_Variant>
AV-unprocessed.smi:1684-2

> <Gold.Version>
5.8.1

> <Gold.Id.Protein>
6NUR|6NUR_protein|mol2

> <Gold.PLP.Fitness>
43.3769

> <Gold.PLP.PLP>
-34.2836

> <Gold.PLP.part.hbond>
-3.0000

> <Gold.PLP.part.metal>
0.0000

> <Gold.PLP.part.buried>
-4.0114

> <Gold.PLP.part.nonpolar>
-27.8405

> <Gold.PLP.part.repulsive>
0.7518

> <Gold.PLP.ligand.clash>
0.0000

> <Gold.PLP.ligand.torsion>
1.4878

> <Gold.PLP.Chemscore.Hbond>
3.0000

> <Gold.PLP.Chemscore.CHOScore>
1.0000

> <Gold.PLP.Chemscore.Metal>
0.0000

> <Gold.Chemscore.Hbonds>
donor molecule, donor type, donor heavy atom, donor atom, acceptor molecule, acceptor atom, score
      L1  H     8    27       P1  7948  1.00
      L1  H    11    28       P1  7948  1.00
      P1  H  7989  7998       L1    18  1.00
      L1  C     5    26       P1 10186  0.93

> <Gold.PLP.Chemscore.Internal.Correction>
0.0689

> <Gold.Rescore>
     Score         DG    S(hbond)    S(metal)    S(lipo)     H(rot)  DE(clash)    DE(int)     intcor
     18.69     -20.25       2.67        0.00      81.85       1.46       0.08       1.47       ----

> <Gold.Chemscore.Fitness>
18.6925

> <Gold.Chemscore.DG>
-20.2461

> <Gold.Chemscore.ZeroCoef>
-5.4800

> <Gold.Chemscore.Hbond>
2.6713

> <Gold.Chemscore.Metal>
0.0000

> <Gold.Chemscore.Lipo>
81.8505

> <Gold.Chemscore.Internal_Hbond>
0.0000

> <Gold.Chemscore.DEClash>
0.0841

> <Gold.Chemscore.DEInternal>
1.4695

> <Gold.Chemscore.Rot>
1.4581

> <Gold.Chemscore.Internal.Correction>
   9.000000E+99

> <Gold.Chemscore.Hbonds>
donor molecule, donor type, donor heavy atom, donor atom, acceptor molecule, acceptor atom, score
      L1  H     8    27       P1  7948  0.99
      L1  H    11    28       P1  7948  0.91
      P1  H  7989  7998       L1    18  0.52

> <Gold.Chemscore.Hbond.Weighted>
-8.9223

> <Gold.Chemscore.Metal.Weighted>
-0.0000

> <Gold.Chemscore.Lipo.Weighted>
-9.5765

> <Gold.Chemscore.Internal_Hbond.Weighted>
0.0000

> <Gold.Chemscore.DEClash.Weighted>
0.0841

> <Gold.Chemscore.DEInternal.Weighted>
1.4695

> <Gold.Chemscore.Rot.Weighted>
3.7327

> <Gold.Chemscore.Internal.Correction.Weighted>
   9.000000E+99

> <Gold.Protein.RotatedTorsions>
[ 6907 6896 6895 6894 ] final    2.50 input  -60.11 | X-H torsion
[ 7974 7965 7964 7962 ] final  -25.66 input  175.53 | X-H torsion
[ 8008 7997 7996 7995 ] final   11.05 input   59.86 | X-H torsion
[ 10167 10162 10161 10158 ] final -146.40 input  -65.29 | X-H torsion
[ 10718 10713 10712 10709 ] final -117.66 input   66.30 | X-H torsion
[ 10763 10752 10751 10750 ] final  -28.41 input  -60.55 | X-H torsion
[ 11005 11000 10999 10996 ] final  -35.17 input  -57.11 | X-H torsion

> <Gold.Protein.ActiveResidues>
 VAL166  LYS551  ARG553  GLY616  TRP617  ASP618  TYR619  PRO620  LYS621  CYS622 
 ASP623  PHE694  ASN695  SER759  ASP760  ASP761  ALA762  ILE779  LEU786  VAL792 
 PHE793  MET794  SER795  GLU796  ALA797  LYS798  CYS799  TRP800  GLU811  SER814 

> <Gold.Protein.RotatedAtoms>
  151.6099  135.1041  160.0078 H   0  0  0  0  0  0  0  0  0  0  0  0  # atno 6907 bound_to 6896
  152.4214  133.7118  159.6494 H   0  0  0  0  0  0  0  0  0  0  0  0  # atno 6908 bound_to 6896
  150.8101  133.8364  159.3208 H   0  0  0  0  0  0  0  0  0  0  0  0  # atno 6909 bound_to 6896
  146.1477  140.4916  142.8625 H   0  0  0  0  0  0  0  0  0  0  0  0  # atno 7974 bound_to 7965
  154.8016  140.2853  155.5917 H   0  0  0  0  0  0  0  0  0  0  0  0  # atno 8008 bound_to 7997
  156.2978  140.2585  156.2815 H   0  0  0  0  0  0  0  0  0  0  0  0  # atno 8009 bound_to 7997
  154.9551  140.0378  157.2152 H   0  0  0  0  0  0  0  0  0  0  0  0  # atno 8010 bound_to 7997
  139.7717  143.8229  152.2625 H   0  0  0  0  0  0  0  0  0  0  0  0  # atno 10167 bound_to 10162
  156.1050  130.6202  150.9192 H   0  0  0  0  0  0  0  0  0  0  0  0  # atno 10718 bound_to 10713
  153.7479  135.6928  153.4952 H   0  0  0  0  0  0  0  0  0  0  0  0  # atno 10763 bound_to 10752
  153.2024  135.4432  155.0281 H   0  0  0  0  0  0  0  0  0  0  0  0  # atno 10764 bound_to 10752
  154.8198  135.3416  154.7001 H   0  0  0  0  0  0  0  0  0  0  0  0  # atno 10765 bound_to 10752
  140.9775  133.7075  156.1627 H   0  0  0  0  0  0  0  0  0  0  0  0  # atno 11005 bound_to 11000
  144.7866  140.5948  143.6570 LP  0  0  0  0  0  0  0  0  0  0  0  0  # atno 17320 bound_to 7965
  145.4899  139.1489  143.3715 LP  0  0  0  0  0  0  0  0  0  0  0  0  # atno 17321 bound_to 7965
  139.8265  144.7273  150.9505 LP  0  0  0  0  0  0  0  0  0  0  0  0  # atno 17342 bound_to 10162
  140.7814  143.4110  151.0993 LP  0  0  0  0  0  0  0  0  0  0  0  0  # atno 17343 bound_to 10162
  157.6225  131.0928  150.8595 LP  0  0  0  0  0  0  0  0  0  0  0  0  # atno 17370 bound_to 10713
  156.8716  130.5148  149.5296 LP  0  0  0  0  0  0  0  0  0  0  0  0  # atno 17371 bound_to 10713
  140.7237  134.4331  157.5572 LP  0  0  0  0  0  0  0  0  0  0  0  0  # atno 17394 bound_to 11000
  139.8936  134.8726  156.2214 LP  0  0  0  0  0  0  0  0  0  0  0  0  # atno 17395 bound_to 11000

$$$$
