AV-unprocessed.smi:837|AV-procd|sdf|3896|dock1
  -GOLD-   22720 1353D 1   1.00000     0.00000
 Structure written by MMmdl.
 50 52  0  0  0  0  0  0  0  0  2 V2000
  149.8600  139.0743  157.7526 C   0  0  0  0  0  0  0  0  0  0  0  0
  150.7905  140.2841  157.5186 C   0  0  2  0  0  0  0  0  0  0  0  0
  151.2989  140.8341  158.8691 C   0  0  0  0  0  0  0  0  0  0  0  0
  152.2870  141.9963  158.6815 C   0  0  0  0  0  0  0  0  0  0  0  0
  151.6694  143.1254  157.8448 C   0  0  0  0  0  0  0  0  0  0  0  0
  151.1723  142.5956  156.4900 C   0  0  0  0  0  0  0  0  0  0  0  0
  150.1699  141.4285  156.6581 C   0  0  2  0  0  0  0  0  0  0  0  0
  148.9083  141.9037  157.2015 N   0  0  0  0  0  0  0  0  0  0  0  0
  147.8848  141.7523  156.3523 C   0  0  0  0  0  0  0  0  0  0  0  0
  146.7193  142.0724  156.5828 O   0  0  0  0  0  0  0  0  0  0  0  0
  148.3500  141.1843  155.2246 N   0  0  0  0  0  0  0  0  0  0  0  0
  147.5065  140.8145  154.0809 C   0  0  0  0  0  0  0  0  0  0  0  0
  147.5202  139.3066  153.7948 C   0  0  0  0  0  0  0  0  0  0  0  0
  148.4461  138.5968  154.1898 O   0  0  0  0  0  0  0  0  0  0  0  0
  146.4735  138.8303  153.1045 N   0  0  0  0  0  0  0  0  0  0  0  0
  146.2584  137.4276  152.7605 C   0  0  0  0  0  0  0  0  0  0  0  0
  144.8659  136.9083  153.1759 C   0  0  0  0  0  0  0  0  0  0  0  0
  144.6222  135.4549  152.8058 C   0  0  0  0  0  0  0  0  0  0  0  0
  144.9839  134.9667  151.5309 C   0  0  0  0  0  0  0  0  0  0  0  0
  144.7288  133.6172  151.2094 C   0  0  0  0  0  0  0  0  0  0  0  0
  144.1181  132.7858  152.1707 C   0  0  0  0  0  0  0  0  0  0  0  0
  143.7884  133.2875  153.3812 N   0  3  0  0  0  0  0  0  0  0  0  0
  144.0182  134.5726  153.7281 C   0  0  0  0  0  0  0  0  0  0  0  0
  149.6677  140.9511  155.3009 C   0  0  0  0  0  0  0  0  0  0  0  0
  150.3823  140.4303  154.4442 O   0  0  0  0  0  0  0  0  0  0  0  0
  148.9552  139.3587  158.2898 H   0  0  0  0  0  0  0  0  0  0  0  0
  150.3625  138.3075  158.3426 H   0  0  0  0  0  0  0  0  0  0  0  0
  149.5590  138.6054  156.8159 H   0  0  0  0  0  0  0  0  0  0  0  0
  151.6627  139.9079  156.9809 H   0  0  0  0  0  0  0  0  0  0  0  0
  150.4560  141.1677  159.4757 H   0  0  0  0  0  0  0  0  0  0  0  0
  151.7851  140.0385  159.4348 H   0  0  0  0  0  0  0  0  0  0  0  0
  152.5969  142.3808  159.6535 H   0  0  0  0  0  0  0  0  0  0  0  0
  153.1906  141.6315  158.1915 H   0  0  0  0  0  0  0  0  0  0  0  0
  150.8434  143.5804  158.3926 H   0  0  0  0  0  0  0  0  0  0  0  0
  152.4051  143.9145  157.6868 H   0  0  0  0  0  0  0  0  0  0  0  0
  150.7219  143.4117  155.9226 H   0  0  0  0  0  0  0  0  0  0  0  0
  152.0316  142.2607  155.9067 H   0  0  0  0  0  0  0  0  0  0  0  0
  148.8290  142.3023  158.1257 H   0  0  0  0  0  0  0  0  0  0  0  0
  146.4822  141.1421  154.2679 H   0  0  0  0  0  0  0  0  0  0  0  0
  147.8267  141.3397  153.1794 H   0  0  0  0  0  0  0  0  0  0  0  0
  145.7645  139.4859  152.8089 H   0  0  0  0  0  0  0  0  0  0  0  0
  146.3652  137.3442  151.6787 H   0  0  0  0  0  0  0  0  0  0  0  0
  147.0429  136.8069  153.1959 H   0  0  0  0  0  0  0  0  0  0  0  0
  144.7361  137.0260  154.2524 H   0  0  0  0  0  0  0  0  0  0  0  0
  144.0922  137.5230  152.7144 H   0  0  0  0  0  0  0  0  0  0  0  0
  145.4468  135.6197  150.8053 H   0  0  0  0  0  0  0  0  0  0  0  0
  144.9958  133.2265  150.2383 H   0  0  0  0  0  0  0  0  0  0  0  0
  143.8838  131.7436  152.0090 H   0  0  0  0  0  0  0  0  0  0  0  0
  143.7023  134.8566  154.7217 H   0  0  0  0  0  0  0  0  0  0  0  0
  143.3440  132.6707  154.0620 H   0  0  0  0  0  0  0  0  0  0  0  0
  1  2  1  0  0  0  0
  1 26  1  0  0  0  0
  1 27  1  0  0  0  0
  1 28  1  0  0  0  0
  2  7  1  0  0  0  0
  2  3  1  0  0  0  0
  2 29  1  0  0  0  0
  3  4  1  0  0  0  0
  3 30  1  0  0  0  0
  3 31  1  0  0  0  0
  4  5  1  0  0  0  0
  4 32  1  0  0  0  0
  4 33  1  0  0  0  0
  5  6  1  0  0  0  0
  5 34  1  0  0  0  0
  5 35  1  0  0  0  0
  6  7  1  0  0  0  0
  6 36  1  0  0  0  0
  6 37  1  0  0  0  0
  7 24  1  0  0  0  0
  7  8  1  0  0  0  0
  8  9  1  0  0  0  0
  8 38  1  0  0  0  0
  9 10  2  0  0  0  0
  9 11  1  0  0  0  0
 11 12  1  0  0  0  0
 11 24  1  0  0  0  0
 12 13  1  0  0  0  0
 12 39  1  0  0  0  0
 12 40  1  0  0  0  0
 13 14  2  0  0  0  0
 13 15  1  0  0  0  0
 15 16  1  0  0  0  0
 15 41  1  0  0  0  0
 16 17  1  0  0  0  0
 16 42  1  0  0  0  0
 16 43  1  0  0  0  0
 17 18  1  0  0  0  0
 17 44  1  0  0  0  0
 17 45  1  0  0  0  0
 18 23  1  0  0  0  0
 18 19  2  0  0  0  0
 19 20  1  0  0  0  0
 19 46  1  0  0  0  0
 20 21  2  0  0  0  0
 20 47  1  0  0  0  0
 21 22  1  0  0  0  0
 21 48  1  0  0  0  0
 22 23  2  0  0  0  0
 22 50  1  0  0  0  0
 23 49  1  0  0  0  0
 24 25  2  0  0  0  0
M  CHG  1  22   1
M  END
> <s_m_source_file>
AV-unprocessed.smi

> <i_m_source_file_index>
837

> <i_lp_mmshare_version>
43012

> <i_f3d_flags>
0

> <s_epik_input>
W0NIMl0xW0NIMl1bQ0gyXVtDSDJdW0NAQEhdKFtDSDNdKVtDQEBdMTJbTkhdQyg9TylOKEMyPU8pW0NIMl1DKD1PKVtOSF1bQ0gyXVtDSDJdYzNbY0hdW2NIXVtjSF1uW2NIXTM=

> <s_epik_cmdline>
J2VwaWtfcHl0aG9uJywgJy1waCcsICc3LjAnLCAnLXRuJywgJzgnLCAnLW1hJywgJzIwMCcsICctbWV0YWxfYmluZGluZycsICctaW1hZScsICc8aW5maWxlLm1hZT4nLCAnLW9tYWUnLCAnPG91dGZpbGUubWFlPic=

> <r_lp_tautomer_probability>
1

> <r_epik_Ionization_Penalty>
2.28139

> <r_epik_Ionization_Penalty_Charging>
2.28135

> <r_epik_Ionization_Penalty_Neutral>
4.65525e-05

> <r_epik_State_Penalty>
2.43066

> <r_epik_Charging_Adjusted_Penalty>
4.71201

> <i_epik_Tot_Q>
1

> <i_epik_Tot_abs_Q>
1

> <r_epik_Metal_State_Penalty>
2.4646

> <b_epik_Metal_Only>
0

> <s_lp_Force_Field>
OPLS_2005

> <r_lp_Energy>
29.652

> <b_lp_Chiralities_Consistent>
1

> <s_lp_Variant>
AV-unprocessed.smi:837-5

> <Gold.Version>
5.8.1

> <Gold.Id.Protein>
6NUR|6NUR_protein|mol2

> <Gold.PLP.Fitness>
51.5208

> <Gold.PLP.PLP>
-40.9814

> <Gold.PLP.part.hbond>
-3.3700

> <Gold.PLP.part.metal>
0.0000

> <Gold.PLP.part.buried>
-6.0520

> <Gold.PLP.part.nonpolar>
-33.1069

> <Gold.PLP.part.repulsive>
0.6086

> <Gold.PLP.ligand.clash>
0.0000

> <Gold.PLP.ligand.torsion>
0.5430

> <Gold.PLP.Chemscore.Hbond>
3.8480

> <Gold.PLP.Chemscore.CHOScore>
0.0000

> <Gold.PLP.Chemscore.Metal>
0.0000

> <Gold.Chemscore.Hbonds>
donor molecule, donor type, donor heavy atom, donor atom, acceptor molecule, acceptor atom, score
      L1  H    15    41       P1 10175  0.26
      L1  H    22    50       P1 10957  1.04
      P1  H  7989  7998       L1    25  1.00

> <Gold.PLP.Chemscore.Internal.Correction>
0.0814

> <Gold.Rescore>
     Score         DG    S(hbond)    S(metal)    S(lipo)     H(rot)  DE(clash)    DE(int)     intcor
     16.00     -19.37       2.73        0.00      83.65       1.96       0.03       3.34       ----

> <Gold.Chemscore.Fitness>
16.0020

> <Gold.Chemscore.DG>
-19.3674

> <Gold.Chemscore.ZeroCoef>
-5.4800

> <Gold.Chemscore.Hbond>
2.7329

> <Gold.Chemscore.Metal>
0.0000

> <Gold.Chemscore.Lipo>
83.6507

> <Gold.Chemscore.Internal_Hbond>
0.0000

> <Gold.Chemscore.DEClash>
0.0294

> <Gold.Chemscore.DEInternal>
3.3360

> <Gold.Chemscore.Rot>
1.9638

> <Gold.Chemscore.Internal.Correction>
   9.000000E+99

> <Gold.Chemscore.Hbonds>
donor molecule, donor type, donor heavy atom, donor atom, acceptor molecule, acceptor atom, score
      L1  H    15    41       P1 10175  0.27
      L1  H    22    50       P1 10957  0.50
      P1  H  7989  7998       L1    25  0.94

> <Gold.Chemscore.Hbond.Weighted>
-9.1277

> <Gold.Chemscore.Metal.Weighted>
-0.0000

> <Gold.Chemscore.Lipo.Weighted>
-9.7871

> <Gold.Chemscore.Internal_Hbond.Weighted>
0.0000

> <Gold.Chemscore.DEClash.Weighted>
0.0294

> <Gold.Chemscore.DEInternal.Weighted>
3.3360

> <Gold.Chemscore.Rot.Weighted>
5.0274

> <Gold.Chemscore.Internal.Correction.Weighted>
   9.000000E+99

> <Gold.Protein.RotatedTorsions>
[ 6907 6896 6895 6894 ] final -120.66 input  -60.11 | X-H torsion
[ 7974 7965 7964 7962 ] final  -35.95 input  175.53 | X-H torsion
[ 8008 7997 7996 7995 ] final  -86.25 input   59.86 | X-H torsion
[ 10167 10162 10161 10158 ] final    3.85 input  -65.29 | X-H torsion
[ 10718 10713 10712 10709 ] final  -72.78 input   66.30 | X-H torsion
[ 10763 10752 10751 10750 ] final  -48.60 input  -60.55 | X-H torsion
[ 11005 11000 10999 10996 ] final -172.24 input  -57.11 | X-H torsion

> <Gold.Protein.ActiveResidues>
 VAL166  LYS551  ARG553  GLY616  TRP617  ASP618  TYR619  PRO620  LYS621  CYS622 
 ASP623  PHE694  ASN695  SER759  ASP760  ASP761  ALA762  ILE779  LEU786  VAL792 
 PHE793  MET794  SER795  GLU796  ALA797  LYS798  CYS799  TRP800  GLU811  SER814 

> <Gold.Protein.RotatedAtoms>
  150.8413  133.7932  159.3059 H   0  0  0  0  0  0  0  0  0  0  0  0  # atno 6907 bound_to 6896
  151.5633  135.1063  159.9987 H   0  0  0  0  0  0  0  0  0  0  0  0  # atno 6908 bound_to 6896
  152.4476  133.7523  159.6757 H   0  0  0  0  0  0  0  0  0  0  0  0  # atno 6909 bound_to 6896
  146.0703  140.6221  142.8956 H   0  0  0  0  0  0  0  0  0  0  0  0  # atno 7974 bound_to 7965
  154.6498  140.0581  156.9942 H   0  0  0  0  0  0  0  0  0  0  0  0  # atno 8008 bound_to 7997
  155.1389  140.3263  155.4438 H   0  0  0  0  0  0  0  0  0  0  0  0  # atno 8009 bound_to 7997
  156.2570  140.1967  156.6506 H   0  0  0  0  0  0  0  0  0  0  0  0  # atno 8010 bound_to 7997
  140.6565  143.7414  150.7662 H   0  0  0  0  0  0  0  0  0  0  0  0  # atno 10167 bound_to 10162
  156.0306  130.4380  150.2644 H   0  0  0  0  0  0  0  0  0  0  0  0  # atno 10718 bound_to 10713
  154.0805  135.6592  153.4837 H   0  0  0  0  0  0  0  0  0  0  0  0  # atno 10763 bound_to 10752
  153.0358  135.5178  154.7479 H   0  0  0  0  0  0  0  0  0  0  0  0  # atno 10764 bound_to 10752
  154.6572  135.3009  154.9880 H   0  0  0  0  0  0  0  0  0  0  0  0  # atno 10765 bound_to 10752
  140.4992  134.5910  157.4982 H   0  0  0  0  0  0  0  0  0  0  0  0  # atno 11005 bound_to 11000
  144.7227  140.4426  143.6996 LP  0  0  0  0  0  0  0  0  0  0  0  0  # atno 17320 bound_to 7965
  145.6404  139.1549  143.2919 LP  0  0  0  0  0  0  0  0  0  0  0  0  # atno 17321 bound_to 7965
  140.1075  143.4730  152.2389 LP  0  0  0  0  0  0  0  0  0  0  0  0  # atno 17342 bound_to 10162
  139.5788  144.7501  151.3693 LP  0  0  0  0  0  0  0  0  0  0  0  0  # atno 17343 bound_to 10162
  157.0747  131.0126  151.3178 LP  0  0  0  0  0  0  0  0  0  0  0  0  # atno 17370 bound_to 10713
  157.4973  130.7858  149.7568 LP  0  0  0  0  0  0  0  0  0  0  0  0  # atno 17371 bound_to 10713
  139.9723  134.7272  156.0017 LP  0  0  0  0  0  0  0  0  0  0  0  0  # atno 17394 bound_to 11000
  141.1444  133.6558  156.3825 LP  0  0  0  0  0  0  0  0  0  0  0  0  # atno 17395 bound_to 11000

$$$$
