AV-unprocessed.smi:287|AV-procd|sdf|2183|dock7
  -GOLD-   2262021563D 1   1.00000     0.00000
 Structure written by MMmdl.
 55 58  0  0  0  0  0  0  0  0  1 V2000
  153.5663  142.6797  163.1054 C   0  0  0  0  0  0  0  0  0  0  0  0
  152.8565  142.8975  161.8133 C   0  0  0  0  0  0  0  0  0  0  0  0
  152.7286  142.1630  160.6708 C   0  0  0  0  0  0  0  0  0  0  0  0
  151.9220  142.9169  159.7665 C   0  0  0  0  0  0  0  0  0  0  0  0
  151.5105  142.4949  158.3624 C   0  0  1  0  0  0  0  0  0  0  0  0
  149.9771  142.4515  158.2624 C   0  0  0  0  0  0  0  0  0  0  0  0
  151.9268  143.4144  157.3711 O   0  0  0  0  0  0  0  0  0  0  0  0
  152.1096  141.1296  157.9524 C   0  0  0  0  0  0  0  0  0  0  0  0
  151.8633  140.8000  156.5542 N   0  0  0  0  0  0  0  0  0  0  0  0
  150.7840  140.0767  156.1909 C   0  0  0  0  0  0  0  0  0  0  0  0
  150.4162  140.1910  154.8923 N   0  0  0  0  0  0  0  0  0  0  0  0
  149.3609  139.5150  154.4300 C   0  0  0  0  0  0  0  0  0  0  0  0
  148.5490  138.6851  155.0870 N   0  0  0  0  0  0  0  0  0  0  0  0
  148.9121  138.5667  156.3969 C   0  0  0  0  0  0  0  0  0  0  0  0
  150.0071  139.2222  157.0288 C   0  0  0  0  0  0  0  0  0  0  0  0
  150.0473  138.8531  158.3696 N   0  0  0  0  0  0  0  0  0  0  0  0
  149.0404  138.0346  158.5124 C   0  0  0  0  0  0  0  0  0  0  0  0
  148.3015  137.8096  157.3719 N   0  0  0  0  0  0  0  0  0  0  0  0
  147.0968  136.9407  157.1798 C   0  0  1  0  0  0  0  0  0  0  0  0
  146.9670  136.1437  158.3197 O   0  0  0  0  0  0  0  0  0  0  0  0
  145.7032  136.3529  158.9498 C   0  0  1  0  0  0  0  0  0  0  0  0
  145.8089  136.1769  160.4750 C   0  0  0  0  0  0  0  0  0  0  0  0
  146.7754  137.0628  160.9979 O   0  0  0  0  0  0  0  0  0  0  0  0
  145.2497  137.7391  158.4708 C   0  0  1  0  0  0  0  0  0  0  0  0
  145.7830  138.7693  159.2863 O   0  0  0  0  0  0  0  0  0  0  0  0
  145.8044  137.7688  157.0537 C   0  0  1  0  0  0  0  0  0  0  0  0
  145.9580  139.0829  156.5436 O   0  0  0  0  0  0  0  0  0  0  0  0
  151.6015  144.0620  160.4554 C   0  0  0  0  0  0  0  0  0  0  0  0
  150.7800  145.2676  160.1375 C   0  0  0  0  0  0  0  0  0  0  0  0
  152.1695  144.0610  161.6937 O   0  0  0  0  0  0  0  0  0  0  0  0
  147.3246  136.3410  156.2979 H   0  0  0  0  0  0  0  0  0  0  0  0
  145.0052  135.6208  158.5393 H   0  0  0  0  0  0  0  0  0  0  0  0
  144.1632  137.8324  158.4781 H   0  0  0  0  0  0  0  0  0  0  0  0
  145.1319  137.2150  156.3975 H   0  0  0  0  0  0  0  0  0  0  0  0
  154.2181  141.8077  163.0488 H   0  0  0  0  0  0  0  0  0  0  0  0
  152.8539  142.5183  163.9145 H   0  0  0  0  0  0  0  0  0  0  0  0
  154.1803  143.5435  163.3609 H   0  0  0  0  0  0  0  0  0  0  0  0
  153.1718  141.1934  160.4979 H   0  0  0  0  0  0  0  0  0  0  0  0
  149.5550  141.7363  158.9693 H   0  0  0  0  0  0  0  0  0  0  0  0
  149.6490  142.1574  157.2646 H   0  0  0  0  0  0  0  0  0  0  0  0
  149.5383  143.4261  158.4810 H   0  0  0  0  0  0  0  0  0  0  0  0
  151.2620  143.4527  156.7006 H   0  0  0  0  0  0  0  0  0  0  0  0
  153.1910  141.1717  158.0889 H   0  0  0  0  0  0  0  0  0  0  0  0
  151.7389  140.3342  158.6004 H   0  0  0  0  0  0  0  0  0  0  0  0
  152.5930  141.0672  155.9091 H   0  0  0  0  0  0  0  0  0  0  0  0
  149.1347  139.6612  153.3841 H   0  0  0  0  0  0  0  0  0  0  0  0
  148.8091  137.5731  159.4613 H   0  0  0  0  0  0  0  0  0  0  0  0
  144.8467  136.3367  160.9625 H   0  0  0  0  0  0  0  0  0  0  0  0
  146.1324  135.1635  160.7157 H   0  0  0  0  0  0  0  0  0  0  0  0
  147.3623  136.5728  161.5533 H   0  0  0  0  0  0  0  0  0  0  0  0
  145.5424  138.5910  160.1832 H   0  0  0  0  0  0  0  0  0  0  0  0
  145.3967  139.1778  155.7887 H   0  0  0  0  0  0  0  0  0  0  0  0
  149.8038  144.9787  159.7483 H   0  0  0  0  0  0  0  0  0  0  0  0
  151.2751  145.8854  159.3882 H   0  0  0  0  0  0  0  0  0  0  0  0
  150.6178  145.8799  161.0249 H   0  0  0  0  0  0  0  0  0  0  0  0
  1  2  1  0  0  0  0
  1 35  1  0  0  0  0
  1 36  1  0  0  0  0
  1 37  1  0  0  0  0
  2 30  1  0  0  0  0
  2  3  2  0  0  0  0
  3  4  1  0  0  0  0
  3 38  1  0  0  0  0
  4  5  1  0  0  0  0
  4 28  2  0  0  0  0
  5  6  1  0  0  0  0
  5  7  1  0  0  0  0
  5  8  1  0  0  0  0
  6 39  1  0  0  0  0
  6 40  1  0  0  0  0
  6 41  1  0  0  0  0
  7 42  1  0  0  0  0
  8  9  1  0  0  0  0
  8 43  1  0  0  0  0
  8 44  1  0  0  0  0
  9 10  1  0  0  0  0
  9 45  1  0  0  0  0
 10 15  1  0  0  0  0
 10 11  2  0  0  0  0
 11 12  1  0  0  0  0
 12 13  2  0  0  0  0
 12 46  1  0  0  0  0
 13 14  1  0  0  0  0
 14 18  1  0  0  0  0
 14 15  2  0  0  0  0
 15 16  1  0  0  0  0
 16 17  2  0  0  0  0
 17 18  1  0  0  0  0
 17 47  1  0  0  0  0
 18 19  1  0  0  0  0
 19 31  1  0  0  0  0
 19 26  1  0  0  0  0
 19 20  1  0  0  0  0
 20 21  1  0  0  0  0
 21 32  1  0  0  0  0
 21 22  1  0  0  0  0
 21 24  1  0  0  0  0
 22 23  1  0  0  0  0
 22 48  1  0  0  0  0
 22 49  1  0  0  0  0
 23 50  1  0  0  0  0
 24 33  1  0  0  0  0
 24 25  1  0  0  0  0
 24 26  1  0  0  0  0
 25 51  1  0  0  0  0
 26 34  1  0  0  0  0
 26 27  1  0  0  0  0
 27 52  1  0  0  0  0
 28 29  1  0  0  0  0
 28 30  1  0  0  0  0
 29 53  1  0  0  0  0
 29 54  1  0  0  0  0
 29 55  1  0  0  0  0
M  END
> <s_m_source_file>
AV-unprocessed.smi

> <i_m_source_file_index>
287

> <i_lp_mmshare_version>
43012

> <i_f3d_flags>
0

> <s_epik_input>
W0NIM11jMVtjSF1jKGMobzEpW0NIM10pW0NAQF0oW0NIM10pKFtPSF0pW0NIMl1bTkhdYyhuW2NIXW4yKWMoYzIzKW5bY0hdbjNbQ0BASF00T1tDQEhdKFtDSDJdW09IXSlbQ0BASF0oW09IXSlbQ0BIXTRbT0hd

> <s_epik_cmdline>
J2VwaWtfcHl0aG9uJywgJy1waCcsICc3LjAnLCAnLXRuJywgJzgnLCAnLW1hJywgJzIwMCcsICctbWV0YWxfYmluZGluZycsICctaW1hZScsICc8aW5maWxlLm1hZT4nLCAnLW9tYWUnLCAnPG91dGZpbGUubWFlPic=

> <r_lp_tautomer_probability>
1

> <r_epik_Ionization_Penalty>
0.000992612

> <r_epik_Ionization_Penalty_Charging>
0

> <r_epik_Ionization_Penalty_Neutral>
0.000992612

> <r_epik_State_Penalty>
-0

> <r_epik_Charging_Adjusted_Penalty>
0

> <i_epik_Tot_Q>
0

> <i_epik_Tot_abs_Q>
0

> <r_epik_Metal_State_Penalty>
-0

> <b_epik_Metal_Only>
0

> <s_epik_Chemistry_Notes>
This compound contains an acetal/aminal-like group ( X-CH(R)-Y where X, Y are N, S, or O) that may be acid/base labile, releasing an aldehyde.

> <s_lp_Force_Field>
OPLS_2005

> <r_lp_Energy>
47.3874

> <b_lp_Chiralities_Consistent>
1

> <s_lp_Variant>
AV-unprocessed.smi:287-7

> <Gold.Version>
5.8.1

> <Gold.Id.Protein>
6NUR|6NUR_protein|mol2

> <Gold.PLP.Fitness>
44.8759

> <Gold.PLP.PLP>
-36.4198

> <Gold.PLP.part.hbond>
-3.0000

> <Gold.PLP.part.metal>
0.0000

> <Gold.PLP.part.buried>
-3.9152

> <Gold.PLP.part.nonpolar>
-29.7691

> <Gold.PLP.part.repulsive>
0.4692

> <Gold.PLP.ligand.clash>
0.0000

> <Gold.PLP.ligand.torsion>
0.6418

> <Gold.PLP.Chemscore.Hbond>
2.0000

> <Gold.PLP.Chemscore.CHOScore>
1.0000

> <Gold.PLP.Chemscore.Metal>
0.0000

> <Gold.Chemscore.Hbonds>
donor molecule, donor type, donor heavy atom, donor atom, acceptor molecule, acceptor atom, score
      P1  H  6934  6947       L1    23  1.00
      P1  H  7989  7998       L1    11  1.00
      L1  C    12    46       P1  7957  1.00

> <Gold.PLP.Chemscore.Internal.Correction>
0.7398

> <Gold.Rescore>
     Score         DG    S(hbond)    S(metal)    S(lipo)     H(rot)  DE(clash)    DE(int)     intcor
      6.19      -9.09       1.73        0.00      96.72       5.27       2.05       0.85       ----

> <Gold.Chemscore.Fitness>
6.1860

> <Gold.Chemscore.DG>
-9.0865

> <Gold.Chemscore.ZeroCoef>
-5.4800

> <Gold.Chemscore.Hbond>
1.7288

> <Gold.Chemscore.Metal>
0.0000

> <Gold.Chemscore.Lipo>
96.7202

> <Gold.Chemscore.Internal_Hbond>
0.0000

> <Gold.Chemscore.DEClash>
2.0458

> <Gold.Chemscore.DEInternal>
0.8548

> <Gold.Chemscore.Rot>
5.2672

> <Gold.Chemscore.Internal.Correction>
   9.000000E+99

> <Gold.Chemscore.Hbonds>
donor molecule, donor type, donor heavy atom, donor atom, acceptor molecule, acceptor atom, score
      P1  H  6934  6947       L1    23  0.85
      P1  H  7989  7998       L1    11  0.88

> <Gold.Chemscore.Hbond.Weighted>
-5.7742

> <Gold.Chemscore.Metal.Weighted>
-0.0000

> <Gold.Chemscore.Lipo.Weighted>
-11.3163

> <Gold.Chemscore.Internal_Hbond.Weighted>
0.0000

> <Gold.Chemscore.DEClash.Weighted>
2.0458

> <Gold.Chemscore.DEInternal.Weighted>
0.8548

> <Gold.Chemscore.Rot.Weighted>
13.4839

> <Gold.Chemscore.Internal.Correction.Weighted>
   9.000000E+99

> <Gold.Protein.RotatedTorsions>
[ 6907 6896 6895 6894 ] final -130.86 input  -60.11 | X-H torsion
[ 7974 7965 7964 7962 ] final -158.84 input  175.53 | X-H torsion
[ 8008 7997 7996 7995 ] final   40.09 input   59.86 | X-H torsion
[ 10167 10162 10161 10158 ] final  -85.52 input  -65.29 | X-H torsion
[ 10718 10713 10712 10709 ] final   52.55 input   66.30 | X-H torsion
[ 10763 10752 10751 10750 ] final   98.94 input  -60.55 | X-H torsion
[ 11005 11000 10999 10996 ] final   77.29 input  -57.11 | X-H torsion

> <Gold.Protein.ActiveResidues>
 VAL166  LYS551  ARG553  GLY616  TRP617  ASP618  TYR619  PRO620  LYS621  CYS622 
 ASP623  PHE694  ASN695  SER759  ASP760  ASP761  ALA762  ILE779  LEU786  VAL792 
 PHE793  MET794  SER795  GLU796  ALA797  LYS798  CYS799  TRP800  GLU811  SER814 

> <Gold.Protein.RotatedAtoms>
  150.9444  133.6620  159.2784 H   0  0  0  0  0  0  0  0  0  0  0  0  # atno 6907 bound_to 6896
  151.3997  135.0968  159.9562 H   0  0  0  0  0  0  0  0  0  0  0  0  # atno 6908 bound_to 6896
  152.5083  133.8941  159.7463 H   0  0  0  0  0  0  0  0  0  0  0  0  # atno 6909 bound_to 6896
  144.7489  140.3770  143.6063 H   0  0  0  0  0  0  0  0  0  0  0  0  # atno 7974 bound_to 7965
  155.2474  140.3350  155.4285 H   0  0  0  0  0  0  0  0  0  0  0  0  # atno 8008 bound_to 7997
  156.2230  140.1817  156.7475 H   0  0  0  0  0  0  0  0  0  0  0  0  # atno 8009 bound_to 7997
  154.5855  140.0646  156.9149 H   0  0  0  0  0  0  0  0  0  0  0  0  # atno 8010 bound_to 7997
  140.4029  143.2655  151.9119 H   0  0  0  0  0  0  0  0  0  0  0  0  # atno 10167 bound_to 10162
  157.5085  130.8485  149.8405 H   0  0  0  0  0  0  0  0  0  0  0  0  # atno 10718 bound_to 10713
  153.2953  135.4130  155.1204 H   0  0  0  0  0  0  0  0  0  0  0  0  # atno 10763 bound_to 10752
  154.8533  135.3528  154.5925 H   0  0  0  0  0  0  0  0  0  0  0  0  # atno 10764 bound_to 10752
  153.6349  135.7059  153.5320 H   0  0  0  0  0  0  0  0  0  0  0  0  # atno 10765 bound_to 10752
  139.9261  134.7671  156.1504 H   0  0  0  0  0  0  0  0  0  0  0  0  # atno 11005 bound_to 11000
  145.7018  139.1663  143.2589 LP  0  0  0  0  0  0  0  0  0  0  0  0  # atno 17320 bound_to 7965
  146.1410  140.7057  142.9367 LP  0  0  0  0  0  0  0  0  0  0  0  0  # atno 17321 bound_to 7965
  139.4784  144.5615  151.8231 LP  0  0  0  0  0  0  0  0  0  0  0  0  # atno 17342 bound_to 10162
  140.4720  144.1572  150.5919 LP  0  0  0  0  0  0  0  0  0  0  0  0  # atno 17343 bound_to 10162
  156.0274  130.3775  150.1784 LP  0  0  0  0  0  0  0  0  0  0  0  0  # atno 17370 bound_to 10713
  156.9974  130.9912  151.3399 LP  0  0  0  0  0  0  0  0  0  0  0  0  # atno 17371 bound_to 10713
  141.0819  133.6751  156.2353 LP  0  0  0  0  0  0  0  0  0  0  0  0  # atno 17394 bound_to 11000
  140.6333  134.5241  157.5562 LP  0  0  0  0  0  0  0  0  0  0  0  0  # atno 17395 bound_to 11000

$$$$
