AV-unprocessed.smi:3250|AV-procd|sdf|12425|dock10
  -GOLD-   2272018313D 1   1.00000     0.00000
 Structure written by MMmdl.
 39 40  0  0  0  0  0  0  0  0  2 V2000
  146.6885  138.6109  151.5296 C   0  0  0  0  0  0  0  0  0  0  0  0
  147.5077  138.5957  152.8283 C   0  0  0  0  0  0  0  0  0  0  0  0
  147.9254  139.9538  153.2573 N   0  3  1  0  0  0  0  0  0  0  0  0
  146.7670  140.8297  153.5541 C   0  0  0  0  0  0  0  0  0  0  0  0
  147.2406  142.2365  153.9539 C   0  0  0  0  0  0  0  0  0  0  0  0
  148.1272  142.1424  155.0617 O   0  0  0  0  0  0  0  0  0  0  0  0
  149.2965  141.3933  154.7518 C   0  0  1  0  0  0  0  0  0  0  0  0
  150.2327  141.4600  155.9722 C   0  0  0  0  0  0  0  0  0  0  0  0
  150.4832  142.8254  156.4173 N   0  0  0  0  0  0  0  0  0  0  0  0
  151.2062  143.1656  157.5467 C   0  0  0  0  0  0  0  0  0  0  0  0
  151.3751  144.4737  157.7485 N   0  0  0  0  0  0  0  0  0  0  0  0
  152.0703  144.8399  158.8476 C   0  0  0  0  0  0  0  0  0  0  0  0
  152.5935  143.8891  159.7466 C   0  0  0  0  0  0  0  0  0  0  0  0
  152.3567  142.5348  159.4376 C   0  0  0  0  0  0  0  0  0  0  0  0
  152.8385  141.5504  160.2752 O   0  0  0  0  0  0  0  0  0  0  0  0
  153.5682  141.9511  161.4301 C   0  0  0  0  0  0  0  0  0  0  0  0
  151.6583  142.1802  158.3304 N   0  0  0  0  0  0  0  0  0  0  0  0
  148.8781  139.9519  154.3949 C   0  0  0  0  0  0  0  0  0  0  0  0
  146.3088  137.6136  151.3063 H   0  0  0  0  0  0  0  0  0  0  0  0
  147.2836  138.9270  150.6732 H   0  0  0  0  0  0  0  0  0  0  0  0
  145.8310  139.2794  151.6113 H   0  0  0  0  0  0  0  0  0  0  0  0
  146.8869  138.1547  153.6093 H   0  0  0  0  0  0  0  0  0  0  0  0
  148.3806  137.9496  152.7250 H   0  0  0  0  0  0  0  0  0  0  0  0
  146.1196  140.8977  152.6790 H   0  0  0  0  0  0  0  0  0  0  0  0
  146.1754  140.3925  154.3600 H   0  0  0  0  0  0  0  0  0  0  0  0
  147.7327  142.7361  153.1178 H   0  0  0  0  0  0  0  0  0  0  0  0
  146.3876  142.8543  154.2353 H   0  0  0  0  0  0  0  0  0  0  0  0
  149.7863  141.8566  153.8936 H   0  0  0  0  0  0  0  0  0  0  0  0
  149.8067  140.8923  156.8005 H   0  0  0  0  0  0  0  0  0  0  0  0
  151.1877  140.9893  155.7381 H   0  0  0  0  0  0  0  0  0  0  0  0
  150.0497  143.5801  155.9054 H   0  0  0  0  0  0  0  0  0  0  0  0
  152.2080  145.8984  159.0123 H   0  0  0  0  0  0  0  0  0  0  0  0
  153.1474  144.1839  160.6257 H   0  0  0  0  0  0  0  0  0  0  0  0
  153.8793  141.0666  161.9858 H   0  0  0  0  0  0  0  0  0  0  0  0
  152.9577  142.5626  162.0964 H   0  0  0  0  0  0  0  0  0  0  0  0
  154.4677  142.5063  161.1603 H   0  0  0  0  0  0  0  0  0  0  0  0
  148.4185  139.4675  155.2581 H   0  0  0  0  0  0  0  0  0  0  0  0
  149.7640  139.3725  154.1371 H   0  0  0  0  0  0  0  0  0  0  0  0
  148.4039  140.3725  152.4721 H   0  0  0  0  0  0  0  0  0  0  0  0
  1  2  1  0  0  0  0
  1 19  1  0  0  0  0
  1 20  1  0  0  0  0
  1 21  1  0  0  0  0
  2  3  1  0  0  0  0
  2 22  1  0  0  0  0
  2 23  1  0  0  0  0
  3 18  1  0  0  0  0
  3  4  1  0  0  0  0
  3 39  1  0  0  0  0
  4  5  1  0  0  0  0
  4 24  1  0  0  0  0
  4 25  1  0  0  0  0
  5  6  1  0  0  0  0
  5 26  1  0  0  0  0
  5 27  1  0  0  0  0
  6  7  1  0  0  0  0
  7  8  1  0  0  0  0
  7 18  1  0  0  0  0
  7 28  1  0  0  0  0
  8  9  1  0  0  0  0
  8 29  1  0  0  0  0
  8 30  1  0  0  0  0
  9 10  1  0  0  0  0
  9 31  1  0  0  0  0
 10 17  1  0  0  0  0
 10 11  2  0  0  0  0
 11 12  1  0  0  0  0
 12 13  2  0  0  0  0
 12 32  1  0  0  0  0
 13 14  1  0  0  0  0
 13 33  1  0  0  0  0
 14 15  1  0  0  0  0
 14 17  2  0  0  0  0
 15 16  1  0  0  0  0
 16 34  1  0  0  0  0
 16 35  1  0  0  0  0
 16 36  1  0  0  0  0
 18 37  1  0  0  0  0
 18 38  1  0  0  0  0
M  CHG  1   3   1
M  END
> <s_m_source_file>
AV-unprocessed.smi

> <i_m_source_file_index>
3250

> <i_lp_mmshare_version>
43012

> <i_f3d_flags>
0

> <s_epik_input>
W0NIM11bQ0gyXU4xW0NIMl1bQ0gyXU9bQ0BIXShbQ0gyXTEpW0NIMl1bTkhdYzJuW2NIXVtjSF1jKG4yKU9bQ0gzXQ==

> <s_epik_cmdline>
J2VwaWtfcHl0aG9uJywgJy1waCcsICc3LjAnLCAnLXRuJywgJzgnLCAnLW1hJywgJzIwMCcsICctbWV0YWxfYmluZGluZycsICctaW1hZScsICc8aW5maWxlLm1hZT4nLCAnLW9tYWUnLCAnPG91dGZpbGUubWFlPic=

> <r_lp_tautomer_probability>
1

> <r_epik_Ionization_Penalty>
0.19684

> <r_epik_Ionization_Penalty_Charging>
0.178504

> <r_epik_Ionization_Penalty_Neutral>
0.0183356

> <r_epik_State_Penalty>
0.162939

> <r_epik_Charging_Adjusted_Penalty>
0.341443

> <i_epik_Tot_Q>
1

> <i_epik_Tot_abs_Q>
1

> <r_epik_Metal_State_Penalty>
0.1608

> <b_epik_Metal_Only>
0

> <s_lp_Force_Field>
OPLS_2005

> <r_lp_Energy>
7.38775

> <b_lp_Chiralities_Consistent>
1

> <s_lp_Variant>
AV-unprocessed.smi:3250-1

> <Gold.Version>
5.8.1

> <Gold.Id.Protein>
6NUR|6NUR_protein|mol2

> <Gold.PLP.Fitness>
45.0454

> <Gold.PLP.PLP>
-39.5149

> <Gold.PLP.part.hbond>
-2.0000

> <Gold.PLP.part.metal>
0.0000

> <Gold.PLP.part.buried>
-4.5031

> <Gold.PLP.part.nonpolar>
-37.3377

> <Gold.PLP.part.repulsive>
3.2069

> <Gold.PLP.ligand.clash>
0.1490

> <Gold.PLP.ligand.torsion>
0.0635

> <Gold.PLP.Chemscore.Hbond>
1.9280

> <Gold.PLP.Chemscore.CHOScore>
0.0000

> <Gold.PLP.Chemscore.Metal>
0.0000

> <Gold.Chemscore.Hbonds>
donor molecule, donor type, donor heavy atom, donor atom, acceptor molecule, acceptor atom, score
      L1  H     3    39       P1  7957  0.88
      L1  H     9    31       P1  8028  1.00

> <Gold.PLP.Chemscore.Internal.Correction>
0.0224

> <Gold.Rescore>
     Score         DG    S(hbond)    S(metal)    S(lipo)     H(rot)  DE(clash)    DE(int)     intcor
     16.35     -18.09       1.98        0.00      88.83       1.71       1.54       0.20       ----

> <Gold.Chemscore.Fitness>
16.3501

> <Gold.Chemscore.DG>
-18.0923

> <Gold.Chemscore.ZeroCoef>
-5.4800

> <Gold.Chemscore.Hbond>
1.9771

> <Gold.Chemscore.Metal>
0.0000

> <Gold.Chemscore.Lipo>
88.8311

> <Gold.Chemscore.Internal_Hbond>
0.0000

> <Gold.Chemscore.DEClash>
1.5375

> <Gold.Chemscore.DEInternal>
0.2047

> <Gold.Chemscore.Rot>
1.7127

> <Gold.Chemscore.Internal.Correction>
   9.000000E+99

> <Gold.Chemscore.Hbonds>
donor molecule, donor type, donor heavy atom, donor atom, acceptor molecule, acceptor atom, score
      L1  H     3    39       P1  7957  0.87
      L1  H     9    31       P1  8028  0.97

> <Gold.Chemscore.Hbond.Weighted>
-6.6036

> <Gold.Chemscore.Metal.Weighted>
-0.0000

> <Gold.Chemscore.Lipo.Weighted>
-10.3932

> <Gold.Chemscore.Internal_Hbond.Weighted>
0.0000

> <Gold.Chemscore.DEClash.Weighted>
1.5375

> <Gold.Chemscore.DEInternal.Weighted>
0.2047

> <Gold.Chemscore.Rot.Weighted>
4.3846

> <Gold.Chemscore.Internal.Correction.Weighted>
   9.000000E+99

> <Gold.Protein.RotatedTorsions>
[ 6907 6896 6895 6894 ] final  137.07 input  -60.11 | X-H torsion
[ 7974 7965 7964 7962 ] final  135.20 input  175.53 | X-H torsion
[ 8008 7997 7996 7995 ] final    2.33 input   59.86 | X-H torsion
[ 10167 10162 10161 10158 ] final   25.55 input  -65.29 | X-H torsion
[ 10718 10713 10712 10709 ] final   10.95 input   66.30 | X-H torsion
[ 10763 10752 10751 10750 ] final  164.90 input  -60.55 | X-H torsion
[ 11005 11000 10999 10996 ] final -159.62 input  -57.11 | X-H torsion

> <Gold.Protein.ActiveResidues>
 VAL166  LYS551  ARG553  GLY616  TRP617  ASP618  TYR619  PRO620  LYS621  CYS622 
 ASP623  PHE694  ASN695  SER759  ASP760  ASP761  ALA762  ILE779  LEU786  VAL792 
 PHE793  MET794  SER795  GLU796  ALA797  LYS798  CYS799  TRP800  GLU811  SER814 

> <Gold.Protein.RotatedAtoms>
  152.2823  133.5482  159.5504 H   0  0  0  0  0  0  0  0  0  0  0  0  # atno 6907 bound_to 6896
  150.7201  134.0547  159.3819 H   0  0  0  0  0  0  0  0  0  0  0  0  # atno 6908 bound_to 6896
  151.8457  135.0575  160.0504 H   0  0  0  0  0  0  0  0  0  0  0  0  # atno 6909 bound_to 6896
  144.9687  139.4629  143.5443 H   0  0  0  0  0  0  0  0  0  0  0  0  # atno 7974 bound_to 7965
  154.6904  140.2652  155.6818 H   0  0  0  0  0  0  0  0  0  0  0  0  # atno 8008 bound_to 7997
  156.2730  140.2792  156.1403 H   0  0  0  0  0  0  0  0  0  0  0  0  # atno 8009 bound_to 7997
  155.0905  140.0373  157.2657 H   0  0  0  0  0  0  0  0  0  0  0  0  # atno 8010 bound_to 7997
  140.5097  144.0181  150.6367 H   0  0  0  0  0  0  0  0  0  0  0  0  # atno 10167 bound_to 10162
  156.9885  130.6033  149.5683 H   0  0  0  0  0  0  0  0  0  0  0  0  # atno 10718 bound_to 10713
  154.3159  135.2756  155.2543 H   0  0  0  0  0  0  0  0  0  0  0  0  # atno 10763 bound_to 10752
  154.4918  135.5831  153.6468 H   0  0  0  0  0  0  0  0  0  0  0  0  # atno 10764 bound_to 10752
  152.9882  135.6136  154.3340 H   0  0  0  0  0  0  0  0  0  0  0  0  # atno 10765 bound_to 10752
  140.6406  134.4555  157.5233 H   0  0  0  0  0  0  0  0  0  0  0  0  # atno 11005 bound_to 11000
  146.3375  139.8885  142.8813 LP  0  0  0  0  0  0  0  0  0  0  0  0  # atno 17320 bound_to 7965
  145.2591  141.0071  143.3837 LP  0  0  0  0  0  0  0  0  0  0  0  0  # atno 17321 bound_to 7965
  140.3500  143.2969  152.0497 LP  0  0  0  0  0  0  0  0  0  0  0  0  # atno 17342 bound_to 10162
  139.4893  144.6381  151.6934 LP  0  0  0  0  0  0  0  0  0  0  0  0  # atno 17343 bound_to 10162
  156.0216  130.5311  150.8292 LP  0  0  0  0  0  0  0  0  0  0  0  0  # atno 17370 bound_to 10713
  157.5476  131.0943  150.9741 LP  0  0  0  0  0  0  0  0  0  0  0  0  # atno 17371 bound_to 10713
  139.9082  134.8403  156.1627 LP  0  0  0  0  0  0  0  0  0  0  0  0  # atno 17394 bound_to 11000
  141.0610  133.6842  156.1952 LP  0  0  0  0  0  0  0  0  0  0  0  0  # atno 17395 bound_to 11000

$$$$
