AV-unprocessed.smi:2401|AV-procd|sdf|9504|dock1
  -GOLD-   2272013133D 1   1.00000     0.00000
 Structure written by MMmdl.
 34 35  0  0  0  0  0  0  0  0  1 V2000
  145.3813  141.9335  157.1412 C   0  0  0  0  0  0  0  0  0  0  0  0
  146.8078  141.5586  156.7799 C   0  0  0  0  0  0  0  0  0  0  0  0
  147.6166  141.1604  157.8482 N   0  0  0  0  0  0  0  0  0  0  0  0
  148.8478  140.8273  157.6358 C   0  0  0  0  0  0  0  0  0  0  0  0
  149.4068  140.8515  156.3476 N   0  0  0  0  0  0  0  0  0  0  0  0
  150.8232  140.4616  156.2431 C   0  0  0  0  0  0  0  0  0  0  0  0
  151.5220  140.4233  157.6204 C   0  0  1  0  0  0  0  0  0  0  0  0
  152.7792  139.7926  157.4729 O   0  0  0  0  0  0  0  0  0  0  0  0
  151.6697  141.8234  158.1963 C   0  0  0  0  0  0  0  0  0  0  0  0
  151.2016  142.9503  157.4844 C   0  0  0  0  0  0  0  0  0  0  0  0
  151.3384  144.2416  158.0296 C   0  0  0  0  0  0  0  0  0  0  0  0
  151.9408  144.4143  159.2908 C   0  0  0  0  0  0  0  0  0  0  0  0
  152.1092  145.9963  159.9582 Cl  0  0  0  0  0  0  0  0  0  0  0  0
  152.4040  143.2939  160.0074 C   0  0  0  0  0  0  0  0  0  0  0  0
  152.2674  142.0024  159.4625 C   0  0  0  0  0  0  0  0  0  0  0  0
  148.6890  141.2304  155.2508 C   0  0  0  0  0  0  0  0  0  0  0  0
  149.1932  141.2590  154.1262 O   0  0  0  0  0  0  0  0  0  0  0  0
  147.2888  141.6039  155.5076 C   0  0  0  0  0  0  0  0  0  0  0  0
  146.4555  142.0291  154.3050 C   0  0  0  0  0  0  0  0  0  0  0  0
  144.6719  141.2985  156.6099 H   0  0  0  0  0  0  0  0  0  0  0  0
  145.1829  142.9736  156.8807 H   0  0  0  0  0  0  0  0  0  0  0  0
  145.1983  141.8167  158.2102 H   0  0  0  0  0  0  0  0  0  0  0  0
  149.5221  140.5148  158.4351 H   0  0  0  0  0  0  0  0  0  0  0  0
  150.9585  139.5138  155.7171 H   0  0  0  0  0  0  0  0  0  0  0  0
  151.3246  141.1941  155.6072 H   0  0  0  0  0  0  0  0  0  0  0  0
  150.9378  139.8281  158.3237 H   0  0  0  0  0  0  0  0  0  0  0  0
  152.8047  139.0400  158.0441 H   0  0  0  0  0  0  0  0  0  0  0  0
  150.7344  142.8278  156.5182 H   0  0  0  0  0  0  0  0  0  0  0  0
  150.9798  145.0988  157.4788 H   0  0  0  0  0  0  0  0  0  0  0  0
  152.8638  143.4229  160.9763 H   0  0  0  0  0  0  0  0  0  0  0  0
  152.6229  141.1492  160.0218 H   0  0  0  0  0  0  0  0  0  0  0  0
  146.9040  142.9005  153.8268 H   0  0  0  0  0  0  0  0  0  0  0  0
  145.4299  142.2881  154.5623 H   0  0  0  0  0  0  0  0  0  0  0  0
  146.4157  141.2230  153.5718 H   0  0  0  0  0  0  0  0  0  0  0  0
  1  2  1  0  0  0  0
  1 20  1  0  0  0  0
  1 21  1  0  0  0  0
  1 22  1  0  0  0  0
  2 18  2  0  0  0  0
  2  3  1  0  0  0  0
  3  4  2  0  0  0  0
  4  5  1  0  0  0  0
  4 23  1  0  0  0  0
  5  6  1  0  0  0  0
  5 16  1  0  0  0  0
  6  7  1  0  0  0  0
  6 24  1  0  0  0  0
  6 25  1  0  0  0  0
  7  8  1  0  0  0  0
  7  9  1  0  0  0  0
  7 26  1  0  0  0  0
  8 27  1  0  0  0  0
  9 15  1  0  0  0  0
  9 10  2  0  0  0  0
 10 11  1  0  0  0  0
 10 28  1  0  0  0  0
 11 12  2  0  0  0  0
 11 29  1  0  0  0  0
 12 13  1  0  0  0  0
 12 14  1  0  0  0  0
 14 15  2  0  0  0  0
 14 30  1  0  0  0  0
 15 31  1  0  0  0  0
 16 17  2  0  0  0  0
 16 18  1  0  0  0  0
 18 19  1  0  0  0  0
 19 32  1  0  0  0  0
 19 33  1  0  0  0  0
 19 34  1  0  0  0  0
M  END
> <s_m_source_file>
AV-unprocessed.smi

> <i_m_source_file_index>
2401

> <i_lp_mmshare_version>
43012

> <i_f3d_flags>
0

> <s_epik_input>
W0NIM11jMW5bY0hdbihjKD1PKWMxW0NIM10pW0NIMl1bQ0BIXShbT0hdKWMyW2NIXVtjSF1jKENsKVtjSF1bY0hdMg==

> <s_epik_cmdline>
J2VwaWtfcHl0aG9uJywgJy1waCcsICc3LjAnLCAnLXRuJywgJzgnLCAnLW1hJywgJzIwMCcsICctbWV0YWxfYmluZGluZycsICctaW1hZScsICc8aW5maWxlLm1hZT4nLCAnLW9tYWUnLCAnPG91dGZpbGUubWFlPic=

> <r_lp_tautomer_probability>
1

> <r_epik_Ionization_Penalty>
5.07713e-05

> <r_epik_Ionization_Penalty_Charging>
7.56727e-08

> <r_epik_Ionization_Penalty_Neutral>
5.06957e-05

> <r_epik_State_Penalty>
-0

> <r_epik_Charging_Adjusted_Penalty>
7.56727e-08

> <i_epik_Tot_Q>
0

> <i_epik_Tot_abs_Q>
0

> <r_epik_Metal_State_Penalty>
-0

> <b_epik_Metal_Only>
0

> <s_lp_Force_Field>
OPLS_2005

> <r_lp_Energy>
18.5783

> <b_lp_Chiralities_Consistent>
1

> <s_lp_Variant>
AV-unprocessed.smi:2401-2

> <Gold.Version>
5.8.1

> <Gold.Id.Protein>
6NUR|6NUR_protein|mol2

> <Gold.PLP.Fitness>
45.0787

> <Gold.PLP.PLP>
-41.4455

> <Gold.PLP.part.hbond>
-3.0000

> <Gold.PLP.part.metal>
0.0000

> <Gold.PLP.part.buried>
-4.0730

> <Gold.PLP.part.nonpolar>
-35.2368

> <Gold.PLP.part.repulsive>
0.7771

> <Gold.PLP.ligand.clash>
1.6384

> <Gold.PLP.ligand.torsion>
0.2255

> <Gold.PLP.Chemscore.Hbond>
1.8924

> <Gold.PLP.Chemscore.CHOScore>
0.0000

> <Gold.PLP.Chemscore.Metal>
0.0000

> <Gold.Chemscore.Hbonds>
donor molecule, donor type, donor heavy atom, donor atom, acceptor molecule, acceptor atom, score
      P1  H  7997  8008       L1     8  1.00
      P1  H  8011  8017       L1    17  0.41

> <Gold.PLP.Chemscore.Internal.Correction>
0.0454

> <Gold.Rescore>
     Score         DG    S(hbond)    S(metal)    S(lipo)     H(rot)  DE(clash)    DE(int)     intcor
     17.00     -18.86       1.89        0.00     102.51       1.93       0.37       1.49       ----

> <Gold.Chemscore.Fitness>
17.0032

> <Gold.Chemscore.DG>
-18.8599

> <Gold.Chemscore.ZeroCoef>
-5.4800

> <Gold.Chemscore.Hbond>
1.8918

> <Gold.Chemscore.Metal>
0.0000

> <Gold.Chemscore.Lipo>
102.5059

> <Gold.Chemscore.Internal_Hbond>
0.0000

> <Gold.Chemscore.DEClash>
0.3704

> <Gold.Chemscore.DEInternal>
1.4863

> <Gold.Chemscore.Rot>
1.9265

> <Gold.Chemscore.Internal.Correction>
   9.000000E+99

> <Gold.Chemscore.Hbonds>
donor molecule, donor type, donor heavy atom, donor atom, acceptor molecule, acceptor atom, score
      P1  H  7997  8008       L1     8  0.78
      P1  H  8011  8017       L1    17  0.41

> <Gold.Chemscore.Hbond.Weighted>
-6.3185

> <Gold.Chemscore.Metal.Weighted>
-0.0000

> <Gold.Chemscore.Lipo.Weighted>
-11.9932

> <Gold.Chemscore.Internal_Hbond.Weighted>
0.0000

> <Gold.Chemscore.DEClash.Weighted>
0.3704

> <Gold.Chemscore.DEInternal.Weighted>
1.4863

> <Gold.Chemscore.Rot.Weighted>
4.9317

> <Gold.Chemscore.Internal.Correction.Weighted>
   9.000000E+99

> <Gold.Protein.RotatedTorsions>
[ 6907 6896 6895 6894 ] final  -53.54 input  -60.11 | X-H torsion
[ 7974 7965 7964 7962 ] final -142.68 input  175.53 | X-H torsion
[ 8008 7997 7996 7995 ] final  -63.95 input   59.86 | X-H torsion
[ 10167 10162 10161 10158 ] final  -98.01 input  -65.29 | X-H torsion
[ 10718 10713 10712 10709 ] final -137.54 input   66.30 | X-H torsion
[ 10763 10752 10751 10750 ] final   75.65 input  -60.55 | X-H torsion
[ 11005 11000 10999 10996 ] final   27.46 input  -57.11 | X-H torsion

> <Gold.Protein.ActiveResidues>
 VAL166  LYS551  ARG553  GLY616  TRP617  ASP618  TYR619  PRO620  LYS621  CYS622 
 ASP623  PHE694  ASN695  SER759  ASP760  ASP761  ALA762  ILE779  LEU786  VAL792 
 PHE793  MET794  SER795  GLU796  ALA797  LYS798  CYS799  TRP800  GLU811  SER814 

> <Gold.Protein.RotatedAtoms>
  150.8418  134.7713  159.6938 H   0  0  0  0  0  0  0  0  0  0  0  0  # atno 6907 bound_to 6896
  152.4504  134.5403  159.9847 H   0  0  0  0  0  0  0  0  0  0  0  0  # atno 6908 bound_to 6896
  151.5542  133.3375  159.2994 H   0  0  0  0  0  0  0  0  0  0  0  0  # atno 6909 bound_to 6896
  144.8425  140.5927  143.5443 H   0  0  0  0  0  0  0  0  0  0  0  0  # atno 7974 bound_to 7965
  154.4583  140.0964  156.6821 H   0  0  0  0  0  0  0  0  0  0  0  0  # atno 8008 bound_to 7997
  155.5070  140.3475  155.4363 H   0  0  0  0  0  0  0  0  0  0  0  0  # atno 8009 bound_to 7997
  156.0821  140.1376  156.9688 H   0  0  0  0  0  0  0  0  0  0  0  0  # atno 8010 bound_to 7997
  140.2774  143.3304  152.0475 H   0  0  0  0  0  0  0  0  0  0  0  0  # atno 10167 bound_to 10162
  156.2893  130.7366  151.1386 H   0  0  0  0  0  0  0  0  0  0  0  0  # atno 10718 bound_to 10713
  153.0670  135.4980  154.8221 H   0  0  0  0  0  0  0  0  0  0  0  0  # atno 10763 bound_to 10752
  154.6967  135.2994  154.9403 H   0  0  0  0  0  0  0  0  0  0  0  0  # atno 10764 bound_to 10752
  154.0140  135.6750  153.4820 H   0  0  0  0  0  0  0  0  0  0  0  0  # atno 10765 bound_to 10752
  140.3260  134.2490  155.7709 H   0  0  0  0  0  0  0  0  0  0  0  0  # atno 11005 bound_to 11000
  145.4665  139.1507  143.3838 LP  0  0  0  0  0  0  0  0  0  0  0  0  # atno 17320 bound_to 7965
  146.2715  140.4796  142.8812 LP  0  0  0  0  0  0  0  0  0  0  0  0  # atno 17321 bound_to 7965
  139.4972  144.6615  151.6454 LP  0  0  0  0  0  0  0  0  0  0  0  0  # atno 17342 bound_to 10162
  140.5840  143.9897  150.6284 LP  0  0  0  0  0  0  0  0  0  0  0  0  # atno 17343 bound_to 10162
  157.7338  131.0588  150.5560 LP  0  0  0  0  0  0  0  0  0  0  0  0  # atno 17370 bound_to 10713
  156.5674  130.4271  149.6035 LP  0  0  0  0  0  0  0  0  0  0  0  0  # atno 17371 bound_to 10713
  141.2075  133.7804  157.0115 LP  0  0  0  0  0  0  0  0  0  0  0  0  # atno 17394 bound_to 11000
  140.0901  134.9598  157.1762 LP  0  0  0  0  0  0  0  0  0  0  0  0  # atno 17395 bound_to 11000

$$$$
