AV-unprocessed.smi:244|AV-procd|sdf|1870|dock1
  -GOLD-   2262020503D 1   1.00000     0.00000
 Structure written by MMmdl.
 57 61  0  0  0  0  0  0  0  0  2 V2000
  148.8088  142.3986  159.1321 C   0  0  0  0  0  0  0  0  0  0  0  0
  149.9610  143.1544  158.5886 N   0  3  1  0  0  0  0  0  0  0  0  0
  150.6510  143.9961  159.6006 C   0  0  0  0  0  0  0  0  0  0  0  0
  151.5585  143.1653  160.5274 C   0  0  0  0  0  0  0  0  0  0  0  0
  152.5555  142.3392  159.7050 C   0  0  1  0  0  0  0  0  0  0  0  0
  153.3463  141.5354  160.5733 O   0  0  0  0  0  0  0  0  0  0  0  0
  154.3321  140.7991  159.8562 C   0  0  0  0  0  0  0  0  0  0  0  0
  153.6409  139.8584  158.8558 C   0  0  0  0  0  0  0  0  0  0  0  0
  152.7562  140.6135  157.9730 N   0  0  0  0  0  0  0  0  0  0  0  0
  152.2125  139.8351  157.0107 C   0  0  0  0  0  0  0  0  0  0  0  0
  152.6906  139.8874  155.7392 N   0  0  0  0  0  0  0  0  0  0  0  0
  152.1696  139.0921  154.7995 C   0  0  0  0  0  0  0  0  0  0  0  0
  151.1978  138.1844  154.9189 N   0  0  0  0  0  0  0  0  0  0  0  0
  150.7234  138.1289  156.1969 C   0  0  0  0  0  0  0  0  0  0  0  0
  151.1676  138.9186  157.2930 C   0  0  0  0  0  0  0  0  0  0  0  0
  150.4577  138.5908  158.4401 N   0  0  0  0  0  0  0  0  0  0  0  0
  149.6345  137.6587  158.0432 C   0  0  0  0  0  0  0  0  0  0  0  0
  149.7411  137.3041  156.7162 N   0  0  0  0  0  0  0  0  0  0  0  0
  148.9643  136.2900  156.0201 C   0  0  0  0  0  0  0  0  0  0  0  0
  149.8151  135.2623  155.2306 C   0  0  0  0  0  0  0  0  0  0  0  0
  150.3342  135.9774  154.1241 O   0  0  0  0  0  0  0  0  0  0  0  0
  150.9999  134.7065  156.0501 C   0  0  0  0  0  0  0  0  0  0  0  0
  151.7721  133.6209  155.2791 C   0  0  0  0  0  0  0  0  0  0  0  0
  150.8854  132.5793  154.8874 O   0  0  0  0  0  0  0  0  0  0  0  0
  149.8681  133.0247  153.9979 C   0  0  0  0  0  0  0  0  0  0  0  0
  148.9846  134.0755  154.6943 C   0  0  0  0  0  0  0  0  0  0  0  0
  151.7944  141.4338  158.7134 C   0  0  2  0  0  0  0  0  0  0  0  0
  150.9028  142.3158  157.8018 C   0  0  0  0  0  0  0  0  0  0  0  0
  149.1180  141.6578  159.8694 H   0  0  0  0  0  0  0  0  0  0  0  0
  148.2810  141.8790  158.3319 H   0  0  0  0  0  0  0  0  0  0  0  0
  148.0992  143.0752  159.6091 H   0  0  0  0  0  0  0  0  0  0  0  0
  151.2545  144.7362  159.0732 H   0  0  0  0  0  0  0  0  0  0  0  0
  149.9196  144.5576  160.1832 H   0  0  0  0  0  0  0  0  0  0  0  0
  152.0960  143.8263  161.2078 H   0  0  0  0  0  0  0  0  0  0  0  0
  150.9557  142.5064  161.1531 H   0  0  0  0  0  0  0  0  0  0  0  0
  153.2103  143.0228  159.1601 H   0  0  0  0  0  0  0  0  0  0  0  0
  155.0126  141.4805  159.3434 H   0  0  0  0  0  0  0  0  0  0  0  0
  154.9305  140.2234  160.5626 H   0  0  0  0  0  0  0  0  0  0  0  0
  154.3902  139.3283  158.2659 H   0  0  0  0  0  0  0  0  0  0  0  0
  153.0683  139.1061  159.4004 H   0  0  0  0  0  0  0  0  0  0  0  0
  152.5948  139.1944  153.8118 H   0  0  0  0  0  0  0  0  0  0  0  0
  148.9308  137.1891  158.7155 H   0  0  0  0  0  0  0  0  0  0  0  0
  148.3469  135.7766  156.7587 H   0  0  0  0  0  0  0  0  0  0  0  0
  148.2705  136.7976  155.3480 H   0  0  0  0  0  0  0  0  0  0  0  0
  149.6615  136.0374  153.4631 H   0  0  0  0  0  0  0  0  0  0  0  0
  151.6742  135.5118  156.3443 H   0  0  0  0  0  0  0  0  0  0  0  0
  150.6337  134.2597  156.9740 H   0  0  0  0  0  0  0  0  0  0  0  0
  152.2725  134.0374  154.4036 H   0  0  0  0  0  0  0  0  0  0  0  0
  152.5506  133.1969  155.9135 H   0  0  0  0  0  0  0  0  0  0  0  0
  150.3141  133.4237  153.0857 H   0  0  0  0  0  0  0  0  0  0  0  0
  149.2631  132.1674  153.7024 H   0  0  0  0  0  0  0  0  0  0  0  0
  148.4710  133.5795  155.5174 H   0  0  0  0  0  0  0  0  0  0  0  0
  148.2079  134.4262  154.0137 H   0  0  0  0  0  0  0  0  0  0  0  0
  151.1574  140.7562  159.2841 H   0  0  0  0  0  0  0  0  0  0  0  0
  150.3286  141.7134  157.0970 H   0  0  0  0  0  0  0  0  0  0  0  0
  151.5313  142.9739  157.1999 H   0  0  0  0  0  0  0  0  0  0  0  0
  149.5547  143.8009  157.9272 H   0  0  0  0  0  0  0  0  0  0  0  0
  1  2  1  0  0  0  0
  1 29  1  0  0  0  0
  1 30  1  0  0  0  0
  1 31  1  0  0  0  0
  2 28  1  0  0  0  0
  2  3  1  0  0  0  0
  2 57  1  0  0  0  0
  3  4  1  0  0  0  0
  3 32  1  0  0  0  0
  3 33  1  0  0  0  0
  4  5  1  0  0  0  0
  4 34  1  0  0  0  0
  4 35  1  0  0  0  0
  5 27  1  0  0  0  0
  5  6  1  0  0  0  0
  5 36  1  0  0  0  0
  6  7  1  0  0  0  0
  7  8  1  0  0  0  0
  7 37  1  0  0  0  0
  7 38  1  0  0  0  0
  8  9  1  0  0  0  0
  8 39  1  0  0  0  0
  8 40  1  0  0  0  0
  9 10  1  0  0  0  0
  9 27  1  0  0  0  0
 10 15  1  0  0  0  0
 10 11  2  0  0  0  0
 11 12  1  0  0  0  0
 12 13  2  0  0  0  0
 12 41  1  0  0  0  0
 13 14  1  0  0  0  0
 14 18  1  0  0  0  0
 14 15  2  0  0  0  0
 15 16  1  0  0  0  0
 16 17  2  0  0  0  0
 17 18  1  0  0  0  0
 17 42  1  0  0  0  0
 18 19  1  0  0  0  0
 19 20  1  0  0  0  0
 19 43  1  0  0  0  0
 19 44  1  0  0  0  0
 20 26  1  0  0  0  0
 20 21  1  0  0  0  0
 20 22  1  0  0  0  0
 21 45  1  0  0  0  0
 22 23  1  0  0  0  0
 22 46  1  0  0  0  0
 22 47  1  0  0  0  0
 23 24  1  0  0  0  0
 23 48  1  0  0  0  0
 23 49  1  0  0  0  0
 24 25  1  0  0  0  0
 25 26  1  0  0  0  0
 25 50  1  0  0  0  0
 25 51  1  0  0  0  0
 26 52  1  0  0  0  0
 26 53  1  0  0  0  0
 27 28  1  0  0  0  0
 27 54  1  0  0  0  0
 28 55  1  0  0  0  0
 28 56  1  0  0  0  0
M  CHG  1   2   1
M  END
> <s_m_source_file>
AV-unprocessed.smi

> <i_m_source_file_index>
244

> <i_lp_mmshare_version>
43012

> <i_f3d_flags>
0

> <s_epik_input>
W0NIMl0xW0NIMl1OKFtDSDNdKVtDSDJdW0NAQEhdKFtDQEhdMTIpTihbQ0gyXVtDSDJdTzIpYyhuW2NIXW4zKWMoYzM0KW5bY0hdbjRbQ0gyXUM1KFtPSF0pW0NIMl1bQ0gyXU9bQ0gyXVtDSDJdNQ==

> <s_epik_cmdline>
J2VwaWtfcHl0aG9uJywgJy1waCcsICc3LjAnLCAnLXRuJywgJzgnLCAnLW1hJywgJzIwMCcsICctbWV0YWxfYmluZGluZycsICctaW1hZScsICc8aW5maWxlLm1hZT4nLCAnLW9tYWUnLCAnPG91dGZpbGUubWFlPic=

> <r_lp_tautomer_probability>
1

> <r_epik_Ionization_Penalty>
0.0136215

> <r_epik_Ionization_Penalty_Charging>
0.0131385

> <r_epik_Ionization_Penalty_Neutral>
0.000483022

> <r_epik_State_Penalty>
0.0104001

> <r_epik_Charging_Adjusted_Penalty>
0.0235387

> <i_epik_Tot_Q>
1

> <i_epik_Tot_abs_Q>
1

> <r_epik_Metal_State_Penalty>
0.0104469

> <b_epik_Metal_Only>
0

> <s_lp_Force_Field>
OPLS_2005

> <r_lp_Energy>
43.6006

> <b_lp_Chiralities_Consistent>
1

> <s_lp_Variant>
AV-unprocessed.smi:244-7

> <Gold.Version>
5.8.1

> <Gold.Id.Protein>
6NUR|6NUR_protein|mol2

> <Gold.PLP.Fitness>
50.7499

> <Gold.PLP.PLP>
-39.4416

> <Gold.PLP.part.hbond>
-4.9080

> <Gold.PLP.part.metal>
0.0000

> <Gold.PLP.part.buried>
-4.2401

> <Gold.PLP.part.nonpolar>
-29.7158

> <Gold.PLP.part.repulsive>
0.1242

> <Gold.PLP.ligand.clash>
0.0125

> <Gold.PLP.ligand.torsion>
0.4011

> <Gold.PLP.Chemscore.Hbond>
4.0000

> <Gold.PLP.Chemscore.CHOScore>
0.0000

> <Gold.PLP.Chemscore.Metal>
0.0000

> <Gold.Chemscore.Hbonds>
donor molecule, donor type, donor heavy atom, donor atom, acceptor molecule, acceptor atom, score
      L1  H    21    45       P1  7948  0.95
      P1  H  7997  8008       L1    11  1.00

> <Gold.PLP.Chemscore.Internal.Correction>
0.1230

> <Gold.Rescore>
     Score         DG    S(hbond)    S(metal)    S(lipo)     H(rot)  DE(clash)    DE(int)     intcor
     14.15     -16.79       1.88        0.00      88.78       2.09       0.02       2.62       ----

> <Gold.Chemscore.Fitness>
14.1481

> <Gold.Chemscore.DG>
-16.7917

> <Gold.Chemscore.ZeroCoef>
-5.4800

> <Gold.Chemscore.Hbond>
1.8794

> <Gold.Chemscore.Metal>
0.0000

> <Gold.Chemscore.Lipo>
88.7839

> <Gold.Chemscore.Internal_Hbond>
0.0000

> <Gold.Chemscore.DEClash>
0.0234

> <Gold.Chemscore.DEInternal>
2.6201

> <Gold.Chemscore.Rot>
2.0911

> <Gold.Chemscore.Internal.Correction>
   9.000000E+99

> <Gold.Chemscore.Hbonds>
donor molecule, donor type, donor heavy atom, donor atom, acceptor molecule, acceptor atom, score
      L1  H    21    45       P1  7948  0.21
      P1  H  7997  8008       L1    11  0.30

> <Gold.Chemscore.Hbond.Weighted>
-6.2771

> <Gold.Chemscore.Metal.Weighted>
-0.0000

> <Gold.Chemscore.Lipo.Weighted>
-10.3877

> <Gold.Chemscore.Internal_Hbond.Weighted>
0.0000

> <Gold.Chemscore.DEClash.Weighted>
0.0234

> <Gold.Chemscore.DEInternal.Weighted>
2.6201

> <Gold.Chemscore.Rot.Weighted>
5.3531

> <Gold.Chemscore.Internal.Correction.Weighted>
   9.000000E+99

> <Gold.Protein.RotatedTorsions>
[ 6907 6896 6895 6894 ] final  -18.88 input  -60.11 | X-H torsion
[ 7974 7965 7964 7962 ] final -134.16 input  175.53 | X-H torsion
[ 8008 7997 7996 7995 ] final  -24.59 input   59.86 | X-H torsion
[ 10167 10162 10161 10158 ] final  -58.57 input  -65.29 | X-H torsion
[ 10718 10713 10712 10709 ] final  -60.92 input   66.30 | X-H torsion
[ 10763 10752 10751 10750 ] final -127.11 input  -60.55 | X-H torsion
[ 11005 11000 10999 10996 ] final -153.39 input  -57.11 | X-H torsion

> <Gold.Protein.ActiveResidues>
 VAL166  LYS551  ARG553  GLY616  TRP617  ASP618  TYR619  PRO620  LYS621  CYS622 
 ASP623  PHE694  ASN695  SER759  ASP760  ASP761  ALA762  ILE779  LEU786  VAL792 
 PHE793  MET794  SER795  GLU796  ALA797  LYS798  CYS799  TRP800  GLU811  SER814 

> <Gold.Protein.RotatedAtoms>
  151.2715  135.0686  159.9135 H   0  0  0  0  0  0  0  0  0  0  0  0  # atno 6907 bound_to 6896
  152.5350  134.0126  159.7955 H   0  0  0  0  0  0  0  0  0  0  0  0  # atno 6908 bound_to 6896
  151.0365  133.5694  159.2686 H   0  0  0  0  0  0  0  0  0  0  0  0  # atno 6909 bound_to 6896
  144.9128  140.6916  143.5014 H   0  0  0  0  0  0  0  0  0  0  0  0  # atno 7974 bound_to 7965
  154.4521  140.1949  156.0487 H   0  0  0  0  0  0  0  0  0  0  0  0  # atno 8008 bound_to 7997
  156.0670  140.3289  155.7502 H   0  0  0  0  0  0  0  0  0  0  0  0  # atno 8009 bound_to 7997
  155.5323  140.0579  157.2877 H   0  0  0  0  0  0  0  0  0  0  0  0  # atno 8010 bound_to 7997
  140.6189  143.2412  151.5529 H   0  0  0  0  0  0  0  0  0  0  0  0  # atno 10167 bound_to 10162
  156.0957  130.4193  150.0921 H   0  0  0  0  0  0  0  0  0  0  0  0  # atno 10718 bound_to 10713
  154.8750  135.3973  154.3540 H   0  0  0  0  0  0  0  0  0  0  0  0  # atno 10763 bound_to 10752
  153.4321  135.7025  153.6229 H   0  0  0  0  0  0  0  0  0  0  0  0  # atno 10764 bound_to 10752
  153.4846  135.3761  155.2429 H   0  0  0  0  0  0  0  0  0  0  0  0  # atno 10765 bound_to 10752
  140.7086  134.3857  157.5200 H   0  0  0  0  0  0  0  0  0  0  0  0  # atno 11005 bound_to 11000
  145.3426  139.1728  143.4477 LP  0  0  0  0  0  0  0  0  0  0  0  0  # atno 17320 bound_to 7965
  146.3167  140.3469  142.8653 LP  0  0  0  0  0  0  0  0  0  0  0  0  # atno 17321 bound_to 7965
  139.5422  144.2618  152.1372 LP  0  0  0  0  0  0  0  0  0  0  0  0  # atno 17342 bound_to 10162
  140.1833  144.4823  150.6517 LP  0  0  0  0  0  0  0  0  0  0  0  0  # atno 17343 bound_to 10162
  156.8921  130.9592  151.3587 LP  0  0  0  0  0  0  0  0  0  0  0  0  # atno 17370 bound_to 10713
  157.6117  130.8588  149.8963 LP  0  0  0  0  0  0  0  0  0  0  0  0  # atno 17371 bound_to 10713
  139.8877  134.8874  156.2512 LP  0  0  0  0  0  0  0  0  0  0  0  0  # atno 17394 bound_to 11000
  141.0103  133.7099  156.1101 LP  0  0  0  0  0  0  0  0  0  0  0  0  # atno 17395 bound_to 11000

$$$$
