AV-unprocessed.smi:2263|AV-procd|sdf|9140|dock5
  -GOLD-   2272012343D 1   1.00000     0.00000
 Structure written by MMmdl.
 40 41  0  0  0  0  0  0  0  0  1 V2000
  143.0479  137.2331  152.7762 C   0  0  0  0  0  0  0  0  0  0  0  0
  144.5718  137.1757  152.7694 C   0  0  0  0  0  0  0  0  0  0  0  0
  145.1483  136.1017  152.6006 O   0  0  0  0  0  0  0  0  0  0  0  0
  145.2117  138.3397  152.9569 N   0  0  0  0  0  0  0  0  0  0  0  0
  146.6606  138.5001  152.9964 C   0  0  0  0  0  0  0  0  0  0  0  0
  147.0590  139.9346  153.3785 C   0  0  0  0  0  0  0  0  0  0  0  0
  148.3398  139.9861  154.1412 C   0  0  0  0  0  0  0  0  0  0  0  0
  148.8159  141.0969  154.7096 N   0  0  0  0  0  0  0  0  0  0  0  0
  150.0490  140.8947  155.3374 C   0  0  0  0  0  0  0  0  0  0  0  0
  150.7273  142.0316  156.0400 C   0  0  0  0  0  0  0  0  0  0  0  0
  151.0512  141.7007  157.5057 C   0  0  0  0  0  0  0  0  0  0  0  0
  151.9439  142.7550  158.1846 C   0  0  0  0  0  0  0  0  0  0  0  0
  151.9138  142.6863  159.7146 C   0  0  0  0  0  0  0  0  0  0  0  0
  152.3591  144.0717  160.2013 C   0  0  0  0  0  0  0  0  0  0  0  0
  152.2255  145.0184  158.9993 C   0  0  0  0  0  0  0  0  0  0  0  0
  151.5468  144.2051  157.8945 C   0  0  0  0  0  0  0  0  0  0  0  0
  150.5074  139.6056  155.2264 C   0  0  0  0  0  0  0  0  0  0  0  0
  149.4086  138.6004  154.3228 S   0  0  0  0  0  0  0  0  0  0  0  0
  142.6866  137.6768  153.7044 H   0  0  0  0  0  0  0  0  0  0  0  0
  142.6219  136.2329  152.6885 H   0  0  0  0  0  0  0  0  0  0  0  0
  142.6854  137.8330  151.9410 H   0  0  0  0  0  0  0  0  0  0  0  0
  144.6559  139.1728  153.0862 H   0  0  0  0  0  0  0  0  0  0  0  0
  147.0981  137.7826  153.6928 H   0  0  0  0  0  0  0  0  0  0  0  0
  147.0558  138.2552  152.0100 H   0  0  0  0  0  0  0  0  0  0  0  0
  147.1589  140.5491  152.4828 H   0  0  0  0  0  0  0  0  0  0  0  0
  146.2799  140.3953  153.9868 H   0  0  0  0  0  0  0  0  0  0  0  0
  151.6479  142.2926  155.5167 H   0  0  0  0  0  0  0  0  0  0  0  0
  150.0966  142.9198  155.9940 H   0  0  0  0  0  0  0  0  0  0  0  0
  150.1255  141.5808  158.0706 H   0  0  0  0  0  0  0  0  0  0  0  0
  151.5576  140.7353  157.5435 H   0  0  0  0  0  0  0  0  0  0  0  0
  152.9766  142.6096  157.8624 H   0  0  0  0  0  0  0  0  0  0  0  0
  150.8957  142.4958  160.0575 H   0  0  0  0  0  0  0  0  0  0  0  0
  152.5447  141.8874  160.1053 H   0  0  0  0  0  0  0  0  0  0  0  0
  151.7454  144.4018  161.0405 H   0  0  0  0  0  0  0  0  0  0  0  0
  153.3940  144.0468  160.5453 H   0  0  0  0  0  0  0  0  0  0  0  0
  151.6638  145.9205  159.2430 H   0  0  0  0  0  0  0  0  0  0  0  0
  153.2171  145.3304  158.6693 H   0  0  0  0  0  0  0  0  0  0  0  0
  151.8449  144.5331  156.8984 H   0  0  0  0  0  0  0  0  0  0  0  0
  150.4644  144.3181  157.9708 H   0  0  0  0  0  0  0  0  0  0  0  0
  151.4232  139.1885  155.6179 H   0  0  0  0  0  0  0  0  0  0  0  0
  1  2  1  0  0  0  0
  1 19  1  0  0  0  0
  1 20  1  0  0  0  0
  1 21  1  0  0  0  0
  2  3  2  0  0  0  0
  2  4  1  0  0  0  0
  4  5  1  0  0  0  0
  4 22  1  0  0  0  0
  5  6  1  0  0  0  0
  5 23  1  0  0  0  0
  5 24  1  0  0  0  0
  6  7  1  0  0  0  0
  6 25  1  0  0  0  0
  6 26  1  0  0  0  0
  7 18  1  0  0  0  0
  7  8  2  0  0  0  0
  8  9  1  0  0  0  0
  9 10  1  0  0  0  0
  9 17  2  0  0  0  0
 10 11  1  0  0  0  0
 10 27  1  0  0  0  0
 10 28  1  0  0  0  0
 11 12  1  0  0  0  0
 11 29  1  0  0  0  0
 11 30  1  0  0  0  0
 12 16  1  0  0  0  0
 12 13  1  0  0  0  0
 12 31  1  0  0  0  0
 13 14  1  0  0  0  0
 13 32  1  0  0  0  0
 13 33  1  0  0  0  0
 14 15  1  0  0  0  0
 14 34  1  0  0  0  0
 14 35  1  0  0  0  0
 15 16  1  0  0  0  0
 15 36  1  0  0  0  0
 15 37  1  0  0  0  0
 16 38  1  0  0  0  0
 16 39  1  0  0  0  0
 17 18  1  0  0  0  0
 17 40  1  0  0  0  0
M  END
> <s_m_source_file>
AV-unprocessed.smi

> <i_m_source_file_index>
2263

> <i_lp_mmshare_version>
43012

> <i_f3d_flags>
0

> <s_epik_input>
W0NIM11DKD1PKVtOSF1bQ0gyXVtDSDJdYzFuYyhbY0hdczEpW0NIMl1bQ0gyXVtDSF0yW0NIMl1bQ0gyXVtDSDJdW0NIMl0y

> <s_epik_cmdline>
J2VwaWtfcHl0aG9uJywgJy1waCcsICc3LjAnLCAnLXRuJywgJzgnLCAnLW1hJywgJzIwMCcsICctbWV0YWxfYmluZGluZycsICctaW1hZScsICc8aW5maWxlLm1hZT4nLCAnLW9tYWUnLCAnPG91dGZpbGUubWFlPic=

> <r_epik_Ionization_Penalty>
0.00116713

> <r_epik_Ionization_Penalty_Charging>
0

> <r_epik_Ionization_Penalty_Neutral>
0.00116713

> <r_epik_State_Penalty>
0.000768465

> <r_epik_Charging_Adjusted_Penalty>
0.000768465

> <i_epik_Tot_Q>
0

> <i_epik_Tot_abs_Q>
0

> <r_epik_Metal_State_Penalty>
-0

> <b_epik_Metal_Only>
0

> <s_lp_Force_Field>
OPLS_2005

> <r_lp_Energy>
10.4461

> <b_lp_Chiralities_Consistent>
1

> <s_lp_Variant>
AV-unprocessed.smi:2263-1

> <Gold.Version>
5.8.1

> <Gold.Id.Protein>
6NUR|6NUR_protein|mol2

> <Gold.PLP.Fitness>
43.5699

> <Gold.PLP.PLP>
-41.4743

> <Gold.PLP.part.hbond>
-1.0000

> <Gold.PLP.part.metal>
0.0000

> <Gold.PLP.part.buried>
-1.1793

> <Gold.PLP.part.nonpolar>
-37.5893

> <Gold.PLP.part.repulsive>
0.2852

> <Gold.PLP.ligand.clash>
0.0000

> <Gold.PLP.ligand.torsion>
0.4899

> <Gold.PLP.Chemscore.Hbond>
1.0000

> <Gold.PLP.Chemscore.CHOScore>
0.0000

> <Gold.PLP.Chemscore.Metal>
0.0000

> <Gold.Chemscore.Hbonds>
donor molecule, donor type, donor heavy atom, donor atom, acceptor molecule, acceptor atom, score
      L1  H     4    22       P1 10175  1.00

> <Gold.PLP.Chemscore.Internal.Correction>
0.0753

> <Gold.Rescore>
     Score         DG    S(hbond)    S(metal)    S(lipo)     H(rot)  DE(clash)    DE(int)     intcor
     17.70     -18.30       0.94        0.00     121.93       1.80       0.09       0.51       ----

> <Gold.Chemscore.Fitness>
17.6961

> <Gold.Chemscore.DG>
-18.2967

> <Gold.Chemscore.ZeroCoef>
-5.4800

> <Gold.Chemscore.Hbond>
0.9435

> <Gold.Chemscore.Metal>
0.0000

> <Gold.Chemscore.Lipo>
121.9324

> <Gold.Chemscore.Internal_Hbond>
0.0000

> <Gold.Chemscore.DEClash>
0.0941

> <Gold.Chemscore.DEInternal>
0.5065

> <Gold.Chemscore.Rot>
1.7972

> <Gold.Chemscore.Internal.Correction>
   9.000000E+99

> <Gold.Chemscore.Hbonds>
donor molecule, donor type, donor heavy atom, donor atom, acceptor molecule, acceptor atom, score
      L1  H     4    22       P1 10175  0.95

> <Gold.Chemscore.Hbond.Weighted>
-3.1514

> <Gold.Chemscore.Metal.Weighted>
-0.0000

> <Gold.Chemscore.Lipo.Weighted>
-14.2661

> <Gold.Chemscore.Internal_Hbond.Weighted>
0.0000

> <Gold.Chemscore.DEClash.Weighted>
0.0941

> <Gold.Chemscore.DEInternal.Weighted>
0.5065

> <Gold.Chemscore.Rot.Weighted>
4.6008

> <Gold.Chemscore.Internal.Correction.Weighted>
   9.000000E+99

> <Gold.Protein.RotatedTorsions>
[ 6907 6896 6895 6894 ] final  -95.07 input  -60.11 | X-H torsion
[ 7974 7965 7964 7962 ] final   76.11 input  175.53 | X-H torsion
[ 8008 7997 7996 7995 ] final -176.00 input   59.86 | X-H torsion
[ 10167 10162 10161 10158 ] final  -41.21 input  -65.29 | X-H torsion
[ 10718 10713 10712 10709 ] final   25.63 input   66.30 | X-H torsion
[ 10763 10752 10751 10750 ] final -145.60 input  -60.55 | X-H torsion
[ 11005 11000 10999 10996 ] final -161.47 input  -57.11 | X-H torsion

> <Gold.Protein.ActiveResidues>
 VAL166  LYS551  ARG553  GLY616  TRP617  ASP618  TYR619  PRO620  LYS621  CYS622 
 ASP623  PHE694  ASN695  SER759  ASP760  ASP761  ALA762  ILE779  LEU786  VAL792 
 PHE793  MET794  SER795  GLU796  ALA797  LYS798  CYS799  TRP800  GLU811  SER814 

> <Gold.Protein.RotatedAtoms>
  150.6955  134.1714  159.4213 H   0  0  0  0  0  0  0  0  0  0  0  0  # atno 6907 bound_to 6896
  151.9692  135.0083  160.0561 H   0  0  0  0  0  0  0  0  0  0  0  0  # atno 6908 bound_to 6896
  152.1857  133.4703  159.5018 H   0  0  0  0  0  0  0  0  0  0  0  0  # atno 6909 bound_to 6896
  145.7070  139.2602  143.1672 H   0  0  0  0  0  0  0  0  0  0  0  0  # atno 7974 bound_to 7965
  155.9894  140.1198  157.0652 H   0  0  0  0  0  0  0  0  0  0  0  0  # atno 8008 bound_to 7997
  154.4207  140.1128  156.5613 H   0  0  0  0  0  0  0  0  0  0  0  0  # atno 8009 bound_to 7997
  155.6363  140.3473  155.4702 H   0  0  0  0  0  0  0  0  0  0  0  0  # atno 8010 bound_to 7997
  140.7010  143.3107  151.3035 H   0  0  0  0  0  0  0  0  0  0  0  0  # atno 10167 bound_to 10162
  157.1960  130.6868  149.6169 H   0  0  0  0  0  0  0  0  0  0  0  0  # atno 10718 bound_to 10713
  154.8376  135.3409  154.6529 H   0  0  0  0  0  0  0  0  0  0  0  0  # atno 10763 bound_to 10752
  153.7143  135.6962  153.5034 H   0  0  0  0  0  0  0  0  0  0  0  0  # atno 10764 bound_to 10752
  153.2429  135.4379  155.0670 H   0  0  0  0  0  0  0  0  0  0  0  0  # atno 10765 bound_to 10752
  140.6201  134.4760  157.5223 H   0  0  0  0  0  0  0  0  0  0  0  0  # atno 11005 bound_to 11000
  146.0746  140.7831  142.9671 LP  0  0  0  0  0  0  0  0  0  0  0  0  # atno 17320 bound_to 7965
  144.6952  140.3395  143.7201 LP  0  0  0  0  0  0  0  0  0  0  0  0  # atno 17321 bound_to 7965
  139.6529  144.0329  152.2639 LP  0  0  0  0  0  0  0  0  0  0  0  0  # atno 17342 bound_to 10162
  139.9871  144.6388  150.7848 LP  0  0  0  0  0  0  0  0  0  0  0  0  # atno 17343 bound_to 10162
  155.9706  130.4599  150.6052 LP  0  0  0  0  0  0  0  0  0  0  0  0  # atno 17370 bound_to 10713
  157.3814  131.0781  151.1473 LP  0  0  0  0  0  0  0  0  0  0  0  0  # atno 17371 bound_to 10713
  139.9157  134.8251  156.1375 LP  0  0  0  0  0  0  0  0  0  0  0  0  # atno 17394 bound_to 11000
  141.0749  133.6780  156.2215 LP  0  0  0  0  0  0  0  0  0  0  0  0  # atno 17395 bound_to 11000

$$$$
