AV-unprocessed.smi:2714|AV-procd|sdf|10480|dock1
  -GOLD-   2272014523D 1   1.00000     0.00000
 Structure written by MMmdl.
 46 47  0  0  0  0  0  0  0  0  1 V2000
  154.0451  136.4389  164.2919 C   0  0  0  0  0  0  0  0  0  0  0  0
  154.8426  137.5205  163.5552 C   0  0  0  0  0  0  0  0  0  0  0  0
  154.3637  137.7197  162.1056 C   0  0  0  0  0  0  0  0  0  0  0  0
  155.0841  138.8580  161.3501 C   0  0  2  0  0  0  0  0  0  0  0  0
  155.1831  140.1208  162.2234 C   0  0  0  0  0  0  0  0  0  0  0  0
  154.3939  139.1899  160.0187 C   0  0  0  0  0  0  0  0  0  0  0  0
  154.9844  139.0189  158.9517 O   0  0  0  0  0  0  0  0  0  0  0  0
  153.1380  139.6538  160.0979 N   0  0  0  0  0  0  0  0  0  0  0  0
  152.2779  139.9500  158.9575 C   0  0  0  0  0  0  0  0  0  0  0  0
  152.1053  141.4430  158.6967 C   0  0  0  0  0  0  0  0  0  0  0  0
  152.5976  142.3735  159.6365 C   0  0  0  0  0  0  0  0  0  0  0  0
  152.4388  143.7492  159.3890 C   0  0  0  0  0  0  0  0  0  0  0  0
  151.7894  144.1438  158.2049 C   0  0  0  0  0  0  0  0  0  0  0  0
  151.3099  143.2678  157.2977 N   0  0  0  0  0  0  0  0  0  0  0  0
  151.4623  141.9420  157.5337 C   0  0  0  0  0  0  0  0  0  0  0  0
  150.9537  141.0554  156.5720 N   0  0  0  0  0  0  0  0  0  0  0  0
  150.0892  141.6776  155.5792 C   0  0  0  0  0  0  0  0  0  0  0  0
  149.4528  140.5925  154.6930 C   0  0  0  0  0  0  0  0  0  0  0  0
  150.4750  139.7900  154.1069 O   0  0  0  0  0  0  0  0  0  0  0  0
  151.2736  139.1333  155.0881 C   0  0  0  0  0  0  0  0  0  0  0  0
  151.9585  140.1830  155.9789 C   0  0  0  0  0  0  0  0  0  0  0  0
  154.4067  136.3174  165.3129 H   0  0  0  0  0  0  0  0  0  0  0  0
  154.1333  135.4749  163.7902 H   0  0  0  0  0  0  0  0  0  0  0  0
  152.9865  136.6952  164.3427 H   0  0  0  0  0  0  0  0  0  0  0  0
  154.7583  138.4608  164.1010 H   0  0  0  0  0  0  0  0  0  0  0  0
  155.8985  137.2489  163.5691 H   0  0  0  0  0  0  0  0  0  0  0  0
  154.4698  136.7835  161.5552 H   0  0  0  0  0  0  0  0  0  0  0  0
  153.2944  137.9343  162.1219 H   0  0  0  0  0  0  0  0  0  0  0  0
  156.1038  138.5319  161.1365 H   0  0  0  0  0  0  0  0  0  0  0  0
  155.6752  140.9363  161.6923 H   0  0  0  0  0  0  0  0  0  0  0  0
  155.7626  139.9257  163.1261 H   0  0  0  0  0  0  0  0  0  0  0  0
  154.1982  140.4725  162.5339 H   0  0  0  0  0  0  0  0  0  0  0  0
  152.7324  139.7703  161.0152 H   0  0  0  0  0  0  0  0  0  0  0  0
  152.7166  139.4930  158.0702 H   0  0  0  0  0  0  0  0  0  0  0  0
  151.3066  139.4725  159.0969 H   0  0  0  0  0  0  0  0  0  0  0  0
  153.0951  142.0400  160.5356 H   0  0  0  0  0  0  0  0  0  0  0  0
  152.8076  144.4839  160.0892 H   0  0  0  0  0  0  0  0  0  0  0  0
  151.6507  145.1909  157.9801 H   0  0  0  0  0  0  0  0  0  0  0  0
  149.3130  142.2604  156.0771 H   0  0  0  0  0  0  0  0  0  0  0  0
  150.6702  142.3666  154.9648 H   0  0  0  0  0  0  0  0  0  0  0  0
  148.7748  139.9657  155.2745 H   0  0  0  0  0  0  0  0  0  0  0  0
  148.8622  141.0522  153.9004 H   0  0  0  0  0  0  0  0  0  0  0  0
  150.6562  138.4601  155.6853 H   0  0  0  0  0  0  0  0  0  0  0  0
  152.0215  138.5192  154.5866 H   0  0  0  0  0  0  0  0  0  0  0  0
  152.6583  140.7741  155.3865 H   0  0  0  0  0  0  0  0  0  0  0  0
  152.5337  139.6924  156.7647 H   0  0  0  0  0  0  0  0  0  0  0  0
  1  2  1  0  0  0  0
  1 22  1  0  0  0  0
  1 23  1  0  0  0  0
  1 24  1  0  0  0  0
  2  3  1  0  0  0  0
  2 25  1  0  0  0  0
  2 26  1  0  0  0  0
  3  4  1  0  0  0  0
  3 27  1  0  0  0  0
  3 28  1  0  0  0  0
  4  5  1  0  0  0  0
  4  6  1  0  0  0  0
  4 29  1  0  0  0  0
  5 30  1  0  0  0  0
  5 31  1  0  0  0  0
  5 32  1  0  0  0  0
  6  7  2  0  0  0  0
  6  8  1  0  0  0  0
  8  9  1  0  0  0  0
  8 33  1  0  0  0  0
  9 10  1  0  0  0  0
  9 34  1  0  0  0  0
  9 35  1  0  0  0  0
 10 15  1  0  0  0  0
 10 11  2  0  0  0  0
 11 12  1  0  0  0  0
 11 36  1  0  0  0  0
 12 13  2  0  0  0  0
 12 37  1  0  0  0  0
 13 14  1  0  0  0  0
 13 38  1  0  0  0  0
 14 15  2  0  0  0  0
 15 16  1  0  0  0  0
 16 21  1  0  0  0  0
 16 17  1  0  0  0  0
 17 18  1  0  0  0  0
 17 39  1  0  0  0  0
 17 40  1  0  0  0  0
 18 19  1  0  0  0  0
 18 41  1  0  0  0  0
 18 42  1  0  0  0  0
 19 20  1  0  0  0  0
 20 21  1  0  0  0  0
 20 43  1  0  0  0  0
 20 44  1  0  0  0  0
 21 45  1  0  0  0  0
 21 46  1  0  0  0  0
M  END
> <s_m_source_file>
AV-unprocessed.smi

> <i_m_source_file_index>
2714

> <i_lp_mmshare_version>
43012

> <i_f3d_flags>
0

> <s_epik_input>
W0NIM11bQ0gyXVtDSDJdW0NASF0oW0NIM10pQyg9TylbTkhdW0NIMl1jMVtjSF1bY0hdW2NIXW5jMU4yW0NIMl1bQ0gyXU9bQ0gyXVtDSDJdMg==

> <s_epik_cmdline>
J2VwaWtfcHl0aG9uJywgJy1waCcsICc3LjAnLCAnLXRuJywgJzgnLCAnLW1hJywgJzIwMCcsICctbWV0YWxfYmluZGluZycsICctaW1hZScsICc8aW5maWxlLm1hZT4nLCAnLW9tYWUnLCAnPG91dGZpbGUubWFlPic=

> <r_lp_tautomer_probability>
1

> <r_epik_Ionization_Penalty>
0.00517355

> <r_epik_Ionization_Penalty_Charging>
0

> <r_epik_Ionization_Penalty_Neutral>
0.00517355

> <r_epik_State_Penalty>
0.00376978

> <r_epik_Charging_Adjusted_Penalty>
0.00376978

> <i_epik_Tot_Q>
0

> <i_epik_Tot_abs_Q>
0

> <r_epik_Metal_State_Penalty>
-0

> <b_epik_Metal_Only>
0

> <s_lp_Force_Field>
OPLS_2005

> <r_lp_Energy>
18.1949

> <b_lp_Chiralities_Consistent>
1

> <s_lp_Variant>
AV-unprocessed.smi:2714-1

> <Gold.Version>
5.8.1

> <Gold.Id.Protein>
6NUR|6NUR_protein|mol2

> <Gold.PLP.Fitness>
51.1032

> <Gold.PLP.PLP>
-45.6467

> <Gold.PLP.part.hbond>
-2.0000

> <Gold.PLP.part.metal>
0.0000

> <Gold.PLP.part.buried>
-4.9157

> <Gold.PLP.part.nonpolar>
-39.0510

> <Gold.PLP.part.repulsive>
0.8034

> <Gold.PLP.ligand.clash>
0.0000

> <Gold.PLP.ligand.torsion>
0.3840

> <Gold.PLP.Chemscore.Hbond>
2.0000

> <Gold.PLP.Chemscore.CHOScore>
0.0000

> <Gold.PLP.Chemscore.Metal>
0.0000

> <Gold.Chemscore.Hbonds>
donor molecule, donor type, donor heavy atom, donor atom, acceptor molecule, acceptor atom, score
      P1  H  7989  7998       L1    19  1.00
      P1  H  7997  8008       L1     7  1.00

> <Gold.PLP.Chemscore.Internal.Correction>
0.2245

> <Gold.Rescore>
     Score         DG    S(hbond)    S(metal)    S(lipo)     H(rot)  DE(clash)    DE(int)     intcor
     17.93     -19.48       1.36        0.00     118.38       1.72       0.01       1.53       ----

> <Gold.Chemscore.Fitness>
17.9339

> <Gold.Chemscore.DG>
-19.4814

> <Gold.Chemscore.ZeroCoef>
-5.4800

> <Gold.Chemscore.Hbond>
1.3630

> <Gold.Chemscore.Metal>
0.0000

> <Gold.Chemscore.Lipo>
118.3761

> <Gold.Chemscore.Internal_Hbond>
0.0000

> <Gold.Chemscore.DEClash>
0.0129

> <Gold.Chemscore.DEInternal>
1.5346

> <Gold.Chemscore.Rot>
1.7192

> <Gold.Chemscore.Internal.Correction>
   9.000000E+99

> <Gold.Chemscore.Hbonds>
donor molecule, donor type, donor heavy atom, donor atom, acceptor molecule, acceptor atom, score
      P1  H  7989  7998       L1    19  0.14
      P1  H  7997  8008       L1     7  1.00

> <Gold.Chemscore.Hbond.Weighted>
-4.5525

> <Gold.Chemscore.Metal.Weighted>
-0.0000

> <Gold.Chemscore.Lipo.Weighted>
-13.8500

> <Gold.Chemscore.Internal_Hbond.Weighted>
0.0000

> <Gold.Chemscore.DEClash.Weighted>
0.0129

> <Gold.Chemscore.DEInternal.Weighted>
1.5346

> <Gold.Chemscore.Rot.Weighted>
4.4011

> <Gold.Chemscore.Internal.Correction.Weighted>
   9.000000E+99

> <Gold.Protein.RotatedTorsions>
[ 6907 6896 6895 6894 ] final   43.92 input  -60.11 | X-H torsion
[ 7974 7965 7964 7962 ] final  151.58 input  175.53 | X-H torsion
[ 8008 7997 7996 7995 ] final -120.71 input   59.86 | X-H torsion
[ 10167 10162 10161 10158 ] final   68.50 input  -65.29 | X-H torsion
[ 10718 10713 10712 10709 ] final -102.29 input   66.30 | X-H torsion
[ 10763 10752 10751 10750 ] final  -81.03 input  -60.55 | X-H torsion
[ 11005 11000 10999 10996 ] final  118.74 input  -57.11 | X-H torsion

> <Gold.Protein.ActiveResidues>
 VAL166  LYS551  ARG553  GLY616  TRP617  ASP618  TYR619  PRO620  LYS621  CYS622 
 ASP623  PHE694  ASN695  SER759  ASP760  ASP761  ALA762  ILE779  LEU786  VAL792 
 PHE793  MET794  SER795  GLU796  ALA797  LYS798  CYS799  TRP800  GLU811  SER814 

> <Gold.Protein.RotatedAtoms>
  152.2261  134.8366  160.0479 H   0  0  0  0  0  0  0  0  0  0  0  0  # atno 6907 bound_to 6896
  151.9132  133.3561  159.3879 H   0  0  0  0  0  0  0  0  0  0  0  0  # atno 6908 bound_to 6896
  150.7013  134.4636  159.5436 H   0  0  0  0  0  0  0  0  0  0  0  0  # atno 6909 bound_to 6896
  144.8282  139.6556  143.6070 H   0  0  0  0  0  0  0  0  0  0  0  0  # atno 7974 bound_to 7965
  155.1363  140.0401  157.2787 H   0  0  0  0  0  0  0  0  0  0  0  0  # atno 8008 bound_to 7997
  154.6506  140.2568  155.7192 H   0  0  0  0  0  0  0  0  0  0  0  0  # atno 8009 bound_to 7997
  156.2575  140.2837  156.0938 H   0  0  0  0  0  0  0  0  0  0  0  0  # atno 8010 bound_to 7997
  140.0780  144.5096  150.7182 H   0  0  0  0  0  0  0  0  0  0  0  0  # atno 10167 bound_to 10162
  156.0224  130.5413  150.7087 H   0  0  0  0  0  0  0  0  0  0  0  0  # atno 10718 bound_to 10713
  154.5586  135.5640  153.6986 H   0  0  0  0  0  0  0  0  0  0  0  0  # atno 10763 bound_to 10752
  153.0011  135.6268  154.2276 H   0  0  0  0  0  0  0  0  0  0  0  0  # atno 10764 bound_to 10752
  154.2213  135.2869  155.2903 H   0  0  0  0  0  0  0  0  0  0  0  0  # atno 10765 bound_to 10752
  139.9120  134.9623  156.7549 H   0  0  0  0  0  0  0  0  0  0  0  0  # atno 11005 bound_to 11000
  146.2586  139.6360  142.9377 LP  0  0  0  0  0  0  0  0  0  0  0  0  # atno 17320 bound_to 7965
  145.4953  141.0438  143.2570 LP  0  0  0  0  0  0  0  0  0  0  0  0  # atno 17321 bound_to 7965
  140.7092  143.2492  151.4632 LP  0  0  0  0  0  0  0  0  0  0  0  0  # atno 17342 bound_to 10162
  139.5797  144.1739  152.1951 LP  0  0  0  0  0  0  0  0  0  0  0  0  # atno 17343 bound_to 10162
  157.4730  131.0895  151.0621 LP  0  0  0  0  0  0  0  0  0  0  0  0  # atno 17370 bound_to 10713
  157.1076  130.6008  149.5474 LP  0  0  0  0  0  0  0  0  0  0  0  0  # atno 17371 bound_to 10713
  140.6744  133.9531  155.7874 LP  0  0  0  0  0  0  0  0  0  0  0  0  # atno 17394 bound_to 11000
  141.0555  134.0423  157.3728 LP  0  0  0  0  0  0  0  0  0  0  0  0  # atno 17395 bound_to 11000

$$$$
