AV-unprocessed.smi:1570|AV-procd|sdf|6325|dock1
  -GOLD-   22720 6533D 1   1.00000     0.00000
 Structure written by MMmdl.
 52 54  0  0  0  0  0  0  0  0  2 V2000
  152.2515  144.9346  158.4896 C   0  0  0  0  0  0  0  0  0  0  0  0
  152.0617  143.9203  159.6242 C   0  0  0  0  0  0  0  0  0  0  0  0
  152.0791  142.5504  159.1182 N   0  0  0  0  0  0  0  0  0  0  0  0
  151.3188  142.0509  158.1158 C   0  0  0  0  0  0  0  0  0  0  0  0
  150.4870  142.6743  157.4561 O   0  0  0  0  0  0  0  0  0  0  0  0
  151.6471  140.7480  157.9482 N   0  0  0  0  0  0  0  0  0  0  0  0
  151.0784  139.8319  156.9619 C   0  0  0  0  0  0  0  0  0  0  0  0
  151.2519  140.3662  155.5251 C   0  0  1  0  0  0  0  0  0  0  0  0
  152.5771  140.0946  155.1123 O   0  0  0  0  0  0  0  0  0  0  0  0
  150.2997  139.6630  154.5363 C   0  0  0  0  0  0  0  0  0  0  0  0
  148.9547  139.4067  155.1201 N   0  3  1  0  0  0  0  0  0  0  0  0
  148.1980  140.6433  155.4323 C   0  0  0  0  0  0  0  0  0  0  0  0
  147.5838  141.2611  154.1595 C   0  0  2  0  0  0  0  0  0  0  0  0
  146.7252  142.4910  154.4737 C   0  0  0  0  0  0  0  0  0  0  0  0
  146.7526  140.2910  153.5313 O   0  0  0  0  0  0  0  0  0  0  0  0
  147.4696  139.1329  153.1171 C   0  0  2  0  0  0  0  0  0  0  0  0
  146.4905  138.2000  152.3961 C   0  0  0  0  0  0  0  0  0  0  0  0
  148.1049  138.4597  154.3526 C   0  0  0  0  0  0  0  0  0  0  0  0
  152.6677  140.4118  158.8488 C   0  0  0  0  0  0  0  0  0  0  0  0
  153.3639  139.2075  159.0526 C   0  0  0  0  0  0  0  0  0  0  0  0
  154.3660  139.2010  160.0511 C   0  0  0  0  0  0  0  0  0  0  0  0
  154.6471  140.3687  160.8066 C   0  0  0  0  0  0  0  0  0  0  0  0
  153.9319  141.5680  160.5804 C   0  0  0  0  0  0  0  0  0  0  0  0
  152.9404  141.5466  159.5841 C   0  0  0  0  0  0  0  0  0  0  0  0
  152.2392  145.9539  158.8755 H   0  0  0  0  0  0  0  0  0  0  0  0
  151.4568  144.8506  157.7477 H   0  0  0  0  0  0  0  0  0  0  0  0
  153.2040  144.7836  157.9806 H   0  0  0  0  0  0  0  0  0  0  0  0
  152.8454  144.0442  160.3722 H   0  0  0  0  0  0  0  0  0  0  0  0
  151.1196  144.1130  160.1404 H   0  0  0  0  0  0  0  0  0  0  0  0
  151.4944  138.8294  157.0713 H   0  0  0  0  0  0  0  0  0  0  0  0
  150.0165  139.7278  157.1906 H   0  0  0  0  0  0  0  0  0  0  0  0
  151.0855  141.4427  155.5075 H   0  0  0  0  0  0  0  0  0  0  0  0
  152.7441  139.1702  155.2172 H   0  0  0  0  0  0  0  0  0  0  0  0
  150.2019  140.2892  153.6481 H   0  0  0  0  0  0  0  0  0  0  0  0
  150.7371  138.7253  154.1936 H   0  0  0  0  0  0  0  0  0  0  0  0
  147.4024  140.3872  156.1334 H   0  0  0  0  0  0  0  0  0  0  0  0
  148.8368  141.3623  155.9466 H   0  0  0  0  0  0  0  0  0  0  0  0
  148.3734  141.5610  153.4685 H   0  0  0  0  0  0  0  0  0  0  0  0
  147.3177  143.2720  154.9507 H   0  0  0  0  0  0  0  0  0  0  0  0
  145.9027  142.2382  155.1433 H   0  0  0  0  0  0  0  0  0  0  0  0
  146.2965  142.9097  153.5631 H   0  0  0  0  0  0  0  0  0  0  0  0
  148.2424  139.4263  152.4057 H   0  0  0  0  0  0  0  0  0  0  0  0
  146.9936  137.2987  152.0450 H   0  0  0  0  0  0  0  0  0  0  0  0
  146.0494  138.6927  151.5292 H   0  0  0  0  0  0  0  0  0  0  0  0
  145.6768  137.8941  153.0544 H   0  0  0  0  0  0  0  0  0  0  0  0
  148.6643  137.5722  154.0605 H   0  0  0  0  0  0  0  0  0  0  0  0
  147.3138  138.1103  155.0177 H   0  0  0  0  0  0  0  0  0  0  0  0
  153.1504  138.3227  158.4715 H   0  0  0  0  0  0  0  0  0  0  0  0
  154.9260  138.2965  160.2385 H   0  0  0  0  0  0  0  0  0  0  0  0
  155.4183  140.3423  161.5624 H   0  0  0  0  0  0  0  0  0  0  0  0
  154.1452  142.4611  161.1490 H   0  0  0  0  0  0  0  0  0  0  0  0
  149.1425  138.9669  156.0103 H   0  0  0  0  0  0  0  0  0  0  0  0
  1  2  1  0  0  0  0
  1 25  1  0  0  0  0
  1 26  1  0  0  0  0
  1 27  1  0  0  0  0
  2  3  1  0  0  0  0
  2 28  1  0  0  0  0
  2 29  1  0  0  0  0
  3 24  1  0  0  0  0
  3  4  1  0  0  0  0
  4  5  2  0  0  0  0
  4  6  1  0  0  0  0
  6  7  1  0  0  0  0
  6 19  1  0  0  0  0
  7  8  1  0  0  0  0
  7 30  1  0  0  0  0
  7 31  1  0  0  0  0
  8  9  1  0  0  0  0
  8 10  1  0  0  0  0
  8 32  1  0  0  0  0
  9 33  1  0  0  0  0
 10 11  1  0  0  0  0
 10 34  1  0  0  0  0
 10 35  1  0  0  0  0
 11 18  1  0  0  0  0
 11 12  1  0  0  0  0
 11 52  1  0  0  0  0
 12 13  1  0  0  0  0
 12 36  1  0  0  0  0
 12 37  1  0  0  0  0
 13 14  1  0  0  0  0
 13 15  1  0  0  0  0
 13 38  1  0  0  0  0
 14 39  1  0  0  0  0
 14 40  1  0  0  0  0
 14 41  1  0  0  0  0
 15 16  1  0  0  0  0
 16 17  1  0  0  0  0
 16 18  1  0  0  0  0
 16 42  1  0  0  0  0
 17 43  1  0  0  0  0
 17 44  1  0  0  0  0
 17 45  1  0  0  0  0
 18 46  1  0  0  0  0
 18 47  1  0  0  0  0
 19 24  2  0  0  0  0
 19 20  1  0  0  0  0
 20 21  2  0  0  0  0
 20 48  1  0  0  0  0
 21 22  1  0  0  0  0
 21 49  1  0  0  0  0
 22 23  2  0  0  0  0
 22 50  1  0  0  0  0
 23 24  1  0  0  0  0
 23 51  1  0  0  0  0
M  CHG  1  11   1
M  END
> <s_m_source_file>
AV-unprocessed.smi

> <i_m_source_file_index>
1570

> <i_lp_mmshare_version>
43012

> <i_f3d_flags>
0

> <s_epik_input>
W2NIXTFbY0hdW2NIXVtjSF1jKGMxMiluKFtDSDJdW0NIM10pYyg9TyluMltDSDJdW0NASF0oW09IXSlbQ0gyXU4zW0NIMl1bQ0BASF0oW0NIM10pT1tDQEBIXShbQ0gzXSlbQ0gyXTM=

> <s_epik_cmdline>
J2VwaWtfcHl0aG9uJywgJy1waCcsICc3LjAnLCAnLXRuJywgJzgnLCAnLW1hJywgJzIwMCcsICctbWV0YWxfYmluZGluZycsICctaW1hZScsICc8aW5maWxlLm1hZT4nLCAnLW9tYWUnLCAnPG91dGZpbGUubWFlPic=

> <r_epik_Ionization_Penalty>
0.706332

> <r_epik_Ionization_Penalty_Charging>
0.706318

> <r_epik_Ionization_Penalty_Neutral>
1.42224e-05

> <r_epik_State_Penalty>
0.729493

> <r_epik_Charging_Adjusted_Penalty>
1.43581

> <i_epik_Tot_Q>
1

> <i_epik_Tot_abs_Q>
1

> <r_epik_Metal_State_Penalty>
0.729493

> <b_epik_Metal_Only>
0

> <s_lp_Force_Field>
OPLS_2005

> <r_lp_Energy>
54.0737

> <b_lp_Chiralities_Consistent>
1

> <s_lp_Variant>
AV-unprocessed.smi:1570-14

> <Gold.Version>
5.8.1

> <Gold.Id.Protein>
6NUR|6NUR_protein|mol2

> <Gold.PLP.Fitness>
52.2565

> <Gold.PLP.PLP>
-50.5908

> <Gold.PLP.part.hbond>
-1.8631

> <Gold.PLP.part.metal>
0.0000

> <Gold.PLP.part.buried>
-2.9665

> <Gold.PLP.part.nonpolar>
-46.4273

> <Gold.PLP.part.repulsive>
0.5873

> <Gold.PLP.ligand.clash>
0.0000

> <Gold.PLP.ligand.torsion>
0.4827

> <Gold.PLP.Chemscore.Hbond>
0.7930

> <Gold.PLP.Chemscore.CHOScore>
0.0000

> <Gold.PLP.Chemscore.Metal>
0.0000

> <Gold.Chemscore.Hbonds>
donor molecule, donor type, donor heavy atom, donor atom, acceptor molecule, acceptor atom, score
      P1  H  7997  8008       L1     9  0.10

> <Gold.PLP.Chemscore.Internal.Correction>
0.2521

> <Gold.Rescore>
     Score         DG    S(hbond)    S(metal)    S(lipo)     H(rot)  DE(clash)    DE(int)     intcor
     15.49     -16.02       0.21        0.00     130.73       2.13       0.06       0.46       ----

> <Gold.Chemscore.Fitness>
15.4934

> <Gold.Chemscore.DG>
-16.0206

> <Gold.Chemscore.ZeroCoef>
-5.4800

> <Gold.Chemscore.Hbond>
0.2091

> <Gold.Chemscore.Metal>
0.0000

> <Gold.Chemscore.Lipo>
130.7346

> <Gold.Chemscore.Internal_Hbond>
0.0000

> <Gold.Chemscore.DEClash>
0.0635

> <Gold.Chemscore.DEInternal>
0.4638

> <Gold.Chemscore.Rot>
2.1303

> <Gold.Chemscore.Internal.Correction>
   9.000000E+99

> <Gold.Chemscore.Hbond.Weighted>
-0.6982

> <Gold.Chemscore.Metal.Weighted>
-0.0000

> <Gold.Chemscore.Lipo.Weighted>
-15.2960

> <Gold.Chemscore.Internal_Hbond.Weighted>
0.0000

> <Gold.Chemscore.DEClash.Weighted>
0.0635

> <Gold.Chemscore.DEInternal.Weighted>
0.4638

> <Gold.Chemscore.Rot.Weighted>
5.4535

> <Gold.Chemscore.Internal.Correction.Weighted>
   9.000000E+99

> <Gold.Protein.RotatedTorsions>
[ 6907 6896 6895 6894 ] final    3.32 input  -60.11 | X-H torsion
[ 7974 7965 7964 7962 ] final -132.72 input  175.53 | X-H torsion
[ 8008 7997 7996 7995 ] final  -13.17 input   59.86 | X-H torsion
[ 10167 10162 10161 10158 ] final  -54.04 input  -65.29 | X-H torsion
[ 10718 10713 10712 10709 ] final  -79.06 input   66.30 | X-H torsion
[ 10763 10752 10751 10750 ] final  -84.15 input  -60.55 | X-H torsion
[ 11005 11000 10999 10996 ] final  166.80 input  -57.11 | X-H torsion

> <Gold.Protein.ActiveResidues>
 VAL166  LYS551  ARG553  GLY616  TRP617  ASP618  TYR619  PRO620  LYS621  CYS622 
 ASP623  PHE694  ASN695  SER759  ASP760  ASP761  ALA762  ILE779  LEU786  VAL792 
 PHE793  MET794  SER795  GLU796  ALA797  LYS798  CYS799  TRP800  GLU811  SER814 

> <Gold.Protein.RotatedAtoms>
  151.6231  135.1030  160.0105 H   0  0  0  0  0  0  0  0  0  0  0  0  # atno 6907 bound_to 6896
  152.4147  133.7015  159.6437 H   0  0  0  0  0  0  0  0  0  0  0  0  # atno 6908 bound_to 6896
  150.8036  133.8478  159.3238 H   0  0  0  0  0  0  0  0  0  0  0  0  # atno 6909 bound_to 6896
  144.9259  140.7070  143.4936 H   0  0  0  0  0  0  0  0  0  0  0  0  # atno 7974 bound_to 7965
  154.5315  140.2256  155.8797 H   0  0  0  0  0  0  0  0  0  0  0  0  # atno 8008 bound_to 7997
  156.1768  140.3109  155.9038 H   0  0  0  0  0  0  0  0  0  0  0  0  # atno 8009 bound_to 7997
  155.3442  140.0452  157.3036 H   0  0  0  0  0  0  0  0  0  0  0  0  # atno 8010 bound_to 7997
  140.6452  143.2531  151.4879 H   0  0  0  0  0  0  0  0  0  0  0  0  # atno 10167 bound_to 10162
  156.0102  130.4535  150.3591 H   0  0  0  0  0  0  0  0  0  0  0  0  # atno 10718 bound_to 10713
  154.5961  135.5531  153.7327 H   0  0  0  0  0  0  0  0  0  0  0  0  # atno 10763 bound_to 10752
  153.0136  135.6355  154.1780 H   0  0  0  0  0  0  0  0  0  0  0  0  # atno 10764 bound_to 10752
  154.1720  135.2891  155.3058 H   0  0  0  0  0  0  0  0  0  0  0  0  # atno 10765 bound_to 10752
  140.2701  134.7833  157.3668 H   0  0  0  0  0  0  0  0  0  0  0  0  # atno 11005 bound_to 11000
  145.3220  139.1785  143.4582 LP  0  0  0  0  0  0  0  0  0  0  0  0  # atno 17320 bound_to 7965
  146.3226  140.3239  142.8635 LP  0  0  0  0  0  0  0  0  0  0  0  0  # atno 17321 bound_to 7965
  139.5662  144.2036  152.1769 LP  0  0  0  0  0  0  0  0  0  0  0  0  # atno 17342 bound_to 10162
  140.1319  144.5281  150.6797 LP  0  0  0  0  0  0  0  0  0  0  0  0  # atno 17343 bound_to 10162
  157.1680  131.0362  151.2809 LP  0  0  0  0  0  0  0  0  0  0  0  0  # atno 17370 bound_to 10713
  157.4253  130.7460  149.6946 LP  0  0  0  0  0  0  0  0  0  0  0  0  # atno 17371 bound_to 10713
  140.1381  134.5008  155.8053 LP  0  0  0  0  0  0  0  0  0  0  0  0  # atno 17394 bound_to 11000
  141.2178  133.6815  156.7160 LP  0  0  0  0  0  0  0  0  0  0  0  0  # atno 17395 bound_to 11000

$$$$
