AV-unprocessed.smi:153|AV-procd|sdf|1251|dock4
  -GOLD-   2262018483D 1   1.00000     0.00000
 Structure written by MMmdl.
 60 63  0  0  0  0  0  0  0  0  2 V2000
  153.4171  141.9984  160.0025 C   0  0  0  0  0  0  0  0  0  0  0  0
  152.1743  142.8664  160.2578 C   0  0  1  0  0  0  0  0  0  0  0  0
  152.3186  143.5475  161.4987 O   0  0  0  0  0  0  0  0  0  0  0  0
  151.5071  144.7068  161.4560 C   0  0  0  0  0  0  0  0  0  0  0  0
  151.7771  145.2375  160.0564 C   0  0  0  0  0  0  0  0  0  0  0  0
  151.8559  143.9655  159.2063 C   0  0  1  0  0  0  0  0  0  0  0  0
  152.9039  144.1268  158.2655 O   0  0  0  0  0  0  0  0  0  0  0  0
  150.5464  143.6389  158.4403 C   0  0  0  0  0  0  0  0  0  0  0  0
  150.4681  142.2775  157.9289 N   0  0  0  0  0  0  0  0  0  0  0  0
  151.5242  141.4507  157.6237 C   0  0  0  0  0  0  0  0  0  0  0  0
  151.1937  140.2706  157.1777 N   0  0  0  0  0  0  0  0  0  0  0  0
  149.8028  140.2863  157.1438 C   0  0  0  0  0  0  0  0  0  0  0  0
  148.7952  139.3436  156.7721 C   0  0  0  0  0  0  0  0  0  0  0  0
  149.0351  138.0842  156.3126 N   0  0  0  0  0  0  0  0  0  0  0  0
  150.1029  137.2883  156.9045 C   0  0  0  0  0  0  0  0  0  0  0  0
  148.0343  137.4032  155.4876 C   0  0  0  0  0  0  0  0  0  0  0  0
  148.2881  135.8866  155.3697 C   0  0  2  0  0  0  0  0  0  0  0  0
  149.3323  135.7122  154.4331 O   0  0  0  0  0  0  0  0  0  0  0  0
  147.0515  135.1023  154.8757 C   0  0  0  0  0  0  0  0  0  0  0  0
  146.6180  135.4979  153.5119 N   0  3  0  0  0  0  0  0  0  0  0  0
  145.8925  134.4249  152.7860 C   0  0  0  0  0  0  0  0  0  0  0  0
  145.4973  134.8991  151.3770 C   0  0  0  0  0  0  0  0  0  0  0  0
  144.7120  136.0806  151.4732 O   0  0  0  0  0  0  0  0  0  0  0  0
  145.4284  137.1458  152.0848 C   0  0  0  0  0  0  0  0  0  0  0  0
  145.8199  136.7472  153.5177 C   0  0  0  0  0  0  0  0  0  0  0  0
  147.5020  139.7387  156.9098 N   0  0  0  0  0  0  0  0  0  0  0  0
  147.2036  140.9601  157.3591 C   0  0  0  0  0  0  0  0  0  0  0  0
  148.0326  141.9333  157.7352 N   0  0  0  0  0  0  0  0  0  0  0  0
  149.3342  141.5474  157.6161 C   0  0  0  0  0  0  0  0  0  0  0  0
  153.3382  141.4680  159.0531 H   0  0  0  0  0  0  0  0  0  0  0  0
  153.5350  141.2525  160.7885 H   0  0  0  0  0  0  0  0  0  0  0  0
  154.3267  142.5991  159.9812 H   0  0  0  0  0  0  0  0  0  0  0  0
  151.3125  142.2056  160.3659 H   0  0  0  0  0  0  0  0  0  0  0  0
  150.4581  144.4333  161.5796 H   0  0  0  0  0  0  0  0  0  0  0  0
  151.7773  145.4170  162.2377 H   0  0  0  0  0  0  0  0  0  0  0  0
  151.0286  145.9579  159.7309 H   0  0  0  0  0  0  0  0  0  0  0  0
  152.7384  145.7543  160.0653 H   0  0  0  0  0  0  0  0  0  0  0  0
  152.5265  144.3786  157.4368 H   0  0  0  0  0  0  0  0  0  0  0  0
  149.6846  143.8066  159.0881 H   0  0  0  0  0  0  0  0  0  0  0  0
  150.4268  144.3204  157.5967 H   0  0  0  0  0  0  0  0  0  0  0  0
  152.5548  141.7490  157.7505 H   0  0  0  0  0  0  0  0  0  0  0  0
  151.0050  137.8852  157.0431 H   0  0  0  0  0  0  0  0  0  0  0  0
  150.3611  136.4503  156.2563 H   0  0  0  0  0  0  0  0  0  0  0  0
  149.7945  136.8840  157.8688 H   0  0  0  0  0  0  0  0  0  0  0  0
  147.0175  137.5907  155.8335 H   0  0  0  0  0  0  0  0  0  0  0  0
  148.0818  137.8503  154.4938 H   0  0  0  0  0  0  0  0  0  0  0  0
  148.6370  135.5119  156.3310 H   0  0  0  0  0  0  0  0  0  0  0  0
  149.0684  136.0833  153.6055 H   0  0  0  0  0  0  0  0  0  0  0  0
  147.2430  134.0297  154.8684 H   0  0  0  0  0  0  0  0  0  0  0  0
  146.2365  135.2568  155.5848 H   0  0  0  0  0  0  0  0  0  0  0  0
  146.5101  133.5313  152.7030 H   0  0  0  0  0  0  0  0  0  0  0  0
  144.9985  134.1426  153.3451 H   0  0  0  0  0  0  0  0  0  0  0  0
  146.3816  135.0837  150.7648 H   0  0  0  0  0  0  0  0  0  0  0  0
  144.9151  134.1286  150.8713 H   0  0  0  0  0  0  0  0  0  0  0  0
  146.3113  137.3942  151.4934 H   0  0  0  0  0  0  0  0  0  0  0  0
  144.7964  138.0338  152.1016 H   0  0  0  0  0  0  0  0  0  0  0  0
  144.9240  136.6069  154.1248 H   0  0  0  0  0  0  0  0  0  0  0  0
  146.3955  137.5523  153.9760 H   0  0  0  0  0  0  0  0  0  0  0  0
  146.1504  141.1897  157.4284 H   0  0  0  0  0  0  0  0  0  0  0  0
  147.4568  135.7014  152.9875 H   0  0  0  0  0  0  0  0  0  0  0  0
  1  2  1  0  0  0  0
  1 30  1  0  0  0  0
  1 31  1  0  0  0  0
  1 32  1  0  0  0  0
  2  6  1  0  0  0  0
  2  3  1  0  0  0  0
  2 33  1  0  0  0  0
  3  4  1  0  0  0  0
  4  5  1  0  0  0  0
  4 34  1  0  0  0  0
  4 35  1  0  0  0  0
  5  6  1  0  0  0  0
  5 36  1  0  0  0  0
  5 37  1  0  0  0  0
  6  7  1  0  0  0  0
  6  8  1  0  0  0  0
  7 38  1  0  0  0  0
  8  9  1  0  0  0  0
  8 39  1  0  0  0  0
  8 40  1  0  0  0  0
  9 29  1  0  0  0  0
  9 10  1  0  0  0  0
 10 11  2  0  0  0  0
 10 41  1  0  0  0  0
 11 12  1  0  0  0  0
 12 29  2  0  0  0  0
 12 13  1  0  0  0  0
 13 14  1  0  0  0  0
 13 26  2  0  0  0  0
 14 15  1  0  0  0  0
 14 16  1  0  0  0  0
 15 42  1  0  0  0  0
 15 43  1  0  0  0  0
 15 44  1  0  0  0  0
 16 17  1  0  0  0  0
 16 45  1  0  0  0  0
 16 46  1  0  0  0  0
 17 18  1  0  0  0  0
 17 19  1  0  0  0  0
 17 47  1  0  0  0  0
 18 48  1  0  0  0  0
 19 20  1  0  0  0  0
 19 49  1  0  0  0  0
 19 50  1  0  0  0  0
 20 25  1  0  0  0  0
 20 21  1  0  0  0  0
 20 60  1  0  0  0  0
 21 22  1  0  0  0  0
 21 51  1  0  0  0  0
 21 52  1  0  0  0  0
 22 23  1  0  0  0  0
 22 53  1  0  0  0  0
 22 54  1  0  0  0  0
 23 24  1  0  0  0  0
 24 25  1  0  0  0  0
 24 55  1  0  0  0  0
 24 56  1  0  0  0  0
 25 57  1  0  0  0  0
 25 58  1  0  0  0  0
 26 27  1  0  0  0  0
 27 28  2  0  0  0  0
 27 59  1  0  0  0  0
 28 29  1  0  0  0  0
M  CHG  1  20   1
M  END
> <s_m_source_file>
AV-unprocessed.smi

> <i_m_source_file_index>
153

> <i_lp_mmshare_version>
43012

> <i_f3d_flags>
0

> <s_epik_input>
W0NIMl0xW0NIMl1PW0NAQEhdKFtDSDNdKVtDQEBdMShbT0hdKVtDSDJdbihbY0hdbjIpYyhjMjMpbltjSF1uYzNOKFtDSDNdKVtDSDJdW0NASF0oW09IXSlbQ0gyXU40W0NIMl1bQ0gyXU9bQ0gyXVtDSDJdNA==

> <s_epik_cmdline>
J2VwaWtfcHl0aG9uJywgJy1waCcsICc3LjAnLCAnLXRuJywgJzgnLCAnLW1hJywgJzIwMCcsICctbWV0YWxfYmluZGluZycsICctaW1hZScsICc8aW5maWxlLm1hZT4nLCAnLW9tYWUnLCAnPG91dGZpbGUubWFlPic=

> <r_lp_tautomer_probability>
1

> <r_epik_Ionization_Penalty>
0.403509

> <r_epik_Ionization_Penalty_Charging>
0.40072

> <r_epik_Ionization_Penalty_Neutral>
0.00278876

> <r_epik_State_Penalty>
0.400058

> <r_epik_Charging_Adjusted_Penalty>
0.800778

> <i_epik_Tot_Q>
1

> <i_epik_Tot_abs_Q>
1

> <r_epik_Metal_State_Penalty>
0.400321

> <b_epik_Metal_Only>
0

> <s_lp_Force_Field>
OPLS_2005

> <r_lp_Energy>
45.7554

> <b_lp_Chiralities_Consistent>
1

> <s_lp_Variant>
AV-unprocessed.smi:153-2

> <Gold.Version>
5.8.1

> <Gold.Id.Protein>
6NUR|6NUR_protein|mol2

> <Gold.PLP.Fitness>
44.3196

> <Gold.PLP.PLP>
-37.5966

> <Gold.PLP.part.hbond>
-2.0944

> <Gold.PLP.part.metal>
0.0000

> <Gold.PLP.part.buried>
-3.2773

> <Gold.PLP.part.nonpolar>
-33.0113

> <Gold.PLP.part.repulsive>
0.4853

> <Gold.PLP.ligand.clash>
0.0000

> <Gold.PLP.ligand.torsion>
1.4202

> <Gold.PLP.Chemscore.Hbond>
3.0000

> <Gold.PLP.Chemscore.CHOScore>
0.0000

> <Gold.PLP.Chemscore.Metal>
0.0000

> <Gold.Chemscore.Hbonds>
donor molecule, donor type, donor heavy atom, donor atom, acceptor molecule, acceptor atom, score
      L1  H    18    48       P1  7948  1.00
      L1  H    20    60       P1  7948  2.00

> <Gold.PLP.Chemscore.Internal.Correction>
0.5633

> <Gold.Rescore>
     Score         DG    S(hbond)    S(metal)    S(lipo)     H(rot)  DE(clash)    DE(int)     intcor
      9.86     -13.34       1.74        0.00      96.67       3.62       0.92       2.56       ----

> <Gold.Chemscore.Fitness>
9.8593

> <Gold.Chemscore.DG>
-13.3391

> <Gold.Chemscore.ZeroCoef>
-5.4800

> <Gold.Chemscore.Hbond>
1.7400

> <Gold.Chemscore.Metal>
0.0000

> <Gold.Chemscore.Lipo>
96.6675

> <Gold.Chemscore.Internal_Hbond>
0.0000

> <Gold.Chemscore.DEClash>
0.9154

> <Gold.Chemscore.DEInternal>
2.5643

> <Gold.Chemscore.Rot>
3.6182

> <Gold.Chemscore.Internal.Correction>
   9.000000E+99

> <Gold.Chemscore.Hbonds>
donor molecule, donor type, donor heavy atom, donor atom, acceptor molecule, acceptor atom, score
      L1  H    18    48       P1  7948  0.93
      L1  H    20    60       P1  7948  0.99

> <Gold.Chemscore.Hbond.Weighted>
-5.8114

> <Gold.Chemscore.Metal.Weighted>
-0.0000

> <Gold.Chemscore.Lipo.Weighted>
-11.3101

> <Gold.Chemscore.Internal_Hbond.Weighted>
0.0000

> <Gold.Chemscore.DEClash.Weighted>
0.9154

> <Gold.Chemscore.DEInternal.Weighted>
2.5643

> <Gold.Chemscore.Rot.Weighted>
9.2625

> <Gold.Chemscore.Internal.Correction.Weighted>
   9.000000E+99

> <Gold.Protein.RotatedTorsions>
[ 6907 6896 6895 6894 ] final  163.27 input  -60.11 | X-H torsion
[ 7974 7965 7964 7962 ] final   -5.79 input  175.53 | X-H torsion
[ 8008 7997 7996 7995 ] final -109.58 input   59.86 | X-H torsion
[ 10167 10162 10161 10158 ] final  136.10 input  -65.29 | X-H torsion
[ 10718 10713 10712 10709 ] final  108.41 input   66.30 | X-H torsion
[ 10763 10752 10751 10750 ] final  -67.87 input  -60.55 | X-H torsion
[ 11005 11000 10999 10996 ] final   79.15 input  -57.11 | X-H torsion

> <Gold.Protein.ActiveResidues>
 VAL166  LYS551  ARG553  GLY616  TRP617  ASP618  TYR619  PRO620  LYS621  CYS622 
 ASP623  PHE694  ASN695  SER759  ASP760  ASP761  ALA762  ILE779  LEU786  VAL792 
 PHE793  MET794  SER795  GLU796  ALA797  LYS798  CYS799  TRP800  GLU811  SER814 

> <Gold.Protein.RotatedAtoms>
  151.9278  133.3603  159.3919 H   0  0  0  0  0  0  0  0  0  0  0  0  # atno 6907 bound_to 6896
  150.7023  134.4569  159.5372 H   0  0  0  0  0  0  0  0  0  0  0  0  # atno 6908 bound_to 6896
  152.2204  134.8418  160.0537 H   0  0  0  0  0  0  0  0  0  0  0  0  # atno 6909 bound_to 6896
  146.2345  140.2073  142.8334 H   0  0  0  0  0  0  0  0  0  0  0  0  # atno 7974 bound_to 7965
  154.9615  140.0399  157.2192 H   0  0  0  0  0  0  0  0  0  0  0  0  # atno 8008 bound_to 7997
  154.7884  140.2831  155.5988 H   0  0  0  0  0  0  0  0  0  0  0  0  # atno 8009 bound_to 7997
  156.2946  140.2578  156.2726 H   0  0  0  0  0  0  0  0  0  0  0  0  # atno 8010 bound_to 7997
  139.5192  144.6482  151.5379 H   0  0  0  0  0  0  0  0  0  0  0  0  # atno 10167 bound_to 10162
  157.6587  131.0893  150.6301 H   0  0  0  0  0  0  0  0  0  0  0  0  # atno 10718 bound_to 10713
  154.3808  135.6074  153.5790 H   0  0  0  0  0  0  0  0  0  0  0  0  # atno 10763 bound_to 10752
  152.9788  135.5860  154.4412 H   0  0  0  0  0  0  0  0  0  0  0  0  # atno 10764 bound_to 10752
  154.4181  135.2845  155.1971 H   0  0  0  0  0  0  0  0  0  0  0  0  # atno 10765 bound_to 10752
  139.9184  134.7820  156.1741 H   0  0  0  0  0  0  0  0  0  0  0  0  # atno 11005 bound_to 11000
  144.9734  140.8391  143.5441 LP  0  0  0  0  0  0  0  0  0  0  0  0  # atno 17320 bound_to 7965
  145.2057  139.2229  143.5169 LP  0  0  0  0  0  0  0  0  0  0  0  0  # atno 17321 bound_to 7965
  140.6276  143.9139  150.6577 LP  0  0  0  0  0  0  0  0  0  0  0  0  # atno 17342 bound_to 10162
  140.2433  143.3648  152.1468 LP  0  0  0  0  0  0  0  0  0  0  0  0  # atno 17343 bound_to 10162
  156.6606  130.4511  149.5689 LP  0  0  0  0  0  0  0  0  0  0  0  0  # atno 17370 bound_to 10713
  156.2070  130.6655  151.1229 LP  0  0  0  0  0  0  0  0  0  0  0  0  # atno 17371 bound_to 10713
  141.0682  133.6809  156.2088 LP  0  0  0  0  0  0  0  0  0  0  0  0  # atno 17394 bound_to 11000
  140.6550  134.5027  157.5580 LP  0  0  0  0  0  0  0  0  0  0  0  0  # atno 17395 bound_to 11000

$$$$
