AV-unprocessed.smi:1673|AV-procd|sdf|6710|dock4
  -GOLD-   22720 7453D 1   1.00000     0.00000
 Structure written by MMmdl.
 39 40  0  0  0  0  0  0  0  0  1 V2000
  151.4534  138.1992  154.4198 C   0  0  0  0  0  0  0  0  0  0  0  0
  150.3835  139.2555  154.4041 C   0  0  0  0  0  0  0  0  0  0  0  0
  150.6976  140.4937  154.7562 N   0  0  0  0  0  0  0  0  0  0  0  0
  149.5402  141.2687  154.5838 O   0  0  0  0  0  0  0  0  0  0  0  0
  148.5407  140.4700  154.1266 C   0  0  0  0  0  0  0  0  0  0  0  0
  147.2231  141.1161  153.8620 C   0  0  0  0  0  0  0  0  0  0  0  0
  149.0104  139.1941  154.0240 C   0  0  0  0  0  0  0  0  0  0  0  0
  148.2536  138.0935  153.5503 N   0  0  0  0  0  0  0  0  0  0  0  0
  146.9758  137.8088  153.8429 C   0  0  0  0  0  0  0  0  0  0  0  0
  146.2388  138.5132  154.5321 O   0  0  0  0  0  0  0  0  0  0  0  0
  146.5923  136.6579  153.2726 N   0  0  0  0  0  0  0  0  0  0  0  0
  145.2701  136.0382  153.3841 C   0  0  1  0  0  0  0  0  0  0  0  0
  144.4902  136.2349  152.0684 C   0  0  0  0  0  0  0  0  0  0  0  0
  145.0757  135.4025  150.9144 C   0  0  0  0  0  0  0  0  0  0  0  0
  145.1633  133.9156  151.2894 C   0  0  0  0  0  0  0  0  0  0  0  0
  145.9574  133.7105  152.5894 C   0  0  0  0  0  0  0  0  0  0  0  0
  145.3655  134.5345  153.7517 C   0  0  1  0  0  0  0  0  0  0  0  0
  146.1191  134.2774  155.0682 C   0  0  0  0  0  0  0  0  0  0  0  0
  151.2949  137.4630  153.6317 H   0  0  0  0  0  0  0  0  0  0  0  0
  151.4693  137.6731  155.3741 H   0  0  0  0  0  0  0  0  0  0  0  0
  152.4424  138.6308  154.2643 H   0  0  0  0  0  0  0  0  0  0  0  0
  146.5335  140.4205  153.3836 H   0  0  0  0  0  0  0  0  0  0  0  0
  147.3407  141.9792  153.2069 H   0  0  0  0  0  0  0  0  0  0  0  0
  146.7681  141.4561  154.7922 H   0  0  0  0  0  0  0  0  0  0  0  0
  148.7074  137.5041  152.8679 H   0  0  0  0  0  0  0  0  0  0  0  0
  147.2740  136.1575  152.7215 H   0  0  0  0  0  0  0  0  0  0  0  0
  144.7047  136.5433  154.1693 H   0  0  0  0  0  0  0  0  0  0  0  0
  143.4504  135.9440  152.2232 H   0  0  0  0  0  0  0  0  0  0  0  0
  144.4704  137.2907  151.7954 H   0  0  0  0  0  0  0  0  0  0  0  0
  144.4614  135.5238  150.0218 H   0  0  0  0  0  0  0  0  0  0  0  0
  146.0680  135.7739  150.6557 H   0  0  0  0  0  0  0  0  0  0  0  0
  144.1581  133.5099  151.4089 H   0  0  0  0  0  0  0  0  0  0  0  0
  145.6274  133.3549  150.4776 H   0  0  0  0  0  0  0  0  0  0  0  0
  145.9601  132.6511  152.8482 H   0  0  0  0  0  0  0  0  0  0  0  0
  146.9999  133.9879  152.4286 H   0  0  0  0  0  0  0  0  0  0  0  0
  144.3448  134.1818  153.9068 H   0  0  0  0  0  0  0  0  0  0  0  0
  147.1759  134.5325  154.9866 H   0  0  0  0  0  0  0  0  0  0  0  0
  146.0575  133.2271  155.3541 H   0  0  0  0  0  0  0  0  0  0  0  0
  145.6960  134.8650  155.8834 H   0  0  0  0  0  0  0  0  0  0  0  0
  1  2  1  0  0  0  0
  1 19  1  0  0  0  0
  1 20  1  0  0  0  0
  1 21  1  0  0  0  0
  2  7  1  0  0  0  0
  2  3  2  0  0  0  0
  3  4  1  0  0  0  0
  4  5  1  0  0  0  0
  5  6  1  0  0  0  0
  5  7  2  0  0  0  0
  6 22  1  0  0  0  0
  6 23  1  0  0  0  0
  6 24  1  0  0  0  0
  7  8  1  0  0  0  0
  8  9  1  0  0  0  0
  8 25  1  0  0  0  0
  9 10  2  0  0  0  0
  9 11  1  0  0  0  0
 11 12  1  0  0  0  0
 11 26  1  0  0  0  0
 12 17  1  0  0  0  0
 12 13  1  0  0  0  0
 12 27  1  0  0  0  0
 13 14  1  0  0  0  0
 13 28  1  0  0  0  0
 13 29  1  0  0  0  0
 14 15  1  0  0  0  0
 14 30  1  0  0  0  0
 14 31  1  0  0  0  0
 15 16  1  0  0  0  0
 15 32  1  0  0  0  0
 15 33  1  0  0  0  0
 16 17  1  0  0  0  0
 16 34  1  0  0  0  0
 16 35  1  0  0  0  0
 17 18  1  0  0  0  0
 17 36  1  0  0  0  0
 18 37  1  0  0  0  0
 18 38  1  0  0  0  0
 18 39  1  0  0  0  0
M  END
> <s_m_source_file>
AV-unprocessed.smi

> <i_m_source_file_index>
1673

> <i_lp_mmshare_version>
43012

> <i_f3d_flags>
0

> <s_epik_input>
W0NIM11jMW5vYyhbQ0gzXSljMVtOSF1DKD1PKVtOSF1bQ0BASF0yW0NIMl1bQ0gyXVtDSDJdW0NIMl1bQ0BIXTJbQ0gzXQ==

> <s_epik_cmdline>
J2VwaWtfcHl0aG9uJywgJy1waCcsICc3LjAnLCAnLXRuJywgJzgnLCAnLW1hJywgJzIwMCcsICctbWV0YWxfYmluZGluZycsICctaW1hZScsICc8aW5maWxlLm1hZT4nLCAnLW9tYWUnLCAnPG91dGZpbGUubWFlPic=

> <r_lp_tautomer_probability>
1

> <r_epik_Ionization_Penalty>
4.01865e-05

> <r_epik_Ionization_Penalty_Charging>
0

> <r_epik_Ionization_Penalty_Neutral>
4.01865e-05

> <r_epik_State_Penalty>
-0

> <r_epik_Charging_Adjusted_Penalty>
0

> <i_epik_Tot_Q>
0

> <i_epik_Tot_abs_Q>
0

> <r_epik_Metal_State_Penalty>
-0

> <b_epik_Metal_Only>
0

> <s_lp_Force_Field>
OPLS_2005

> <r_lp_Energy>
11.4639

> <b_lp_Chiralities_Consistent>
1

> <s_lp_Variant>
AV-unprocessed.smi:1673-2

> <Gold.Version>
5.8.1

> <Gold.Id.Protein>
6NUR|6NUR_protein|mol2

> <Gold.PLP.Fitness>
36.3785

> <Gold.PLP.PLP>
-28.2249

> <Gold.PLP.part.hbond>
-4.2225

> <Gold.PLP.part.metal>
0.0000

> <Gold.PLP.part.buried>
-1.2103

> <Gold.PLP.part.nonpolar>
-21.8122

> <Gold.PLP.part.repulsive>
0.3603

> <Gold.PLP.ligand.clash>
0.0000

> <Gold.PLP.ligand.torsion>
0.4616

> <Gold.PLP.Chemscore.Hbond>
2.9440

> <Gold.PLP.Chemscore.CHOScore>
0.0000

> <Gold.PLP.Chemscore.Metal>
0.0000

> <Gold.Chemscore.Hbonds>
donor molecule, donor type, donor heavy atom, donor atom, acceptor molecule, acceptor atom, score
      L1  H     8    25       P1  7948  1.00
      L1  H    11    26       P1  7948  0.94
      P1  H  7989  7998       L1     3  0.95

> <Gold.PLP.Chemscore.Internal.Correction>
0.2447

> <Gold.Rescore>
     Score         DG    S(hbond)    S(metal)    S(lipo)     H(rot)  DE(clash)    DE(int)     intcor
     15.46     -16.86       1.96        0.00      63.35       1.00       0.05       1.36       ----

> <Gold.Chemscore.Fitness>
15.4557

> <Gold.Chemscore.DG>
-16.8645

> <Gold.Chemscore.ZeroCoef>
-5.4800

> <Gold.Chemscore.Hbond>
1.9560

> <Gold.Chemscore.Metal>
0.0000

> <Gold.Chemscore.Lipo>
63.3463

> <Gold.Chemscore.Internal_Hbond>
0.0000

> <Gold.Chemscore.DEClash>
0.0457

> <Gold.Chemscore.DEInternal>
1.3632

> <Gold.Chemscore.Rot>
1.0000

> <Gold.Chemscore.Internal.Correction>
   9.000000E+99

> <Gold.Chemscore.Hbonds>
donor molecule, donor type, donor heavy atom, donor atom, acceptor molecule, acceptor atom, score
      L1  H     8    25       P1  7948  0.99
      L1  H    11    26       P1  7948  0.91
      P1  H  7989  7998       L1     3  0.09

> <Gold.Chemscore.Hbond.Weighted>
-6.5330

> <Gold.Chemscore.Metal.Weighted>
-0.0000

> <Gold.Chemscore.Lipo.Weighted>
-7.4115

> <Gold.Chemscore.Internal_Hbond.Weighted>
0.0000

> <Gold.Chemscore.DEClash.Weighted>
0.0457

> <Gold.Chemscore.DEInternal.Weighted>
1.3632

> <Gold.Chemscore.Rot.Weighted>
2.5600

> <Gold.Chemscore.Internal.Correction.Weighted>
   9.000000E+99

> <Gold.Protein.RotatedTorsions>
[ 6907 6896 6895 6894 ] final   95.61 input  -60.11 | X-H torsion
[ 7974 7965 7964 7962 ] final  -32.26 input  175.53 | X-H torsion
[ 8008 7997 7996 7995 ] final  -51.60 input   59.86 | X-H torsion
[ 10167 10162 10161 10158 ] final  142.98 input  -65.29 | X-H torsion
[ 10718 10713 10712 10709 ] final -134.59 input   66.30 | X-H torsion
[ 10763 10752 10751 10750 ] final -115.39 input  -60.55 | X-H torsion
[ 11005 11000 10999 10996 ] final   27.70 input  -57.11 | X-H torsion

> <Gold.Protein.ActiveResidues>
 VAL166  LYS551  ARG553  GLY616  TRP617  ASP618  TYR619  PRO620  LYS621  CYS622 
 ASP623  PHE694  ASN695  SER759  ASP760  ASP761  ALA762  ILE779  LEU786  VAL792 
 PHE793  MET794  SER795  GLU796  ALA797  LYS798  CYS799  TRP800  GLU811  SER814 

> <Gold.Protein.RotatedAtoms>
  152.5442  134.1013  159.8318 H   0  0  0  0  0  0  0  0  0  0  0  0  # atno 6907 bound_to 6896
  151.1091  133.5179  159.2614 H   0  0  0  0  0  0  0  0  0  0  0  0  # atno 6908 bound_to 6896
  151.1905  135.0409  159.8885 H   0  0  0  0  0  0  0  0  0  0  0  0  # atno 6909 bound_to 6896
  146.1003  140.5770  142.8824 H   0  0  0  0  0  0  0  0  0  0  0  0  # atno 7974 bound_to 7965
  154.4087  140.1244  156.4855 H   0  0  0  0  0  0  0  0  0  0  0  0  # atno 8008 bound_to 7997
  155.7042  140.3494  155.4926 H   0  0  0  0  0  0  0  0  0  0  0  0  # atno 8009 bound_to 7997
  155.9358  140.1078  157.1085 H   0  0  0  0  0  0  0  0  0  0  0  0  # atno 8010 bound_to 7997
  139.4981  144.6071  151.6354 H   0  0  0  0  0  0  0  0  0  0  0  0  # atno 10167 bound_to 10162
  156.2571  130.7188  151.1108 H   0  0  0  0  0  0  0  0  0  0  0  0  # atno 10718 bound_to 10713
  154.8479  135.4383  154.1656 H   0  0  0  0  0  0  0  0  0  0  0  0  # atno 10763 bound_to 10752
  153.2782  135.6951  153.7418 H   0  0  0  0  0  0  0  0  0  0  0  0  # atno 10764 bound_to 10752
  153.6632  135.3431  155.3108 H   0  0  0  0  0  0  0  0  0  0  0  0  # atno 10765 bound_to 10752
  140.3235  134.2517  155.7713 H   0  0  0  0  0  0  0  0  0  0  0  0  # atno 11005 bound_to 11000
  144.7428  140.4987  143.6857 LP  0  0  0  0  0  0  0  0  0  0  0  0  # atno 17320 bound_to 7965
  145.5866  139.1492  143.3205 LP  0  0  0  0  0  0  0  0  0  0  0  0  # atno 17321 bound_to 7965
  140.5736  144.0067  150.6229 LP  0  0  0  0  0  0  0  0  0  0  0  0  # atno 17342 bound_to 10162
  140.3193  143.3147  152.0800 LP  0  0  0  0  0  0  0  0  0  0  0  0  # atno 17343 bound_to 10162
  157.7237  131.0665  150.6028 LP  0  0  0  0  0  0  0  0  0  0  0  0  # atno 17370 bound_to 10713
  156.6112  130.4380  149.5858 LP  0  0  0  0  0  0  0  0  0  0  0  0  # atno 17371 bound_to 10713
  141.2081  133.7788  157.0081 LP  0  0  0  0  0  0  0  0  0  0  0  0  # atno 17394 bound_to 11000
  140.0921  134.9586  157.1793 LP  0  0  0  0  0  0  0  0  0  0  0  0  # atno 17395 bound_to 11000

$$$$
