AV-unprocessed.smi:1624|AV-procd|sdf|6504|dock7
  -GOLD-   22720 7173D 1   1.00000     0.00000
 Structure written by MMmdl.
 35 36  0  0  0  0  0  0  0  0  2 V2000
  154.8396  138.7366  159.0277 O   0  0  0  0  0  0  0  0  0  0  0  0
  154.4073  138.6624  160.1806 C   0  0  0  0  0  0  0  0  0  0  0  0
  154.1550  139.7827  160.8730 N   0  0  0  0  0  0  0  0  0  0  0  0
  154.3363  141.1449  160.3837 C   0  0  0  0  0  0  0  0  0  0  0  0
  153.1540  141.5901  159.5034 C   0  0  0  0  0  0  0  0  0  0  0  0
  152.8062  142.9944  159.7450 N   0  0  0  0  0  0  0  0  0  0  0  0
  153.1623  143.9368  158.6731 C   0  0  0  0  0  0  0  0  0  0  0  0
  151.9417  144.4758  157.8941 C   0  0  0  0  0  0  0  0  0  0  0  0
  150.6381  144.6321  158.7018 C   0  0  0  0  0  0  0  0  0  0  0  0
  150.7803  145.4090  160.0275 C   0  0  0  0  0  0  0  0  0  0  0  0
  151.8333  144.8822  161.0337 C   0  0  0  0  0  0  0  0  0  0  0  0
  152.1814  143.3920  160.8801 C   0  0  0  0  0  0  0  0  0  0  0  0
  151.8835  142.6174  161.7897 O   0  0  0  0  0  0  0  0  0  0  0  0
  154.1387  137.5257  160.8629 N   0  5  0  0  0  0  0  0  0  0  0  0
  154.6032  137.3694  162.1135 C   0  0  0  0  0  0  0  0  0  0  0  0
  155.8534  137.7106  162.4651 N   0  0  0  0  0  0  0  0  0  0  0  0
  156.1290  137.4692  163.8046 N   0  0  0  0  0  0  0  0  0  0  0  0
  155.0709  136.9587  164.4339 C   0  0  0  0  0  0  0  0  0  0  0  0
  153.6418  136.7282  163.4488 S   0  0  0  0  0  0  0  0  0  0  0  0
  153.8023  139.6781  161.8131 H   0  0  0  0  0  0  0  0  0  0  0  0
  154.4332  141.8038  161.2467 H   0  0  0  0  0  0  0  0  0  0  0  0
  155.2749  141.2187  159.8317 H   0  0  0  0  0  0  0  0  0  0  0  0
  153.3921  141.4462  158.4485 H   0  0  0  0  0  0  0  0  0  0  0  0
  152.2900  140.9494  159.6878 H   0  0  0  0  0  0  0  0  0  0  0  0
  153.7243  144.7684  159.0984 H   0  0  0  0  0  0  0  0  0  0  0  0
  153.8624  143.4808  157.9717 H   0  0  0  0  0  0  0  0  0  0  0  0
  152.2082  145.4311  157.4410 H   0  0  0  0  0  0  0  0  0  0  0  0
  151.7372  143.8023  157.0613 H   0  0  0  0  0  0  0  0  0  0  0  0
  149.8973  145.1324  158.0774 H   0  0  0  0  0  0  0  0  0  0  0  0
  150.2165  143.6459  158.9023 H   0  0  0  0  0  0  0  0  0  0  0  0
  151.0076  146.4514  159.8023 H   0  0  0  0  0  0  0  0  0  0  0  0
  149.8066  145.4235  160.5182 H   0  0  0  0  0  0  0  0  0  0  0  0
  152.7505  145.4656  160.9552 H   0  0  0  0  0  0  0  0  0  0  0  0
  151.4775  145.0618  162.0490 H   0  0  0  0  0  0  0  0  0  0  0  0
  155.1310  136.7191  165.4850 H   0  0  0  0  0  0  0  0  0  0  0  0
  1  2  2  0  0  0  0
  2  3  1  0  0  0  0
  2 14  1  0  0  0  0
  3  4  1  0  0  0  0
  3 20  1  0  0  0  0
  4  5  1  0  0  0  0
  4 21  1  0  0  0  0
  4 22  1  0  0  0  0
  5  6  1  0  0  0  0
  5 23  1  0  0  0  0
  5 24  1  0  0  0  0
  6 12  1  0  0  0  0
  6  7  1  0  0  0  0
  7  8  1  0  0  0  0
  7 25  1  0  0  0  0
  7 26  1  0  0  0  0
  8  9  1  0  0  0  0
  8 27  1  0  0  0  0
  8 28  1  0  0  0  0
  9 10  1  0  0  0  0
  9 29  1  0  0  0  0
  9 30  1  0  0  0  0
 10 11  1  0  0  0  0
 10 31  1  0  0  0  0
 10 32  1  0  0  0  0
 11 12  1  0  0  0  0
 11 33  1  0  0  0  0
 11 34  1  0  0  0  0
 12 13  2  0  0  0  0
 14 15  1  0  0  0  0
 15 19  1  0  0  0  0
 15 16  2  0  0  0  0
 16 17  1  0  0  0  0
 17 18  2  0  0  0  0
 18 19  1  0  0  0  0
 18 35  1  0  0  0  0
M  CHG  1  14  -1
M  END
> <s_m_source_file>
AV-unprocessed.smi

> <i_m_source_file_index>
1624

> <i_lp_mmshare_version>
43012

> <i_f3d_flags>
0

> <s_epik_input>
czFbY0hdbm5jMVtOSF1DKD1PKVtOSF1bQ0gyXVtDSDJdTjJbQ0gyXVtDSDJdW0NIMl1bQ0gyXVtDSDJdQzI9Tw==

> <s_epik_cmdline>
J2VwaWtfcHl0aG9uJywgJy1waCcsICc3LjAnLCAnLXRuJywgJzgnLCAnLW1hJywgJzIwMCcsICctbWV0YWxfYmluZGluZycsICctaW1hZScsICc8aW5maWxlLm1hZT4nLCAnLW9tYWUnLCAnPG91dGZpbGUubWFlPic=

> <r_lp_tautomer_probability>
1

> <r_epik_Ionization_Penalty>
3.35684

> <r_epik_Ionization_Penalty_Charging>
3.31562

> <r_epik_Ionization_Penalty_Neutral>
0.0412242

> <r_epik_State_Penalty>
3.31341

> <r_epik_Charging_Adjusted_Penalty>
6.62903

> <i_epik_Tot_Q>
-1

> <i_epik_Tot_abs_Q>
1

> <r_epik_Metal_State_Penalty>
0.484053

> <b_epik_Metal_Only>
1

> <s_lp_Force_Field>
OPLS_2005

> <r_lp_Energy>
19.6576

> <b_lp_Chiralities_Consistent>
1

> <s_lp_Variant>
AV-unprocessed.smi:1624-2

> <Gold.Version>
5.8.1

> <Gold.Id.Protein>
6NUR|6NUR_protein|mol2

> <Gold.PLP.Fitness>
43.8973

> <Gold.PLP.PLP>
-41.6847

> <Gold.PLP.part.hbond>
-1.9533

> <Gold.PLP.part.metal>
0.0000

> <Gold.PLP.part.buried>
-4.1380

> <Gold.PLP.part.nonpolar>
-37.0054

> <Gold.PLP.part.repulsive>
0.1615

> <Gold.PLP.ligand.clash>
0.0000

> <Gold.PLP.ligand.torsion>
1.3408

> <Gold.PLP.Chemscore.Hbond>
1.6247

> <Gold.PLP.Chemscore.CHOScore>
0.0000

> <Gold.PLP.Chemscore.Metal>
0.0000

> <Gold.Chemscore.Hbonds>
donor molecule, donor type, donor heavy atom, donor atom, acceptor molecule, acceptor atom, score
      P1  H  6933  6945       L1    13  0.70
      P1  H  7997  8010       L1     1  0.75

> <Gold.PLP.Chemscore.Internal.Correction>
0.0200

> <Gold.Rescore>
     Score         DG    S(hbond)    S(metal)    S(lipo)     H(rot)  DE(clash)    DE(int)     intcor
     16.35     -18.18       1.75        0.00      96.66       1.73       0.42       1.41       ----

> <Gold.Chemscore.Fitness>
16.3549

> <Gold.Chemscore.DG>
-18.1824

> <Gold.Chemscore.ZeroCoef>
-5.4800

> <Gold.Chemscore.Hbond>
1.7466

> <Gold.Chemscore.Metal>
0.0000

> <Gold.Chemscore.Lipo>
96.6603

> <Gold.Chemscore.Internal_Hbond>
0.0000

> <Gold.Chemscore.DEClash>
0.4169

> <Gold.Chemscore.DEInternal>
1.4106

> <Gold.Chemscore.Rot>
1.7346

> <Gold.Chemscore.Internal.Correction>
   9.000000E+99

> <Gold.Chemscore.Hbonds>
donor molecule, donor type, donor heavy atom, donor atom, acceptor molecule, acceptor atom, score
      P1  H  6933  6945       L1    13  0.68
      P1  H  7997  8010       L1     1  0.75

> <Gold.Chemscore.Hbond.Weighted>
-5.8338

> <Gold.Chemscore.Metal.Weighted>
-0.0000

> <Gold.Chemscore.Lipo.Weighted>
-11.3092

> <Gold.Chemscore.Internal_Hbond.Weighted>
0.0000

> <Gold.Chemscore.DEClash.Weighted>
0.4169

> <Gold.Chemscore.DEInternal.Weighted>
1.4106

> <Gold.Chemscore.Rot.Weighted>
4.4406

> <Gold.Chemscore.Internal.Correction.Weighted>
   9.000000E+99

> <Gold.Protein.RotatedTorsions>
[ 6907 6896 6895 6894 ] final  172.17 input  -60.11 | X-H torsion
[ 7974 7965 7964 7962 ] final  -56.78 input  175.53 | X-H torsion
[ 8008 7997 7996 7995 ] final   -0.35 input   59.86 | X-H torsion
[ 10167 10162 10161 10158 ] final  -42.68 input  -65.29 | X-H torsion
[ 10718 10713 10712 10709 ] final   74.50 input   66.30 | X-H torsion
[ 10763 10752 10751 10750 ] final  113.65 input  -60.55 | X-H torsion
[ 11005 11000 10999 10996 ] final  -62.09 input  -57.11 | X-H torsion

> <Gold.Protein.ActiveResidues>
 VAL166  LYS551  ARG553  GLY616  TRP617  ASP618  TYR619  PRO620  LYS621  CYS622 
 ASP623  PHE694  ASN695  SER759  ASP760  ASP761  ALA762  ILE779  LEU786  VAL792 
 PHE793  MET794  SER795  GLU796  ALA797  LYS798  CYS799  TRP800  GLU811  SER814 

> <Gold.Protein.RotatedAtoms>
  151.7886  133.3357  159.3492 H   0  0  0  0  0  0  0  0  0  0  0  0  # atno 6907 bound_to 6896
  150.7400  134.5864  159.5974 H   0  0  0  0  0  0  0  0  0  0  0  0  # atno 6908 bound_to 6896
  152.3226  134.7363  160.0361 H   0  0  0  0  0  0  0  0  0  0  0  0  # atno 6909 bound_to 6896
  145.8587  140.8300  142.9948 H   0  0  0  0  0  0  0  0  0  0  0  0  # atno 7974 bound_to 7965
  154.6590  140.2586  155.7130 H   0  0  0  0  0  0  0  0  0  0  0  0  # atno 8008 bound_to 7997
  156.2610  140.2852  156.0976 H   0  0  0  0  0  0  0  0  0  0  0  0  # atno 8009 bound_to 7997
  155.1337  140.0379  157.2771 H   0  0  0  0  0  0  0  0  0  0  0  0  # atno 8010 bound_to 7997
  140.6961  143.3024  151.3243 H   0  0  0  0  0  0  0  0  0  0  0  0  # atno 10167 bound_to 10162
  157.6594  130.9680  150.1219 H   0  0  0  0  0  0  0  0  0  0  0  0  # atno 10718 bound_to 10713
  153.4957  135.3649  155.2514 H   0  0  0  0  0  0  0  0  0  0  0  0  # atno 10763 bound_to 10752
  154.8750  135.3987  154.3537 H   0  0  0  0  0  0  0  0  0  0  0  0  # atno 10764 bound_to 10752
  153.4165  135.7079  153.6389 H   0  0  0  0  0  0  0  0  0  0  0  0  # atno 10765 bound_to 10752
  141.1347  133.6636  156.5474 H   0  0  0  0  0  0  0  0  0  0  0  0  # atno 11005 bound_to 11000
  144.6727  140.1063  143.7458 LP  0  0  0  0  0  0  0  0  0  0  0  0  # atno 17320 bound_to 7965
  145.9273  139.2583  143.1346 LP  0  0  0  0  0  0  0  0  0  0  0  0  # atno 17321 bound_to 7965
  139.6417  144.0526  152.2560 LP  0  0  0  0  0  0  0  0  0  0  0  0  # atno 17342 bound_to 10162
  140.0034  144.6277  150.7710 LP  0  0  0  0  0  0  0  0  0  0  0  0  # atno 17343 bound_to 10162
  156.2088  130.3665  149.8696 LP  0  0  0  0  0  0  0  0  0  0  0  0  # atno 17370 bound_to 10713
  156.6580  130.8770  151.3542 LP  0  0  0  0  0  0  0  0  0  0  0  0  # atno 17371 bound_to 10713
  140.4091  134.7288  157.4825 LP  0  0  0  0  0  0  0  0  0  0  0  0  # atno 17394 bound_to 11000
  140.0440  134.6226  155.8944 LP  0  0  0  0  0  0  0  0  0  0  0  0  # atno 17395 bound_to 11000

$$$$
