AV-unprocessed.smi:1261|AV-procd|sdf|5302|dock6
  -GOLD-   22720 4423D 1   1.00000     0.00000
 Structure written by MMmdl.
 49 50  0  0  0  0  0  0  0  0  3 V2000
  147.7367  137.1648  163.4255 C   0  0  0  0  0  0  0  0  0  0  0  0
  147.9312  136.0027  162.4414 C   0  0  1  0  0  0  0  0  0  0  0  0
  146.9085  134.8810  162.6876 C   0  0  0  0  0  0  0  0  0  0  0  0
  147.1086  133.7357  161.6815 C   0  0  1  0  0  0  0  0  0  0  0  0
  146.0834  132.6137  161.8987 C   0  0  0  0  0  0  0  0  0  0  0  0
  147.0549  134.2788  160.2404 C   0  0  0  0  0  0  0  0  0  0  0  0
  148.0545  135.3578  160.0275 N   0  3  1  0  0  0  0  0  0  0  0  0
  148.1120  135.7924  158.6085 C   0  0  0  0  0  0  0  0  0  0  0  0
  149.5041  136.3059  158.2020 C   0  0  0  0  0  0  0  0  0  0  0  0
  149.6213  136.5263  156.6853 C   0  0  0  0  0  0  0  0  0  0  0  0
  150.5340  137.6180  156.3704 N   0  0  0  0  0  0  0  0  0  0  0  0
  151.4113  137.6225  155.3553 C   0  0  0  0  0  0  0  0  0  0  0  0
  151.5201  136.6973  154.5499 O   0  0  0  0  0  0  0  0  0  0  0  0
  152.2851  138.8742  155.2197 C   0  0  0  0  0  0  0  0  0  0  0  0
  151.9123  139.9088  156.1924 N   0  0  0  0  0  0  0  0  0  0  0  0
  152.7377  139.9003  157.3976 N   0  5  0  0  0  0  0  0  0  0  0  0
  152.5074  140.8270  158.3651 C   0  0  0  0  0  0  0  0  0  0  0  0
  153.1673  140.8875  159.3999 O   0  0  0  0  0  0  0  0  0  0  0  0
  151.4310  141.7812  158.1564 C   0  0  0  0  0  0  0  0  0  0  0  0
  150.6784  141.7591  157.0388 C   0  0  0  0  0  0  0  0  0  0  0  0
  150.8939  140.7885  155.9722 C   0  0  0  0  0  0  0  0  0  0  0  0
  150.2102  140.7649  154.9489 O   0  0  0  0  0  0  0  0  0  0  0  0
  147.8539  136.4829  160.9793 C   0  0  0  0  0  0  0  0  0  0  0  0
  146.7534  137.6220  163.3109 H   0  0  0  0  0  0  0  0  0  0  0  0
  148.4853  137.9420  163.2692 H   0  0  0  0  0  0  0  0  0  0  0  0
  147.8273  136.8248  164.4576 H   0  0  0  0  0  0  0  0  0  0  0  0
  148.9288  135.5942  162.6106 H   0  0  0  0  0  0  0  0  0  0  0  0
  147.0080  134.5032  163.7061 H   0  0  0  0  0  0  0  0  0  0  0  0
  145.8958  135.2778  162.6007 H   0  0  0  0  0  0  0  0  0  0  0  0
  148.0999  133.3102  161.8455 H   0  0  0  0  0  0  0  0  0  0  0  0
  145.0643  132.9733  161.7528 H   0  0  0  0  0  0  0  0  0  0  0  0
  146.1521  132.2095  162.9091 H   0  0  0  0  0  0  0  0  0  0  0  0
  146.2483  131.7898  161.2038 H   0  0  0  0  0  0  0  0  0  0  0  0
  147.2488  133.4613  159.5445 H   0  0  0  0  0  0  0  0  0  0  0  0
  146.0571  134.6583  160.0134 H   0  0  0  0  0  0  0  0  0  0  0  0
  147.8686  134.9439  157.9674 H   0  0  0  0  0  0  0  0  0  0  0  0
  147.3491  136.5493  158.4194 H   0  0  0  0  0  0  0  0  0  0  0  0
  149.7238  137.2425  158.7137 H   0  0  0  0  0  0  0  0  0  0  0  0
  150.2641  135.5918  158.5220 H   0  0  0  0  0  0  0  0  0  0  0  0
  149.9993  135.6236  156.2047 H   0  0  0  0  0  0  0  0  0  0  0  0
  148.6402  136.7220  156.2490 H   0  0  0  0  0  0  0  0  0  0  0  0
  150.5278  138.4181  156.9874 H   0  0  0  0  0  0  0  0  0  0  0  0
  153.3323  138.5938  155.3443 H   0  0  0  0  0  0  0  0  0  0  0  0
  152.2113  139.2620  154.2018 H   0  0  0  0  0  0  0  0  0  0  0  0
  151.2294  142.5233  158.9147 H   0  0  0  0  0  0  0  0  0  0  0  0
  149.8884  142.4867  156.9267 H   0  0  0  0  0  0  0  0  0  0  0  0
  146.8885  136.9539  160.7861 H   0  0  0  0  0  0  0  0  0  0  0  0
  148.6133  137.2475  160.8211 H   0  0  0  0  0  0  0  0  0  0  0  0
  148.9550  134.9513  160.2372 H   0  0  0  0  0  0  0  0  0  0  0  0
  1  2  1  0  0  0  0
  1 24  1  0  0  0  0
  1 25  1  0  0  0  0
  1 26  1  0  0  0  0
  2 23  1  0  0  0  0
  2  3  1  0  0  0  0
  2 27  1  0  0  0  0
  3  4  1  0  0  0  0
  3 28  1  0  0  0  0
  3 29  1  0  0  0  0
  4  5  1  0  0  0  0
  4  6  1  0  0  0  0
  4 30  1  0  0  0  0
  5 31  1  0  0  0  0
  5 32  1  0  0  0  0
  5 33  1  0  0  0  0
  6  7  1  0  0  0  0
  6 34  1  0  0  0  0
  6 35  1  0  0  0  0
  7  8  1  0  0  0  0
  7 23  1  0  0  0  0
  7 49  1  0  0  0  0
  8  9  1  0  0  0  0
  8 36  1  0  0  0  0
  8 37  1  0  0  0  0
  9 10  1  0  0  0  0
  9 38  1  0  0  0  0
  9 39  1  0  0  0  0
 10 11  1  0  0  0  0
 10 40  1  0  0  0  0
 10 41  1  0  0  0  0
 11 12  1  0  0  0  0
 11 42  1  0  0  0  0
 12 13  2  0  0  0  0
 12 14  1  0  0  0  0
 14 43  1  0  0  0  0
 14 44  1  0  0  0  0
 14 15  1  0  0  0  0
 15 16  1  0  0  0  0
 15 21  1  0  0  0  0
 16 17  1  0  0  0  0
 17 18  2  0  0  0  0
 17 19  1  0  0  0  0
 19 45  1  0  0  0  0
 19 20  2  0  0  0  0
 20 46  1  0  0  0  0
 20 21  1  0  0  0  0
 21 22  2  0  0  0  0
 23 47  1  0  0  0  0
 23 48  1  0  0  0  0
M  CHG  1   7   1
M  CHG  1  16  -1
M  END
> <s_m_source_file>
AV-unprocessed.smi

> <i_m_source_file_index>
1261

> <i_lp_mmshare_version>
43012

> <i_f3d_flags>
0

> <s_epik_input>
W0NIM11bQ0BASF0xW0NIMl1bQ0BASF0oW0NIM10pW0NIMl1OKFtDSDJdMSlbQ0gyXVtDSDJdW0NIMl1bTkhdQyg9TylbQ0gyXW4yW25IXWMoPU8pW2NIXVtjSF1jMj1P

> <s_epik_cmdline>
J2VwaWtfcHl0aG9uJywgJy1waCcsICc3LjAnLCAnLXRuJywgJzgnLCAnLW1hJywgJzIwMCcsICctbWV0YWxfYmluZGluZycsICctaW1hZScsICc8aW5maWxlLm1hZT4nLCAnLW9tYWUnLCAnPG91dGZpbGUubWFlPic=

> <r_lp_tautomer_probability>
1

> <r_epik_Ionization_Penalty>
0.0955723

> <r_epik_Ionization_Penalty_Charging>
0.0955723

> <r_epik_Ionization_Penalty_Neutral>
2.68632e-08

> <r_epik_State_Penalty>
0.0334406

> <r_epik_Charging_Adjusted_Penalty>
0.129013

> <i_epik_Tot_Q>
0

> <i_epik_Tot_abs_Q>
2

> <r_epik_Metal_State_Penalty>
0.0334406

> <b_epik_Metal_Only>
0

> <s_lp_Force_Field>
OPLS_2005

> <r_lp_Energy>
31.5278

> <b_lp_Chiralities_Consistent>
1

> <s_lp_Variant>
AV-unprocessed.smi:1261-2

> <Gold.Version>
5.8.1

> <Gold.Id.Protein>
6NUR|6NUR_protein|mol2

> <Gold.PLP.Fitness>
51.8563

> <Gold.PLP.PLP>
-42.2636

> <Gold.PLP.part.hbond>
-3.0000

> <Gold.PLP.part.metal>
0.0000

> <Gold.PLP.part.buried>
-4.2551

> <Gold.PLP.part.nonpolar>
-35.9486

> <Gold.PLP.part.repulsive>
0.3897

> <Gold.PLP.ligand.clash>
0.0000

> <Gold.PLP.ligand.torsion>
1.0289

> <Gold.PLP.Chemscore.Hbond>
3.8640

> <Gold.PLP.Chemscore.CHOScore>
0.0000

> <Gold.PLP.Chemscore.Metal>
0.0000

> <Gold.Chemscore.Hbonds>
donor molecule, donor type, donor heavy atom, donor atom, acceptor molecule, acceptor atom, score
      P1  H  7989  7998       L1    22  0.83
      P1  H  7997  8009       L1    16  2.00
      P1  H 10752 10763       L1    13  1.00

> <Gold.PLP.Chemscore.Internal.Correction>
0.0585

> <Gold.Rescore>
     Score         DG    S(hbond)    S(metal)    S(lipo)     H(rot)  DE(clash)    DE(int)     intcor
     14.71     -15.81       1.97        0.00      86.60       2.49       0.06       1.04       ----

> <Gold.Chemscore.Fitness>
14.7073

> <Gold.Chemscore.DG>
-15.8082

> <Gold.Chemscore.ZeroCoef>
-5.4800

> <Gold.Chemscore.Hbond>
1.9700

> <Gold.Chemscore.Metal>
0.0000

> <Gold.Chemscore.Lipo>
86.6024

> <Gold.Chemscore.Internal_Hbond>
0.0000

> <Gold.Chemscore.DEClash>
0.0613

> <Gold.Chemscore.DEInternal>
1.0396

> <Gold.Chemscore.Rot>
2.4938

> <Gold.Chemscore.Internal.Correction>
   9.000000E+99

> <Gold.Chemscore.Hbonds>
donor molecule, donor type, donor heavy atom, donor atom, acceptor molecule, acceptor atom, score
      P1  H  7989  7998       L1    22  0.26
      P1  H  7997  8009       L1    16  0.41
      P1  H 10752 10763       L1    13  0.98

> <Gold.Chemscore.Hbond.Weighted>
-6.5797

> <Gold.Chemscore.Metal.Weighted>
-0.0000

> <Gold.Chemscore.Lipo.Weighted>
-10.1325

> <Gold.Chemscore.Internal_Hbond.Weighted>
0.0000

> <Gold.Chemscore.DEClash.Weighted>
0.0613

> <Gold.Chemscore.DEInternal.Weighted>
1.0396

> <Gold.Chemscore.Rot.Weighted>
6.3840

> <Gold.Chemscore.Internal.Correction.Weighted>
   9.000000E+99

> <Gold.Protein.RotatedTorsions>
[ 6907 6896 6895 6894 ] final   37.26 input  -60.11 | X-H torsion
[ 7974 7965 7964 7962 ] final  102.15 input  175.53 | X-H torsion
[ 8008 7997 7996 7995 ] final  160.60 input   59.86 | X-H torsion
[ 10167 10162 10161 10158 ] final  -56.09 input  -65.29 | X-H torsion
[ 10718 10713 10712 10709 ] final   11.43 input   66.30 | X-H torsion
[ 10763 10752 10751 10750 ] final   33.38 input  -60.55 | X-H torsion
[ 11005 11000 10999 10996 ] final  -16.73 input  -57.11 | X-H torsion

> <Gold.Protein.ActiveResidues>
 VAL166  LYS551  ARG553  GLY616  TRP617  ASP618  TYR619  PRO620  LYS621  CYS622 
 ASP623  PHE694  ASN695  SER759  ASP760  ASP761  ALA762  ILE779  LEU786  VAL792 
 PHE793  MET794  SER795  GLU796  ALA797  LYS798  CYS799  TRP800  GLU811  SER814 

> <Gold.Protein.RotatedAtoms>
  152.1408  134.9064  160.0553 H   0  0  0  0  0  0  0  0  0  0  0  0  # atno 6907 bound_to 6896
  152.0133  133.3865  159.4236 H   0  0  0  0  0  0  0  0  0  0  0  0  # atno 6908 bound_to 6896
  150.6865  134.3628  159.5002 H   0  0  0  0  0  0  0  0  0  0  0  0  # atno 6909 bound_to 6896
  145.3629  139.2414  143.3497 H   0  0  0  0  0  0  0  0  0  0  0  0  # atno 7974 bound_to 7965
  156.2161  140.1800  156.7585 H   0  0  0  0  0  0  0  0  0  0  0  0  # atno 8008 bound_to 7997
  154.5794  140.0669  156.9111 H   0  0  0  0  0  0  0  0  0  0  0  0  # atno 8009 bound_to 7997
  155.2530  140.3330  155.4283 H   0  0  0  0  0  0  0  0  0  0  0  0  # atno 8010 bound_to 7997
  140.6337  143.2472  151.5174 H   0  0  0  0  0  0  0  0  0  0  0  0  # atno 10167 bound_to 10162
  156.9955  130.6059  149.5690 H   0  0  0  0  0  0  0  0  0  0  0  0  # atno 10718 bound_to 10713
  153.0215  135.6388  154.1502 H   0  0  0  0  0  0  0  0  0  0  0  0  # atno 10763 bound_to 10752
  154.1236  135.2845  155.3204 H   0  0  0  0  0  0  0  0  0  0  0  0  # atno 10764 bound_to 10752
  154.6246  135.5513  153.7674 H   0  0  0  0  0  0  0  0  0  0  0  0  # atno 10765 bound_to 10752
  140.8097  133.8150  155.9551 H   0  0  0  0  0  0  0  0  0  0  0  0  # atno 11005 bound_to 11000
  146.2919  140.4266  142.8736 LP  0  0  0  0  0  0  0  0  0  0  0  0  # atno 17320 bound_to 7965
  144.8633  140.7170  143.6093 LP  0  0  0  0  0  0  0  0  0  0  0  0  # atno 17321 bound_to 7965
  139.5549  144.2301  152.1595 LP  0  0  0  0  0  0  0  0  0  0  0  0  # atno 17342 bound_to 10162
  140.1551  144.5078  150.6664 LP  0  0  0  0  0  0  0  0  0  0  0  0  # atno 17343 bound_to 10162
  156.0191  130.5285  150.8222 LP  0  0  0  0  0  0  0  0  0  0  0  0  # atno 17370 bound_to 10713
  157.5428  131.0941  150.9804 LP  0  0  0  0  0  0  0  0  0  0  0  0  # atno 17371 bound_to 10713
  140.9210  134.2142  157.4926 LP  0  0  0  0  0  0  0  0  0  0  0  0  # atno 17394 bound_to 11000
  139.8715  134.9792  156.5028 LP  0  0  0  0  0  0  0  0  0  0  0  0  # atno 17395 bound_to 11000

$$$$
