AV-unprocessed.smi:107|AV-procd|sdf|1020|dock5
  -GOLD-   2262018 23D 1   1.00000     0.00000
 Structure written by MMmdl.
 31 32  0  0  0  0  0  0  0  0  1 V2000
  150.6145  144.7991  159.3336 C   0  0  0  0  0  0  0  0  0  0  0  0
  151.3109  143.4759  159.0609 C   0  0  0  0  0  0  0  0  0  0  0  0
  151.1295  142.7818  157.9078 C   0  0  0  0  0  0  0  0  0  0  0  0
  151.7490  141.5675  157.6326 N   0  0  0  0  0  0  0  0  0  0  0  0
  151.5412  140.8123  156.3325 C   0  0  1  0  0  0  0  0  0  0  0  0
  150.9432  139.4164  156.5965 C   0  0  0  0  0  0  0  0  0  0  0  0
  149.6876  139.4038  155.7410 C   0  0  2  0  0  0  0  0  0  0  0  0
  149.9487  138.8172  154.4791 O   0  0  0  0  0  0  0  0  0  0  0  0
  149.3454  140.8926  155.6225 C   0  0  2  0  0  0  0  0  0  0  0  0
  148.4524  141.2788  154.4313 C   0  0  0  0  0  0  0  0  0  0  0  0
  149.2211  141.3249  153.2482 O   0  0  0  0  0  0  0  0  0  0  0  0
  150.6313  141.4945  155.5204 O   0  0  0  0  0  0  0  0  0  0  0  0
  152.6409  141.0222  158.5798 C   0  0  0  0  0  0  0  0  0  0  0  0
  153.2429  139.9651  158.3946 O   0  0  0  0  0  0  0  0  0  0  0  0
  152.8245  141.7324  159.7641 N   0  0  0  0  0  0  0  0  0  0  0  0
  152.2099  142.9436  160.0884 C   0  0  0  0  0  0  0  0  0  0  0  0
  152.4499  143.4758  161.1709 O   0  0  0  0  0  0  0  0  0  0  0  0
  153.4579  141.3396  160.4450 H   0  0  0  0  0  0  0  0  0  0  0  0
  150.0027  145.1168  158.4888 H   0  0  0  0  0  0  0  0  0  0  0  0
  151.3467  145.5834  159.5282 H   0  0  0  0  0  0  0  0  0  0  0  0
  149.9642  144.7133  160.2046 H   0  0  0  0  0  0  0  0  0  0  0  0
  150.4651  143.2152  157.1762 H   0  0  0  0  0  0  0  0  0  0  0  0
  152.5178  140.7946  155.8453 H   0  0  0  0  0  0  0  0  0  0  0  0
  151.6555  138.6299  156.3439 H   0  0  0  0  0  0  0  0  0  0  0  0
  150.6774  139.3167  157.6501 H   0  0  0  0  0  0  0  0  0  0  0  0
  148.8821  138.8439  156.2172 H   0  0  0  0  0  0  0  0  0  0  0  0
  149.1591  138.3996  154.1707 H   0  0  0  0  0  0  0  0  0  0  0  0
  148.8764  141.2047  156.5576 H   0  0  0  0  0  0  0  0  0  0  0  0
  147.6199  140.5843  154.3149 H   0  0  0  0  0  0  0  0  0  0  0  0
  148.0307  142.2725  154.5848 H   0  0  0  0  0  0  0  0  0  0  0  0
  149.0451  140.5448  152.7444 H   0  0  0  0  0  0  0  0  0  0  0  0
  1  2  1  0  0  0  0
  1 19  1  0  0  0  0
  1 20  1  0  0  0  0
  1 21  1  0  0  0  0
  2 16  1  0  0  0  0
  2  3  2  0  0  0  0
  3  4  1  0  0  0  0
  3 22  1  0  0  0  0
  4  5  1  0  0  0  0
  4 13  1  0  0  0  0
  5 12  1  0  0  0  0
  5  6  1  0  0  0  0
  5 23  1  0  0  0  0
  6  7  1  0  0  0  0
  6 24  1  0  0  0  0
  6 25  1  0  0  0  0
  7  8  1  0  0  0  0
  7  9  1  0  0  0  0
  7 26  1  0  0  0  0
  8 27  1  0  0  0  0
  9 10  1  0  0  0  0
  9 12  1  0  0  0  0
  9 28  1  0  0  0  0
 10 11  1  0  0  0  0
 10 29  1  0  0  0  0
 10 30  1  0  0  0  0
 11 31  1  0  0  0  0
 13 14  2  0  0  0  0
 13 15  1  0  0  0  0
 15 18  1  0  0  0  0
 15 16  1  0  0  0  0
 16 17  2  0  0  0  0
M  END
> <s_m_source_file>
AV-unprocessed.smi

> <i_m_source_file_index>
107

> <i_lp_mmshare_version>
43012

> <i_f3d_flags>
0

> <s_epik_input>
Tz1jMVtuSF1jKD1PKW4oW2NIXWMxW0NIM10pW0NAQEhdMltDSDJdW0NAQEhdKFtPSF0pW0NASF0oTzIpW0NIMl1bT0hd

> <s_epik_cmdline>
J2VwaWtfcHl0aG9uJywgJy1waCcsICc3LjAnLCAnLXRuJywgJzgnLCAnLW1hJywgJzIwMCcsICctbWV0YWxfYmluZGluZycsICctaW1hZScsICc8aW5maWxlLm1hZT4nLCAnLW9tYWUnLCAnPG91dGZpbGUubWFlPic=

> <r_lp_tautomer_probability>
0.999537

> <r_epik_Ionization_Penalty>
0.00121888

> <r_epik_Ionization_Penalty_Charging>
0.00121876

> <r_epik_Ionization_Penalty_Neutral>
1.19946e-07

> <r_epik_State_Penalty>
0.000805124

> <r_epik_Charging_Adjusted_Penalty>
0.00202389

> <i_epik_Tot_Q>
0

> <i_epik_Tot_abs_Q>
0

> <r_epik_Metal_State_Penalty>
0.662472

> <b_epik_Metal_Only>
0

> <s_epik_Chemistry_Notes>
This compound contains an acetal/aminal-like group ( X-CH(R)-Y where X, Y are N, S, or O) that may be acid/base labile, releasing an aldehyde.

> <s_lp_Force_Field>
OPLS_2005

> <r_lp_Energy>
28.0991

> <b_lp_Chiralities_Consistent>
1

> <s_lp_Variant>
AV-unprocessed.smi:107-8

> <Gold.Version>
5.8.1

> <Gold.Id.Protein>
6NUR|6NUR_protein|mol2

> <Gold.PLP.Fitness>
38.6761

> <Gold.PLP.PLP>
-28.6809

> <Gold.PLP.part.hbond>
-4.5952

> <Gold.PLP.part.metal>
0.0000

> <Gold.PLP.part.buried>
-4.0711

> <Gold.PLP.part.nonpolar>
-18.9186

> <Gold.PLP.part.repulsive>
0.2780

> <Gold.PLP.ligand.clash>
0.0000

> <Gold.PLP.ligand.torsion>
0.1935

> <Gold.PLP.Chemscore.Hbond>
2.7147

> <Gold.PLP.Chemscore.CHOScore>
0.7423

> <Gold.PLP.Chemscore.Metal>
0.0000

> <Gold.Chemscore.Hbonds>
donor molecule, donor type, donor heavy atom, donor atom, acceptor molecule, acceptor atom, score
      L1  H    11    31       P1  7957  0.61
      P1  H  7989  7998       L1    12  0.11
      P1  H  7997  8009       L1    14  1.00
      P1  H  8011  8017       L1    11  1.00
      L1  C     3    22       P1  8028  0.71

> <Gold.PLP.Chemscore.Internal.Correction>
0.0111

> <Gold.Rescore>
     Score         DG    S(hbond)    S(metal)    S(lipo)     H(rot)  DE(clash)    DE(int)     intcor
     10.90     -12.09       2.37        0.00      48.45       2.73       0.13       1.06       ----

> <Gold.Chemscore.Fitness>
10.9025

> <Gold.Chemscore.DG>
-12.0911

> <Gold.Chemscore.ZeroCoef>
-5.4800

> <Gold.Chemscore.Hbond>
2.3712

> <Gold.Chemscore.Metal>
0.0000

> <Gold.Chemscore.Lipo>
48.4455

> <Gold.Chemscore.Internal_Hbond>
0.0000

> <Gold.Chemscore.DEClash>
0.1296

> <Gold.Chemscore.DEInternal>
1.0590

> <Gold.Chemscore.Rot>
2.7253

> <Gold.Chemscore.Internal.Correction>
   9.000000E+99

> <Gold.Chemscore.Hbonds>
donor molecule, donor type, donor heavy atom, donor atom, acceptor molecule, acceptor atom, score
      L1  H    11    31       P1  7957  0.62
      P1  H  7989  7998       L1    12  0.01
      P1  H  7997  8009       L1    14  0.87
      P1  H  8011  8017       L1    11  0.63

> <Gold.Chemscore.Hbond.Weighted>
-7.9198

> <Gold.Chemscore.Metal.Weighted>
-0.0000

> <Gold.Chemscore.Lipo.Weighted>
-5.6681

> <Gold.Chemscore.Internal_Hbond.Weighted>
0.0000

> <Gold.Chemscore.DEClash.Weighted>
0.1296

> <Gold.Chemscore.DEInternal.Weighted>
1.0590

> <Gold.Chemscore.Rot.Weighted>
6.9769

> <Gold.Chemscore.Internal.Correction.Weighted>
   9.000000E+99

> <Gold.Protein.RotatedTorsions>
[ 6907 6896 6895 6894 ] final   23.57 input  -60.11 | X-H torsion
[ 7974 7965 7964 7962 ] final   31.42 input  175.53 | X-H torsion
[ 8008 7997 7996 7995 ] final  141.44 input   59.86 | X-H torsion
[ 10167 10162 10161 10158 ] final  -22.73 input  -65.29 | X-H torsion
[ 10718 10713 10712 10709 ] final   46.61 input   66.30 | X-H torsion
[ 10763 10752 10751 10750 ] final  -28.00 input  -60.55 | X-H torsion
[ 11005 11000 10999 10996 ] final  -89.23 input  -57.11 | X-H torsion

> <Gold.Protein.ActiveResidues>
 VAL166  LYS551  ARG553  GLY616  TRP617  ASP618  TYR619  PRO620  LYS621  CYS622 
 ASP623  PHE694  ASN695  SER759  ASP760  ASP761  ALA762  ILE779  LEU786  VAL792 
 PHE793  MET794  SER795  GLU796  ALA797  LYS798  CYS799  TRP800  GLU811  SER814 

> <Gold.Protein.RotatedAtoms>
  151.9443  135.0199  160.0537 H   0  0  0  0  0  0  0  0  0  0  0  0  # atno 6907 bound_to 6896
  152.2009  133.4835  159.5066 H   0  0  0  0  0  0  0  0  0  0  0  0  # atno 6908 bound_to 6896
  150.6954  134.1509  159.4183 H   0  0  0  0  0  0  0  0  0  0  0  0  # atno 6909 bound_to 6896
  146.1551  139.6660  142.9072 H   0  0  0  0  0  0  0  0  0  0  0  0  # atno 7974 bound_to 7965
  156.2965  140.2315  156.4566 H   0  0  0  0  0  0  0  0  0  0  0  0  # atno 8008 bound_to 7997
  154.8055  140.0446  157.1325 H   0  0  0  0  0  0  0  0  0  0  0  0  # atno 8009 bound_to 7997
  154.9484  140.3038  155.5090 H   0  0  0  0  0  0  0  0  0  0  0  0  # atno 8010 bound_to 7997
  140.7286  143.4508  151.0519 H   0  0  0  0  0  0  0  0  0  0  0  0  # atno 10167 bound_to 10162
  157.4499  130.8132  149.7778 H   0  0  0  0  0  0  0  0  0  0  0  0  # atno 10718 bound_to 10713
  153.7413  135.6932  153.4966 H   0  0  0  0  0  0  0  0  0  0  0  0  # atno 10763 bound_to 10752
  153.2067  135.4417  155.0330 H   0  0  0  0  0  0  0  0  0  0  0  0  # atno 10764 bound_to 10752
  154.8220  135.3426  154.6938 H   0  0  0  0  0  0  0  0  0  0  0  0  # atno 10765 bound_to 10752
  141.1588  133.7617  156.9565 H   0  0  0  0  0  0  0  0  0  0  0  0  # atno 11005 bound_to 11000
  145.4727  141.0436  143.2689 LP  0  0  0  0  0  0  0  0  0  0  0  0  # atno 17320 bound_to 7965
  144.7953  139.6246  143.7095 LP  0  0  0  0  0  0  0  0  0  0  0  0  # atno 17321 bound_to 7965
  139.8184  143.7854  152.3175 LP  0  0  0  0  0  0  0  0  0  0  0  0  # atno 17342 bound_to 10162
  139.7928  144.7404  150.9932 LP  0  0  0  0  0  0  0  0  0  0  0  0  # atno 17343 bound_to 10162
  155.9982  130.3895  150.2709 LP  0  0  0  0  0  0  0  0  0  0  0  0  # atno 17370 bound_to 10713
  157.0880  131.0161  151.3132 LP  0  0  0  0  0  0  0  0  0  0  0  0  # atno 17371 bound_to 10713
  140.1222  134.9410  157.2219 LP  0  0  0  0  0  0  0  0  0  0  0  0  # atno 17394 bound_to 11000
  140.3058  134.3080  155.7278 LP  0  0  0  0  0  0  0  0  0  0  0  0  # atno 17395 bound_to 11000

$$$$
