AV-unprocessed.smi:1904|AV-procd|sdf|7724|dock8
  -GOLD-   22720 9463D 1   1.00000     0.00000
 Structure written by MMmdl.
 50 51  0  0  0  0  0  0  0  0  2 V2000
  153.2313  138.2190  154.5647 C   0  0  0  0  0  0  0  0  0  0  0  0
  152.3514  139.1560  155.3420 C   0  0  0  0  0  0  0  0  0  0  0  0
  152.8117  139.6958  156.4579 N   0  0  0  0  0  0  0  0  0  0  0  0
  151.8004  140.4626  156.9124 N   0  0  0  0  0  0  0  0  0  0  0  0
  151.9741  141.2119  158.1414 C   0  0  0  0  0  0  0  0  0  0  0  0
  150.6948  140.3997  156.0866 C   0  0  0  0  0  0  0  0  0  0  0  0
  149.4366  141.1506  156.3826 C   0  0  0  0  0  0  0  0  0  0  0  0
  151.0158  139.5636  155.0503 C   0  0  0  0  0  0  0  0  0  0  0  0
  150.1649  139.1507  153.8760 C   0  0  0  0  0  0  0  0  0  0  0  0
  148.9422  138.3868  154.3828 C   0  0  0  0  0  0  0  0  0  0  0  0
  147.9160  138.9958  154.6853 O   0  0  0  0  0  0  0  0  0  0  0  0
  149.0711  137.0559  154.4954 N   0  0  0  0  0  0  0  0  0  0  0  0
  148.0497  136.1618  155.0254 C   0  0  0  0  0  0  0  0  0  0  0  0
  146.6942  136.3985  154.3319 C   0  0  0  0  0  0  0  0  0  0  0  0
  146.5517  135.6295  153.0697 N   0  3  2  0  0  0  0  0  0  0  0  0
  145.4470  136.1515  152.2239 C   0  0  0  0  0  0  0  0  0  0  0  0
  145.3993  135.4385  150.8605 C   0  0  0  0  0  0  0  0  0  0  0  0
  145.2904  133.9099  151.0056 C   0  0  2  0  0  0  0  0  0  0  0  0
  143.8895  133.4505  151.4469 C   0  0  0  0  0  0  0  0  0  0  0  0
  146.4038  133.4053  151.9409 C   0  0  0  0  0  0  0  0  0  0  0  0
  146.4297  134.1624  153.2812 C   0  0  0  0  0  0  0  0  0  0  0  0
  153.0842  138.3404  153.4917 H   0  0  0  0  0  0  0  0  0  0  0  0
  153.0094  137.1816  154.8147 H   0  0  0  0  0  0  0  0  0  0  0  0
  154.2876  138.3933  154.7727 H   0  0  0  0  0  0  0  0  0  0  0  0
  151.6672  142.2468  157.9888 H   0  0  0  0  0  0  0  0  0  0  0  0
  153.0187  141.1992  158.4559 H   0  0  0  0  0  0  0  0  0  0  0  0
  151.3620  140.7701  158.9280 H   0  0  0  0  0  0  0  0  0  0  0  0
  148.6178  140.8191  155.7446 H   0  0  0  0  0  0  0  0  0  0  0  0
  149.5777  142.2194  156.2216 H   0  0  0  0  0  0  0  0  0  0  0  0
  149.1282  141.0017  157.4176 H   0  0  0  0  0  0  0  0  0  0  0  0
  149.8251  140.0122  153.3008 H   0  0  0  0  0  0  0  0  0  0  0  0
  150.7268  138.5299  153.1769 H   0  0  0  0  0  0  0  0  0  0  0  0
  149.9489  136.6389  154.2197 H   0  0  0  0  0  0  0  0  0  0  0  0
  148.3630  135.1224  154.9138 H   0  0  0  0  0  0  0  0  0  0  0  0
  147.9806  136.3533  156.0955 H   0  0  0  0  0  0  0  0  0  0  0  0
  145.8684  136.1610  155.0048 H   0  0  0  0  0  0  0  0  0  0  0  0
  146.6083  137.4624  154.1053 H   0  0  0  0  0  0  0  0  0  0  0  0
  144.4978  136.0382  152.7495 H   0  0  0  0  0  0  0  0  0  0  0  0
  145.5861  137.2203  152.0570 H   0  0  0  0  0  0  0  0  0  0  0  0
  144.5695  135.8223  150.2660 H   0  0  0  0  0  0  0  0  0  0  0  0
  146.3060  135.6807  150.3043 H   0  0  0  0  0  0  0  0  0  0  0  0
  145.4623  133.4718  150.0214 H   0  0  0  0  0  0  0  0  0  0  0  0
  143.6192  133.8354  152.4295 H   0  0  0  0  0  0  0  0  0  0  0  0
  143.8331  132.3625  151.4926 H   0  0  0  0  0  0  0  0  0  0  0  0
  143.1287  133.7860  150.7413 H   0  0  0  0  0  0  0  0  0  0  0  0
  146.2919  132.3350  152.1174 H   0  0  0  0  0  0  0  0  0  0  0  0
  147.3684  133.5298  151.4465 H   0  0  0  0  0  0  0  0  0  0  0  0
  147.2698  133.7925  153.8676 H   0  0  0  0  0  0  0  0  0  0  0  0
  145.5296  133.9482  153.8588 H   0  0  0  0  0  0  0  0  0  0  0  0
  147.4015  135.7824  152.5457 H   0  0  0  0  0  0  0  0  0  0  0  0
  1  2  1  0  0  0  0
  1 22  1  0  0  0  0
  1 23  1  0  0  0  0
  1 24  1  0  0  0  0
  2  8  1  0  0  0  0
  2  3  2  0  0  0  0
  3  4  1  0  0  0  0
  4  5  1  0  0  0  0
  4  6  1  0  0  0  0
  5 25  1  0  0  0  0
  5 26  1  0  0  0  0
  5 27  1  0  0  0  0
  6  7  1  0  0  0  0
  6  8  2  0  0  0  0
  7 28  1  0  0  0  0
  7 29  1  0  0  0  0
  7 30  1  0  0  0  0
  8  9  1  0  0  0  0
  9 10  1  0  0  0  0
  9 31  1  0  0  0  0
  9 32  1  0  0  0  0
 10 11  2  0  0  0  0
 10 12  1  0  0  0  0
 12 13  1  0  0  0  0
 12 33  1  0  0  0  0
 13 14  1  0  0  0  0
 13 34  1  0  0  0  0
 13 35  1  0  0  0  0
 14 15  1  0  0  0  0
 14 36  1  0  0  0  0
 14 37  1  0  0  0  0
 15 21  1  0  0  0  0
 15 16  1  0  0  0  0
 15 50  1  0  0  0  0
 16 17  1  0  0  0  0
 16 38  1  0  0  0  0
 16 39  1  0  0  0  0
 17 18  1  0  0  0  0
 17 40  1  0  0  0  0
 17 41  1  0  0  0  0
 18 19  1  0  0  0  0
 18 20  1  0  0  0  0
 18 42  1  0  0  0  0
 19 43  1  0  0  0  0
 19 44  1  0  0  0  0
 19 45  1  0  0  0  0
 20 21  1  0  0  0  0
 20 46  1  0  0  0  0
 20 47  1  0  0  0  0
 21 48  1  0  0  0  0
 21 49  1  0  0  0  0
M  CHG  1  15   1
M  END
> <s_m_source_file>
AV-unprocessed.smi

> <i_m_source_file_index>
1904

> <i_lp_mmshare_version>
43012

> <i_f3d_flags>
0

> <s_epik_input>
W0NIM11jMW5uKFtDSDNdKWMoW0NIM10pYzFbQ0gyXUMoPU8pW05IXVtDSDJdW0NIMl1OMltDSDJdW0NIMl1bQ0hdKFtDSDNdKVtDSDJdW0NIMl0y

> <s_epik_cmdline>
J2VwaWtfcHl0aG9uJywgJy1waCcsICc3LjAnLCAnLXRuJywgJzgnLCAnLW1hJywgJzIwMCcsICctbWV0YWxfYmluZGluZycsICctaW1hZScsICc8aW5maWxlLm1hZT4nLCAnLW9tYWUnLCAnPG91dGZpbGUubWFlPic=

> <r_lp_tautomer_probability>
1

> <r_epik_Ionization_Penalty>
0.00374255

> <r_epik_Ionization_Penalty_Charging>
0.00158211

> <r_epik_Ionization_Penalty_Neutral>
0.00216044

> <r_epik_State_Penalty>
-0

> <r_epik_Charging_Adjusted_Penalty>
0.00158211

> <i_epik_Tot_Q>
1

> <i_epik_Tot_abs_Q>
1

> <r_epik_Metal_State_Penalty>
-0

> <b_epik_Metal_Only>
0

> <s_lp_Force_Field>
OPLS_2005

> <r_lp_Energy>
12.0105

> <b_lp_Chiralities_Consistent>
1

> <s_lp_Variant>
AV-unprocessed.smi:1904-2

> <Gold.Version>
5.8.1

> <Gold.Id.Protein>
6NUR|6NUR_protein|mol2

> <Gold.PLP.Fitness>
43.7956

> <Gold.PLP.PLP>
-36.0781

> <Gold.PLP.part.hbond>
-3.0000

> <Gold.PLP.part.metal>
0.0000

> <Gold.PLP.part.buried>
-1.8000

> <Gold.PLP.part.nonpolar>
-30.8667

> <Gold.PLP.part.repulsive>
0.0685

> <Gold.PLP.ligand.clash>
0.0000

> <Gold.PLP.ligand.torsion>
0.6541

> <Gold.PLP.Chemscore.Hbond>
3.0000

> <Gold.PLP.Chemscore.CHOScore>
0.0000

> <Gold.PLP.Chemscore.Metal>
0.0000

> <Gold.Chemscore.Hbonds>
donor molecule, donor type, donor heavy atom, donor atom, acceptor molecule, acceptor atom, score
      L1  H    15    50       P1  7948  2.00
      P1  H  7997  8009       L1     3  1.00

> <Gold.PLP.Chemscore.Internal.Correction>
0.0257

> <Gold.Rescore>
     Score         DG    S(hbond)    S(metal)    S(lipo)     H(rot)  DE(clash)    DE(int)     intcor
     16.17     -17.86       1.97        0.00      84.86       1.61       0.12       1.58       ----

> <Gold.Chemscore.Fitness>
16.1702

> <Gold.Chemscore.DG>
-17.8641

> <Gold.Chemscore.ZeroCoef>
-5.4800

> <Gold.Chemscore.Hbond>
1.9724

> <Gold.Chemscore.Metal>
0.0000

> <Gold.Chemscore.Lipo>
84.8611

> <Gold.Chemscore.Internal_Hbond>
0.0000

> <Gold.Chemscore.DEClash>
0.1177

> <Gold.Chemscore.DEInternal>
1.5762

> <Gold.Chemscore.Rot>
1.6142

> <Gold.Chemscore.Internal.Correction>
   9.000000E+99

> <Gold.Chemscore.Hbonds>
donor molecule, donor type, donor heavy atom, donor atom, acceptor molecule, acceptor atom, score
      L1  H    15    50       P1  7948  1.00
      P1  H  7997  8009       L1     3  0.93

> <Gold.Chemscore.Hbond.Weighted>
-6.5877

> <Gold.Chemscore.Metal.Weighted>
-0.0000

> <Gold.Chemscore.Lipo.Weighted>
-9.9287

> <Gold.Chemscore.Internal_Hbond.Weighted>
0.0000

> <Gold.Chemscore.DEClash.Weighted>
0.1177

> <Gold.Chemscore.DEInternal.Weighted>
1.5762

> <Gold.Chemscore.Rot.Weighted>
4.1324

> <Gold.Chemscore.Internal.Correction.Weighted>
   9.000000E+99

> <Gold.Protein.RotatedTorsions>
[ 6907 6896 6895 6894 ] final  -28.47 input  -60.11 | X-H torsion
[ 7974 7965 7964 7962 ] final -162.83 input  175.53 | X-H torsion
[ 8008 7997 7996 7995 ] final -172.79 input   59.86 | X-H torsion
[ 10167 10162 10161 10158 ] final  -33.75 input  -65.29 | X-H torsion
[ 10718 10713 10712 10709 ] final  154.40 input   66.30 | X-H torsion
[ 10763 10752 10751 10750 ] final  -47.69 input  -60.55 | X-H torsion
[ 11005 11000 10999 10996 ] final  -75.96 input  -57.11 | X-H torsion

> <Gold.Protein.ActiveResidues>
 VAL166  LYS551  ARG553  GLY616  TRP617  ASP618  TYR619  PRO620  LYS621  CYS622 
 ASP623  PHE694  ASN695  SER759  ASP760  ASP761  ALA762  ILE779  LEU786  VAL792 
 PHE793  MET794  SER795  GLU796  ALA797  LYS798  CYS799  TRP800  GLU811  SER814 

> <Gold.Protein.RotatedAtoms>
  151.1326  135.0138  159.8588 H   0  0  0  0  0  0  0  0  0  0  0  0  # atno 6907 bound_to 6896
  152.5451  134.1593  159.8561 H   0  0  0  0  0  0  0  0  0  0  0  0  # atno 6908 bound_to 6896
  151.1661  133.4769  159.2627 H   0  0  0  0  0  0  0  0  0  0  0  0  # atno 6909 bound_to 6896
  144.7345  140.3196  143.6173 H   0  0  0  0  0  0  0  0  0  0  0  0  # atno 7974 bound_to 7965
  155.9491  140.1123  157.0992 H   0  0  0  0  0  0  0  0  0  0  0  0  # atno 8008 bound_to 7997
  154.4105  140.1204  156.5095 H   0  0  0  0  0  0  0  0  0  0  0  0  # atno 8009 bound_to 7997
  155.6865  140.3473  155.4878 H   0  0  0  0  0  0  0  0  0  0  0  0  # atno 8010 bound_to 7997
  140.7199  143.3598  151.1986 H   0  0  0  0  0  0  0  0  0  0  0  0  # atno 10167 bound_to 10162
  157.2321  131.0741  151.1846 H   0  0  0  0  0  0  0  0  0  0  0  0  # atno 10718 bound_to 10713
  154.0655  135.6612  153.4817 H   0  0  0  0  0  0  0  0  0  0  0  0  # atno 10763 bound_to 10752
  153.0410  135.5145  154.7617 H   0  0  0  0  0  0  0  0  0  0  0  0  # atno 10764 bound_to 10752
  154.6667  135.3023  154.9763 H   0  0  0  0  0  0  0  0  0  0  0  0  # atno 10765 bound_to 10752
  141.1650  133.6966  156.7596 H   0  0  0  0  0  0  0  0  0  0  0  0  # atno 11005 bound_to 11000
  145.7583  139.1816  143.2282 LP  0  0  0  0  0  0  0  0  0  0  0  0  # atno 17320 bound_to 7965
  146.1007  140.7547  142.9550 LP  0  0  0  0  0  0  0  0  0  0  0  0  # atno 17321 bound_to 7965
  139.7147  143.9319  152.2962 LP  0  0  0  0  0  0  0  0  0  0  0  0  # atno 17342 bound_to 10162
  139.9056  144.6886  150.8617 LP  0  0  0  0  0  0  0  0  0  0  0  0  # atno 17343 bound_to 10162
  157.3467  130.7061  149.6415 LP  0  0  0  0  0  0  0  0  0  0  0  0  # atno 17370 bound_to 10713
  155.9675  130.4264  150.4698 LP  0  0  0  0  0  0  0  0  0  0  0  0  # atno 17371 bound_to 10713
  140.2543  134.8516  157.3698 LP  0  0  0  0  0  0  0  0  0  0  0  0  # atno 17394 bound_to 11000
  140.1672  134.4654  155.7855 LP  0  0  0  0  0  0  0  0  0  0  0  0  # atno 17395 bound_to 11000

$$$$
