AV-unprocessed.smi:1293|AV-procd|sdf|5399|dock6
  -GOLD-   22720 4553D 1   1.00000     0.00000
 Structure written by MMmdl.
 39 40  0  0  0  0  0  0  0  0  1 V2000
  152.9522  137.9628  156.8702 C   0  0  0  0  0  0  0  0  0  0  0  0
  153.0942  138.8968  155.8148 O   0  0  0  0  0  0  0  0  0  0  0  0
  152.4986  138.4494  154.6078 C   0  0  0  0  0  0  0  0  0  0  0  0
  151.0008  138.1924  154.8402 C   0  0  0  0  0  0  0  0  0  0  0  0
  150.2384  139.4465  154.9273 N   0  0  0  0  0  0  0  0  0  0  0  0
  150.8115  140.4914  155.6788 C   0  0  0  0  0  0  0  0  0  0  0  0
  150.2100  141.6922  155.8282 C   0  0  0  0  0  0  0  0  0  0  0  0
  150.7263  142.7816  156.5464 N   0  0  0  0  0  0  0  0  0  0  0  0
  151.5095  142.7958  157.6441 C   0  0  0  0  0  0  0  0  0  0  0  0
  151.9028  141.7981  158.2485 O   0  0  0  0  0  0  0  0  0  0  0  0
  151.9116  144.1932  158.1471 C   0  0  0  0  0  0  0  0  0  0  0  0
  152.7514  144.1135  159.4365 C   0  0  0  0  0  0  0  0  0  0  0  0
  151.7689  144.3588  160.5804 C   0  0  0  0  0  0  0  0  0  0  0  0
  150.7956  145.3863  160.0097 C   0  0  0  0  0  0  0  0  0  0  0  0
  150.6807  145.0546  158.5159 C   0  0  0  0  0  0  0  0  0  0  0  0
  148.9324  141.8675  155.1712 C   0  0  0  0  0  0  0  0  0  0  0  0
  148.3797  140.8785  154.4427 C   0  0  0  0  0  0  0  0  0  0  0  0
  149.0417  139.5820  154.2827 C   0  0  0  0  0  0  0  0  0  0  0  0
  148.5507  138.6759  153.6089 O   0  0  0  0  0  0  0  0  0  0  0  0
  153.4231  138.3549  157.7718 H   0  0  0  0  0  0  0  0  0  0  0  0
  153.4326  137.0146  156.6245 H   0  0  0  0  0  0  0  0  0  0  0  0
  151.9010  137.7764  157.0931 H   0  0  0  0  0  0  0  0  0  0  0  0
  152.6449  139.1829  153.8132 H   0  0  0  0  0  0  0  0  0  0  0  0
  152.9804  137.5248  154.2869 H   0  0  0  0  0  0  0  0  0  0  0  0
  150.6080  137.5702  154.0342 H   0  0  0  0  0  0  0  0  0  0  0  0
  150.8658  137.5952  155.7434 H   0  0  0  0  0  0  0  0  0  0  0  0
  151.7708  140.2334  156.0977 H   0  0  0  0  0  0  0  0  0  0  0  0
  150.4677  143.6862  156.1802 H   0  0  0  0  0  0  0  0  0  0  0  0
  152.4952  144.6948  157.3728 H   0  0  0  0  0  0  0  0  0  0  0  0
  153.2820  143.1671  159.5532 H   0  0  0  0  0  0  0  0  0  0  0  0
  153.5051  144.9018  159.4271 H   0  0  0  0  0  0  0  0  0  0  0  0
  151.2375  143.4366  160.8192 H   0  0  0  0  0  0  0  0  0  0  0  0
  152.2606  144.7053  161.4897 H   0  0  0  0  0  0  0  0  0  0  0  0
  149.8304  145.3720  160.5166 H   0  0  0  0  0  0  0  0  0  0  0  0
  151.2146  146.3863  160.1285 H   0  0  0  0  0  0  0  0  0  0  0  0
  150.6477  145.9684  157.9215 H   0  0  0  0  0  0  0  0  0  0  0  0
  149.7433  144.5285  158.3263 H   0  0  0  0  0  0  0  0  0  0  0  0
  148.4082  142.8078  155.2625 H   0  0  0  0  0  0  0  0  0  0  0  0
  147.4253  141.0431  153.9646 H   0  0  0  0  0  0  0  0  0  0  0  0
  1  2  1  0  0  0  0
  1 20  1  0  0  0  0
  1 21  1  0  0  0  0
  1 22  1  0  0  0  0
  2  3  1  0  0  0  0
  3  4  1  0  0  0  0
  3 23  1  0  0  0  0
  3 24  1  0  0  0  0
  4  5  1  0  0  0  0
  4 25  1  0  0  0  0
  4 26  1  0  0  0  0
  5 18  1  0  0  0  0
  5  6  1  0  0  0  0
  6  7  2  0  0  0  0
  6 27  1  0  0  0  0
  7  8  1  0  0  0  0
  7 16  1  0  0  0  0
  8  9  1  0  0  0  0
  8 28  1  0  0  0  0
  9 10  2  0  0  0  0
  9 11  1  0  0  0  0
 11 15  1  0  0  0  0
 11 12  1  0  0  0  0
 11 29  1  0  0  0  0
 12 13  1  0  0  0  0
 12 30  1  0  0  0  0
 12 31  1  0  0  0  0
 13 14  1  0  0  0  0
 13 32  1  0  0  0  0
 13 33  1  0  0  0  0
 14 15  1  0  0  0  0
 14 34  1  0  0  0  0
 14 35  1  0  0  0  0
 15 36  1  0  0  0  0
 15 37  1  0  0  0  0
 16 17  2  0  0  0  0
 16 38  1  0  0  0  0
 17 18  1  0  0  0  0
 17 39  1  0  0  0  0
 18 19  2  0  0  0  0
M  END
> <s_m_source_file>
AV-unprocessed.smi

> <i_m_source_file_index>
1293

> <i_lp_mmshare_version>
43012

> <i_f3d_flags>
0

> <s_epik_input>
W0NIM11PW0NIMl1bQ0gyXW4xW2NIXWMoW2NIXVtjSF1jMT1PKVtOSF1DKD1PKVtDSF0yW0NIMl1bQ0gyXVtDSDJdW0NIMl0y

> <s_epik_cmdline>
J2VwaWtfcHl0aG9uJywgJy1waCcsICc3LjAnLCAnLXRuJywgJzgnLCAnLW1hJywgJzIwMCcsICctbWV0YWxfYmluZGluZycsICctaW1hZScsICc8aW5maWxlLm1hZT4nLCAnLW9tYWUnLCAnPG91dGZpbGUubWFlPic=

> <r_lp_tautomer_probability>
1

> <r_epik_Ionization_Penalty>
2.42474e-06

> <r_epik_Ionization_Penalty_Charging>
2.30353e-06

> <r_epik_Ionization_Penalty_Neutral>
1.21208e-07

> <r_epik_State_Penalty>
-0

> <r_epik_Charging_Adjusted_Penalty>
2.30353e-06

> <i_epik_Tot_Q>
0

> <i_epik_Tot_abs_Q>
0

> <r_epik_Metal_State_Penalty>
-0

> <b_epik_Metal_Only>
0

> <s_lp_Force_Field>
OPLS_2005

> <r_lp_Energy>
36.4395

> <b_lp_Chiralities_Consistent>
1

> <s_lp_Variant>
AV-unprocessed.smi:1293-1

> <Gold.Version>
5.8.1

> <Gold.Id.Protein>
6NUR|6NUR_protein|mol2

> <Gold.PLP.Fitness>
47.3237

> <Gold.PLP.PLP>
-42.7329

> <Gold.PLP.part.hbond>
-2.0000

> <Gold.PLP.part.metal>
0.0000

> <Gold.PLP.part.buried>
-4.6787

> <Gold.PLP.part.nonpolar>
-38.7378

> <Gold.PLP.part.repulsive>
1.7332

> <Gold.PLP.ligand.clash>
0.0000

> <Gold.PLP.ligand.torsion>
0.4882

> <Gold.PLP.Chemscore.Hbond>
1.8480

> <Gold.PLP.Chemscore.CHOScore>
0.0000

> <Gold.PLP.Chemscore.Metal>
0.0000

> <Gold.Chemscore.Hbonds>
donor molecule, donor type, donor heavy atom, donor atom, acceptor molecule, acceptor atom, score
      L1  H     8    28       P1  8028  0.85
      P1  H  7997  8008       L1     2  1.00

> <Gold.PLP.Chemscore.Internal.Correction>
0.0231

> <Gold.Rescore>
     Score         DG    S(hbond)    S(metal)    S(lipo)     H(rot)  DE(clash)    DE(int)     intcor
     18.05     -20.24       1.89        0.00     105.84       1.53       0.12       2.08       ----

> <Gold.Chemscore.Fitness>
18.0466

> <Gold.Chemscore.DG>
-20.2440

> <Gold.Chemscore.ZeroCoef>
-5.4800

> <Gold.Chemscore.Hbond>
1.8868

> <Gold.Chemscore.Metal>
0.0000

> <Gold.Chemscore.Lipo>
105.8383

> <Gold.Chemscore.Internal_Hbond>
0.0000

> <Gold.Chemscore.DEClash>
0.1200

> <Gold.Chemscore.DEInternal>
2.0774

> <Gold.Chemscore.Rot>
1.5316

> <Gold.Chemscore.Internal.Correction>
   9.000000E+99

> <Gold.Chemscore.Hbonds>
donor molecule, donor type, donor heavy atom, donor atom, acceptor molecule, acceptor atom, score
      L1  H     8    28       P1  8028  0.82
      P1  H  7997  8008       L1     2  0.81

> <Gold.Chemscore.Hbond.Weighted>
-6.3018

> <Gold.Chemscore.Metal.Weighted>
-0.0000

> <Gold.Chemscore.Lipo.Weighted>
-12.3831

> <Gold.Chemscore.Internal_Hbond.Weighted>
0.0000

> <Gold.Chemscore.DEClash.Weighted>
0.1200

> <Gold.Chemscore.DEInternal.Weighted>
2.0774

> <Gold.Chemscore.Rot.Weighted>
3.9209

> <Gold.Chemscore.Internal.Correction.Weighted>
   9.000000E+99

> <Gold.Protein.RotatedTorsions>
[ 6907 6896 6895 6894 ] final  -80.06 input  -60.11 | X-H torsion
[ 7974 7965 7964 7962 ] final   73.35 input  175.53 | X-H torsion
[ 8008 7997 7996 7995 ] final  -32.18 input   59.86 | X-H torsion
[ 10167 10162 10161 10158 ] final  -97.01 input  -65.29 | X-H torsion
[ 10718 10713 10712 10709 ] final -134.64 input   66.30 | X-H torsion
[ 10763 10752 10751 10750 ] final   32.67 input  -60.55 | X-H torsion
[ 11005 11000 10999 10996 ] final  116.30 input  -57.11 | X-H torsion

> <Gold.Protein.ActiveResidues>
 VAL166  LYS551  ARG553  GLY616  TRP617  ASP618  TYR619  PRO620  LYS621  CYS622 
 ASP623  PHE694  ASN695  SER759  ASP760  ASP761  ALA762  ILE779  LEU786  VAL792 
 PHE793  MET794  SER795  GLU796  ALA797  LYS798  CYS799  TRP800  GLU811  SER814 

> <Gold.Protein.RotatedAtoms>
  150.6937  134.4027  159.5125 H   0  0  0  0  0  0  0  0  0  0  0  0  # atno 6907 bound_to 6896
  152.1798  134.8761  160.0536 H   0  0  0  0  0  0  0  0  0  0  0  0  # atno 6908 bound_to 6896
  151.9756  133.3705  159.4124 H   0  0  0  0  0  0  0  0  0  0  0  0  # atno 6909 bound_to 6896
  145.7419  139.2724  143.1481 H   0  0  0  0  0  0  0  0  0  0  0  0  # atno 7974 bound_to 7965
  154.4188  140.1744  156.1686 H   0  0  0  0  0  0  0  0  0  0  0  0  # atno 8008 bound_to 7997
  155.9779  140.3380  155.6612 H   0  0  0  0  0  0  0  0  0  0  0  0  # atno 8009 bound_to 7997
  155.6539  140.0693  157.2568 H   0  0  0  0  0  0  0  0  0  0  0  0  # atno 8010 bound_to 7997
  140.2879  143.3240  152.0376 H   0  0  0  0  0  0  0  0  0  0  0  0  # atno 10167 bound_to 10162
  156.2576  130.7190  151.1113 H   0  0  0  0  0  0  0  0  0  0  0  0  # atno 10718 bound_to 10713
  153.0250  135.6407  154.1392 H   0  0  0  0  0  0  0  0  0  0  0  0  # atno 10763 bound_to 10752
  154.1121  135.2852  155.3229 H   0  0  0  0  0  0  0  0  0  0  0  0  # atno 10764 bound_to 10752
  154.6324  135.5488  153.7758 H   0  0  0  0  0  0  0  0  0  0  0  0  # atno 10765 bound_to 10752
  139.9037  134.9596  156.7176 H   0  0  0  0  0  0  0  0  0  0  0  0  # atno 11005 bound_to 11000
  146.0439  140.8137  142.9815 LP  0  0  0  0  0  0  0  0  0  0  0  0  # atno 17320 bound_to 7965
  144.6868  140.2952  143.7272 LP  0  0  0  0  0  0  0  0  0  0  0  0  # atno 17321 bound_to 7965
  139.4945  144.6546  151.6601 LP  0  0  0  0  0  0  0  0  0  0  0  0  # atno 17342 bound_to 10162
  140.5757  144.0032  150.6240 LP  0  0  0  0  0  0  0  0  0  0  0  0  # atno 17343 bound_to 10162
  157.7238  131.0664  150.6020 LP  0  0  0  0  0  0  0  0  0  0  0  0  # atno 17370 bound_to 10713
  156.6105  130.4379  149.5861 LP  0  0  0  0  0  0  0  0  0  0  0  0  # atno 17371 bound_to 10713
  140.7026  133.9293  155.8033 LP  0  0  0  0  0  0  0  0  0  0  0  0  # atno 17394 bound_to 11000
  141.0360  134.0688  157.3958 LP  0  0  0  0  0  0  0  0  0  0  0  0  # atno 17395 bound_to 11000

$$$$
