AV-unprocessed.smi:1591|AV-procd|sdf|6400|dock1
  -GOLD-   22720 7 33D 1   1.00000     0.00000
 Structure written by MMmdl.
 51 54  0  0  0  0  0  0  0  0  2 V2000
  146.3815  142.2909  153.6566 C   0  0  0  0  0  0  0  0  0  0  0  0
  147.7206  141.5969  153.9528 C   0  0  0  0  0  0  0  0  0  0  0  0
  147.5877  140.2883  154.7739 C   0  0  1  0  0  0  0  0  0  0  0  0
  146.9470  139.2674  153.9404 N   0  0  0  0  0  0  0  0  0  0  0  0
  145.8120  138.6072  154.2201 C   0  0  0  0  0  0  0  0  0  0  0  0
  145.1783  138.7492  155.2653 O   0  0  0  0  0  0  0  0  0  0  0  0
  145.3223  137.6324  153.1457 C   0  0  0  0  0  0  0  0  0  0  0  0
  143.9955  137.0952  153.4827 N   0  0  0  0  0  0  0  0  0  0  0  0
  142.9033  137.5599  152.7284 C   0  0  0  0  0  0  0  0  0  0  0  0
  141.6444  137.1487  152.9708 C   0  0  0  0  0  0  0  0  0  0  0  0
  141.4267  136.1951  154.0509 C   0  0  0  0  0  0  0  0  0  0  0  0
  140.2837  135.8086  154.2867 O   0  0  0  0  0  0  0  0  0  0  0  0
  142.5176  135.7742  154.7554 N   0  5  0  0  0  0  0  0  0  0  0  0
  143.7930  136.2016  154.4978 C   0  0  0  0  0  0  0  0  0  0  0  0
  144.7618  135.8087  155.1477 O   0  0  0  0  0  0  0  0  0  0  0  0
  148.9205  139.7412  155.3861 C   0  0  0  0  0  0  0  0  0  0  0  0
  149.6508  140.8838  156.1552 C   0  0  0  0  0  0  0  0  0  0  0  0
  150.9795  140.3867  156.7606 C   0  0  1  0  0  0  0  0  0  0  0  0
  150.6947  139.2335  157.7442 C   0  0  0  0  0  0  0  0  0  0  0  0
  150.0083  138.0791  156.9861 C   0  0  2  0  0  0  0  0  0  0  0  0
  150.9350  137.5799  155.8583 C   0  0  0  0  0  0  0  0  0  0  0  0
  151.2173  138.7408  154.8825 C   0  0  2  0  0  0  0  0  0  0  0  0
  151.9083  139.8953  155.6335 C   0  0  0  0  0  0  0  0  0  0  0  0
  149.8873  139.2362  154.2752 C   0  0  0  0  0  0  0  0  0  0  0  0
  148.6742  138.5720  156.3839 C   0  0  0  0  0  0  0  0  0  0  0  0
  146.5443  143.2459  153.1567 H   0  0  0  0  0  0  0  0  0  0  0  0
  145.8287  142.4874  154.5757 H   0  0  0  0  0  0  0  0  0  0  0  0
  145.7475  141.6883  153.0058 H   0  0  0  0  0  0  0  0  0  0  0  0
  148.2271  141.4029  153.0076 H   0  0  0  0  0  0  0  0  0  0  0  0
  148.3385  142.3142  154.4898 H   0  0  0  0  0  0  0  0  0  0  0  0
  146.9329  140.5223  155.6152 H   0  0  0  0  0  0  0  0  0  0  0  0
  147.3907  139.0702  153.0554 H   0  0  0  0  0  0  0  0  0  0  0  0
  145.2956  138.1336  152.1765 H   0  0  0  0  0  0  0  0  0  0  0  0
  146.0529  136.8303  153.0290 H   0  0  0  0  0  0  0  0  0  0  0  0
  143.1500  138.2698  151.9525 H   0  0  0  0  0  0  0  0  0  0  0  0
  140.8168  137.5180  152.3832 H   0  0  0  0  0  0  0  0  0  0  0  0
  149.8420  141.7245  155.4866 H   0  0  0  0  0  0  0  0  0  0  0  0
  149.0270  141.2755  156.9593 H   0  0  0  0  0  0  0  0  0  0  0  0
  151.4625  141.2059  157.2943 H   0  0  0  0  0  0  0  0  0  0  0  0
  151.6230  138.8878  158.2007 H   0  0  0  0  0  0  0  0  0  0  0  0
  150.0599  139.5804  158.5605 H   0  0  0  0  0  0  0  0  0  0  0  0
  149.8099  137.2606  157.6788 H   0  0  0  0  0  0  0  0  0  0  0  0
  151.8689  137.2019  156.2763 H   0  0  0  0  0  0  0  0  0  0  0  0
  150.4730  136.7448  155.3305 H   0  0  0  0  0  0  0  0  0  0  0  0
  151.8705  138.3894  154.0832 H   0  0  0  0  0  0  0  0  0  0  0  0
  152.1357  140.7112  154.9467 H   0  0  0  0  0  0  0  0  0  0  0  0
  152.8619  139.5629  156.0457 H   0  0  0  0  0  0  0  0  0  0  0  0
  149.4452  138.4123  153.7164 H   0  0  0  0  0  0  0  0  0  0  0  0
  150.0809  140.0298  153.5522 H   0  0  0  0  0  0  0  0  0  0  0  0
  148.0088  138.8832  157.1898 H   0  0  0  0  0  0  0  0  0  0  0  0
  148.1790  137.7388  155.8850 H   0  0  0  0  0  0  0  0  0  0  0  0
  1  2  1  0  0  0  0
  1 26  1  0  0  0  0
  1 27  1  0  0  0  0
  1 28  1  0  0  0  0
  2  3  1  0  0  0  0
  2 29  1  0  0  0  0
  2 30  1  0  0  0  0
  3  4  1  0  0  0  0
  3 16  1  0  0  0  0
  3 31  1  0  0  0  0
  4  5  1  0  0  0  0
  4 32  1  0  0  0  0
  5  6  2  0  0  0  0
  5  7  1  0  0  0  0
  7  8  1  0  0  0  0
  7 33  1  0  0  0  0
  7 34  1  0  0  0  0
  8 14  1  0  0  0  0
  8  9  1  0  0  0  0
  9 10  2  0  0  0  0
  9 35  1  0  0  0  0
 10 11  1  0  0  0  0
 10 36  1  0  0  0  0
 11 12  2  0  0  0  0
 11 13  1  0  0  0  0
 13 14  1  0  0  0  0
 14 15  2  0  0  0  0
 16 24  1  0  0  0  0
 16 25  1  0  0  0  0
 16 17  1  0  0  0  0
 17 18  1  0  0  0  0
 17 37  1  0  0  0  0
 17 38  1  0  0  0  0
 18 23  1  0  0  0  0
 18 19  1  0  0  0  0
 18 39  1  0  0  0  0
 19 20  1  0  0  0  0
 19 40  1  0  0  0  0
 19 41  1  0  0  0  0
 20 21  1  0  0  0  0
 20 25  1  0  0  0  0
 20 42  1  0  0  0  0
 21 22  1  0  0  0  0
 21 43  1  0  0  0  0
 21 44  1  0  0  0  0
 22 23  1  0  0  0  0
 22 24  1  0  0  0  0
 22 45  1  0  0  0  0
 23 46  1  0  0  0  0
 23 47  1  0  0  0  0
 24 48  1  0  0  0  0
 24 49  1  0  0  0  0
 25 50  1  0  0  0  0
 25 51  1  0  0  0  0
M  CHG  1  13  -1
M  END
> <s_m_source_file>
AV-unprocessed.smi

> <i_m_source_file_index>
1591

> <i_lp_mmshare_version>
43012

> <i_f3d_flags>
0

> <s_epik_input>
W0NIMl0xW0NASF0oW0NIMl0yKVtDSDJdW0NASF0oW0NIMl0zKVtDSDJdW0NAQEhdMVtDSDJdQzIzW0NASF0oW0NIMl1bQ0gzXSlbTkhdQyg9TylbQ0gyXW40W2NIXVtjSF1jKD1PKVtuSF1jND1P

> <s_epik_cmdline>
J2VwaWtfcHl0aG9uJywgJy1waCcsICc3LjAnLCAnLXRuJywgJzgnLCAnLW1hJywgJzIwMCcsICctbWV0YWxfYmluZGluZycsICctaW1hZScsICc8aW5maWxlLm1hZT4nLCAnLW9tYWUnLCAnPG91dGZpbGUubWFlPic=

> <r_lp_tautomer_probability>
0.999537

> <r_epik_Ionization_Penalty>
3.13902

> <r_epik_Ionization_Penalty_Charging>
2.97334e-08

> <r_epik_Ionization_Penalty_Neutral>
3.13902

> <r_epik_State_Penalty>
3.13814

> <r_epik_Charging_Adjusted_Penalty>
3.13814

> <i_epik_Tot_Q>
-1

> <i_epik_Tot_abs_Q>
1

> <r_epik_Metal_State_Penalty>
0.465244

> <b_epik_Metal_Only>
1

> <s_lp_Force_Field>
OPLS_2005

> <r_lp_Energy>
49.2124

> <b_lp_Chiralities_Consistent>
1

> <s_lp_Variant>
AV-unprocessed.smi:1591-4

> <Gold.Version>
5.8.1

> <Gold.Id.Protein>
6NUR|6NUR_protein|mol2

> <Gold.PLP.Fitness>
39.3702

> <Gold.PLP.PLP>
-31.0448

> <Gold.PLP.part.hbond>
-1.3149

> <Gold.PLP.part.metal>
0.0000

> <Gold.PLP.part.buried>
-3.6232

> <Gold.PLP.part.nonpolar>
-26.7330

> <Gold.PLP.part.repulsive>
0.2463

> <Gold.PLP.ligand.clash>
0.0000

> <Gold.PLP.ligand.torsion>
0.3771

> <Gold.PLP.Chemscore.Hbond>
1.0000

> <Gold.PLP.Chemscore.CHOScore>
1.9808

> <Gold.PLP.Chemscore.Metal>
0.0000

> <Gold.Chemscore.Hbonds>
donor molecule, donor type, donor heavy atom, donor atom, acceptor molecule, acceptor atom, score
      P1  H 11000 11005       L1    12  1.00
      L1  C     9    35       P1 10171  1.00
      L1  C     9    35       P1 10175  0.83

> <Gold.PLP.Chemscore.Internal.Correction>
0.1373

> <Gold.Rescore>
     Score         DG    S(hbond)    S(metal)    S(lipo)     H(rot)  DE(clash)    DE(int)     intcor
     12.14     -13.04       0.97        0.00      80.42       1.99       0.39       0.51       ----

> <Gold.Chemscore.Fitness>
12.1432

> <Gold.Chemscore.DG>
-13.0433

> <Gold.Chemscore.ZeroCoef>
-5.4800

> <Gold.Chemscore.Hbond>
0.9693

> <Gold.Chemscore.Metal>
0.0000

> <Gold.Chemscore.Lipo>
80.4226

> <Gold.Chemscore.Internal_Hbond>
0.0000

> <Gold.Chemscore.DEClash>
0.3932

> <Gold.Chemscore.DEInternal>
0.5069

> <Gold.Chemscore.Rot>
1.9858

> <Gold.Chemscore.Internal.Correction>
   9.000000E+99

> <Gold.Chemscore.Hbonds>
donor molecule, donor type, donor heavy atom, donor atom, acceptor molecule, acceptor atom, score
      P1  H 11000 11005       L1    12  0.89

> <Gold.Chemscore.Hbond.Weighted>
-3.2375

> <Gold.Chemscore.Metal.Weighted>
-0.0000

> <Gold.Chemscore.Lipo.Weighted>
-9.4094

> <Gold.Chemscore.Internal_Hbond.Weighted>
0.0000

> <Gold.Chemscore.DEClash.Weighted>
0.3932

> <Gold.Chemscore.DEInternal.Weighted>
0.5069

> <Gold.Chemscore.Rot.Weighted>
5.0836

> <Gold.Chemscore.Internal.Correction.Weighted>
   9.000000E+99

> <Gold.Protein.RotatedTorsions>
[ 6907 6896 6895 6894 ] final   57.50 input  -60.11 | X-H torsion
[ 7974 7965 7964 7962 ] final  -38.70 input  175.53 | X-H torsion
[ 8008 7997 7996 7995 ] final   96.56 input   59.86 | X-H torsion
[ 10167 10162 10161 10158 ] final -161.12 input  -65.29 | X-H torsion
[ 10718 10713 10712 10709 ] final  103.30 input   66.30 | X-H torsion
[ 10763 10752 10751 10750 ] final   74.74 input  -60.55 | X-H torsion
[ 11005 11000 10999 10996 ] final   55.73 input  -57.11 | X-H torsion

> <Gold.Protein.ActiveResidues>
 VAL166  LYS551  ARG553  GLY616  TRP617  ASP618  TYR619  PRO620  LYS621  CYS622 
 ASP623  PHE694  ASN695  SER759  ASP760  ASP761  ALA762  ILE779  LEU786  VAL792 
 PHE793  MET794  SER795  GLU796  ALA797  LYS798  CYS799  TRP800  GLU811  SER814 

> <Gold.Protein.RotatedAtoms>
  152.3737  134.6695  160.0166 H   0  0  0  0  0  0  0  0  0  0  0  0  # atno 6907 bound_to 6896
  151.6980  133.3305  159.3267 H   0  0  0  0  0  0  0  0  0  0  0  0  # atno 6908 bound_to 6896
  150.7693  134.6576  159.6366 H   0  0  0  0  0  0  0  0  0  0  0  0  # atno 6909 bound_to 6896
  146.0462  140.6542  142.9063 H   0  0  0  0  0  0  0  0  0  0  0  0  # atno 7974 bound_to 7965
  156.0809  140.3271  155.7693 H   0  0  0  0  0  0  0  0  0  0  0  0  # atno 8008 bound_to 7997
  155.5154  140.0580  157.2933 H   0  0  0  0  0  0  0  0  0  0  0  0  # atno 8009 bound_to 7997
  154.4582  140.1953  156.0337 H   0  0  0  0  0  0  0  0  0  0  0  0  # atno 8010 bound_to 7997
  139.6488  144.0122  152.2147 H   0  0  0  0  0  0  0  0  0  0  0  0  # atno 10167 bound_to 10162
  157.6776  131.0775  150.5534 H   0  0  0  0  0  0  0  0  0  0  0  0  # atno 10718 bound_to 10713
  153.0607  135.5014  154.8088 H   0  0  0  0  0  0  0  0  0  0  0  0  # atno 10763 bound_to 10752
  154.6879  135.2979  154.9524 H   0  0  0  0  0  0  0  0  0  0  0  0  # atno 10764 bound_to 10752
  154.0289  135.6732  153.4831 H   0  0  0  0  0  0  0  0  0  0  0  0  # atno 10765 bound_to 10752
  140.0584  134.5637  155.9181 H   0  0  0  0  0  0  0  0  0  0  0  0  # atno 11005 bound_to 11000
  144.7099  140.3999  143.7088 LP  0  0  0  0  0  0  0  0  0  0  0  0  # atno 17320 bound_to 7965
  145.6801  139.1616  143.2705 LP  0  0  0  0  0  0  0  0  0  0  0  0  # atno 17321 bound_to 7965
  139.9831  144.6414  150.7883 LP  0  0  0  0  0  0  0  0  0  0  0  0  # atno 17342 bound_to 10162
  140.7528  143.2996  151.3114 LP  0  0  0  0  0  0  0  0  0  0  0  0  # atno 17343 bound_to 10162
  156.5839  130.4311  149.5965 LP  0  0  0  0  0  0  0  0  0  0  0  0  # atno 17370 bound_to 10713
  156.2639  130.6978  151.1755 LP  0  0  0  0  0  0  0  0  0  0  0  0  # atno 17371 bound_to 10713
  141.1962  133.6590  156.5681 LP  0  0  0  0  0  0  0  0  0  0  0  0  # atno 17394 bound_to 11000
  140.3808  134.7524  157.4660 LP  0  0  0  0  0  0  0  0  0  0  0  0  # atno 17395 bound_to 11000

$$$$
