AV-unprocessed.smi:2653|AV-procd|sdf|10295|dock1
  -GOLD-   2272014303D 1   1.00000     0.00000
 Structure written by MMmdl.
 31 32  0  0  0  0  0  0  0  0  1 V2000
  146.4092  137.9791  153.0764 C   0  0  0  0  0  0  0  0  0  0  0  0
  146.9972  139.2749  152.5078 C   0  0  0  0  0  0  0  0  0  0  0  0
  148.0670  139.8609  153.3704 C   0  0  0  0  0  0  0  0  0  0  0  0
  149.2805  139.2354  153.5506 N   0  0  0  0  0  0  0  0  0  0  0  0
  150.1159  139.9172  154.3528 N   0  0  0  0  0  0  0  0  0  0  0  0
  149.4148  140.9950  154.6826 C   0  0  0  0  0  0  0  0  0  0  0  0
  149.8464  142.0605  155.5257 N   0  0  0  0  0  0  0  0  0  0  0  0
  150.7624  142.0960  156.5168 C   0  0  0  0  0  0  0  0  0  0  0  0
  151.3940  141.0883  156.8306 O   0  0  0  0  0  0  0  0  0  0  0  0
  150.9323  143.2815  157.1235 N   0  0  0  0  0  0  0  0  0  0  0  0
  151.8391  143.5517  158.1913 C   0  0  0  0  0  0  0  0  0  0  0  0
  151.6484  144.8386  158.9643 C   0  0  0  0  0  0  0  0  0  0  0  0
  152.8065  144.7022  158.0151 C   0  0  0  0  0  0  0  0  0  0  0  0
  148.1123  141.0210  154.0963 C   0  0  0  0  0  0  0  0  0  0  0  0
  147.0418  142.0713  154.2325 C   0  0  0  0  0  0  0  0  0  0  0  0
  149.5468  138.3540  153.1352 H   0  0  0  0  0  0  0  0  0  0  0  0
  145.6316  137.5853  152.4219 H   0  0  0  0  0  0  0  0  0  0  0  0
  145.9657  138.1443  154.0588 H   0  0  0  0  0  0  0  0  0  0  0  0
  147.1777  137.2124  153.1800 H   0  0  0  0  0  0  0  0  0  0  0  0
  147.3954  139.0834  151.5110 H   0  0  0  0  0  0  0  0  0  0  0  0
  146.1981  140.0052  152.3761 H   0  0  0  0  0  0  0  0  0  0  0  0
  149.3906  142.9432  155.3468 H   0  0  0  0  0  0  0  0  0  0  0  0
  150.3696  144.0552  156.7982 H   0  0  0  0  0  0  0  0  0  0  0  0
  152.2071  142.7010  158.7629 H   0  0  0  0  0  0  0  0  0  0  0  0
  150.8318  145.4948  158.6687 H   0  0  0  0  0  0  0  0  0  0  0  0
  151.8668  144.8192  160.0301 H   0  0  0  0  0  0  0  0  0  0  0  0
  153.7996  144.5931  158.4461 H   0  0  0  0  0  0  0  0  0  0  0  0
  152.7624  145.2669  157.0855 H   0  0  0  0  0  0  0  0  0  0  0  0
  147.3135  142.8547  154.9397 H   0  0  0  0  0  0  0  0  0  0  0  0
  146.1018  141.6429  154.5805 H   0  0  0  0  0  0  0  0  0  0  0  0
  146.8385  142.5594  153.2794 H   0  0  0  0  0  0  0  0  0  0  0  0
  1  2  1  0  0  0  0
  1 17  1  0  0  0  0
  1 18  1  0  0  0  0
  1 19  1  0  0  0  0
  2  3  1  0  0  0  0
  2 20  1  0  0  0  0
  2 21  1  0  0  0  0
  3 14  2  0  0  0  0
  3  4  1  0  0  0  0
  4 16  1  0  0  0  0
  4  5  1  0  0  0  0
  5  6  2  0  0  0  0
  6  7  1  0  0  0  0
  6 14  1  0  0  0  0
  7  8  1  0  0  0  0
  7 22  1  0  0  0  0
  8  9  2  0  0  0  0
  8 10  1  0  0  0  0
 10 11  1  0  0  0  0
 10 23  1  0  0  0  0
 11 13  1  0  0  0  0
 11 12  1  0  0  0  0
 11 24  1  0  0  0  0
 12 13  1  0  0  0  0
 12 25  1  0  0  0  0
 12 26  1  0  0  0  0
 13 27  1  0  0  0  0
 13 28  1  0  0  0  0
 14 15  1  0  0  0  0
 15 29  1  0  0  0  0
 15 30  1  0  0  0  0
 15 31  1  0  0  0  0
M  END
> <s_m_source_file>
AV-unprocessed.smi

> <i_m_source_file_index>
2653

> <i_lp_mmshare_version>
43012

> <i_f3d_flags>
0

> <s_epik_input>
W0NIM11bQ0gyXWMxW25IXW5jKGMxW0NIM10pW05IXUMoPU8pW05IXVtDSF0yW0NIMl1bQ0gyXTI=

> <s_epik_cmdline>
J2VwaWtfcHl0aG9uJywgJy1waCcsICc3LjAnLCAnLXRuJywgJzgnLCAnLW1hJywgJzIwMCcsICctbWV0YWxfYmluZGluZycsICctaW1hZScsICc8aW5maWxlLm1hZT4nLCAnLW9tYWUnLCAnPG91dGZpbGUubWFlPic=

> <r_lp_tautomer_probability>
0.5

> <r_epik_Ionization_Penalty>
4.18734e-05

> <r_epik_Ionization_Penalty_Charging>
0

> <r_epik_Ionization_Penalty_Neutral>
4.18734e-05

> <r_epik_State_Penalty>
0.41068

> <r_epik_Charging_Adjusted_Penalty>
0.41068

> <i_epik_Tot_Q>
0

> <i_epik_Tot_abs_Q>
0

> <r_epik_Metal_State_Penalty>
0.410694

> <b_epik_Metal_Only>
0

> <s_lp_Force_Field>
OPLS_2005

> <r_lp_Energy>
17.3388

> <b_lp_Chiralities_Consistent>
1

> <s_lp_Variant>
AV-unprocessed.smi:2653-1

> <Gold.Version>
5.8.1

> <Gold.Id.Protein>
6NUR|6NUR_protein|mol2

> <Gold.PLP.Fitness>
43.2393

> <Gold.PLP.PLP>
-35.2504

> <Gold.PLP.part.hbond>
-4.0000

> <Gold.PLP.part.metal>
0.0000

> <Gold.PLP.part.buried>
-1.2111

> <Gold.PLP.part.nonpolar>
-30.9535

> <Gold.PLP.part.repulsive>
0.4350

> <Gold.PLP.ligand.clash>
0.0000

> <Gold.PLP.ligand.torsion>
0.2993

> <Gold.PLP.Chemscore.Hbond>
2.8500

> <Gold.PLP.Chemscore.CHOScore>
0.0000

> <Gold.PLP.Chemscore.Metal>
0.0000

> <Gold.Chemscore.Hbonds>
donor molecule, donor type, donor heavy atom, donor atom, acceptor molecule, acceptor atom, score
      L1  H     7    22       P1  8028  1.00
      L1  H    10    23       P1  8028  1.00
      P1  H  7989  7998       L1     5  0.85

> <Gold.PLP.Chemscore.Internal.Correction>
0.0374

> <Gold.Rescore>
     Score         DG    S(hbond)    S(metal)    S(lipo)     H(rot)  DE(clash)    DE(int)     intcor
     15.96     -18.57       2.21        0.00      75.42       1.21       1.40       1.21       ----

> <Gold.Chemscore.Fitness>
15.9575

> <Gold.Chemscore.DG>
-18.5687

> <Gold.Chemscore.ZeroCoef>
-5.4800

> <Gold.Chemscore.Hbond>
2.2064

> <Gold.Chemscore.Metal>
0.0000

> <Gold.Chemscore.Lipo>
75.4219

> <Gold.Chemscore.Internal_Hbond>
0.0000

> <Gold.Chemscore.DEClash>
1.3967

> <Gold.Chemscore.DEInternal>
1.2146

> <Gold.Chemscore.Rot>
1.2129

> <Gold.Chemscore.Internal.Correction>
   9.000000E+99

> <Gold.Chemscore.Hbonds>
donor molecule, donor type, donor heavy atom, donor atom, acceptor molecule, acceptor atom, score
      L1  H     4    16       P1  7948  0.01
      L1  H     7    22       P1  8028  0.99
      L1  H    10    23       P1  8028  0.92
      P1  H  7989  7998       L1     5  0.13

> <Gold.Chemscore.Hbond.Weighted>
-7.3693

> <Gold.Chemscore.Metal.Weighted>
-0.0000

> <Gold.Chemscore.Lipo.Weighted>
-8.8244

> <Gold.Chemscore.Internal_Hbond.Weighted>
0.0000

> <Gold.Chemscore.DEClash.Weighted>
1.3967

> <Gold.Chemscore.DEInternal.Weighted>
1.2146

> <Gold.Chemscore.Rot.Weighted>
3.1049

> <Gold.Chemscore.Internal.Correction.Weighted>
   9.000000E+99

> <Gold.Protein.RotatedTorsions>
[ 6907 6896 6895 6894 ] final    5.69 input  -60.11 | X-H torsion
[ 7974 7965 7964 7962 ] final   63.54 input  175.53 | X-H torsion
[ 8008 7997 7996 7995 ] final   41.07 input   59.86 | X-H torsion
[ 10167 10162 10161 10158 ] final  -10.88 input  -65.29 | X-H torsion
[ 10718 10713 10712 10709 ] final  138.26 input   66.30 | X-H torsion
[ 10763 10752 10751 10750 ] final -130.16 input  -60.55 | X-H torsion
[ 11005 11000 10999 10996 ] final  140.57 input  -57.11 | X-H torsion

> <Gold.Protein.ActiveResidues>
 VAL166  LYS551  ARG553  GLY616  TRP617  ASP618  TYR619  PRO620  LYS621  CYS622 
 ASP623  PHE694  ASN695  SER759  ASP760  ASP761  ALA762  ILE779  LEU786  VAL792 
 PHE793  MET794  SER795  GLU796  ALA797  LYS798  CYS799  TRP800  GLU811  SER814 

> <Gold.Protein.RotatedAtoms>
  151.6616  135.0988  160.0180 H   0  0  0  0  0  0  0  0  0  0  0  0  # atno 6907 bound_to 6896
  152.3943  133.6720  159.6272 H   0  0  0  0  0  0  0  0  0  0  0  0  # atno 6908 bound_to 6896
  150.7853  133.8817  159.3329 H   0  0  0  0  0  0  0  0  0  0  0  0  # atno 6909 bound_to 6896
  145.8606  139.3313  143.0821 H   0  0  0  0  0  0  0  0  0  0  0  0  # atno 7974 bound_to 7965
  155.2636  140.3361  155.4271 H   0  0  0  0  0  0  0  0  0  0  0  0  # atno 8008 bound_to 7997
  156.2164  140.1790  156.7622 H   0  0  0  0  0  0  0  0  0  0  0  0  # atno 8009 bound_to 7997
  154.5759  140.0662  156.9018 H   0  0  0  0  0  0  0  0  0  0  0  0  # atno 8010 bound_to 7997
  140.7125  143.5700  150.9103 H   0  0  0  0  0  0  0  0  0  0  0  0  # atno 10167 bound_to 10162
  157.4273  131.1045  151.0289 H   0  0  0  0  0  0  0  0  0  0  0  0  # atno 10718 bound_to 10713
  154.8756  135.3872  154.4037 H   0  0  0  0  0  0  0  0  0  0  0  0  # atno 10763 bound_to 10752
  153.4759  135.7030  153.5971 H   0  0  0  0  0  0  0  0  0  0  0  0  # atno 10764 bound_to 10752
  153.4408  135.3856  155.2194 H   0  0  0  0  0  0  0  0  0  0  0  0  # atno 10765 bound_to 10752
  140.0337  134.9339  157.0712 H   0  0  0  0  0  0  0  0  0  0  0  0  # atno 11005 bound_to 11000
  145.9252  140.9087  143.0384 LP  0  0  0  0  0  0  0  0  0  0  0  0  # atno 17320 bound_to 7965
  144.6726  140.1343  143.7441 LP  0  0  0  0  0  0  0  0  0  0  0  0  # atno 17321 bound_to 7965
  139.9426  143.6365  152.3050 LP  0  0  0  0  0  0  0  0  0  0  0  0  # atno 17342 bound_to 10162
  139.6854  144.7652  151.1532 LP  0  0  0  0  0  0  0  0  0  0  0  0  # atno 17343 bound_to 10162
  157.1198  130.6057  149.5502 LP  0  0  0  0  0  0  0  0  0  0  0  0  # atno 17370 bound_to 10713
  155.9901  130.4950  150.7241 LP  0  0  0  0  0  0  0  0  0  0  0  0  # atno 17371 bound_to 10713
  140.4183  134.1908  155.7164 LP  0  0  0  0  0  0  0  0  0  0  0  0  # atno 17394 bound_to 11000
  141.1845  133.8342  157.1136 LP  0  0  0  0  0  0  0  0  0  0  0  0  # atno 17395 bound_to 11000

$$$$
