AV-unprocessed.smi:1582|AV-procd|sdf|6361|dock5
  -GOLD-   22720 6583D 1   1.00000     0.00000
 Structure written by MMmdl.
 41 42  0  0  0  0  0  0  0  0  2 V2000
  143.8992  135.8590  151.7408 O   0  0  0  0  0  0  0  0  0  0  0  0
  145.0961  135.5739  151.7791 C   0  0  0  0  0  0  0  0  0  0  0  0
  146.0389  136.4024  152.2494 N   0  0  0  0  0  0  0  0  0  0  0  0
  145.7972  137.7530  152.7467 C   0  0  0  0  0  0  0  0  0  0  0  0
  147.0471  138.6500  152.6266 C   0  0  2  0  0  0  0  0  0  0  0  0
  147.4256  138.7086  151.2652 O   0  0  0  0  0  0  0  0  0  0  0  0
  148.2428  138.0582  153.4019 C   0  0  0  0  0  0  0  0  0  0  0  0
  149.1840  139.0995  153.8901 N   0  3  0  0  0  0  0  0  0  0  0  0
  150.1943  138.5475  154.8302 C   0  0  0  0  0  0  0  0  0  0  0  0
  151.2417  139.6077  155.2096 C   0  0  0  0  0  0  0  0  0  0  0  0
  150.5722  140.8543  155.8013 C   0  0  0  0  0  0  0  0  0  0  0  0
  149.5141  141.3894  154.8281 C   0  0  0  0  0  0  0  0  0  0  0  0
  148.5009  140.2930  154.4582 C   0  0  0  0  0  0  0  0  0  0  0  0
  145.6277  134.4120  151.3656 N   0  0  0  0  0  0  0  0  0  0  0  0
  144.9455  133.3102  150.7898 C   0  0  0  0  0  0  0  0  0  0  0  0
  145.5698  132.1100  150.3536 C   0  0  0  0  0  0  0  0  0  0  0  0
  144.6854  131.2585  149.8544 N   0  0  0  0  0  0  0  0  0  0  0  0
  143.5023  131.9032  149.9689 N   0  0  0  0  0  0  0  0  0  0  0  0
  143.6121  133.1549  150.5331 C   0  0  0  0  0  0  0  0  0  0  0  0
  142.6381  131.4807  149.6601 H   0  0  0  0  0  0  0  0  0  0  0  0
  146.9970  136.0839  152.2428 H   0  0  0  0  0  0  0  0  0  0  0  0
  144.9994  138.1579  152.1235 H   0  0  0  0  0  0  0  0  0  0  0  0
  145.4039  137.7402  153.7651 H   0  0  0  0  0  0  0  0  0  0  0  0
  146.8153  139.6530  152.9845 H   0  0  0  0  0  0  0  0  0  0  0  0
  147.1973  139.5623  150.9267 H   0  0  0  0  0  0  0  0  0  0  0  0
  147.8971  137.4644  154.2495 H   0  0  0  0  0  0  0  0  0  0  0  0
  148.7691  137.3650  152.7433 H   0  0  0  0  0  0  0  0  0  0  0  0
  149.6941  138.1733  155.7249 H   0  0  0  0  0  0  0  0  0  0  0  0
  150.7004  137.6978  154.3704 H   0  0  0  0  0  0  0  0  0  0  0  0
  151.9521  139.1912  155.9243 H   0  0  0  0  0  0  0  0  0  0  0  0
  151.8185  139.8856  154.3262 H   0  0  0  0  0  0  0  0  0  0  0  0
  150.1054  140.6055  156.7553 H   0  0  0  0  0  0  0  0  0  0  0  0
  151.3184  141.6220  156.0081 H   0  0  0  0  0  0  0  0  0  0  0  0
  148.9974  142.2411  155.2717 H   0  0  0  0  0  0  0  0  0  0  0  0
  150.0002  141.7587  153.9239 H   0  0  0  0  0  0  0  0  0  0  0  0
  147.7882  140.7009  153.7426 H   0  0  0  0  0  0  0  0  0  0  0  0
  147.9289  140.0007  155.3404 H   0  0  0  0  0  0  0  0  0  0  0  0
  146.6277  134.3092  151.4572 H   0  0  0  0  0  0  0  0  0  0  0  0
  146.6140  131.8345  150.3808 H   0  0  0  0  0  0  0  0  0  0  0  0
  142.7563  133.7943  150.6917 H   0  0  0  0  0  0  0  0  0  0  0  0
  149.6990  139.4111  153.0786 H   0  0  0  0  0  0  0  0  0  0  0  0
  1  2  2  0  0  0  0
  2  3  1  0  0  0  0
  2 14  1  0  0  0  0
  3  4  1  0  0  0  0
  3 21  1  0  0  0  0
  4  5  1  0  0  0  0
  4 22  1  0  0  0  0
  4 23  1  0  0  0  0
  5  6  1  0  0  0  0
  5  7  1  0  0  0  0
  5 24  1  0  0  0  0
  6 25  1  0  0  0  0
  7  8  1  0  0  0  0
  7 26  1  0  0  0  0
  7 27  1  0  0  0  0
  8 13  1  0  0  0  0
  8  9  1  0  0  0  0
  8 41  1  0  0  0  0
  9 10  1  0  0  0  0
  9 28  1  0  0  0  0
  9 29  1  0  0  0  0
 10 11  1  0  0  0  0
 10 30  1  0  0  0  0
 10 31  1  0  0  0  0
 11 12  1  0  0  0  0
 11 32  1  0  0  0  0
 11 33  1  0  0  0  0
 12 13  1  0  0  0  0
 12 34  1  0  0  0  0
 12 35  1  0  0  0  0
 13 36  1  0  0  0  0
 13 37  1  0  0  0  0
 14 15  1  0  0  0  0
 14 38  1  0  0  0  0
 15 19  2  0  0  0  0
 15 16  1  0  0  0  0
 16 17  2  0  0  0  0
 16 39  1  0  0  0  0
 17 18  1  0  0  0  0
 18 20  1  0  0  0  0
 18 19  1  0  0  0  0
 19 40  1  0  0  0  0
M  CHG  1   8   1
M  END
> <s_m_source_file>
AV-unprocessed.smi

> <i_m_source_file_index>
1582

> <i_lp_mmshare_version>
43012

> <i_f3d_flags>
0

> <s_epik_input>
W2NIXTFbbkhdbltjSF1jMVtOSF1DKD1PKVtOSF1bQ0gyXVtDQEhdKFtPSF0pW0NIMl1OMltDSDJdW0NIMl1bQ0gyXVtDSDJdW0NIMl0y

> <s_epik_cmdline>
J2VwaWtfcHl0aG9uJywgJy1waCcsICc3LjAnLCAnLXRuJywgJzgnLCAnLW1hJywgJzIwMCcsICctbWV0YWxfYmluZGluZycsICctaW1hZScsICc8aW5maWxlLm1hZT4nLCAnLW9tYWUnLCAnPG91dGZpbGUubWFlPic=

> <r_lp_tautomer_probability>
0.5

> <r_epik_Ionization_Penalty>
0.00519658

> <r_epik_Ionization_Penalty_Charging>
0.00515354

> <r_epik_Ionization_Penalty_Neutral>
4.30332e-05

> <r_epik_State_Penalty>
0.00375424

> <r_epik_Charging_Adjusted_Penalty>
0.00890779

> <i_epik_Tot_Q>
1

> <i_epik_Tot_abs_Q>
1

> <r_epik_Metal_State_Penalty>
-0

> <b_epik_Metal_Only>
0

> <s_lp_Force_Field>
OPLS_2005

> <r_lp_Energy>
21.997

> <b_lp_Chiralities_Consistent>
1

> <s_lp_Variant>
AV-unprocessed.smi:1582-1

> <Gold.Version>
5.8.1

> <Gold.Id.Protein>
6NUR|6NUR_protein|mol2

> <Gold.PLP.Fitness>
45.6530

> <Gold.PLP.PLP>
-29.3982

> <Gold.PLP.part.hbond>
-6.7571

> <Gold.PLP.part.metal>
0.0000

> <Gold.PLP.part.buried>
4.5494

> <Gold.PLP.part.nonpolar>
-27.8577

> <Gold.PLP.part.repulsive>
0.5077

> <Gold.PLP.ligand.clash>
0.0000

> <Gold.PLP.ligand.torsion>
0.6419

> <Gold.PLP.Chemscore.Hbond>
3.8370

> <Gold.PLP.Chemscore.CHOScore>
1.9926

> <Gold.PLP.Chemscore.Metal>
0.0000

> <Gold.Chemscore.Hbonds>
donor molecule, donor type, donor heavy atom, donor atom, acceptor molecule, acceptor atom, score
      L1  H     3    21       P1  7948  1.00
      L1  H     8    41       P1  7957  0.94
      L1  H    18    20       P1 10952  0.71
      P1  H  7954  7966       L1     6  0.93
      L1  C    16    39       P1 10747  0.95
      L1  C    19    40       P1 10186  1.00

> <Gold.PLP.Chemscore.Internal.Correction>
0.0497

> <Gold.Rescore>
     Score         DG    S(hbond)    S(metal)    S(lipo)     H(rot)  DE(clash)    DE(int)     intcor
     14.25     -19.24       3.33        0.00      79.19       2.59       3.22       1.78       ----

> <Gold.Chemscore.Fitness>
14.2464

> <Gold.Chemscore.DG>
-19.2397

> <Gold.Chemscore.ZeroCoef>
-5.4800

> <Gold.Chemscore.Hbond>
3.3290

> <Gold.Chemscore.Metal>
0.0000

> <Gold.Chemscore.Lipo>
79.1889

> <Gold.Chemscore.Internal_Hbond>
0.0000

> <Gold.Chemscore.DEClash>
3.2169

> <Gold.Chemscore.DEInternal>
1.7764

> <Gold.Chemscore.Rot>
2.5876

> <Gold.Chemscore.Internal.Correction>
   9.000000E+99

> <Gold.Chemscore.Hbonds>
donor molecule, donor type, donor heavy atom, donor atom, acceptor molecule, acceptor atom, score
      L1  H     3    21       P1  7948  0.95
      L1  H     8    41       P1  7957  0.86
      L1  H    18    20       P1 10952  0.71
      P1  H  7954  7966       L1     6  0.41

> <Gold.Chemscore.Hbond.Weighted>
-11.1188

> <Gold.Chemscore.Metal.Weighted>
-0.0000

> <Gold.Chemscore.Lipo.Weighted>
-9.2651

> <Gold.Chemscore.Internal_Hbond.Weighted>
0.0000

> <Gold.Chemscore.DEClash.Weighted>
3.2169

> <Gold.Chemscore.DEInternal.Weighted>
1.7764

> <Gold.Chemscore.Rot.Weighted>
6.6242

> <Gold.Chemscore.Internal.Correction.Weighted>
   9.000000E+99

> <Gold.Protein.RotatedTorsions>
[ 6907 6896 6895 6894 ] final -130.69 input  -60.11 | X-H torsion
[ 7974 7965 7964 7962 ] final  -30.01 input  175.53 | X-H torsion
[ 8008 7997 7996 7995 ] final  -58.73 input   59.86 | X-H torsion
[ 10167 10162 10161 10158 ] final   35.84 input  -65.29 | X-H torsion
[ 10718 10713 10712 10709 ] final   79.32 input   66.30 | X-H torsion
[ 10763 10752 10751 10750 ] final -149.84 input  -60.55 | X-H torsion
[ 11005 11000 10999 10996 ] final  124.83 input  -57.11 | X-H torsion

> <Gold.Protein.ActiveResidues>
 VAL166  LYS551  ARG553  GLY616  TRP617  ASP618  TYR619  PRO620  LYS621  CYS622 
 ASP623  PHE694  ASN695  SER759  ASP760  ASP761  ALA762  ILE779  LEU786  VAL792 
 PHE793  MET794  SER795  GLU796  ALA797  LYS798  CYS799  TRP800  GLU811  SER814 

> <Gold.Protein.RotatedAtoms>
  150.9426  133.6639  159.2787 H   0  0  0  0  0  0  0  0  0  0  0  0  # atno 6907 bound_to 6896
  151.4023  135.0971  159.9569 H   0  0  0  0  0  0  0  0  0  0  0  0  # atno 6908 bound_to 6896
  152.5076  133.8917  159.7452 H   0  0  0  0  0  0  0  0  0  0  0  0  # atno 6909 bound_to 6896
  146.1174  140.5486  142.8750 H   0  0  0  0  0  0  0  0  0  0  0  0  # atno 7974 bound_to 7965
  154.4321  140.1077  156.6003 H   0  0  0  0  0  0  0  0  0  0  0  0  # atno 8008 bound_to 7997
  155.5918  140.3492  155.4550 H   0  0  0  0  0  0  0  0  0  0  0  0  # atno 8009 bound_to 7997
  156.0240  140.1246  157.0317 H   0  0  0  0  0  0  0  0  0  0  0  0  # atno 8010 bound_to 7997
  140.4184  144.1494  150.6145 H   0  0  0  0  0  0  0  0  0  0  0  0  # atno 10167 bound_to 10162
  157.6773  130.9909  150.1915 H   0  0  0  0  0  0  0  0  0  0  0  0  # atno 10718 bound_to 10713
  154.8154  135.3299  154.7191 H   0  0  0  0  0  0  0  0  0  0  0  0  # atno 10763 bound_to 10752
  153.7833  135.6917  153.4889 H   0  0  0  0  0  0  0  0  0  0  0  0  # atno 10764 bound_to 10752
  153.1965  135.4531  155.0162 H   0  0  0  0  0  0  0  0  0  0  0  0  # atno 10765 bound_to 10752
  139.9377  134.9638  156.8468 H   0  0  0  0  0  0  0  0  0  0  0  0  # atno 11005 bound_to 11000
  144.7566  140.5322  143.6765 LP  0  0  0  0  0  0  0  0  0  0  0  0  # atno 17320 bound_to 7965
  145.5537  139.1477  143.3380 LP  0  0  0  0  0  0  0  0  0  0  0  0  # atno 17321 bound_to 7965
  140.4561  143.2467  151.9283 LP  0  0  0  0  0  0  0  0  0  0  0  0  # atno 17342 bound_to 10162
  139.4782  144.5514  151.8379 LP  0  0  0  0  0  0  0  0  0  0  0  0  # atno 17343 bound_to 10162
  156.2625  130.3712  149.8115 LP  0  0  0  0  0  0  0  0  0  0  0  0  # atno 17370 bound_to 10713
  156.5856  130.8484  151.3394 LP  0  0  0  0  0  0  0  0  0  0  0  0  # atno 17371 bound_to 10713
  140.6031  134.0152  155.7545 LP  0  0  0  0  0  0  0  0  0  0  0  0  # atno 17394 bound_to 11000
  141.0999  133.9785  157.3097 LP  0  0  0  0  0  0  0  0  0  0  0  0  # atno 17395 bound_to 11000

$$$$
