AV-unprocessed.smi:3031|AV-procd|sdf|11545|dock10
  -GOLD-   2272016503D 1   1.00000     0.00000
 Structure written by MMmdl.
 47 48  0  0  0  0  0  0  0  0  2 V2000
  151.4550  145.3458  160.0189 C   0  0  0  0  0  0  0  0  0  0  0  0
  151.7220  143.9934  159.4238 C   0  0  0  0  0  0  0  0  0  0  0  0
  152.6562  143.0145  159.8669 C   0  0  0  0  0  0  0  0  0  0  0  0
  152.6442  141.9187  159.1256 N   0  0  0  0  0  0  0  0  0  0  0  0
  151.7059  142.1582  158.1855 N   0  0  0  0  0  0  0  0  0  0  0  0
  151.4122  141.1472  157.1849 C   0  0  0  0  0  0  0  0  0  0  0  0
  150.2292  141.5446  156.2797 C   0  0  2  0  0  0  0  0  0  0  0  0
  148.8964  141.3644  157.0283 C   0  0  0  0  0  0  0  0  0  0  0  0
  150.2617  140.7612  155.0392 N   0  0  0  0  0  0  0  0  0  0  0  0
  149.0979  140.9135  154.1668 C   0  0  0  0  0  0  0  0  0  0  0  0
  148.2511  139.6304  154.1451 C   0  0  2  0  0  0  0  0  0  0  0  0
  149.0136  138.6261  153.5066 O   0  0  0  0  0  0  0  0  0  0  0  0
  146.9290  139.7985  153.3663 C   0  0  0  0  0  0  0  0  0  0  0  0
  145.9462  140.6385  154.0966 N   0  3  0  0  0  0  0  0  0  0  0  0
  145.6914  140.1813  155.4857 C   0  0  0  0  0  0  0  0  0  0  0  0
  144.6334  141.0720  156.1584 C   0  0  0  0  0  0  0  0  0  0  0  0
  145.0633  142.4274  156.1315 O   0  0  0  0  0  0  0  0  0  0  0  0
  145.2280  142.9066  154.8026 C   0  0  0  0  0  0  0  0  0  0  0  0
  146.3056  142.0766  154.0843 C   0  0  0  0  0  0  0  0  0  0  0  0
  151.1348  143.4036  158.3403 C   0  0  0  0  0  0  0  0  0  0  0  0
  152.3763  145.9098  160.1651 H   0  0  0  0  0  0  0  0  0  0  0  0
  150.9681  145.2665  160.9911 H   0  0  0  0  0  0  0  0  0  0  0  0
  150.8070  145.9491  159.3826 H   0  0  0  0  0  0  0  0  0  0  0  0
  153.3380  143.0671  160.7029 H   0  0  0  0  0  0  0  0  0  0  0  0
  152.3103  140.9688  156.5920 H   0  0  0  0  0  0  0  0  0  0  0  0
  151.1937  140.2130  157.7046 H   0  0  0  0  0  0  0  0  0  0  0  0
  150.3345  142.6028  156.0362 H   0  0  0  0  0  0  0  0  0  0  0  0
  148.9097  141.9003  157.9778 H   0  0  0  0  0  0  0  0  0  0  0  0
  148.7005  140.3138  157.2458 H   0  0  0  0  0  0  0  0  0  0  0  0
  148.0522  141.7546  156.4602 H   0  0  0  0  0  0  0  0  0  0  0  0
  150.3952  139.7804  155.2624 H   0  0  0  0  0  0  0  0  0  0  0  0
  148.4790  141.7519  154.4862 H   0  0  0  0  0  0  0  0  0  0  0  0
  149.4356  141.1402  153.1544 H   0  0  0  0  0  0  0  0  0  0  0  0
  148.0675  139.3121  155.1712 H   0  0  0  0  0  0  0  0  0  0  0  0
  149.1494  138.8758  152.6050 H   0  0  0  0  0  0  0  0  0  0  0  0
  147.1073  140.2396  152.3845 H   0  0  0  0  0  0  0  0  0  0  0  0
  146.5065  138.8098  153.1784 H   0  0  0  0  0  0  0  0  0  0  0  0
  145.3484  139.1474  155.4929 H   0  0  0  0  0  0  0  0  0  0  0  0
  146.6196  140.2129  156.0587 H   0  0  0  0  0  0  0  0  0  0  0  0
  143.6668  140.9735  155.6614 H   0  0  0  0  0  0  0  0  0  0  0  0
  144.4906  140.7678  157.1956 H   0  0  0  0  0  0  0  0  0  0  0  0
  144.2787  142.8620  154.2661 H   0  0  0  0  0  0  0  0  0  0  0  0
  145.5238  143.9551  154.8391 H   0  0  0  0  0  0  0  0  0  0  0  0
  147.2726  142.2167  154.5705 H   0  0  0  0  0  0  0  0  0  0  0  0
  146.4087  142.4248  153.0559 H   0  0  0  0  0  0  0  0  0  0  0  0
  150.3616  143.7610  157.6762 H   0  0  0  0  0  0  0  0  0  0  0  0
  145.0743  140.5599  153.5921 H   0  0  0  0  0  0  0  0  0  0  0  0
  1  2  1  0  0  0  0
  1 21  1  0  0  0  0
  1 22  1  0  0  0  0
  1 23  1  0  0  0  0
  2 20  2  0  0  0  0
  2  3  1  0  0  0  0
  3  4  2  0  0  0  0
  3 24  1  0  0  0  0
  4  5  1  0  0  0  0
  5  6  1  0  0  0  0
  5 20  1  0  0  0  0
  6  7  1  0  0  0  0
  6 25  1  0  0  0  0
  6 26  1  0  0  0  0
  7  8  1  0  0  0  0
  7  9  1  0  0  0  0
  7 27  1  0  0  0  0
  8 28  1  0  0  0  0
  8 29  1  0  0  0  0
  8 30  1  0  0  0  0
  9 10  1  0  0  0  0
  9 31  1  0  0  0  0
 10 11  1  0  0  0  0
 10 32  1  0  0  0  0
 10 33  1  0  0  0  0
 11 12  1  0  0  0  0
 11 13  1  0  0  0  0
 11 34  1  0  0  0  0
 12 35  1  0  0  0  0
 13 14  1  0  0  0  0
 13 36  1  0  0  0  0
 13 37  1  0  0  0  0
 14 19  1  0  0  0  0
 14 15  1  0  0  0  0
 14 47  1  0  0  0  0
 15 16  1  0  0  0  0
 15 38  1  0  0  0  0
 15 39  1  0  0  0  0
 16 17  1  0  0  0  0
 16 40  1  0  0  0  0
 16 41  1  0  0  0  0
 17 18  1  0  0  0  0
 18 19  1  0  0  0  0
 18 42  1  0  0  0  0
 18 43  1  0  0  0  0
 19 44  1  0  0  0  0
 19 45  1  0  0  0  0
 20 46  1  0  0  0  0
M  CHG  1  14   1
M  END
> <s_m_source_file>
AV-unprocessed.smi

> <i_m_source_file_index>
3031

> <i_lp_mmshare_version>
43012

> <i_f3d_flags>
0

> <s_epik_input>
W0NIM11jMVtjSF1ubihbY0hdMSlbQ0gyXVtDQEhdKFtDSDNdKVtOSF1bQ0gyXVtDQEhdKFtPSF0pW0NIMl1OMltDSDJdW0NIMl1PW0NIMl1bQ0gyXTI=

> <s_epik_cmdline>
J2VwaWtfcHl0aG9uJywgJy1waCcsICc3LjAnLCAnLXRuJywgJzgnLCAnLW1hJywgJzIwMCcsICctbWV0YWxfYmluZGluZycsICctaW1hZScsICc8aW5maWxlLm1hZT4nLCAnLW9tYWUnLCAnPG91dGZpbGUubWFlPic=

> <r_epik_Ionization_Penalty>
0.467051

> <r_epik_Ionization_Penalty_Charging>
0.202493

> <r_epik_Ionization_Penalty_Neutral>
0.264558

> <r_epik_State_Penalty>
1.34287

> <r_epik_Charging_Adjusted_Penalty>
1.54537

> <i_epik_Tot_Q>
1

> <i_epik_Tot_abs_Q>
1

> <r_epik_Metal_State_Penalty>
1.34281

> <b_epik_Metal_Only>
0

> <s_lp_Force_Field>
OPLS_2005

> <r_lp_Energy>
23.7878

> <b_lp_Chiralities_Consistent>
1

> <s_lp_Variant>
AV-unprocessed.smi:3031-5

> <Gold.Version>
5.8.1

> <Gold.Id.Protein>
6NUR|6NUR_protein|mol2

> <Gold.PLP.Fitness>
54.8242

> <Gold.PLP.PLP>
-42.5956

> <Gold.PLP.part.hbond>
-4.0000

> <Gold.PLP.part.metal>
0.0000

> <Gold.PLP.part.buried>
-3.0279

> <Gold.PLP.part.nonpolar>
-34.7615

> <Gold.PLP.part.repulsive>
0.1504

> <Gold.PLP.ligand.clash>
0.0000

> <Gold.PLP.ligand.torsion>
0.7160

> <Gold.PLP.Chemscore.Hbond>
3.5304

> <Gold.PLP.Chemscore.CHOScore>
0.9638

> <Gold.PLP.Chemscore.Metal>
0.0000

> <Gold.Chemscore.Hbonds>
donor molecule, donor type, donor heavy atom, donor atom, acceptor molecule, acceptor atom, score
      L1  H    12    35       P1  7957  1.00
      L1  H    14    47       P1 10175  2.00
      P1  H  7989  7998       L1     9  0.49
      L1  C    20    46       P1  8028  0.69

> <Gold.PLP.Chemscore.Internal.Correction>
0.1779

> <Gold.Rescore>
     Score         DG    S(hbond)    S(metal)    S(lipo)     H(rot)  DE(clash)    DE(int)     intcor
     16.25     -17.30       1.92        0.00     104.26       2.65       0.03       1.03       ----

> <Gold.Chemscore.Fitness>
16.2456

> <Gold.Chemscore.DG>
-17.3014

> <Gold.Chemscore.ZeroCoef>
-5.4800

> <Gold.Chemscore.Hbond>
1.9197

> <Gold.Chemscore.Metal>
0.0000

> <Gold.Chemscore.Lipo>
104.2648

> <Gold.Chemscore.Internal_Hbond>
0.0000

> <Gold.Chemscore.DEClash>
0.0292

> <Gold.Chemscore.DEInternal>
1.0266

> <Gold.Chemscore.Rot>
2.6521

> <Gold.Chemscore.Internal.Correction>
   9.000000E+99

> <Gold.Chemscore.Hbonds>
donor molecule, donor type, donor heavy atom, donor atom, acceptor molecule, acceptor atom, score
      L1  H    12    35       P1  7957  0.96
      L1  H    14    47       P1 10175  0.99
      P1  H  7989  7998       L1     9  0.01

> <Gold.Chemscore.Hbond.Weighted>
-6.4118

> <Gold.Chemscore.Metal.Weighted>
-0.0000

> <Gold.Chemscore.Lipo.Weighted>
-12.1990

> <Gold.Chemscore.Internal_Hbond.Weighted>
0.0000

> <Gold.Chemscore.DEClash.Weighted>
0.0292

> <Gold.Chemscore.DEInternal.Weighted>
1.0266

> <Gold.Chemscore.Rot.Weighted>
6.7894

> <Gold.Chemscore.Internal.Correction.Weighted>
   9.000000E+99

> <Gold.Protein.RotatedTorsions>
[ 6907 6896 6895 6894 ] final  -86.93 input  -60.11 | X-H torsion
[ 7974 7965 7964 7962 ] final  119.81 input  175.53 | X-H torsion
[ 8008 7997 7996 7995 ] final   76.20 input   59.86 | X-H torsion
[ 10167 10162 10161 10158 ] final -101.72 input  -65.29 | X-H torsion
[ 10718 10713 10712 10709 ] final   74.01 input   66.30 | X-H torsion
[ 10763 10752 10751 10750 ] final   28.60 input  -60.55 | X-H torsion
[ 11005 11000 10999 10996 ] final  -29.26 input  -57.11 | X-H torsion

> <Gold.Protein.ActiveResidues>
 VAL166  LYS551  ARG553  GLY616  TRP617  ASP618  TYR619  PRO620  LYS621  CYS622 
 ASP623  PHE694  ASN695  SER759  ASP760  ASP761  ALA762  ILE779  LEU786  VAL792 
 PHE793  MET794  SER795  GLU796  ALA797  LYS798  CYS799  TRP800  GLU811  SER814 

> <Gold.Protein.RotatedAtoms>
  150.6866  134.2974  159.4691 H   0  0  0  0  0  0  0  0  0  0  0  0  # atno 6907 bound_to 6896
  152.0873  134.9428  160.0581 H   0  0  0  0  0  0  0  0  0  0  0  0  # atno 6908 bound_to 6896
  152.0758  133.4094  159.4516 H   0  0  0  0  0  0  0  0  0  0  0  0  # atno 6909 bound_to 6896
  145.1387  139.3281  143.4627 H   0  0  0  0  0  0  0  0  0  0  0  0  # atno 7974 bound_to 7965
  155.8239  140.3469  155.5530 H   0  0  0  0  0  0  0  0  0  0  0  0  # atno 8008 bound_to 7997
  155.8314  140.0927  157.1810 H   0  0  0  0  0  0  0  0  0  0  0  0  # atno 8009 bound_to 7997
  154.4004  140.1411  156.3605 H   0  0  0  0  0  0  0  0  0  0  0  0  # atno 8010 bound_to 7997
  140.2382  143.3557  152.0825 H   0  0  0  0  0  0  0  0  0  0  0  0  # atno 10167 bound_to 10162
  157.6573  130.9656  150.1150 H   0  0  0  0  0  0  0  0  0  0  0  0  # atno 10718 bound_to 10713
  153.0481  135.6509  154.0763 H   0  0  0  0  0  0  0  0  0  0  0  0  # atno 10763 bound_to 10752
  154.0457  135.2900  155.3350 H   0  0  0  0  0  0  0  0  0  0  0  0  # atno 10764 bound_to 10752
  154.6752  135.5341  153.8257 H   0  0  0  0  0  0  0  0  0  0  0  0  # atno 10765 bound_to 10752
  140.9280  133.7356  156.0896 H   0  0  0  0  0  0  0  0  0  0  0  0  # atno 11005 bound_to 11000
  146.3507  140.1416  142.8594 LP  0  0  0  0  0  0  0  0  0  0  0  0  # atno 17320 bound_to 7965
  145.0556  140.9050  143.4969 LP  0  0  0  0  0  0  0  0  0  0  0  0  # atno 17321 bound_to 7965
  139.5086  144.6853  151.5904 LP  0  0  0  0  0  0  0  0  0  0  0  0  # atno 17342 bound_to 10162
  140.6133  143.9395  150.6470 LP  0  0  0  0  0  0  0  0  0  0  0  0  # atno 17343 bound_to 10162
  156.2036  130.3662  149.8757 LP  0  0  0  0  0  0  0  0  0  0  0  0  # atno 17370 bound_to 10713
  156.6654  130.8799  151.3554 LP  0  0  0  0  0  0  0  0  0  0  0  0  # atno 17371 bound_to 10713
  140.7900  134.3628  157.5467 LP  0  0  0  0  0  0  0  0  0  0  0  0  # atno 17394 bound_to 11000
  139.8790  134.9134  156.3083 LP  0  0  0  0  0  0  0  0  0  0  0  0  # atno 17395 bound_to 11000

$$$$
