AV-unprocessed.smi:1080|AV-procd|sdf|4706|dock5
  -GOLD-   22720 3233D 1   1.00000     0.00000
 Structure written by MMmdl.
 48 50  0  0  0  0  0  0  0  0  1 V2000
  146.9682  136.9503  155.7961 O   0  0  0  0  0  0  0  0  0  0  0  0
  147.5954  136.8341  154.7437 C   0  0  0  0  0  0  0  0  0  0  0  0
  147.0865  136.4091  153.5737 N   0  0  0  0  0  0  0  0  0  0  0  0
  145.7591  136.0017  153.2654 C   0  0  0  0  0  0  0  0  0  0  0  0
  145.2183  136.4235  152.0327 C   0  0  0  0  0  0  0  0  0  0  0  0
  143.9016  136.0460  151.7020 C   0  0  0  0  0  0  0  0  0  0  0  0
  143.1186  135.3014  152.5102 N   0  0  0  0  0  0  0  0  0  0  0  0
  143.6323  134.9077  153.6945 C   0  0  0  0  0  0  0  0  0  0  0  0
  144.9360  135.2305  154.1221 C   0  0  0  0  0  0  0  0  0  0  0  0
  148.9034  137.1072  154.6256 N   0  0  0  0  0  0  0  0  0  0  0  0
  149.7823  137.5717  155.6959 C   0  0  2  0  0  0  0  0  0  0  0  0
  149.0927  138.6960  156.4909 C   0  0  0  0  0  0  0  0  0  0  0  0
  150.0224  139.2763  157.5696 C   0  0  0  0  0  0  0  0  0  0  0  0
  151.3493  139.7785  156.9630 C   0  0  1  0  0  0  0  0  0  0  0  0
  152.2655  140.3563  158.0642 C   0  0  0  0  0  0  0  0  0  0  0  0
  153.3312  139.7824  158.2945 O   0  0  0  0  0  0  0  0  0  0  0  0
  151.9052  141.4849  158.7270 N   0  0  0  0  0  0  0  0  0  0  0  0
  152.8304  142.2000  159.6151 C   0  0  0  0  0  0  0  0  0  0  0  0
  153.4019  143.4145  158.8631 C   0  0  0  0  0  0  0  0  0  0  0  0
  152.0837  144.5823  158.3974 S   0  0  0  0  0  0  0  0  0  0  0  0
  150.8987  143.4283  157.6361 C   0  0  0  0  0  0  0  0  0  0  0  0
  150.6474  142.2216  158.5546 C   0  0  0  0  0  0  0  0  0  0  0  0
  152.0373  138.6330  156.1857 C   0  0  0  0  0  0  0  0  0  0  0  0
  151.1133  138.0624  155.0978 C   0  0  0  0  0  0  0  0  0  0  0  0
  147.7478  136.3171  152.8166 H   0  0  0  0  0  0  0  0  0  0  0  0
  145.7996  137.0221  151.3465 H   0  0  0  0  0  0  0  0  0  0  0  0
  143.4658  136.3519  150.7624 H   0  0  0  0  0  0  0  0  0  0  0  0
  142.9823  134.3201  154.3260 H   0  0  0  0  0  0  0  0  0  0  0  0
  145.2644  134.8900  155.0911 H   0  0  0  0  0  0  0  0  0  0  0  0
  149.3299  136.9792  153.7197 H   0  0  0  0  0  0  0  0  0  0  0  0
  150.0055  136.7551  156.3849 H   0  0  0  0  0  0  0  0  0  0  0  0
  148.7861  139.4945  155.8135 H   0  0  0  0  0  0  0  0  0  0  0  0
  148.1812  138.3190  156.9564 H   0  0  0  0  0  0  0  0  0  0  0  0
  149.5110  140.0882  158.0880 H   0  0  0  0  0  0  0  0  0  0  0  0
  150.2223  138.5112  158.3218 H   0  0  0  0  0  0  0  0  0  0  0  0
  151.1357  140.5467  156.2213 H   0  0  0  0  0  0  0  0  0  0  0  0
  152.3143  142.5247  160.5197 H   0  0  0  0  0  0  0  0  0  0  0  0
  153.6463  141.5650  159.9626 H   0  0  0  0  0  0  0  0  0  0  0  0
  154.1300  143.9376  159.4833 H   0  0  0  0  0  0  0  0  0  0  0  0
  153.9240  143.0906  157.9619 H   0  0  0  0  0  0  0  0  0  0  0  0
  149.9673  143.9607  157.4431 H   0  0  0  0  0  0  0  0  0  0  0  0
  151.2874  143.1014  156.6711 H   0  0  0  0  0  0  0  0  0  0  0  0
  149.8406  141.5997  158.1695 H   0  0  0  0  0  0  0  0  0  0  0  0
  150.2840  142.5677  159.5234 H   0  0  0  0  0  0  0  0  0  0  0  0
  152.9596  138.9919  155.7270 H   0  0  0  0  0  0  0  0  0  0  0  0
  152.3222  137.8264  156.8633 H   0  0  0  0  0  0  0  0  0  0  0  0
  151.6159  137.2428  154.5825 H   0  0  0  0  0  0  0  0  0  0  0  0
  150.9231  138.8298  154.3459 H   0  0  0  0  0  0  0  0  0  0  0  0
  1  2  2  0  0  0  0
  2  3  1  0  0  0  0
  2 10  1  0  0  0  0
  3  4  1  0  0  0  0
  3 25  1  0  0  0  0
  4  9  1  0  0  0  0
  4  5  2  0  0  0  0
  5  6  1  0  0  0  0
  5 26  1  0  0  0  0
  6  7  2  0  0  0  0
  6 27  1  0  0  0  0
  7  8  1  0  0  0  0
  8  9  2  0  0  0  0
  8 28  1  0  0  0  0
  9 29  1  0  0  0  0
 10 11  1  0  0  0  0
 10 30  1  0  0  0  0
 11 24  1  0  0  0  0
 11 12  1  0  0  0  0
 11 31  1  0  0  0  0
 12 13  1  0  0  0  0
 12 32  1  0  0  0  0
 12 33  1  0  0  0  0
 13 14  1  0  0  0  0
 13 34  1  0  0  0  0
 13 35  1  0  0  0  0
 14 15  1  0  0  0  0
 14 23  1  0  0  0  0
 14 36  1  0  0  0  0
 15 16  2  0  0  0  0
 15 17  1  0  0  0  0
 17 22  1  0  0  0  0
 17 18  1  0  0  0  0
 18 19  1  0  0  0  0
 18 37  1  0  0  0  0
 18 38  1  0  0  0  0
 19 20  1  0  0  0  0
 19 39  1  0  0  0  0
 19 40  1  0  0  0  0
 20 21  1  0  0  0  0
 21 22  1  0  0  0  0
 21 41  1  0  0  0  0
 21 42  1  0  0  0  0
 22 43  1  0  0  0  0
 22 44  1  0  0  0  0
 23 24  1  0  0  0  0
 23 45  1  0  0  0  0
 23 46  1  0  0  0  0
 24 47  1  0  0  0  0
 24 48  1  0  0  0  0
M  END
> <s_m_source_file>
AV-unprocessed.smi

> <i_m_source_file_index>
1080

> <i_lp_mmshare_version>
43012

> <i_f3d_flags>
0

> <s_epik_input>
W2NIXTFbY0hdbltjSF1bY0hdYzFbTkhdQyg9TylbTkhdW0NAQEhdMltDSDJdW0NIMl1bQ0BIXShbQ0gyXVtDSDJdMilDKD1PKU4zW0NIMl1bQ0gyXVNbQ0gyXVtDSDJdMw==

> <s_epik_cmdline>
J2VwaWtfcHl0aG9uJywgJy1waCcsICc3LjAnLCAnLXRuJywgJzgnLCAnLW1hJywgJzIwMCcsICctbWV0YWxfYmluZGluZycsICctaW1hZScsICc8aW5maWxlLm1hZT4nLCAnLW9tYWUnLCAnPG91dGZpbGUubWFlPic=

> <r_epik_Ionization_Penalty>
0.118325

> <r_epik_Ionization_Penalty_Charging>
0

> <r_epik_Ionization_Penalty_Neutral>
0.118325

> <r_epik_State_Penalty>
0.107868

> <r_epik_Charging_Adjusted_Penalty>
0.107868

> <i_epik_Tot_Q>
0

> <i_epik_Tot_abs_Q>
0

> <r_epik_Metal_State_Penalty>
0.0897632

> <b_epik_Metal_Only>
0

> <s_lp_Force_Field>
OPLS_2005

> <r_lp_Energy>
33.2651

> <b_lp_Chiralities_Consistent>
1

> <s_lp_Variant>
AV-unprocessed.smi:1080-1

> <Gold.Version>
5.8.1

> <Gold.Id.Protein>
6NUR|6NUR_protein|mol2

> <Gold.PLP.Fitness>
46.8728

> <Gold.PLP.PLP>
-33.7897

> <Gold.PLP.part.hbond>
-3.0000

> <Gold.PLP.part.metal>
0.0000

> <Gold.PLP.part.buried>
-3.2002

> <Gold.PLP.part.nonpolar>
-27.7680

> <Gold.PLP.part.repulsive>
0.2015

> <Gold.PLP.ligand.clash>
0.0000

> <Gold.PLP.ligand.torsion>
0.5914

> <Gold.PLP.Chemscore.Hbond>
2.8640

> <Gold.PLP.Chemscore.CHOScore>
1.8714

> <Gold.PLP.Chemscore.Metal>
0.0000

> <Gold.Chemscore.Hbonds>
donor molecule, donor type, donor heavy atom, donor atom, acceptor molecule, acceptor atom, score
      L1  H     3    25       P1  7948  1.00
      L1  H    10    30       P1  7948  0.86
      P1  H  7997  8010       L1    16  1.00
      L1  C     6    27       P1 10171  0.86
      L1  C     8    28       P1 10957  0.80

> <Gold.PLP.Chemscore.Internal.Correction>
0.0598

> <Gold.Rescore>
     Score         DG    S(hbond)    S(metal)    S(lipo)     H(rot)  DE(clash)    DE(int)     intcor
     20.87     -22.77       2.79        0.00      95.30       1.23       0.00       1.91       ----

> <Gold.Chemscore.Fitness>
20.8677

> <Gold.Chemscore.DG>
-22.7739

> <Gold.Chemscore.ZeroCoef>
-5.4800

> <Gold.Chemscore.Hbond>
2.7856

> <Gold.Chemscore.Metal>
0.0000

> <Gold.Chemscore.Lipo>
95.3002

> <Gold.Chemscore.Internal_Hbond>
0.0000

> <Gold.Chemscore.DEClash>
0.0000

> <Gold.Chemscore.DEInternal>
1.9062

> <Gold.Chemscore.Rot>
1.2344

> <Gold.Chemscore.Internal.Correction>
   9.000000E+99

> <Gold.Chemscore.Hbonds>
donor molecule, donor type, donor heavy atom, donor atom, acceptor molecule, acceptor atom, score
      L1  H     3    25       P1  7948  0.93
      L1  H    10    30       P1  7948  0.78
      P1  H  7997  8010       L1    16  0.95

> <Gold.Chemscore.Hbond.Weighted>
-9.3038

> <Gold.Chemscore.Metal.Weighted>
-0.0000

> <Gold.Chemscore.Lipo.Weighted>
-11.1501

> <Gold.Chemscore.Internal_Hbond.Weighted>
0.0000

> <Gold.Chemscore.DEClash.Weighted>
0.0000

> <Gold.Chemscore.DEInternal.Weighted>
1.9062

> <Gold.Chemscore.Rot.Weighted>
3.1600

> <Gold.Chemscore.Internal.Correction.Weighted>
   9.000000E+99

> <Gold.Protein.RotatedTorsions>
[ 6907 6896 6895 6894 ] final  -22.13 input  -60.11 | X-H torsion
[ 7974 7965 7964 7962 ] final  -76.03 input  175.53 | X-H torsion
[ 8008 7997 7996 7995 ] final   18.61 input   59.86 | X-H torsion
[ 10167 10162 10161 10158 ] final   76.60 input  -65.29 | X-H torsion
[ 10718 10713 10712 10709 ] final -106.08 input   66.30 | X-H torsion
[ 10763 10752 10751 10750 ] final  -19.42 input  -60.55 | X-H torsion
[ 11005 11000 10999 10996 ] final -155.67 input  -57.11 | X-H torsion

> <Gold.Protein.ActiveResidues>
 VAL166  LYS551  ARG553  GLY616  TRP617  ASP618  TYR619  PRO620  LYS621  CYS622 
 ASP623  PHE694  ASN695  SER759  ASP760  ASP761  ALA762  ILE779  LEU786  VAL792 
 PHE793  MET794  SER795  GLU796  ALA797  LYS798  CYS799  TRP800  GLU811  SER814 

> <Gold.Protein.RotatedAtoms>
  151.2231  135.0526  159.8957 H   0  0  0  0  0  0  0  0  0  0  0  0  # atno 6907 bound_to 6896
  152.5413  134.0619  159.8166 H   0  0  0  0  0  0  0  0  0  0  0  0  # atno 6908 bound_to 6896
  151.0788  133.5358  159.2653 H   0  0  0  0  0  0  0  0  0  0  0  0  # atno 6909 bound_to 6896
  145.6182  140.9369  143.1152 H   0  0  0  0  0  0  0  0  0  0  0  0  # atno 7974 bound_to 7965
  154.9085  140.3011  155.5279 H   0  0  0  0  0  0  0  0  0  0  0  0  # atno 8008 bound_to 7997
  156.3016  140.2393  156.4057 H   0  0  0  0  0  0  0  0  0  0  0  0  # atno 8009 bound_to 7997
  154.8449  140.0412  157.1555 H   0  0  0  0  0  0  0  0  0  0  0  0  # atno 8010 bound_to 7997
  139.9906  144.5760  150.7822 H   0  0  0  0  0  0  0  0  0  0  0  0  # atno 10167 bound_to 10162
  156.0374  130.5595  150.7629 H   0  0  0  0  0  0  0  0  0  0  0  0  # atno 10718 bound_to 10713
  153.6045  135.6998  153.5371 H   0  0  0  0  0  0  0  0  0  0  0  0  # atno 10763 bound_to 10752
  153.3068  135.4112  155.1301 H   0  0  0  0  0  0  0  0  0  0  0  0  # atno 10764 bound_to 10752
  154.8576  135.3662  154.5582 H   0  0  0  0  0  0  0  0  0  0  0  0  # atno 10765 bound_to 10752
  140.6840  134.4114  157.5224 H   0  0  0  0  0  0  0  0  0  0  0  0  # atno 11005 bound_to 11000
  144.7242  139.7931  143.7371 LP  0  0  0  0  0  0  0  0  0  0  0  0  # atno 17320 bound_to 7965
  146.1451  139.4518  143.0084 LP  0  0  0  0  0  0  0  0  0  0  0  0  # atno 17321 bound_to 7965
  140.7456  143.2878  151.3414 LP  0  0  0  0  0  0  0  0  0  0  0  0  # atno 17342 bound_to 10162
  139.6343  144.0660  152.2503 LP  0  0  0  0  0  0  0  0  0  0  0  0  # atno 17343 bound_to 10162
  157.5144  131.0927  151.0158 LP  0  0  0  0  0  0  0  0  0  0  0  0  # atno 17370 bound_to 10713
  157.0505  130.5785  149.5369 LP  0  0  0  0  0  0  0  0  0  0  0  0  # atno 17371 bound_to 10713
  139.8943  134.8709  156.2182 LP  0  0  0  0  0  0  0  0  0  0  0  0  # atno 17394 bound_to 11000
  141.0295  133.6996  156.1405 LP  0  0  0  0  0  0  0  0  0  0  0  0  # atno 17395 bound_to 11000

$$$$
