AV-unprocessed.smi:3330|AV-procd|sdf|12806|dock9
  -GOLD-   2272019173D 1   1.00000     0.00000
 Structure written by MMmdl.
 38 39  0  0  0  0  0  0  0  0  1 V2000
  154.0483  140.4582  160.5369 C   0  0  0  0  0  0  0  0  0  0  0  0
  153.1829  141.4561  159.7367 C   0  0  1  0  0  0  0  0  0  0  0  0
  151.8815  140.8487  159.4798 N   0  0  0  0  0  0  0  0  0  0  0  0
  151.5396  140.8660  158.0641 C   0  0  0  0  0  0  0  0  0  0  0  0
  150.0747  140.4375  157.8664 C   0  0  0  0  0  0  0  0  0  0  0  0
  149.5120  140.9634  156.6172 N   0  0  0  0  0  0  0  0  0  0  0  0
  150.0762  140.8152  155.4110 C   0  0  0  0  0  0  0  0  0  0  0  0
  151.1193  140.2219  155.1378 O   0  0  0  0  0  0  0  0  0  0  0  0
  149.2113  141.5178  154.3873 C   0  0  0  0  0  0  0  0  0  0  0  0
  148.1708  142.0156  155.2609 N   0  0  0  0  0  0  0  0  0  0  0  0
  148.3756  141.6807  156.5414 C   0  0  0  0  0  0  0  0  0  0  0  0
  147.6408  141.9873  157.4791 O   0  0  0  0  0  0  0  0  0  0  0  0
  152.9546  142.8017  160.4769 C   0  0  2  0  0  0  0  0  0  0  0  0
  152.4908  142.6020  161.9334 C   0  0  0  0  0  0  0  0  0  0  0  0
  152.0195  143.6675  159.7680 N   0  0  0  0  0  0  0  0  0  0  0  0
  152.2715  144.8857  159.1706 C   0  0  0  0  0  0  0  0  0  0  0  0
  151.1002  145.3227  158.6216 C   0  0  0  0  0  0  0  0  0  0  0  0
  150.1734  144.2910  158.9381 C   0  0  0  0  0  0  0  0  0  0  0  0
  150.7248  143.3025  159.6231 N   0  0  0  0  0  0  0  0  0  0  0  0
  155.0532  140.8443  160.7058 H   0  0  0  0  0  0  0  0  0  0  0  0
  154.1664  139.5081  160.0173 H   0  0  0  0  0  0  0  0  0  0  0  0
  153.6066  140.2475  161.5116 H   0  0  0  0  0  0  0  0  0  0  0  0
  153.6756  141.6713  158.7872 H   0  0  0  0  0  0  0  0  0  0  0  0
  151.1710  141.3551  159.9890 H   0  0  0  0  0  0  0  0  0  0  0  0
  151.6748  141.8796  157.6851 H   0  0  0  0  0  0  0  0  0  0  0  0
  152.2018  140.2198  157.4888 H   0  0  0  0  0  0  0  0  0  0  0  0
  149.9870  139.3502  157.9093 H   0  0  0  0  0  0  0  0  0  0  0  0
  149.4784  140.8080  158.7018 H   0  0  0  0  0  0  0  0  0  0  0  0
  149.7474  142.3306  153.8964 H   0  0  0  0  0  0  0  0  0  0  0  0
  148.8168  140.8218  153.6463 H   0  0  0  0  0  0  0  0  0  0  0  0
  147.3864  142.5583  154.9294 H   0  0  0  0  0  0  0  0  0  0  0  0
  153.9054  143.3371  160.5057 H   0  0  0  0  0  0  0  0  0  0  0  0
  153.2358  142.0656  162.5210 H   0  0  0  0  0  0  0  0  0  0  0  0
  151.5607  142.0350  161.9839 H   0  0  0  0  0  0  0  0  0  0  0  0
  152.3223  143.5611  162.4240 H   0  0  0  0  0  0  0  0  0  0  0  0
  153.2540  145.3344  159.1833 H   0  0  0  0  0  0  0  0  0  0  0  0
  150.9315  146.2393  158.0761 H   0  0  0  0  0  0  0  0  0  0  0  0
  149.1238  144.2308  158.6913 H   0  0  0  0  0  0  0  0  0  0  0  0
  1  2  1  0  0  0  0
  1 20  1  0  0  0  0
  1 21  1  0  0  0  0
  1 22  1  0  0  0  0
  2  3  1  0  0  0  0
  2 13  1  0  0  0  0
  2 23  1  0  0  0  0
  3  4  1  0  0  0  0
  3 24  1  0  0  0  0
  4  5  1  0  0  0  0
  4 25  1  0  0  0  0
  4 26  1  0  0  0  0
  5  6  1  0  0  0  0
  5 27  1  0  0  0  0
  5 28  1  0  0  0  0
  6 11  1  0  0  0  0
  6  7  1  0  0  0  0
  7  8  2  0  0  0  0
  7  9  1  0  0  0  0
  9 10  1  0  0  0  0
  9 29  1  0  0  0  0
  9 30  1  0  0  0  0
 10 11  1  0  0  0  0
 10 31  1  0  0  0  0
 11 12  2  0  0  0  0
 13 14  1  0  0  0  0
 13 15  1  0  0  0  0
 13 32  1  0  0  0  0
 14 33  1  0  0  0  0
 14 34  1  0  0  0  0
 14 35  1  0  0  0  0
 15 19  1  0  0  0  0
 15 16  1  0  0  0  0
 16 17  2  0  0  0  0
 16 36  1  0  0  0  0
 17 18  1  0  0  0  0
 17 37  1  0  0  0  0
 18 19  2  0  0  0  0
 18 38  1  0  0  0  0
M  END
> <s_m_source_file>
AV-unprocessed.smi

> <i_m_source_file_index>
3330

> <i_lp_mmshare_version>
43012

> <i_f3d_flags>
0

> <s_epik_input>
bjFbY0hdW2NIXVtjSF1uMVtDQEBIXShbQ0gzXSlbQ0BIXShbQ0gzXSlbTkhdW0NIMl1bQ0gyXU4yQyg9TylbQ0gyXVtOSF1DMj1P

> <s_epik_cmdline>
J2VwaWtfcHl0aG9uJywgJy1waCcsICc3LjAnLCAnLXRuJywgJzgnLCAnLW1hJywgJzIwMCcsICctbWV0YWxfYmluZGluZycsICctaW1hZScsICc8aW5maWxlLm1hZT4nLCAnLW9tYWUnLCAnPG91dGZpbGUubWFlPic=

> <r_lp_tautomer_probability>
1

> <r_epik_Ionization_Penalty>
2.2997

> <r_epik_Ionization_Penalty_Charging>
0

> <r_epik_Ionization_Penalty_Neutral>
2.2997

> <r_epik_State_Penalty>
2.44917

> <r_epik_Charging_Adjusted_Penalty>
2.44917

> <i_epik_Tot_Q>
0

> <i_epik_Tot_abs_Q>
0

> <r_epik_Metal_State_Penalty>
2.52438

> <b_epik_Metal_Only>
0

> <s_lp_Force_Field>
OPLS_2005

> <r_lp_Energy>
29.8527

> <b_lp_Chiralities_Consistent>
1

> <s_lp_Variant>
AV-unprocessed.smi:3330-6

> <Gold.Version>
5.8.1

> <Gold.Id.Protein>
6NUR|6NUR_protein|mol2

> <Gold.PLP.Fitness>
46.5622

> <Gold.PLP.PLP>
-43.0489

> <Gold.PLP.part.hbond>
-2.6115

> <Gold.PLP.part.metal>
0.0000

> <Gold.PLP.part.buried>
-4.0443

> <Gold.PLP.part.nonpolar>
-34.9742

> <Gold.PLP.part.repulsive>
0.3328

> <Gold.PLP.ligand.clash>
0.0000

> <Gold.PLP.ligand.torsion>
1.0318

> <Gold.PLP.Chemscore.Hbond>
1.0000

> <Gold.PLP.Chemscore.CHOScore>
0.8115

> <Gold.PLP.Chemscore.Metal>
0.0000

> <Gold.Chemscore.Hbonds>
donor molecule, donor type, donor heavy atom, donor atom, acceptor molecule, acceptor atom, score
      P1  H  7989  7998       L1     8  1.00
      L1  C    18    38       P1  8029  0.86

> <Gold.PLP.Chemscore.Internal.Correction>
0.1422

> <Gold.Rescore>
     Score         DG    S(hbond)    S(metal)    S(lipo)     H(rot)  DE(clash)    DE(int)     intcor
     10.52     -13.01       0.98        0.00      93.02       2.60       0.07       2.42       ----

> <Gold.Chemscore.Fitness>
10.5179

> <Gold.Chemscore.DG>
-13.0073

> <Gold.Chemscore.ZeroCoef>
-5.4800

> <Gold.Chemscore.Hbond>
0.9842

> <Gold.Chemscore.Metal>
0.0000

> <Gold.Chemscore.Lipo>
93.0246

> <Gold.Chemscore.Internal_Hbond>
0.0000

> <Gold.Chemscore.DEClash>
0.0727

> <Gold.Chemscore.DEInternal>
2.4167

> <Gold.Chemscore.Rot>
2.5952

> <Gold.Chemscore.Internal.Correction>
   9.000000E+99

> <Gold.Chemscore.Hbonds>
donor molecule, donor type, donor heavy atom, donor atom, acceptor molecule, acceptor atom, score
      P1  H  7989  7998       L1     8  0.49

> <Gold.Chemscore.Hbond.Weighted>
-3.2871

> <Gold.Chemscore.Metal.Weighted>
-0.0000

> <Gold.Chemscore.Lipo.Weighted>
-10.8839

> <Gold.Chemscore.Internal_Hbond.Weighted>
0.0000

> <Gold.Chemscore.DEClash.Weighted>
0.0727

> <Gold.Chemscore.DEInternal.Weighted>
2.4167

> <Gold.Chemscore.Rot.Weighted>
6.6437

> <Gold.Chemscore.Internal.Correction.Weighted>
   9.000000E+99

> <Gold.Protein.RotatedTorsions>
[ 6907 6896 6895 6894 ] final  143.02 input  -60.11 | X-H torsion
[ 7974 7965 7964 7962 ] final  169.35 input  175.53 | X-H torsion
[ 8008 7997 7996 7995 ] final  100.09 input   59.86 | X-H torsion
[ 10167 10162 10161 10158 ] final -135.99 input  -65.29 | X-H torsion
[ 10718 10713 10712 10709 ] final   81.86 input   66.30 | X-H torsion
[ 10763 10752 10751 10750 ] final -153.51 input  -60.55 | X-H torsion
[ 11005 11000 10999 10996 ] final -174.21 input  -57.11 | X-H torsion

> <Gold.Protein.ActiveResidues>
 VAL166  LYS551  ARG553  GLY616  TRP617  ASP618  TYR619  PRO620  LYS621  CYS622 
 ASP623  PHE694  ASN695  SER759  ASP760  ASP761  ALA762  ILE779  LEU786  VAL792 
 PHE793  MET794  SER795  GLU796  ALA797  LYS798  CYS799  TRP800  GLU811  SER814 

> <Gold.Protein.RotatedAtoms>
  152.2115  133.4914  159.5112 H   0  0  0  0  0  0  0  0  0  0  0  0  # atno 6907 bound_to 6896
  150.6991  134.1461  159.4132 H   0  0  0  0  0  0  0  0  0  0  0  0  # atno 6908 bound_to 6896
  151.9380  135.0226  160.0584 H   0  0  0  0  0  0  0  0  0  0  0  0  # atno 6909 bound_to 6896
  144.7358  139.9042  143.6411 H   0  0  0  0  0  0  0  0  0  0  0  0  # atno 7974 bound_to 7965
  156.1169  140.3218  155.8152 H   0  0  0  0  0  0  0  0  0  0  0  0  # atno 8008 bound_to 7997
  155.4573  140.0537  157.3012 H   0  0  0  0  0  0  0  0  0  0  0  0  # atno 8009 bound_to 7997
  154.4799  140.2048  155.9802 H   0  0  0  0  0  0  0  0  0  0  0  0  # atno 8010 bound_to 7997
  139.8723  143.6941  152.2638 H   0  0  0  0  0  0  0  0  0  0  0  0  # atno 10167 bound_to 10162
  157.6843  131.0022  150.2289 H   0  0  0  0  0  0  0  0  0  0  0  0  # atno 10718 bound_to 10713
  154.7923  135.3211  154.7749 H   0  0  0  0  0  0  0  0  0  0  0  0  # atno 10763 bound_to 10752
  153.8435  135.6869  153.4804 H   0  0  0  0  0  0  0  0  0  0  0  0  # atno 10764 bound_to 10752
  153.1598  135.4665  154.9697 H   0  0  0  0  0  0  0  0  0  0  0  0  # atno 10765 bound_to 10752
  140.4770  134.6111  157.4905 H   0  0  0  0  0  0  0  0  0  0  0  0  # atno 11005 bound_to 11000
  146.1049  139.4048  143.0324 LP  0  0  0  0  0  0  0  0  0  0  0  0  # atno 17320 bound_to 7965
  145.7526  140.9966  143.1242 LP  0  0  0  0  0  0  0  0  0  0  0  0  # atno 17321 bound_to 7965
  139.7272  144.7590  151.0860 LP  0  0  0  0  0  0  0  0  0  0  0  0  # atno 17342 bound_to 10162
  140.7758  143.5133  150.9625 LP  0  0  0  0  0  0  0  0  0  0  0  0  # atno 17343 bound_to 10162
  156.2925  130.3747  149.7827 LP  0  0  0  0  0  0  0  0  0  0  0  0  # atno 17370 bound_to 10713
  156.5482  130.8330  151.3291 LP  0  0  0  0  0  0  0  0  0  0  0  0  # atno 17371 bound_to 10713
  139.9849  134.7077  155.9791 LP  0  0  0  0  0  0  0  0  0  0  0  0  # atno 17394 bound_to 11000
  141.1549  133.6544  156.4130 LP  0  0  0  0  0  0  0  0  0  0  0  0  # atno 17395 bound_to 11000

$$$$
