AV-unprocessed.smi:1509|AV-procd|sdf|6091|dock5
  -GOLD-   22720 6213D 1   1.00000     0.00000
 Structure written by MMmdl.
 42 43  0  0  0  0  0  0  0  0  2 V2000
  149.8516  144.5645  159.3060 C   0  0  0  0  0  0  0  0  0  0  0  0
  151.3706  144.7996  159.2345 C   0  0  1  0  0  0  0  0  0  0  0  0
  152.0037  145.0355  160.6181 C   0  0  0  0  0  0  0  0  0  0  0  0
  152.0962  143.7283  161.4173 C   0  0  0  0  0  0  0  0  0  0  0  0
  152.8152  142.6373  160.6084 C   0  0  0  0  0  0  0  0  0  0  0  0
  152.1527  142.4134  159.2974 N   0  3  2  0  0  0  0  0  0  0  0  0
  152.7418  141.2655  158.5622 C   0  0  0  0  0  0  0  0  0  0  0  0
  152.0961  139.9232  158.9467 C   0  0  0  0  0  0  0  0  0  0  0  0
  152.4522  138.8044  157.9534 C   0  0  0  0  0  0  0  0  0  0  0  0
  151.5597  138.7981  156.8002 N   0  0  0  0  0  0  0  0  0  0  0  0
  151.9285  139.0810  155.5407 C   0  0  0  0  0  0  0  0  0  0  0  0
  153.0727  139.4106  155.2290 O   0  0  0  0  0  0  0  0  0  0  0  0
  150.8437  138.9782  154.4679 C   0  0  0  0  0  0  0  0  0  0  0  0
  149.7604  139.9073  154.7291 N   0  0  0  0  0  0  0  0  0  0  0  0
  148.9009  139.9894  155.7469 C   0  0  0  0  0  0  0  0  0  0  0  0
  148.0513  140.9928  155.5902 N   0  0  0  0  0  0  0  0  0  0  0  0
  148.4401  141.5482  154.3826 N   0  0  0  0  0  0  0  0  0  0  0  0
  149.4536  140.9084  153.8670 N   0  0  0  0  0  0  0  0  0  0  0  0
  152.1027  143.6634  158.4901 C   0  0  0  0  0  0  0  0  0  0  0  0
  149.6044  143.6521  159.8485 H   0  0  0  0  0  0  0  0  0  0  0  0
  149.4226  144.4788  158.3073 H   0  0  0  0  0  0  0  0  0  0  0  0
  149.3504  145.3936  159.8064 H   0  0  0  0  0  0  0  0  0  0  0  0
  151.5113  145.7128  158.6549 H   0  0  0  0  0  0  0  0  0  0  0  0
  153.0067  145.4443  160.4883 H   0  0  0  0  0  0  0  0  0  0  0  0
  151.4399  145.7835  161.1765 H   0  0  0  0  0  0  0  0  0  0  0  0
  152.6264  143.9052  162.3535 H   0  0  0  0  0  0  0  0  0  0  0  0
  151.0980  143.3866  161.6927 H   0  0  0  0  0  0  0  0  0  0  0  0
  153.8588  142.9128  160.4474 H   0  0  0  0  0  0  0  0  0  0  0  0
  152.8167  141.7117  161.1855 H   0  0  0  0  0  0  0  0  0  0  0  0
  152.6708  141.4372  157.4869 H   0  0  0  0  0  0  0  0  0  0  0  0
  153.8062  141.2008  158.7931 H   0  0  0  0  0  0  0  0  0  0  0  0
  152.4216  139.6365  159.9475 H   0  0  0  0  0  0  0  0  0  0  0  0
  151.0124  140.0267  158.9923 H   0  0  0  0  0  0  0  0  0  0  0  0
  153.4872  138.9031  157.6213 H   0  0  0  0  0  0  0  0  0  0  0  0
  152.3762  137.8331  158.4430 H   0  0  0  0  0  0  0  0  0  0  0  0
  150.5978  138.5400  156.9684 H   0  0  0  0  0  0  0  0  0  0  0  0
  151.2653  139.1919  153.4849 H   0  0  0  0  0  0  0  0  0  0  0  0
  150.4443  137.9633  154.4336 H   0  0  0  0  0  0  0  0  0  0  0  0
  148.8954  139.3184  156.5933 H   0  0  0  0  0  0  0  0  0  0  0  0
  151.6099  143.4863  157.5348 H   0  0  0  0  0  0  0  0  0  0  0  0
  153.1223  143.9746  158.2564 H   0  0  0  0  0  0  0  0  0  0  0  0
  151.1977  142.1598  159.5067 H   0  0  0  0  0  0  0  0  0  0  0  0
  1  2  1  0  0  0  0
  1 20  1  0  0  0  0
  1 21  1  0  0  0  0
  1 22  1  0  0  0  0
  2 19  1  0  0  0  0
  2  3  1  0  0  0  0
  2 23  1  0  0  0  0
  3  4  1  0  0  0  0
  3 24  1  0  0  0  0
  3 25  1  0  0  0  0
  4  5  1  0  0  0  0
  4 26  1  0  0  0  0
  4 27  1  0  0  0  0
  5  6  1  0  0  0  0
  5 28  1  0  0  0  0
  5 29  1  0  0  0  0
  6  7  1  0  0  0  0
  6 19  1  0  0  0  0
  6 42  1  0  0  0  0
  7  8  1  0  0  0  0
  7 30  1  0  0  0  0
  7 31  1  0  0  0  0
  8  9  1  0  0  0  0
  8 32  1  0  0  0  0
  8 33  1  0  0  0  0
  9 10  1  0  0  0  0
  9 34  1  0  0  0  0
  9 35  1  0  0  0  0
 10 11  1  0  0  0  0
 10 36  1  0  0  0  0
 11 12  2  0  0  0  0
 11 13  1  0  0  0  0
 13 14  1  0  0  0  0
 13 37  1  0  0  0  0
 13 38  1  0  0  0  0
 14 18  1  0  0  0  0
 14 15  1  0  0  0  0
 15 16  2  0  0  0  0
 15 39  1  0  0  0  0
 16 17  1  0  0  0  0
 17 18  2  0  0  0  0
 19 40  1  0  0  0  0
 19 41  1  0  0  0  0
M  CHG  1   6   1
M  END
> <s_m_source_file>
AV-unprocessed.smi

> <i_m_source_file_index>
1509

> <i_lp_mmshare_version>
43012

> <i_f3d_flags>
0

> <s_epik_input>
W0NIM11bQ0BASF0xW0NIMl1bQ0gyXVtDSDJdTihbQ0gyXTEpW0NIMl1bQ0gyXVtDSDJdW05IXUMoPU8pW0NIMl1uMltjSF1ubm4y

> <s_epik_cmdline>
J2VwaWtfcHl0aG9uJywgJy1waCcsICc3LjAnLCAnLXRuJywgJzgnLCAnLW1hJywgJzIwMCcsICctbWV0YWxfYmluZGluZycsICctaW1hZScsICc8aW5maWxlLm1hZT4nLCAnLW9tYWUnLCAnPG91dGZpbGUubWFlPic=

> <r_lp_tautomer_probability>
1

> <r_epik_Ionization_Penalty>
0.00044216

> <r_epik_Ionization_Penalty_Charging>
0.000440775

> <r_epik_Ionization_Penalty_Neutral>
1.38512e-06

> <r_epik_State_Penalty>
0.000271914

> <r_epik_Charging_Adjusted_Penalty>
0.000712689

> <i_epik_Tot_Q>
1

> <i_epik_Tot_abs_Q>
1

> <r_epik_Metal_State_Penalty>
-0

> <b_epik_Metal_Only>
0

> <s_lp_Force_Field>
OPLS_2005

> <r_lp_Energy>
22.736

> <b_lp_Chiralities_Consistent>
1

> <s_lp_Variant>
AV-unprocessed.smi:1509-2

> <Gold.Version>
5.8.1

> <Gold.Id.Protein>
6NUR|6NUR_protein|mol2

> <Gold.PLP.Fitness>
43.5046

> <Gold.PLP.PLP>
-39.1540

> <Gold.PLP.part.hbond>
-3.9377

> <Gold.PLP.part.metal>
0.0000

> <Gold.PLP.part.buried>
-5.4122

> <Gold.PLP.part.nonpolar>
-30.3344

> <Gold.PLP.part.repulsive>
1.6796

> <Gold.PLP.ligand.clash>
0.0000

> <Gold.PLP.ligand.torsion>
0.6032

> <Gold.PLP.Chemscore.Hbond>
1.8320

> <Gold.PLP.Chemscore.CHOScore>
0.0000

> <Gold.PLP.Chemscore.Metal>
0.0000

> <Gold.Chemscore.Hbonds>
donor molecule, donor type, donor heavy atom, donor atom, acceptor molecule, acceptor atom, score
      P1  H  7989  7998       L1    18  0.05
      P1  H  7997  8009       L1    12  1.00
      P1  H  8011  8017       L1    18  0.43

> <Gold.PLP.Chemscore.Internal.Correction>
0.0610

> <Gold.Rescore>
     Score         DG    S(hbond)    S(metal)    S(lipo)     H(rot)  DE(clash)    DE(int)     intcor
     13.28     -14.36       1.61        0.00      94.93       2.97       0.21       0.87       ----

> <Gold.Chemscore.Fitness>
13.2784

> <Gold.Chemscore.DG>
-14.3554

> <Gold.Chemscore.ZeroCoef>
-5.4800

> <Gold.Chemscore.Hbond>
1.6066

> <Gold.Chemscore.Metal>
0.0000

> <Gold.Chemscore.Lipo>
94.9342

> <Gold.Chemscore.Internal_Hbond>
0.0000

> <Gold.Chemscore.DEClash>
0.2073

> <Gold.Chemscore.DEInternal>
0.8697

> <Gold.Chemscore.Rot>
2.9680

> <Gold.Chemscore.Internal.Correction>
   9.000000E+99

> <Gold.Chemscore.Hbonds>
donor molecule, donor type, donor heavy atom, donor atom, acceptor molecule, acceptor atom, score
      P1  H  7997  8009       L1    12  1.00
      P1  H  8011  8017       L1    18  0.04

> <Gold.Chemscore.Hbond.Weighted>
-5.3661

> <Gold.Chemscore.Metal.Weighted>
-0.0000

> <Gold.Chemscore.Lipo.Weighted>
-11.1073

> <Gold.Chemscore.Internal_Hbond.Weighted>
0.0000

> <Gold.Chemscore.DEClash.Weighted>
0.2073

> <Gold.Chemscore.DEInternal.Weighted>
0.8697

> <Gold.Chemscore.Rot.Weighted>
7.5980

> <Gold.Chemscore.Internal.Correction.Weighted>
   9.000000E+99

> <Gold.Protein.RotatedTorsions>
[ 6907 6896 6895 6894 ] final  145.42 input  -60.11 | X-H torsion
[ 7974 7965 7964 7962 ] final -146.27 input  175.53 | X-H torsion
[ 8008 7997 7996 7995 ] final -134.87 input   59.86 | X-H torsion
[ 10167 10162 10161 10158 ] final  -95.79 input  -65.29 | X-H torsion
[ 10718 10713 10712 10709 ] final  174.71 input   66.30 | X-H torsion
[ 10763 10752 10751 10750 ] final  -32.19 input  -60.55 | X-H torsion
[ 11005 11000 10999 10996 ] final  140.56 input  -57.11 | X-H torsion

> <Gold.Protein.ActiveResidues>
 VAL166  LYS551  ARG553  GLY616  TRP617  ASP618  TYR619  PRO620  LYS621  CYS622 
 ASP623  PHE694  ASN695  SER759  ASP760  ASP761  ALA762  ILE779  LEU786  VAL792 
 PHE793  MET794  SER795  GLU796  ALA797  LYS798  CYS799  TRP800  GLU811  SER814 

> <Gold.Protein.RotatedAtoms>
  152.1810  133.4707  159.4958 H   0  0  0  0  0  0  0  0  0  0  0  0  # atno 6907 bound_to 6896
  150.6934  134.1833  159.4266 H   0  0  0  0  0  0  0  0  0  0  0  0  # atno 6908 bound_to 6896
  151.9744  135.0060  160.0605 H   0  0  0  0  0  0  0  0  0  0  0  0  # atno 6909 bound_to 6896
  144.8171  140.5477  143.5603 H   0  0  0  0  0  0  0  0  0  0  0  0  # atno 7974 bound_to 7965
  155.3692  140.0487  157.3045 H   0  0  0  0  0  0  0  0  0  0  0  0  # atno 8008 bound_to 7997
  154.5138  140.2201  155.9067 H   0  0  0  0  0  0  0  0  0  0  0  0  # atno 8009 bound_to 7997
  156.1613  140.3115  155.8818 H   0  0  0  0  0  0  0  0  0  0  0  0  # atno 8010 bound_to 7997
  140.3005  143.3165  152.0253 H   0  0  0  0  0  0  0  0  0  0  0  0  # atno 10167 bound_to 10162
  156.9455  131.0015  151.2959 H   0  0  0  0  0  0  0  0  0  0  0  0  # atno 10718 bound_to 10713
  153.8097  135.6883  153.4843 H   0  0  0  0  0  0  0  0  0  0  0  0  # atno 10763 bound_to 10752
  153.1636  135.4570  154.9804 H   0  0  0  0  0  0  0  0  0  0  0  0  # atno 10764 bound_to 10752
  154.7972  135.3324  154.7579 H   0  0  0  0  0  0  0  0  0  0  0  0  # atno 10765 bound_to 10752
  140.0336  134.9340  157.0710 H   0  0  0  0  0  0  0  0  0  0  0  0  # atno 11005 bound_to 11000
  145.5190  139.1477  143.3563 LP  0  0  0  0  0  0  0  0  0  0  0  0  # atno 17320 bound_to 7965
  146.2474  140.5331  142.8908 LP  0  0  0  0  0  0  0  0  0  0  0  0  # atno 17321 bound_to 7965
  139.4916  144.6459  151.6779 LP  0  0  0  0  0  0  0  0  0  0  0  0  # atno 17342 bound_to 10162
  140.5655  144.0197  150.6190 LP  0  0  0  0  0  0  0  0  0  0  0  0  # atno 17343 bound_to 10162
  157.5756  130.8341  149.8451 LP  0  0  0  0  0  0  0  0  0  0  0  0  # atno 17370 bound_to 10713
  156.0385  130.3745  150.1496 LP  0  0  0  0  0  0  0  0  0  0  0  0  # atno 17371 bound_to 10713
  140.4184  134.1907  155.7164 LP  0  0  0  0  0  0  0  0  0  0  0  0  # atno 17394 bound_to 11000
  141.1845  133.8343  157.1138 LP  0  0  0  0  0  0  0  0  0  0  0  0  # atno 17395 bound_to 11000

$$$$
