AV-unprocessed.smi:484|AV-procd|sdf|2690|dock3
  -GOLD-   2262023123D 1   1.00000     0.00000
 Structure written by MMmdl.
 47 49  0  0  0  0  0  0  0  0  2 V2000
  151.2451  129.6849  154.4550 C   0  0  0  0  0  0  0  0  0  0  0  0
  149.8972  130.3886  154.6474 C   0  0  0  0  0  0  0  0  0  0  0  0
  150.0528  131.8856  154.8352 C   0  0  0  0  0  0  0  0  0  0  0  0
  149.3757  132.7828  153.9854 C   0  0  0  0  0  0  0  0  0  0  0  0
  149.5199  134.1718  154.1652 C   0  0  0  0  0  0  0  0  0  0  0  0
  150.3387  134.6861  155.1911 C   0  0  0  0  0  0  0  0  0  0  0  0
  150.4291  136.0578  155.2888 O   0  0  0  0  0  0  0  0  0  0  0  0
  151.3002  136.6076  156.2678 C   0  0  0  0  0  0  0  0  0  0  0  0
  151.3715  138.1305  156.0685 C   0  0  1  0  0  0  0  0  0  0  0  0
  151.4073  138.3888  154.6800 O   0  0  0  0  0  0  0  0  0  0  0  0
  150.2182  138.9228  156.7306 C   0  0  0  0  0  0  0  0  0  0  0  0
  150.4104  140.3867  156.7538 N   0  0  0  0  0  0  0  0  0  0  0  0
  149.8735  141.3697  155.9688 C   0  0  0  0  0  0  0  0  0  0  0  0
  148.9178  141.2104  154.8289 C   0  0  0  0  0  0  0  0  0  0  0  0
  149.5478  141.3046  153.5696 O   0  0  0  0  0  0  0  0  0  0  0  0
  150.3788  142.5568  156.4088 N   0  3  0  0  0  0  0  0  0  0  0  0
  151.2285  142.3406  157.4920 C   0  0  0  0  0  0  0  0  0  0  0  0
  151.9593  143.2360  158.2671 C   0  0  0  0  0  0  0  0  0  0  0  0
  152.7294  142.6861  159.3123 C   0  0  0  0  0  0  0  0  0  0  0  0
  152.7512  141.2975  159.5545 C   0  0  0  0  0  0  0  0  0  0  0  0
  152.0056  140.4005  158.7612 C   0  0  0  0  0  0  0  0  0  0  0  0
  151.2492  140.9504  157.7256 C   0  0  0  0  0  0  0  0  0  0  0  0
  151.0155  133.7788  156.0447 C   0  0  0  0  0  0  0  0  0  0  0  0
  150.8717  132.3893  155.8655 C   0  0  0  0  0  0  0  0  0  0  0  0
  151.1074  128.6114  154.3235 H   0  0  0  0  0  0  0  0  0  0  0  0
  151.8945  129.8344  155.3181 H   0  0  0  0  0  0  0  0  0  0  0  0
  151.7651  130.0637  153.5744 H   0  0  0  0  0  0  0  0  0  0  0  0
  149.2555  130.2010  153.7856 H   0  0  0  0  0  0  0  0  0  0  0  0
  149.3804  129.9682  155.5111 H   0  0  0  0  0  0  0  0  0  0  0  0
  148.7425  132.4093  153.1938 H   0  0  0  0  0  0  0  0  0  0  0  0
  148.9972  134.8501  153.5069 H   0  0  0  0  0  0  0  0  0  0  0  0
  150.9041  136.3883  157.2610 H   0  0  0  0  0  0  0  0  0  0  0  0
  152.2956  136.1660  156.2033 H   0  0  0  0  0  0  0  0  0  0  0  0
  152.3163  138.4880  156.4792 H   0  0  0  0  0  0  0  0  0  0  0  0
  150.5349  138.2835  154.3327 H   0  0  0  0  0  0  0  0  0  0  0  0
  149.2876  138.7237  156.1999 H   0  0  0  0  0  0  0  0  0  0  0  0
  150.0463  138.5744  157.7493 H   0  0  0  0  0  0  0  0  0  0  0  0
  148.4341  140.2367  154.9059 H   0  0  0  0  0  0  0  0  0  0  0  0
  148.1366  141.9678  154.8807 H   0  0  0  0  0  0  0  0  0  0  0  0
  149.2630  140.5774  153.0367 H   0  0  0  0  0  0  0  0  0  0  0  0
  151.9412  144.3005  158.0845 H   0  0  0  0  0  0  0  0  0  0  0  0
  153.3136  143.3421  159.9417 H   0  0  0  0  0  0  0  0  0  0  0  0
  153.3523  140.9120  160.3652 H   0  0  0  0  0  0  0  0  0  0  0  0
  152.0325  139.3392  158.9577 H   0  0  0  0  0  0  0  0  0  0  0  0
  151.6508  134.1230  156.8464 H   0  0  0  0  0  0  0  0  0  0  0  0
  151.3917  131.7094  156.5246 H   0  0  0  0  0  0  0  0  0  0  0  0
  150.1448  143.4514  155.9976 H   0  0  0  0  0  0  0  0  0  0  0  0
  1  2  1  0  0  0  0
  1 25  1  0  0  0  0
  1 26  1  0  0  0  0
  1 27  1  0  0  0  0
  2  3  1  0  0  0  0
  2 28  1  0  0  0  0
  2 29  1  0  0  0  0
  3 24  1  0  0  0  0
  3  4  2  0  0  0  0
  4  5  1  0  0  0  0
  4 30  1  0  0  0  0
  5  6  2  0  0  0  0
  5 31  1  0  0  0  0
  6  7  1  0  0  0  0
  6 23  1  0  0  0  0
  7  8  1  0  0  0  0
  8  9  1  0  0  0  0
  8 32  1  0  0  0  0
  8 33  1  0  0  0  0
  9 10  1  0  0  0  0
  9 11  1  0  0  0  0
  9 34  1  0  0  0  0
 10 35  1  0  0  0  0
 11 12  1  0  0  0  0
 11 36  1  0  0  0  0
 11 37  1  0  0  0  0
 12 22  1  0  0  0  0
 12 13  1  0  0  0  0
 13 14  1  0  0  0  0
 13 16  2  0  0  0  0
 14 15  1  0  0  0  0
 14 38  1  0  0  0  0
 14 39  1  0  0  0  0
 15 40  1  0  0  0  0
 16 17  1  0  0  0  0
 16 47  1  0  0  0  0
 17 22  2  0  0  0  0
 17 18  1  0  0  0  0
 18 19  2  0  0  0  0
 18 41  1  0  0  0  0
 19 20  1  0  0  0  0
 19 42  1  0  0  0  0
 20 21  2  0  0  0  0
 20 43  1  0  0  0  0
 21 22  1  0  0  0  0
 21 44  1  0  0  0  0
 23 24  2  0  0  0  0
 23 45  1  0  0  0  0
 24 46  1  0  0  0  0
M  CHG  1  16   1
M  END
> <s_m_source_file>
AV-unprocessed.smi

> <i_m_source_file_index>
484

> <i_lp_mmshare_version>
43012

> <i_f3d_flags>
0

> <s_epik_input>
W0NIM11bQ0gyXWMxW2NIXVtjSF1jKFtjSF1bY0hdMSlPW0NIMl1bQ0BIXShbT0hdKVtDSDJdbihjKG4yKVtDSDJdW09IXSljKGMyMylbY0hdW2NIXVtjSF1bY0hdMw==

> <s_epik_cmdline>
J2VwaWtfcHl0aG9uJywgJy1waCcsICc3LjAnLCAnLXRuJywgJzgnLCAnLW1hJywgJzIwMCcsICctbWV0YWxfYmluZGluZycsICctaW1hZScsICc8aW5maWxlLm1hZT4nLCAnLW9tYWUnLCAnPG91dGZpbGUubWFlPic=

> <r_lp_tautomer_probability>
1

> <r_epik_Ionization_Penalty>
1.43166

> <r_epik_Ionization_Penalty_Charging>
1.43081

> <r_epik_Ionization_Penalty_Neutral>
0.000858184

> <r_epik_State_Penalty>
1.51538

> <r_epik_Charging_Adjusted_Penalty>
2.94618

> <i_epik_Tot_Q>
1

> <i_epik_Tot_abs_Q>
1

> <r_epik_Metal_State_Penalty>
5.56039

> <b_epik_Metal_Only>
0

> <s_lp_Force_Field>
OPLS_2005

> <r_lp_Energy>
17.0937

> <b_lp_Chiralities_Consistent>
1

> <s_lp_Variant>
AV-unprocessed.smi:484-4

> <Gold.Version>
5.8.1

> <Gold.Id.Protein>
6NUR|6NUR_protein|mol2

> <Gold.PLP.Fitness>
56.3548

> <Gold.PLP.PLP>
-46.5552

> <Gold.PLP.part.hbond>
-4.0000

> <Gold.PLP.part.metal>
0.0000

> <Gold.PLP.part.buried>
-6.3430

> <Gold.PLP.part.nonpolar>
-36.4023

> <Gold.PLP.part.repulsive>
0.2147

> <Gold.PLP.ligand.clash>
0.0000

> <Gold.PLP.ligand.torsion>
0.8121

> <Gold.PLP.Chemscore.Hbond>
3.7129

> <Gold.PLP.Chemscore.CHOScore>
0.0000

> <Gold.PLP.Chemscore.Metal>
0.0000

> <Gold.Chemscore.Hbonds>
donor molecule, donor type, donor heavy atom, donor atom, acceptor molecule, acceptor atom, score
      L1  H    15    40       P1  7957  0.66
      L1  H    16    47       P1  8028  1.98
      P1  H  7989  7998       L1    15  0.12
      P1  H  8011  8017       L1    15  0.84

> <Gold.PLP.Chemscore.Internal.Correction>
0.2851

> <Gold.Rescore>
     Score         DG    S(hbond)    S(metal)    S(lipo)     H(rot)  DE(clash)    DE(int)     intcor
     17.69     -18.59       2.31        0.00     115.56       3.18       0.05       0.84       ----

> <Gold.Chemscore.Fitness>
17.6882

> <Gold.Chemscore.DG>
-18.5868

> <Gold.Chemscore.ZeroCoef>
-5.4800

> <Gold.Chemscore.Hbond>
2.3135

> <Gold.Chemscore.Metal>
0.0000

> <Gold.Chemscore.Lipo>
115.5608

> <Gold.Chemscore.Internal_Hbond>
0.0000

> <Gold.Chemscore.DEClash>
0.0545

> <Gold.Chemscore.DEInternal>
0.8441

> <Gold.Chemscore.Rot>
3.1801

> <Gold.Chemscore.Internal.Correction>
   9.000000E+99

> <Gold.Chemscore.Hbonds>
donor molecule, donor type, donor heavy atom, donor atom, acceptor molecule, acceptor atom, score
      L1  H    15    40       P1  7957  0.65
      L1  H    16    47       P1  8028  0.93
      P1  H  7989  7998       L1    15  0.02
      P1  H  8011  8017       L1    15  0.16

> <Gold.Chemscore.Hbond.Weighted>
-7.7272

> <Gold.Chemscore.Metal.Weighted>
-0.0000

> <Gold.Chemscore.Lipo.Weighted>
-13.5206

> <Gold.Chemscore.Internal_Hbond.Weighted>
0.0000

> <Gold.Chemscore.DEClash.Weighted>
0.0545

> <Gold.Chemscore.DEInternal.Weighted>
0.8441

> <Gold.Chemscore.Rot.Weighted>
8.1410

> <Gold.Chemscore.Internal.Correction.Weighted>
   9.000000E+99

> <Gold.Protein.RotatedTorsions>
[ 6907 6896 6895 6894 ] final   37.81 input  -60.11 | X-H torsion
[ 7974 7965 7964 7962 ] final  -84.11 input  175.53 | X-H torsion
[ 8008 7997 7996 7995 ] final -114.82 input   59.86 | X-H torsion
[ 10167 10162 10161 10158 ] final  -50.58 input  -65.29 | X-H torsion
[ 10718 10713 10712 10709 ] final  -58.25 input   66.30 | X-H torsion
[ 10763 10752 10751 10750 ] final  -68.39 input  -60.55 | X-H torsion
[ 11005 11000 10999 10996 ] final  156.10 input  -57.11 | X-H torsion

> <Gold.Protein.ActiveResidues>
 VAL166  LYS551  ARG553  GLY616  TRP617  ASP618  TYR619  PRO620  LYS621  CYS622 
 ASP623  PHE694  ASN695  SER759  ASP760  ASP761  ALA762  ILE779  LEU786  VAL792 
 PHE793  MET794  SER795  GLU796  ALA797  LYS798  CYS799  TRP800  GLU811  SER814 

> <Gold.Protein.RotatedAtoms>
  152.1481  134.9010  160.0549 H   0  0  0  0  0  0  0  0  0  0  0  0  # atno 6907 bound_to 6896
  152.0052  133.3835  159.4206 H   0  0  0  0  0  0  0  0  0  0  0  0  # atno 6908 bound_to 6896
  150.6872  134.3712  159.5036 H   0  0  0  0  0  0  0  0  0  0  0  0  # atno 6909 bound_to 6896
  145.5110  140.9540  143.1707 H   0  0  0  0  0  0  0  0  0  0  0  0  # atno 7974 bound_to 7965
  155.0423  140.0392  157.2514 H   0  0  0  0  0  0  0  0  0  0  0  0  # atno 8008 bound_to 7997
  154.7206  140.2711  155.6521 H   0  0  0  0  0  0  0  0  0  0  0  0  # atno 8009 bound_to 7997
  156.2815  140.2703  156.1877 H   0  0  0  0  0  0  0  0  0  0  0  0  # atno 8010 bound_to 7997
  140.6631  143.2652  151.4379 H   0  0  0  0  0  0  0  0  0  0  0  0  # atno 10167 bound_to 10162
  156.1149  130.4171  150.0552 H   0  0  0  0  0  0  0  0  0  0  0  0  # atno 10718 bound_to 10713
  154.3884  135.6058  153.5829 H   0  0  0  0  0  0  0  0  0  0  0  0  # atno 10763 bound_to 10752
  152.9787  135.5877  154.4327 H   0  0  0  0  0  0  0  0  0  0  0  0  # atno 10764 bound_to 10752
  154.4107  135.2844  155.2016 H   0  0  0  0  0  0  0  0  0  0  0  0  # atno 10765 bound_to 10752
  140.1643  134.8588  157.2613 H   0  0  0  0  0  0  0  0  0  0  0  0  # atno 11005 bound_to 11000
  144.7727  139.6698  143.7188 LP  0  0  0  0  0  0  0  0  0  0  0  0  # atno 17320 bound_to 7965
  146.2166  139.5561  142.9646 LP  0  0  0  0  0  0  0  0  0  0  0  0  # atno 17321 bound_to 7965
  139.5870  144.1582  152.2042 LP  0  0  0  0  0  0  0  0  0  0  0  0  # atno 17342 bound_to 10162
  140.0925  144.5609  150.7045 LP  0  0  0  0  0  0  0  0  0  0  0  0  # atno 17343 bound_to 10162
  156.8506  130.9457  151.3626 LP  0  0  0  0  0  0  0  0  0  0  0  0  # atno 17370 bound_to 10713
  157.6332  130.8745  149.9311 LP  0  0  0  0  0  0  0  0  0  0  0  0  # atno 17371 bound_to 10713
  140.2453  134.3748  155.7464 LP  0  0  0  0  0  0  0  0  0  0  0  0  # atno 17394 bound_to 11000
  141.2212  133.7287  156.8851 LP  0  0  0  0  0  0  0  0  0  0  0  0  # atno 17395 bound_to 11000

$$$$
