AV-unprocessed.smi:3303|AV-procd|sdf|12670|dock8
  -GOLD-   2272019 03D 1   1.00000     0.00000
 Structure written by MMmdl.
 45 46  0  0  0  0  0  0  0  0  3 V2000
  148.0895  141.6512  153.6471 C   0  0  0  0  0  0  0  0  0  0  0  0
  149.0494  140.6499  154.3137 C   0  0  1  0  0  0  0  0  0  0  0  0
  149.3457  139.4808  153.3448 C   0  0  0  0  0  0  0  0  0  0  0  0
  150.2880  138.4862  153.9193 N   0  3  2  0  0  0  0  0  0  0  0  0
  149.6564  137.6152  154.9433 C   0  0  0  0  0  0  0  0  0  0  0  0
  151.5750  139.1229  154.3218 C   0  0  2  0  0  0  0  0  0  0  0  0
  152.6178  138.1069  154.8189 C   0  0  0  0  0  0  0  0  0  0  0  0
  151.3410  140.2677  155.3285 C   0  0  0  0  0  0  0  0  0  0  0  0
  150.3652  141.3221  154.7736 C   0  0  2  0  0  0  0  0  0  0  0  0
  150.1033  142.3469  155.8103 N   0  3  0  0  0  0  0  0  0  0  0  0
  149.5710  141.8198  157.0830 C   0  0  0  0  0  0  0  0  0  0  0  0
  149.5109  142.9197  158.1514 C   0  0  0  0  0  0  0  0  0  0  0  0
  150.5652  142.7342  159.2256 C   0  0  0  0  0  0  0  0  0  0  0  0
  150.7181  143.6836  160.2583 C   0  0  0  0  0  0  0  0  0  0  0  0
  151.7167  143.4652  161.2271 C   0  0  0  0  0  0  0  0  0  0  0  0
  152.5198  142.3129  161.1251 C   0  0  0  0  0  0  0  0  0  0  0  0
  152.2882  141.4267  160.0542 C   0  0  0  0  0  0  0  0  0  0  0  0
  151.3342  141.6276  159.1189 N   0  0  0  0  0  0  0  0  0  0  0  0
  148.5448  142.1150  152.7714 H   0  0  0  0  0  0  0  0  0  0  0  0
  147.7984  142.4478  154.3319 H   0  0  0  0  0  0  0  0  0  0  0  0
  147.1738  141.1572  153.3210 H   0  0  0  0  0  0  0  0  0  0  0  0
  148.5420  140.2471  155.1916 H   0  0  0  0  0  0  0  0  0  0  0  0
  148.4207  138.9819  153.0522 H   0  0  0  0  0  0  0  0  0  0  0  0
  149.7813  139.8698  152.4229 H   0  0  0  0  0  0  0  0  0  0  0  0
  149.4343  138.1559  155.8628 H   0  0  0  0  0  0  0  0  0  0  0  0
  150.2960  136.7689  155.1922 H   0  0  0  0  0  0  0  0  0  0  0  0
  148.7214  137.2001  154.5655 H   0  0  0  0  0  0  0  0  0  0  0  0
  151.9892  139.5657  153.4143 H   0  0  0  0  0  0  0  0  0  0  0  0
  153.5892  138.5845  154.9503 H   0  0  0  0  0  0  0  0  0  0  0  0
  152.7490  137.2936  154.1043 H   0  0  0  0  0  0  0  0  0  0  0  0
  152.3416  137.6726  155.7801 H   0  0  0  0  0  0  0  0  0  0  0  0
  150.9644  139.8669  156.2706 H   0  0  0  0  0  0  0  0  0  0  0  0
  152.2930  140.7452  155.5644 H   0  0  0  0  0  0  0  0  0  0  0  0
  150.8348  141.7911  153.9064 H   0  0  0  0  0  0  0  0  0  0  0  0
  150.9682  142.8313  156.0045 H   0  0  0  0  0  0  0  0  0  0  0  0
  148.5760  141.4072  156.9093 H   0  0  0  0  0  0  0  0  0  0  0  0
  150.2056  141.0027  157.4289 H   0  0  0  0  0  0  0  0  0  0  0  0
  149.6416  143.8983  157.6876 H   0  0  0  0  0  0  0  0  0  0  0  0
  148.5267  142.9321  158.6224 H   0  0  0  0  0  0  0  0  0  0  0  0
  150.0875  144.5591  160.3104 H   0  0  0  0  0  0  0  0  0  0  0  0
  151.8651  144.1688  162.0329 H   0  0  0  0  0  0  0  0  0  0  0  0
  153.2947  142.1127  161.8502 H   0  0  0  0  0  0  0  0  0  0  0  0
  152.8858  140.5337  159.9452 H   0  0  0  0  0  0  0  0  0  0  0  0
  149.4396  143.0142  155.4429 H   0  0  0  0  0  0  0  0  0  0  0  0
  150.5177  137.8623  153.1583 H   0  0  0  0  0  0  0  0  0  0  0  0
  1  2  1  0  0  0  0
  1 19  1  0  0  0  0
  1 20  1  0  0  0  0
  1 21  1  0  0  0  0
  2  9  1  0  0  0  0
  2  3  1  0  0  0  0
  2 22  1  0  0  0  0
  3  4  1  0  0  0  0
  3 23  1  0  0  0  0
  3 24  1  0  0  0  0
  4  5  1  0  0  0  0
  4  6  1  0  0  0  0
  4 45  1  0  0  0  0
  5 25  1  0  0  0  0
  5 26  1  0  0  0  0
  5 27  1  0  0  0  0
  6  7  1  0  0  0  0
  6  8  1  0  0  0  0
  6 28  1  0  0  0  0
  7 29  1  0  0  0  0
  7 30  1  0  0  0  0
  7 31  1  0  0  0  0
  8  9  1  0  0  0  0
  8 32  1  0  0  0  0
  8 33  1  0  0  0  0
  9 10  1  0  0  0  0
  9 34  1  0  0  0  0
 10 11  1  0  0  0  0
 10 35  1  0  0  0  0
 10 44  1  0  0  0  0
 11 12  1  0  0  0  0
 11 36  1  0  0  0  0
 11 37  1  0  0  0  0
 12 13  1  0  0  0  0
 12 38  1  0  0  0  0
 12 39  1  0  0  0  0
 13 18  1  0  0  0  0
 13 14  2  0  0  0  0
 14 15  1  0  0  0  0
 14 40  1  0  0  0  0
 15 16  2  0  0  0  0
 15 41  1  0  0  0  0
 16 17  1  0  0  0  0
 16 42  1  0  0  0  0
 17 18  2  0  0  0  0
 17 43  1  0  0  0  0
M  CHG  1   4   1
M  CHG  1  10   1
M  END
> <s_m_source_file>
AV-unprocessed.smi

> <i_m_source_file_index>
3303

> <i_lp_mmshare_version>
43012

> <i_f3d_flags>
0

> <s_epik_input>
W0NIM11bQ0BASF0xW0NIMl1OKFtDSDNdKVtDQEBIXShbQ0gzXSlbQ0gyXVtDQEhdMVtOSF1bQ0gyXVtDSDJdYzJbY0hdW2NIXVtjSF1bY0hdbjI=

> <s_epik_cmdline>
J2VwaWtfcHl0aG9uJywgJy1waCcsICc3LjAnLCAnLXRuJywgJzgnLCAnLW1hJywgJzIwMCcsICctbWV0YWxfYmluZGluZycsICctaW1hZScsICc8aW5maWxlLm1hZT4nLCAnLW9tYWUnLCAnPG91dGZpbGUubWFlPic=

> <r_epik_Ionization_Penalty>
0.0769462

> <r_epik_Ionization_Penalty_Charging>
0.0759813

> <r_epik_Ionization_Penalty_Neutral>
0.000964829

> <r_epik_State_Penalty>
0.0654373

> <r_epik_Charging_Adjusted_Penalty>
0.141419

> <i_epik_Tot_Q>
2

> <i_epik_Tot_abs_Q>
2

> <r_epik_Metal_State_Penalty>
0.0656439

> <b_epik_Metal_Only>
0

> <s_lp_Force_Field>
OPLS_2005

> <r_lp_Energy>
31.8581

> <b_lp_Chiralities_Consistent>
1

> <s_lp_Variant>
AV-unprocessed.smi:3303-14

> <Gold.Version>
5.8.1

> <Gold.Id.Protein>
6NUR|6NUR_protein|mol2

> <Gold.PLP.Fitness>
49.6570

> <Gold.PLP.PLP>
-38.4022

> <Gold.PLP.part.hbond>
-2.0000

> <Gold.PLP.part.metal>
0.0000

> <Gold.PLP.part.buried>
-0.3949

> <Gold.PLP.part.nonpolar>
-34.9533

> <Gold.PLP.part.repulsive>
0.1726

> <Gold.PLP.ligand.clash>
0.0000

> <Gold.PLP.ligand.torsion>
0.3740

> <Gold.PLP.Chemscore.Hbond>
4.0000

> <Gold.PLP.Chemscore.CHOScore>
0.0000

> <Gold.PLP.Chemscore.Metal>
0.0000

> <Gold.Chemscore.Hbonds>
donor molecule, donor type, donor heavy atom, donor atom, acceptor molecule, acceptor atom, score
      L1  H    10    44       P1  8028  1.66

> <Gold.PLP.Chemscore.Internal.Correction>
0.0029

> <Gold.Rescore>
     Score         DG    S(hbond)    S(metal)    S(lipo)     H(rot)  DE(clash)    DE(int)     intcor
     20.16     -20.86       1.72        0.00     112.44       1.37       0.13       0.58       ----

> <Gold.Chemscore.Fitness>
20.1567

> <Gold.Chemscore.DG>
-20.8608

> <Gold.Chemscore.ZeroCoef>
-5.4800

> <Gold.Chemscore.Hbond>
1.7198

> <Gold.Chemscore.Metal>
0.0000

> <Gold.Chemscore.Lipo>
112.4378

> <Gold.Chemscore.Internal_Hbond>
0.0000

> <Gold.Chemscore.DEClash>
0.1274

> <Gold.Chemscore.DEInternal>
0.5766

> <Gold.Chemscore.Rot>
1.3744

> <Gold.Chemscore.Internal.Correction>
   9.000000E+99

> <Gold.Chemscore.Hbonds>
donor molecule, donor type, donor heavy atom, donor atom, acceptor molecule, acceptor atom, score
      L1  H    10    44       P1  8028  0.83

> <Gold.Chemscore.Hbond.Weighted>
-5.7440

> <Gold.Chemscore.Metal.Weighted>
-0.0000

> <Gold.Chemscore.Lipo.Weighted>
-13.1552

> <Gold.Chemscore.Internal_Hbond.Weighted>
0.0000

> <Gold.Chemscore.DEClash.Weighted>
0.1274

> <Gold.Chemscore.DEInternal.Weighted>
0.5766

> <Gold.Chemscore.Rot.Weighted>
3.5185

> <Gold.Chemscore.Internal.Correction.Weighted>
   9.000000E+99

> <Gold.Protein.RotatedTorsions>
[ 6907 6896 6895 6894 ] final  -11.80 input  -60.11 | X-H torsion
[ 7974 7965 7964 7962 ] final  -28.48 input  175.53 | X-H torsion
[ 8008 7997 7996 7995 ] final -109.71 input   59.86 | X-H torsion
[ 10167 10162 10161 10158 ] final -114.07 input  -65.29 | X-H torsion
[ 10718 10713 10712 10709 ] final  158.38 input   66.30 | X-H torsion
[ 10763 10752 10751 10750 ] final -170.87 input  -60.55 | X-H torsion
[ 11005 11000 10999 10996 ] final   71.64 input  -57.11 | X-H torsion

> <Gold.Protein.ActiveResidues>
 VAL166  LYS551  ARG553  GLY616  TRP617  ASP618  TYR619  PRO620  LYS621  CYS622 
 ASP623  PHE694  ASN695  SER759  ASP760  ASP761  ALA762  ILE779  LEU786  VAL792 
 PHE793  MET794  SER795  GLU796  ALA797  LYS798  CYS799  TRP800  GLU811  SER814 

> <Gold.Protein.RotatedAtoms>
  151.3805  135.0939  159.9494 H   0  0  0  0  0  0  0  0  0  0  0  0  # atno 6907 bound_to 6896
  152.5109  133.9077  159.7483 H   0  0  0  0  0  0  0  0  0  0  0  0  # atno 6908 bound_to 6896
  150.9509  133.6495  159.2801 H   0  0  0  0  0  0  0  0  0  0  0  0  # atno 6909 bound_to 6896
  146.1285  140.5288  142.8704 H   0  0  0  0  0  0  0  0  0  0  0  0  # atno 7974 bound_to 7965
  154.9634  140.0398  157.2200 H   0  0  0  0  0  0  0  0  0  0  0  0  # atno 8008 bound_to 7997
  154.7868  140.2828  155.5999 H   0  0  0  0  0  0  0  0  0  0  0  0  # atno 8009 bound_to 7997
  156.2944  140.2581  156.2706 H   0  0  0  0  0  0  0  0  0  0  0  0  # atno 8010 bound_to 7997
  140.1049  143.4579  152.1789 H   0  0  0  0  0  0  0  0  0  0  0  0  # atno 10167 bound_to 10162
  157.1787  131.0627  151.2144 H   0  0  0  0  0  0  0  0  0  0  0  0  # atno 10718 bound_to 10713
  154.6367  135.2893  155.0152 H   0  0  0  0  0  0  0  0  0  0  0  0  # atno 10763 bound_to 10752
  154.1293  135.6536  153.4922 H   0  0  0  0  0  0  0  0  0  0  0  0  # atno 10764 bound_to 10752
  153.0306  135.5306  154.7217 H   0  0  0  0  0  0  0  0  0  0  0  0  # atno 10765 bound_to 10752
  139.9533  134.7189  156.0812 H   0  0  0  0  0  0  0  0  0  0  0  0  # atno 11005 bound_to 11000
  144.7666  140.5545  143.6698 LP  0  0  0  0  0  0  0  0  0  0  0  0  # atno 17320 bound_to 7965
  145.5312  139.1475  143.3498 LP  0  0  0  0  0  0  0  0  0  0  0  0  # atno 17321 bound_to 7965
  139.5651  144.7430  151.4046 LP  0  0  0  0  0  0  0  0  0  0  0  0  # atno 17342 bound_to 10162
  140.6957  143.7754  150.7323 LP  0  0  0  0  0  0  0  0  0  0  0  0  # atno 17343 bound_to 10162
  157.3974  130.7314  149.6741 LP  0  0  0  0  0  0  0  0  0  0  0  0  # atno 17370 bound_to 10713
  155.9727  130.4130  150.4060 LP  0  0  0  0  0  0  0  0  0  0  0  0  # atno 17371 bound_to 10713
  141.1200  133.6616  156.3190 LP  0  0  0  0  0  0  0  0  0  0  0  0  # atno 17394 bound_to 11000
  140.5668  134.5879  157.5448 LP  0  0  0  0  0  0  0  0  0  0  0  0  # atno 17395 bound_to 11000

$$$$
