AV-unprocessed.smi:989|AV-procd|sdf|4325|dock7
  -GOLD-   22720 2233D 1   1.00000     0.00000
 Structure written by MMmdl.
 26 27  0  0  0  0  0  0  0  0  2 V2000
  153.5930  138.7949  156.9260 O   0  0  0  0  0  0  0  0  0  0  0  0
  153.1666  137.7407  157.4469 C   0  0  0  0  0  0  0  0  0  0  0  0
  153.0588  136.6370  156.8672 O   0  5  0  0  0  0  0  0  0  0  0  0
  152.7190  137.8145  158.9092 C   0  0  0  0  0  0  0  0  0  0  0  0
  153.0521  139.1795  159.4419 C   0  0  0  0  0  0  0  0  0  0  0  0
  153.9836  139.4820  160.4063 C   0  0  0  0  0  0  0  0  0  0  0  0
  154.0589  141.1914  160.7343 S   0  0  0  0  0  0  0  0  0  0  0  0
  152.7800  141.4373  159.5418 C   0  0  0  0  0  0  0  0  0  0  0  0
  152.2366  142.7012  159.1601 N   0  0  0  0  0  0  0  0  0  0  0  0
  152.7229  143.8872  159.8887 C   0  0  0  0  0  0  0  0  0  0  0  0
  151.6253  144.9419  160.0458 C   0  0  0  0  0  0  0  0  0  0  0  0
  150.9990  145.2230  158.6822 C   0  0  0  0  0  0  0  0  0  0  0  0
  150.7282  143.9793  157.9697 N   0  0  0  0  0  0  0  0  0  0  0  0
  151.3777  142.8046  158.1057 C   0  0  0  0  0  0  0  0  0  0  0  0
  151.1391  141.8827  157.3261 O   0  0  0  0  0  0  0  0  0  0  0  0
  152.3705  140.3040  158.9617 N   0  0  0  0  0  0  0  0  0  0  0  0
  151.6497  137.6117  158.9847 H   0  0  0  0  0  0  0  0  0  0  0  0
  153.2294  137.0380  159.4800 H   0  0  0  0  0  0  0  0  0  0  0  0
  154.6361  138.8013  160.9322 H   0  0  0  0  0  0  0  0  0  0  0  0
  153.0905  143.6148  160.8792 H   0  0  0  0  0  0  0  0  0  0  0  0
  153.5699  144.3055  159.3429 H   0  0  0  0  0  0  0  0  0  0  0  0
  150.8610  144.5694  160.7294 H   0  0  0  0  0  0  0  0  0  0  0  0
  152.0235  145.8566  160.4858 H   0  0  0  0  0  0  0  0  0  0  0  0
  150.0756  145.7918  158.7926 H   0  0  0  0  0  0  0  0  0  0  0  0
  151.6764  145.8239  158.0745 H   0  0  0  0  0  0  0  0  0  0  0  0
  150.0491  144.0374  157.2245 H   0  0  0  0  0  0  0  0  0  0  0  0
  1  2  2  0  0  0  0
  2  3  1  0  0  0  0
  2  4  1  0  0  0  0
  4  5  1  0  0  0  0
  4 17  1  0  0  0  0
  4 18  1  0  0  0  0
  5 16  1  0  0  0  0
  5  6  2  0  0  0  0
  6  7  1  0  0  0  0
  6 19  1  0  0  0  0
  7  8  1  0  0  0  0
  8  9  1  0  0  0  0
  8 16  2  0  0  0  0
  9 14  1  0  0  0  0
  9 10  1  0  0  0  0
 10 11  1  0  0  0  0
 10 20  1  0  0  0  0
 10 21  1  0  0  0  0
 11 12  1  0  0  0  0
 11 22  1  0  0  0  0
 11 23  1  0  0  0  0
 12 13  1  0  0  0  0
 12 24  1  0  0  0  0
 12 25  1  0  0  0  0
 13 14  1  0  0  0  0
 13 26  1  0  0  0  0
 14 15  2  0  0  0  0
M  CHG  1   3  -1
M  END
> <s_m_source_file>
AV-unprocessed.smi

> <i_m_source_file_index>
989

> <i_lp_mmshare_version>
43012

> <i_f3d_flags>
0

> <s_epik_input>
Tz1DKFtPSF0pW0NIMl1jMVtjSF1zYyhuMSlOMltDSDJdW0NIMl1bQ0gyXVtOSF1DMj1P

> <s_epik_cmdline>
J2VwaWtfcHl0aG9uJywgJy1waCcsICc3LjAnLCAnLXRuJywgJzgnLCAnLW1hJywgJzIwMCcsICctbWV0YWxfYmluZGluZycsICctaW1hZScsICc8aW5maWxlLm1hZT4nLCAnLW9tYWUnLCAnPG91dGZpbGUubWFlPic=

> <r_lp_tautomer_probability>
1

> <r_epik_Ionization_Penalty>
0.00100312

> <r_epik_Ionization_Penalty_Charging>
0.000722293

> <r_epik_Ionization_Penalty_Neutral>
0.000280832

> <r_epik_State_Penalty>
0.000460635

> <r_epik_Charging_Adjusted_Penalty>
0.00118293

> <i_epik_Tot_Q>
-1

> <i_epik_Tot_abs_Q>
1

> <r_epik_Metal_State_Penalty>
-0

> <b_epik_Metal_Only>
0

> <s_lp_Force_Field>
OPLS_2005

> <r_lp_Energy>
35.7011

> <b_lp_Chiralities_Consistent>
1

> <s_lp_Variant>
AV-unprocessed.smi:989-1

> <Gold.Version>
5.8.1

> <Gold.Id.Protein>
6NUR|6NUR_protein|mol2

> <Gold.PLP.Fitness>
46.4849

> <Gold.PLP.PLP>
-31.8376

> <Gold.PLP.part.hbond>
-2.7919

> <Gold.PLP.part.metal>
0.0000

> <Gold.PLP.part.buried>
-5.2795

> <Gold.PLP.part.nonpolar>
-24.0594

> <Gold.PLP.part.repulsive>
0.0872

> <Gold.PLP.ligand.clash>
0.0000

> <Gold.PLP.ligand.torsion>
0.1078

> <Gold.PLP.Chemscore.Hbond>
4.9520

> <Gold.PLP.Chemscore.CHOScore>
0.0000

> <Gold.PLP.Chemscore.Metal>
0.0000

> <Gold.Chemscore.Hbonds>
donor molecule, donor type, donor heavy atom, donor atom, acceptor molecule, acceptor atom, score
      L1  H    13    26       P1  8028  0.98
      P1  H  7997  8010       L1     1  1.90
      P1  H 10752 10763       L1     3  1.98

> <Gold.PLP.Chemscore.Internal.Correction>
0.0070

> <Gold.Rescore>
     Score         DG    S(hbond)    S(metal)    S(lipo)     H(rot)  DE(clash)    DE(int)     intcor
     15.16     -18.35       2.87        0.00      61.69       1.54       0.00       3.19       ----

> <Gold.Chemscore.Fitness>
15.1633

> <Gold.Chemscore.DG>
-18.3501

> <Gold.Chemscore.ZeroCoef>
-5.4800

> <Gold.Chemscore.Hbond>
2.8715

> <Gold.Chemscore.Metal>
0.0000

> <Gold.Chemscore.Lipo>
61.6938

> <Gold.Chemscore.Internal_Hbond>
0.0000

> <Gold.Chemscore.DEClash>
0.0000

> <Gold.Chemscore.DEInternal>
3.1868

> <Gold.Chemscore.Rot>
1.5386

> <Gold.Chemscore.Internal.Correction>
   9.000000E+99

> <Gold.Chemscore.Hbonds>
donor molecule, donor type, donor heavy atom, donor atom, acceptor molecule, acceptor atom, score
      L1  H    13    26       P1  8028  0.75
      P1  H  7997  8010       L1     1  0.85
      P1  H 10752 10763       L1     3  0.89

> <Gold.Chemscore.Hbond.Weighted>
-9.5907

> <Gold.Chemscore.Metal.Weighted>
-0.0000

> <Gold.Chemscore.Lipo.Weighted>
-7.2182

> <Gold.Chemscore.Internal_Hbond.Weighted>
0.0000

> <Gold.Chemscore.DEClash.Weighted>
0.0000

> <Gold.Chemscore.DEInternal.Weighted>
3.1868

> <Gold.Chemscore.Rot.Weighted>
3.9388

> <Gold.Chemscore.Internal.Correction.Weighted>
   9.000000E+99

> <Gold.Protein.RotatedTorsions>
[ 6907 6896 6895 6894 ] final  -29.97 input  -60.11 | X-H torsion
[ 7974 7965 7964 7962 ] final -131.39 input  175.53 | X-H torsion
[ 8008 7997 7996 7995 ] final   46.18 input   59.86 | X-H torsion
[ 10167 10162 10161 10158 ] final   82.00 input  -65.29 | X-H torsion
[ 10718 10713 10712 10709 ] final  155.74 input   66.30 | X-H torsion
[ 10763 10752 10751 10750 ] final  120.57 input  -60.55 | X-H torsion
[ 11005 11000 10999 10996 ] final  -78.83 input  -57.11 | X-H torsion

> <Gold.Protein.ActiveResidues>
 VAL166  LYS551  ARG553  GLY616  TRP617  ASP618  TYR619  PRO620  LYS621  CYS622 
 ASP623  PHE694  ASN695  SER759  ASP760  ASP761  ALA762  ILE779  LEU786  VAL792 
 PHE793  MET794  SER795  GLU796  ALA797  LYS798  CYS799  TRP800  GLU811  SER814 

> <Gold.Protein.RotatedAtoms>
  151.1119  135.0031  159.8497 H   0  0  0  0  0  0  0  0  0  0  0  0  # atno 6907 bound_to 6896
  152.5443  134.1826  159.8652 H   0  0  0  0  0  0  0  0  0  0  0  0  # atno 6908 bound_to 6896
  151.1877  133.4641  159.2627 H   0  0  0  0  0  0  0  0  0  0  0  0  # atno 6909 bound_to 6896
  144.9384  140.7210  143.4862 H   0  0  0  0  0  0  0  0  0  0  0  0  # atno 7974 bound_to 7965
  155.3482  140.3412  155.4239 H   0  0  0  0  0  0  0  0  0  0  0  0  # atno 8008 bound_to 7997
  156.1777  140.1653  156.8367 H   0  0  0  0  0  0  0  0  0  0  0  0  # atno 8009 bound_to 7997
  154.5300  140.0747  156.8311 H   0  0  0  0  0  0  0  0  0  0  0  0  # atno 8010 bound_to 7997
  139.9333  144.6137  150.8323 H   0  0  0  0  0  0  0  0  0  0  0  0  # atno 10167 bound_to 10162
  157.2143  131.0704  151.1950 H   0  0  0  0  0  0  0  0  0  0  0  0  # atno 10718 bound_to 10713
  153.6006  135.3449  155.2944 H   0  0  0  0  0  0  0  0  0  0  0  0  # atno 10763 bound_to 10752
  154.8637  135.4226  154.2417 H   0  0  0  0  0  0  0  0  0  0  0  0  # atno 10764 bound_to 10752
  153.3244  135.7040  153.7073 H   0  0  0  0  0  0  0  0  0  0  0  0  # atno 10765 bound_to 10752
  141.1666  133.7080  156.8031 H   0  0  0  0  0  0  0  0  0  0  0  0  # atno 11005 bound_to 11000
  145.3031  139.1844  143.4679 LP  0  0  0  0  0  0  0  0  0  0  0  0  # atno 17320 bound_to 7965
  146.3276  140.3024  142.8621 LP  0  0  0  0  0  0  0  0  0  0  0  0  # atno 17321 bound_to 7965
  140.7631  143.3215  151.2611 LP  0  0  0  0  0  0  0  0  0  0  0  0  # atno 17342 bound_to 10162
  139.6764  143.9931  152.2783 LP  0  0  0  0  0  0  0  0  0  0  0  0  # atno 17343 bound_to 10162
  157.3640  130.7146  149.6520 LP  0  0  0  0  0  0  0  0  0  0  0  0  # atno 17370 bound_to 10713
  155.9688  130.4217  150.4484 LP  0  0  0  0  0  0  0  0  0  0  0  0  # atno 17371 bound_to 10713
  140.2242  134.8734  157.3409 LP  0  0  0  0  0  0  0  0  0  0  0  0  # atno 17394 bound_to 11000
  140.1957  134.4317  155.7690 LP  0  0  0  0  0  0  0  0  0  0  0  0  # atno 17395 bound_to 11000

$$$$
