AV-unprocessed.smi:460|AV-procd|sdf|2628|dock2
  -GOLD-   2262023 33D 1   1.00000     0.00000
 Structure written by MMmdl.
 47 49  0  0  0  0  0  0  0  0  2 V2000
  147.6875  140.7067  156.8138 C   0  0  0  0  0  0  0  0  0  0  0  0
  148.8017  139.9639  156.0595 C   0  0  0  0  0  0  0  0  0  0  0  0
  149.9276  140.8757  155.5267 C   0  0  2  0  0  0  0  0  0  0  0  0
  150.8517  140.0775  154.8194 O   0  0  0  0  0  0  0  0  0  0  0  0
  150.6025  141.6620  156.6113 C   0  0  0  0  0  0  0  0  0  0  0  0
  150.6895  143.0222  156.6731 N   0  3  0  0  0  0  0  0  0  0  0  0
  151.3821  143.4035  157.8213 C   0  0  0  0  0  0  0  0  0  0  0  0
  151.7306  144.6632  158.2980 C   0  0  0  0  0  0  0  0  0  0  0  0
  152.4464  144.7041  159.5124 C   0  0  0  0  0  0  0  0  0  0  0  0
  152.7882  143.5231  160.2028 C   0  0  0  0  0  0  0  0  0  0  0  0
  152.4270  142.2517  159.7098 C   0  0  0  0  0  0  0  0  0  0  0  0
  151.7170  142.2199  158.5092 C   0  0  0  0  0  0  0  0  0  0  0  0
  151.1956  141.1720  157.7404 N   0  0  0  0  0  0  0  0  0  0  0  0
  151.3484  139.7908  158.2244 C   0  0  0  0  0  0  0  0  0  0  0  0
  152.7790  139.2611  158.0560 C   0  0  0  0  0  0  0  0  0  0  0  0
  152.9638  138.1640  158.9384 O   0  0  0  0  0  0  0  0  0  0  0  0
  153.5952  138.3867  160.1428 C   0  0  0  0  0  0  0  0  0  0  0  0
  153.8103  139.6780  160.6855 C   0  0  0  0  0  0  0  0  0  0  0  0
  154.4731  139.8324  161.9165 C   0  0  0  0  0  0  0  0  0  0  0  0
  154.9286  138.7016  162.6154 C   0  0  0  0  0  0  0  0  0  0  0  0
  154.7192  137.4153  162.0855 C   0  0  0  0  0  0  0  0  0  0  0  0
  154.0499  137.2478  160.8469 C   0  0  0  0  0  0  0  0  0  0  0  0
  153.7956  136.0182  160.2751 O   0  0  0  0  0  0  0  0  0  0  0  0
  154.6988  134.9539  160.5324 C   0  0  0  0  0  0  0  0  0  0  0  0
  146.8802  140.0233  157.0779 H   0  0  0  0  0  0  0  0  0  0  0  0
  147.2589  141.5040  156.2095 H   0  0  0  0  0  0  0  0  0  0  0  0
  148.0517  141.1533  157.7386 H   0  0  0  0  0  0  0  0  0  0  0  0
  149.2213  139.2009  156.7167 H   0  0  0  0  0  0  0  0  0  0  0  0
  148.3559  139.4265  155.2215 H   0  0  0  0  0  0  0  0  0  0  0  0
  149.4928  141.5689  154.8081 H   0  0  0  0  0  0  0  0  0  0  0  0
  151.1038  139.3523  155.3705 H   0  0  0  0  0  0  0  0  0  0  0  0
  151.4706  145.5686  157.7695 H   0  0  0  0  0  0  0  0  0  0  0  0
  152.7398  145.6598  159.9220 H   0  0  0  0  0  0  0  0  0  0  0  0
  153.3386  143.5933  161.1298 H   0  0  0  0  0  0  0  0  0  0  0  0
  152.6971  141.3549  160.2470 H   0  0  0  0  0  0  0  0  0  0  0  0
  151.0411  139.7461  159.2691 H   0  0  0  0  0  0  0  0  0  0  0  0
  150.6447  139.1623  157.6778 H   0  0  0  0  0  0  0  0  0  0  0  0
  152.9488  138.9594  157.0215 H   0  0  0  0  0  0  0  0  0  0  0  0
  153.4870  140.0554  158.2975 H   0  0  0  0  0  0  0  0  0  0  0  0
  153.4805  140.5678  160.1715 H   0  0  0  0  0  0  0  0  0  0  0  0
  154.6343  140.8199  162.3232 H   0  0  0  0  0  0  0  0  0  0  0  0
  155.4384  138.8205  163.5602 H   0  0  0  0  0  0  0  0  0  0  0  0
  155.0789  136.5703  162.6525 H   0  0  0  0  0  0  0  0  0  0  0  0
  154.3753  134.0701  159.9830 H   0  0  0  0  0  0  0  0  0  0  0  0
  154.7190  134.6950  161.5919 H   0  0  0  0  0  0  0  0  0  0  0  0
  155.7084  135.1975  160.1988 H   0  0  0  0  0  0  0  0  0  0  0  0
  150.3080  143.6407  155.9691 H   0  0  0  0  0  0  0  0  0  0  0  0
  1  2  1  0  0  0  0
  1 25  1  0  0  0  0
  1 26  1  0  0  0  0
  1 27  1  0  0  0  0
  2  3  1  0  0  0  0
  2 28  1  0  0  0  0
  2 29  1  0  0  0  0
  3  4  1  0  0  0  0
  3  5  1  0  0  0  0
  3 30  1  0  0  0  0
  4 31  1  0  0  0  0
  5 13  1  0  0  0  0
  5  6  2  0  0  0  0
  6  7  1  0  0  0  0
  6 47  1  0  0  0  0
  7 12  2  0  0  0  0
  7  8  1  0  0  0  0
  8  9  2  0  0  0  0
  8 32  1  0  0  0  0
  9 10  1  0  0  0  0
  9 33  1  0  0  0  0
 10 11  2  0  0  0  0
 10 34  1  0  0  0  0
 11 12  1  0  0  0  0
 11 35  1  0  0  0  0
 12 13  1  0  0  0  0
 13 14  1  0  0  0  0
 14 15  1  0  0  0  0
 14 36  1  0  0  0  0
 14 37  1  0  0  0  0
 15 16  1  0  0  0  0
 15 38  1  0  0  0  0
 15 39  1  0  0  0  0
 16 17  1  0  0  0  0
 17 22  1  0  0  0  0
 17 18  2  0  0  0  0
 18 19  1  0  0  0  0
 18 40  1  0  0  0  0
 19 20  2  0  0  0  0
 19 41  1  0  0  0  0
 20 21  1  0  0  0  0
 20 42  1  0  0  0  0
 21 22  2  0  0  0  0
 21 43  1  0  0  0  0
 22 23  1  0  0  0  0
 23 24  1  0  0  0  0
 24 44  1  0  0  0  0
 24 45  1  0  0  0  0
 24 46  1  0  0  0  0
M  CHG  1   6   1
M  END
> <s_m_source_file>
AV-unprocessed.smi

> <i_m_source_file_index>
460

> <i_lp_mmshare_version>
43012

> <i_f3d_flags>
0

> <s_epik_input>
W2NIXTFbY0hdW2NIXVtjSF1jKGMxMiluKGMobjIpW0NAQEhdKFtPSF0pW0NIMl1bQ0gzXSlbQ0gyXVtDSDJdT2MzW2NIXVtjSF1bY0hdW2NIXWMzT1tDSDNd

> <s_epik_cmdline>
J2VwaWtfcHl0aG9uJywgJy1waCcsICc3LjAnLCAnLXRuJywgJzgnLCAnLW1hJywgJzIwMCcsICctbWV0YWxfYmluZGluZycsICctaW1hZScsICc8aW5maWxlLm1hZT4nLCAnLW9tYWUnLCAnPG91dGZpbGUubWFlPic=

> <r_lp_tautomer_probability>
1

> <r_epik_Ionization_Penalty>
1.48085

> <r_epik_Ionization_Penalty_Charging>
1.48083

> <r_epik_Ionization_Penalty_Neutral>
1.80167e-05

> <r_epik_State_Penalty>
1.56944

> <r_epik_Charging_Adjusted_Penalty>
3.05027

> <i_epik_Tot_Q>
1

> <i_epik_Tot_abs_Q>
1

> <r_epik_Metal_State_Penalty>
5.61877

> <b_epik_Metal_Only>
0

> <s_lp_Force_Field>
OPLS_2005

> <r_lp_Energy>
23.3046

> <b_lp_Chiralities_Consistent>
1

> <s_lp_Variant>
AV-unprocessed.smi:460-3

> <Gold.Version>
5.8.1

> <Gold.Id.Protein>
6NUR|6NUR_protein|mol2

> <Gold.PLP.Fitness>
54.4867

> <Gold.PLP.PLP>
-45.5085

> <Gold.PLP.part.hbond>
-3.0000

> <Gold.PLP.part.metal>
0.0000

> <Gold.PLP.part.buried>
-6.1271

> <Gold.PLP.part.nonpolar>
-36.8872

> <Gold.PLP.part.repulsive>
0.0530

> <Gold.PLP.ligand.clash>
0.0000

> <Gold.PLP.ligand.torsion>
1.1412

> <Gold.PLP.Chemscore.Hbond>
3.7280

> <Gold.PLP.Chemscore.CHOScore>
0.0000

> <Gold.PLP.Chemscore.Metal>
0.0000

> <Gold.Chemscore.Hbonds>
donor molecule, donor type, donor heavy atom, donor atom, acceptor molecule, acceptor atom, score
      L1  H     6    47       P1  8028  1.66
      P1  H  6896  6908       L1    23  1.00
      P1  H  7989  7998       L1     4  1.00

> <Gold.PLP.Chemscore.Internal.Correction>
0.0767

> <Gold.Rescore>
     Score         DG    S(hbond)    S(metal)    S(lipo)     H(rot)  DE(clash)    DE(int)     intcor
     21.49     -22.50       2.50        0.00     127.65       2.45       0.00       1.01       ----

> <Gold.Chemscore.Fitness>
21.4857

> <Gold.Chemscore.DG>
-22.4956

> <Gold.Chemscore.ZeroCoef>
-5.4800

> <Gold.Chemscore.Hbond>
2.4969

> <Gold.Chemscore.Metal>
0.0000

> <Gold.Chemscore.Lipo>
127.6511

> <Gold.Chemscore.Internal_Hbond>
0.0000

> <Gold.Chemscore.DEClash>
0.0048

> <Gold.Chemscore.DEInternal>
1.0051

> <Gold.Chemscore.Rot>
2.4450

> <Gold.Chemscore.Internal.Correction>
   9.000000E+99

> <Gold.Chemscore.Hbonds>
donor molecule, donor type, donor heavy atom, donor atom, acceptor molecule, acceptor atom, score
      L1  H     6    47       P1  8028  0.83
      P1  H  6896  6908       L1    23  0.24
      P1  H  7989  7998       L1     4  0.91

> <Gold.Chemscore.Hbond.Weighted>
-8.3397

> <Gold.Chemscore.Metal.Weighted>
-0.0000

> <Gold.Chemscore.Lipo.Weighted>
-14.9352

> <Gold.Chemscore.Internal_Hbond.Weighted>
0.0000

> <Gold.Chemscore.DEClash.Weighted>
0.0048

> <Gold.Chemscore.DEInternal.Weighted>
1.0051

> <Gold.Chemscore.Rot.Weighted>
6.2593

> <Gold.Chemscore.Internal.Correction.Weighted>
   9.000000E+99

> <Gold.Protein.RotatedTorsions>
[ 6907 6896 6895 6894 ] final  -88.26 input  -60.11 | X-H torsion
[ 7974 7965 7964 7962 ] final  -28.88 input  175.53 | X-H torsion
[ 8008 7997 7996 7995 ] final   90.04 input   59.86 | X-H torsion
[ 10167 10162 10161 10158 ] final  -10.07 input  -65.29 | X-H torsion
[ 10718 10713 10712 10709 ] final  -61.42 input   66.30 | X-H torsion
[ 10763 10752 10751 10750 ] final   44.44 input  -60.55 | X-H torsion
[ 11005 11000 10999 10996 ] final  -38.67 input  -57.11 | X-H torsion

> <Gold.Protein.ActiveResidues>
 VAL166  LYS551  ARG553  GLY616  TRP617  ASP618  TYR619  PRO620  LYS621  CYS622 
 ASP623  PHE694  ASN695  SER759  ASP760  ASP761  ALA762  ILE779  LEU786  VAL792 
 PHE793  MET794  SER795  GLU796  ALA797  LYS798  CYS799  TRP800  GLU811  SER814 

> <Gold.Protein.RotatedAtoms>
  150.6868  134.2768  159.4610 H   0  0  0  0  0  0  0  0  0  0  0  0  # atno 6907 bound_to 6896
  152.0686  134.9546  160.0584 H   0  0  0  0  0  0  0  0  0  0  0  0  # atno 6908 bound_to 6896
  152.0944  133.4182  159.4595 H   0  0  0  0  0  0  0  0  0  0  0  0  # atno 6909 bound_to 6896
  146.1257  140.5339  142.8715 H   0  0  0  0  0  0  0  0  0  0  0  0  # atno 7974 bound_to 7965
  156.0072  140.3354  155.6904 H   0  0  0  0  0  0  0  0  0  0  0  0  # atno 8008 bound_to 7997
  155.6208  140.0675  157.2696 H   0  0  0  0  0  0  0  0  0  0  0  0  # atno 8009 bound_to 7997
  154.4269  140.1777  156.1357 H   0  0  0  0  0  0  0  0  0  0  0  0  # atno 8010 bound_to 7997
  140.7104  143.5788  150.9013 H   0  0  0  0  0  0  0  0  0  0  0  0  # atno 10167 bound_to 10162
  156.0923  130.4198  150.0991 H   0  0  0  0  0  0  0  0  0  0  0  0  # atno 10718 bound_to 10713
  152.9841  135.6070  154.3275 H   0  0  0  0  0  0  0  0  0  0  0  0  # atno 10763 bound_to 10752
  154.2981  135.2773  155.2626 H   0  0  0  0  0  0  0  0  0  0  0  0  # atno 10764 bound_to 10752
  154.4891  135.5897  153.6502 H   0  0  0  0  0  0  0  0  0  0  0  0  # atno 10765 bound_to 10752
  141.0045  133.6939  156.2084 H   0  0  0  0  0  0  0  0  0  0  0  0  # atno 11005 bound_to 11000
  144.7640  140.5487  143.6716 LP  0  0  0  0  0  0  0  0  0  0  0  0  # atno 17320 bound_to 7965
  145.5371  139.1475  143.3468 LP  0  0  0  0  0  0  0  0  0  0  0  0  # atno 17321 bound_to 7965
  139.9514  143.6267  152.3028 LP  0  0  0  0  0  0  0  0  0  0  0  0  # atno 17342 bound_to 10162
  139.6787  144.7657  151.1648 LP  0  0  0  0  0  0  0  0  0  0  0  0  # atno 17343 bound_to 10162
  156.8998  130.9616  151.3578 LP  0  0  0  0  0  0  0  0  0  0  0  0  # atno 17370 bound_to 10713
  157.6075  130.8558  149.8899 LP  0  0  0  0  0  0  0  0  0  0  0  0  # atno 17371 bound_to 10713
  140.6835  134.4741  157.5589 LP  0  0  0  0  0  0  0  0  0  0  0  0  # atno 17394 bound_to 11000
  139.9056  134.8457  156.1720 LP  0  0  0  0  0  0  0  0  0  0  0  0  # atno 17395 bound_to 11000

$$$$
