AV-unprocessed.smi:3187|AV-procd|sdf|12176|dock2
  -GOLD-   2272018 13D 1   1.00000     0.00000
 Structure written by MMmdl.
 41 42  0  0  0  0  0  0  0  0  2 V2000
  151.7481  145.6198  160.0185 C   0  0  0  0  0  0  0  0  0  0  0  0
  152.0883  144.1904  160.4079 C   0  0  0  0  0  0  0  0  0  0  0  0
  152.5191  143.9231  161.6556 C   0  0  0  0  0  0  0  0  0  0  0  0
  152.9591  142.5579  162.1308 C   0  0  0  0  0  0  0  0  0  0  0  0
  153.3407  141.6632  160.9494 C   0  0  0  0  0  0  0  0  0  0  0  0
  152.2476  141.6646  159.8680 C   0  0  2  0  0  0  0  0  0  0  0  0
  152.6367  140.6819  158.7464 C   0  0  0  0  0  0  0  0  0  0  0  0
  151.9464  143.0974  159.3283 C   0  0  1  0  0  0  0  0  0  0  0  0
  150.5618  143.1200  158.6274 C   0  0  0  0  0  0  0  0  0  0  0  0
  150.6497  142.8846  157.1721 N   0  3  0  0  0  0  0  0  0  0  0  0
  150.1325  141.5713  156.7379 C   0  0  0  0  0  0  0  0  0  0  0  0
  149.9662  141.5074  155.2116 C   0  0  0  0  0  0  0  0  0  0  0  0
  148.5849  141.2986  154.8207 N   0  0  0  0  0  0  0  0  0  0  0  0
  148.1004  140.3445  153.9353 C   0  0  0  0  0  0  0  0  0  0  0  0
  146.7373  140.5258  153.8696 C   0  0  0  0  0  0  0  0  0  0  0  0
  146.3641  141.5784  154.7023 N   0  0  0  0  0  0  0  0  0  0  0  0
  147.5092  141.9823  155.2359 C   0  0  0  0  0  0  0  0  0  0  0  0
  152.2568  145.8960  159.0946 H   0  0  0  0  0  0  0  0  0  0  0  0
  152.0605  146.3249  160.7898 H   0  0  0  0  0  0  0  0  0  0  0  0
  150.6737  145.7421  159.8840 H   0  0  0  0  0  0  0  0  0  0  0  0
  152.5820  144.7164  162.3866 H   0  0  0  0  0  0  0  0  0  0  0  0
  153.8138  142.6699  162.7989 H   0  0  0  0  0  0  0  0  0  0  0  0
  152.1522  142.1120  162.7132 H   0  0  0  0  0  0  0  0  0  0  0  0
  154.2807  142.0114  160.5185 H   0  0  0  0  0  0  0  0  0  0  0  0
  153.5235  140.6496  161.3083 H   0  0  0  0  0  0  0  0  0  0  0  0
  151.3398  141.2842  160.3397 H   0  0  0  0  0  0  0  0  0  0  0  0
  153.5369  141.0118  158.2268 H   0  0  0  0  0  0  0  0  0  0  0  0
  151.8503  140.5646  158.0027 H   0  0  0  0  0  0  0  0  0  0  0  0
  152.8379  139.6893  159.1508 H   0  0  0  0  0  0  0  0  0  0  0  0
  152.7101  143.3269  158.5833 H   0  0  0  0  0  0  0  0  0  0  0  0
  149.9052  142.3517  159.0324 H   0  0  0  0  0  0  0  0  0  0  0  0
  150.0683  144.0746  158.8159 H   0  0  0  0  0  0  0  0  0  0  0  0
  150.1248  143.6077  156.7010 H   0  0  0  0  0  0  0  0  0  0  0  0
  150.8048  140.7824  157.0780 H   0  0  0  0  0  0  0  0  0  0  0  0
  149.1678  141.3966  157.2155 H   0  0  0  0  0  0  0  0  0  0  0  0
  150.3090  142.4393  154.7603 H   0  0  0  0  0  0  0  0  0  0  0  0
  150.5807  140.7100  154.7906 H   0  0  0  0  0  0  0  0  0  0  0  0
  148.7463  139.6358  153.4379 H   0  0  0  0  0  0  0  0  0  0  0  0
  146.0027  139.9837  153.2921 H   0  0  0  0  0  0  0  0  0  0  0  0
  147.5670  142.7997  155.9400 H   0  0  0  0  0  0  0  0  0  0  0  0
  151.6185  142.9560  156.8946 H   0  0  0  0  0  0  0  0  0  0  0  0
  1  2  1  0  0  0  0
  1 18  1  0  0  0  0
  1 19  1  0  0  0  0
  1 20  1  0  0  0  0
  2  8  1  0  0  0  0
  2  3  2  0  0  0  0
  3  4  1  0  0  0  0
  3 21  1  0  0  0  0
  4  5  1  0  0  0  0
  4 22  1  0  0  0  0
  4 23  1  0  0  0  0
  5  6  1  0  0  0  0
  5 24  1  0  0  0  0
  5 25  1  0  0  0  0
  6  7  1  0  0  0  0
  6  8  1  0  0  0  0
  6 26  1  0  0  0  0
  7 27  1  0  0  0  0
  7 28  1  0  0  0  0
  7 29  1  0  0  0  0
  8  9  1  0  0  0  0
  8 30  1  0  0  0  0
  9 10  1  0  0  0  0
  9 31  1  0  0  0  0
  9 32  1  0  0  0  0
 10 11  1  0  0  0  0
 10 33  1  0  0  0  0
 10 41  1  0  0  0  0
 11 12  1  0  0  0  0
 11 34  1  0  0  0  0
 11 35  1  0  0  0  0
 12 13  1  0  0  0  0
 12 36  1  0  0  0  0
 12 37  1  0  0  0  0
 13 17  1  0  0  0  0
 13 14  1  0  0  0  0
 14 15  2  0  0  0  0
 14 38  1  0  0  0  0
 15 16  1  0  0  0  0
 15 39  1  0  0  0  0
 16 17  2  0  0  0  0
 17 40  1  0  0  0  0
M  CHG  1  10   1
M  END
> <s_m_source_file>
AV-unprocessed.smi

> <i_m_source_file_index>
3187

> <i_lp_mmshare_version>
43012

> <i_f3d_flags>
0

> <s_epik_input>
W0NIM11DMT1bQ0hdW0NIMl1bQ0gyXVtDQEBIXShbQ0gzXSlbQ0BIXTFbQ0gyXVtOSF1bQ0gyXVtDSDJdbjJbY0hdW2NIXW5bY0hdMg==

> <s_epik_cmdline>
J2VwaWtfcHl0aG9uJywgJy1waCcsICc3LjAnLCAnLXRuJywgJzgnLCAnLW1hJywgJzIwMCcsICctbWV0YWxfYmluZGluZycsICctaW1hZScsICc8aW5maWxlLm1hZT4nLCAnLW9tYWUnLCAnPG91dGZpbGUubWFlPic=

> <r_lp_tautomer_probability>
1

> <r_epik_Ionization_Penalty>
0.0501625

> <r_epik_Ionization_Penalty_Charging>
0.0501625

> <r_epik_Ionization_Penalty_Neutral>
0

> <r_epik_State_Penalty>
0.0972392

> <r_epik_Charging_Adjusted_Penalty>
0.147402

> <i_epik_Tot_Q>
1

> <i_epik_Tot_abs_Q>
1

> <r_epik_Metal_State_Penalty>
0.000104376

> <b_epik_Metal_Only>
0

> <s_lp_Force_Field>
OPLS_2005

> <r_lp_Energy>
17.5131

> <b_lp_Chiralities_Consistent>
1

> <s_lp_Variant>
AV-unprocessed.smi:3187-2

> <Gold.Version>
5.8.1

> <Gold.Id.Protein>
6NUR|6NUR_protein|mol2

> <Gold.PLP.Fitness>
54.4896

> <Gold.PLP.PLP>
-42.7411

> <Gold.PLP.part.hbond>
-1.0000

> <Gold.PLP.part.metal>
0.0000

> <Gold.PLP.part.buried>
-2.4043

> <Gold.PLP.part.nonpolar>
-38.8279

> <Gold.PLP.part.repulsive>
0.1545

> <Gold.PLP.ligand.clash>
0.0000

> <Gold.PLP.ligand.torsion>
1.3532

> <Gold.PLP.Chemscore.Hbond>
2.0000

> <Gold.PLP.Chemscore.CHOScore>
2.7650

> <Gold.PLP.Chemscore.Metal>
0.0000

> <Gold.Chemscore.Hbonds>
donor molecule, donor type, donor heavy atom, donor atom, acceptor molecule, acceptor atom, score
      L1  H    10    33       P1  8028  2.00
      L1  C    14    38       P1  7957  0.84
      L1  C    15    39       P1 10175  1.00
      L1  C    17    40       P1  8028  0.90

> <Gold.PLP.Chemscore.Internal.Correction>
0.1599

> <Gold.Rescore>
     Score         DG    S(hbond)    S(metal)    S(lipo)     H(rot)  DE(clash)    DE(int)     intcor
     16.77     -18.12       1.00        0.00     120.73       1.89       0.06       1.29       ----

> <Gold.Chemscore.Fitness>
16.7683

> <Gold.Chemscore.DG>
-18.1167

> <Gold.Chemscore.ZeroCoef>
-5.4800

> <Gold.Chemscore.Hbond>
0.9992

> <Gold.Chemscore.Metal>
0.0000

> <Gold.Chemscore.Lipo>
120.7326

> <Gold.Chemscore.Internal_Hbond>
0.0000

> <Gold.Chemscore.DEClash>
0.0578

> <Gold.Chemscore.DEInternal>
1.2906

> <Gold.Chemscore.Rot>
1.8853

> <Gold.Chemscore.Internal.Correction>
   9.000000E+99

> <Gold.Chemscore.Hbonds>
donor molecule, donor type, donor heavy atom, donor atom, acceptor molecule, acceptor atom, score
      L1  H    10    33       P1  8028  0.99

> <Gold.Chemscore.Hbond.Weighted>
-3.3372

> <Gold.Chemscore.Metal.Weighted>
-0.0000

> <Gold.Chemscore.Lipo.Weighted>
-14.1257

> <Gold.Chemscore.Internal_Hbond.Weighted>
0.0000

> <Gold.Chemscore.DEClash.Weighted>
0.0578

> <Gold.Chemscore.DEInternal.Weighted>
1.2906

> <Gold.Chemscore.Rot.Weighted>
4.8263

> <Gold.Chemscore.Internal.Correction.Weighted>
   9.000000E+99

> <Gold.Protein.RotatedTorsions>
[ 6907 6896 6895 6894 ] final  -97.78 input  -60.11 | X-H torsion
[ 7974 7965 7964 7962 ] final  -24.84 input  175.53 | X-H torsion
[ 8008 7997 7996 7995 ] final  148.52 input   59.86 | X-H torsion
[ 10167 10162 10161 10158 ] final   84.31 input  -65.29 | X-H torsion
[ 10718 10713 10712 10709 ] final  -81.99 input   66.30 | X-H torsion
[ 10763 10752 10751 10750 ] final    1.63 input  -60.55 | X-H torsion
[ 11005 11000 10999 10996 ] final  118.11 input  -57.11 | X-H torsion

> <Gold.Protein.ActiveResidues>
 VAL166  LYS551  ARG553  GLY616  TRP617  ASP618  TYR619  PRO620  LYS621  CYS622 
 ASP623  PHE694  ASN695  SER759  ASP760  ASP761  ALA762  ILE779  LEU786  VAL792 
 PHE793  MET794  SER795  GLU796  ALA797  LYS798  CYS799  TRP800  GLU811  SER814 

> <Gold.Protein.RotatedAtoms>
  150.7026  134.1296  159.4064 H   0  0  0  0  0  0  0  0  0  0  0  0  # atno 6907 bound_to 6896
  151.9282  135.0266  160.0536 H   0  0  0  0  0  0  0  0  0  0  0  0  # atno 6908 bound_to 6896
  152.2198  133.4939  159.5193 H   0  0  0  0  0  0  0  0  0  0  0  0  # atno 6909 bound_to 6896
  146.1529  140.4806  142.8604 H   0  0  0  0  0  0  0  0  0  0  0  0  # atno 7974 bound_to 7965
  156.2788  140.2126  156.5711 H   0  0  0  0  0  0  0  0  0  0  0  0  # atno 8008 bound_to 7997
  154.7135  140.0510  157.0595 H   0  0  0  0  0  0  0  0  0  0  0  0  # atno 8009 bound_to 7997
  155.0574  140.3163  155.4675 H   0  0  0  0  0  0  0  0  0  0  0  0  # atno 8010 bound_to 7997
  139.9094  144.6281  150.8554 H   0  0  0  0  0  0  0  0  0  0  0  0  # atno 10167 bound_to 10162
  156.0040  130.4620  150.4037 H   0  0  0  0  0  0  0  0  0  0  0  0  # atno 10718 bound_to 10713
  153.3056  135.6959  153.7162 H   0  0  0  0  0  0  0  0  0  0  0  0  # atno 10763 bound_to 10752
  153.6060  135.3453  155.2963 H   0  0  0  0  0  0  0  0  0  0  0  0  # atno 10764 bound_to 10752
  154.8562  135.4352  154.2180 H   0  0  0  0  0  0  0  0  0  0  0  0  # atno 10765 bound_to 10752
  139.9098  134.9617  156.7452 H   0  0  0  0  0  0  0  0  0  0  0  0  # atno 11005 bound_to 11000
  144.7926  140.6062  143.6531 LP  0  0  0  0  0  0  0  0  0  0  0  0  # atno 17320 bound_to 7965
  145.4779  139.1498  143.3778 LP  0  0  0  0  0  0  0  0  0  0  0  0  # atno 17321 bound_to 7965
  140.7689  143.3377  151.2273 LP  0  0  0  0  0  0  0  0  0  0  0  0  # atno 17342 bound_to 10162
  139.6956  143.9619  152.2881 LP  0  0  0  0  0  0  0  0  0  0  0  0  # atno 17343 bound_to 10162
  157.2104  131.0459  151.2602 LP  0  0  0  0  0  0  0  0  0  0  0  0  # atno 17370 bound_to 10713
  157.3894  130.7274  149.6686 LP  0  0  0  0  0  0  0  0  0  0  0  0  # atno 17371 bound_to 10713
  140.6817  133.9468  155.7914 LP  0  0  0  0  0  0  0  0  0  0  0  0  # atno 17394 bound_to 11000
  141.0505  134.0491  157.3789 LP  0  0  0  0  0  0  0  0  0  0  0  0  # atno 17395 bound_to 11000

$$$$
