AV-unprocessed.smi:164|AV-procd|sdf|1384|dock10
  -GOLD-   2262019113D 1   1.00000     0.00000
 Structure written by MMmdl.
 53 55  0  0  0  0  0  0  0  0  1 V2000
  144.2099  132.4583  149.4204 C   0  0  0  0  0  0  0  0  0  0  0  0
  144.9158  132.0963  150.7159 C   0  0  0  0  0  0  0  0  0  0  0  0
  145.2449  130.7473  150.9596 C   0  0  0  0  0  0  0  0  0  0  0  0
  145.8934  130.3764  152.1503 C   0  0  0  0  0  0  0  0  0  0  0  0
  146.2301  131.3537  153.1067 C   0  0  0  0  0  0  0  0  0  0  0  0
  146.9220  130.9386  154.3917 C   0  0  0  0  0  0  0  0  0  0  0  0
  145.9213  132.7118  152.8635 C   0  0  0  0  0  0  0  0  0  0  0  0
  146.2681  133.6553  153.7960 O   0  0  0  0  0  0  0  0  0  0  0  0
  147.6721  133.8238  153.9360 C   0  0  0  0  0  0  0  0  0  0  0  0
  147.9484  135.1343  154.6866 C   0  0  2  0  0  0  0  0  0  0  0  0
  147.5412  136.1916  153.8420 O   0  0  0  0  0  0  0  0  0  0  0  0
  149.4478  135.3029  155.0194 C   0  0  0  0  0  0  0  0  0  0  0  0
  149.7019  136.2924  156.0534 N   0  0  0  0  0  0  0  0  0  0  0  0
  149.1742  136.0560  157.3457 C   0  0  0  0  0  0  0  0  0  0  0  0
  148.4926  135.0634  157.6074 O   0  0  0  0  0  0  0  0  0  0  0  0
  149.5211  137.0714  158.3329 C   0  0  0  0  0  0  0  0  0  0  0  0
  149.1037  136.9329  159.6027 F   0  0  0  0  0  0  0  0  0  0  0  0
  150.2715  138.1433  157.9989 C   0  0  0  0  0  0  0  0  0  0  0  0
  150.7479  138.3701  156.7154 N   0  0  0  0  0  0  0  0  0  0  0  0
  151.6642  139.5356  156.3727 C   0  0  1  0  0  0  0  0  0  0  0  0
  151.0763  140.9171  156.6890 C   0  0  0  0  0  0  0  0  0  0  0  0
  151.6621  141.2427  158.0604 C   0  0  0  0  0  0  0  0  0  0  0  0
  152.5570  140.0453  158.3981 C   0  0  0  0  0  0  0  0  0  0  0  0
  152.8182  139.4310  157.1436 O   0  0  0  0  0  0  0  0  0  0  0  0
  150.5059  137.4056  155.7113 C   0  0  0  0  0  0  0  0  0  0  0  0
  150.9854  137.5328  154.5818 O   0  0  0  0  0  0  0  0  0  0  0  0
  145.2435  133.0864  151.6759 C   0  0  0  0  0  0  0  0  0  0  0  0
  144.8705  134.5428  151.4331 C   0  0  0  0  0  0  0  0  0  0  0  0
  144.1813  131.6115  148.7339 H   0  0  0  0  0  0  0  0  0  0  0  0
  144.7236  133.2769  148.9157 H   0  0  0  0  0  0  0  0  0  0  0  0
  143.1825  132.7629  149.6206 H   0  0  0  0  0  0  0  0  0  0  0  0
  144.9959  129.9868  150.2341 H   0  0  0  0  0  0  0  0  0  0  0  0
  146.1317  129.3374  152.3250 H   0  0  0  0  0  0  0  0  0  0  0  0
  146.4144  131.3695  155.2549 H   0  0  0  0  0  0  0  0  0  0  0  0
  147.9570  131.2801  154.3945 H   0  0  0  0  0  0  0  0  0  0  0  0
  146.9217  129.8549  154.5102 H   0  0  0  0  0  0  0  0  0  0  0  0
  148.1162  132.9805  154.4679 H   0  0  0  0  0  0  0  0  0  0  0  0
  148.1292  133.8559  152.9457 H   0  0  0  0  0  0  0  0  0  0  0  0
  147.3389  135.1582  155.5907 H   0  0  0  0  0  0  0  0  0  0  0  0
  148.1843  136.2943  153.1573 H   0  0  0  0  0  0  0  0  0  0  0  0
  149.8783  134.3705  155.3881 H   0  0  0  0  0  0  0  0  0  0  0  0
  150.0468  135.5402  154.1388 H   0  0  0  0  0  0  0  0  0  0  0  0
  150.5092  138.8346  158.7916 H   0  0  0  0  0  0  0  0  0  0  0  0
  151.8805  139.4303  155.3083 H   0  0  0  0  0  0  0  0  0  0  0  0
  151.4582  141.6245  155.9521 H   0  0  0  0  0  0  0  0  0  0  0  0
  149.9881  140.9375  156.6308 H   0  0  0  0  0  0  0  0  0  0  0  0
  152.2510  142.1592  158.0070 H   0  0  0  0  0  0  0  0  0  0  0  0
  150.8902  141.3875  158.8167 H   0  0  0  0  0  0  0  0  0  0  0  0
  153.4814  140.3415  158.8937 H   0  0  0  0  0  0  0  0  0  0  0  0
  152.0379  139.3422  159.0508 H   0  0  0  0  0  0  0  0  0  0  0  0
  144.9258  135.1395  152.3433 H   0  0  0  0  0  0  0  0  0  0  0  0
  143.8496  134.6271  151.0608 H   0  0  0  0  0  0  0  0  0  0  0  0
  145.5425  134.9843  150.6972 H   0  0  0  0  0  0  0  0  0  0  0  0
  1  2  1  0  0  0  0
  1 29  1  0  0  0  0
  1 30  1  0  0  0  0
  1 31  1  0  0  0  0
  2 27  1  0  0  0  0
  2  3  2  0  0  0  0
  3  4  1  0  0  0  0
  3 32  1  0  0  0  0
  4  5  2  0  0  0  0
  4 33  1  0  0  0  0
  5  6  1  0  0  0  0
  5  7  1  0  0  0  0
  6 34  1  0  0  0  0
  6 35  1  0  0  0  0
  6 36  1  0  0  0  0
  7  8  1  0  0  0  0
  7 27  2  0  0  0  0
  8  9  1  0  0  0  0
  9 10  1  0  0  0  0
  9 37  1  0  0  0  0
  9 38  1  0  0  0  0
 10 11  1  0  0  0  0
 10 12  1  0  0  0  0
 10 39  1  0  0  0  0
 11 40  1  0  0  0  0
 12 13  1  0  0  0  0
 12 41  1  0  0  0  0
 12 42  1  0  0  0  0
 13 25  1  0  0  0  0
 13 14  1  0  0  0  0
 14 15  2  0  0  0  0
 14 16  1  0  0  0  0
 16 17  1  0  0  0  0
 16 18  2  0  0  0  0
 18 19  1  0  0  0  0
 18 43  1  0  0  0  0
 19 20  1  0  0  0  0
 19 25  1  0  0  0  0
 20 24  1  0  0  0  0
 20 21  1  0  0  0  0
 20 44  1  0  0  0  0
 21 22  1  0  0  0  0
 21 45  1  0  0  0  0
 21 46  1  0  0  0  0
 22 23  1  0  0  0  0
 22 47  1  0  0  0  0
 22 48  1  0  0  0  0
 23 24  1  0  0  0  0
 23 49  1  0  0  0  0
 23 50  1  0  0  0  0
 25 26  2  0  0  0  0
 27 28  1  0  0  0  0
 28 51  1  0  0  0  0
 28 52  1  0  0  0  0
 28 53  1  0  0  0  0
M  END
> <s_m_source_file>
AV-unprocessed.smi

> <i_m_source_file_index>
164

> <i_lp_mmshare_version>
43012

> <i_f3d_flags>
0

> <s_epik_input>
W0NIM11jMVtjSF1bY0hdYyhbQ0gzXSljKGMxW0NIM10pT1tDSDJdW0NASF0oW09IXSlbQ0gyXW4yYyg9TyljKEYpW2NIXW4oYzI9TylbQ0BASF0zW0NIMl1bQ0gyXVtDSDJdTzM=

> <s_epik_cmdline>
J2VwaWtfcHl0aG9uJywgJy1waCcsICc3LjAnLCAnLXRuJywgJzgnLCAnLW1hJywgJzIwMCcsICctbWV0YWxfYmluZGluZycsICctaW1hZScsICc8aW5maWxlLm1hZT4nLCAnLW9tYWUnLCAnPG91dGZpbGUubWFlPic=

> <r_lp_tautomer_probability>
1

> <r_epik_Ionization_Penalty>
1.45842e-07

> <r_epik_Ionization_Penalty_Charging>
2.86622e-08

> <r_epik_Ionization_Penalty_Neutral>
1.1718e-07

> <r_epik_State_Penalty>
-0

> <r_epik_Charging_Adjusted_Penalty>
2.86622e-08

> <i_epik_Tot_Q>
0

> <i_epik_Tot_abs_Q>
0

> <r_epik_Metal_State_Penalty>
-0

> <b_epik_Metal_Only>
0

> <s_epik_Chemistry_Notes>
This compound contains an acetal/aminal-like group ( X-CH(R)-Y where X, Y are N, S, or O) that may be acid/base labile, releasing an aldehyde.

> <s_lp_Force_Field>
OPLS_2005

> <r_lp_Energy>
42.2677

> <b_lp_Chiralities_Consistent>
1

> <s_lp_Variant>
AV-unprocessed.smi:164-3

> <Gold.Version>
5.8.1

> <Gold.Id.Protein>
6NUR|6NUR_protein|mol2

> <Gold.PLP.Fitness>
43.9818

> <Gold.PLP.PLP>
-38.4234

> <Gold.PLP.part.hbond>
-1.8874

> <Gold.PLP.part.metal>
0.0000

> <Gold.PLP.part.buried>
-6.7681

> <Gold.PLP.part.nonpolar>
-29.5902

> <Gold.PLP.part.repulsive>
0.2749

> <Gold.PLP.ligand.clash>
0.0000

> <Gold.PLP.ligand.torsion>
0.3422

> <Gold.PLP.Chemscore.Hbond>
2.0000

> <Gold.PLP.Chemscore.CHOScore>
0.0000

> <Gold.PLP.Chemscore.Metal>
0.0000

> <Gold.Chemscore.Hbonds>
donor molecule, donor type, donor heavy atom, donor atom, acceptor molecule, acceptor atom, score
      L1  H    11    40       P1  7948  0.94
      P1  H  7997  8009       L1    24  1.00

> <Gold.PLP.Chemscore.Internal.Correction>
0.2429

> <Gold.Rescore>
     Score         DG    S(hbond)    S(metal)    S(lipo)     H(rot)  DE(clash)    DE(int)     intcor
     14.22     -16.44       1.93        0.00      98.32       2.73       0.01       2.22       ----

> <Gold.Chemscore.Fitness>
14.2174

> <Gold.Chemscore.DG>
-16.4444

> <Gold.Chemscore.ZeroCoef>
-5.4800

> <Gold.Chemscore.Hbond>
1.9323

> <Gold.Chemscore.Metal>
0.0000

> <Gold.Chemscore.Lipo>
98.3157

> <Gold.Chemscore.Internal_Hbond>
0.0000

> <Gold.Chemscore.DEClash>
0.0106

> <Gold.Chemscore.DEInternal>
2.2164

> <Gold.Chemscore.Rot>
2.7315

> <Gold.Chemscore.Internal.Correction>
   9.000000E+99

> <Gold.Chemscore.Hbonds>
donor molecule, donor type, donor heavy atom, donor atom, acceptor molecule, acceptor atom, score
      L1  H    11    40       P1  7948  0.90
      P1  H  7997  8009       L1    24  0.59

> <Gold.Chemscore.Hbond.Weighted>
-6.4540

> <Gold.Chemscore.Metal.Weighted>
-0.0000

> <Gold.Chemscore.Lipo.Weighted>
-11.5029

> <Gold.Chemscore.Internal_Hbond.Weighted>
0.0000

> <Gold.Chemscore.DEClash.Weighted>
0.0106

> <Gold.Chemscore.DEInternal.Weighted>
2.2164

> <Gold.Chemscore.Rot.Weighted>
6.9925

> <Gold.Chemscore.Internal.Correction.Weighted>
   9.000000E+99

> <Gold.Protein.RotatedTorsions>
[ 6907 6896 6895 6894 ] final  162.75 input  -60.11 | X-H torsion
[ 7974 7965 7964 7962 ] final  128.69 input  175.53 | X-H torsion
[ 8008 7997 7996 7995 ] final -174.26 input   59.86 | X-H torsion
[ 10167 10162 10161 10158 ] final   97.48 input  -65.29 | X-H torsion
[ 10718 10713 10712 10709 ] final -114.84 input   66.30 | X-H torsion
[ 10763 10752 10751 10750 ] final  147.93 input  -60.55 | X-H torsion
[ 11005 11000 10999 10996 ] final  141.42 input  -57.11 | X-H torsion

> <Gold.Protein.ActiveResidues>
 VAL166  LYS551  ARG553  GLY616  TRP617  ASP618  TYR619  PRO620  LYS621  CYS622 
 ASP623  PHE694  ASN695  SER759  ASP760  ASP761  ALA762  ILE779  LEU786  VAL792 
 PHE793  MET794  SER795  GLU796  ALA797  LYS798  CYS799  TRP800  GLU811  SER814 

> <Gold.Protein.RotatedAtoms>
  151.9357  133.3623  159.3946 H   0  0  0  0  0  0  0  0  0  0  0  0  # atno 6907 bound_to 6896
  150.7008  134.4491  159.5337 H   0  0  0  0  0  0  0  0  0  0  0  0  # atno 6908 bound_to 6896
  152.2139  134.8476  160.0545 H   0  0  0  0  0  0  0  0  0  0  0  0  # atno 6909 bound_to 6896
  145.0368  139.3998  143.5122 H   0  0  0  0  0  0  0  0  0  0  0  0  # atno 7974 bound_to 7965
  155.9678  140.1157  157.0839 H   0  0  0  0  0  0  0  0  0  0  0  0  # atno 8008 bound_to 7997
  154.4148  140.1169  156.5333 H   0  0  0  0  0  0  0  0  0  0  0  0  # atno 8009 bound_to 7997
  155.6636  140.3473  155.4794 H   0  0  0  0  0  0  0  0  0  0  0  0  # atno 8010 bound_to 7997
  139.7797  144.6893  151.0040 H   0  0  0  0  0  0  0  0  0  0  0  0  # atno 10167 bound_to 10162
  156.0856  130.6048  150.8827 H   0  0  0  0  0  0  0  0  0  0  0  0  # atno 10718 bound_to 10713
  154.0464  135.2885  155.3347 H   0  0  0  0  0  0  0  0  0  0  0  0  # atno 10763 bound_to 10752
  154.6897  135.5231  153.8378 H   0  0  0  0  0  0  0  0  0  0  0  0  # atno 10764 bound_to 10752
  153.0579  135.6602  154.0664 H   0  0  0  0  0  0  0  0  0  0  0  0  # atno 10765 bound_to 10752
  140.0400  134.9309  157.0826 H   0  0  0  0  0  0  0  0  0  0  0  0  # atno 11005 bound_to 11000
  146.3505  139.9947  142.8682 LP  0  0  0  0  0  0  0  0  0  0  0  0  # atno 17320 bound_to 7965
  145.1700  140.9716  143.4327 LP  0  0  0  0  0  0  0  0  0  0  0  0  # atno 17321 bound_to 7965
  140.7818  143.4497  151.0431 LP  0  0  0  0  0  0  0  0  0  0  0  0  # atno 17342 bound_to 10162
  139.8178  143.7862  152.3175 LP  0  0  0  0  0  0  0  0  0  0  0  0  # atno 17343 bound_to 10162
  157.5989  131.0942  150.8994 LP  0  0  0  0  0  0  0  0  0  0  0  0  # atno 17370 bound_to 10713
  156.9155  130.5296  149.5279 LP  0  0  0  0  0  0  0  0  0  0  0  0  # atno 17371 bound_to 10713
  140.4084  134.2007  155.7163 LP  0  0  0  0  0  0  0  0  0  0  0  0  # atno 17394 bound_to 11000
  141.1878  133.8273  157.1018 LP  0  0  0  0  0  0  0  0  0  0  0  0  # atno 17395 bound_to 11000

$$$$
