AV-unprocessed.smi:585|AV-procd|sdf|3000|dock6
  -GOLD-   2262023503D 1   1.00000     0.00000
 Structure written by MMmdl.
 38 39  0  0  0  0  0  0  0  0  1 V2000
  145.2441  143.8170  154.6527 C   0  0  0  0  0  0  0  0  0  0  0  0
  145.6003  142.4695  154.4010 O   0  0  0  0  0  0  0  0  0  0  0  0
  146.9613  142.3251  154.0301 C   0  0  0  0  0  0  0  0  0  0  0  0
  147.1988  140.9287  153.4365 C   0  0  0  0  0  0  0  0  0  0  0  0
  148.6130  140.5745  153.3940 N   0  0  0  0  0  0  0  0  0  0  0  0
  149.3563  140.3715  154.5659 C   0  0  0  0  0  0  0  0  0  0  0  0
  148.6622  140.2661  155.7911 C   0  0  0  0  0  0  0  0  0  0  0  0
  149.3972  140.0658  156.9760 C   0  0  0  0  0  0  0  0  0  0  0  0
  150.7988  139.9790  156.8852 C   0  0  0  0  0  0  0  0  0  0  0  0
  151.7793  139.7315  158.3575 S   0  0  0  0  0  0  0  0  0  0  0  0
  151.0778  138.7587  159.2097 O   0  0  0  0  0  0  0  0  0  0  0  0
  153.1849  139.5104  157.9828 O   0  0  0  0  0  0  0  0  0  0  0  0
  151.6702  141.2754  159.1312 N   0  0  0  0  0  0  0  0  0  0  0  0
  152.8808  141.8672  159.7147 C   0  0  0  0  0  0  0  0  0  0  0  0
  152.9135  143.3124  159.2164 C   0  0  0  0  0  0  0  0  0  0  0  0
  151.4429  143.6466  159.0083 C   0  0  0  0  0  0  0  0  0  0  0  0
  150.8522  142.3270  158.5131 C   0  0  0  0  0  0  0  0  0  0  0  0
  151.4108  140.0978  155.6222 C   0  0  0  0  0  0  0  0  0  0  0  0
  150.7073  140.2945  154.4863 N   0  0  0  0  0  0  0  0  0  0  0  0
  144.1895  143.8726  154.9220 H   0  0  0  0  0  0  0  0  0  0  0  0
  145.3998  144.4388  153.7701 H   0  0  0  0  0  0  0  0  0  0  0  0
  145.8246  144.2294  155.4791 H   0  0  0  0  0  0  0  0  0  0  0  0
  147.2027  143.0782  153.2785 H   0  0  0  0  0  0  0  0  0  0  0  0
  147.6197  142.4970  154.8835 H   0  0  0  0  0  0  0  0  0  0  0  0
  146.6097  140.1754  153.9603 H   0  0  0  0  0  0  0  0  0  0  0  0
  146.8443  140.9225  152.4057 H   0  0  0  0  0  0  0  0  0  0  0  0
  149.1065  140.7009  152.5223 H   0  0  0  0  0  0  0  0  0  0  0  0
  147.5848  140.3359  155.8265 H   0  0  0  0  0  0  0  0  0  0  0  0
  148.8953  139.9830  157.9287 H   0  0  0  0  0  0  0  0  0  0  0  0
  152.8017  141.8290  160.8016 H   0  0  0  0  0  0  0  0  0  0  0  0
  153.7761  141.3198  159.4177 H   0  0  0  0  0  0  0  0  0  0  0  0
  153.4078  143.9890  159.9142 H   0  0  0  0  0  0  0  0  0  0  0  0
  153.4430  143.3642  158.2639 H   0  0  0  0  0  0  0  0  0  0  0  0
  150.9873  143.9242  159.9598 H   0  0  0  0  0  0  0  0  0  0  0  0
  151.2895  144.4680  158.3077 H   0  0  0  0  0  0  0  0  0  0  0  0
  150.9361  142.2638  157.4277 H   0  0  0  0  0  0  0  0  0  0  0  0
  149.8018  142.2105  158.7811 H   0  0  0  0  0  0  0  0  0  0  0  0
  152.4838  140.0423  155.5140 H   0  0  0  0  0  0  0  0  0  0  0  0
  1  2  1  0  0  0  0
  1 20  1  0  0  0  0
  1 21  1  0  0  0  0
  1 22  1  0  0  0  0
  2  3  1  0  0  0  0
  3  4  1  0  0  0  0
  3 23  1  0  0  0  0
  3 24  1  0  0  0  0
  4  5  1  0  0  0  0
  4 25  1  0  0  0  0
  4 26  1  0  0  0  0
  5  6  1  0  0  0  0
  5 27  1  0  0  0  0
  6 19  1  0  0  0  0
  6  7  2  0  0  0  0
  7  8  1  0  0  0  0
  7 28  1  0  0  0  0
  8  9  2  0  0  0  0
  8 29  1  0  0  0  0
  9 10  1  0  0  0  0
  9 18  1  0  0  0  0
 10 11  2  0  0  0  0
 10 12  2  0  0  0  0
 10 13  1  0  0  0  0
 13 17  1  0  0  0  0
 13 14  1  0  0  0  0
 14 15  1  0  0  0  0
 14 30  1  0  0  0  0
 14 31  1  0  0  0  0
 15 16  1  0  0  0  0
 15 32  1  0  0  0  0
 15 33  1  0  0  0  0
 16 17  1  0  0  0  0
 16 34  1  0  0  0  0
 16 35  1  0  0  0  0
 17 36  1  0  0  0  0
 17 37  1  0  0  0  0
 18 19  2  0  0  0  0
 18 38  1  0  0  0  0
M  END
> <s_m_source_file>
AV-unprocessed.smi

> <i_m_source_file_index>
585

> <i_lp_mmshare_version>
43012

> <i_f3d_flags>
0

> <s_epik_input>
W0NIM11PW0NIMl1bQ0gyXVtOSF1jMVtjSF1bY0hdYyhbY0hdbjEpUyg9TykoPU8pTjJbQ0gyXVtDSDJdW0NIMl1bQ0gyXTI=

> <s_epik_cmdline>
J2VwaWtfcHl0aG9uJywgJy1waCcsICc3LjAnLCAnLXRuJywgJzgnLCAnLW1hJywgJzIwMCcsICctbWV0YWxfYmluZGluZycsICctaW1hZScsICc8aW5maWxlLm1hZT4nLCAnLW9tYWUnLCAnPG91dGZpbGUubWFlPic=

> <r_lp_tautomer_probability>
1

> <r_epik_Ionization_Penalty>
0.000380006

> <r_epik_Ionization_Penalty_Charging>
0

> <r_epik_Ionization_Penalty_Neutral>
0.000380006

> <r_epik_State_Penalty>
0.000231905

> <r_epik_Charging_Adjusted_Penalty>
0.000231905

> <i_epik_Tot_Q>
0

> <i_epik_Tot_abs_Q>
0

> <r_epik_Metal_State_Penalty>
-0

> <b_epik_Metal_Only>
0

> <s_lp_Force_Field>
OPLS_2005

> <r_lp_Energy>
14.2821

> <b_lp_Chiralities_Consistent>
1

> <s_lp_Variant>
AV-unprocessed.smi:585-1

> <Gold.Version>
5.8.1

> <Gold.Id.Protein>
6NUR|6NUR_protein|mol2

> <Gold.PLP.Fitness>
44.7186

> <Gold.PLP.PLP>
-36.2188

> <Gold.PLP.part.hbond>
-3.2173

> <Gold.PLP.part.metal>
0.0000

> <Gold.PLP.part.buried>
-6.7768

> <Gold.PLP.part.nonpolar>
-27.5488

> <Gold.PLP.part.repulsive>
0.4510

> <Gold.PLP.ligand.clash>
0.0000

> <Gold.PLP.ligand.torsion>
1.5319

> <Gold.PLP.Chemscore.Hbond>
2.9913

> <Gold.PLP.Chemscore.CHOScore>
0.0000

> <Gold.PLP.Chemscore.Metal>
0.0000

> <Gold.Chemscore.Hbonds>
donor molecule, donor type, donor heavy atom, donor atom, acceptor molecule, acceptor atom, score
      L1  H     5    27       P1  7957  0.96
      P1  H  7989  7998       L1    19  0.84
      P1  H  7997  8009       L1    12  1.00

> <Gold.PLP.Chemscore.Internal.Correction>
2.5899

> <Gold.Rescore>
     Score         DG    S(hbond)    S(metal)    S(lipo)     H(rot)  DE(clash)    DE(int)     intcor
     18.26     -20.00       2.82        0.00      78.87       1.61       0.01       1.73       ----

> <Gold.Chemscore.Fitness>
18.2625

> <Gold.Chemscore.DG>
-20.0007

> <Gold.Chemscore.ZeroCoef>
-5.4800

> <Gold.Chemscore.Hbond>
2.8163

> <Gold.Chemscore.Metal>
0.0000

> <Gold.Chemscore.Lipo>
78.8692

> <Gold.Chemscore.Internal_Hbond>
0.0000

> <Gold.Chemscore.DEClash>
0.0089

> <Gold.Chemscore.DEInternal>
1.7293

> <Gold.Chemscore.Rot>
1.6068

> <Gold.Chemscore.Internal.Correction>
   9.000000E+99

> <Gold.Chemscore.Hbonds>
donor molecule, donor type, donor heavy atom, donor atom, acceptor molecule, acceptor atom, score
      L1  H     5    27       P1  7957  0.90
      P1  H  7989  7998       L1    19  0.53
      P1  H  7997  8009       L1    12  0.98

> <Gold.Chemscore.Hbond.Weighted>
-9.4064

> <Gold.Chemscore.Metal.Weighted>
-0.0000

> <Gold.Chemscore.Lipo.Weighted>
-9.2277

> <Gold.Chemscore.Internal_Hbond.Weighted>
0.0000

> <Gold.Chemscore.DEClash.Weighted>
0.0089

> <Gold.Chemscore.DEInternal.Weighted>
1.7293

> <Gold.Chemscore.Rot.Weighted>
4.1135

> <Gold.Chemscore.Internal.Correction.Weighted>
   9.000000E+99

> <Gold.Protein.RotatedTorsions>
[ 6907 6896 6895 6894 ] final  -12.53 input  -60.11 | X-H torsion
[ 7974 7965 7964 7962 ] final  154.33 input  175.53 | X-H torsion
[ 8008 7997 7996 7995 ] final  175.35 input   59.86 | X-H torsion
[ 10167 10162 10161 10158 ] final -146.45 input  -65.29 | X-H torsion
[ 10718 10713 10712 10709 ] final -164.59 input   66.30 | X-H torsion
[ 10763 10752 10751 10750 ] final  144.37 input  -60.55 | X-H torsion
[ 11005 11000 10999 10996 ] final -109.68 input  -57.11 | X-H torsion

> <Gold.Protein.ActiveResidues>
 VAL166  LYS551  ARG553  GLY616  TRP617  ASP618  TYR619  PRO620  LYS621  CYS622 
 ASP623  PHE694  ASN695  SER759  ASP760  ASP761  ALA762  ILE779  LEU786  VAL792 
 PHE793  MET794  SER795  GLU796  ALA797  LYS798  CYS799  TRP800  GLU811  SER814 

> <Gold.Protein.RotatedAtoms>
  151.3691  135.0919  159.9459 H   0  0  0  0  0  0  0  0  0  0  0  0  # atno 6907 bound_to 6896
  152.5141  133.9183  159.7532 H   0  0  0  0  0  0  0  0  0  0  0  0  # atno 6908 bound_to 6896
  150.9593  133.6408  159.2786 H   0  0  0  0  0  0  0  0  0  0  0  0  # atno 6909 bound_to 6896
  144.8096  139.6919  143.6147 H   0  0  0  0  0  0  0  0  0  0  0  0  # atno 7974 bound_to 7965
  156.0879  140.1411  156.9629 H   0  0  0  0  0  0  0  0  0  0  0  0  # atno 8008 bound_to 7997
  154.4624  140.0938  156.6977 H   0  0  0  0  0  0  0  0  0  0  0  0  # atno 8009 bound_to 7997
  155.4968  140.3449  155.4366 H   0  0  0  0  0  0  0  0  0  0  0  0  # atno 8010 bound_to 7997
  139.7712  143.8235  152.2625 H   0  0  0  0  0  0  0  0  0  0  0  0  # atno 10167 bound_to 10162
  156.6413  130.8970  151.2996 H   0  0  0  0  0  0  0  0  0  0  0  0  # atno 10718 bound_to 10713
  153.9877  135.2935  155.3414 H   0  0  0  0  0  0  0  0  0  0  0  0  # atno 10763 bound_to 10752
  154.7232  135.5100  153.8848 H   0  0  0  0  0  0  0  0  0  0  0  0  # atno 10764 bound_to 10752
  153.0824  135.6683  154.0133 H   0  0  0  0  0  0  0  0  0  0  0  0  # atno 10765 bound_to 10752
  141.0834  133.9181  157.2239 H   0  0  0  0  0  0  0  0  0  0  0  0  # atno 11005 bound_to 11000
  146.2393  139.5968  142.9502 LP  0  0  0  0  0  0  0  0  0  0  0  0  # atno 17320 bound_to 7965
  145.5356  141.0424  143.2359 LP  0  0  0  0  0  0  0  0  0  0  0  0  # atno 17321 bound_to 7965
  139.8270  144.7271  150.9499 LP  0  0  0  0  0  0  0  0  0  0  0  0  # atno 17342 bound_to 10162
  140.7814  143.4106  151.1000 LP  0  0  0  0  0  0  0  0  0  0  0  0  # atno 17343 bound_to 10162
  157.7170  130.9510  150.1293 LP  0  0  0  0  0  0  0  0  0  0  0  0  # atno 17370 bound_to 10713
  156.2157  130.3670  149.8616 LP  0  0  0  0  0  0  0  0  0  0  0  0  # atno 17371 bound_to 10713
  139.9650  135.0144  156.9362 LP  0  0  0  0  0  0  0  0  0  0  0  0  # atno 17394 bound_to 11000
  140.5418  134.0713  155.7343 LP  0  0  0  0  0  0  0  0  0  0  0  0  # atno 17395 bound_to 11000

$$$$
