AV-unprocessed.smi:1830|AV-procd|sdf|7450|dock9
  -GOLD-   22720 9143D 1   1.00000     0.00000
 Structure written by MMmdl.
 54 57  0  0  0  0  0  0  0  0  3 V2000
  149.3295  133.5497  155.6547 O   0  0  0  0  0  0  0  0  0  0  0  0
  149.0619  134.2185  154.6569 C   0  0  0  0  0  0  0  0  0  0  0  0
  149.2676  135.5403  154.5763 N   0  0  0  0  0  0  0  0  0  0  0  0
  149.8248  136.3638  155.6445 C   0  0  0  0  0  0  0  0  0  0  0  0
  151.1470  137.0430  155.2216 C   0  0  2  0  0  0  0  0  0  0  0  0
  151.9478  137.6047  156.4216 C   0  0  0  0  0  0  0  0  0  0  0  0
  151.3038  138.8436  156.8956 N   0  3  1  0  0  0  0  0  0  0  0  0
  151.9077  139.5459  158.0411 C   0  0  0  0  0  0  0  0  0  0  0  0
  151.4368  141.0073  157.9019 C   0  0  0  0  0  0  0  0  0  0  0  0
  150.7102  141.0854  156.5473 C   0  0  0  0  0  0  0  0  0  0  0  0
  151.1943  139.8335  155.8220 C   0  0  2  0  0  0  0  0  0  0  0  0
  150.3149  139.2644  154.7027 C   0  0  0  0  0  0  0  0  0  0  0  0
  150.9255  138.0598  154.2312 O   0  0  0  0  0  0  0  0  0  0  0  0
  148.5171  133.7375  153.5269 N   0  0  0  0  0  0  0  0  0  0  0  0
  148.1160  132.3994  153.2509 C   0  0  0  0  0  0  0  0  0  0  0  0
  148.7077  131.3007  153.9261 C   0  0  0  0  0  0  0  0  0  0  0  0
  148.2750  129.9902  153.6507 C   0  0  0  0  0  0  0  0  0  0  0  0
  147.2588  129.7957  152.6999 C   0  0  0  0  0  0  0  0  0  0  0  0
  146.7304  130.8586  152.0589 N   0  3  0  0  0  0  0  0  0  0  0  0
  147.1152  132.1424  152.2688 C   0  0  0  0  0  0  0  0  0  0  0  0
  146.4809  133.1534  151.5116 N   0  0  0  0  0  0  0  0  0  0  0  0
  145.9004  134.3168  152.1722 C   0  0  0  0  0  0  0  0  0  0  0  0
  145.0310  134.9810  151.1087 C   0  0  0  0  0  0  0  0  0  0  0  0
  144.4940  133.7839  150.3294 C   0  0  0  0  0  0  0  0  0  0  0  0
  145.6416  132.7692  150.3809 C   0  0  0  0  0  0  0  0  0  0  0  0
  149.0185  136.0123  153.7193 H   0  0  0  0  0  0  0  0  0  0  0  0
  149.0773  137.1029  155.9311 H   0  0  0  0  0  0  0  0  0  0  0  0
  149.9879  135.7476  156.5304 H   0  0  0  0  0  0  0  0  0  0  0  0
  151.7702  136.2838  154.7481 H   0  0  0  0  0  0  0  0  0  0  0  0
  152.0033  136.8754  157.2305 H   0  0  0  0  0  0  0  0  0  0  0  0
  152.9727  137.8231  156.1172 H   0  0  0  0  0  0  0  0  0  0  0  0
  151.5995  139.0931  158.9838 H   0  0  0  0  0  0  0  0  0  0  0  0
  152.9959  139.4949  157.9786 H   0  0  0  0  0  0  0  0  0  0  0  0
  150.7726  141.2964  158.7169 H   0  0  0  0  0  0  0  0  0  0  0  0
  152.2939  141.6814  157.9224 H   0  0  0  0  0  0  0  0  0  0  0  0
  149.6313  141.0380  156.7027 H   0  0  0  0  0  0  0  0  0  0  0  0
  150.9312  142.0020  155.9995 H   0  0  0  0  0  0  0  0  0  0  0  0
  152.1925  140.0311  155.4250 H   0  0  0  0  0  0  0  0  0  0  0  0
  149.2977  139.0773  155.0474 H   0  0  0  0  0  0  0  0  0  0  0  0
  150.2461  139.9722  153.8768 H   0  0  0  0  0  0  0  0  0  0  0  0
  148.2612  134.4217  152.8304 H   0  0  0  0  0  0  0  0  0  0  0  0
  149.4946  131.4433  154.6512 H   0  0  0  0  0  0  0  0  0  0  0  0
  148.7158  129.1478  154.1638 H   0  0  0  0  0  0  0  0  0  0  0  0
  146.8610  128.8288  152.4271 H   0  0  0  0  0  0  0  0  0  0  0  0
  145.2775  134.0080  153.0128 H   0  0  0  0  0  0  0  0  0  0  0  0
  146.6724  134.9917  152.5432 H   0  0  0  0  0  0  0  0  0  0  0  0
  144.2440  135.6062  151.5317 H   0  0  0  0  0  0  0  0  0  0  0  0
  145.6469  135.6031  150.4577 H   0  0  0  0  0  0  0  0  0  0  0  0
  143.6207  133.3770  150.8411 H   0  0  0  0  0  0  0  0  0  0  0  0
  144.1976  134.0367  149.3110 H   0  0  0  0  0  0  0  0  0  0  0  0
  146.2329  132.8310  149.4668 H   0  0  0  0  0  0  0  0  0  0  0  0
  145.2650  131.7497  150.4762 H   0  0  0  0  0  0  0  0  0  0  0  0
  150.3600  138.6104  157.1692 H   0  0  0  0  0  0  0  0  0  0  0  0
  146.0017  130.6834  151.3668 H   0  0  0  0  0  0  0  0  0  0  0  0
  1  2  2  0  0  0  0
  2  3  1  0  0  0  0
  2 14  1  0  0  0  0
  3  4  1  0  0  0  0
  3 26  1  0  0  0  0
  4  5  1  0  0  0  0
  4 27  1  0  0  0  0
  4 28  1  0  0  0  0
  5 13  1  0  0  0  0
  5  6  1  0  0  0  0
  5 29  1  0  0  0  0
  6  7  1  0  0  0  0
  6 30  1  0  0  0  0
  6 31  1  0  0  0  0
  7 11  1  0  0  0  0
  7  8  1  0  0  0  0
  7 53  1  0  0  0  0
  8  9  1  0  0  0  0
  8 32  1  0  0  0  0
  8 33  1  0  0  0  0
  9 10  1  0  0  0  0
  9 34  1  0  0  0  0
  9 35  1  0  0  0  0
 10 11  1  0  0  0  0
 10 36  1  0  0  0  0
 10 37  1  0  0  0  0
 11 12  1  0  0  0  0
 11 38  1  0  0  0  0
 12 13  1  0  0  0  0
 12 39  1  0  0  0  0
 12 40  1  0  0  0  0
 14 15  1  0  0  0  0
 14 41  1  0  0  0  0
 15 20  1  0  0  0  0
 15 16  2  0  0  0  0
 16 17  1  0  0  0  0
 16 42  1  0  0  0  0
 17 18  2  0  0  0  0
 17 43  1  0  0  0  0
 18 19  1  0  0  0  0
 18 44  1  0  0  0  0
 19 20  2  0  0  0  0
 19 54  1  0  0  0  0
 20 21  1  0  0  0  0
 21 25  1  0  0  0  0
 21 22  1  0  0  0  0
 22 23  1  0  0  0  0
 22 45  1  0  0  0  0
 22 46  1  0  0  0  0
 23 24  1  0  0  0  0
 23 47  1  0  0  0  0
 23 48  1  0  0  0  0
 24 25  1  0  0  0  0
 24 49  1  0  0  0  0
 24 50  1  0  0  0  0
 25 51  1  0  0  0  0
 25 52  1  0  0  0  0
M  CHG  1   7   1
M  CHG  1  19   1
M  END
> <s_m_source_file>
AV-unprocessed.smi

> <i_m_source_file_index>
1830

> <i_lp_mmshare_version>
43012

> <i_f3d_flags>
0

> <s_epik_input>
W0NIMl0xW0NIMl1bQ0gyXVtDQEhdKE4xMilbQ0gyXU9bQ0BASF0oW0NIMl0yKVtDSDJdW05IXUMoPU8pW05IXWMzW2NIXVtjSF1bY0hdbmMzTjRbQ0gyXVtDSDJdW0NIMl1bQ0gyXTQ=

> <s_epik_cmdline>
J2VwaWtfcHl0aG9uJywgJy1waCcsICc3LjAnLCAnLXRuJywgJzgnLCAnLW1hJywgJzIwMCcsICctbWV0YWxfYmluZGluZycsICctaW1hZScsICc8aW5maWxlLm1hZT4nLCAnLW9tYWUnLCAnPG91dGZpbGUubWFlPic=

> <r_lp_tautomer_probability>
0.999994

> <r_epik_Ionization_Penalty>
1.29113

> <r_epik_Ionization_Penalty_Charging>
1.29111

> <r_epik_Ionization_Penalty_Neutral>
1.88144e-05

> <r_epik_State_Penalty>
1.32676

> <r_epik_Charging_Adjusted_Penalty>
2.61787

> <i_epik_Tot_Q>
2

> <i_epik_Tot_abs_Q>
2

> <r_epik_Metal_State_Penalty>
1.40425

> <b_epik_Metal_Only>
0

> <s_lp_Force_Field>
OPLS_2005

> <r_lp_Energy>
76.6475

> <b_lp_Chiralities_Consistent>
1

> <s_lp_Variant>
AV-unprocessed.smi:1830-19

> <Gold.Version>
5.8.1

> <Gold.Id.Protein>
6NUR|6NUR_protein|mol2

> <Gold.PLP.Fitness>
45.4143

> <Gold.PLP.PLP>
-40.4690

> <Gold.PLP.part.hbond>
-3.0000

> <Gold.PLP.part.metal>
0.0000

> <Gold.PLP.part.buried>
-2.4825

> <Gold.PLP.part.nonpolar>
-34.6815

> <Gold.PLP.part.repulsive>
0.5106

> <Gold.PLP.ligand.clash>
0.0000

> <Gold.PLP.ligand.torsion>
0.4020

> <Gold.PLP.Chemscore.Hbond>
1.7840

> <Gold.PLP.Chemscore.CHOScore>
0.0000

> <Gold.PLP.Chemscore.Metal>
0.0000

> <Gold.Chemscore.Hbonds>
donor molecule, donor type, donor heavy atom, donor atom, acceptor molecule, acceptor atom, score
      L1  H     3    26       P1  7948  1.00
      L1  H    14    41       P1  7948  0.65

> <Gold.PLP.Chemscore.Internal.Correction>
0.3974

> <Gold.Rescore>
     Score         DG    S(hbond)    S(metal)    S(lipo)     H(rot)  DE(clash)    DE(int)     intcor
     15.70     -17.60       1.38        0.00      95.46       1.43       0.03       1.87       ----

> <Gold.Chemscore.Fitness>
15.6977

> <Gold.Chemscore.DG>
-17.6033

> <Gold.Chemscore.ZeroCoef>
-5.4800

> <Gold.Chemscore.Hbond>
1.3802

> <Gold.Chemscore.Metal>
0.0000

> <Gold.Chemscore.Lipo>
95.4571

> <Gold.Chemscore.Internal_Hbond>
0.0000

> <Gold.Chemscore.DEClash>
0.0349

> <Gold.Chemscore.DEInternal>
1.8707

> <Gold.Chemscore.Rot>
1.4278

> <Gold.Chemscore.Internal.Correction>
   9.000000E+99

> <Gold.Chemscore.Hbonds>
donor molecule, donor type, donor heavy atom, donor atom, acceptor molecule, acceptor atom, score
      L1  H     3    26       P1  7948  0.93
      L1  H    14    41       P1  7948  0.22

> <Gold.Chemscore.Hbond.Weighted>
-4.6099

> <Gold.Chemscore.Metal.Weighted>
-0.0000

> <Gold.Chemscore.Lipo.Weighted>
-11.1685

> <Gold.Chemscore.Internal_Hbond.Weighted>
0.0000

> <Gold.Chemscore.DEClash.Weighted>
0.0349

> <Gold.Chemscore.DEInternal.Weighted>
1.8707

> <Gold.Chemscore.Rot.Weighted>
3.6551

> <Gold.Chemscore.Internal.Correction.Weighted>
   9.000000E+99

> <Gold.Protein.RotatedTorsions>
[ 6907 6896 6895 6894 ] final  -30.87 input  -60.11 | X-H torsion
[ 7974 7965 7964 7962 ] final  115.57 input  175.53 | X-H torsion
[ 8008 7997 7996 7995 ] final   94.58 input   59.86 | X-H torsion
[ 10167 10162 10161 10158 ] final  -70.26 input  -65.29 | X-H torsion
[ 10718 10713 10712 10709 ] final -168.85 input   66.30 | X-H torsion
[ 10763 10752 10751 10750 ] final   88.93 input  -60.55 | X-H torsion
[ 11005 11000 10999 10996 ] final   81.60 input  -57.11 | X-H torsion

> <Gold.Protein.ActiveResidues>
 VAL166  LYS551  ARG553  GLY616  TRP617  ASP618  TYR619  PRO620  LYS621  CYS622 
 ASP623  PHE694  ASN695  SER759  ASP760  ASP761  ALA762  ILE779  LEU786  VAL792 
 PHE793  MET794  SER795  GLU796  ALA797  LYS798  CYS799  TRP800  GLU811  SER814 

> <Gold.Protein.RotatedAtoms>
  151.0998  134.9965  159.8442 H   0  0  0  0  0  0  0  0  0  0  0  0  # atno 6907 bound_to 6896
  152.5436  134.1964  159.8705 H   0  0  0  0  0  0  0  0  0  0  0  0  # atno 6908 bound_to 6896
  151.2006  133.4569  159.2629 H   0  0  0  0  0  0  0  0  0  0  0  0  # atno 6909 bound_to 6896
  145.1903  139.3003  143.4372 H   0  0  0  0  0  0  0  0  0  0  0  0  # atno 7974 bound_to 7965
  156.0595  140.3298  155.7445 H   0  0  0  0  0  0  0  0  0  0  0  0  # atno 8008 bound_to 7997
  155.5477  140.0607  157.2874 H   0  0  0  0  0  0  0  0  0  0  0  0  # atno 8009 bound_to 7997
  154.4474  140.1899  156.0643 H   0  0  0  0  0  0  0  0  0  0  0  0  # atno 8010 bound_to 7997
  140.5366  143.2317  151.7165 H   0  0  0  0  0  0  0  0  0  0  0  0  # atno 10167 bound_to 10162
  156.7030  130.9204  151.3082 H   0  0  0  0  0  0  0  0  0  0  0  0  # atno 10718 bound_to 10713
  153.1818  135.4489  155.0038 H   0  0  0  0  0  0  0  0  0  0  0  0  # atno 10763 bound_to 10752
  154.8035  135.3265  154.7493 H   0  0  0  0  0  0  0  0  0  0  0  0  # atno 10764 bound_to 10752
  153.7956  135.6966  153.4919 H   0  0  0  0  0  0  0  0  0  0  0  0  # atno 10765 bound_to 10752
  139.9092  134.8008  156.2062 H   0  0  0  0  0  0  0  0  0  0  0  0  # atno 11005 bound_to 11000
  146.3437  140.2113  142.8590 LP  0  0  0  0  0  0  0  0  0  0  0  0  # atno 17320 bound_to 7965
  145.0048  140.8663  143.5260 LP  0  0  0  0  0  0  0  0  0  0  0  0  # atno 17321 bound_to 7965
  139.4973  144.4033  152.0159 LP  0  0  0  0  0  0  0  0  0  0  0  0  # atno 17342 bound_to 10162
  140.3139  144.3507  150.6027 LP  0  0  0  0  0  0  0  0  0  0  0  0  # atno 17343 bound_to 10162
  157.6966  130.9288  150.0661 LP  0  0  0  0  0  0  0  0  0  0  0  0  # atno 17370 bound_to 10713
  156.1715  130.3646  149.9159 LP  0  0  0  0  0  0  0  0  0  0  0  0  # atno 17371 bound_to 10713
  141.0494  133.6896  156.1743 LP  0  0  0  0  0  0  0  0  0  0  0  0  # atno 17394 bound_to 11000
  140.6834  134.4743  157.5589 LP  0  0  0  0  0  0  0  0  0  0  0  0  # atno 17395 bound_to 11000

$$$$
