AV-unprocessed.smi:3196|AV-procd|sdf|12221|dock5
  -GOLD-   2272018 53D 1   1.00000     0.00000
 Structure written by MMmdl.
 33 34  0  0  0  0  0  0  0  0  1 V2000
  154.0272  141.4521  161.1812 C   0  0  0  0  0  0  0  0  0  0  0  0
  153.2724  142.2139  160.0865 C   0  0  0  0  0  0  0  0  0  0  0  0
  152.5363  143.4466  160.6285 C   0  0  0  0  0  0  0  0  0  0  0  0
  151.4077  143.8916  159.7201 C   0  0  2  0  0  0  0  0  0  0  0  0
  151.6080  145.0304  158.7565 C   0  0  0  0  0  0  0  0  0  0  0  0
  150.6953  145.2064  159.9530 C   0  0  1  0  0  0  0  0  0  0  0  0
  149.2906  145.2748  159.6834 N   0  0  0  0  0  0  0  0  0  0  0  0
  148.2815  144.8239  160.4503 C   0  0  0  0  0  0  0  0  0  0  0  0
  148.5017  144.3102  161.5448 O   0  0  0  0  0  0  0  0  0  0  0  0
  147.0565  145.0332  159.9277 N   0  0  0  0  0  0  0  0  0  0  0  0
  145.7756  144.7156  160.4582 C   0  0  0  0  0  0  0  0  0  0  0  0
  145.5544  143.9091  161.6013 C   0  0  0  0  0  0  0  0  0  0  0  0
  144.2273  143.6679  162.0106 C   0  0  0  0  0  0  0  0  0  0  0  0
  143.1478  144.1601  161.3669 N   0  0  0  0  0  0  0  0  0  0  0  0
  143.3618  144.9195  160.2719 C   0  0  0  0  0  0  0  0  0  0  0  0
  144.6469  145.2214  159.7788 C   0  0  0  0  0  0  0  0  0  0  0  0
  144.7901  145.9878  158.6702 F   0  0  0  0  0  0  0  0  0  0  0  0
  154.5448  140.5871  160.7662 H   0  0  0  0  0  0  0  0  0  0  0  0
  153.3452  141.0932  161.9523 H   0  0  0  0  0  0  0  0  0  0  0  0
  154.7720  142.0873  161.6612 H   0  0  0  0  0  0  0  0  0  0  0  0
  153.9758  142.5199  159.3113 H   0  0  0  0  0  0  0  0  0  0  0  0
  152.5582  141.5425  159.6085 H   0  0  0  0  0  0  0  0  0  0  0  0
  152.1198  143.2294  161.6126 H   0  0  0  0  0  0  0  0  0  0  0  0
  153.2383  144.2709  160.7603 H   0  0  0  0  0  0  0  0  0  0  0  0
  150.7878  143.0705  159.3638 H   0  0  0  0  0  0  0  0  0  0  0  0
  152.5644  145.5488  158.7765 H   0  0  0  0  0  0  0  0  0  0  0  0
  151.1513  144.9383  157.7727 H   0  0  0  0  0  0  0  0  0  0  0  0
  151.0909  145.8538  160.7344 H   0  0  0  0  0  0  0  0  0  0  0  0
  149.0296  145.7728  158.8448 H   0  0  0  0  0  0  0  0  0  0  0  0
  147.0394  145.5248  159.0459 H   0  0  0  0  0  0  0  0  0  0  0  0
  146.3594  143.4654  162.1651 H   0  0  0  0  0  0  0  0  0  0  0  0
  144.0281  143.0575  162.8790 H   0  0  0  0  0  0  0  0  0  0  0  0
  142.4820  145.2980  159.7725 H   0  0  0  0  0  0  0  0  0  0  0  0
  1  2  1  0  0  0  0
  1 18  1  0  0  0  0
  1 19  1  0  0  0  0
  1 20  1  0  0  0  0
  2  3  1  0  0  0  0
  2 21  1  0  0  0  0
  2 22  1  0  0  0  0
  3  4  1  0  0  0  0
  3 23  1  0  0  0  0
  3 24  1  0  0  0  0
  4  6  1  0  0  0  0
  4  5  1  0  0  0  0
  4 25  1  0  0  0  0
  5  6  1  0  0  0  0
  5 26  1  0  0  0  0
  5 27  1  0  0  0  0
  6  7  1  0  0  0  0
  6 28  1  0  0  0  0
  7  8  1  0  0  0  0
  7 29  1  0  0  0  0
  8  9  2  0  0  0  0
  8 10  1  0  0  0  0
 10 11  1  0  0  0  0
 10 30  1  0  0  0  0
 11 16  1  0  0  0  0
 11 12  2  0  0  0  0
 12 13  1  0  0  0  0
 12 31  1  0  0  0  0
 13 14  2  0  0  0  0
 13 32  1  0  0  0  0
 14 15  1  0  0  0  0
 15 16  2  0  0  0  0
 15 33  1  0  0  0  0
 16 17  1  0  0  0  0
M  END
> <s_m_source_file>
AV-unprocessed.smi

> <i_m_source_file_index>
3196

> <i_lp_mmshare_version>
43012

> <i_f3d_flags>
0

> <s_epik_input>
W0NIM11bQ0gyXVtDSDJdW0NAQEhdMVtDSDJdW0NASF0xW05IXUMoPU8pW05IXWMyW2NIXVtjSF1uW2NIXWMyRg==

> <s_epik_cmdline>
J2VwaWtfcHl0aG9uJywgJy1waCcsICc3LjAnLCAnLXRuJywgJzgnLCAnLW1hJywgJzIwMCcsICctbWV0YWxfYmluZGluZycsICctaW1hZScsICc8aW5maWxlLm1hZT4nLCAnLW9tYWUnLCAnPG91dGZpbGUubWFlPic=

> <r_epik_Ionization_Penalty>
0.00341997

> <r_epik_Ionization_Penalty_Charging>
0

> <r_epik_Ionization_Penalty_Neutral>
0.00341997

> <r_epik_State_Penalty>
0.00239198

> <r_epik_Charging_Adjusted_Penalty>
0.00239198

> <i_epik_Tot_Q>
0

> <i_epik_Tot_abs_Q>
0

> <r_epik_Metal_State_Penalty>
-0

> <b_epik_Metal_Only>
0

> <s_lp_Force_Field>
OPLS_2005

> <r_lp_Energy>
34.264

> <b_lp_Chiralities_Consistent>
1

> <s_lp_Variant>
AV-unprocessed.smi:3196-1

> <Gold.Version>
5.8.1

> <Gold.Id.Protein>
6NUR|6NUR_protein|mol2

> <Gold.PLP.Fitness>
48.3739

> <Gold.PLP.PLP>
-40.9181

> <Gold.PLP.part.hbond>
-3.0000

> <Gold.PLP.part.metal>
0.0000

> <Gold.PLP.part.buried>
-7.7396

> <Gold.PLP.part.nonpolar>
-31.6815

> <Gold.PLP.part.repulsive>
0.8616

> <Gold.PLP.ligand.clash>
0.0000

> <Gold.PLP.ligand.torsion>
0.7300

> <Gold.PLP.Chemscore.Hbond>
2.7840

> <Gold.PLP.Chemscore.CHOScore>
0.0000

> <Gold.PLP.Chemscore.Metal>
0.0000

> <Gold.Chemscore.Hbonds>
donor molecule, donor type, donor heavy atom, donor atom, acceptor molecule, acceptor atom, score
      L1  H     7    29       P1  8029  1.00
      L1  H    10    30       P1  8029  1.00
      P1  H  6933  6944       L1     9  0.80

> <Gold.PLP.Chemscore.Internal.Correction>
0.5638

> <Gold.Rescore>
     Score         DG    S(hbond)    S(metal)    S(lipo)     H(rot)  DE(clash)    DE(int)     intcor
     20.28     -22.03       2.77        0.00      92.60       1.39       0.02       1.72       ----

> <Gold.Chemscore.Fitness>
20.2831

> <Gold.Chemscore.DG>
-22.0276

> <Gold.Chemscore.ZeroCoef>
-5.4800

> <Gold.Chemscore.Hbond>
2.7725

> <Gold.Chemscore.Metal>
0.0000

> <Gold.Chemscore.Lipo>
92.5951

> <Gold.Chemscore.Internal_Hbond>
0.0000

> <Gold.Chemscore.DEClash>
0.0234

> <Gold.Chemscore.DEInternal>
1.7211

> <Gold.Chemscore.Rot>
1.3852

> <Gold.Chemscore.Internal.Correction>
   9.000000E+99

> <Gold.Chemscore.Hbonds>
donor molecule, donor type, donor heavy atom, donor atom, acceptor molecule, acceptor atom, score
      L1  H     7    29       P1  8029  0.95
      L1  H    10    30       P1  8029  0.93
      P1  H  6933  6944       L1     9  0.68

> <Gold.Chemscore.Hbond.Weighted>
-9.2600

> <Gold.Chemscore.Metal.Weighted>
-0.0000

> <Gold.Chemscore.Lipo.Weighted>
-10.8336

> <Gold.Chemscore.Internal_Hbond.Weighted>
0.0000

> <Gold.Chemscore.DEClash.Weighted>
0.0234

> <Gold.Chemscore.DEInternal.Weighted>
1.7211

> <Gold.Chemscore.Rot.Weighted>
3.5460

> <Gold.Chemscore.Internal.Correction.Weighted>
   9.000000E+99

> <Gold.Protein.RotatedTorsions>
[ 6907 6896 6895 6894 ] final  -54.55 input  -60.11 | X-H torsion
[ 7974 7965 7964 7962 ] final   -6.15 input  175.53 | X-H torsion
[ 8008 7997 7996 7995 ] final   31.92 input   59.86 | X-H torsion
[ 10167 10162 10161 10158 ] final -118.86 input  -65.29 | X-H torsion
[ 10718 10713 10712 10709 ] final   24.31 input   66.30 | X-H torsion
[ 10763 10752 10751 10750 ] final -100.88 input  -60.55 | X-H torsion
[ 11005 11000 10999 10996 ] final   27.25 input  -57.11 | X-H torsion

> <Gold.Protein.ActiveResidues>
 VAL166  LYS551  ARG553  GLY616  TRP617  ASP618  TYR619  PRO620  LYS621  CYS622 
 ASP623  PHE694  ASN695  SER759  ASP760  ASP761  ALA762  ILE779  LEU786  VAL792 
 PHE793  MET794  SER795  GLU796  ALA797  LYS798  CYS799  TRP800  GLU811  SER814 

> <Gold.Protein.RotatedAtoms>
  150.8328  134.7589  159.6867 H   0  0  0  0  0  0  0  0  0  0  0  0  # atno 6907 bound_to 6896
  152.4430  134.5549  159.9887 H   0  0  0  0  0  0  0  0  0  0  0  0  # atno 6908 bound_to 6896
  151.5706  133.3353  159.3024 H   0  0  0  0  0  0  0  0  0  0  0  0  # atno 6909 bound_to 6896
  146.2337  140.2127  142.8335 H   0  0  0  0  0  0  0  0  0  0  0  0  # atno 7974 bound_to 7965
  155.1141  140.3242  155.4514 H   0  0  0  0  0  0  0  0  0  0  0  0  # atno 8008 bound_to 7997
  156.2682  140.2039  156.6213 H   0  0  0  0  0  0  0  0  0  0  0  0  # atno 8009 bound_to 7997
  154.6733  140.0534  157.0176 H   0  0  0  0  0  0  0  0  0  0  0  0  # atno 8010 bound_to 7997
  140.0529  143.5042  152.2072 H   0  0  0  0  0  0  0  0  0  0  0  0  # atno 10167 bound_to 10162
  157.1781  130.6790  149.6103 H   0  0  0  0  0  0  0  0  0  0  0  0  # atno 10718 bound_to 10713
  154.7614  135.4919  153.9471 H   0  0  0  0  0  0  0  0  0  0  0  0  # atno 10763 bound_to 10752
  153.1255  135.6741  153.9271 H   0  0  0  0  0  0  0  0  0  0  0  0  # atno 10764 bound_to 10752
  153.8990  135.3112  155.3427 H   0  0  0  0  0  0  0  0  0  0  0  0  # atno 10765 bound_to 10752
  140.3283  134.2466  155.7706 H   0  0  0  0  0  0  0  0  0  0  0  0  # atno 11005 bound_to 11000
  144.9694  140.8353  143.5465 LP  0  0  0  0  0  0  0  0  0  0  0  0  # atno 17320 bound_to 7965
  145.2107  139.2206  143.5144 LP  0  0  0  0  0  0  0  0  0  0  0  0  # atno 17321 bound_to 7965
  139.5942  144.7561  151.3327 LP  0  0  0  0  0  0  0  0  0  0  0  0  # atno 17342 bound_to 10162
  140.7208  143.7140  150.7747 LP  0  0  0  0  0  0  0  0  0  0  0  0  # atno 17343 bound_to 10162
  155.9728  130.4656  150.6259 LP  0  0  0  0  0  0  0  0  0  0  0  0  # atno 17370 bound_to 10713
  157.3979  131.0805  151.1335 LP  0  0  0  0  0  0  0  0  0  0  0  0  # atno 17371 bound_to 10713
  141.2069  133.7819  157.0147 LP  0  0  0  0  0  0  0  0  0  0  0  0  # atno 17394 bound_to 11000
  140.0882  134.9608  157.1734 LP  0  0  0  0  0  0  0  0  0  0  0  0  # atno 17395 bound_to 11000

$$$$
