AV-unprocessed.smi:298|AV-procd|sdf|2262|dock1
  -GOLD-   2262022153D 1   1.00000     0.00000
 Structure written by MMmdl.
 38 40  0  0  0  0  0  0  0  0  1 V2000
  153.3700  142.4356  161.7680 C   0  0  0  0  0  0  0  0  0  0  0  0
  152.7599  142.2475  160.3903 C   0  0  0  0  0  0  0  0  0  0  0  0
  153.0262  141.0564  159.6776 C   0  0  0  0  0  0  0  0  0  0  0  0
  152.4746  140.8404  158.3959 C   0  0  0  0  0  0  0  0  0  0  0  0
  152.5965  139.7641  157.5333 N   0  0  0  0  0  0  0  0  0  0  0  0
  151.8479  140.1568  156.5065 C   0  0  0  0  0  0  0  0  0  0  0  0
  151.2540  141.3616  156.6026 N   0  0  0  0  0  0  0  0  0  0  0  0
  150.3926  141.9950  155.6208 C   0  0  0  0  0  0  0  0  0  0  0  0
  149.0312  141.2806  155.4820 C   0  0  1  0  0  0  0  0  0  0  0  0
  148.0752  142.1697  154.9362 O   0  0  0  0  0  0  0  0  0  0  0  0
  149.0922  139.9969  154.6255 C   0  0  0  0  0  0  0  0  0  0  0  0
  149.3607  138.7913  155.3929 N   0  0  0  0  0  0  0  0  0  0  0  0
  149.5571  137.5319  154.9888 C   0  0  0  0  0  0  0  0  0  0  0  0
  149.7741  136.6742  155.9780 N   0  0  0  0  0  0  0  0  0  0  0  0
  149.6954  137.5406  157.0294 C   0  0  0  0  0  0  0  0  0  0  0  0
  149.8653  137.0889  158.4001 C   0  0  0  0  0  0  0  0  0  0  0  0
  150.0007  136.7288  159.4916 N   0  0  0  0  0  0  0  0  0  0  0  0
  149.4566  138.8188  156.7447 N   0  0  0  0  0  0  0  0  0  0  0  0
  151.6431  141.8571  157.8423 C   0  0  0  0  0  0  0  0  0  0  0  0
  151.3718  143.0470  158.5404 C   0  0  0  0  0  0  0  0  0  0  0  0
  151.9304  143.2466  159.8201 C   0  0  0  0  0  0  0  0  0  0  0  0
  151.6289  144.5337  160.5671 C   0  0  0  0  0  0  0  0  0  0  0  0
  153.9905  141.5841  162.0482 H   0  0  0  0  0  0  0  0  0  0  0  0
  152.5882  142.5414  162.5206 H   0  0  0  0  0  0  0  0  0  0  0  0
  153.9967  143.3275  161.7909 H   0  0  0  0  0  0  0  0  0  0  0  0
  153.6567  140.2947  160.1124 H   0  0  0  0  0  0  0  0  0  0  0  0
  151.7200  139.5312  155.6351 H   0  0  0  0  0  0  0  0  0  0  0  0
  150.2601  143.0382  155.9093 H   0  0  0  0  0  0  0  0  0  0  0  0
  150.9123  142.0016  154.6617 H   0  0  0  0  0  0  0  0  0  0  0  0
  148.6771  141.0074  156.4767 H   0  0  0  0  0  0  0  0  0  0  0  0
  148.3195  143.0530  155.1674 H   0  0  0  0  0  0  0  0  0  0  0  0
  148.1425  139.8592  154.1072 H   0  0  0  0  0  0  0  0  0  0  0  0
  149.8523  140.0937  153.8487 H   0  0  0  0  0  0  0  0  0  0  0  0
  149.5346  137.2367  153.9499 H   0  0  0  0  0  0  0  0  0  0  0  0
  150.7354  143.7978  158.0953 H   0  0  0  0  0  0  0  0  0  0  0  0
  150.9618  145.1794  159.9950 H   0  0  0  0  0  0  0  0  0  0  0  0
  152.5479  145.0881  160.7592 H   0  0  0  0  0  0  0  0  0  0  0  0
  151.1476  144.3186  161.5214 H   0  0  0  0  0  0  0  0  0  0  0  0
  1  2  1  0  0  0  0
  1 23  1  0  0  0  0
  1 24  1  0  0  0  0
  1 25  1  0  0  0  0
  2 21  1  0  0  0  0
  2  3  2  0  0  0  0
  3  4  1  0  0  0  0
  3 26  1  0  0  0  0
  4 19  2  0  0  0  0
  4  5  1  0  0  0  0
  5  6  2  0  0  0  0
  6  7  1  0  0  0  0
  6 27  1  0  0  0  0
  7  8  1  0  0  0  0
  7 19  1  0  0  0  0
  8  9  1  0  0  0  0
  8 28  1  0  0  0  0
  8 29  1  0  0  0  0
  9 10  1  0  0  0  0
  9 11  1  0  0  0  0
  9 30  1  0  0  0  0
 10 31  1  0  0  0  0
 11 12  1  0  0  0  0
 11 32  1  0  0  0  0
 11 33  1  0  0  0  0
 12 18  1  0  0  0  0
 12 13  1  0  0  0  0
 13 14  2  0  0  0  0
 13 34  1  0  0  0  0
 14 15  1  0  0  0  0
 15 16  1  0  0  0  0
 15 18  2  0  0  0  0
 16 17  3  0  0  0  0
 19 20  1  0  0  0  0
 20 21  2  0  0  0  0
 20 35  1  0  0  0  0
 21 22  1  0  0  0  0
 22 36  1  0  0  0  0
 22 37  1  0  0  0  0
 22 38  1  0  0  0  0
M  END
> <s_m_source_file>
AV-unprocessed.smi

> <i_m_source_file_index>
298

> <i_lp_mmshare_version>
43012

> <i_f3d_flags>
0

> <s_epik_input>
W0NIM11jKFtjSF0xKWMoW0NIM10pW2NIXWMoYzEyKW4oW2NIXW4yKVtDSDJdW0NASF0oW09IXSlbQ0gyXW4zW2NIXW5jKG4zKUMjTg==

> <s_epik_cmdline>
J2VwaWtfcHl0aG9uJywgJy1waCcsICc3LjAnLCAnLXRuJywgJzgnLCAnLW1hJywgJzIwMCcsICctbWV0YWxfYmluZGluZycsICctaW1hZScsICc8aW5maWxlLm1hZT4nLCAnLW9tYWUnLCAnPG91dGZpbGUubWFlPic=

> <r_epik_Ionization_Penalty>
0.0968684

> <r_epik_Ionization_Penalty_Charging>
0

> <r_epik_Ionization_Penalty_Neutral>
0.0968684

> <r_epik_State_Penalty>
0.0870047

> <r_epik_Charging_Adjusted_Penalty>
0.0870047

> <i_epik_Tot_Q>
0

> <i_epik_Tot_abs_Q>
0

> <r_epik_Metal_State_Penalty>
0.0746849

> <b_epik_Metal_Only>
0

> <s_lp_Force_Field>
OPLS_2005

> <r_lp_Energy>
12.6861

> <b_lp_Chiralities_Consistent>
1

> <s_lp_Variant>
AV-unprocessed.smi:298-2

> <Gold.Version>
5.8.1

> <Gold.Id.Protein>
6NUR|6NUR_protein|mol2

> <Gold.PLP.Fitness>
50.0040

> <Gold.PLP.PLP>
-39.4270

> <Gold.PLP.part.hbond>
-3.0000

> <Gold.PLP.part.metal>
0.0000

> <Gold.PLP.part.buried>
-5.2293

> <Gold.PLP.part.nonpolar>
-30.1100

> <Gold.PLP.part.repulsive>
0.0501

> <Gold.PLP.ligand.clash>
0.0000

> <Gold.PLP.ligand.torsion>
0.7179

> <Gold.PLP.Chemscore.Hbond>
3.0000

> <Gold.PLP.Chemscore.CHOScore>
1.0000

> <Gold.PLP.Chemscore.Metal>
0.0000

> <Gold.Chemscore.Hbonds>
donor molecule, donor type, donor heavy atom, donor atom, acceptor molecule, acceptor atom, score
      L1  H    10    31       P1  8028  1.00
      P1  H  6896  6908       L1    17  1.00
      P1  H  7997  8010       L1     5  1.00
      L1  C    13    34       P1  7948  1.00

> <Gold.PLP.Chemscore.Internal.Correction>
0.0128

> <Gold.Rescore>
     Score         DG    S(hbond)    S(metal)    S(lipo)     H(rot)  DE(clash)    DE(int)     intcor
     16.38     -17.67       2.57        0.00      97.22       3.03       0.24       1.05       ----

> <Gold.Chemscore.Fitness>
16.3789

> <Gold.Chemscore.DG>
-17.6684

> <Gold.Chemscore.ZeroCoef>
-5.4800

> <Gold.Chemscore.Hbond>
2.5671

> <Gold.Chemscore.Metal>
0.0000

> <Gold.Chemscore.Lipo>
97.2229

> <Gold.Chemscore.Internal_Hbond>
0.0000

> <Gold.Chemscore.DEClash>
0.2442

> <Gold.Chemscore.DEInternal>
1.0453

> <Gold.Chemscore.Rot>
3.0316

> <Gold.Chemscore.Internal.Correction>
   9.000000E+99

> <Gold.Chemscore.Hbonds>
donor molecule, donor type, donor heavy atom, donor atom, acceptor molecule, acceptor atom, score
      L1  H    10    31       P1  8028  0.99
      P1  H  6896  6908       L1    17  0.89
      P1  H  7997  8010       L1     5  0.08

> <Gold.Chemscore.Hbond.Weighted>
-8.5742

> <Gold.Chemscore.Metal.Weighted>
-0.0000

> <Gold.Chemscore.Lipo.Weighted>
-11.3751

> <Gold.Chemscore.Internal_Hbond.Weighted>
0.0000

> <Gold.Chemscore.DEClash.Weighted>
0.2442

> <Gold.Chemscore.DEInternal.Weighted>
1.0453

> <Gold.Chemscore.Rot.Weighted>
7.7609

> <Gold.Chemscore.Internal.Correction.Weighted>
   9.000000E+99

> <Gold.Protein.RotatedTorsions>
[ 6907 6896 6895 6894 ] final -162.28 input  -60.11 | X-H torsion
[ 7974 7965 7964 7962 ] final -119.99 input  175.53 | X-H torsion
[ 8008 7997 7996 7995 ] final   46.66 input   59.86 | X-H torsion
[ 10167 10162 10161 10158 ] final -175.13 input  -65.29 | X-H torsion
[ 10718 10713 10712 10709 ] final   91.39 input   66.30 | X-H torsion
[ 10763 10752 10751 10750 ] final  -87.56 input  -60.55 | X-H torsion
[ 11005 11000 10999 10996 ] final -120.74 input  -57.11 | X-H torsion

> <Gold.Protein.ActiveResidues>
 VAL166  LYS551  ARG553  GLY616  TRP617  ASP618  TYR619  PRO620  LYS621  CYS622 
 ASP623  PHE694  ASN695  SER759  ASP760  ASP761  ALA762  ILE779  LEU786  VAL792 
 PHE793  MET794  SER795  GLU796  ALA797  LYS798  CYS799  TRP800  GLU811  SER814 

> <Gold.Protein.RotatedAtoms>
  151.3779  133.3831  159.2706 H   0  0  0  0  0  0  0  0  0  0  0  0  # atno 6907 bound_to 6896
  150.9600  134.8990  159.7735 H   0  0  0  0  0  0  0  0  0  0  0  0  # atno 6908 bound_to 6896
  152.5146  134.3737  159.9379 H   0  0  0  0  0  0  0  0  0  0  0  0  # atno 6909 bound_to 6896
  145.0564  140.8257  143.4178 H   0  0  0  0  0  0  0  0  0  0  0  0  # atno 7974 bound_to 7965
  155.3562  140.3416  155.4240 H   0  0  0  0  0  0  0  0  0  0  0  0  # atno 8008 bound_to 7997
  156.1738  140.1640  156.8435 H   0  0  0  0  0  0  0  0  0  0  0  0  # atno 8009 bound_to 7997
  154.5260  140.0756  156.8242 H   0  0  0  0  0  0  0  0  0  0  0  0  # atno 8010 bound_to 7997
  139.5597  144.1900  152.1219 H   0  0  0  0  0  0  0  0  0  0  0  0  # atno 10167 bound_to 10162
  157.6960  131.0405  150.3722 H   0  0  0  0  0  0  0  0  0  0  0  0  # atno 10718 bound_to 10713
  154.6350  135.5409  153.7723 H   0  0  0  0  0  0  0  0  0  0  0  0  # atno 10763 bound_to 10752
  153.0304  135.6445  154.1245 H   0  0  0  0  0  0  0  0  0  0  0  0  # atno 10764 bound_to 10752
  154.1173  135.2922  155.3196 H   0  0  0  0  0  0  0  0  0  0  0  0  # atno 10765 bound_to 10752
  141.0121  134.0249  157.3399 H   0  0  0  0  0  0  0  0  0  0  0  0  # atno 11005 bound_to 11000
  145.1463  139.2541  143.5464 LP  0  0  0  0  0  0  0  0  0  0  0  0  # atno 17320 bound_to 7965
  146.3521  140.1154  142.8602 LP  0  0  0  0  0  0  0  0  0  0  0  0  # atno 17321 bound_to 7965
  140.1411  144.5201  150.6743 LP  0  0  0  0  0  0  0  0  0  0  0  0  # atno 17342 bound_to 10162
  140.6875  143.2358  151.5220 LP  0  0  0  0  0  0  0  0  0  0  0  0  # atno 17343 bound_to 10162
  156.4145  130.3941  149.6868 LP  0  0  0  0  0  0  0  0  0  0  0  0  # atno 17370 bound_to 10713
  156.4140  130.7736  151.2750 LP  0  0  0  0  0  0  0  0  0  0  0  0  # atno 17371 bound_to 10713
  139.9096  135.0187  156.7635 LP  0  0  0  0  0  0  0  0  0  0  0  0  # atno 17394 bound_to 11000
  140.6716  133.9555  155.7859 LP  0  0  0  0  0  0  0  0  0  0  0  0  # atno 17395 bound_to 11000

$$$$
