AV-unprocessed.smi:1427|AV-procd|sdf|5809|dock9
  -GOLD-   22720 5463D 1   1.00000     0.00000
 Structure written by MMmdl.
 33 34  0  0  0  0  0  0  0  0  1 V2000
  151.1571  140.7040  157.5943 C   0  0  0  0  0  0  0  0  0  0  0  0
  150.8543  142.1563  157.1969 C   0  0  2  0  0  0  0  0  0  0  0  0
  150.5045  143.0222  158.4233 C   0  0  0  0  0  0  0  0  0  0  0  0
  151.5687  143.0300  159.4130 N   0  0  0  0  0  0  0  0  0  0  0  0
  152.8384  142.5028  159.3084 C   0  0  0  0  0  0  0  0  0  0  0  0
  153.4869  142.7696  160.4801 C   0  0  0  0  0  0  0  0  0  0  0  0
  152.5196  143.4746  161.2495 C   0  0  0  0  0  0  0  0  0  0  0  0
  151.3714  143.6254  160.6098 N   0  0  0  0  0  0  0  0  0  0  0  0
  149.7531  142.1951  156.2395 N   0  0  0  0  0  0  0  0  0  0  0  0
  149.6283  141.4268  155.1452 C   0  0  0  0  0  0  0  0  0  0  0  0
  150.4121  140.5168  154.8760 O   0  0  0  0  0  0  0  0  0  0  0  0
  148.4500  141.7170  154.1950 C   0  0  2  0  0  0  0  0  0  0  0  0
  147.0836  141.8059  154.9030 C   0  0  0  0  0  0  0  0  0  0  0  0
  146.4153  140.4481  154.6484 C   0  0  0  0  0  0  0  0  0  0  0  0
  147.1559  139.9414  153.4213 C   0  0  0  0  0  0  0  0  0  0  0  0
  146.7867  138.9788  152.7531 O   0  0  0  0  0  0  0  0  0  0  0  0
  148.2386  140.6850  153.1881 N   0  0  0  0  0  0  0  0  0  0  0  0
  151.9869  140.6570  158.2999 H   0  0  0  0  0  0  0  0  0  0  0  0
  151.4328  140.1058  156.7253 H   0  0  0  0  0  0  0  0  0  0  0  0
  150.2933  140.2323  158.0640 H   0  0  0  0  0  0  0  0  0  0  0  0
  151.7489  142.5765  156.7334 H   0  0  0  0  0  0  0  0  0  0  0  0
  150.2890  144.0492  158.1225 H   0  0  0  0  0  0  0  0  0  0  0  0
  149.6017  142.6439  158.9042 H   0  0  0  0  0  0  0  0  0  0  0  0
  153.1715  141.9909  158.4176 H   0  0  0  0  0  0  0  0  0  0  0  0
  154.4992  142.5037  160.7458 H   0  0  0  0  0  0  0  0  0  0  0  0
  152.6167  143.8781  162.2465 H   0  0  0  0  0  0  0  0  0  0  0  0
  149.0621  142.9184  156.3796 H   0  0  0  0  0  0  0  0  0  0  0  0
  148.6635  142.6591  153.6887 H   0  0  0  0  0  0  0  0  0  0  0  0
  147.1628  142.0269  155.9684 H   0  0  0  0  0  0  0  0  0  0  0  0
  146.4846  142.5996  154.4540 H   0  0  0  0  0  0  0  0  0  0  0  0
  146.5824  139.7595  155.4775 H   0  0  0  0  0  0  0  0  0  0  0  0
  145.3432  140.5373  154.4714 H   0  0  0  0  0  0  0  0  0  0  0  0
  148.8790  140.5305  152.4229 H   0  0  0  0  0  0  0  0  0  0  0  0
  1  2  1  0  0  0  0
  1 18  1  0  0  0  0
  1 19  1  0  0  0  0
  1 20  1  0  0  0  0
  2  3  1  0  0  0  0
  2  9  1  0  0  0  0
  2 21  1  0  0  0  0
  3  4  1  0  0  0  0
  3 22  1  0  0  0  0
  3 23  1  0  0  0  0
  4  8  1  0  0  0  0
  4  5  1  0  0  0  0
  5  6  2  0  0  0  0
  5 24  1  0  0  0  0
  6  7  1  0  0  0  0
  6 25  1  0  0  0  0
  7  8  2  0  0  0  0
  7 26  1  0  0  0  0
  9 10  1  0  0  0  0
  9 27  1  0  0  0  0
 10 11  2  0  0  0  0
 10 12  1  0  0  0  0
 12 17  1  0  0  0  0
 12 13  1  0  0  0  0
 12 28  1  0  0  0  0
 13 14  1  0  0  0  0
 13 29  1  0  0  0  0
 13 30  1  0  0  0  0
 14 15  1  0  0  0  0
 14 31  1  0  0  0  0
 14 32  1  0  0  0  0
 15 16  2  0  0  0  0
 15 17  1  0  0  0  0
 17 33  1  0  0  0  0
M  END
> <s_m_source_file>
AV-unprocessed.smi

> <i_m_source_file_index>
1427

> <i_lp_mmshare_version>
43012

> <i_f3d_flags>
0

> <s_epik_input>
bjFbY0hdW2NIXVtjSF1uMVtDSDJdW0NAQEhdKFtDSDNdKVtOSF1DKD1PKVtDQEBIXTJbQ0gyXVtDSDJdQyg9TylbTkhdMg==

> <s_epik_cmdline>
J2VwaWtfcHl0aG9uJywgJy1waCcsICc3LjAnLCAnLXRuJywgJzgnLCAnLW1hJywgJzIwMCcsICctbWV0YWxfYmluZGluZycsICctaW1hZScsICc8aW5maWxlLm1hZT4nLCAnLW9tYWUnLCAnPG91dGZpbGUubWFlPic=

> <r_lp_tautomer_probability>
1

> <r_epik_Ionization_Penalty>
0.000310707

> <r_epik_Ionization_Penalty_Charging>
0

> <r_epik_Ionization_Penalty_Neutral>
0.000310707

> <r_epik_State_Penalty>
-0

> <r_epik_Charging_Adjusted_Penalty>
0

> <i_epik_Tot_Q>
0

> <i_epik_Tot_abs_Q>
0

> <r_epik_Metal_State_Penalty>
-0

> <b_epik_Metal_Only>
0

> <s_lp_Force_Field>
OPLS_2005

> <r_lp_Energy>
13.3236

> <b_lp_Chiralities_Consistent>
1

> <s_lp_Variant>
AV-unprocessed.smi:1427-1

> <Gold.Version>
5.8.1

> <Gold.Id.Protein>
6NUR|6NUR_protein|mol2

> <Gold.PLP.Fitness>
44.3782

> <Gold.PLP.PLP>
-36.8895

> <Gold.PLP.part.hbond>
-3.6651

> <Gold.PLP.part.metal>
0.0000

> <Gold.PLP.part.buried>
-6.4652

> <Gold.PLP.part.nonpolar>
-28.6149

> <Gold.PLP.part.repulsive>
0.6949

> <Gold.PLP.ligand.clash>
0.0000

> <Gold.PLP.ligand.torsion>
0.3709

> <Gold.PLP.Chemscore.Hbond>
2.7360

> <Gold.PLP.Chemscore.CHOScore>
0.0000

> <Gold.PLP.Chemscore.Metal>
0.0000

> <Gold.Chemscore.Hbonds>
donor molecule, donor type, donor heavy atom, donor atom, acceptor molecule, acceptor atom, score
      L1  H     9    27       P1  8028  0.66
      L1  H    17    33       P1  7957  1.00
      P1  H  7989  7998       L1    11  0.99

> <Gold.PLP.Chemscore.Internal.Correction>
0.0225

> <Gold.Rescore>
     Score         DG    S(hbond)    S(metal)    S(lipo)     H(rot)  DE(clash)    DE(int)     intcor
     15.47     -17.26       2.46        0.00      71.75       1.88       0.24       1.54       ----

> <Gold.Chemscore.Fitness>
15.4728

> <Gold.Chemscore.DG>
-17.2595

> <Gold.Chemscore.ZeroCoef>
-5.4800

> <Gold.Chemscore.Hbond>
2.4558

> <Gold.Chemscore.Metal>
0.0000

> <Gold.Chemscore.Lipo>
71.7549

> <Gold.Chemscore.Internal_Hbond>
0.0000

> <Gold.Chemscore.DEClash>
0.2424

> <Gold.Chemscore.DEInternal>
1.5444

> <Gold.Chemscore.Rot>
1.8821

> <Gold.Chemscore.Internal.Correction>
   9.000000E+99

> <Gold.Chemscore.Hbonds>
donor molecule, donor type, donor heavy atom, donor atom, acceptor molecule, acceptor atom, score
      L1  H     9    27       P1  8028  0.65
      L1  H    17    33       P1  7957  0.93
      P1  H  7989  7998       L1    11  0.85

> <Gold.Chemscore.Hbond.Weighted>
-8.2023

> <Gold.Chemscore.Metal.Weighted>
-0.0000

> <Gold.Chemscore.Lipo.Weighted>
-8.3953

> <Gold.Chemscore.Internal_Hbond.Weighted>
0.0000

> <Gold.Chemscore.DEClash.Weighted>
0.2424

> <Gold.Chemscore.DEInternal.Weighted>
1.5444

> <Gold.Chemscore.Rot.Weighted>
4.8181

> <Gold.Chemscore.Internal.Correction.Weighted>
   9.000000E+99

> <Gold.Protein.RotatedTorsions>
[ 6907 6896 6895 6894 ] final  -73.18 input  -60.11 | X-H torsion
[ 7974 7965 7964 7962 ] final  -49.09 input  175.53 | X-H torsion
[ 8008 7997 7996 7995 ] final  -40.11 input   59.86 | X-H torsion
[ 10167 10162 10161 10158 ] final    3.97 input  -65.29 | X-H torsion
[ 10718 10713 10712 10709 ] final  103.52 input   66.30 | X-H torsion
[ 10763 10752 10751 10750 ] final -118.30 input  -60.55 | X-H torsion
[ 11005 11000 10999 10996 ] final    6.30 input  -57.11 | X-H torsion

> <Gold.Protein.ActiveResidues>
 VAL166  LYS551  ARG553  GLY616  TRP617  ASP618  TYR619  PRO620  LYS621  CYS622 
 ASP623  PHE694  ASN695  SER759  ASP760  ASP761  ALA762  ILE779  LEU786  VAL792 
 PHE793  MET794  SER795  GLU796  ALA797  LYS798  CYS799  TRP800  GLU811  SER814 

> <Gold.Protein.RotatedAtoms>
  150.7140  134.5055  159.5581 H   0  0  0  0  0  0  0  0  0  0  0  0  # atno 6907 bound_to 6896
  152.2643  134.7998  160.0434 H   0  0  0  0  0  0  0  0  0  0  0  0  # atno 6908 bound_to 6896
  151.8701  133.3438  159.3768 H   0  0  0  0  0  0  0  0  0  0  0  0  # atno 6909 bound_to 6896
  145.9443  140.7633  142.9536 H   0  0  0  0  0  0  0  0  0  0  0  0  # atno 7974 bound_to 7965
  154.4015  140.1534  156.2974 H   0  0  0  0  0  0  0  0  0  0  0  0  # atno 8008 bound_to 7997
  155.8731  140.3448  155.5813 H   0  0  0  0  0  0  0  0  0  0  0  0  # atno 8009 bound_to 7997
  155.7752  140.0836  157.2078 H   0  0  0  0  0  0  0  0  0  0  0  0  # atno 8010 bound_to 7997
  140.6558  143.7430  150.7652 H   0  0  0  0  0  0  0  0  0  0  0  0  # atno 10167 bound_to 10162
  157.6770  131.0781  150.5567 H   0  0  0  0  0  0  0  0  0  0  0  0  # atno 10718 bound_to 10713
  154.8583  135.4279  154.2117 H   0  0  0  0  0  0  0  0  0  0  0  0  # atno 10763 bound_to 10752
  153.3141  135.6978  153.7094 H   0  0  0  0  0  0  0  0  0  0  0  0  # atno 10764 bound_to 10752
  153.6175  135.3508  155.2973 H   0  0  0  0  0  0  0  0  0  0  0  0  # atno 10765 bound_to 10752
  140.5611  134.0192  155.7972 H   0  0  0  0  0  0  0  0  0  0  0  0  # atno 11005 bound_to 11000
  144.6784  140.2330  143.7353 LP  0  0  0  0  0  0  0  0  0  0  0  0  # atno 17320 bound_to 7965
  145.8258  139.2064  143.1911 LP  0  0  0  0  0  0  0  0  0  0  0  0  # atno 17321 bound_to 7965
  140.1089  143.4718  152.2382 LP  0  0  0  0  0  0  0  0  0  0  0  0  # atno 17342 bound_to 10162
  139.5781  144.7497  151.3712 LP  0  0  0  0  0  0  0  0  0  0  0  0  # atno 17343 bound_to 10162
  156.5871  130.4319  149.5952 LP  0  0  0  0  0  0  0  0  0  0  0  0  # atno 17370 bound_to 10713
  156.2614  130.6964  151.1734 LP  0  0  0  0  0  0  0  0  0  0  0  0  # atno 17371 bound_to 10713
  141.1114  133.9610  157.2903 LP  0  0  0  0  0  0  0  0  0  0  0  0  # atno 17394 bound_to 11000
  139.9407  135.0191  156.8700 LP  0  0  0  0  0  0  0  0  0  0  0  0  # atno 17395 bound_to 11000

$$$$
