AV-unprocessed.smi:1485|AV-procd|sdf|6001|dock5
  -GOLD-   22720 6 93D 1   1.00000     0.00000
 Structure written by MMmdl.
 44 45  0  0  0  0  0  0  0  0  1 V2000
  146.1647  142.6784  154.7402 C   0  0  0  0  0  0  0  0  0  0  0  0
  147.4478  142.3156  154.2630 O   0  0  0  0  0  0  0  0  0  0  0  0
  147.9290  141.1151  154.8463 C   0  0  0  0  0  0  0  0  0  0  0  0
  149.2010  140.6650  154.1102 C   0  0  0  0  0  0  0  0  0  0  0  0
  149.6232  139.3233  154.5276 N   0  0  0  0  0  0  0  0  0  0  0  0
  148.5813  138.4190  154.6377 N   0  0  0  0  0  0  0  0  0  0  0  0
  148.8112  137.2011  155.0078 C   0  0  0  0  0  0  0  0  0  0  0  0
  147.7106  136.2119  155.1679 C   0  0  0  0  0  0  0  0  0  0  0  0
  147.1090  136.0710  156.2338 O   0  0  0  0  0  0  0  0  0  0  0  0
  147.4266  135.4967  154.0650 N   0  0  0  0  0  0  0  0  0  0  0  0
  146.3926  134.4721  153.9425 C   0  0  2  0  0  0  0  0  0  0  0  0
  146.9990  133.1244  153.5016 C   0  0  0  0  0  0  0  0  0  0  0  0
  147.5022  133.1649  152.0481 C   0  0  0  0  0  0  0  0  0  0  0  0
  146.3965  133.6238  151.0837 C   0  0  0  0  0  0  0  0  0  0  0  0
  145.8125  134.9880  151.4975 C   0  0  1  0  0  0  0  0  0  0  0  0
  144.7061  135.4417  150.5351 C   0  0  0  0  0  0  0  0  0  0  0  0
  145.3048  134.9366  152.9539 C   0  0  0  0  0  0  0  0  0  0  0  0
  150.1637  136.7533  155.2931 C   0  0  0  0  0  0  0  0  0  0  0  0
  151.1688  137.6516  155.1996 C   0  0  0  0  0  0  0  0  0  0  0  0
  150.9309  139.0438  154.8128 C   0  0  0  0  0  0  0  0  0  0  0  0
  151.8248  139.8876  154.7535 O   0  0  0  0  0  0  0  0  0  0  0  0
  145.8502  143.6099  154.2698 H   0  0  0  0  0  0  0  0  0  0  0  0
  146.1745  142.8331  155.8198 H   0  0  0  0  0  0  0  0  0  0  0  0
  145.4249  141.9135  154.5018 H   0  0  0  0  0  0  0  0  0  0  0  0
  148.1610  141.2922  155.8973 H   0  0  0  0  0  0  0  0  0  0  0  0
  147.1666  140.3352  154.8087 H   0  0  0  0  0  0  0  0  0  0  0  0
  149.0303  140.6863  153.0323 H   0  0  0  0  0  0  0  0  0  0  0  0
  149.9994  141.3879  154.2861 H   0  0  0  0  0  0  0  0  0  0  0  0
  147.9724  135.6850  153.2362 H   0  0  0  0  0  0  0  0  0  0  0  0
  145.9192  134.3383  154.9166 H   0  0  0  0  0  0  0  0  0  0  0  0
  147.8102  132.8347  154.1709 H   0  0  0  0  0  0  0  0  0  0  0  0
  146.2403  132.3462  153.5927 H   0  0  0  0  0  0  0  0  0  0  0  0
  148.3573  133.8379  151.9718 H   0  0  0  0  0  0  0  0  0  0  0  0
  147.8621  132.1786  151.7546 H   0  0  0  0  0  0  0  0  0  0  0  0
  146.7973  133.6815  150.0712 H   0  0  0  0  0  0  0  0  0  0  0  0
  145.6032  132.8755  151.0591 H   0  0  0  0  0  0  0  0  0  0  0  0
  146.6122  135.7276  151.4401 H   0  0  0  0  0  0  0  0  0  0  0  0
  143.8658  134.7469  150.5401 H   0  0  0  0  0  0  0  0  0  0  0  0
  145.0780  135.5077  149.5125 H   0  0  0  0  0  0  0  0  0  0  0  0
  144.3266  136.4260  150.8110 H   0  0  0  0  0  0  0  0  0  0  0  0
  144.4572  134.2522  153.0139 H   0  0  0  0  0  0  0  0  0  0  0  0
  144.9246  135.9141  153.2537 H   0  0  0  0  0  0  0  0  0  0  0  0
  150.3668  135.7320  155.5804 H   0  0  0  0  0  0  0  0  0  0  0  0
  152.1787  137.3341  155.4142 H   0  0  0  0  0  0  0  0  0  0  0  0
  1  2  1  0  0  0  0
  1 22  1  0  0  0  0
  1 23  1  0  0  0  0
  1 24  1  0  0  0  0
  2  3  1  0  0  0  0
  3  4  1  0  0  0  0
  3 25  1  0  0  0  0
  3 26  1  0  0  0  0
  4  5  1  0  0  0  0
  4 27  1  0  0  0  0
  4 28  1  0  0  0  0
  5 20  1  0  0  0  0
  5  6  1  0  0  0  0
  6  7  2  0  0  0  0
  7  8  1  0  0  0  0
  7 18  1  0  0  0  0
  8  9  2  0  0  0  0
  8 10  1  0  0  0  0
 10 11  1  0  0  0  0
 10 29  1  0  0  0  0
 11 17  1  0  0  0  0
 11 12  1  0  0  0  0
 11 30  1  0  0  0  0
 12 13  1  0  0  0  0
 12 31  1  0  0  0  0
 12 32  1  0  0  0  0
 13 14  1  0  0  0  0
 13 33  1  0  0  0  0
 13 34  1  0  0  0  0
 14 15  1  0  0  0  0
 14 35  1  0  0  0  0
 14 36  1  0  0  0  0
 15 16  1  0  0  0  0
 15 17  1  0  0  0  0
 15 37  1  0  0  0  0
 16 38  1  0  0  0  0
 16 39  1  0  0  0  0
 16 40  1  0  0  0  0
 17 41  1  0  0  0  0
 17 42  1  0  0  0  0
 18 19  2  0  0  0  0
 18 43  1  0  0  0  0
 19 20  1  0  0  0  0
 19 44  1  0  0  0  0
 20 21  2  0  0  0  0
M  END
> <s_m_source_file>
AV-unprocessed.smi

> <i_m_source_file_index>
1485

> <i_lp_mmshare_version>
43012

> <i_f3d_flags>
0

> <s_epik_input>
W0NIM11PW0NIMl1bQ0gyXW4xbmMoW2NIXVtjSF1jMT1PKUMoPU8pW05IXVtDQEBIXTJbQ0gyXVtDSDJdW0NIMl1bQ0BASF0oW0NIM10pW0NIMl0y

> <s_epik_cmdline>
J2VwaWtfcHl0aG9uJywgJy1waCcsICc3LjAnLCAnLXRuJywgJzgnLCAnLW1hJywgJzIwMCcsICctbWV0YWxfYmluZGluZycsICctaW1hZScsICc8aW5maWxlLm1hZT4nLCAnLW9tYWUnLCAnPG91dGZpbGUubWFlPic=

> <r_lp_tautomer_probability>
1

> <r_epik_Ionization_Penalty>
6.4688e-07

> <r_epik_Ionization_Penalty_Charging>
6.63567e-09

> <r_epik_Ionization_Penalty_Neutral>
6.40245e-07

> <r_epik_State_Penalty>
-0

> <r_epik_Charging_Adjusted_Penalty>
6.63567e-09

> <i_epik_Tot_Q>
0

> <i_epik_Tot_abs_Q>
0

> <r_epik_Metal_State_Penalty>
-0

> <b_epik_Metal_Only>
0

> <s_lp_Force_Field>
OPLS_2005

> <r_lp_Energy>
29.3151

> <b_lp_Chiralities_Consistent>
1

> <s_lp_Variant>
AV-unprocessed.smi:1485-1

> <Gold.Version>
5.8.1

> <Gold.Id.Protein>
6NUR|6NUR_protein|mol2

> <Gold.PLP.Fitness>
34.5749

> <Gold.PLP.PLP>
-32.0748

> <Gold.PLP.part.hbond>
-1.9316

> <Gold.PLP.part.metal>
0.0000

> <Gold.PLP.part.buried>
-3.5710

> <Gold.PLP.part.nonpolar>
-27.3812

> <Gold.PLP.part.repulsive>
0.3865

> <Gold.PLP.ligand.clash>
0.0000

> <Gold.PLP.ligand.torsion>
1.7637

> <Gold.PLP.Chemscore.Hbond>
2.0000

> <Gold.PLP.Chemscore.CHOScore>
0.0000

> <Gold.PLP.Chemscore.Metal>
0.0000

> <Gold.Chemscore.Hbonds>
donor molecule, donor type, donor heavy atom, donor atom, acceptor molecule, acceptor atom, score
      L1  H    10    29       P1  7948  1.00
      P1  H  7989  7998       L1    21  0.99

> <Gold.PLP.Chemscore.Internal.Correction>
0.0274

> <Gold.Rescore>
     Score         DG    S(hbond)    S(metal)    S(lipo)     H(rot)  DE(clash)    DE(int)     intcor
     13.90     -15.68       1.95        0.00      65.38       1.55       0.01       1.77       ----

> <Gold.Chemscore.Fitness>
13.8953

> <Gold.Chemscore.DG>
-15.6752

> <Gold.Chemscore.ZeroCoef>
-5.4800

> <Gold.Chemscore.Hbond>
1.9484

> <Gold.Chemscore.Metal>
0.0000

> <Gold.Chemscore.Lipo>
65.3840

> <Gold.Chemscore.Internal_Hbond>
0.0000

> <Gold.Chemscore.DEClash>
0.0117

> <Gold.Chemscore.DEInternal>
1.7681

> <Gold.Chemscore.Rot>
1.5478

> <Gold.Chemscore.Internal.Correction>
   9.000000E+99

> <Gold.Chemscore.Hbonds>
donor molecule, donor type, donor heavy atom, donor atom, acceptor molecule, acceptor atom, score
      L1  H    10    29       P1  7948  1.00
      P1  H  7989  7998       L1    21  0.78

> <Gold.Chemscore.Hbond.Weighted>
-6.5075

> <Gold.Chemscore.Metal.Weighted>
-0.0000

> <Gold.Chemscore.Lipo.Weighted>
-7.6499

> <Gold.Chemscore.Internal_Hbond.Weighted>
0.0000

> <Gold.Chemscore.DEClash.Weighted>
0.0117

> <Gold.Chemscore.DEInternal.Weighted>
1.7681

> <Gold.Chemscore.Rot.Weighted>
3.9623

> <Gold.Chemscore.Internal.Correction.Weighted>
   9.000000E+99

> <Gold.Protein.RotatedTorsions>
[ 6907 6896 6895 6894 ] final   79.21 input  -60.11 | X-H torsion
[ 7974 7965 7964 7962 ] final   -9.58 input  175.53 | X-H torsion
[ 8008 7997 7996 7995 ] final  174.24 input   59.86 | X-H torsion
[ 10167 10162 10161 10158 ] final  166.70 input  -65.29 | X-H torsion
[ 10718 10713 10712 10709 ] final  -63.78 input   66.30 | X-H torsion
[ 10763 10752 10751 10750 ] final  -28.60 input  -60.55 | X-H torsion
[ 11005 11000 10999 10996 ] final  149.86 input  -57.11 | X-H torsion

> <Gold.Protein.ActiveResidues>
 VAL166  LYS551  ARG553  GLY616  TRP617  ASP618  TYR619  PRO620  LYS621  CYS622 
 ASP623  PHE694  ASN695  SER759  ASP760  ASP761  ALA762  ILE779  LEU786  VAL792 
 PHE793  MET794  SER795  GLU796  ALA797  LYS798  CYS799  TRP800  GLU811  SER814 

> <Gold.Protein.RotatedAtoms>
  152.5190  134.3546  159.9262 H   0  0  0  0  0  0  0  0  0  0  0  0  # atno 6907 bound_to 6896
  151.3497  133.3924  159.2687 H   0  0  0  0  0  0  0  0  0  0  0  0  # atno 6908 bound_to 6896
  150.9737  134.9124  159.7861 H   0  0  0  0  0  0  0  0  0  0  0  0  # atno 6909 bound_to 6896
  146.2247  140.2637  142.8353 H   0  0  0  0  0  0  0  0  0  0  0  0  # atno 7974 bound_to 7965
  156.0994  140.1439  156.9487 H   0  0  0  0  0  0  0  0  0  0  0  0  # atno 8008 bound_to 7997
  154.4693  140.0915  156.7148 H   0  0  0  0  0  0  0  0  0  0  0  0  # atno 8009 bound_to 7997
  155.4785  140.3444  155.4338 H   0  0  0  0  0  0  0  0  0  0  0  0  # atno 8010 bound_to 7997
  139.4930  144.3999  151.9421 H   0  0  0  0  0  0  0  0  0  0  0  0  # atno 10167 bound_to 10162
  156.0769  130.4225  150.1327 H   0  0  0  0  0  0  0  0  0  0  0  0  # atno 10718 bound_to 10713
  153.7510  135.6926  153.4945 H   0  0  0  0  0  0  0  0  0  0  0  0  # atno 10763 bound_to 10752
  153.2003  135.4439  155.0257 H   0  0  0  0  0  0  0  0  0  0  0  0  # atno 10764 bound_to 10752
  154.8187  135.3411  154.7031 H   0  0  0  0  0  0  0  0  0  0  0  0  # atno 10765 bound_to 10752
  140.1082  134.8941  157.1896 H   0  0  0  0  0  0  0  0  0  0  0  0  # atno 11005 bound_to 11000
  144.9320  140.7985  143.5683 LP  0  0  0  0  0  0  0  0  0  0  0  0  # atno 17320 bound_to 7965
  145.2581  139.2003  143.4906 LP  0  0  0  0  0  0  0  0  0  0  0  0  # atno 17321 bound_to 7965
  140.3438  144.3171  150.5962 LP  0  0  0  0  0  0  0  0  0  0  0  0  # atno 17342 bound_to 10162
  140.5543  143.2201  151.7874 LP  0  0  0  0  0  0  0  0  0  0  0  0  # atno 17343 bound_to 10162
  156.9366  130.9731  151.3523 LP  0  0  0  0  0  0  0  0  0  0  0  0  # atno 17370 bound_to 10713
  157.5869  130.8416  149.8602 LP  0  0  0  0  0  0  0  0  0  0  0  0  # atno 17371 bound_to 10713
  140.3127  134.3005  155.7263 LP  0  0  0  0  0  0  0  0  0  0  0  0  # atno 17394 bound_to 11000
  141.2123  133.7661  156.9800 LP  0  0  0  0  0  0  0  0  0  0  0  0  # atno 17395 bound_to 11000

$$$$
