AV-unprocessed.smi:1366|AV-procd|sdf|5570|dock4
  -GOLD-   22720 5163D 1   1.00000     0.00000
 Structure written by MMmdl.
 31 32  0  0  0  0  0  0  0  0  1 V2000
  150.7074  135.5862  154.7746 N   0  0  0  0  0  0  0  0  0  0  0  0
  150.7368  136.7192  155.0071 C   0  0  0  0  0  0  0  0  0  0  0  0
  150.7738  138.1454  155.3000 C   0  0  0  0  0  0  0  0  0  0  0  0
  151.3417  138.6134  156.5055 C   0  0  0  0  0  0  0  0  0  0  0  0
  151.3910  139.9286  156.8097 N   0  0  0  0  0  0  0  0  0  0  0  0
  150.8749  140.7617  155.9047 C   0  0  0  0  0  0  0  0  0  0  0  0
  150.9298  142.4877  156.3055 S   0  0  0  0  0  0  0  0  0  0  0  0
  150.4498  142.3938  158.0517 C   0  0  0  0  0  0  0  0  0  0  0  0
  151.4889  143.0564  158.9659 C   0  0  2  0  0  0  0  0  0  0  0  0
  152.0611  142.0671  159.9996 C   0  0  0  0  0  0  0  0  0  0  0  0
  153.0320  142.7800  160.9479 C   0  0  0  0  0  0  0  0  0  0  0  0
  152.3480  144.0062  161.5614 C   0  0  0  0  0  0  0  0  0  0  0  0
  151.7576  144.8964  160.4566 C   0  0  0  0  0  0  0  0  0  0  0  0
  150.8603  144.1376  159.6521 O   0  0  0  0  0  0  0  0  0  0  0  0
  150.3134  140.4479  154.7358 N   0  0  0  0  0  0  0  0  0  0  0  0
  150.2579  139.1347  154.4237 C   0  0  0  0  0  0  0  0  0  0  0  0
  149.6655  138.8184  153.1997 N   0  0  0  0  0  0  0  0  0  0  0  0
  151.7591  137.9329  157.2337 H   0  0  0  0  0  0  0  0  0  0  0  0
  149.4760  142.8685  158.1775 H   0  0  0  0  0  0  0  0  0  0  0  0
  150.3309  141.3431  158.3178 H   0  0  0  0  0  0  0  0  0  0  0  0
  152.3013  143.4457  158.3493 H   0  0  0  0  0  0  0  0  0  0  0  0
  151.2473  141.6258  160.5768 H   0  0  0  0  0  0  0  0  0  0  0  0
  152.5696  141.2441  159.4966 H   0  0  0  0  0  0  0  0  0  0  0  0
  153.3684  142.0996  161.7307 H   0  0  0  0  0  0  0  0  0  0  0  0
  153.9212  143.0917  160.3983 H   0  0  0  0  0  0  0  0  0  0  0  0
  151.5513  143.6843  162.2334 H   0  0  0  0  0  0  0  0  0  0  0  0
  153.0575  144.5726  162.1650 H   0  0  0  0  0  0  0  0  0  0  0  0
  151.2137  145.7312  160.8987 H   0  0  0  0  0  0  0  0  0  0  0  0
  152.5468  145.3238  159.8363 H   0  0  0  0  0  0  0  0  0  0  0  0
  149.5787  137.8630  152.8840 H   0  0  0  0  0  0  0  0  0  0  0  0
  149.2995  139.5378  152.5926 H   0  0  0  0  0  0  0  0  0  0  0  0
  1  2  3  0  0  0  0
  2  3  1  0  0  0  0
  3 16  1  0  0  0  0
  3  4  2  0  0  0  0
  4  5  1  0  0  0  0
  4 18  1  0  0  0  0
  5  6  2  0  0  0  0
  6  7  1  0  0  0  0
  6 15  1  0  0  0  0
  7  8  1  0  0  0  0
  8  9  1  0  0  0  0
  8 19  1  0  0  0  0
  8 20  1  0  0  0  0
  9 14  1  0  0  0  0
  9 10  1  0  0  0  0
  9 21  1  0  0  0  0
 10 11  1  0  0  0  0
 10 22  1  0  0  0  0
 10 23  1  0  0  0  0
 11 12  1  0  0  0  0
 11 24  1  0  0  0  0
 11 25  1  0  0  0  0
 12 13  1  0  0  0  0
 12 26  1  0  0  0  0
 12 27  1  0  0  0  0
 13 14  1  0  0  0  0
 13 28  1  0  0  0  0
 13 29  1  0  0  0  0
 15 16  2  0  0  0  0
 16 17  1  0  0  0  0
 17 30  1  0  0  0  0
 17 31  1  0  0  0  0
M  END
> <s_m_source_file>
AV-unprocessed.smi

> <i_m_source_file_index>
1366

> <i_lp_mmshare_version>
43012

> <i_f3d_flags>
0

> <s_epik_input>
TiNDYzFbY0hdbmMobmMxW05IMl0pU1tDSDJdW0NAQEhdMltDSDJdW0NIMl1bQ0gyXVtDSDJdTzI=

> <s_epik_cmdline>
J2VwaWtfcHl0aG9uJywgJy1waCcsICc3LjAnLCAnLXRuJywgJzgnLCAnLW1hJywgJzIwMCcsICctbWV0YWxfYmluZGluZycsICctaW1hZScsICc8aW5maWxlLm1hZT4nLCAnLW9tYWUnLCAnPG91dGZpbGUubWFlPic=

> <r_lp_tautomer_probability>
1

> <r_epik_Ionization_Penalty>
5.69531e-05

> <r_epik_Ionization_Penalty_Charging>
0

> <r_epik_Ionization_Penalty_Neutral>
5.69531e-05

> <r_epik_State_Penalty>
-0

> <r_epik_Charging_Adjusted_Penalty>
0

> <i_epik_Tot_Q>
0

> <i_epik_Tot_abs_Q>
0

> <r_epik_Metal_State_Penalty>
-0

> <b_epik_Metal_Only>
0

> <s_lp_Force_Field>
OPLS_2005

> <r_lp_Energy>
5.78872

> <b_lp_Chiralities_Consistent>
1

> <s_lp_Variant>
AV-unprocessed.smi:1366-1

> <Gold.Version>
5.8.1

> <Gold.Id.Protein>
6NUR|6NUR_protein|mol2

> <Gold.PLP.Fitness>
42.1211

> <Gold.PLP.PLP>
-34.8721

> <Gold.PLP.part.hbond>
-4.0000

> <Gold.PLP.part.metal>
0.0000

> <Gold.PLP.part.buried>
-5.1832

> <Gold.PLP.part.nonpolar>
-25.2890

> <Gold.PLP.part.repulsive>
0.4100

> <Gold.PLP.ligand.clash>
0.0000

> <Gold.PLP.ligand.torsion>
1.3537

> <Gold.PLP.Chemscore.Hbond>
3.3184

> <Gold.PLP.Chemscore.CHOScore>
0.0000

> <Gold.PLP.Chemscore.Metal>
0.0000

> <Gold.Chemscore.Hbonds>
donor molecule, donor type, donor heavy atom, donor atom, acceptor molecule, acceptor atom, score
      L1  H    17    30       P1  7948  1.00
      L1  H    17    31       P1  7957  0.70
      P1  H  7989  7998       L1    15  0.80
      P1  H 10752 10765       L1     1  0.20

> <Gold.PLP.Chemscore.Internal.Correction>
0.0012

> <Gold.Rescore>
     Score         DG    S(hbond)    S(metal)    S(lipo)     H(rot)  DE(clash)    DE(int)     intcor
     15.94     -17.36       2.06        0.00      80.60       1.73       0.07       1.35       ----

> <Gold.Chemscore.Fitness>
15.9378

> <Gold.Chemscore.DG>
-17.3554

> <Gold.Chemscore.ZeroCoef>
-5.4800

> <Gold.Chemscore.Hbond>
2.0554

> <Gold.Chemscore.Metal>
0.0000

> <Gold.Chemscore.Lipo>
80.6001

> <Gold.Chemscore.Internal_Hbond>
0.0000

> <Gold.Chemscore.DEClash>
0.0696

> <Gold.Chemscore.DEInternal>
1.3480

> <Gold.Chemscore.Rot>
1.7266

> <Gold.Chemscore.Internal.Correction>
   9.000000E+99

> <Gold.Chemscore.Hbonds>
donor molecule, donor type, donor heavy atom, donor atom, acceptor molecule, acceptor atom, score
      L1  H    17    30       P1  7948  0.72
      L1  H    17    31       P1  7957  0.66
      P1  H  7989  7998       L1    15  0.05
      P1  H 10752 10765       L1     1  0.01

> <Gold.Chemscore.Hbond.Weighted>
-6.8652

> <Gold.Chemscore.Metal.Weighted>
-0.0000

> <Gold.Chemscore.Lipo.Weighted>
-9.4302

> <Gold.Chemscore.Internal_Hbond.Weighted>
0.0000

> <Gold.Chemscore.DEClash.Weighted>
0.0696

> <Gold.Chemscore.DEInternal.Weighted>
1.3480

> <Gold.Chemscore.Rot.Weighted>
4.4200

> <Gold.Chemscore.Internal.Correction.Weighted>
   9.000000E+99

> <Gold.Protein.RotatedTorsions>
[ 6907 6896 6895 6894 ] final  -64.59 input  -60.11 | X-H torsion
[ 7974 7965 7964 7962 ] final   10.36 input  175.53 | X-H torsion
[ 8008 7997 7996 7995 ] final   82.32 input   59.86 | X-H torsion
[ 10167 10162 10161 10158 ] final   65.06 input  -65.29 | X-H torsion
[ 10718 10713 10712 10709 ] final   19.43 input   66.30 | X-H torsion
[ 10763 10752 10751 10750 ] final -167.91 input  -60.55 | X-H torsion
[ 11005 11000 10999 10996 ] final   87.14 input  -57.11 | X-H torsion

> <Gold.Protein.ActiveResidues>
 VAL166  LYS551  ARG553  GLY616  TRP617  ASP618  TYR619  PRO620  LYS621  CYS622 
 ASP623  PHE694  ASN695  SER759  ASP760  ASP761  ALA762  ILE779  LEU786  VAL792 
 PHE793  MET794  SER795  GLU796  ALA797  LYS798  CYS799  TRP800  GLU811  SER814 

> <Gold.Protein.RotatedAtoms>
  150.7576  134.6277  159.6169 H   0  0  0  0  0  0  0  0  0  0  0  0  # atno 6907 bound_to 6896
  152.3564  134.6931  160.0230 H   0  0  0  0  0  0  0  0  0  0  0  0  # atno 6908 bound_to 6896
  151.7335  133.3282  159.3383 H   0  0  0  0  0  0  0  0  0  0  0  0  # atno 6909 bound_to 6896
  146.2389  139.9646  142.8454 H   0  0  0  0  0  0  0  0  0  0  0  0  # atno 7974 bound_to 7965
  155.9090  140.3428  155.6084 H   0  0  0  0  0  0  0  0  0  0  0  0  # atno 8008 bound_to 7997
  155.7410  140.0807  157.2264 H   0  0  0  0  0  0  0  0  0  0  0  0  # atno 8009 bound_to 7997
  154.4053  140.1570  156.2603 H   0  0  0  0  0  0  0  0  0  0  0  0  # atno 8010 bound_to 7997
  140.1154  144.4780  150.6953 H   0  0  0  0  0  0  0  0  0  0  0  0  # atno 10167 bound_to 10162
  157.1104  130.6506  149.5896 H   0  0  0  0  0  0  0  0  0  0  0  0  # atno 10718 bound_to 10713
  154.6683  135.2935  154.9776 H   0  0  0  0  0  0  0  0  0  0  0  0  # atno 10763 bound_to 10752
  154.0812  135.6604  153.4842 H   0  0  0  0  0  0  0  0  0  0  0  0  # atno 10764 bound_to 10752
  153.0471  135.5198  154.7666 H   0  0  0  0  0  0  0  0  0  0  0  0  # atno 10765 bound_to 10752
  139.8927  134.8403  156.2819 H   0  0  0  0  0  0  0  0  0  0  0  0  # atno 11005 bound_to 11000
  145.1738  140.9734  143.4306 LP  0  0  0  0  0  0  0  0  0  0  0  0  # atno 17320 bound_to 7965
  145.0004  139.3604  143.6170 LP  0  0  0  0  0  0  0  0  0  0  0  0  # atno 17321 bound_to 7965
  140.6902  143.2372  151.5151 LP  0  0  0  0  0  0  0  0  0  0  0  0  # atno 17342 bound_to 10162
  139.5597  144.2187  152.1671 LP  0  0  0  0  0  0  0  0  0  0  0  0  # atno 17343 bound_to 10162
  155.9852  130.4880  150.7019 LP  0  0  0  0  0  0  0  0  0  0  0  0  # atno 17370 bound_to 10713
  157.4564  131.0878  151.0792 LP  0  0  0  0  0  0  0  0  0  0  0  0  # atno 17371 bound_to 10713
  141.0033  133.7138  156.0995 LP  0  0  0  0  0  0  0  0  0  0  0  0  # atno 17394 bound_to 11000
  140.7468  134.4089  157.5547 LP  0  0  0  0  0  0  0  0  0  0  0  0  # atno 17395 bound_to 11000

$$$$
