AV-unprocessed.smi:408|AV-procd|sdf|2504|dock3
  -GOLD-   2262022453D 1   1.00000     0.00000
 Structure written by MMmdl.
 40 41  0  0  0  0  0  0  0  0  2 V2000
  152.6176  143.2652  160.7717 C   0  0  0  0  0  0  0  0  0  0  0  0
  152.4329  143.4230  159.2534 C   0  0  0  0  0  0  0  0  0  0  0  0
  151.9128  144.8292  158.9210 C   0  0  0  0  0  0  0  0  0  0  0  0
  151.4995  142.3398  158.6672 C   0  0  0  0  0  0  0  0  0  0  0  0
  152.2055  141.0891  158.1074 C   0  0  0  0  0  0  0  0  0  0  0  0
  151.3112  140.3121  157.2571 N   0  0  0  0  0  0  0  0  0  0  0  0
  151.6764  139.3260  156.4223 C   0  0  0  0  0  0  0  0  0  0  0  0
  152.8227  138.8843  156.3481 O   0  0  0  0  0  0  0  0  0  0  0  0
  150.5788  138.7744  155.5104 C   0  0  0  0  0  0  0  0  0  0  0  0
  150.0793  137.4720  156.0654 C   0  0  0  0  0  0  0  0  0  0  0  0
  149.8910  136.2994  155.3795 C   0  0  0  0  0  0  0  0  0  0  0  0
  149.3883  135.0108  156.4342 S   0  0  0  0  0  0  0  0  0  0  0  0
  149.4351  136.1250  157.8003 C   0  0  0  0  0  0  0  0  0  0  0  0
  149.1525  135.7845  159.0707 N   0  5  0  0  0  0  0  0  0  0  0  0
  148.4821  136.6016  159.9303 C   0  0  0  0  0  0  0  0  0  0  0  0
  147.9920  137.6903  159.6348 O   0  0  0  0  0  0  0  0  0  0  0  0
  148.3709  136.0876  161.3391 C   0  0  0  0  0  0  0  0  0  0  0  0
  147.7091  134.7423  161.5710 C   0  0  0  0  0  0  0  0  0  0  0  0
  146.9753  136.0096  161.9251 C   0  0  0  0  0  0  0  0  0  0  0  0
  149.7787  137.3627  157.4251 N   0  0  0  0  0  0  0  0  0  0  0  0
  151.6603  143.2930  161.2931 H   0  0  0  0  0  0  0  0  0  0  0  0
  153.2362  144.0659  161.1770 H   0  0  0  0  0  0  0  0  0  0  0  0
  153.1082  142.3244  161.0199 H   0  0  0  0  0  0  0  0  0  0  0  0
  153.4129  143.3352  158.7839 H   0  0  0  0  0  0  0  0  0  0  0  0
  150.9206  144.9954  159.3411 H   0  0  0  0  0  0  0  0  0  0  0  0
  151.8497  144.9797  157.8430 H   0  0  0  0  0  0  0  0  0  0  0  0
  152.5762  145.5979  159.3186 H   0  0  0  0  0  0  0  0  0  0  0  0
  150.7852  142.0314  159.4316 H   0  0  0  0  0  0  0  0  0  0  0  0
  150.9016  142.7791  157.8672 H   0  0  0  0  0  0  0  0  0  0  0  0
  153.1268  141.3582  157.5895 H   0  0  0  0  0  0  0  0  0  0  0  0
  152.5067  140.4480  158.9359 H   0  0  0  0  0  0  0  0  0  0  0  0
  150.3430  140.5980  157.2439 H   0  0  0  0  0  0  0  0  0  0  0  0
  149.7696  139.5017  155.4328 H   0  0  0  0  0  0  0  0  0  0  0  0
  150.9754  138.6411  154.5034 H   0  0  0  0  0  0  0  0  0  0  0  0
  150.0421  136.1086  154.3278 H   0  0  0  0  0  0  0  0  0  0  0  0
  149.1896  136.3372  162.0121 H   0  0  0  0  0  0  0  0  0  0  0  0
  147.3414  134.1811  160.7140 H   0  0  0  0  0  0  0  0  0  0  0  0
  148.1006  134.1350  162.3843 H   0  0  0  0  0  0  0  0  0  0  0  0
  146.8683  136.2780  162.9730 H   0  0  0  0  0  0  0  0  0  0  0  0
  146.1391  136.2990  161.2909 H   0  0  0  0  0  0  0  0  0  0  0  0
  1  2  1  0  0  0  0
  1 21  1  0  0  0  0
  1 22  1  0  0  0  0
  1 23  1  0  0  0  0
  2  3  1  0  0  0  0
  2  4  1  0  0  0  0
  2 24  1  0  0  0  0
  3 25  1  0  0  0  0
  3 26  1  0  0  0  0
  3 27  1  0  0  0  0
  4  5  1  0  0  0  0
  4 28  1  0  0  0  0
  4 29  1  0  0  0  0
  5  6  1  0  0  0  0
  5 30  1  0  0  0  0
  5 31  1  0  0  0  0
  6  7  1  0  0  0  0
  6 32  1  0  0  0  0
  7  8  2  0  0  0  0
  7  9  1  0  0  0  0
  9 10  1  0  0  0  0
  9 33  1  0  0  0  0
  9 34  1  0  0  0  0
 10 20  1  0  0  0  0
 10 11  2  0  0  0  0
 11 12  1  0  0  0  0
 11 35  1  0  0  0  0
 12 13  1  0  0  0  0
 13 14  1  0  0  0  0
 13 20  2  0  0  0  0
 14 15  1  0  0  0  0
 15 16  2  0  0  0  0
 15 17  1  0  0  0  0
 17 19  1  0  0  0  0
 17 18  1  0  0  0  0
 17 36  1  0  0  0  0
 18 19  1  0  0  0  0
 18 37  1  0  0  0  0
 18 38  1  0  0  0  0
 19 39  1  0  0  0  0
 19 40  1  0  0  0  0
M  CHG  1  14  -1
M  END
> <s_m_source_file>
AV-unprocessed.smi

> <i_m_source_file_index>
408

> <i_lp_mmshare_version>
43012

> <i_f3d_flags>
0

> <s_epik_input>
W0NIM11bQ0hdKFtDSDNdKVtDSDJdW0NIMl1bTkhdQyg9TylbQ0gyXWMxW2NIXXNjKG4xKVtOSF1DKD1PKVtDSF0yW0NIMl1bQ0gyXTI=

> <s_epik_cmdline>
J2VwaWtfcHl0aG9uJywgJy1waCcsICc3LjAnLCAnLXRuJywgJzgnLCAnLW1hJywgJzIwMCcsICctbWV0YWxfYmluZGluZycsICctaW1hZScsICc8aW5maWxlLm1hZT4nLCAnLW9tYWUnLCAnPG91dGZpbGUubWFlPic=

> <r_lp_tautomer_probability>
1

> <r_epik_Ionization_Penalty>
5.55111

> <r_epik_Ionization_Penalty_Charging>
5.01898

> <r_epik_Ionization_Penalty_Neutral>
0.532133

> <r_epik_State_Penalty>
5.01885

> <r_epik_Charging_Adjusted_Penalty>
10.0378

> <i_epik_Tot_Q>
-1

> <i_epik_Tot_abs_Q>
1

> <r_epik_Metal_State_Penalty>
1.13336

> <b_epik_Metal_Only>
1

> <s_lp_Force_Field>
OPLS_2005

> <r_lp_Energy>
8.36317

> <b_lp_Chiralities_Consistent>
1

> <s_lp_Variant>
AV-unprocessed.smi:408-2

> <Gold.Version>
5.8.1

> <Gold.Id.Protein>
6NUR|6NUR_protein|mol2

> <Gold.PLP.Fitness>
45.4942

> <Gold.PLP.PLP>
-34.3841

> <Gold.PLP.part.hbond>
-3.4770

> <Gold.PLP.part.metal>
0.0000

> <Gold.PLP.part.buried>
-5.6557

> <Gold.PLP.part.nonpolar>
-26.0470

> <Gold.PLP.part.repulsive>
0.0676

> <Gold.PLP.ligand.clash>
0.0000

> <Gold.PLP.ligand.torsion>
1.3630

> <Gold.PLP.Chemscore.Hbond>
3.5039

> <Gold.PLP.Chemscore.CHOScore>
1.0000

> <Gold.PLP.Chemscore.Metal>
0.0000

> <Gold.Chemscore.Hbonds>
donor molecule, donor type, donor heavy atom, donor atom, acceptor molecule, acceptor atom, score
      P1  H  6896  6907       L1    14  2.00
      P1  H  6934  6947       L1    16  0.53
      P1  H  7997  8009       L1     8  1.00
      L1  C    11    35       P1  7948  0.66

> <Gold.PLP.Chemscore.Internal.Correction>
0.3244

> <Gold.Rescore>
     Score         DG    S(hbond)    S(metal)    S(lipo)     H(rot)  DE(clash)    DE(int)     intcor
     15.18     -18.21       2.11        0.00      90.68       1.92       0.02       3.01       ----

> <Gold.Chemscore.Fitness>
15.1819

> <Gold.Chemscore.DG>
-18.2106

> <Gold.Chemscore.ZeroCoef>
-5.4800

> <Gold.Chemscore.Hbond>
2.1065

> <Gold.Chemscore.Metal>
0.0000

> <Gold.Chemscore.Lipo>
90.6819

> <Gold.Chemscore.Internal_Hbond>
0.0000

> <Gold.Chemscore.DEClash>
0.0212

> <Gold.Chemscore.DEInternal>
3.0075

> <Gold.Chemscore.Rot>
1.9198

> <Gold.Chemscore.Internal.Correction>
   9.000000E+99

> <Gold.Chemscore.Hbonds>
donor molecule, donor type, donor heavy atom, donor atom, acceptor molecule, acceptor atom, score
      P1  H  6896  6907       L1    14  0.38
      P1  H  6934  6947       L1    16  0.50
      P1  H  7997  8009       L1     8  0.97

> <Gold.Chemscore.Hbond.Weighted>
-7.0356

> <Gold.Chemscore.Metal.Weighted>
-0.0000

> <Gold.Chemscore.Lipo.Weighted>
-10.6098

> <Gold.Chemscore.Internal_Hbond.Weighted>
0.0000

> <Gold.Chemscore.DEClash.Weighted>
0.0212

> <Gold.Chemscore.DEInternal.Weighted>
3.0075

> <Gold.Chemscore.Rot.Weighted>
4.9148

> <Gold.Chemscore.Internal.Correction.Weighted>
   9.000000E+99

> <Gold.Protein.RotatedTorsions>
[ 6907 6896 6895 6894 ] final  -69.60 input  -60.11 | X-H torsion
[ 7974 7965 7964 7962 ] final -175.78 input  175.53 | X-H torsion
[ 8008 7997 7996 7995 ] final -169.12 input   59.86 | X-H torsion
[ 10167 10162 10161 10158 ] final  -95.89 input  -65.29 | X-H torsion
[ 10718 10713 10712 10709 ] final  125.28 input   66.30 | X-H torsion
[ 10763 10752 10751 10750 ] final  131.29 input  -60.55 | X-H torsion
[ 11005 11000 10999 10996 ] final   13.99 input  -57.11 | X-H torsion

> <Gold.Protein.ActiveResidues>
 VAL166  LYS551  ARG553  GLY616  TRP617  ASP618  TYR619  PRO620  LYS621  CYS622 
 ASP623  PHE694  ASN695  SER759  ASP760  ASP761  ALA762  ILE779  LEU786  VAL792 
 PHE793  MET794  SER795  GLU796  ALA797  LYS798  CYS799  TRP800  GLU811  SER814 

> <Gold.Protein.RotatedAtoms>
  150.7298  134.5574  159.5824 H   0  0  0  0  0  0  0  0  0  0  0  0  # atno 6907 bound_to 6896
  152.3046  134.7568  160.0359 H   0  0  0  0  0  0  0  0  0  0  0  0  # atno 6908 bound_to 6896
  151.8137  133.3349  159.3599 H   0  0  0  0  0  0  0  0  0  0  0  0  # atno 6909 bound_to 6896
  144.7127  140.1269  143.6401 H   0  0  0  0  0  0  0  0  0  0  0  0  # atno 7974 bound_to 7965
  155.9006  140.1040  157.1352 H   0  0  0  0  0  0  0  0  0  0  0  0  # atno 8008 bound_to 7997
  154.4026  140.1293  156.4496 H   0  0  0  0  0  0  0  0  0  0  0  0  # atno 8009 bound_to 7997
  155.7427  140.3466  155.5114 H   0  0  0  0  0  0  0  0  0  0  0  0  # atno 8010 bound_to 7997
  140.2995  143.3171  152.0263 H   0  0  0  0  0  0  0  0  0  0  0  0  # atno 10167 bound_to 10162
  157.5516  131.1094  150.8692 H   0  0  0  0  0  0  0  0  0  0  0  0  # atno 10718 bound_to 10713
  153.7719  135.3181  155.3353 H   0  0  0  0  0  0  0  0  0  0  0  0  # atno 10763 bound_to 10752
  154.8193  135.4614  154.0736 H   0  0  0  0  0  0  0  0  0  0  0  0  # atno 10764 bound_to 10752
  153.1998  135.6921  153.8330 H   0  0  0  0  0  0  0  0  0  0  0  0  # atno 10765 bound_to 10752
  140.4745  134.0997  155.7739 H   0  0  0  0  0  0  0  0  0  0  0  0  # atno 11005 bound_to 11000
  145.9321  139.2613  143.1319 LP  0  0  0  0  0  0  0  0  0  0  0  0  # atno 17320 bound_to 7965
  145.9512  140.8907  143.0258 LP  0  0  0  0  0  0  0  0  0  0  0  0  # atno 17321 bound_to 7965
  139.4918  144.6466  151.6765 LP  0  0  0  0  0  0  0  0  0  0  0  0  # atno 17342 bound_to 10162
  140.5663  144.0184  150.6194 LP  0  0  0  0  0  0  0  0  0  0  0  0  # atno 17343 bound_to 10162
  156.9216  130.5317  149.5279 LP  0  0  0  0  0  0  0  0  0  0  0  0  # atno 17370 bound_to 10713
  156.0582  130.5639  150.9136 LP  0  0  0  0  0  0  0  0  0  0  0  0  # atno 17371 bound_to 10713
  141.1561  133.8880  157.1973 LP  0  0  0  0  0  0  0  0  0  0  0  0  # atno 17394 bound_to 11000
  139.9864  135.0080  156.9873 LP  0  0  0  0  0  0  0  0  0  0  0  0  # atno 17395 bound_to 11000

$$$$
