AV-unprocessed.smi:3210|AV-procd|sdf|12273|dock8
  -GOLD-   2272018113D 1   1.00000     0.00000
 Structure written by MMmdl.
 34 35  0  0  0  0  0  0  0  0  1 V2000
  146.4231  137.9314  154.2327 O   0  0  0  0  0  0  0  0  0  0  0  0
  147.0465  138.4402  153.3006 C   0  0  0  0  0  0  0  0  0  0  0  0
  146.3792  138.6054  151.9359 C   0  0  0  0  0  0  0  0  0  0  0  0
  145.1948  137.7517  151.8130 N   0  0  0  0  0  0  0  0  0  0  0  0
  145.5594  136.4330  151.3156 C   0  0  0  0  0  0  0  0  0  0  0  0
  144.3758  135.4608  151.4539 C   0  0  0  0  0  0  0  0  0  0  0  0
  144.7105  134.1191  151.0093 N   0  0  0  0  0  0  0  0  0  0  0  0
  143.8644  133.0485  150.8098 C   0  0  0  0  0  0  0  0  0  0  0  0
  144.6312  131.9948  150.4022 C   0  0  0  0  0  0  0  0  0  0  0  0
  145.9512  132.5260  150.3811 C   0  0  0  0  0  0  0  0  0  0  0  0
  145.9953  133.7974  150.7446 N   0  0  0  0  0  0  0  0  0  0  0  0
  148.3120  138.8728  153.4071 N   0  0  0  0  0  0  0  0  0  0  0  0
  149.1186  138.8096  154.6190 C   0  0  0  0  0  0  0  0  0  0  0  0
  150.5374  139.3272  154.4738 C   0  0  0  0  0  0  0  0  0  0  0  0
  151.7200  138.3891  154.5327 C   0  0  0  0  0  0  0  0  0  0  0  0
  151.4661  139.3558  155.6647 C   0  0  0  0  0  0  0  0  0  0  0  0
  146.0945  139.6518  151.8169 H   0  0  0  0  0  0  0  0  0  0  0  0
  147.0883  138.3695  151.1402 H   0  0  0  0  0  0  0  0  0  0  0  0
  144.5115  138.1619  151.1912 H   0  0  0  0  0  0  0  0  0  0  0  0
  145.8702  136.4937  150.2713 H   0  0  0  0  0  0  0  0  0  0  0  0
  146.4109  136.0579  151.8849 H   0  0  0  0  0  0  0  0  0  0  0  0
  144.0718  135.4002  152.4995 H   0  0  0  0  0  0  0  0  0  0  0  0
  143.5080  135.8222  150.8992 H   0  0  0  0  0  0  0  0  0  0  0  0
  142.7997  133.1244  150.9757 H   0  0  0  0  0  0  0  0  0  0  0  0
  144.3001  130.9966  150.1573 H   0  0  0  0  0  0  0  0  0  0  0  0
  146.8722  132.0286  150.1150 H   0  0  0  0  0  0  0  0  0  0  0  0
  148.7468  139.2735  152.5886 H   0  0  0  0  0  0  0  0  0  0  0  0
  148.6233  139.3683  155.4145 H   0  0  0  0  0  0  0  0  0  0  0  0
  149.1489  137.7712  154.9503 H   0  0  0  0  0  0  0  0  0  0  0  0
  150.6295  140.1727  153.7944 H   0  0  0  0  0  0  0  0  0  0  0  0
  151.5229  137.3351  154.7182 H   0  0  0  0  0  0  0  0  0  0  0  0
  152.5583  138.5975  153.8710 H   0  0  0  0  0  0  0  0  0  0  0  0
  152.1362  140.2080  155.7583 H   0  0  0  0  0  0  0  0  0  0  0  0
  151.1013  138.9437  156.6035 H   0  0  0  0  0  0  0  0  0  0  0  0
  1  2  2  0  0  0  0
  2  3  1  0  0  0  0
  2 12  1  0  0  0  0
  3  4  1  0  0  0  0
  3 17  1  0  0  0  0
  3 18  1  0  0  0  0
  4  5  1  0  0  0  0
  4 19  1  0  0  0  0
  5  6  1  0  0  0  0
  5 20  1  0  0  0  0
  5 21  1  0  0  0  0
  6  7  1  0  0  0  0
  6 22  1  0  0  0  0
  6 23  1  0  0  0  0
  7 11  1  0  0  0  0
  7  8  1  0  0  0  0
  8  9  2  0  0  0  0
  8 24  1  0  0  0  0
  9 10  1  0  0  0  0
  9 25  1  0  0  0  0
 10 11  2  0  0  0  0
 10 26  1  0  0  0  0
 12 13  1  0  0  0  0
 12 27  1  0  0  0  0
 13 14  1  0  0  0  0
 13 28  1  0  0  0  0
 13 29  1  0  0  0  0
 14 16  1  0  0  0  0
 14 15  1  0  0  0  0
 14 30  1  0  0  0  0
 15 16  1  0  0  0  0
 15 31  1  0  0  0  0
 15 32  1  0  0  0  0
 16 33  1  0  0  0  0
 16 34  1  0  0  0  0
M  END
> <s_m_source_file>
AV-unprocessed.smi

> <i_m_source_file_index>
3210

> <i_lp_mmshare_version>
43012

> <i_f3d_flags>
0

> <s_epik_input>
W0NIMl0xW0NIMl1bQ0hdMVtDSDJdW05IXUMoPU8pW0NIMl1bTkhdW0NIMl1bQ0gyXW4yW2NIXVtjSF1bY0hdbjI=

> <s_epik_cmdline>
J2VwaWtfcHl0aG9uJywgJy1waCcsICc3LjAnLCAnLXRuJywgJzgnLCAnLW1hJywgJzIwMCcsICctbWV0YWxfYmluZGluZycsICctaW1hZScsICc8aW5maWxlLm1hZT4nLCAnLW9tYWUnLCAnPG91dGZpbGUubWFlPic=

> <r_lp_tautomer_probability>
1

> <r_epik_Ionization_Penalty>
0.724936

> <r_epik_Ionization_Penalty_Charging>
0

> <r_epik_Ionization_Penalty_Neutral>
0.724936

> <r_epik_State_Penalty>
0.747957

> <r_epik_Charging_Adjusted_Penalty>
0.747957

> <i_epik_Tot_Q>
0

> <i_epik_Tot_abs_Q>
0

> <r_epik_Metal_State_Penalty>
0.746186

> <b_epik_Metal_Only>
0

> <s_lp_Force_Field>
OPLS_2005

> <r_lp_Energy>
13.4578

> <b_lp_Chiralities_Consistent>
1

> <s_lp_Variant>
AV-unprocessed.smi:3210-2

> <Gold.Version>
5.8.1

> <Gold.Id.Protein>
6NUR|6NUR_protein|mol2

> <Gold.PLP.Fitness>
46.5939

> <Gold.PLP.PLP>
-35.7371

> <Gold.PLP.part.hbond>
-3.2526

> <Gold.PLP.part.metal>
0.0000

> <Gold.PLP.part.buried>
-3.7776

> <Gold.PLP.part.nonpolar>
-30.6996

> <Gold.PLP.part.repulsive>
0.3604

> <Gold.PLP.ligand.clash>
0.0000

> <Gold.PLP.ligand.torsion>
0.8915

> <Gold.PLP.Chemscore.Hbond>
2.0000

> <Gold.PLP.Chemscore.CHOScore>
2.0000

> <Gold.PLP.Chemscore.Metal>
0.0000

> <Gold.Chemscore.Hbonds>
donor molecule, donor type, donor heavy atom, donor atom, acceptor molecule, acceptor atom, score
      L1  H     4    19       P1 10171  1.00
      L1  H    12    27       P1  7957  1.00
      L1  C     8    24       P1 10186  0.75
      L1  C    10    26       P1 10747  1.00

> <Gold.PLP.Chemscore.Internal.Correction>
0.6399

> <Gold.Rescore>
     Score         DG    S(hbond)    S(metal)    S(lipo)     H(rot)  DE(clash)    DE(int)     intcor
     14.50     -15.33       2.00        0.00      77.02       2.27       0.05       0.78       ----

> <Gold.Chemscore.Fitness>
14.4982

> <Gold.Chemscore.DG>
-15.3349

> <Gold.Chemscore.ZeroCoef>
-5.4800

> <Gold.Chemscore.Hbond>
1.9951

> <Gold.Chemscore.Metal>
0.0000

> <Gold.Chemscore.Lipo>
77.0170

> <Gold.Chemscore.Internal_Hbond>
0.0000

> <Gold.Chemscore.DEClash>
0.0537

> <Gold.Chemscore.DEInternal>
0.7829

> <Gold.Chemscore.Rot>
2.2734

> <Gold.Chemscore.Internal.Correction>
   9.000000E+99

> <Gold.Chemscore.Hbonds>
donor molecule, donor type, donor heavy atom, donor atom, acceptor molecule, acceptor atom, score
      L1  H     4    19       P1 10171  0.97
      L1  H    12    27       P1  7957  1.00

> <Gold.Chemscore.Hbond.Weighted>
-6.6638

> <Gold.Chemscore.Metal.Weighted>
-0.0000

> <Gold.Chemscore.Lipo.Weighted>
-9.0110

> <Gold.Chemscore.Internal_Hbond.Weighted>
0.0000

> <Gold.Chemscore.DEClash.Weighted>
0.0537

> <Gold.Chemscore.DEInternal.Weighted>
0.7829

> <Gold.Chemscore.Rot.Weighted>
5.8199

> <Gold.Chemscore.Internal.Correction.Weighted>
   9.000000E+99

> <Gold.Protein.RotatedTorsions>
[ 6907 6896 6895 6894 ] final -174.53 input  -60.11 | X-H torsion
[ 7974 7965 7964 7962 ] final  -39.01 input  175.53 | X-H torsion
[ 8008 7997 7996 7995 ] final  177.80 input   59.86 | X-H torsion
[ 10167 10162 10161 10158 ] final   63.25 input  -65.29 | X-H torsion
[ 10718 10713 10712 10709 ] final  103.39 input   66.30 | X-H torsion
[ 10763 10752 10751 10750 ] final   31.09 input  -60.55 | X-H torsion
[ 11005 11000 10999 10996 ] final   95.90 input  -57.11 | X-H torsion

> <Gold.Protein.ActiveResidues>
 VAL166  LYS551  ARG553  GLY616  TRP617  ASP618  TYR619  PRO620  LYS621  CYS622 
 ASP623  PHE694  ASN695  SER759  ASP760  ASP761  ALA762  ILE779  LEU786  VAL792 
 PHE793  MET794  SER795  GLU796  ALA797  LYS798  CYS799  TRP800  GLU811  SER814 

> <Gold.Protein.RotatedAtoms>
  151.5739  133.3386  159.2994 H   0  0  0  0  0  0  0  0  0  0  0  0  # atno 6907 bound_to 6896
  150.8352  134.7625  159.6898 H   0  0  0  0  0  0  0  0  0  0  0  0  # atno 6908 bound_to 6896
  152.4429  134.5560  159.9932 H   0  0  0  0  0  0  0  0  0  0  0  0  # atno 6909 bound_to 6896
  146.0435  140.6577  142.9076 H   0  0  0  0  0  0  0  0  0  0  0  0  # atno 7974 bound_to 7965
  156.0617  140.1349  156.9934 H   0  0  0  0  0  0  0  0  0  0  0  0  # atno 8008 bound_to 7997
  154.4485  140.0990  156.6597 H   0  0  0  0  0  0  0  0  0  0  0  0  # atno 8009 bound_to 7997
  155.5367  140.3460  155.4440 H   0  0  0  0  0  0  0  0  0  0  0  0  # atno 8010 bound_to 7997
  140.1351  144.4606  150.6842 H   0  0  0  0  0  0  0  0  0  0  0  0  # atno 10167 bound_to 10162
  157.6774  131.0778  150.5549 H   0  0  0  0  0  0  0  0  0  0  0  0  # atno 10718 bound_to 10713
  153.0335  135.6447  154.1146 H   0  0  0  0  0  0  0  0  0  0  0  0  # atno 10763 bound_to 10752
  154.0864  135.2869  155.3282 H   0  0  0  0  0  0  0  0  0  0  0  0  # atno 10764 bound_to 10752
  154.6494  135.5431  153.7948 H   0  0  0  0  0  0  0  0  0  0  0  0  # atno 10765 bound_to 10752
  139.8785  134.8923  156.4080 H   0  0  0  0  0  0  0  0  0  0  0  0  # atno 11005 bound_to 11000
  144.7086  140.3952  143.7098 LP  0  0  0  0  0  0  0  0  0  0  0  0  # atno 17320 bound_to 7965
  145.6844  139.1625  143.2682 LP  0  0  0  0  0  0  0  0  0  0  0  0  # atno 17321 bound_to 7965
  140.6794  143.2319  151.5424 LP  0  0  0  0  0  0  0  0  0  0  0  0  # atno 17342 bound_to 10162
  139.5500  144.2421  152.1513 LP  0  0  0  0  0  0  0  0  0  0  0  0  # atno 17343 bound_to 10162
  156.5853  130.4315  149.5960 LP  0  0  0  0  0  0  0  0  0  0  0  0  # atno 17370 bound_to 10713
  156.2628  130.6972  151.1746 LP  0  0  0  0  0  0  0  0  0  0  0  0  # atno 17371 bound_to 10713
  140.9220  133.7638  155.9919 LP  0  0  0  0  0  0  0  0  0  0  0  0  # atno 17394 bound_to 11000
  140.8428  134.3046  157.5306 LP  0  0  0  0  0  0  0  0  0  0  0  0  # atno 17395 bound_to 11000

$$$$
