AV-unprocessed.smi:2483|AV-procd|sdf|9786|dock1
  -GOLD-   2272013423D 1   1.00000     0.00000
 Structure written by MMmdl.
 38 39  0  0  0  0  0  0  0  0  2 V2000
  146.5878  141.8238  156.3869 C   0  0  0  0  0  0  0  0  0  0  0  0
  147.4974  142.0559  155.2714 N   0  0  0  0  0  0  0  0  0  0  0  0
  146.9052  142.6210  154.0666 C   0  0  0  0  0  0  0  0  0  0  0  0
  148.4479  141.0479  155.0137 C   0  0  0  0  0  0  0  0  0  0  0  0
  148.0617  139.9876  154.2671 N   0  0  0  0  0  0  0  0  0  0  0  0
  148.9382  139.0189  153.9853 C   0  0  0  0  0  0  0  0  0  0  0  0
  150.2068  139.0396  154.4136 N   0  3  0  0  0  0  0  0  0  0  0  0
  150.6433  140.0765  155.1676 C   0  0  0  0  0  0  0  0  0  0  0  0
  149.7737  141.1429  155.5025 C   0  0  0  0  0  0  0  0  0  0  0  0
  150.1475  142.2534  156.3149 N   0  0  0  0  0  0  0  0  0  0  0  0
  151.0140  142.3061  157.3403 C   0  0  0  0  0  0  0  0  0  0  0  0
  151.6436  141.3499  157.7901 O   0  0  0  0  0  0  0  0  0  0  0  0
  151.1150  143.5562  157.8187 N   0  0  0  0  0  0  0  0  0  0  0  0
  151.9558  144.0099  158.9354 C   0  0  0  0  0  0  0  0  0  0  0  0
  153.3000  143.2808  158.9118 C   0  0  0  0  0  0  0  0  0  0  0  0
  151.9321  145.5487  159.0842 C   0  0  0  0  0  0  0  0  0  0  0  0
  150.7184  145.4213  160.0073 C   0  0  0  0  0  0  0  0  0  0  0  0
  151.1312  143.9652  160.2375 C   0  0  0  0  0  0  0  0  0  0  0  0
  147.1290  141.4618  157.2620 H   0  0  0  0  0  0  0  0  0  0  0  0
  145.8234  141.0918  156.1228 H   0  0  0  0  0  0  0  0  0  0  0  0
  146.0878  142.7522  156.6637 H   0  0  0  0  0  0  0  0  0  0  0  0
  147.6560  142.8447  153.3086 H   0  0  0  0  0  0  0  0  0  0  0  0
  146.3833  143.5486  154.3032 H   0  0  0  0  0  0  0  0  0  0  0  0
  146.1841  141.9253  153.6360 H   0  0  0  0  0  0  0  0  0  0  0  0
  148.6389  138.1687  153.3901 H   0  0  0  0  0  0  0  0  0  0  0  0
  151.6732  139.9905  155.4755 H   0  0  0  0  0  0  0  0  0  0  0  0
  149.7282  143.1332  156.0498 H   0  0  0  0  0  0  0  0  0  0  0  0
  150.5555  144.2686  157.3729 H   0  0  0  0  0  0  0  0  0  0  0  0
  153.9024  143.5366  159.7838 H   0  0  0  0  0  0  0  0  0  0  0  0
  153.8881  143.5388  158.0310 H   0  0  0  0  0  0  0  0  0  0  0  0
  153.1667  142.1985  158.9167 H   0  0  0  0  0  0  0  0  0  0  0  0
  152.8093  145.9300  159.6095 H   0  0  0  0  0  0  0  0  0  0  0  0
  151.7471  146.1195  158.1740 H   0  0  0  0  0  0  0  0  0  0  0  0
  150.7523  146.0526  160.8956 H   0  0  0  0  0  0  0  0  0  0  0  0
  149.7700  145.5160  159.4763 H   0  0  0  0  0  0  0  0  0  0  0  0
  150.3039  143.2539  160.2452 H   0  0  0  0  0  0  0  0  0  0  0  0
  151.7540  143.8501  161.1264 H   0  0  0  0  0  0  0  0  0  0  0  0
  150.8477  138.2801  154.1828 H   0  0  0  0  0  0  0  0  0  0  0  0
  1  2  1  0  0  0  0
  1 19  1  0  0  0  0
  1 20  1  0  0  0  0
  1 21  1  0  0  0  0
  2  3  1  0  0  0  0
  2  4  1  0  0  0  0
  3 22  1  0  0  0  0
  3 23  1  0  0  0  0
  3 24  1  0  0  0  0
  4  9  1  0  0  0  0
  4  5  2  0  0  0  0
  5  6  1  0  0  0  0
  6  7  2  0  0  0  0
  6 25  1  0  0  0  0
  7  8  1  0  0  0  0
  7 38  1  0  0  0  0
  8  9  2  0  0  0  0
  8 26  1  0  0  0  0
  9 10  1  0  0  0  0
 10 11  1  0  0  0  0
 10 27  1  0  0  0  0
 11 12  2  0  0  0  0
 11 13  1  0  0  0  0
 13 14  1  0  0  0  0
 13 28  1  0  0  0  0
 14 18  1  0  0  0  0
 14 15  1  0  0  0  0
 14 16  1  0  0  0  0
 15 29  1  0  0  0  0
 15 30  1  0  0  0  0
 15 31  1  0  0  0  0
 16 17  1  0  0  0  0
 16 32  1  0  0  0  0
 16 33  1  0  0  0  0
 17 18  1  0  0  0  0
 17 34  1  0  0  0  0
 17 35  1  0  0  0  0
 18 36  1  0  0  0  0
 18 37  1  0  0  0  0
M  CHG  1   7   1
M  END
> <s_m_source_file>
AV-unprocessed.smi

> <i_m_source_file_index>
2483

> <i_lp_mmshare_version>
43012

> <i_f3d_flags>
0

> <s_epik_input>
W0NIM11OKFtDSDNdKWMxbltjSF1uW2NIXWMxW05IXUMoPU8pW05IXUMyKFtDSDNdKVtDSDJdW0NIMl1bQ0gyXTI=

> <s_epik_cmdline>
J2VwaWtfcHl0aG9uJywgJy1waCcsICc3LjAnLCAnLXRuJywgJzgnLCAnLW1hJywgJzIwMCcsICctbWV0YWxfYmluZGluZycsICctaW1hZScsICc8aW5maWxlLm1hZT4nLCAnLW9tYWUnLCAnPG91dGZpbGUubWFlPic=

> <r_lp_tautomer_probability>
0.999336

> <r_epik_Ionization_Penalty>
2.07201

> <r_epik_Ionization_Penalty_Charging>
2.07196

> <r_epik_Ionization_Penalty_Neutral>
5.01675e-05

> <r_epik_State_Penalty>
2.20599

> <r_epik_Charging_Adjusted_Penalty>
4.27795

> <i_epik_Tot_Q>
1

> <i_epik_Tot_abs_Q>
1

> <r_epik_Metal_State_Penalty>
2.22376

> <b_epik_Metal_Only>
0

> <s_lp_Force_Field>
OPLS_2005

> <r_lp_Energy>
22.2556

> <b_lp_Chiralities_Consistent>
1

> <s_lp_Variant>
AV-unprocessed.smi:2483-2

> <Gold.Version>
5.8.1

> <Gold.Id.Protein>
6NUR|6NUR_protein|mol2

> <Gold.PLP.Fitness>
39.3675

> <Gold.PLP.PLP>
-34.1162

> <Gold.PLP.part.hbond>
-1.2361

> <Gold.PLP.part.metal>
0.0000

> <Gold.PLP.part.buried>
-2.9946

> <Gold.PLP.part.nonpolar>
-29.9247

> <Gold.PLP.part.repulsive>
1.0030

> <Gold.PLP.ligand.clash>
0.0000

> <Gold.PLP.ligand.torsion>
0.9303

> <Gold.PLP.Chemscore.Hbond>
1.1534

> <Gold.PLP.Chemscore.CHOScore>
1.0000

> <Gold.PLP.Chemscore.Metal>
0.0000

> <Gold.Chemscore.Hbonds>
donor molecule, donor type, donor heavy atom, donor atom, acceptor molecule, acceptor atom, score
      L1  H    10    27       P1  8028  1.00
      L1  H    13    28       P1  8028  0.06
      L1  C     6    25       P1  7948  1.00

> <Gold.PLP.Chemscore.Internal.Correction>
0.6518

> <Gold.Rescore>
     Score         DG    S(hbond)    S(metal)    S(lipo)     H(rot)  DE(clash)    DE(int)     intcor
     12.71     -15.59       1.19        0.00      80.16       1.27       0.19       2.69       ----

> <Gold.Chemscore.Fitness>
12.7132

> <Gold.Chemscore.DG>
-15.5937

> <Gold.Chemscore.ZeroCoef>
-5.4800

> <Gold.Chemscore.Hbond>
1.1908

> <Gold.Chemscore.Metal>
0.0000

> <Gold.Chemscore.Lipo>
80.1620

> <Gold.Chemscore.Internal_Hbond>
0.0000

> <Gold.Chemscore.DEClash>
0.1860

> <Gold.Chemscore.DEInternal>
2.6946

> <Gold.Chemscore.Rot>
1.2666

> <Gold.Chemscore.Internal.Correction>
   9.000000E+99

> <Gold.Chemscore.Hbonds>
donor molecule, donor type, donor heavy atom, donor atom, acceptor molecule, acceptor atom, score
      L1  H    10    27       P1  8028  1.00
      L1  H    13    28       P1  8028  0.08

> <Gold.Chemscore.Hbond.Weighted>
-3.9774

> <Gold.Chemscore.Metal.Weighted>
-0.0000

> <Gold.Chemscore.Lipo.Weighted>
-9.3790

> <Gold.Chemscore.Internal_Hbond.Weighted>
0.0000

> <Gold.Chemscore.DEClash.Weighted>
0.1860

> <Gold.Chemscore.DEInternal.Weighted>
2.6946

> <Gold.Chemscore.Rot.Weighted>
3.2426

> <Gold.Chemscore.Internal.Correction.Weighted>
   9.000000E+99

> <Gold.Protein.RotatedTorsions>
[ 6907 6896 6895 6894 ] final -120.99 input  -60.11 | X-H torsion
[ 7974 7965 7964 7962 ] final   31.51 input  175.53 | X-H torsion
[ 8008 7997 7996 7995 ] final   65.23 input   59.86 | X-H torsion
[ 10167 10162 10161 10158 ] final  -92.50 input  -65.29 | X-H torsion
[ 10718 10713 10712 10709 ] final   79.72 input   66.30 | X-H torsion
[ 10763 10752 10751 10750 ] final  -54.59 input  -60.55 | X-H torsion
[ 11005 11000 10999 10996 ] final   19.20 input  -57.11 | X-H torsion

> <Gold.Protein.ActiveResidues>
 VAL166  LYS551  ARG553  GLY616  TRP617  ASP618  TYR619  PRO620  LYS621  CYS622 
 ASP623  PHE694  ASN695  SER759  ASP760  ASP761  ALA762  ILE779  LEU786  VAL792 
 PHE793  MET794  SER795  GLU796  ALA797  LYS798  CYS799  TRP800  GLU811  SER814 

> <Gold.Protein.RotatedAtoms>
  150.8443  133.7887  159.3048 H   0  0  0  0  0  0  0  0  0  0  0  0  # atno 6907 bound_to 6896
  151.5578  135.1064  159.9975 H   0  0  0  0  0  0  0  0  0  0  0  0  # atno 6908 bound_to 6896
  152.4500  133.7568  159.6780 H   0  0  0  0  0  0  0  0  0  0  0  0  # atno 6909 bound_to 6896
  146.1545  139.6647  142.9076 H   0  0  0  0  0  0  0  0  0  0  0  0  # atno 7974 bound_to 7965
  155.6586  140.3497  155.4774 H   0  0  0  0  0  0  0  0  0  0  0  0  # atno 8008 bound_to 7997
  155.9788  140.1170  157.0769 H   0  0  0  0  0  0  0  0  0  0  0  0  # atno 8009 bound_to 7997
  154.4186  140.1142  156.5393 H   0  0  0  0  0  0  0  0  0  0  0  0  # atno 8010 bound_to 7997
  140.3341  143.2978  151.9908 H   0  0  0  0  0  0  0  0  0  0  0  0  # atno 10167 bound_to 10162
  157.6785  130.9927  150.1973 H   0  0  0  0  0  0  0  0  0  0  0  0  # atno 10718 bound_to 10713
  154.1773  135.6449  153.5025 H   0  0  0  0  0  0  0  0  0  0  0  0  # atno 10763 bound_to 10752
  153.0068  135.5397  154.6551 H   0  0  0  0  0  0  0  0  0  0  0  0  # atno 10764 bound_to 10752
  154.5906  135.2934  155.0612 H   0  0  0  0  0  0  0  0  0  0  0  0  # atno 10765 bound_to 10752
  140.4164  134.1565  155.7670 H   0  0  0  0  0  0  0  0  0  0  0  0  # atno 11005 bound_to 11000
  145.4741  141.0437  143.2682 LP  0  0  0  0  0  0  0  0  0  0  0  0  # atno 17320 bound_to 7965
  144.7946  139.6260  143.7098 LP  0  0  0  0  0  0  0  0  0  0  0  0  # atno 17321 bound_to 7965
  139.4851  144.6210  151.7254 LP  0  0  0  0  0  0  0  0  0  0  0  0  # atno 17342 bound_to 10162
  140.5369  144.0641  150.6074 LP  0  0  0  0  0  0  0  0  0  0  0  0  # atno 17343 bound_to 10162
  156.2672  130.3717  149.8069 LP  0  0  0  0  0  0  0  0  0  0  0  0  # atno 17370 bound_to 10713
  156.5797  130.8460  151.3379 LP  0  0  0  0  0  0  0  0  0  0  0  0  # atno 17371 bound_to 10713
  141.1801  133.8431  157.1286 LP  0  0  0  0  0  0  0  0  0  0  0  0  # atno 17394 bound_to 11000
  140.0231  134.9936  157.0632 LP  0  0  0  0  0  0  0  0  0  0  0  0  # atno 17395 bound_to 11000

$$$$
