AV-unprocessed.smi:3056|AV-procd|sdf|11645|dock7
  -GOLD-   2272017 43D 1   1.00000     0.00000
 Structure written by MMmdl.
 48 49  0  0  0  0  0  0  0  0  2 V2000
  151.4859  143.0077  158.2253 C   0  0  0  0  0  0  0  0  0  0  0  0
  151.2666  142.1257  157.0297 C   0  0  0  0  0  0  0  0  0  0  0  0
  152.0463  141.0124  156.6081 C   0  0  0  0  0  0  0  0  0  0  0  0
  151.5769  140.4441  155.5095 N   0  0  0  0  0  0  0  0  0  0  0  0
  150.4930  141.1793  155.1770 N   0  0  0  0  0  0  0  0  0  0  0  0
  149.7085  140.8004  154.0043 C   0  0  2  0  0  0  0  0  0  0  0  0
  148.5666  141.7995  153.7410 C   0  0  0  0  0  0  0  0  0  0  0  0
  149.2039  139.3318  154.0749 C   0  0  2  0  0  0  0  0  0  0  0  0
  150.3217  138.3033  154.3243 C   0  0  0  0  0  0  0  0  0  0  0  0
  148.4764  138.9557  152.8383 N   0  3  0  0  0  0  0  0  0  0  0  0
  147.0029  138.8486  152.9584 C   0  0  0  0  0  0  0  0  0  0  0  0
  146.3726  137.8971  151.9258 C   0  0  0  0  0  0  0  0  0  0  0  0
  146.5878  138.0941  150.7284 O   0  0  0  0  0  0  0  0  0  0  0  0
  145.5979  136.8748  152.3612 N   0  0  0  0  0  0  0  0  0  0  0  0
  145.3030  136.5483  153.7597 C   0  0  0  0  0  0  0  0  0  0  0  0
  145.8963  135.1625  154.0686 C   0  0  0  0  0  0  0  0  0  0  0  0
  145.3550  134.1984  153.1688 O   0  0  0  0  0  0  0  0  0  0  0  0
  145.6055  134.4994  151.7969 C   0  0  1  0  0  0  0  0  0  0  0  0
  145.0010  133.3802  150.9422 C   0  0  0  0  0  0  0  0  0  0  0  0
  145.0023  135.8795  151.4648 C   0  0  0  0  0  0  0  0  0  0  0  0
  150.2766  142.1933  156.0912 C   0  0  0  0  0  0  0  0  0  0  0  0
  152.4591  142.8342  158.6852 H   0  0  0  0  0  0  0  0  0  0  0  0
  150.7319  142.8378  158.9939 H   0  0  0  0  0  0  0  0  0  0  0  0
  151.4422  144.0641  157.9594 H   0  0  0  0  0  0  0  0  0  0  0  0
  152.9323  140.6003  157.0684 H   0  0  0  0  0  0  0  0  0  0  0  0
  150.3713  140.8946  153.1432 H   0  0  0  0  0  0  0  0  0  0  0  0
  148.0552  141.5684  152.8063 H   0  0  0  0  0  0  0  0  0  0  0  0
  148.9489  142.8174  153.6587 H   0  0  0  0  0  0  0  0  0  0  0  0
  147.8183  141.7908  154.5332 H   0  0  0  0  0  0  0  0  0  0  0  0
  148.5059  139.2497  154.9093 H   0  0  0  0  0  0  0  0  0  0  0  0
  150.8748  138.5255  155.2365 H   0  0  0  0  0  0  0  0  0  0  0  0
  151.0351  138.2680  153.5005 H   0  0  0  0  0  0  0  0  0  0  0  0
  149.9062  137.3013  154.4359 H   0  0  0  0  0  0  0  0  0  0  0  0
  148.6989  139.6429  152.1317 H   0  0  0  0  0  0  0  0  0  0  0  0
  146.7299  138.5473  153.9696 H   0  0  0  0  0  0  0  0  0  0  0  0
  146.5919  139.8452  152.7948 H   0  0  0  0  0  0  0  0  0  0  0  0
  145.6814  137.2767  154.4745 H   0  0  0  0  0  0  0  0  0  0  0  0
  144.2214  136.5299  153.9015 H   0  0  0  0  0  0  0  0  0  0  0  0
  146.9846  135.1780  153.9896 H   0  0  0  0  0  0  0  0  0  0  0  0
  145.6535  134.8667  155.0893 H   0  0  0  0  0  0  0  0  0  0  0  0
  146.6840  134.5207  151.6299 H   0  0  0  0  0  0  0  0  0  0  0  0
  145.1849  133.5535  149.8816 H   0  0  0  0  0  0  0  0  0  0  0  0
  143.9228  133.3094  151.0883 H   0  0  0  0  0  0  0  0  0  0  0  0
  145.4361  132.4146  151.2012 H   0  0  0  0  0  0  0  0  0  0  0  0
  143.9205  135.8669  151.6080 H   0  0  0  0  0  0  0  0  0  0  0  0
  145.1642  136.1087  150.4107 H   0  0  0  0  0  0  0  0  0  0  0  0
  149.4448  142.8766  156.0049 H   0  0  0  0  0  0  0  0  0  0  0  0
  148.8165  138.0561  152.5294 H   0  0  0  0  0  0  0  0  0  0  0  0
  1  2  1  0  0  0  0
  1 22  1  0  0  0  0
  1 23  1  0  0  0  0
  1 24  1  0  0  0  0
  2 21  2  0  0  0  0
  2  3  1  0  0  0  0
  3  4  2  0  0  0  0
  3 25  1  0  0  0  0
  4  5  1  0  0  0  0
  5  6  1  0  0  0  0
  5 21  1  0  0  0  0
  6  7  1  0  0  0  0
  6  8  1  0  0  0  0
  6 26  1  0  0  0  0
  7 27  1  0  0  0  0
  7 28  1  0  0  0  0
  7 29  1  0  0  0  0
  8  9  1  0  0  0  0
  8 10  1  0  0  0  0
  8 30  1  0  0  0  0
  9 31  1  0  0  0  0
  9 32  1  0  0  0  0
  9 33  1  0  0  0  0
 10 11  1  0  0  0  0
 10 34  1  0  0  0  0
 10 48  1  0  0  0  0
 11 12  1  0  0  0  0
 11 35  1  0  0  0  0
 11 36  1  0  0  0  0
 12 13  2  0  0  0  0
 12 14  1  0  0  0  0
 14 20  1  0  0  0  0
 14 15  1  0  0  0  0
 15 16  1  0  0  0  0
 15 37  1  0  0  0  0
 15 38  1  0  0  0  0
 16 17  1  0  0  0  0
 16 39  1  0  0  0  0
 16 40  1  0  0  0  0
 17 18  1  0  0  0  0
 18 19  1  0  0  0  0
 18 20  1  0  0  0  0
 18 41  1  0  0  0  0
 19 42  1  0  0  0  0
 19 43  1  0  0  0  0
 19 44  1  0  0  0  0
 20 45  1  0  0  0  0
 20 46  1  0  0  0  0
 21 47  1  0  0  0  0
M  CHG  1  10   1
M  END
> <s_m_source_file>
AV-unprocessed.smi

> <i_m_source_file_index>
3056

> <i_lp_mmshare_version>
43012

> <i_f3d_flags>
0

> <s_epik_input>
W0NIM11jMVtjSF1ubihbY0hdMSlbQ0BIXShbQ0gzXSlbQ0BIXShbQ0gzXSlbTkhdW0NIMl1DKD1PKU4yW0NIMl1bQ0gyXU9bQ0BASF0oW0NIM10pW0NIMl0y

> <s_epik_cmdline>
J2VwaWtfcHl0aG9uJywgJy1waCcsICc3LjAnLCAnLXRuJywgJzgnLCAnLW1hJywgJzIwMCcsICctbWV0YWxfYmluZGluZycsICctaW1hZScsICc8aW5maWxlLm1hZT4nLCAnLW9tYWUnLCAnPG91dGZpbGUubWFlPic=

> <r_lp_tautomer_probability>
1

> <r_epik_Ionization_Penalty>
0.233715

> <r_epik_Ionization_Penalty_Charging>
0.233698

> <r_epik_Ionization_Penalty_Neutral>
1.68157e-05

> <r_epik_State_Penalty>
0.225221

> <r_epik_Charging_Adjusted_Penalty>
0.458919

> <i_epik_Tot_Q>
1

> <i_epik_Tot_abs_Q>
1

> <r_epik_Metal_State_Penalty>
0.225535

> <b_epik_Metal_Only>
0

> <s_lp_Force_Field>
OPLS_2005

> <r_lp_Energy>
27.9094

> <b_lp_Chiralities_Consistent>
1

> <s_lp_Variant>
AV-unprocessed.smi:3056-1

> <Gold.Version>
5.8.1

> <Gold.Id.Protein>
6NUR|6NUR_protein|mol2

> <Gold.PLP.Fitness>
50.0329

> <Gold.PLP.PLP>
-36.9565

> <Gold.PLP.part.hbond>
-2.7965

> <Gold.PLP.part.metal>
0.0000

> <Gold.PLP.part.buried>
-2.7501

> <Gold.PLP.part.nonpolar>
-33.7749

> <Gold.PLP.part.repulsive>
1.5650

> <Gold.PLP.ligand.clash>
0.0000

> <Gold.PLP.ligand.torsion>
0.9078

> <Gold.PLP.Chemscore.Hbond>
3.9120

> <Gold.PLP.Chemscore.CHOScore>
1.0000

> <Gold.PLP.Chemscore.Metal>
0.0000

> <Gold.Chemscore.Hbonds>
donor molecule, donor type, donor heavy atom, donor atom, acceptor molecule, acceptor atom, score
      L1  H    10    34       P1  7957  0.57
      L1  H    10    48       P1  7948  2.00
      P1  H  7954  7966       L1    13  1.00
      L1  C    21    47       P1  8028  0.82

> <Gold.PLP.Chemscore.Internal.Correction>
0.1560

> <Gold.Rescore>
     Score         DG    S(hbond)    S(metal)    S(lipo)     H(rot)  DE(clash)    DE(int)     intcor
     15.36     -19.33       2.83        0.00      75.64       1.74       1.46       2.51       ----

> <Gold.Chemscore.Fitness>
15.3642

> <Gold.Chemscore.DG>
-19.3321

> <Gold.Chemscore.ZeroCoef>
-5.4800

> <Gold.Chemscore.Hbond>
2.8280

> <Gold.Chemscore.Metal>
0.0000

> <Gold.Chemscore.Lipo>
75.6355

> <Gold.Chemscore.Internal_Hbond>
0.0000

> <Gold.Chemscore.DEClash>
1.4604

> <Gold.Chemscore.DEInternal>
2.5075

> <Gold.Chemscore.Rot>
1.7354

> <Gold.Chemscore.Internal.Correction>
   9.000000E+99

> <Gold.Chemscore.Hbonds>
donor molecule, donor type, donor heavy atom, donor atom, acceptor molecule, acceptor atom, score
      L1  H    10    34       P1  7957  0.56
      L1  H    10    48       P1  7948  1.00
      P1  H  7954  7966       L1    13  0.96

> <Gold.Chemscore.Hbond.Weighted>
-9.4454

> <Gold.Chemscore.Metal.Weighted>
-0.0000

> <Gold.Chemscore.Lipo.Weighted>
-8.8493

> <Gold.Chemscore.Internal_Hbond.Weighted>
0.0000

> <Gold.Chemscore.DEClash.Weighted>
1.4604

> <Gold.Chemscore.DEInternal.Weighted>
2.5075

> <Gold.Chemscore.Rot.Weighted>
4.4426

> <Gold.Chemscore.Internal.Correction.Weighted>
   9.000000E+99

> <Gold.Protein.RotatedTorsions>
[ 6907 6896 6895 6894 ] final -143.42 input  -60.11 | X-H torsion
[ 7974 7965 7964 7962 ] final   36.96 input  175.53 | X-H torsion
[ 8008 7997 7996 7995 ] final   19.92 input   59.86 | X-H torsion
[ 10167 10162 10161 10158 ] final -140.98 input  -65.29 | X-H torsion
[ 10718 10713 10712 10709 ] final   77.54 input   66.30 | X-H torsion
[ 10763 10752 10751 10750 ] final   48.29 input  -60.55 | X-H torsion
[ 11005 11000 10999 10996 ] final  103.86 input  -57.11 | X-H torsion

> <Gold.Protein.ActiveResidues>
 VAL166  LYS551  ARG553  GLY616  TRP617  ASP618  TYR619  PRO620  LYS621  CYS622 
 ASP623  PHE694  ASN695  SER759  ASP760  ASP761  ALA762  ILE779  LEU786  VAL792 
 PHE793  MET794  SER795  GLU796  ALA797  LYS798  CYS799  TRP800  GLU811  SER814 

> <Gold.Protein.RotatedAtoms>
  151.1002  133.5249  159.2610 H   0  0  0  0  0  0  0  0  0  0  0  0  # atno 6907 bound_to 6896
  151.2083  135.0470  159.8910 H   0  0  0  0  0  0  0  0  0  0  0  0  # atno 6908 bound_to 6896
  152.5442  134.0821  159.8293 H   0  0  0  0  0  0  0  0  0  0  0  0  # atno 6909 bound_to 6896
  146.1173  139.5953  142.9313 H   0  0  0  0  0  0  0  0  0  0  0  0  # atno 7974 bound_to 7965
  154.9278  140.3036  155.5183 H   0  0  0  0  0  0  0  0  0  0  0  0  # atno 8008 bound_to 7997
  156.3005  140.2359  156.4272 H   0  0  0  0  0  0  0  0  0  0  0  0  # atno 8009 bound_to 7997
  154.8267  140.0420  157.1437 H   0  0  0  0  0  0  0  0  0  0  0  0  # atno 8010 bound_to 7997
  139.8229  143.7550  152.2666 H   0  0  0  0  0  0  0  0  0  0  0  0  # atno 10167 bound_to 10162
  157.6714  130.9826  150.1656 H   0  0  0  0  0  0  0  0  0  0  0  0  # atno 10718 bound_to 10713
  152.9793  135.5949  154.3902 H   0  0  0  0  0  0  0  0  0  0  0  0  # atno 10763 bound_to 10752
  154.3558  135.2767  155.2349 H   0  0  0  0  0  0  0  0  0  0  0  0  # atno 10764 bound_to 10752
  154.4368  135.6023  153.6159 H   0  0  0  0  0  0  0  0  0  0  0  0  # atno 10765 bound_to 10752
  139.8787  134.9279  156.5274 H   0  0  0  0  0  0  0  0  0  0  0  0  # atno 11005 bound_to 11000
  145.5540  141.0410  143.2262 LP  0  0  0  0  0  0  0  0  0  0  0  0  # atno 17320 bound_to 7965
  144.7564  139.7063  143.7252 LP  0  0  0  0  0  0  0  0  0  0  0  0  # atno 17321 bound_to 7965
  139.7734  144.7469  151.0192 LP  0  0  0  0  0  0  0  0  0  0  0  0  # atno 17342 bound_to 10162
  140.7812  143.4620  151.0264 LP  0  0  0  0  0  0  0  0  0  0  0  0  # atno 17343 bound_to 10162
  156.2422  130.3692  149.8325 LP  0  0  0  0  0  0  0  0  0  0  0  0  # atno 17370 bound_to 10713
  156.6121  130.8591  151.3456 LP  0  0  0  0  0  0  0  0  0  0  0  0  # atno 17371 bound_to 10713
  140.8406  133.8208  155.9071 LP  0  0  0  0  0  0  0  0  0  0  0  0  # atno 17394 bound_to 11000
  140.9241  134.2104  157.4907 LP  0  0  0  0  0  0  0  0  0  0  0  0  # atno 17395 bound_to 11000

$$$$
