AV-unprocessed.smi:3126|AV-procd|sdf|11912|dock3
  -GOLD-   2272017293D 1   1.00000     0.00000
 Structure written by MMmdl.
 42 43  0  0  0  0  0  0  0  0  2 V2000
  153.9474  141.0004  160.7247 C   0  0  0  0  0  0  0  0  0  0  0  0
  153.2167  142.2018  161.3400 C   0  0  0  0  0  0  0  0  0  0  0  0
  152.7758  143.2657  160.3138 C   0  0  2  0  0  0  0  0  0  0  0  0
  152.2218  144.5137  161.0288 C   0  0  0  0  0  0  0  0  0  0  0  0
  151.7823  145.5926  160.0286 C   0  0  0  0  0  0  0  0  0  0  0  0
  150.7463  145.0438  159.0367 C   0  0  0  0  0  0  0  0  0  0  0  0
  151.2812  143.7978  158.3004 C   0  0  2  0  0  0  0  0  0  0  0  0
  150.2681  143.2231  157.3870 N   0  3  0  0  0  0  0  0  0  0  0  0
  150.7760  142.2309  156.4170 C   0  0  0  0  0  0  0  0  0  0  0  0
  150.1865  140.8423  156.6955 C   0  0  0  0  0  0  0  0  0  0  0  0
  150.8146  139.7725  155.8245 C   0  0  0  0  0  0  0  0  0  0  0  0
  152.2062  139.5439  155.8434 C   0  0  0  0  0  0  0  0  0  0  0  0
  152.7400  138.5419  155.0104 C   0  0  0  0  0  0  0  0  0  0  0  0
  151.8575  137.8092  154.1916 C   0  0  0  0  0  0  0  0  0  0  0  0
  150.5239  138.0206  154.1646 N   0  0  0  0  0  0  0  0  0  0  0  0
  150.0199  138.9820  154.9668 C   0  0  0  0  0  0  0  0  0  0  0  0
  151.7291  142.7261  159.3139 C   0  0  0  0  0  0  0  0  0  0  0  0
  154.2987  140.3248  161.5048 H   0  0  0  0  0  0  0  0  0  0  0  0
  154.8165  141.3199  160.1491 H   0  0  0  0  0  0  0  0  0  0  0  0
  153.2981  140.4245  160.0659 H   0  0  0  0  0  0  0  0  0  0  0  0
  152.3542  141.8527  161.9091 H   0  0  0  0  0  0  0  0  0  0  0  0
  153.8868  142.6643  162.0655 H   0  0  0  0  0  0  0  0  0  0  0  0
  153.6589  143.5727  159.7509 H   0  0  0  0  0  0  0  0  0  0  0  0
  151.3749  144.2342  161.6572 H   0  0  0  0  0  0  0  0  0  0  0  0
  152.9769  144.9277  161.6979 H   0  0  0  0  0  0  0  0  0  0  0  0
  151.3673  146.4470  160.5638 H   0  0  0  0  0  0  0  0  0  0  0  0
  152.6517  145.9627  159.4836 H   0  0  0  0  0  0  0  0  0  0  0  0
  149.8293  144.7935  159.5721 H   0  0  0  0  0  0  0  0  0  0  0  0
  150.4878  145.8312  158.3291 H   0  0  0  0  0  0  0  0  0  0  0  0
  152.1507  144.0823  157.7053 H   0  0  0  0  0  0  0  0  0  0  0  0
  149.5752  142.7581  157.9565 H   0  0  0  0  0  0  0  0  0  0  0  0
  150.5173  142.5400  155.4042 H   0  0  0  0  0  0  0  0  0  0  0  0
  151.8643  142.1897  156.4761 H   0  0  0  0  0  0  0  0  0  0  0  0
  150.3281  140.5768  157.7442 H   0  0  0  0  0  0  0  0  0  0  0  0
  149.1096  140.8497  156.5217 H   0  0  0  0  0  0  0  0  0  0  0  0
  152.8543  140.1254  156.4826 H   0  0  0  0  0  0  0  0  0  0  0  0
  153.8008  138.3388  154.9984 H   0  0  0  0  0  0  0  0  0  0  0  0
  152.2327  137.0339  153.5401 H   0  0  0  0  0  0  0  0  0  0  0  0
  148.9507  139.1279  154.9196 H   0  0  0  0  0  0  0  0  0  0  0  0
  152.1370  141.8741  158.7698 H   0  0  0  0  0  0  0  0  0  0  0  0
  150.8619  142.3540  159.8622 H   0  0  0  0  0  0  0  0  0  0  0  0
  149.8164  143.9747  156.8858 H   0  0  0  0  0  0  0  0  0  0  0  0
  1  2  1  0  0  0  0
  1 18  1  0  0  0  0
  1 19  1  0  0  0  0
  1 20  1  0  0  0  0
  2  3  1  0  0  0  0
  2 21  1  0  0  0  0
  2 22  1  0  0  0  0
  3 17  1  0  0  0  0
  3  4  1  0  0  0  0
  3 23  1  0  0  0  0
  4  5  1  0  0  0  0
  4 24  1  0  0  0  0
  4 25  1  0  0  0  0
  5  6  1  0  0  0  0
  5 26  1  0  0  0  0
  5 27  1  0  0  0  0
  6  7  1  0  0  0  0
  6 28  1  0  0  0  0
  6 29  1  0  0  0  0
  7  8  1  0  0  0  0
  7 17  1  0  0  0  0
  7 30  1  0  0  0  0
  8  9  1  0  0  0  0
  8 31  1  0  0  0  0
  8 42  1  0  0  0  0
  9 10  1  0  0  0  0
  9 32  1  0  0  0  0
  9 33  1  0  0  0  0
 10 11  1  0  0  0  0
 10 34  1  0  0  0  0
 10 35  1  0  0  0  0
 11 16  1  0  0  0  0
 11 12  2  0  0  0  0
 12 13  1  0  0  0  0
 12 36  1  0  0  0  0
 13 14  2  0  0  0  0
 13 37  1  0  0  0  0
 14 15  1  0  0  0  0
 14 38  1  0  0  0  0
 15 16  2  0  0  0  0
 16 39  1  0  0  0  0
 17 40  1  0  0  0  0
 17 41  1  0  0  0  0
M  CHG  1   8   1
M  END
> <s_m_source_file>
AV-unprocessed.smi

> <i_m_source_file_index>
3126

> <i_lp_mmshare_version>
43012

> <i_f3d_flags>
0

> <s_epik_input>
W0NIM11bQ0gyXVtDQEBIXTFbQ0gyXVtDSDJdW0NIMl1bQ0BIXShbQ0gyXTEpW05IXVtDSDJdW0NIMl1jMltjSF1bY0hdW2NIXW5bY0hdMg==

> <s_epik_cmdline>
J2VwaWtfcHl0aG9uJywgJy1waCcsICc3LjAnLCAnLXRuJywgJzgnLCAnLW1hJywgJzIwMCcsICctbWV0YWxfYmluZGluZycsICctaW1hZScsICc8aW5maWxlLm1hZT4nLCAnLW9tYWUnLCAnPG91dGZpbGUubWFlPic=

> <r_lp_tautomer_probability>
1

> <r_epik_Ionization_Penalty>
0.000947364

> <r_epik_Ionization_Penalty_Charging>
0.000286103

> <r_epik_Ionization_Penalty_Neutral>
0.000661261

> <r_epik_State_Penalty>
-0

> <r_epik_Charging_Adjusted_Penalty>
0.000286103

> <i_epik_Tot_Q>
1

> <i_epik_Tot_abs_Q>
1

> <r_epik_Metal_State_Penalty>
-0

> <b_epik_Metal_Only>
0

> <s_lp_Force_Field>
OPLS_2005

> <r_lp_Energy>
14.2685

> <b_lp_Chiralities_Consistent>
1

> <s_lp_Variant>
AV-unprocessed.smi:3126-3

> <Gold.Version>
5.8.1

> <Gold.Id.Protein>
6NUR|6NUR_protein|mol2

> <Gold.PLP.Fitness>
53.8855

> <Gold.PLP.PLP>
-45.7962

> <Gold.PLP.part.hbond>
-1.0000

> <Gold.PLP.part.metal>
0.0000

> <Gold.PLP.part.buried>
-5.4266

> <Gold.PLP.part.nonpolar>
-40.8451

> <Gold.PLP.part.repulsive>
0.2590

> <Gold.PLP.ligand.clash>
0.0000

> <Gold.PLP.ligand.torsion>
0.4776

> <Gold.PLP.Chemscore.Hbond>
2.0000

> <Gold.PLP.Chemscore.CHOScore>
1.0000

> <Gold.PLP.Chemscore.Metal>
0.0000

> <Gold.Chemscore.Hbonds>
donor molecule, donor type, donor heavy atom, donor atom, acceptor molecule, acceptor atom, score
      L1  H     8    42       P1  8028  2.00
      L1  C    14    38       P1  7949  1.00

> <Gold.PLP.Chemscore.Internal.Correction>
0.0444

> <Gold.Rescore>
     Score         DG    S(hbond)    S(metal)    S(lipo)     H(rot)  DE(clash)    DE(int)     intcor
     21.24     -21.77       0.97        0.00     141.01       1.35       0.07       0.46       ----

> <Gold.Chemscore.Fitness>
21.2437

> <Gold.Chemscore.DG>
-21.7747

> <Gold.Chemscore.ZeroCoef>
-5.4800

> <Gold.Chemscore.Hbond>
0.9745

> <Gold.Chemscore.Metal>
0.0000

> <Gold.Chemscore.Lipo>
141.0059

> <Gold.Chemscore.Internal_Hbond>
0.0000

> <Gold.Chemscore.DEClash>
0.0725

> <Gold.Chemscore.DEInternal>
0.4586

> <Gold.Chemscore.Rot>
1.3507

> <Gold.Chemscore.Internal.Correction>
   9.000000E+99

> <Gold.Chemscore.Hbonds>
donor molecule, donor type, donor heavy atom, donor atom, acceptor molecule, acceptor atom, score
      L1  H     8    42       P1  8028  0.94

> <Gold.Chemscore.Hbond.Weighted>
-3.2549

> <Gold.Chemscore.Metal.Weighted>
-0.0000

> <Gold.Chemscore.Lipo.Weighted>
-16.4977

> <Gold.Chemscore.Internal_Hbond.Weighted>
0.0000

> <Gold.Chemscore.DEClash.Weighted>
0.0725

> <Gold.Chemscore.DEInternal.Weighted>
0.4586

> <Gold.Chemscore.Rot.Weighted>
3.4579

> <Gold.Chemscore.Internal.Correction.Weighted>
   9.000000E+99

> <Gold.Protein.RotatedTorsions>
[ 6907 6896 6895 6894 ] final    7.94 input  -60.11 | X-H torsion
[ 7974 7965 7964 7962 ] final  -20.00 input  175.53 | X-H torsion
[ 8008 7997 7996 7995 ] final  141.54 input   59.86 | X-H torsion
[ 10167 10162 10161 10158 ] final -108.65 input  -65.29 | X-H torsion
[ 10718 10713 10712 10709 ] final -150.64 input   66.30 | X-H torsion
[ 10763 10752 10751 10750 ] final  -38.21 input  -60.55 | X-H torsion
[ 11005 11000 10999 10996 ] final   -5.06 input  -57.11 | X-H torsion

> <Gold.Protein.ActiveResidues>
 VAL166  LYS551  ARG553  GLY616  TRP617  ASP618  TYR619  PRO620  LYS621  CYS622 
 ASP623  PHE694  ASN695  SER759  ASP760  ASP761  ALA762  ILE779  LEU786  VAL792 
 PHE793  MET794  SER795  GLU796  ALA797  LYS798  CYS799  TRP800  GLU811  SER814 

> <Gold.Protein.RotatedAtoms>
  151.6981  135.0935  160.0245 H   0  0  0  0  0  0  0  0  0  0  0  0  # atno 6907 bound_to 6896
  152.3737  133.6449  159.6116 H   0  0  0  0  0  0  0  0  0  0  0  0  # atno 6908 bound_to 6896
  150.7693  133.9144  159.3420 H   0  0  0  0  0  0  0  0  0  0  0  0  # atno 6909 bound_to 6896
  146.1811  140.4141  142.8494 H   0  0  0  0  0  0  0  0  0  0  0  0  # atno 7974 bound_to 7965
  156.2964  140.2312  156.4581 H   0  0  0  0  0  0  0  0  0  0  0  0  # atno 8008 bound_to 7997
  154.8043  140.0446  157.1316 H   0  0  0  0  0  0  0  0  0  0  0  0  # atno 8009 bound_to 7997
  154.9497  140.3040  155.5084 H   0  0  0  0  0  0  0  0  0  0  0  0  # atno 8010 bound_to 7997
  140.1639  143.4098  152.1405 H   0  0  0  0  0  0  0  0  0  0  0  0  # atno 10167 bound_to 10162
  156.4488  130.8158  151.2388 H   0  0  0  0  0  0  0  0  0  0  0  0  # atno 10718 bound_to 10713
  153.9091  135.6794  153.4752 H   0  0  0  0  0  0  0  0  0  0  0  0  # atno 10763 bound_to 10752
  153.1088  135.4793  154.8996 H   0  0  0  0  0  0  0  0  0  0  0  0  # atno 10764 bound_to 10752
  154.7536  135.3191  154.8466 H   0  0  0  0  0  0  0  0  0  0  0  0  # atno 10765 bound_to 10752
  140.6870  133.9104  155.8593 H   0  0  0  0  0  0  0  0  0  0  0  0  # atno 11005 bound_to 11000
  144.8317  140.6717  143.6286 LP  0  0  0  0  0  0  0  0  0  0  0  0  # atno 17320 bound_to 7965
  145.4073  139.1586  143.4145 LP  0  0  0  0  0  0  0  0  0  0  0  0  # atno 17321 bound_to 7965
  139.5368  144.7218  151.4865 LP  0  0  0  0  0  0  0  0  0  0  0  0  # atno 17342 bound_to 10162
  140.6625  143.8467  150.6904 LP  0  0  0  0  0  0  0  0  0  0  0  0  # atno 17343 bound_to 10162
  157.7503  131.0144  150.3464 LP  0  0  0  0  0  0  0  0  0  0  0  0  # atno 17370 bound_to 10713
  156.3838  130.3885  149.7081 LP  0  0  0  0  0  0  0  0  0  0  0  0  # atno 17371 bound_to 10713
  141.0272  134.0807  157.4055 LP  0  0  0  0  0  0  0  0  0  0  0  0  # atno 17394 bound_to 11000
  139.8934  135.0130  156.6900 LP  0  0  0  0  0  0  0  0  0  0  0  0  # atno 17395 bound_to 11000

$$$$
