AV-unprocessed.smi:1576|AV-procd|sdf|6344|dock6
  -GOLD-   22720 6563D 1   1.00000     0.00000
 Structure written by MMmdl.
 45 47  0  0  0  0  0  0  0  0  1 V2000
  149.5916  135.3867  156.3968 O   0  0  0  0  0  0  0  0  0  0  0  0
  149.4745  135.6804  155.2076 C   0  0  0  0  0  0  0  0  0  0  0  0
  149.7579  136.8785  154.6681 N   0  0  0  0  0  0  0  0  0  0  0  0
  150.2232  138.0572  155.3125 C   0  0  0  0  0  0  0  0  0  0  0  0
  150.4781  139.2832  154.6551 C   0  0  0  0  0  0  0  0  0  0  0  0
  150.9534  140.3745  155.4074 C   0  0  0  0  0  0  0  0  0  0  0  0
  151.1718  140.2169  156.7962 C   0  0  0  0  0  0  0  0  0  0  0  0
  151.6470  141.3000  157.5672 N   0  0  0  0  0  0  0  0  0  0  0  0
  151.9314  140.9936  158.9705 C   0  0  0  0  0  0  0  0  0  0  0  0
  152.8091  142.0831  159.6104 C   0  0  0  0  0  0  0  0  0  0  0  0
  152.1872  143.4751  159.4240 C   0  0  0  0  0  0  0  0  0  0  0  0
  151.9207  143.7358  157.9344 C   0  0  0  0  0  0  0  0  0  0  0  0
  151.0574  142.6190  157.3234 C   0  0  0  0  0  0  0  0  0  0  0  0
  150.9340  139.0377  157.4210 N   0  0  0  0  0  0  0  0  0  0  0  0
  150.4802  137.9943  156.6963 C   0  0  0  0  0  0  0  0  0  0  0  0
  149.0552  134.8160  154.2724 N   0  0  0  0  0  0  0  0  0  0  0  0
  148.6882  133.4249  154.5213 C   0  0  1  0  0  0  0  0  0  0  0  0
  148.6631  132.5858  153.2269 C   0  0  0  0  0  0  0  0  0  0  0  0
  148.6440  131.0997  153.6052 C   0  0  0  0  0  0  0  0  0  0  0  0
  149.5642  130.9647  155.1843 S   0  0  0  0  0  0  0  0  0  0  0  0
  148.6901  130.3503  156.1949 O   0  0  0  0  0  0  0  0  0  0  0  0
  150.9118  130.4350  154.9263 O   0  0  0  0  0  0  0  0  0  0  0  0
  149.6804  132.7677  155.4915 C   0  0  0  0  0  0  0  0  0  0  0  0
  149.6816  136.9399  153.6634 H   0  0  0  0  0  0  0  0  0  0  0  0
  150.3307  139.4093  153.5942 H   0  0  0  0  0  0  0  0  0  0  0  0
  151.1339  141.3187  154.9154 H   0  0  0  0  0  0  0  0  0  0  0  0
  150.9847  140.9188  159.5071 H   0  0  0  0  0  0  0  0  0  0  0  0
  152.4279  140.0305  159.0812 H   0  0  0  0  0  0  0  0  0  0  0  0
  152.9478  141.8743  160.6714 H   0  0  0  0  0  0  0  0  0  0  0  0
  153.8018  142.0633  159.1584 H   0  0  0  0  0  0  0  0  0  0  0  0
  151.2526  143.5390  159.9825 H   0  0  0  0  0  0  0  0  0  0  0  0
  152.8486  144.2413  159.8291 H   0  0  0  0  0  0  0  0  0  0  0  0
  151.4297  144.7005  157.8040 H   0  0  0  0  0  0  0  0  0  0  0  0
  152.8695  143.7961  157.3995 H   0  0  0  0  0  0  0  0  0  0  0  0
  150.9566  142.7944  156.2515 H   0  0  0  0  0  0  0  0  0  0  0  0
  150.0541  142.6468  157.7510 H   0  0  0  0  0  0  0  0  0  0  0  0
  150.3123  137.0785  157.2441 H   0  0  0  0  0  0  0  0  0  0  0  0
  148.9927  135.1406  153.3187 H   0  0  0  0  0  0  0  0  0  0  0  0
  147.6970  133.3863  154.9775 H   0  0  0  0  0  0  0  0  0  0  0  0
  147.8171  132.8437  152.5892 H   0  0  0  0  0  0  0  0  0  0  0  0
  149.5677  132.7873  152.6514 H   0  0  0  0  0  0  0  0  0  0  0  0
  147.6232  130.7600  153.7821 H   0  0  0  0  0  0  0  0  0  0  0  0
  149.0971  130.4607  152.8471 H   0  0  0  0  0  0  0  0  0  0  0  0
  150.7054  133.0724  155.2784 H   0  0  0  0  0  0  0  0  0  0  0  0
  149.4625  132.9855  156.5373 H   0  0  0  0  0  0  0  0  0  0  0  0
  1  2  2  0  0  0  0
  2  3  1  0  0  0  0
  2 16  1  0  0  0  0
  3  4  1  0  0  0  0
  3 24  1  0  0  0  0
  4 15  1  0  0  0  0
  4  5  2  0  0  0  0
  5  6  1  0  0  0  0
  5 25  1  0  0  0  0
  6  7  2  0  0  0  0
  6 26  1  0  0  0  0
  7  8  1  0  0  0  0
  7 14  1  0  0  0  0
  8 13  1  0  0  0  0
  8  9  1  0  0  0  0
  9 10  1  0  0  0  0
  9 27  1  0  0  0  0
  9 28  1  0  0  0  0
 10 11  1  0  0  0  0
 10 29  1  0  0  0  0
 10 30  1  0  0  0  0
 11 12  1  0  0  0  0
 11 31  1  0  0  0  0
 11 32  1  0  0  0  0
 12 13  1  0  0  0  0
 12 33  1  0  0  0  0
 12 34  1  0  0  0  0
 13 35  1  0  0  0  0
 13 36  1  0  0  0  0
 14 15  2  0  0  0  0
 15 37  1  0  0  0  0
 16 17  1  0  0  0  0
 16 38  1  0  0  0  0
 17 23  1  0  0  0  0
 17 18  1  0  0  0  0
 17 39  1  0  0  0  0
 18 19  1  0  0  0  0
 18 40  1  0  0  0  0
 18 41  1  0  0  0  0
 19 20  1  0  0  0  0
 19 42  1  0  0  0  0
 19 43  1  0  0  0  0
 20 21  2  0  0  0  0
 20 22  2  0  0  0  0
 20 23  1  0  0  0  0
 23 44  1  0  0  0  0
 23 45  1  0  0  0  0
M  END
> <s_m_source_file>
AV-unprocessed.smi

> <i_m_source_file_index>
1576

> <i_lp_mmshare_version>
43012

> <i_f3d_flags>
0

> <s_epik_input>
Tz1TMSg9TylbQ0gyXVtDSDJdW0NASF0oW0NIMl0xKVtOSF1DKD1PKVtOSF1jMltjSF1bY0hdYyhuW2NIXTIpTjNbQ0gyXVtDSDJdW0NIMl1bQ0gyXVtDSDJdMw==

> <s_epik_cmdline>
J2VwaWtfcHl0aG9uJywgJy1waCcsICc3LjAnLCAnLXRuJywgJzgnLCAnLW1hJywgJzIwMCcsICctbWV0YWxfYmluZGluZycsICctaW1hZScsICc8aW5maWxlLm1hZT4nLCAnLW9tYWUnLCAnPG91dGZpbGUubWFlPic=

> <r_lp_tautomer_probability>
1

> <r_epik_Ionization_Penalty>
0.0900267

> <r_epik_Ionization_Penalty_Charging>
0

> <r_epik_Ionization_Penalty_Neutral>
0.0900267

> <r_epik_State_Penalty>
0.0748882

> <r_epik_Charging_Adjusted_Penalty>
0.0748882

> <i_epik_Tot_Q>
0

> <i_epik_Tot_abs_Q>
0

> <r_epik_Metal_State_Penalty>
0.0662821

> <b_epik_Metal_Only>
0

> <s_lp_Force_Field>
OPLS_2005

> <r_lp_Energy>
22.1821

> <b_lp_Chiralities_Consistent>
1

> <s_lp_Variant>
AV-unprocessed.smi:1576-2

> <Gold.Version>
5.8.1

> <Gold.Id.Protein>
6NUR|6NUR_protein|mol2

> <Gold.PLP.Fitness>
44.0444

> <Gold.PLP.PLP>
-38.6168

> <Gold.PLP.part.hbond>
-2.0000

> <Gold.PLP.part.metal>
0.0000

> <Gold.PLP.part.buried>
-2.1336

> <Gold.PLP.part.nonpolar>
-34.7763

> <Gold.PLP.part.repulsive>
0.1048

> <Gold.PLP.ligand.clash>
0.0000

> <Gold.PLP.ligand.torsion>
0.4843

> <Gold.PLP.Chemscore.Hbond>
1.9913

> <Gold.PLP.Chemscore.CHOScore>
0.0000

> <Gold.PLP.Chemscore.Metal>
0.0000

> <Gold.Chemscore.Hbonds>
donor molecule, donor type, donor heavy atom, donor atom, acceptor molecule, acceptor atom, score
      L1  H     3    24       P1  7948  0.99
      L1  H    16    38       P1  7948  1.00

> <Gold.PLP.Chemscore.Internal.Correction>
0.4224

> <Gold.Rescore>
     Score         DG    S(hbond)    S(metal)    S(lipo)     H(rot)  DE(clash)    DE(int)     intcor
     15.98     -19.47       1.84        0.00      94.16       1.24       0.07       3.42       ----

> <Gold.Chemscore.Fitness>
15.9802

> <Gold.Chemscore.DG>
-19.4668

> <Gold.Chemscore.ZeroCoef>
-5.4800

> <Gold.Chemscore.Hbond>
1.8369

> <Gold.Chemscore.Metal>
0.0000

> <Gold.Chemscore.Lipo>
94.1639

> <Gold.Chemscore.Internal_Hbond>
0.0000

> <Gold.Chemscore.DEClash>
0.0679

> <Gold.Chemscore.DEInternal>
3.4186

> <Gold.Chemscore.Rot>
1.2366

> <Gold.Chemscore.Internal.Correction>
   9.000000E+99

> <Gold.Chemscore.Hbonds>
donor molecule, donor type, donor heavy atom, donor atom, acceptor molecule, acceptor atom, score
      L1  H     3    24       P1  7948  0.62
      L1  H    16    38       P1  7948  0.35

> <Gold.Chemscore.Hbond.Weighted>
-6.1353

> <Gold.Chemscore.Metal.Weighted>
-0.0000

> <Gold.Chemscore.Lipo.Weighted>
-11.0172

> <Gold.Chemscore.Internal_Hbond.Weighted>
0.0000

> <Gold.Chemscore.DEClash.Weighted>
0.0679

> <Gold.Chemscore.DEInternal.Weighted>
3.4186

> <Gold.Chemscore.Rot.Weighted>
3.1657

> <Gold.Chemscore.Internal.Correction.Weighted>
   9.000000E+99

> <Gold.Protein.RotatedTorsions>
[ 6907 6896 6895 6894 ] final   72.92 input  -60.11 | X-H torsion
[ 7974 7965 7964 7962 ] final -100.51 input  175.53 | X-H torsion
[ 8008 7997 7996 7995 ] final  126.51 input   59.86 | X-H torsion
[ 10167 10162 10161 10158 ] final -115.80 input  -65.29 | X-H torsion
[ 10718 10713 10712 10709 ] final -117.20 input   66.30 | X-H torsion
[ 10763 10752 10751 10750 ] final   42.87 input  -60.55 | X-H torsion
[ 11005 11000 10999 10996 ] final -124.85 input  -57.11 | X-H torsion

> <Gold.Protein.ActiveResidues>
 VAL166  LYS551  ARG553  GLY616  TRP617  ASP618  TYR619  PRO620  LYS621  CYS622 
 ASP623  PHE694  ASN695  SER759  ASP760  ASP761  ALA762  ILE779  LEU786  VAL792 
 PHE793  MET794  SER795  GLU796  ALA797  LYS798  CYS799  TRP800  GLU811  SER814 

> <Gold.Protein.RotatedAtoms>
  152.4895  134.4499  159.9570 H   0  0  0  0  0  0  0  0  0  0  0  0  # atno 6907 bound_to 6896
  151.4489  133.3617  159.2800 H   0  0  0  0  0  0  0  0  0  0  0  0  # atno 6908 bound_to 6896
  150.9035  134.8473  159.7437 H   0  0  0  0  0  0  0  0  0  0  0  0  # atno 6909 bound_to 6896
  145.2937  140.9359  143.2863 H   0  0  0  0  0  0  0  0  0  0  0  0  # atno 7974 bound_to 7965
  156.2866  140.2691  156.2122 H   0  0  0  0  0  0  0  0  0  0  0  0  # atno 8008 bound_to 7997
  155.0252  140.0386  157.2471 H   0  0  0  0  0  0  0  0  0  0  0  0  # atno 8009 bound_to 7997
  154.7401  140.2723  155.6385 H   0  0  0  0  0  0  0  0  0  0  0  0  # atno 8010 bound_to 7997
  140.0861  143.4743  152.1897 H   0  0  0  0  0  0  0  0  0  0  0  0  # atno 10167 bound_to 10162
  156.1017  130.6177  150.9134 H   0  0  0  0  0  0  0  0  0  0  0  0  # atno 10718 bound_to 10713
  152.9873  135.6118  154.3020 H   0  0  0  0  0  0  0  0  0  0  0  0  # atno 10763 bound_to 10752
  154.2740  135.2779  155.2728 H   0  0  0  0  0  0  0  0  0  0  0  0  # atno 10764 bound_to 10752
  154.5097  135.5844  153.6652 H   0  0  0  0  0  0  0  0  0  0  0  0  # atno 10765 bound_to 10752
  140.9809  134.0675  157.3766 H   0  0  0  0  0  0  0  0  0  0  0  0  # atno 11005 bound_to 11000
  144.9151  139.4480  143.6568 LP  0  0  0  0  0  0  0  0  0  0  0  0  # atno 17320 bound_to 7965
  146.3176  139.7981  142.8971 LP  0  0  0  0  0  0  0  0  0  0  0  0  # atno 17321 bound_to 7965
  139.5751  144.7483  151.3786 LP  0  0  0  0  0  0  0  0  0  0  0  0  # atno 17342 bound_to 10162
  140.7053  143.7530  150.7471 LP  0  0  0  0  0  0  0  0  0  0  0  0  # atno 17343 bound_to 10162
  157.6188  131.0931  150.8660 LP  0  0  0  0  0  0  0  0  0  0  0  0  # atno 17370 bound_to 10713
  156.8787  130.5171  149.5292 LP  0  0  0  0  0  0  0  0  0  0  0  0  # atno 17371 bound_to 10713
  139.8950  135.0138  156.6978 LP  0  0  0  0  0  0  0  0  0  0  0  0  # atno 17394 bound_to 11000
  140.7188  133.9159  155.8133 LP  0  0  0  0  0  0  0  0  0  0  0  0  # atno 17395 bound_to 11000

$$$$
