AV-unprocessed.smi:3202|AV-procd|sdf|12242|dock2
  -GOLD-   2272018 73D 1   1.00000     0.00000
 Structure written by MMmdl.
 43 44  0  0  0  0  0  0  0  0  2 V2000
  146.4189  138.2741  153.4445 C   0  0  0  0  0  0  0  0  0  0  0  0
  147.5843  139.1003  153.8719 C   0  0  0  0  0  0  0  0  0  0  0  0
  147.6540  140.3462  154.4291 C   0  0  0  0  0  0  0  0  0  0  0  0
  149.0503  140.5800  154.5984 C   0  0  0  0  0  0  0  0  0  0  0  0
  149.7182  141.8003  155.1733 C   0  0  0  0  0  0  0  0  0  0  0  0
  150.2385  141.6013  156.6142 C   0  0  1  0  0  0  0  0  0  0  0  0
  151.3259  140.5189  156.7170 C   0  0  0  0  0  0  0  0  0  0  0  0
  150.7802  142.8751  157.1399 N   0  3  0  0  0  0  0  0  0  0  0  0
  150.8705  142.9848  158.6150 C   0  0  2  0  0  0  0  0  0  0  0  0
  149.9917  144.0903  159.2132 C   0  0  0  0  0  0  0  0  0  0  0  0
  150.6426  144.4381  160.5577 C   0  0  0  0  0  0  0  0  0  0  0  0
  152.0189  143.7532  160.5646 C   0  0  0  0  0  0  0  0  0  0  0  0
  152.2955  143.2989  159.1190 C   0  0  0  0  0  0  0  0  0  0  0  0
  153.1993  142.0519  159.0890 C   0  0  0  0  0  0  0  0  0  0  0  0
  152.9715  144.4455  158.3311 C   0  0  0  0  0  0  0  0  0  0  0  0
  149.7867  139.5594  154.1817 N   0  0  0  0  0  0  0  0  0  0  0  0
  148.8826  138.6647  153.7415 N   0  0  0  0  0  0  0  0  0  0  0  0
  149.1625  137.7734  153.3563 H   0  0  0  0  0  0  0  0  0  0  0  0
  145.4880  138.6768  153.8442 H   0  0  0  0  0  0  0  0  0  0  0  0
  146.5191  137.2470  153.7966 H   0  0  0  0  0  0  0  0  0  0  0  0
  146.3377  138.2536  152.3576 H   0  0  0  0  0  0  0  0  0  0  0  0
  146.8287  140.9970  154.6778 H   0  0  0  0  0  0  0  0  0  0  0  0
  150.5442  142.1051  154.5290 H   0  0  0  0  0  0  0  0  0  0  0  0
  149.0107  142.6283  155.1491 H   0  0  0  0  0  0  0  0  0  0  0  0
  149.4061  141.2831  157.2441 H   0  0  0  0  0  0  0  0  0  0  0  0
  150.9394  139.5343  156.4537 H   0  0  0  0  0  0  0  0  0  0  0  0
  151.7113  140.4471  157.7349 H   0  0  0  0  0  0  0  0  0  0  0  0
  152.1669  140.7358  156.0577 H   0  0  0  0  0  0  0  0  0  0  0  0
  151.7224  142.9620  156.7864 H   0  0  0  0  0  0  0  0  0  0  0  0
  150.5601  142.0319  159.0482 H   0  0  0  0  0  0  0  0  0  0  0  0
  149.9987  144.9729  158.5725 H   0  0  0  0  0  0  0  0  0  0  0  0
  148.9536  143.7759  159.3271 H   0  0  0  0  0  0  0  0  0  0  0  0
  150.7416  145.5194  160.6619 H   0  0  0  0  0  0  0  0  0  0  0  0
  150.0366  144.0849  161.3929 H   0  0  0  0  0  0  0  0  0  0  0  0
  152.8006  144.4039  160.9589 H   0  0  0  0  0  0  0  0  0  0  0  0
  151.9710  142.8863  161.2257 H   0  0  0  0  0  0  0  0  0  0  0  0
  154.1774  142.2645  159.5220 H   0  0  0  0  0  0  0  0  0  0  0  0
  153.3596  141.7036  158.0682 H   0  0  0  0  0  0  0  0  0  0  0  0
  152.7650  141.2253  159.6524 H   0  0  0  0  0  0  0  0  0  0  0  0
  153.9342  144.7067  158.7715 H   0  0  0  0  0  0  0  0  0  0  0  0
  152.3660  145.3519  158.3223 H   0  0  0  0  0  0  0  0  0  0  0  0
  153.1618  144.1665  157.2944 H   0  0  0  0  0  0  0  0  0  0  0  0
  150.2361  143.6446  156.7768 H   0  0  0  0  0  0  0  0  0  0  0  0
  1  2  1  0  0  0  0
  1 19  1  0  0  0  0
  1 20  1  0  0  0  0
  1 21  1  0  0  0  0
  2 17  1  0  0  0  0
  2  3  2  0  0  0  0
  3  4  1  0  0  0  0
  3 22  1  0  0  0  0
  4  5  1  0  0  0  0
  4 16  2  0  0  0  0
  5  6  1  0  0  0  0
  5 23  1  0  0  0  0
  5 24  1  0  0  0  0
  6  7  1  0  0  0  0
  6  8  1  0  0  0  0
  6 25  1  0  0  0  0
  7 26  1  0  0  0  0
  7 27  1  0  0  0  0
  7 28  1  0  0  0  0
  8  9  1  0  0  0  0
  8 29  1  0  0  0  0
  8 43  1  0  0  0  0
  9 13  1  0  0  0  0
  9 10  1  0  0  0  0
  9 30  1  0  0  0  0
 10 11  1  0  0  0  0
 10 31  1  0  0  0  0
 10 32  1  0  0  0  0
 11 12  1  0  0  0  0
 11 33  1  0  0  0  0
 11 34  1  0  0  0  0
 12 13  1  0  0  0  0
 12 35  1  0  0  0  0
 12 36  1  0  0  0  0
 13 14  1  0  0  0  0
 13 15  1  0  0  0  0
 14 37  1  0  0  0  0
 14 38  1  0  0  0  0
 14 39  1  0  0  0  0
 15 40  1  0  0  0  0
 15 41  1  0  0  0  0
 15 42  1  0  0  0  0
 16 17  1  0  0  0  0
 17 18  1  0  0  0  0
M  CHG  1   8   1
M  END
> <s_m_source_file>
AV-unprocessed.smi

> <i_m_source_file_index>
3202

> <i_lp_mmshare_version>
43012

> <i_f3d_flags>
0

> <s_epik_input>
W0NIM11jMVtjSF1jKG5bbkhdMSlbQ0gyXVtDQEhdKFtDSDNdKVtOSF1bQ0BASF0oQzIoW0NIM10pW0NIM10pW0NIMl1bQ0gyXVtDSDJdMg==

> <s_epik_cmdline>
J2VwaWtfcHl0aG9uJywgJy1waCcsICc3LjAnLCAnLXRuJywgJzgnLCAnLW1hJywgJzIwMCcsICctbWV0YWxfYmluZGluZycsICctaW1hZScsICc8aW5maWxlLm1hZT4nLCAnLW9tYWUnLCAnPG91dGZpbGUubWFlPic=

> <r_lp_tautomer_probability>
0.5

> <r_epik_Ionization_Penalty>
0.000341671

> <r_epik_Ionization_Penalty_Charging>
0.000281809

> <r_epik_Ionization_Penalty_Neutral>
5.9862e-05

> <r_epik_State_Penalty>
0.41068

> <r_epik_Charging_Adjusted_Penalty>
0.410962

> <i_epik_Tot_Q>
1

> <i_epik_Tot_abs_Q>
1

> <r_epik_Metal_State_Penalty>
0.410672

> <b_epik_Metal_Only>
0

> <s_lp_Force_Field>
OPLS_2005

> <r_lp_Energy>
29.8366

> <b_lp_Chiralities_Consistent>
1

> <s_lp_Variant>
AV-unprocessed.smi:3202-2

> <Gold.Version>
5.8.1

> <Gold.Id.Protein>
6NUR|6NUR_protein|mol2

> <Gold.PLP.Fitness>
44.4551

> <Gold.PLP.PLP>
-35.8975

> <Gold.PLP.part.hbond>
-3.9922

> <Gold.PLP.part.metal>
0.0000

> <Gold.PLP.part.buried>
-2.9670

> <Gold.PLP.part.nonpolar>
-30.2359

> <Gold.PLP.part.repulsive>
1.7184

> <Gold.PLP.ligand.clash>
0.0000

> <Gold.PLP.ligand.torsion>
1.1239

> <Gold.PLP.Chemscore.Hbond>
3.5935

> <Gold.PLP.Chemscore.CHOScore>
0.0000

> <Gold.PLP.Chemscore.Metal>
0.0000

> <Gold.Chemscore.Hbonds>
donor molecule, donor type, donor heavy atom, donor atom, acceptor molecule, acceptor atom, score
      L1  H     8    43       P1  8028  1.92
      L1  H    17    18       P1  7948  0.75
      P1  H  7989  7998       L1    16  0.16

> <Gold.PLP.Chemscore.Internal.Correction>
0.0248

> <Gold.Rescore>
     Score         DG    S(hbond)    S(metal)    S(lipo)     H(rot)  DE(clash)    DE(int)     intcor
     19.30     -21.27       1.83        0.00     114.67       1.46       0.76       1.21       ----

> <Gold.Chemscore.Fitness>
19.3018

> <Gold.Chemscore.DG>
-21.2728

> <Gold.Chemscore.ZeroCoef>
-5.4800

> <Gold.Chemscore.Hbond>
1.8303

> <Gold.Chemscore.Metal>
0.0000

> <Gold.Chemscore.Lipo>
114.6681

> <Gold.Chemscore.Internal_Hbond>
0.0000

> <Gold.Chemscore.DEClash>
0.7642

> <Gold.Chemscore.DEInternal>
1.2069

> <Gold.Chemscore.Rot>
1.4596

> <Gold.Chemscore.Internal.Correction>
   9.000000E+99

> <Gold.Chemscore.Hbonds>
donor molecule, donor type, donor heavy atom, donor atom, acceptor molecule, acceptor atom, score
      L1  H     8    43       P1  8028  0.91
      L1  H    17    18       P1  7948  0.71
      P1  H  7989  7998       L1    16  0.02

> <Gold.Chemscore.Hbond.Weighted>
-6.1132

> <Gold.Chemscore.Metal.Weighted>
-0.0000

> <Gold.Chemscore.Lipo.Weighted>
-13.4162

> <Gold.Chemscore.Internal_Hbond.Weighted>
0.0000

> <Gold.Chemscore.DEClash.Weighted>
0.7642

> <Gold.Chemscore.DEInternal.Weighted>
1.2069

> <Gold.Chemscore.Rot.Weighted>
3.7365

> <Gold.Chemscore.Internal.Correction.Weighted>
   9.000000E+99

> <Gold.Protein.RotatedTorsions>
[ 6907 6896 6895 6894 ] final   36.00 input  -60.11 | X-H torsion
[ 7974 7965 7964 7962 ] final  -40.07 input  175.53 | X-H torsion
[ 8008 7997 7996 7995 ] final  102.46 input   59.86 | X-H torsion
[ 10167 10162 10161 10158 ] final -107.28 input  -65.29 | X-H torsion
[ 10718 10713 10712 10709 ] final  -37.06 input   66.30 | X-H torsion
[ 10763 10752 10751 10750 ] final   87.10 input  -60.55 | X-H torsion
[ 11005 11000 10999 10996 ] final  -36.38 input  -57.11 | X-H torsion

> <Gold.Protein.ActiveResidues>
 VAL166  LYS551  ARG553  GLY616  TRP617  ASP618  TYR619  PRO620  LYS621  CYS622 
 ASP623  PHE694  ASN695  SER759  ASP760  ASP761  ALA762  ILE779  LEU786  VAL792 
 PHE793  MET794  SER795  GLU796  ALA797  LYS798  CYS799  TRP800  GLU811  SER814 

> <Gold.Protein.RotatedAtoms>
  152.1238  134.9186  160.0561 H   0  0  0  0  0  0  0  0  0  0  0  0  # atno 6907 bound_to 6896
  152.0317  133.3935  159.4308 H   0  0  0  0  0  0  0  0  0  0  0  0  # atno 6908 bound_to 6896
  150.6851  134.3435  159.4922 H   0  0  0  0  0  0  0  0  0  0  0  0  # atno 6909 bound_to 6896
  146.0338  140.6697  142.9120 H   0  0  0  0  0  0  0  0  0  0  0  0  # atno 7974 bound_to 7965
  156.1395  140.3181  155.8473 H   0  0  0  0  0  0  0  0  0  0  0  0  # atno 8008 bound_to 7997
  155.4182  140.0510  157.3044 H   0  0  0  0  0  0  0  0  0  0  0  0  # atno 8009 bound_to 7997
  154.4964  140.2112  155.9450 H   0  0  0  0  0  0  0  0  0  0  0  0  # atno 8010 bound_to 7997
  140.1787  143.3984  152.1298 H   0  0  0  0  0  0  0  0  0  0  0  0  # atno 10167 bound_to 10162
  156.3196  130.4264  149.7973 H   0  0  0  0  0  0  0  0  0  0  0  0  # atno 10718 bound_to 10713
  153.1635  135.4556  154.9804 H   0  0  0  0  0  0  0  0  0  0  0  0  # atno 10763 bound_to 10752
  154.7915  135.3222  154.7769 H   0  0  0  0  0  0  0  0  0  0  0  0  # atno 10764 bound_to 10752
  153.8256  135.6943  153.4876 H   0  0  0  0  0  0  0  0  0  0  0  0  # atno 10765 bound_to 10752
  140.9870  133.7025  156.1783 H   0  0  0  0  0  0  0  0  0  0  0  0  # atno 11005 bound_to 11000
  144.7042  140.3784  143.7131 LP  0  0  0  0  0  0  0  0  0  0  0  0  # atno 17320 bound_to 7965
  145.6997  139.1658  143.2600 LP  0  0  0  0  0  0  0  0  0  0  0  0  # atno 17321 bound_to 7965
  139.5306  144.7154  151.5071 LP  0  0  0  0  0  0  0  0  0  0  0  0  # atno 17342 bound_to 10162
  140.6534  143.8650  150.6809 LP  0  0  0  0  0  0  0  0  0  0  0  0  # atno 17343 bound_to 10162
  156.5285  130.8247  151.3229 LP  0  0  0  0  0  0  0  0  0  0  0  0  # atno 17370 bound_to 10713
  157.7409  130.9859  150.2408 LP  0  0  0  0  0  0  0  0  0  0  0  0  # atno 17371 bound_to 10713
  140.7099  134.4473  157.5582 LP  0  0  0  0  0  0  0  0  0  0  0  0  # atno 17394 bound_to 11000
  139.8975  134.8635  156.2042 LP  0  0  0  0  0  0  0  0  0  0  0  0  # atno 17395 bound_to 11000

$$$$
