AV-unprocessed.smi:286|AV-procd|sdf|2174|dock2
  -GOLD-   2262021533D 1   1.00000     0.00000
 Structure written by MMmdl.
 46 48  0  0  0  0  0  0  0  0  1 V2000
  152.9483  138.3265  158.8931 O   0  0  0  0  0  0  0  0  0  0  0  0
  152.8263  139.5208  159.1713 C   0  0  0  0  0  0  0  0  0  0  0  0
  153.7494  140.2389  160.0412 C   0  0  0  0  0  0  0  0  0  0  0  0
  154.8243  139.6037  160.5384 F   0  0  0  0  0  0  0  0  0  0  0  0
  153.5529  141.5399  160.3443 C   0  0  0  0  0  0  0  0  0  0  0  0
  152.4710  142.2728  159.8836 N   0  0  0  0  0  0  0  0  0  0  0  0
  152.3328  143.7545  160.1712 C   0  0  1  0  0  0  0  0  0  0  0  0
  152.4800  144.6552  158.9323 C   0  0  0  0  0  0  0  0  0  0  0  0
  151.0464  145.0646  158.6566 C   0  0  0  0  0  0  0  0  0  0  0  0
  150.4538  145.0739  160.0603 C   0  0  0  0  0  0  0  0  0  0  0  0
  151.0586  143.9599  160.7045 O   0  0  0  0  0  0  0  0  0  0  0  0
  151.5725  141.6773  158.9684 C   0  0  0  0  0  0  0  0  0  0  0  0
  150.6511  142.3312  158.4752 O   0  0  0  0  0  0  0  0  0  0  0  0
  151.7677  140.3092  158.6573 N   0  0  0  0  0  0  0  0  0  0  0  0
  150.8191  139.6529  157.7680 C   0  0  0  0  0  0  0  0  0  0  0  0
  151.2694  139.5982  156.2872 C   0  0  2  0  0  0  0  0  0  0  0  0
  152.3517  140.4920  156.1184 O   0  0  0  0  0  0  0  0  0  0  0  0
  150.1604  139.8858  155.2429 C   0  0  0  0  0  0  0  0  0  0  0  0
  149.6071  141.3215  155.3719 C   0  0  0  0  0  0  0  0  0  0  0  0
  148.5706  141.6284  154.2783 C   0  0  0  0  0  0  0  0  0  0  0  0
  147.4264  140.6032  154.2887 C   0  0  0  0  0  0  0  0  0  0  0  0
  147.9652  139.1695  154.1678 C   0  0  0  0  0  0  0  0  0  0  0  0
  148.9959  138.8680  155.2674 C   0  0  0  0  0  0  0  0  0  0  0  0
  154.2909  142.0122  160.9727 H   0  0  0  0  0  0  0  0  0  0  0  0
  153.1049  143.9956  160.9034 H   0  0  0  0  0  0  0  0  0  0  0  0
  153.0641  145.5309  159.2189 H   0  0  0  0  0  0  0  0  0  0  0  0
  152.9912  144.1716  158.1003 H   0  0  0  0  0  0  0  0  0  0  0  0
  150.9669  146.0296  158.1556 H   0  0  0  0  0  0  0  0  0  0  0  0
  150.5414  144.3194  158.0418 H   0  0  0  0  0  0  0  0  0  0  0  0
  150.7320  145.9871  160.5884 H   0  0  0  0  0  0  0  0  0  0  0  0
  149.3666  144.9950  160.0607 H   0  0  0  0  0  0  0  0  0  0  0  0
  150.5847  138.6654  158.1650 H   0  0  0  0  0  0  0  0  0  0  0  0
  149.8827  140.2057  157.8671 H   0  0  0  0  0  0  0  0  0  0  0  0
  151.6705  138.6037  156.0908 H   0  0  0  0  0  0  0  0  0  0  0  0
  152.2912  141.1634  156.7805 H   0  0  0  0  0  0  0  0  0  0  0  0
  150.6247  139.8292  154.2584 H   0  0  0  0  0  0  0  0  0  0  0  0
  149.1491  141.4583  156.3523 H   0  0  0  0  0  0  0  0  0  0  0  0
  150.4218  142.0437  155.3094 H   0  0  0  0  0  0  0  0  0  0  0  0
  148.1707  142.6333  154.4172 H   0  0  0  0  0  0  0  0  0  0  0  0
  149.0574  141.6225  153.3023 H   0  0  0  0  0  0  0  0  0  0  0  0
  146.8554  140.7020  155.2129 H   0  0  0  0  0  0  0  0  0  0  0  0
  146.7330  140.8103  153.4731 H   0  0  0  0  0  0  0  0  0  0  0  0
  147.1417  138.4572  154.2257 H   0  0  0  0  0  0  0  0  0  0  0  0
  148.4253  139.0313  153.1885 H   0  0  0  0  0  0  0  0  0  0  0  0
  149.3649  137.8518  155.1395 H   0  0  0  0  0  0  0  0  0  0  0  0
  148.4984  138.8909  156.2376 H   0  0  0  0  0  0  0  0  0  0  0  0
  1  2  2  0  0  0  0
  2 14  1  0  0  0  0
  2  3  1  0  0  0  0
  3  4  1  0  0  0  0
  3  5  2  0  0  0  0
  5  6  1  0  0  0  0
  5 24  1  0  0  0  0
  6  7  1  0  0  0  0
  6 12  1  0  0  0  0
  7 11  1  0  0  0  0
  7  8  1  0  0  0  0
  7 25  1  0  0  0  0
  8  9  1  0  0  0  0
  8 26  1  0  0  0  0
  8 27  1  0  0  0  0
  9 10  1  0  0  0  0
  9 28  1  0  0  0  0
  9 29  1  0  0  0  0
 10 11  1  0  0  0  0
 10 30  1  0  0  0  0
 10 31  1  0  0  0  0
 12 13  2  0  0  0  0
 12 14  1  0  0  0  0
 14 15  1  0  0  0  0
 15 16  1  0  0  0  0
 15 32  1  0  0  0  0
 15 33  1  0  0  0  0
 16 17  1  0  0  0  0
 16 18  1  0  0  0  0
 16 34  1  0  0  0  0
 17 35  1  0  0  0  0
 18 23  1  0  0  0  0
 18 19  1  0  0  0  0
 18 36  1  0  0  0  0
 19 20  1  0  0  0  0
 19 37  1  0  0  0  0
 19 38  1  0  0  0  0
 20 21  1  0  0  0  0
 20 39  1  0  0  0  0
 20 40  1  0  0  0  0
 21 22  1  0  0  0  0
 21 41  1  0  0  0  0
 21 42  1  0  0  0  0
 22 23  1  0  0  0  0
 22 43  1  0  0  0  0
 22 44  1  0  0  0  0
 23 45  1  0  0  0  0
 23 46  1  0  0  0  0
M  END
> <s_m_source_file>
AV-unprocessed.smi

> <i_m_source_file_index>
286

> <i_lp_mmshare_version>
43012

> <i_f3d_flags>
0

> <s_epik_input>
TzFbQ0gyXVtDSDJdW0NIMl1bQ0BIXTFuKFtjSF1jKEYpYzI9TyljKD1PKW4yW0NIMl1bQ0BIXShbT0hdKVtDSF0zW0NIMl1bQ0gyXVtDSDJdW0NIMl1bQ0gyXTM=

> <s_epik_cmdline>
J2VwaWtfcHl0aG9uJywgJy1waCcsICc3LjAnLCAnLXRuJywgJzgnLCAnLW1hJywgJzIwMCcsICctbWV0YWxfYmluZGluZycsICctaW1hZScsICc8aW5maWxlLm1hZT4nLCAnLW9tYWUnLCAnPG91dGZpbGUubWFlPic=

> <r_lp_tautomer_probability>
1

> <r_epik_Ionization_Penalty>
3.15564e-07

> <r_epik_Ionization_Penalty_Charging>
2.06416e-08

> <r_epik_Ionization_Penalty_Neutral>
2.94923e-07

> <r_epik_State_Penalty>
-0

> <r_epik_Charging_Adjusted_Penalty>
2.06416e-08

> <i_epik_Tot_Q>
0

> <i_epik_Tot_abs_Q>
0

> <r_epik_Metal_State_Penalty>
-0

> <b_epik_Metal_Only>
0

> <s_epik_Chemistry_Notes>
This compound contains an acetal/aminal-like group ( X-CH(R)-Y where X, Y are N, S, or O) that may be acid/base labile, releasing an aldehyde.

> <s_lp_Force_Field>
OPLS_2005

> <r_lp_Energy>
39.3884

> <b_lp_Chiralities_Consistent>
1

> <s_lp_Variant>
AV-unprocessed.smi:286-2

> <Gold.Version>
5.8.1

> <Gold.Id.Protein>
6NUR|6NUR_protein|mol2

> <Gold.PLP.Fitness>
47.8448

> <Gold.PLP.PLP>
-46.8725

> <Gold.PLP.part.hbond>
-1.2851

> <Gold.PLP.part.metal>
0.0000

> <Gold.PLP.part.buried>
-2.8088

> <Gold.PLP.part.nonpolar>
-42.8215

> <Gold.PLP.part.repulsive>
0.1762

> <Gold.PLP.ligand.clash>
0.0000

> <Gold.PLP.ligand.torsion>
1.0415

> <Gold.PLP.Chemscore.Hbond>
0.9760

> <Gold.PLP.Chemscore.CHOScore>
0.0000

> <Gold.PLP.Chemscore.Metal>
0.0000

> <Gold.Chemscore.Hbonds>
donor molecule, donor type, donor heavy atom, donor atom, acceptor molecule, acceptor atom, score
      P1  H  7997  8009       L1    17  0.90

> <Gold.PLP.Chemscore.Internal.Correction>
0.1273

> <Gold.Rescore>
     Score         DG    S(hbond)    S(metal)    S(lipo)     H(rot)  DE(clash)    DE(int)     intcor
      7.80     -13.56       0.86        0.00      94.18       2.28       0.68       5.08       ----

> <Gold.Chemscore.Fitness>
7.8013

> <Gold.Chemscore.DG>
-13.5568

> <Gold.Chemscore.ZeroCoef>
-5.4800

> <Gold.Chemscore.Hbond>
0.8632

> <Gold.Chemscore.Metal>
0.0000

> <Gold.Chemscore.Lipo>
94.1791

> <Gold.Chemscore.Internal_Hbond>
0.0000

> <Gold.Chemscore.DEClash>
0.6778

> <Gold.Chemscore.DEInternal>
5.0777

> <Gold.Chemscore.Rot>
2.2756

> <Gold.Chemscore.Internal.Correction>
   9.000000E+99

> <Gold.Chemscore.Hbonds>
donor molecule, donor type, donor heavy atom, donor atom, acceptor molecule, acceptor atom, score
      P1  H  7997  8009       L1    17  0.21

> <Gold.Chemscore.Hbond.Weighted>
-2.8833

> <Gold.Chemscore.Metal.Weighted>
-0.0000

> <Gold.Chemscore.Lipo.Weighted>
-11.0190

> <Gold.Chemscore.Internal_Hbond.Weighted>
0.0000

> <Gold.Chemscore.DEClash.Weighted>
0.6778

> <Gold.Chemscore.DEInternal.Weighted>
5.0777

> <Gold.Chemscore.Rot.Weighted>
5.8254

> <Gold.Chemscore.Internal.Correction.Weighted>
   9.000000E+99

> <Gold.Protein.RotatedTorsions>
[ 6907 6896 6895 6894 ] final   56.21 input  -60.11 | X-H torsion
[ 7974 7965 7964 7962 ] final -100.02 input  175.53 | X-H torsion
[ 8008 7997 7996 7995 ] final -147.79 input   59.86 | X-H torsion
[ 10167 10162 10161 10158 ] final -107.80 input  -65.29 | X-H torsion
[ 10718 10713 10712 10709 ] final -133.19 input   66.30 | X-H torsion
[ 10763 10752 10751 10750 ] final   36.25 input  -60.55 | X-H torsion
[ 11005 11000 10999 10996 ] final  128.35 input  -57.11 | X-H torsion

> <Gold.Protein.ActiveResidues>
 VAL166  LYS551  ARG553  GLY616  TRP617  ASP618  TYR619  PRO620  LYS621  CYS622 
 ASP623  PHE694  ASN695  SER759  ASP760  ASP761  ALA762  ILE779  LEU786  VAL792 
 PHE793  MET794  SER795  GLU796  ALA797  LYS798  CYS799  TRP800  GLU811  SER814 

> <Gold.Protein.RotatedAtoms>
  152.3614  134.6866  160.0205 H   0  0  0  0  0  0  0  0  0  0  0  0  # atno 6907 bound_to 6896
  151.7188  133.3308  159.3318 H   0  0  0  0  0  0  0  0  0  0  0  0  # atno 6908 bound_to 6896
  150.7607  134.6400  159.6277 H   0  0  0  0  0  0  0  0  0  0  0  0  # atno 6909 bound_to 6896
  145.2999  140.9374  143.2829 H   0  0  0  0  0  0  0  0  0  0  0  0  # atno 7974 bound_to 7965
  155.5812  140.0643  157.2782 H   0  0  0  0  0  0  0  0  0  0  0  0  # atno 8008 bound_to 7997
  154.4332  140.1851  156.1025 H   0  0  0  0  0  0  0  0  0  0  0  0  # atno 8009 bound_to 7997
  156.0303  140.3307  155.7136 H   0  0  0  0  0  0  0  0  0  0  0  0  # atno 8010 bound_to 7997
  140.1730  143.4027  152.1340 H   0  0  0  0  0  0  0  0  0  0  0  0  # atno 10167 bound_to 10162
  156.2424  130.7103  151.0970 H   0  0  0  0  0  0  0  0  0  0  0  0  # atno 10718 bound_to 10713
  153.0085  135.6311  154.1955 H   0  0  0  0  0  0  0  0  0  0  0  0  # atno 10763 bound_to 10752
  154.1698  135.2819  155.3086 H   0  0  0  0  0  0  0  0  0  0  0  0  # atno 10764 bound_to 10752
  154.5917  135.5615  153.7345 H   0  0  0  0  0  0  0  0  0  0  0  0  # atno 10765 bound_to 10752
  139.9556  134.9613  156.8990 H   0  0  0  0  0  0  0  0  0  0  0  0  # atno 11005 bound_to 11000
  144.9102  139.4538  143.6590 LP  0  0  0  0  0  0  0  0  0  0  0  0  # atno 17320 bound_to 7965
  146.3155  139.7906  142.8986 LP  0  0  0  0  0  0  0  0  0  0  0  0  # atno 17321 bound_to 7965
  139.5329  144.7179  151.4992 LP  0  0  0  0  0  0  0  0  0  0  0  0  # atno 17342 bound_to 10162
  140.6569  143.8580  150.6845 LP  0  0  0  0  0  0  0  0  0  0  0  0  # atno 17343 bound_to 10162
  157.7181  131.0698  150.6248 LP  0  0  0  0  0  0  0  0  0  0  0  0  # atno 17370 bound_to 10713
  156.6322  130.4435  149.5782 LP  0  0  0  0  0  0  0  0  0  0  0  0  # atno 17371 bound_to 10713
  140.5617  134.0529  155.7401 LP  0  0  0  0  0  0  0  0  0  0  0  0  # atno 17394 bound_to 11000
  141.1227  133.9435  157.2698 LP  0  0  0  0  0  0  0  0  0  0  0  0  # atno 17395 bound_to 11000

$$$$
