AV-unprocessed.smi:1864|AV-procd|sdf|7553|dock7
  -GOLD-   22720 9273D 1   1.00000     0.00000
 Structure written by MMmdl.
 33 34  0  0  0  0  0  0  0  0  2 V2000
  147.4795  141.6266  153.7590 C   0  0  0  0  0  0  0  0  0  0  0  0
  148.3642  140.4688  154.0735 C   0  0  0  0  0  0  0  0  0  0  0  0
  147.8874  139.2321  154.1408 N   0  0  0  0  0  0  0  0  0  0  0  0
  149.0183  138.4668  154.4599 O   0  0  0  0  0  0  0  0  0  0  0  0
  150.0516  139.3431  154.5410 C   0  0  0  0  0  0  0  0  0  0  0  0
  151.4158  138.8314  154.8939 C   0  0  0  0  0  0  0  0  0  0  0  0
  152.1288  139.6534  155.9848 C   0  0  0  0  0  0  0  0  0  0  0  0
  153.2226  138.8711  156.5620 N   0  5  0  0  0  0  0  0  0  0  0  0
  153.1991  138.2877  157.7987 C   0  0  0  0  0  0  0  0  0  0  0  0
  153.0258  137.0854  158.0345 O   0  0  0  0  0  0  0  0  0  0  0  0
  153.3886  139.1498  159.0043 C   0  0  0  0  0  0  0  0  0  0  0  0
  153.3088  140.4391  158.8907 N   0  0  0  0  0  0  0  0  0  0  0  0
  153.4470  141.2879  159.9695 N   0  0  0  0  0  0  0  0  0  0  0  0
  153.0477  142.6652  159.6823 C   0  0  0  0  0  0  0  0  0  0  0  0
  153.9284  140.9153  161.1829 C   0  0  0  0  0  0  0  0  0  0  0  0
  154.0313  141.6720  162.1483 O   0  0  0  0  0  0  0  0  0  0  0  0
  154.3921  139.4622  161.3146 C   0  0  0  0  0  0  0  0  0  0  0  0
  153.6339  138.5174  160.3626 C   0  0  0  0  0  0  0  0  0  0  0  0
  149.6969  140.6078  154.3097 N   0  0  0  0  0  0  0  0  0  0  0  0
  146.4465  141.3041  153.6235 H   0  0  0  0  0  0  0  0  0  0  0  0
  147.8113  142.1153  152.8427 H   0  0  0  0  0  0  0  0  0  0  0  0
  147.5095  142.3536  154.5708 H   0  0  0  0  0  0  0  0  0  0  0  0
  151.3181  137.7932  155.2136 H   0  0  0  0  0  0  0  0  0  0  0  0
  152.0199  138.8183  153.9858 H   0  0  0  0  0  0  0  0  0  0  0  0
  152.4873  140.5857  155.5456 H   0  0  0  0  0  0  0  0  0  0  0  0
  151.4028  139.9410  156.7461 H   0  0  0  0  0  0  0  0  0  0  0  0
  153.1755  143.3477  160.5233 H   0  0  0  0  0  0  0  0  0  0  0  0
  151.9966  142.6961  159.3929 H   0  0  0  0  0  0  0  0  0  0  0  0
  153.6345  143.0584  158.8514 H   0  0  0  0  0  0  0  0  0  0  0  0
  155.4580  139.4367  161.0845 H   0  0  0  0  0  0  0  0  0  0  0  0
  154.2842  139.1251  162.3462 H   0  0  0  0  0  0  0  0  0  0  0  0
  152.6780  138.2319  160.8027 H   0  0  0  0  0  0  0  0  0  0  0  0
  154.2152  137.6000  160.2660 H   0  0  0  0  0  0  0  0  0  0  0  0
  1  2  1  0  0  0  0
  1 20  1  0  0  0  0
  1 21  1  0  0  0  0
  1 22  1  0  0  0  0
  2 19  1  0  0  0  0
  2  3  2  0  0  0  0
  3  4  1  0  0  0  0
  4  5  1  0  0  0  0
  5  6  1  0  0  0  0
  5 19  2  0  0  0  0
  6  7  1  0  0  0  0
  6 23  1  0  0  0  0
  6 24  1  0  0  0  0
  7  8  1  0  0  0  0
  7 25  1  0  0  0  0
  7 26  1  0  0  0  0
  8  9  1  0  0  0  0
  9 10  2  0  0  0  0
  9 11  1  0  0  0  0
 11 18  1  0  0  0  0
 11 12  2  0  0  0  0
 12 13  1  0  0  0  0
 13 14  1  0  0  0  0
 13 15  1  0  0  0  0
 14 27  1  0  0  0  0
 14 28  1  0  0  0  0
 14 29  1  0  0  0  0
 15 16  2  0  0  0  0
 15 17  1  0  0  0  0
 17 18  1  0  0  0  0
 17 30  1  0  0  0  0
 17 31  1  0  0  0  0
 18 32  1  0  0  0  0
 18 33  1  0  0  0  0
M  CHG  1   8  -1
M  END
> <s_m_source_file>
AV-unprocessed.smi

> <i_m_source_file_index>
1864

> <i_lp_mmshare_version>
43012

> <i_f3d_flags>
0

> <s_epik_input>
W0NIM11jMW5vYyhuMSlbQ0gyXVtDSDJdW05IXUMoPU8pQzI9Tk4oW0NIM10pQyg9TylbQ0gyXVtDSDJdMg==

> <s_epik_cmdline>
J2VwaWtfcHl0aG9uJywgJy1waCcsICc3LjAnLCAnLXRuJywgJzgnLCAnLW1hJywgJzIwMCcsICctbWV0YWxfYmluZGluZycsICctaW1hZScsICc8aW5maWxlLm1hZT4nLCAnLW9tYWUnLCAnPG91dGZpbGUubWFlPic=

> <r_lp_tautomer_probability>
1

> <r_epik_Ionization_Penalty>
5.04632

> <r_epik_Ionization_Penalty_Charging>
5.04632

> <r_epik_Ionization_Penalty_Neutral>
3.43742e-09

> <r_epik_State_Penalty>
5.0462

> <r_epik_Charging_Adjusted_Penalty>
10.0925

> <i_epik_Tot_Q>
-1

> <i_epik_Tot_abs_Q>
1

> <r_epik_Metal_State_Penalty>
1.15274

> <b_epik_Metal_Only>
1

> <s_epik_Chemistry_Notes>
This compound has an imine and may undergo hydrolysis.

> <s_lp_Force_Field>
OPLS_2005

> <r_lp_Energy>
22.1734

> <b_lp_Chiralities_Consistent>
1

> <s_lp_Variant>
AV-unprocessed.smi:1864-2

> <Gold.Version>
5.8.1

> <Gold.Id.Protein>
6NUR|6NUR_protein|mol2

> <Gold.PLP.Fitness>
39.4884

> <Gold.PLP.PLP>
-34.8224

> <Gold.PLP.part.hbond>
-3.9844

> <Gold.PLP.part.metal>
0.0000

> <Gold.PLP.part.buried>
-3.0906

> <Gold.PLP.part.nonpolar>
-27.1111

> <Gold.PLP.part.repulsive>
0.4448

> <Gold.PLP.ligand.clash>
0.0000

> <Gold.PLP.ligand.torsion>
1.1006

> <Gold.PLP.Chemscore.Hbond>
2.2816

> <Gold.PLP.Chemscore.CHOScore>
0.0000

> <Gold.PLP.Chemscore.Metal>
0.0000

> <Gold.Chemscore.Hbonds>
donor molecule, donor type, donor heavy atom, donor atom, acceptor molecule, acceptor atom, score
      P1  H  7989  7998       L1    19  0.23
      P1  H  7997  8010       L1     8  2.00

> <Gold.PLP.Chemscore.Internal.Correction>
0.0224

> <Gold.Rescore>
     Score         DG    S(hbond)    S(metal)    S(lipo)     H(rot)  DE(clash)    DE(int)     intcor
      6.96      -8.16       0.35        0.00      51.85       1.77       0.02       1.18       ----

> <Gold.Chemscore.Fitness>
6.9595

> <Gold.Chemscore.DG>
-8.1617

> <Gold.Chemscore.ZeroCoef>
-5.4800

> <Gold.Chemscore.Hbond>
0.3457

> <Gold.Chemscore.Metal>
0.0000

> <Gold.Chemscore.Lipo>
51.8496

> <Gold.Chemscore.Internal_Hbond>
0.0000

> <Gold.Chemscore.DEClash>
0.0234

> <Gold.Chemscore.DEInternal>
1.1787

> <Gold.Chemscore.Rot>
1.7731

> <Gold.Chemscore.Internal.Correction>
   9.000000E+99

> <Gold.Chemscore.Hbonds>
donor molecule, donor type, donor heavy atom, donor atom, acceptor molecule, acceptor atom, score
      P1  H  7989  7998       L1    19  0.01
      P1  H  7997  8010       L1     8  0.13

> <Gold.Chemscore.Hbond.Weighted>
-1.1545

> <Gold.Chemscore.Metal.Weighted>
-0.0000

> <Gold.Chemscore.Lipo.Weighted>
-6.0664

> <Gold.Chemscore.Internal_Hbond.Weighted>
0.0000

> <Gold.Chemscore.DEClash.Weighted>
0.0234

> <Gold.Chemscore.DEInternal.Weighted>
1.1787

> <Gold.Chemscore.Rot.Weighted>
4.5393

> <Gold.Chemscore.Internal.Correction.Weighted>
   9.000000E+99

> <Gold.Protein.RotatedTorsions>
[ 6907 6896 6895 6894 ] final  168.71 input  -60.11 | X-H torsion
[ 7974 7965 7964 7962 ] final  179.81 input  175.53 | X-H torsion
[ 8008 7997 7996 7995 ] final   53.15 input   59.86 | X-H torsion
[ 10167 10162 10161 10158 ] final -102.10 input  -65.29 | X-H torsion
[ 10718 10713 10712 10709 ] final   22.50 input   66.30 | X-H torsion
[ 10763 10752 10751 10750 ] final  106.48 input  -60.55 | X-H torsion
[ 11005 11000 10999 10996 ] final -137.49 input  -57.11 | X-H torsion

> <Gold.Protein.ActiveResidues>
 VAL166  LYS551  ARG553  GLY616  TRP617  ASP618  TYR619  PRO620  LYS621  CYS622 
 ASP623  PHE694  ASN695  SER759  ASP760  ASP761  ALA762  ILE779  LEU786  VAL792 
 PHE793  MET794  SER795  GLU796  ALA797  LYS798  CYS799  TRP800  GLU811  SER814 

> <Gold.Protein.RotatedAtoms>
  151.8434  133.3427  159.3649 H   0  0  0  0  0  0  0  0  0  0  0  0  # atno 6907 bound_to 6896
  150.7228  134.5369  159.5737 H   0  0  0  0  0  0  0  0  0  0  0  0  # atno 6908 bound_to 6896
  152.2848  134.7789  160.0441 H   0  0  0  0  0  0  0  0  0  0  0  0  # atno 6909 bound_to 6896
  144.7142  140.0605  143.6432 H   0  0  0  0  0  0  0  0  0  0  0  0  # atno 7974 bound_to 7965
  155.4635  140.3462  155.4316 H   0  0  0  0  0  0  0  0  0  0  0  0  # atno 8008 bound_to 7997
  156.1146  140.1470  156.9320 H   0  0  0  0  0  0  0  0  0  0  0  0  # atno 8009 bound_to 7997
  154.4780  140.0879  156.7287 H   0  0  0  0  0  0  0  0  0  0  0  0  # atno 8010 bound_to 7997
  140.2342  143.3585  152.0859 H   0  0  0  0  0  0  0  0  0  0  0  0  # atno 10167 bound_to 10162
  157.1532  130.6684  149.6019 H   0  0  0  0  0  0  0  0  0  0  0  0  # atno 10718 bound_to 10713
  153.3936  135.3875  155.1940 H   0  0  0  0  0  0  0  0  0  0  0  0  # atno 10763 bound_to 10752
  154.8722  135.3754  154.4707 H   0  0  0  0  0  0  0  0  0  0  0  0  # atno 10764 bound_to 10752
  153.5196  135.7087  153.5800 H   0  0  0  0  0  0  0  0  0  0  0  0  # atno 10765 bound_to 10752
  140.8706  134.2056  157.4653 H   0  0  0  0  0  0  0  0  0  0  0  0  # atno 11005 bound_to 11000
  145.9868  139.2984  143.1009 LP  0  0  0  0  0  0  0  0  0  0  0  0  # atno 17320 bound_to 7965
  145.8948  140.9281  143.0533 LP  0  0  0  0  0  0  0  0  0  0  0  0  # atno 17321 bound_to 7965
  139.5099  144.6875  151.5847 LP  0  0  0  0  0  0  0  0  0  0  0  0  # atno 17342 bound_to 10162
  140.6162  143.9344  150.6490 LP  0  0  0  0  0  0  0  0  0  0  0  0  # atno 17343 bound_to 10162
  155.9767  130.4737  150.6543 LP  0  0  0  0  0  0  0  0  0  0  0  0  # atno 17370 bound_to 10713
  157.4201  131.0835  151.1139 LP  0  0  0  0  0  0  0  0  0  0  0  0  # atno 17371 bound_to 10713
  139.8712  134.9772  156.4951 LP  0  0  0  0  0  0  0  0  0  0  0  0  # atno 17394 bound_to 11000
  140.8578  133.8083  155.9233 LP  0  0  0  0  0  0  0  0  0  0  0  0  # atno 17395 bound_to 11000

$$$$
