AV-unprocessed.smi:193|AV-procd|sdf|1519|dock8
  -GOLD-   2262019363D 1   1.00000     0.00000
 Structure written by MMmdl.
 61 65  0  0  0  0  0  0  0  0  1 V2000
  152.0477  138.9723  156.1391 C   0  0  0  0  0  0  0  0  0  0  0  0
  151.5223  140.4148  156.0993 C   0  0  1  0  0  0  0  0  0  0  0  0
  150.0413  140.4643  155.6631 C   0  0  0  0  0  0  0  0  0  0  0  0
  149.0775  140.4358  156.7621 N   0  0  0  0  0  0  0  0  0  0  0  0
  147.9930  139.6692  156.4812 C   0  0  0  0  0  0  0  0  0  0  0  0
  147.2485  139.1393  157.4893 N   0  0  0  0  0  0  0  0  0  0  0  0
  146.1644  138.4079  157.2148 C   0  0  0  0  0  0  0  0  0  0  0  0
  145.6523  138.0894  156.0245 N   0  0  0  0  0  0  0  0  0  0  0  0
  146.3945  138.6170  155.0093 C   0  0  0  0  0  0  0  0  0  0  0  0
  147.5647  139.4157  155.1486 C   0  0  0  0  0  0  0  0  0  0  0  0
  148.0422  139.7776  153.8956 N   0  0  0  0  0  0  0  0  0  0  0  0
  147.2022  139.2270  153.0628 C   0  0  0  0  0  0  0  0  0  0  0  0
  146.1875  138.5016  153.6456 N   0  0  0  0  0  0  0  0  0  0  0  0
  145.1242  137.7853  152.9569 C   0  0  0  0  0  0  0  0  0  0  0  0
  145.5967  136.5092  152.2153 C   0  0  0  0  0  0  0  0  0  0  0  0
  146.5820  136.8950  151.2730 O   0  0  0  0  0  0  0  0  0  0  0  0
  146.2375  135.5183  153.2079 C   0  0  0  0  0  0  0  0  0  0  0  0
  146.5705  134.1683  152.5481 C   0  0  0  0  0  0  0  0  0  0  0  0
  145.4029  133.6184  151.9502 O   0  0  0  0  0  0  0  0  0  0  0  0
  144.8872  134.4311  150.9030 C   0  0  0  0  0  0  0  0  0  0  0  0
  144.4526  135.7992  151.4585 C   0  0  0  0  0  0  0  0  0  0  0  0
  148.8155  141.7369  157.3806 C   0  0  0  0  0  0  0  0  0  0  0  0
  149.9489  142.2202  158.2963 C   0  0  0  0  0  0  0  0  0  0  0  0
  151.2107  142.4321  157.5852 N   0  0  0  0  0  0  0  0  0  0  0  0
  152.0499  143.2682  158.4310 C   0  0  1  0  0  0  0  0  0  0  0  0
  152.4746  144.6102  157.8785 C   0  0  0  0  0  0  0  0  0  0  0  0
  151.4427  144.5417  158.9792 C   0  0  2  0  0  0  0  0  0  0  0  0
  151.7781  145.0170  160.3758 C   0  0  0  0  0  0  0  0  0  0  0  0
  151.8862  141.1450  157.4105 C   0  0  0  0  0  0  0  0  0  0  0  0
  151.5776  138.4027  156.9403 H   0  0  0  0  0  0  0  0  0  0  0  0
  153.1244  138.9523  156.3098 H   0  0  0  0  0  0  0  0  0  0  0  0
  151.8558  138.4520  155.2003 H   0  0  0  0  0  0  0  0  0  0  0  0
  152.0745  140.9127  155.3010 H   0  0  0  0  0  0  0  0  0  0  0  0
  149.8785  141.3906  155.1103 H   0  0  0  0  0  0  0  0  0  0  0  0
  149.8461  139.6718  154.9388 H   0  0  0  0  0  0  0  0  0  0  0  0
  145.6291  138.0252  158.0711 H   0  0  0  0  0  0  0  0  0  0  0  0
  147.3049  139.3289  151.9923 H   0  0  0  0  0  0  0  0  0  0  0  0
  144.3491  137.5385  153.6839 H   0  0  0  0  0  0  0  0  0  0  0  0
  144.6639  138.4759  152.2489 H   0  0  0  0  0  0  0  0  0  0  0  0
  147.4314  136.8310  151.6818 H   0  0  0  0  0  0  0  0  0  0  0  0
  147.1351  135.9490  153.6538 H   0  0  0  0  0  0  0  0  0  0  0  0
  145.5464  135.3355  154.0317 H   0  0  0  0  0  0  0  0  0  0  0  0
  147.3593  134.2770  151.8021 H   0  0  0  0  0  0  0  0  0  0  0  0
  146.9413  133.4694  153.2980 H   0  0  0  0  0  0  0  0  0  0  0  0
  145.6335  134.5459  150.1156 H   0  0  0  0  0  0  0  0  0  0  0  0
  144.0330  133.9238  150.4545 H   0  0  0  0  0  0  0  0  0  0  0  0
  143.6136  135.6467  152.1387 H   0  0  0  0  0  0  0  0  0  0  0  0
  144.0786  136.4207  150.6438 H   0  0  0  0  0  0  0  0  0  0  0  0
  148.6195  142.4795  156.6059 H   0  0  0  0  0  0  0  0  0  0  0  0
  147.9109  141.6812  157.9876 H   0  0  0  0  0  0  0  0  0  0  0  0
  149.6246  143.1736  158.7161 H   0  0  0  0  0  0  0  0  0  0  0  0
  150.0774  141.5505  159.1480 H   0  0  0  0  0  0  0  0  0  0  0  0
  152.7792  142.7827  159.0781 H   0  0  0  0  0  0  0  0  0  0  0  0
  153.4705  144.9640  158.1372 H   0  0  0  0  0  0  0  0  0  0  0  0
  152.1275  144.8868  156.8849 H   0  0  0  0  0  0  0  0  0  0  0  0
  150.4171  144.7544  158.6824 H   0  0  0  0  0  0  0  0  0  0  0  0
  152.8152  144.7893  160.6239 H   0  0  0  0  0  0  0  0  0  0  0  0
  151.1306  144.5263  161.1026 H   0  0  0  0  0  0  0  0  0  0  0  0
  151.6308  146.0944  160.4492 H   0  0  0  0  0  0  0  0  0  0  0  0
  151.7095  140.5006  158.2732 H   0  0  0  0  0  0  0  0  0  0  0  0
  152.9658  141.3037  157.3891 H   0  0  0  0  0  0  0  0  0  0  0  0
  1  2  1  0  0  0  0
  1 30  1  0  0  0  0
  1 31  1  0  0  0  0
  1 32  1  0  0  0  0
  2 29  1  0  0  0  0
  2  3  1  0  0  0  0
  2 33  1  0  0  0  0
  3  4  1  0  0  0  0
  3 34  1  0  0  0  0
  3 35  1  0  0  0  0
  4  5  1  0  0  0  0
  4 22  1  0  0  0  0
  5 10  1  0  0  0  0
  5  6  2  0  0  0  0
  6  7  1  0  0  0  0
  7  8  2  0  0  0  0
  7 36  1  0  0  0  0
  8  9  1  0  0  0  0
  9 13  1  0  0  0  0
  9 10  2  0  0  0  0
 10 11  1  0  0  0  0
 11 12  2  0  0  0  0
 12 13  1  0  0  0  0
 12 37  1  0  0  0  0
 13 14  1  0  0  0  0
 14 15  1  0  0  0  0
 14 38  1  0  0  0  0
 14 39  1  0  0  0  0
 15 21  1  0  0  0  0
 15 16  1  0  0  0  0
 15 17  1  0  0  0  0
 16 40  1  0  0  0  0
 17 18  1  0  0  0  0
 17 41  1  0  0  0  0
 17 42  1  0  0  0  0
 18 19  1  0  0  0  0
 18 43  1  0  0  0  0
 18 44  1  0  0  0  0
 19 20  1  0  0  0  0
 20 21  1  0  0  0  0
 20 45  1  0  0  0  0
 20 46  1  0  0  0  0
 21 47  1  0  0  0  0
 21 48  1  0  0  0  0
 22 23  1  0  0  0  0
 22 49  1  0  0  0  0
 22 50  1  0  0  0  0
 23 24  1  0  0  0  0
 23 51  1  0  0  0  0
 23 52  1  0  0  0  0
 24 25  1  0  0  0  0
 24 29  1  0  0  0  0
 25 27  1  0  0  0  0
 25 26  1  0  0  0  0
 25 53  1  0  0  0  0
 26 27  1  0  0  0  0
 26 54  1  0  0  0  0
 26 55  1  0  0  0  0
 27 28  1  0  0  0  0
 27 56  1  0  0  0  0
 28 57  1  0  0  0  0
 28 58  1  0  0  0  0
 28 59  1  0  0  0  0
 29 60  1  0  0  0  0
 29 61  1  0  0  0  0
M  END
> <s_m_source_file>
AV-unprocessed.smi

> <i_m_source_file_index>
193

> <i_lp_mmshare_version>
43012

> <i_f3d_flags>
0

> <s_epik_input>
W0NIM11bQ0BASF0xW0NIMl1bQ0BIXTFOKFtDSDJdMilbQ0gyXVtDSDJdTihbQ0gyXVtDQEhdMltDSDNdKWMobltjSF1uMyljKGMzNCluW2NIXW40W0NIMl1DNShbT0hdKVtDSDJdW0NIMl1PW0NIMl1bQ0gyXTU=

> <s_epik_cmdline>
J2VwaWtfcHl0aG9uJywgJy1waCcsICc3LjAnLCAnLXRuJywgJzgnLCAnLW1hJywgJzIwMCcsICctbWV0YWxfYmluZGluZycsICctaW1hZScsICc8aW5maWxlLm1hZT4nLCAnLW9tYWUnLCAnPG91dGZpbGUubWFlPic=

> <r_lp_tautomer_probability>
1

> <r_epik_Ionization_Penalty>
1.45227

> <r_epik_Ionization_Penalty_Charging>
0

> <r_epik_Ionization_Penalty_Neutral>
1.45227

> <r_epik_State_Penalty>
2.02377

> <r_epik_Charging_Adjusted_Penalty>
2.02377

> <i_epik_Tot_Q>
0

> <i_epik_Tot_abs_Q>
0

> <r_epik_Metal_State_Penalty>
2.01937

> <b_epik_Metal_Only>
0

> <s_lp_Force_Field>
OPLS_2005

> <r_lp_Energy>
55.8214

> <b_lp_Chiralities_Consistent>
1

> <s_lp_Variant>
AV-unprocessed.smi:193-24

> <Gold.Version>
5.8.1

> <Gold.Id.Protein>
6NUR|6NUR_protein|mol2

> <Gold.PLP.Fitness>
44.5982

> <Gold.PLP.PLP>
-41.1087

> <Gold.PLP.part.hbond>
-1.1381

> <Gold.PLP.part.metal>
0.0000

> <Gold.PLP.part.buried>
-4.4514

> <Gold.PLP.part.nonpolar>
-35.1363

> <Gold.PLP.part.repulsive>
0.3551

> <Gold.PLP.ligand.clash>
0.4295

> <Gold.PLP.ligand.torsion>
1.3253

> <Gold.PLP.Chemscore.Hbond>
1.0000

> <Gold.PLP.Chemscore.CHOScore>
0.7181

> <Gold.PLP.Chemscore.Metal>
0.0000

> <Gold.Chemscore.Hbonds>
donor molecule, donor type, donor heavy atom, donor atom, acceptor molecule, acceptor atom, score
      L1  H    16    40       P1  7948  1.00
      L1  C    12    37       P1  7957  0.74

> <Gold.PLP.Chemscore.Internal.Correction>
1.4154

> <Gold.Rescore>
     Score         DG    S(hbond)    S(metal)    S(lipo)     H(rot)  DE(clash)    DE(int)     intcor
     13.03     -16.07       1.00        0.00     109.45       2.17       0.16       2.88       ----

> <Gold.Chemscore.Fitness>
13.0329

> <Gold.Chemscore.DG>
-16.0703

> <Gold.Chemscore.ZeroCoef>
-5.4800

> <Gold.Chemscore.Hbond>
0.9974

> <Gold.Chemscore.Metal>
0.0000

> <Gold.Chemscore.Lipo>
109.4453

> <Gold.Chemscore.Internal_Hbond>
0.0000

> <Gold.Chemscore.DEClash>
0.1567

> <Gold.Chemscore.DEInternal>
2.8807

> <Gold.Chemscore.Rot>
2.1664

> <Gold.Chemscore.Internal.Correction>
   9.000000E+99

> <Gold.Chemscore.Hbonds>
donor molecule, donor type, donor heavy atom, donor atom, acceptor molecule, acceptor atom, score
      L1  H    16    40       P1  7948  0.96

> <Gold.Chemscore.Hbond.Weighted>
-3.3312

> <Gold.Chemscore.Metal.Weighted>
-0.0000

> <Gold.Chemscore.Lipo.Weighted>
-12.8051

> <Gold.Chemscore.Internal_Hbond.Weighted>
0.0000

> <Gold.Chemscore.DEClash.Weighted>
0.1567

> <Gold.Chemscore.DEInternal.Weighted>
2.8807

> <Gold.Chemscore.Rot.Weighted>
5.5459

> <Gold.Chemscore.Internal.Correction.Weighted>
   9.000000E+99

> <Gold.Protein.RotatedTorsions>
[ 6907 6896 6895 6894 ] final  103.17 input  -60.11 | X-H torsion
[ 7974 7965 7964 7962 ] final  169.14 input  175.53 | X-H torsion
[ 8008 7997 7996 7995 ] final  -90.46 input   59.86 | X-H torsion
[ 10167 10162 10161 10158 ] final   51.86 input  -65.29 | X-H torsion
[ 10718 10713 10712 10709 ] final   74.85 input   66.30 | X-H torsion
[ 10763 10752 10751 10750 ] final  -38.36 input  -60.55 | X-H torsion
[ 11005 11000 10999 10996 ] final -154.64 input  -57.11 | X-H torsion

> <Gold.Protein.ActiveResidues>
 VAL166  LYS551  ARG553  GLY616  TRP617  ASP618  TYR619  PRO620  LYS621  CYS622 
 ASP623  PHE694  ASN695  SER759  ASP760  ASP761  ALA762  ILE779  LEU786  VAL792 
 PHE793  MET794  SER795  GLU796  ALA797  LYS798  CYS799  TRP800  GLU811  SER814 

> <Gold.Protein.RotatedAtoms>
  152.5303  133.9866  159.7830 H   0  0  0  0  0  0  0  0  0  0  0  0  # atno 6907 bound_to 6896
  151.0110  133.5958  159.2690 H   0  0  0  0  0  0  0  0  0  0  0  0  # atno 6908 bound_to 6896
  151.3032  135.0781  159.9299 H   0  0  0  0  0  0  0  0  0  0  0  0  # atno 6909 bound_to 6896
  144.7365  139.9010  143.6409 H   0  0  0  0  0  0  0  0  0  0  0  0  # atno 7974 bound_to 7965
  154.6988  140.0530  157.0437 H   0  0  0  0  0  0  0  0  0  0  0  0  # atno 8008 bound_to 7997
  155.0714  140.3200  155.4610 H   0  0  0  0  0  0  0  0  0  0  0  0  # atno 8009 bound_to 7997
  156.2753  140.2081  156.5841 H   0  0  0  0  0  0  0  0  0  0  0  0  # atno 8010 bound_to 7997
  140.2575  144.3411  150.6328 H   0  0  0  0  0  0  0  0  0  0  0  0  # atno 10167 bound_to 10162
  157.6609  130.9698  150.1269 H   0  0  0  0  0  0  0  0  0  0  0  0  # atno 10718 bound_to 10713
  153.9115  135.6792  153.4751 H   0  0  0  0  0  0  0  0  0  0  0  0  # atno 10763 bound_to 10752
  153.1076  135.4798  154.8975 H   0  0  0  0  0  0  0  0  0  0  0  0  # atno 10764 bound_to 10752
  154.7524  135.3188  154.8488 H   0  0  0  0  0  0  0  0  0  0  0  0  # atno 10765 bound_to 10752
  140.6952  134.3998  157.5215 H   0  0  0  0  0  0  0  0  0  0  0  0  # atno 11005 bound_to 11000
  146.1072  139.4072  143.0310 LP  0  0  0  0  0  0  0  0  0  0  0  0  # atno 17320 bound_to 7965
  145.7495  140.9978  143.1258 LP  0  0  0  0  0  0  0  0  0  0  0  0  # atno 17321 bound_to 7965
  140.5992  143.2167  151.7104 LP  0  0  0  0  0  0  0  0  0  0  0  0  # atno 17342 bound_to 10162
  139.5027  144.3819  152.0367 LP  0  0  0  0  0  0  0  0  0  0  0  0  # atno 17343 bound_to 10162
  156.2126  130.3668  149.8652 LP  0  0  0  0  0  0  0  0  0  0  0  0  # atno 17370 bound_to 10713
  156.6526  130.8750  151.3534 LP  0  0  0  0  0  0  0  0  0  0  0  0  # atno 17371 bound_to 10713
  139.8912  134.8785  156.2331 LP  0  0  0  0  0  0  0  0  0  0  0  0  # atno 17394 bound_to 11000
  141.0209  133.7042  156.1267 LP  0  0  0  0  0  0  0  0  0  0  0  0  # atno 17395 bound_to 11000

$$$$
