AV-unprocessed.smi:240|AV-procd|sdf|1834|dock5
  -GOLD-   2262020443D 1   1.00000     0.00000
 Structure written by MMmdl.
 55 59  0  0  0  0  0  0  0  0  1 V2000
  148.4609  142.8153  157.6625 O   0  0  0  0  0  0  0  0  0  0  0  0
  149.6071  142.4058  158.3797 C   0  0  2  0  0  0  0  0  0  0  0  0
  150.2541  143.6300  159.0550 C   0  0  0  0  0  0  0  0  0  0  0  0
  151.7556  143.5142  158.7860 C   0  0  0  0  0  0  0  0  0  0  0  0
  151.8339  142.8089  157.4348 C   0  0  0  0  0  0  0  0  0  0  0  0
  150.7191  141.7577  157.5137 C   0  0  2  0  0  0  0  0  0  0  0  0
  150.3372  141.0543  156.1720 C   0  0  2  0  0  0  0  0  0  0  0  0
  149.8034  142.0140  155.0758 C   0  0  0  0  0  0  0  0  0  0  0  0
  149.5022  141.2917  153.8872 O   0  0  0  0  0  0  0  0  0  0  0  0
  148.4931  140.3147  154.1002 C   0  0  0  0  0  0  0  0  0  0  0  0
  149.0100  139.2826  155.1099 C   0  0  0  0  0  0  0  0  0  0  0  0
  149.3958  139.9394  156.3531 N   0  0  0  0  0  0  0  0  0  0  0  0
  149.6858  139.0248  157.3059 C   0  0  0  0  0  0  0  0  0  0  0  0
  150.9858  138.9169  157.6747 N   0  0  0  0  0  0  0  0  0  0  0  0
  151.3437  138.0313  158.6089 C   0  0  0  0  0  0  0  0  0  0  0  0
  150.5744  137.1800  159.2908 N   0  0  0  0  0  0  0  0  0  0  0  0
  149.2632  137.2981  158.9335 C   0  0  0  0  0  0  0  0  0  0  0  0
  148.7346  138.1877  157.9562 C   0  0  0  0  0  0  0  0  0  0  0  0
  147.3581  138.0231  157.8623 N   0  0  0  0  0  0  0  0  0  0  0  0
  147.0896  137.0849  158.7285 C   0  0  0  0  0  0  0  0  0  0  0  0
  148.1736  136.6001  159.4255 N   0  0  0  0  0  0  0  0  0  0  0  0
  148.1642  135.5636  160.4476 C   0  0  0  0  0  0  0  0  0  0  0  0
  147.2364  135.8777  161.6471 C   0  0  2  0  0  0  0  0  0  0  0  0
  147.5598  137.1586  162.1569 O   0  0  0  0  0  0  0  0  0  0  0  0
  147.3663  134.8480  162.7722 C   0  0  0  0  0  0  0  0  0  0  0  0
  146.0509  134.0807  162.7127 C   0  0  0  0  0  0  0  0  0  0  0  0
  145.1249  135.0813  162.3296 O   0  0  0  0  0  0  0  0  0  0  0  0
  145.7357  135.8387  161.2952 C   0  0  0  0  0  0  0  0  0  0  0  0
  148.7440  143.2339  156.8633 H   0  0  0  0  0  0  0  0  0  0  0  0
  149.2809  141.6923  159.1375 H   0  0  0  0  0  0  0  0  0  0  0  0
  149.8884  144.5544  158.6043 H   0  0  0  0  0  0  0  0  0  0  0  0
  150.0302  143.6815  160.1209 H   0  0  0  0  0  0  0  0  0  0  0  0
  152.2574  144.4824  158.7845 H   0  0  0  0  0  0  0  0  0  0  0  0
  152.2239  142.8959  159.5533 H   0  0  0  0  0  0  0  0  0  0  0  0
  151.6391  143.5390  156.6503 H   0  0  0  0  0  0  0  0  0  0  0  0
  152.8137  142.3678  157.2494 H   0  0  0  0  0  0  0  0  0  0  0  0
  151.1467  140.9805  158.1490 H   0  0  0  0  0  0  0  0  0  0  0  0
  151.2565  140.6318  155.7662 H   0  0  0  0  0  0  0  0  0  0  0  0
  148.9182  142.5621  155.3958 H   0  0  0  0  0  0  0  0  0  0  0  0
  150.5553  142.7566  154.8131 H   0  0  0  0  0  0  0  0  0  0  0  0
  147.5749  140.7861  154.4544 H   0  0  0  0  0  0  0  0  0  0  0  0
  148.2605  139.8296  153.1521 H   0  0  0  0  0  0  0  0  0  0  0  0
  148.2362  138.5382  155.3030 H   0  0  0  0  0  0  0  0  0  0  0  0
  149.8692  138.7542  154.6939 H   0  0  0  0  0  0  0  0  0  0  0  0
  152.3973  138.0007  158.8444 H   0  0  0  0  0  0  0  0  0  0  0  0
  146.0844  136.7217  158.8845 H   0  0  0  0  0  0  0  0  0  0  0  0
  147.8635  134.6263  159.9773 H   0  0  0  0  0  0  0  0  0  0  0  0
  149.1882  135.4154  160.7928 H   0  0  0  0  0  0  0  0  0  0  0  0
  147.2473  137.2140  163.0469 H   0  0  0  0  0  0  0  0  0  0  0  0
  148.2319  134.1932  162.6658 H   0  0  0  0  0  0  0  0  0  0  0  0
  147.4465  135.3374  163.7443 H   0  0  0  0  0  0  0  0  0  0  0  0
  146.0860  133.2988  161.9520 H   0  0  0  0  0  0  0  0  0  0  0  0
  145.7835  133.6259  163.6666 H   0  0  0  0  0  0  0  0  0  0  0  0
  145.2817  136.8260  161.2005 H   0  0  0  0  0  0  0  0  0  0  0  0
  145.5651  135.3066  160.3591 H   0  0  0  0  0  0  0  0  0  0  0  0
  1  2  1  0  0  0  0
  1 29  1  0  0  0  0
  2  6  1  0  0  0  0
  2  3  1  0  0  0  0
  2 30  1  0  0  0  0
  3  4  1  0  0  0  0
  3 31  1  0  0  0  0
  3 32  1  0  0  0  0
  4  5  1  0  0  0  0
  4 33  1  0  0  0  0
  4 34  1  0  0  0  0
  5  6  1  0  0  0  0
  5 35  1  0  0  0  0
  5 36  1  0  0  0  0
  6  7  1  0  0  0  0
  6 37  1  0  0  0  0
  7 12  1  0  0  0  0
  7  8  1  0  0  0  0
  7 38  1  0  0  0  0
  8  9  1  0  0  0  0
  8 39  1  0  0  0  0
  8 40  1  0  0  0  0
  9 10  1  0  0  0  0
 10 11  1  0  0  0  0
 10 41  1  0  0  0  0
 10 42  1  0  0  0  0
 11 12  1  0  0  0  0
 11 43  1  0  0  0  0
 11 44  1  0  0  0  0
 12 13  1  0  0  0  0
 13 18  1  0  0  0  0
 13 14  2  0  0  0  0
 14 15  1  0  0  0  0
 15 16  2  0  0  0  0
 15 45  1  0  0  0  0
 16 17  1  0  0  0  0
 17 21  1  0  0  0  0
 17 18  2  0  0  0  0
 18 19  1  0  0  0  0
 19 20  2  0  0  0  0
 20 21  1  0  0  0  0
 20 46  1  0  0  0  0
 21 22  1  0  0  0  0
 22 23  1  0  0  0  0
 22 47  1  0  0  0  0
 22 48  1  0  0  0  0
 23 28  1  0  0  0  0
 23 24  1  0  0  0  0
 23 25  1  0  0  0  0
 24 49  1  0  0  0  0
 25 26  1  0  0  0  0
 25 50  1  0  0  0  0
 25 51  1  0  0  0  0
 26 27  1  0  0  0  0
 26 52  1  0  0  0  0
 26 53  1  0  0  0  0
 27 28  1  0  0  0  0
 28 54  1  0  0  0  0
 28 55  1  0  0  0  0
M  END
> <s_m_source_file>
AV-unprocessed.smi

> <i_m_source_file_index>
240

> <i_lp_mmshare_version>
43012

> <i_f3d_flags>
0

> <s_epik_input>
W09IXVtDQEBIXTFbQ0gyXVtDSDJdW0NIMl1bQ0BIXTFbQ0BASF0yW0NIMl1PW0NIMl1bQ0gyXU4yYyhuW2NIXW4zKWMoYzM0KW5bY0hdbjRbQ0gyXVtDQEBdNShbT0hdKVtDSDJdW0NIMl1PW0NIMl01

> <s_epik_cmdline>
J2VwaWtfcHl0aG9uJywgJy1waCcsICc3LjAnLCAnLXRuJywgJzgnLCAnLW1hJywgJzIwMCcsICctbWV0YWxfYmluZGluZycsICctaW1hZScsICc8aW5maWxlLm1hZT4nLCAnLW9tYWUnLCAnPG91dGZpbGUubWFlPic=

> <r_lp_tautomer_probability>
1

> <r_epik_Ionization_Penalty>
0.000130618

> <r_epik_Ionization_Penalty_Charging>
0

> <r_epik_Ionization_Penalty_Neutral>
0.000130618

> <r_epik_State_Penalty>
-0

> <r_epik_Charging_Adjusted_Penalty>
0

> <i_epik_Tot_Q>
0

> <i_epik_Tot_abs_Q>
0

> <r_epik_Metal_State_Penalty>
-0

> <b_epik_Metal_Only>
0

> <s_lp_Force_Field>
OPLS_2005

> <r_lp_Energy>
66.7643

> <b_lp_Chiralities_Consistent>
1

> <s_lp_Variant>
AV-unprocessed.smi:240-11

> <Gold.Version>
5.8.1

> <Gold.Id.Protein>
6NUR|6NUR_protein|mol2

> <Gold.PLP.Fitness>
49.4450

> <Gold.PLP.PLP>
-39.3276

> <Gold.PLP.part.hbond>
-5.8092

> <Gold.PLP.part.metal>
0.0000

> <Gold.PLP.part.buried>
-1.8799

> <Gold.PLP.part.nonpolar>
-30.8070

> <Gold.PLP.part.repulsive>
1.0400

> <Gold.PLP.ligand.clash>
0.0000

> <Gold.PLP.ligand.torsion>
0.5043

> <Gold.PLP.Chemscore.Hbond>
3.6268

> <Gold.PLP.Chemscore.CHOScore>
0.0000

> <Gold.PLP.Chemscore.Metal>
0.0000

> <Gold.Chemscore.Hbonds>
donor molecule, donor type, donor heavy atom, donor atom, acceptor molecule, acceptor atom, score
      L1  H     1    29       P1  8028  1.00
      P1  H  6896  6909       L1    16  0.49
      P1  H  6931  6943       L1    24  0.94
      P1  H  6934  6947       L1    24  0.28
      P1  H  7989  7998       L1     9  0.11
      P1  H  8011  8017       L1     9  0.80

> <Gold.PLP.Chemscore.Internal.Correction>
0.2456

> <Gold.Rescore>
     Score         DG    S(hbond)    S(metal)    S(lipo)     H(rot)  DE(clash)    DE(int)     intcor
     14.95     -19.28       2.85        0.00     102.27       3.00       1.43       2.90       ----

> <Gold.Chemscore.Fitness>
14.9530

> <Gold.Chemscore.DG>
-19.2789

> <Gold.Chemscore.ZeroCoef>
-5.4800

> <Gold.Chemscore.Hbond>
2.8511

> <Gold.Chemscore.Metal>
0.0000

> <Gold.Chemscore.Lipo>
102.2748

> <Gold.Chemscore.Internal_Hbond>
0.0000

> <Gold.Chemscore.DEClash>
1.4275

> <Gold.Chemscore.DEInternal>
2.8984

> <Gold.Chemscore.Rot>
3.0039

> <Gold.Chemscore.Internal.Correction>
   9.000000E+99

> <Gold.Chemscore.Hbonds>
donor molecule, donor type, donor heavy atom, donor atom, acceptor molecule, acceptor atom, score
      L1  H     1    29       P1  8028  0.68
      P1  H  6896  6909       L1    16  0.42
      P1  H  6931  6943       L1    24  0.68
      P1  H  6934  6947       L1    24  0.24
      P1  H  7989  7998       L1     9  0.01
      P1  H  8011  8017       L1     9  0.59

> <Gold.Chemscore.Hbond.Weighted>
-9.5226

> <Gold.Chemscore.Metal.Weighted>
-0.0000

> <Gold.Chemscore.Lipo.Weighted>
-11.9662

> <Gold.Chemscore.Internal_Hbond.Weighted>
0.0000

> <Gold.Chemscore.DEClash.Weighted>
1.4275

> <Gold.Chemscore.DEInternal.Weighted>
2.8984

> <Gold.Chemscore.Rot.Weighted>
7.6899

> <Gold.Chemscore.Internal.Correction.Weighted>
   9.000000E+99

> <Gold.Protein.RotatedTorsions>
[ 6907 6896 6895 6894 ] final   97.00 input  -60.11 | X-H torsion
[ 7974 7965 7964 7962 ] final  159.41 input  175.53 | X-H torsion
[ 8008 7997 7996 7995 ] final   45.81 input   59.86 | X-H torsion
[ 10167 10162 10161 10158 ] final  152.82 input  -65.29 | X-H torsion
[ 10718 10713 10712 10709 ] final  173.32 input   66.30 | X-H torsion
[ 10763 10752 10751 10750 ] final -153.20 input  -60.55 | X-H torsion
[ 11005 11000 10999 10996 ] final -137.33 input  -57.11 | X-H torsion

> <Gold.Protein.ActiveResidues>
 VAL166  LYS551  ARG553  GLY616  TRP617  ASP618  TYR619  PRO620  LYS621  CYS622 
 ASP623  PHE694  ASN695  SER759  ASP760  ASP761  ALA762  ILE779  LEU786  VAL792 
 PHE793  MET794  SER795  GLU796  ALA797  LYS798  CYS799  TRP800  GLU811  SER814 

> <Gold.Protein.RotatedAtoms>
  152.5429  134.0800  159.8230 H   0  0  0  0  0  0  0  0  0  0  0  0  # atno 6907 bound_to 6896
  151.0903  133.5314  159.2622 H   0  0  0  0  0  0  0  0  0  0  0  0  # atno 6908 bound_to 6896
  151.2108  135.0489  159.8964 H   0  0  0  0  0  0  0  0  0  0  0  0  # atno 6909 bound_to 6896
  144.7792  139.7613  143.6266 H   0  0  0  0  0  0  0  0  0  0  0  0  # atno 7974 bound_to 7965
  155.3421  140.3408  155.4239 H   0  0  0  0  0  0  0  0  0  0  0  0  # atno 8008 bound_to 7997
  156.1807  140.1663  156.8314 H   0  0  0  0  0  0  0  0  0  0  0  0  # atno 8009 bound_to 7997
  154.5331  140.0741  156.8363 H   0  0  0  0  0  0  0  0  0  0  0  0  # atno 8010 bound_to 7997
  139.4830  144.5325  151.7699 H   0  0  0  0  0  0  0  0  0  0  0  0  # atno 10167 bound_to 10162
  156.9660  131.0075  151.2916 H   0  0  0  0  0  0  0  0  0  0  0  0  # atno 10718 bound_to 10713
  154.7943  135.3218  154.7703 H   0  0  0  0  0  0  0  0  0  0  0  0  # atno 10763 bound_to 10752
  153.8385  135.6873  153.4810 H   0  0  0  0  0  0  0  0  0  0  0  0  # atno 10764 bound_to 10752
  153.1628  135.4654  154.9736 H   0  0  0  0  0  0  0  0  0  0  0  0  # atno 10765 bound_to 10752
  140.8721  134.2037  157.4644 H   0  0  0  0  0  0  0  0  0  0  0  0  # atno 11005 bound_to 11000
  146.1990  139.5273  142.9756 LP  0  0  0  0  0  0  0  0  0  0  0  0  # atno 17320 bound_to 7965
  145.6099  141.0341  143.1972 LP  0  0  0  0  0  0  0  0  0  0  0  0  # atno 17321 bound_to 7965
  140.4853  144.1389  150.5940 LP  0  0  0  0  0  0  0  0  0  0  0  0  # atno 17342 bound_to 10162
  140.4232  143.2602  151.9689 LP  0  0  0  0  0  0  0  0  0  0  0  0  # atno 17343 bound_to 10162
  157.5625  130.8255  149.8284 LP  0  0  0  0  0  0  0  0  0  0  0  0  # atno 17370 bound_to 10713
  156.0302  130.3767  150.1709 LP  0  0  0  0  0  0  0  0  0  0  0  0  # atno 17371 bound_to 10713
  139.8713  134.9779  156.4977 LP  0  0  0  0  0  0  0  0  0  0  0  0  # atno 17394 bound_to 11000
  140.8560  133.8095  155.9217 LP  0  0  0  0  0  0  0  0  0  0  0  0  # atno 17395 bound_to 11000

$$$$
