AV-unprocessed.smi:1843|AV-procd|sdf|7507|dock8
  -GOLD-   22720 9213D 1   1.00000     0.00000
 Structure written by MMmdl.
 36 38  0  0  0  0  0  0  0  0  2 V2000
  149.8562  139.8700  157.3305 O   0  0  0  0  0  0  0  0  0  0  0  0
  150.3839  138.8214  157.7083 C   0  0  0  0  0  0  0  0  0  0  0  0
  149.8405  137.5844  157.6508 N   0  5  0  0  0  0  0  0  0  0  0  0
  149.0666  137.1435  158.6563 C   0  0  0  0  0  0  0  0  0  0  0  0
  148.6816  137.9336  159.6684 N   0  0  0  0  0  0  0  0  0  0  0  0
  147.8820  137.2800  160.5951 N   0  0  0  0  0  0  0  0  0  0  0  0
  147.6690  136.0039  160.2656 C   0  0  0  0  0  0  0  0  0  0  0  0
  146.8422  135.0877  161.1042 C   0  0  0  0  0  0  0  0  0  0  0  0
  147.1820  134.8522  162.5580 C   0  0  0  0  0  0  0  0  0  0  0  0
  147.3650  133.7414  161.5557 C   0  0  0  0  0  0  0  0  0  0  0  0
  148.4366  135.5008  158.7685 S   0  0  0  0  0  0  0  0  0  0  0  0
  151.6120  138.8441  158.2451 N   0  0  0  0  0  0  0  0  0  0  0  0
  152.4427  140.0295  158.4502 C   0  0  1  0  0  0  0  0  0  0  0  0
  151.6632  141.0394  159.3233 C   0  0  0  0  0  0  0  0  0  0  0  0
  152.5236  142.2411  159.7385 C   0  0  0  0  0  0  0  0  0  0  0  0
  153.7963  141.7801  160.4602 C   0  0  0  0  0  0  0  0  0  0  0  0
  154.6041  140.8260  159.5710 C   0  0  0  0  0  0  0  0  0  0  0  0
  153.7675  139.6100  159.1291 C   0  0  2  0  0  0  0  0  0  0  0  0
  154.5512  138.8665  158.2170 O   0  0  0  0  0  0  0  0  0  0  0  0
  145.7916  135.1594  160.8302 H   0  0  0  0  0  0  0  0  0  0  0  0
  148.0794  135.3264  162.9507 H   0  0  0  0  0  0  0  0  0  0  0  0
  146.3542  134.7672  163.2588 H   0  0  0  0  0  0  0  0  0  0  0  0
  146.6588  132.9144  161.5868 H   0  0  0  0  0  0  0  0  0  0  0  0
  148.3864  133.4716  161.2949 H   0  0  0  0  0  0  0  0  0  0  0  0
  152.0001  137.9611  158.5425 H   0  0  0  0  0  0  0  0  0  0  0  0
  152.6726  140.4969  157.4904 H   0  0  0  0  0  0  0  0  0  0  0  0
  150.7797  141.3925  158.7900 H   0  0  0  0  0  0  0  0  0  0  0  0
  151.2975  140.5401  160.2217 H   0  0  0  0  0  0  0  0  0  0  0  0
  152.7900  142.8238  158.8558 H   0  0  0  0  0  0  0  0  0  0  0  0
  151.9479  142.9033  160.3854 H   0  0  0  0  0  0  0  0  0  0  0  0
  154.4052  142.6433  160.7296 H   0  0  0  0  0  0  0  0  0  0  0  0
  153.5327  141.2812  161.3936 H   0  0  0  0  0  0  0  0  0  0  0  0
  154.9552  141.3708  158.6928 H   0  0  0  0  0  0  0  0  0  0  0  0
  155.4962  140.4931  160.1031 H   0  0  0  0  0  0  0  0  0  0  0  0
  153.5565  138.9859  159.9990 H   0  0  0  0  0  0  0  0  0  0  0  0
  154.5263  137.9576  158.4764 H   0  0  0  0  0  0  0  0  0  0  0  0
  1  2  2  0  0  0  0
  2  3  1  0  0  0  0
  2 12  1  0  0  0  0
  3  4  1  0  0  0  0
  4 11  1  0  0  0  0
  4  5  2  0  0  0  0
  5  6  1  0  0  0  0
  6  7  2  0  0  0  0
  7  8  1  0  0  0  0
  7 11  1  0  0  0  0
  8 10  1  0  0  0  0
  8  9  1  0  0  0  0
  8 20  1  0  0  0  0
  9 10  1  0  0  0  0
  9 21  1  0  0  0  0
  9 22  1  0  0  0  0
 10 23  1  0  0  0  0
 10 24  1  0  0  0  0
 12 13  1  0  0  0  0
 12 25  1  0  0  0  0
 13 18  1  0  0  0  0
 13 14  1  0  0  0  0
 13 26  1  0  0  0  0
 14 15  1  0  0  0  0
 14 27  1  0  0  0  0
 14 28  1  0  0  0  0
 15 16  1  0  0  0  0
 15 29  1  0  0  0  0
 15 30  1  0  0  0  0
 16 17  1  0  0  0  0
 16 31  1  0  0  0  0
 16 32  1  0  0  0  0
 17 18  1  0  0  0  0
 17 33  1  0  0  0  0
 17 34  1  0  0  0  0
 18 19  1  0  0  0  0
 18 35  1  0  0  0  0
 19 36  1  0  0  0  0
M  CHG  1   3  -1
M  END
> <s_m_source_file>
AV-unprocessed.smi

> <i_m_source_file_index>
1843

> <i_lp_mmshare_version>
43012

> <i_f3d_flags>
0

> <s_epik_input>
W09IXVtDQEBIXTFbQ0gyXVtDSDJdW0NIMl1bQ0gyXVtDQEhdMVtOSF1DKD1PKVtOSF1jMm5uYyhzMilbQ0hdM1tDSDJdW0NIMl0z

> <s_epik_cmdline>
J2VwaWtfcHl0aG9uJywgJy1waCcsICc3LjAnLCAnLXRuJywgJzgnLCAnLW1hJywgJzIwMCcsICctbWV0YWxfYmluZGluZycsICctaW1hZScsICc8aW5maWxlLm1hZT4nLCAnLW9tYWUnLCAnPG91dGZpbGUubWFlPic=

> <r_lp_tautomer_probability>
1

> <r_epik_Ionization_Penalty>
4.7996

> <r_epik_Ionization_Penalty_Charging>
4.64516

> <r_epik_Ionization_Penalty_Neutral>
0.154442

> <r_epik_State_Penalty>
4.64493

> <r_epik_Charging_Adjusted_Penalty>
9.29009

> <i_epik_Tot_Q>
-1

> <i_epik_Tot_abs_Q>
1

> <r_epik_Metal_State_Penalty>
0.896144

> <b_epik_Metal_Only>
1

> <s_lp_Force_Field>
OPLS_2005

> <r_lp_Energy>
6.73246

> <b_lp_Chiralities_Consistent>
1

> <s_lp_Variant>
AV-unprocessed.smi:1843-8

> <Gold.Version>
5.8.1

> <Gold.Id.Protein>
6NUR|6NUR_protein|mol2

> <Gold.PLP.Fitness>
36.6345

> <Gold.PLP.PLP>
-33.8967

> <Gold.PLP.part.hbond>
-5.0000

> <Gold.PLP.part.metal>
0.0000

> <Gold.PLP.part.buried>
-0.6959

> <Gold.PLP.part.nonpolar>
-27.7298

> <Gold.PLP.part.repulsive>
0.0762

> <Gold.PLP.ligand.clash>
0.0000

> <Gold.PLP.ligand.torsion>
0.8354

> <Gold.PLP.Chemscore.Hbond>
1.4248

> <Gold.PLP.Chemscore.CHOScore>
0.0000

> <Gold.PLP.Chemscore.Metal>
0.0000

> <Gold.Chemscore.Hbonds>
donor molecule, donor type, donor heavy atom, donor atom, acceptor molecule, acceptor atom, score
      P1  H  6931  6943       L1     6  0.08
      P1  H  6934  6947       L1     6  0.12
      P1  H  7997  8009       L1    19  0.94

> <Gold.PLP.Chemscore.Internal.Correction>
0.1342

> <Gold.Rescore>
     Score         DG    S(hbond)    S(metal)    S(lipo)     H(rot)  DE(clash)    DE(int)     intcor
     11.45     -13.82       0.96        0.00      81.35       1.72       0.09       2.29       ----

> <Gold.Chemscore.Fitness>
11.4458

> <Gold.Chemscore.DG>
-13.8215

> <Gold.Chemscore.ZeroCoef>
-5.4800

> <Gold.Chemscore.Hbond>
0.9632

> <Gold.Chemscore.Metal>
0.0000

> <Gold.Chemscore.Lipo>
81.3459

> <Gold.Chemscore.Internal_Hbond>
0.0000

> <Gold.Chemscore.DEClash>
0.0853

> <Gold.Chemscore.DEInternal>
2.2903

> <Gold.Chemscore.Rot>
1.7160

> <Gold.Chemscore.Internal.Correction>
   9.000000E+99

> <Gold.Chemscore.Hbonds>
donor molecule, donor type, donor heavy atom, donor atom, acceptor molecule, acceptor atom, score
      P1  H  7997  8009       L1    19  0.20

> <Gold.Chemscore.Hbond.Weighted>
-3.2169

> <Gold.Chemscore.Metal.Weighted>
-0.0000

> <Gold.Chemscore.Lipo.Weighted>
-9.5175

> <Gold.Chemscore.Internal_Hbond.Weighted>
0.0000

> <Gold.Chemscore.DEClash.Weighted>
0.0853

> <Gold.Chemscore.DEInternal.Weighted>
2.2903

> <Gold.Chemscore.Rot.Weighted>
4.3930

> <Gold.Chemscore.Internal.Correction.Weighted>
   9.000000E+99

> <Gold.Protein.RotatedTorsions>
[ 6907 6896 6895 6894 ] final  -87.16 input  -60.11 | X-H torsion
[ 7974 7965 7964 7962 ] final  105.25 input  175.53 | X-H torsion
[ 8008 7997 7996 7995 ] final  134.16 input   59.86 | X-H torsion
[ 10167 10162 10161 10158 ] final   45.25 input  -65.29 | X-H torsion
[ 10718 10713 10712 10709 ] final -114.54 input   66.30 | X-H torsion
[ 10763 10752 10751 10750 ] final  -90.67 input  -60.55 | X-H torsion
[ 11005 11000 10999 10996 ] final -132.97 input  -57.11 | X-H torsion

> <Gold.Protein.ActiveResidues>
 VAL166  LYS551  ARG553  GLY616  TRP617  ASP618  TYR619  PRO620  LYS621  CYS622 
 ASP623  PHE694  ASN695  SER759  ASP760  ASP761  ALA762  ILE779  LEU786  VAL792 
 PHE793  MET794  SER795  GLU796  ALA797  LYS798  CYS799  TRP800  GLU811  SER814 

> <Gold.Protein.RotatedAtoms>
  150.6866  134.2939  159.4677 H   0  0  0  0  0  0  0  0  0  0  0  0  # atno 6907 bound_to 6896
  152.0841  134.9449  160.0582 H   0  0  0  0  0  0  0  0  0  0  0  0  # atno 6908 bound_to 6896
  152.0790  133.4108  159.4529 H   0  0  0  0  0  0  0  0  0  0  0  0  # atno 6909 bound_to 6896
  145.3222  139.2509  143.3706 H   0  0  0  0  0  0  0  0  0  0  0  0  # atno 7974 bound_to 7965
  156.2997  140.2503  156.3372 H   0  0  0  0  0  0  0  0  0  0  0  0  # atno 8008 bound_to 7997
  154.9089  140.0404  157.1954 H   0  0  0  0  0  0  0  0  0  0  0  0  # atno 8009 bound_to 7997
  154.8425  140.2893  155.5654 H   0  0  0  0  0  0  0  0  0  0  0  0  # atno 8010 bound_to 7997
  140.3261  144.2646  150.6175 H   0  0  0  0  0  0  0  0  0  0  0  0  # atno 10167 bound_to 10162
  156.0837  130.6032  150.8788 H   0  0  0  0  0  0  0  0  0  0  0  0  # atno 10718 bound_to 10713
  154.6682  135.5296  153.8104 H   0  0  0  0  0  0  0  0  0  0  0  0  # atno 10763 bound_to 10752
  153.0484  135.6522  154.0766 H   0  0  0  0  0  0  0  0  0  0  0  0  # atno 10764 bound_to 10752
  154.0668  135.2957  155.3295 H   0  0  0  0  0  0  0  0  0  0  0  0  # atno 10765 bound_to 10752
  140.9123  134.1552  157.4380 H   0  0  0  0  0  0  0  0  0  0  0  0  # atno 11005 bound_to 11000
  146.3078  140.3781  142.8681 LP  0  0  0  0  0  0  0  0  0  0  0  0  # atno 17320 bound_to 7965
  144.8930  140.7548  143.5914 LP  0  0  0  0  0  0  0  0  0  0  0  0  # atno 17321 bound_to 7965
  140.5440  143.2218  151.8038 LP  0  0  0  0  0  0  0  0  0  0  0  0  # atno 17342 bound_to 10162
  139.4865  144.4563  151.9594 LP  0  0  0  0  0  0  0  0  0  0  0  0  # atno 17343 bound_to 10162
  157.5963  131.0943  150.9035 LP  0  0  0  0  0  0  0  0  0  0  0  0  # atno 17370 bound_to 10713
  156.9201  130.5312  149.5279 LP  0  0  0  0  0  0  0  0  0  0  0  0  # atno 17371 bound_to 10713
  139.8759  134.9940  156.5673 LP  0  0  0  0  0  0  0  0  0  0  0  0  # atno 17394 bound_to 11000
  140.8094  133.8441  155.8797 LP  0  0  0  0  0  0  0  0  0  0  0  0  # atno 17395 bound_to 11000

$$$$
