AV-unprocessed.smi:1005|AV-procd|sdf|4376|dock10
  -GOLD-   22720 2293D 1   1.00000     0.00000
 Structure written by MMmdl.
 57 59  0  0  0  0  0  0  0  0  3 V2000
  151.8051  145.1902  160.5847 C   0  0  0  0  0  0  0  0  0  0  0  0
  151.6800  143.9625  159.6985 C   0  0  0  0  0  0  0  0  0  0  0  0
  150.8869  144.0506  158.5325 C   0  0  0  0  0  0  0  0  0  0  0  0
  150.7964  142.9130  157.7394 C   0  0  0  0  0  0  0  0  0  0  0  0
  150.1098  142.6842  156.5452 N   0  3  0  0  0  0  0  0  0  0  0  0
  150.3262  141.4043  156.1344 C   0  0  0  0  0  0  0  0  0  0  0  0
  151.1423  140.8119  157.0478 N   0  0  0  0  0  0  0  0  0  0  0  0
  151.6738  139.4420  157.0743 C   0  0  0  0  0  0  0  0  0  0  0  0
  151.1005  138.5963  158.2289 C   0  0  2  0  0  0  0  0  0  0  0  0
  152.1641  138.3228  159.1165 O   0  0  0  0  0  0  0  0  0  0  0  0
  150.4948  137.2532  157.7666 C   0  0  0  0  0  0  0  0  0  0  0  0
  149.2891  136.8238  158.4764 N   0  0  0  0  0  0  0  0  0  0  0  0
  148.2324  137.8209  158.3445 C   0  0  0  0  0  0  0  0  0  0  0  0
  146.9513  137.4016  159.0824 C   0  0  0  0  0  0  0  0  0  0  0  0
  147.2543  137.1643  160.4526 O   0  0  0  0  0  0  0  0  0  0  0  0
  148.2425  136.1537  160.6389 C   0  0  2  0  0  0  0  0  0  0  0  0
  148.4799  135.9974  162.1513 C   0  0  0  0  0  0  0  0  0  0  0  0
  147.3650  135.2899  162.8312 N   0  3  0  0  0  0  0  0  0  0  0  0
  146.0464  135.9309  162.6205 C   0  0  0  0  0  0  0  0  0  0  0  0
  147.3292  133.8496  162.4945 C   0  0  0  0  0  0  0  0  0  0  0  0
  149.5284  136.5748  159.8972 C   0  0  0  0  0  0  0  0  0  0  0  0
  151.4577  141.7143  158.0714 C   0  0  0  0  0  0  0  0  0  0  0  0
  152.2398  141.6101  159.2198 C   0  0  0  0  0  0  0  0  0  0  0  0
  152.3493  142.7580  160.0367 C   0  0  0  0  0  0  0  0  0  0  0  0
  153.2043  142.6756  161.2898 C   0  0  0  0  0  0  0  0  0  0  0  0
  151.1858  146.0103  160.2199 H   0  0  0  0  0  0  0  0  0  0  0  0
  152.8382  145.5378  160.6108 H   0  0  0  0  0  0  0  0  0  0  0  0
  151.4895  144.9633  161.6033 H   0  0  0  0  0  0  0  0  0  0  0  0
  150.3756  144.9647  158.2679 H   0  0  0  0  0  0  0  0  0  0  0  0
  149.9230  140.9421  155.2446 H   0  0  0  0  0  0  0  0  0  0  0  0
  151.5011  138.9665  156.1085 H   0  0  0  0  0  0  0  0  0  0  0  0
  152.7564  139.5265  157.1801 H   0  0  0  0  0  0  0  0  0  0  0  0
  150.3603  139.1958  158.7577 H   0  0  0  0  0  0  0  0  0  0  0  0
  151.8769  138.5157  159.9961 H   0  0  0  0  0  0  0  0  0  0  0  0
  150.2683  137.3007  156.7013 H   0  0  0  0  0  0  0  0  0  0  0  0
  151.2651  136.4873  157.8701 H   0  0  0  0  0  0  0  0  0  0  0  0
  148.5762  138.7796  158.7368 H   0  0  0  0  0  0  0  0  0  0  0  0
  148.0027  137.9808  157.2903 H   0  0  0  0  0  0  0  0  0  0  0  0
  146.1992  138.1877  159.0139 H   0  0  0  0  0  0  0  0  0  0  0  0
  146.5209  136.5044  158.6347 H   0  0  0  0  0  0  0  0  0  0  0  0
  147.8840  135.2159  160.2132 H   0  0  0  0  0  0  0  0  0  0  0  0
  149.4162  135.4707  162.3426 H   0  0  0  0  0  0  0  0  0  0  0  0
  148.5952  136.9935  162.5817 H   0  0  0  0  0  0  0  0  0  0  0  0
  145.7789  135.9362  161.5630 H   0  0  0  0  0  0  0  0  0  0  0  0
  146.0378  136.9591  162.9801 H   0  0  0  0  0  0  0  0  0  0  0  0
  145.2685  135.3931  163.1635 H   0  0  0  0  0  0  0  0  0  0  0  0
  147.1320  133.7012  161.4318 H   0  0  0  0  0  0  0  0  0  0  0  0
  146.5499  133.3399  163.0622 H   0  0  0  0  0  0  0  0  0  0  0  0
  148.2782  133.3701  162.7376 H   0  0  0  0  0  0  0  0  0  0  0  0
  150.2725  135.7895  160.0231 H   0  0  0  0  0  0  0  0  0  0  0  0
  149.9396  137.4717  160.3634 H   0  0  0  0  0  0  0  0  0  0  0  0
  152.7523  140.6956  159.4790 H   0  0  0  0  0  0  0  0  0  0  0  0
  153.7021  141.7088  161.3707 H   0  0  0  0  0  0  0  0  0  0  0  0
  152.5900  142.8106  162.1802 H   0  0  0  0  0  0  0  0  0  0  0  0
  153.9763  143.4455  161.2806 H   0  0  0  0  0  0  0  0  0  0  0  0
  147.5608  135.3379  163.8216 H   0  0  0  0  0  0  0  0  0  0  0  0
  149.5341  143.3503  156.0458 H   0  0  0  0  0  0  0  0  0  0  0  0
  1  2  1  0  0  0  0
  1 26  1  0  0  0  0
  1 27  1  0  0  0  0
  1 28  1  0  0  0  0
  2 24  1  0  0  0  0
  2  3  2  0  0  0  0
  3  4  1  0  0  0  0
  3 29  1  0  0  0  0
  4 22  2  0  0  0  0
  4  5  1  0  0  0  0
  5  6  2  0  0  0  0
  5 57  1  0  0  0  0
  6  7  1  0  0  0  0
  6 30  1  0  0  0  0
  7  8  1  0  0  0  0
  7 22  1  0  0  0  0
  8  9  1  0  0  0  0
  8 31  1  0  0  0  0
  8 32  1  0  0  0  0
  9 10  1  0  0  0  0
  9 11  1  0  0  0  0
  9 33  1  0  0  0  0
 10 34  1  0  0  0  0
 11 12  1  0  0  0  0
 11 35  1  0  0  0  0
 11 36  1  0  0  0  0
 12 21  1  0  0  0  0
 12 13  1  0  0  0  0
 13 14  1  0  0  0  0
 13 37  1  0  0  0  0
 13 38  1  0  0  0  0
 14 15  1  0  0  0  0
 14 39  1  0  0  0  0
 14 40  1  0  0  0  0
 15 16  1  0  0  0  0
 16 17  1  0  0  0  0
 16 21  1  0  0  0  0
 16 41  1  0  0  0  0
 17 18  1  0  0  0  0
 17 42  1  0  0  0  0
 17 43  1  0  0  0  0
 18 19  1  0  0  0  0
 18 20  1  0  0  0  0
 18 56  1  0  0  0  0
 19 44  1  0  0  0  0
 19 45  1  0  0  0  0
 19 46  1  0  0  0  0
 20 47  1  0  0  0  0
 20 48  1  0  0  0  0
 20 49  1  0  0  0  0
 21 50  1  0  0  0  0
 21 51  1  0  0  0  0
 22 23  1  0  0  0  0
 23 24  2  0  0  0  0
 23 52  1  0  0  0  0
 24 25  1  0  0  0  0
 25 53  1  0  0  0  0
 25 54  1  0  0  0  0
 25 55  1  0  0  0  0
M  CHG  1   5   1
M  CHG  1  18   1
M  END
> <s_m_source_file>
AV-unprocessed.smi

> <i_m_source_file_index>
1005

> <i_lp_mmshare_version>
43012

> <i_f3d_flags>
0

> <s_epik_input>
W0NIM11jKFtjSF0xKWMoW0NIM10pW2NIXWMoYzEyKW4oW2NIXW4yKVtDSDJdW0NASF0oW09IXSlbQ0gyXU4zW0NIMl1bQ0gyXU9bQ0BIXShbQ0gyXTMpW0NIMl1OKFtDSDNdKVtDSDNd

> <s_epik_cmdline>
J2VwaWtfcHl0aG9uJywgJy1waCcsICc3LjAnLCAnLXRuJywgJzgnLCAnLW1hJywgJzIwMCcsICctbWV0YWxfYmluZGluZycsICctaW1hZScsICc8aW5maWxlLm1hZT4nLCAnLW9tYWUnLCAnPG91dGZpbGUubWFlPic=

> <r_epik_Ionization_Penalty>
1.3281

> <r_epik_Ionization_Penalty_Charging>
1.21988

> <r_epik_Ionization_Penalty_Neutral>
0.10822

> <r_epik_State_Penalty>
1.32886

> <r_epik_Charging_Adjusted_Penalty>
2.54875

> <i_epik_Tot_Q>
2

> <i_epik_Tot_abs_Q>
2

> <r_epik_Metal_State_Penalty>
5.33912

> <b_epik_Metal_Only>
0

> <s_lp_Force_Field>
OPLS_2005

> <r_lp_Energy>
45.8235

> <b_lp_Chiralities_Consistent>
1

> <s_lp_Variant>
AV-unprocessed.smi:1005-15

> <Gold.Version>
5.8.1

> <Gold.Id.Protein>
6NUR|6NUR_protein|mol2

> <Gold.PLP.Fitness>
57.5537

> <Gold.PLP.PLP>
-51.5960

> <Gold.PLP.part.hbond>
-2.0000

> <Gold.PLP.part.metal>
0.0000

> <Gold.PLP.part.buried>
-7.7030

> <Gold.PLP.part.nonpolar>
-42.5147

> <Gold.PLP.part.repulsive>
0.2209

> <Gold.PLP.ligand.clash>
0.0000

> <Gold.PLP.ligand.torsion>
1.4374

> <Gold.PLP.Chemscore.Hbond>
2.9200

> <Gold.PLP.Chemscore.CHOScore>
0.0000

> <Gold.PLP.Chemscore.Metal>
0.0000

> <Gold.Chemscore.Hbonds>
donor molecule, donor type, donor heavy atom, donor atom, acceptor molecule, acceptor atom, score
      L1  H     5    57       P1  8028  2.00
      P1  H  6934  6947       L1    15  0.70

> <Gold.PLP.Chemscore.Internal.Correction>
0.0725

> <Gold.Rescore>
     Score         DG    S(hbond)    S(metal)    S(lipo)     H(rot)  DE(clash)    DE(int)     intcor
     17.82     -20.73       1.79        0.00     133.77       2.49       0.15       2.75       ----

> <Gold.Chemscore.Fitness>
17.8244

> <Gold.Chemscore.DG>
-20.7281

> <Gold.Chemscore.ZeroCoef>
-5.4800

> <Gold.Chemscore.Hbond>
1.7878

> <Gold.Chemscore.Metal>
0.0000

> <Gold.Chemscore.Lipo>
133.7654

> <Gold.Chemscore.Internal_Hbond>
0.0000

> <Gold.Chemscore.DEClash>
0.1530

> <Gold.Chemscore.DEInternal>
2.7507

> <Gold.Chemscore.Rot>
2.4897

> <Gold.Chemscore.Internal.Correction>
   9.000000E+99

> <Gold.Chemscore.Hbonds>
donor molecule, donor type, donor heavy atom, donor atom, acceptor molecule, acceptor atom, score
      L1  H     5    57       P1  8028  0.96
      P1  H  6934  6947       L1    15  0.07

> <Gold.Chemscore.Hbond.Weighted>
-5.9713

> <Gold.Chemscore.Metal.Weighted>
-0.0000

> <Gold.Chemscore.Lipo.Weighted>
-15.6506

> <Gold.Chemscore.Internal_Hbond.Weighted>
0.0000

> <Gold.Chemscore.DEClash.Weighted>
0.1530

> <Gold.Chemscore.DEInternal.Weighted>
2.7507

> <Gold.Chemscore.Rot.Weighted>
6.3737

> <Gold.Chemscore.Internal.Correction.Weighted>
   9.000000E+99

> <Gold.Protein.RotatedTorsions>
[ 6907 6896 6895 6894 ] final  165.91 input  -60.11 | X-H torsion
[ 7974 7965 7964 7962 ] final   -8.20 input  175.53 | X-H torsion
[ 8008 7997 7996 7995 ] final   26.17 input   59.86 | X-H torsion
[ 10167 10162 10161 10158 ] final  177.62 input  -65.29 | X-H torsion
[ 10718 10713 10712 10709 ] final   87.51 input   66.30 | X-H torsion
[ 10763 10752 10751 10750 ] final -117.77 input  -60.55 | X-H torsion
[ 11005 11000 10999 10996 ] final  -51.80 input  -57.11 | X-H torsion

> <Gold.Protein.ActiveResidues>
 VAL166  LYS551  ARG553  GLY616  TRP617  ASP618  TYR619  PRO620  LYS621  CYS622 
 ASP623  PHE694  ASN695  SER759  ASP760  ASP761  ALA762  ILE779  LEU786  VAL792 
 PHE793  MET794  SER795  GLU796  ALA797  LYS798  CYS799  TRP800  GLU811  SER814 

> <Gold.Protein.RotatedAtoms>
  151.8871  133.3508  159.3785 H   0  0  0  0  0  0  0  0  0  0  0  0  # atno 6907 bound_to 6896
  150.7112  134.4960  159.5548 H   0  0  0  0  0  0  0  0  0  0  0  0  # atno 6908 bound_to 6896
  152.2523  134.8120  160.0495 H   0  0  0  0  0  0  0  0  0  0  0  0  # atno 6909 bound_to 6896
  146.2287  140.2433  142.8344 H   0  0  0  0  0  0  0  0  0  0  0  0  # atno 7974 bound_to 7965
  155.0232  140.3150  155.4786 H   0  0  0  0  0  0  0  0  0  0  0  0  # atno 8008 bound_to 7997
  156.2888  140.2193  156.5293 H   0  0  0  0  0  0  0  0  0  0  0  0  # atno 8009 bound_to 7997
  154.7434  140.0472  157.0819 H   0  0  0  0  0  0  0  0  0  0  0  0  # atno 8010 bound_to 7997
  139.5260  144.2777  152.0574 H   0  0  0  0  0  0  0  0  0  0  0  0  # atno 10167 bound_to 10162
  157.6941  131.0258  150.3134 H   0  0  0  0  0  0  0  0  0  0  0  0  # atno 10718 bound_to 10713
  154.8566  135.4297  154.2033 H   0  0  0  0  0  0  0  0  0  0  0  0  # atno 10763 bound_to 10752
  153.3075  135.6973  153.7152 H   0  0  0  0  0  0  0  0  0  0  0  0  # atno 10764 bound_to 10752
  153.6257  135.3494  155.3000 H   0  0  0  0  0  0  0  0  0  0  0  0  # atno 10765 bound_to 10752
  141.0890  133.6636  156.3930 H   0  0  0  0  0  0  0  0  0  0  0  0  # atno 11005 bound_to 11000
  144.9467  140.8136  143.5597 LP  0  0  0  0  0  0  0  0  0  0  0  0  # atno 17320 bound_to 7965
  145.2390  139.2081  143.5003 LP  0  0  0  0  0  0  0  0  0  0  0  0  # atno 17321 bound_to 7965
  140.2233  144.4443  150.6332 LP  0  0  0  0  0  0  0  0  0  0  0  0  # atno 17342 bound_to 10162
  140.6404  143.2202  151.6303 LP  0  0  0  0  0  0  0  0  0  0  0  0  # atno 17343 bound_to 10162
  156.3632  130.3850  149.7235 LP  0  0  0  0  0  0  0  0  0  0  0  0  # atno 17370 bound_to 10713
  156.4674  130.7980  151.2999 LP  0  0  0  0  0  0  0  0  0  0  0  0  # atno 17371 bound_to 10713
  140.5296  134.6226  157.5345 LP  0  0  0  0  0  0  0  0  0  0  0  0  # atno 17394 bound_to 11000
  139.9713  134.7288  156.0036 LP  0  0  0  0  0  0  0  0  0  0  0  0  # atno 17395 bound_to 11000

$$$$
