AV-unprocessed.smi:2093|AV-procd|sdf|8551|dock5
  -GOLD-   2272011273D 1   1.00000     0.00000
 Structure written by MMmdl.
 30 31  0  0  0  0  0  0  0  0  2 V2000
  151.4660  144.2136  158.5158 C   0  0  0  0  0  0  0  0  0  0  0  0
  151.7265  142.7868  159.0310 C   0  0  1  0  0  0  0  0  0  0  0  0
  152.2210  141.9526  157.9378 N   0  0  0  0  0  0  0  0  0  0  0  0
  151.7054  140.7814  157.5372 C   0  0  0  0  0  0  0  0  0  0  0  0
  150.7159  140.3162  158.1075 O   0  0  0  0  0  0  0  0  0  0  0  0
  152.3681  140.2226  156.4988 N   0  5  0  0  0  0  0  0  0  0  0  0
  151.7854  139.2551  155.7724 C   0  0  0  0  0  0  0  0  0  0  0  0
  151.0588  139.5017  154.6760 N   0  0  0  0  0  0  0  0  0  0  0  0
  150.5525  138.3481  154.0745 C   0  0  0  0  0  0  0  0  0  0  0  0
  150.9106  137.1954  154.7220 C   0  0  0  0  0  0  0  0  0  0  0  0
  151.8982  137.5267  156.1166 S   0  0  0  0  0  0  0  0  0  0  0  0
  152.7482  142.7621  160.1843 C   0  0  1  0  0  0  0  0  0  0  0  0
  152.2382  143.3364  161.5077 C   0  0  0  0  0  0  0  0  0  0  0  0
  153.0719  142.6220  162.5612 C   0  0  0  0  0  0  0  0  0  0  0  0
  153.7393  141.4762  161.7969 C   0  0  0  0  0  0  0  0  0  0  0  0
  153.0632  141.4266  160.5496 O   0  0  0  0  0  0  0  0  0  0  0  0
  151.0580  144.8516  159.2996 H   0  0  0  0  0  0  0  0  0  0  0  0
  150.7478  144.2124  157.6954 H   0  0  0  0  0  0  0  0  0  0  0  0
  152.3840  144.6765  158.1523 H   0  0  0  0  0  0  0  0  0  0  0  0
  150.7870  142.3709  159.3998 H   0  0  0  0  0  0  0  0  0  0  0  0
  153.0351  142.2886  157.4449 H   0  0  0  0  0  0  0  0  0  0  0  0
  149.9474  138.4412  153.1850 H   0  0  0  0  0  0  0  0  0  0  0  0
  150.6567  136.1778  154.4665 H   0  0  0  0  0  0  0  0  0  0  0  0
  153.6680  143.2722  159.8899 H   0  0  0  0  0  0  0  0  0  0  0  0
  152.3349  144.4213  161.5584 H   0  0  0  0  0  0  0  0  0  0  0  0
  151.1855  143.0862  161.6470 H   0  0  0  0  0  0  0  0  0  0  0  0
  153.8210  143.2824  162.9994 H   0  0  0  0  0  0  0  0  0  0  0  0
  152.4381  142.2507  163.3673 H   0  0  0  0  0  0  0  0  0  0  0  0
  154.7942  141.6934  161.6237 H   0  0  0  0  0  0  0  0  0  0  0  0
  153.6694  140.5233  162.3217 H   0  0  0  0  0  0  0  0  0  0  0  0
  1  2  1  0  0  0  0
  1 17  1  0  0  0  0
  1 18  1  0  0  0  0
  1 19  1  0  0  0  0
  2  3  1  0  0  0  0
  2 12  1  0  0  0  0
  2 20  1  0  0  0  0
  3  4  1  0  0  0  0
  3 21  1  0  0  0  0
  4  5  2  0  0  0  0
  4  6  1  0  0  0  0
  6  7  1  0  0  0  0
  7 11  1  0  0  0  0
  7  8  2  0  0  0  0
  8  9  1  0  0  0  0
  9 10  2  0  0  0  0
  9 22  1  0  0  0  0
 10 11  1  0  0  0  0
 10 23  1  0  0  0  0
 12 16  1  0  0  0  0
 12 13  1  0  0  0  0
 12 24  1  0  0  0  0
 13 14  1  0  0  0  0
 13 25  1  0  0  0  0
 13 26  1  0  0  0  0
 14 15  1  0  0  0  0
 14 27  1  0  0  0  0
 14 28  1  0  0  0  0
 15 16  1  0  0  0  0
 15 29  1  0  0  0  0
 15 30  1  0  0  0  0
M  CHG  1   6  -1
M  END
> <s_m_source_file>
AV-unprocessed.smi

> <i_m_source_file_index>
2093

> <i_lp_mmshare_version>
43012

> <i_f3d_flags>
0

> <s_epik_input>
TzFbQ0gyXVtDSDJdW0NIMl1bQ0BIXTFbQ0BIXShbQ0gzXSlbTkhdQyg9TylbTkhdYzJuW2NIXVtjSF1zMg==

> <s_epik_cmdline>
J2VwaWtfcHl0aG9uJywgJy1waCcsICc3LjAnLCAnLXRuJywgJzgnLCAnLW1hJywgJzIwMCcsICctbWV0YWxfYmluZGluZycsICctaW1hZScsICc8aW5maWxlLm1hZT4nLCAnLW9tYWUnLCAnPG91dGZpbGUubWFlPic=

> <r_lp_tautomer_probability>
0.999

> <r_epik_Ionization_Penalty>
8.26346

> <r_epik_Ionization_Penalty_Charging>
6.6559

> <r_epik_Ionization_Penalty_Neutral>
1.60756

> <r_epik_State_Penalty>
6.65607

> <r_epik_Charging_Adjusted_Penalty>
13.312

> <i_epik_Tot_Q>
-1

> <i_epik_Tot_abs_Q>
1

> <r_epik_Metal_State_Penalty>
2.5789

> <b_epik_Metal_Only>
1

> <s_lp_Force_Field>
OPLS_2005

> <r_lp_Energy>
13.9073

> <b_lp_Chiralities_Consistent>
1

> <s_lp_Variant>
AV-unprocessed.smi:2093-8

> <Gold.Version>
5.8.1

> <Gold.Id.Protein>
6NUR|6NUR_protein|mol2

> <Gold.PLP.Fitness>
46.0849

> <Gold.PLP.PLP>
-34.7911

> <Gold.PLP.part.hbond>
-2.0000

> <Gold.PLP.part.metal>
0.0000

> <Gold.PLP.part.buried>
-2.3854

> <Gold.PLP.part.nonpolar>
-30.5284

> <Gold.PLP.part.repulsive>
0.1566

> <Gold.PLP.ligand.clash>
0.0000

> <Gold.PLP.ligand.torsion>
0.9648

> <Gold.PLP.Chemscore.Hbond>
3.0000

> <Gold.PLP.Chemscore.CHOScore>
1.3953

> <Gold.PLP.Chemscore.Metal>
0.0000

> <Gold.Chemscore.Hbonds>
donor molecule, donor type, donor heavy atom, donor atom, acceptor molecule, acceptor atom, score
      P1  H  7989  7998       L1     8  1.00
      P1  H  7997  8009       L1     6  2.00
      L1  C     9    22       P1  7948  0.45
      L1  C     9    22       P1  7957  0.86

> <Gold.PLP.Chemscore.Internal.Correction>
0.0375

> <Gold.Rescore>
     Score         DG    S(hbond)    S(metal)    S(lipo)     H(rot)  DE(clash)    DE(int)     intcor
     17.32     -18.64       1.88        0.00      86.83       1.28       0.36       0.96       ----

> <Gold.Chemscore.Fitness>
17.3163

> <Gold.Chemscore.DG>
-18.6382

> <Gold.Chemscore.ZeroCoef>
-5.4800

> <Gold.Chemscore.Hbond>
1.8774

> <Gold.Chemscore.Metal>
0.0000

> <Gold.Chemscore.Lipo>
86.8271

> <Gold.Chemscore.Internal_Hbond>
0.0000

> <Gold.Chemscore.DEClash>
0.3648

> <Gold.Chemscore.DEInternal>
0.9570

> <Gold.Chemscore.Rot>
1.2778

> <Gold.Chemscore.Internal.Correction>
   9.000000E+99

> <Gold.Chemscore.Hbonds>
donor molecule, donor type, donor heavy atom, donor atom, acceptor molecule, acceptor atom, score
      P1  H  7989  7998       L1     8  0.90
      P1  H  7997  8009       L1     6  0.78

> <Gold.Chemscore.Hbond.Weighted>
-6.2705

> <Gold.Chemscore.Metal.Weighted>
-0.0000

> <Gold.Chemscore.Lipo.Weighted>
-10.1588

> <Gold.Chemscore.Internal_Hbond.Weighted>
0.0000

> <Gold.Chemscore.DEClash.Weighted>
0.3648

> <Gold.Chemscore.DEInternal.Weighted>
0.9570

> <Gold.Chemscore.Rot.Weighted>
3.2711

> <Gold.Chemscore.Internal.Correction.Weighted>
   9.000000E+99

> <Gold.Protein.RotatedTorsions>
[ 6907 6896 6895 6894 ] final  -55.27 input  -60.11 | X-H torsion
[ 7974 7965 7964 7962 ] final   61.31 input  175.53 | X-H torsion
[ 8008 7997 7996 7995 ] final -163.46 input   59.86 | X-H torsion
[ 10167 10162 10161 10158 ] final  175.75 input  -65.29 | X-H torsion
[ 10718 10713 10712 10709 ] final -157.74 input   66.30 | X-H torsion
[ 10763 10752 10751 10750 ] final   19.18 input  -60.55 | X-H torsion
[ 11005 11000 10999 10996 ] final  133.46 input  -57.11 | X-H torsion

> <Gold.Protein.ActiveResidues>
 VAL166  LYS551  ARG553  GLY616  TRP617  ASP618  TYR619  PRO620  LYS621  CYS622 
 ASP623  PHE694  ASN695  SER759  ASP760  ASP761  ALA762  ILE779  LEU786  VAL792 
 PHE793  MET794  SER795  GLU796  ALA797  LYS798  CYS799  TRP800  GLU811  SER814 

> <Gold.Protein.RotatedAtoms>
  150.8266  134.7499  159.6817 H   0  0  0  0  0  0  0  0  0  0  0  0  # atno 6907 bound_to 6896
  152.4376  134.5652  159.9915 H   0  0  0  0  0  0  0  0  0  0  0  0  # atno 6908 bound_to 6896
  151.5823  133.3338  159.3047 H   0  0  0  0  0  0  0  0  0  0  0  0  # atno 6909 bound_to 6896
  145.8862  139.3478  143.0676 H   0  0  0  0  0  0  0  0  0  0  0  0  # atno 7974 bound_to 7965
  155.8215  140.0920  157.1846 H   0  0  0  0  0  0  0  0  0  0  0  0  # atno 8008 bound_to 7997
  154.3979  140.1436  156.3566 H   0  0  0  0  0  0  0  0  0  0  0  0  # atno 8009 bound_to 7997
  155.8261  140.3444  155.5546 H   0  0  0  0  0  0  0  0  0  0  0  0  # atno 8010 bound_to 7997
  139.5188  144.2995  152.0391 H   0  0  0  0  0  0  0  0  0  0  0  0  # atno 10167 bound_to 10162
  156.5445  130.8578  151.2760 H   0  0  0  0  0  0  0  0  0  0  0  0  # atno 10718 bound_to 10713
  153.1184  135.6713  153.9377 H   0  0  0  0  0  0  0  0  0  0  0  0  # atno 10763 bound_to 10752
  153.8900  135.3048  155.3448 H   0  0  0  0  0  0  0  0  0  0  0  0  # atno 10764 bound_to 10752
  154.7598  135.4993  153.9522 H   0  0  0  0  0  0  0  0  0  0  0  0  # atno 10765 bound_to 10752
  139.9853  134.9534  156.9727 H   0  0  0  0  0  0  0  0  0  0  0  0  # atno 11005 bound_to 11000
  145.8964  140.9271  143.0525 LP  0  0  0  0  0  0  0  0  0  0  0  0  # atno 17320 bound_to 7965
  144.6728  140.0974  143.7462 LP  0  0  0  0  0  0  0  0  0  0  0  0  # atno 17321 bound_to 7965
  140.2444  144.4236  150.6247 LP  0  0  0  0  0  0  0  0  0  0  0  0  # atno 17342 bound_to 10162
  140.6268  143.2182  151.6579 LP  0  0  0  0  0  0  0  0  0  0  0  0  # atno 17343 bound_to 10162
  157.7399  130.9840  150.2344 LP  0  0  0  0  0  0  0  0  0  0  0  0  # atno 17370 bound_to 10713
  156.2941  130.3749  149.7813 LP  0  0  0  0  0  0  0  0  0  0  0  0  # atno 17371 bound_to 10713
  140.5015  134.1092  155.7251 LP  0  0  0  0  0  0  0  0  0  0  0  0  # atno 17394 bound_to 11000
  141.1519  133.8953  157.2076 LP  0  0  0  0  0  0  0  0  0  0  0  0  # atno 17395 bound_to 11000

$$$$
