AV-unprocessed.smi:139|AV-procd|sdf|1182|dock6
  -GOLD-   2262018333D 1   1.00000     0.00000
 Structure written by MMmdl.
 50 53  0  0  0  0  0  0  0  0  1 V2000
  151.0744  136.9435  158.1003 O   0  0  0  0  0  0  0  0  0  0  0  0
  150.6237  137.4722  159.1172 C   0  0  0  0  0  0  0  0  0  0  0  0
  149.4184  136.8618  159.8462 C   0  0  0  0  0  0  0  0  0  0  0  0
  149.3956  135.3859  159.7543 N   0  0  0  0  0  0  0  0  0  0  0  0
  149.2689  134.7748  158.4819 C   0  0  0  0  0  0  0  0  0  0  0  0
  149.1638  135.4482  157.4559 O   0  0  0  0  0  0  0  0  0  0  0  0
  149.2768  133.3161  158.4806 C   0  0  0  0  0  0  0  0  0  0  0  0
  149.1401  132.6507  157.3211 F   0  0  0  0  0  0  0  0  0  0  0  0
  149.4179  132.6212  159.6281 C   0  0  0  0  0  0  0  0  0  0  0  0
  149.5646  133.2318  160.8596 N   0  0  0  0  0  0  0  0  0  0  0  0
  149.7287  132.4142  162.1197 C   0  0  1  0  0  0  0  0  0  0  0  0
  148.7056  132.8517  163.1748 C   0  0  0  0  0  0  0  0  0  0  0  0
  147.6295  131.7966  163.0309 C   0  0  0  0  0  0  0  0  0  0  0  0
  148.4512  130.5696  162.6559 C   0  0  0  0  0  0  0  0  0  0  0  0
  149.4885  131.0695  161.8192 O   0  0  0  0  0  0  0  0  0  0  0  0
  149.5409  134.6399  160.9489 C   0  0  0  0  0  0  0  0  0  0  0  0
  149.6434  135.2054  162.0400 O   0  0  0  0  0  0  0  0  0  0  0  0
  151.1336  138.5902  159.6547 N   0  0  0  0  0  0  0  0  0  0  0  0
  152.3045  139.3126  159.1644 C   0  0  2  0  0  0  0  0  0  0  0  0
  153.5427  138.3934  159.1724 C   0  0  0  0  0  0  0  0  0  0  0  0
  154.1842  138.3084  160.5604 C   0  0  0  0  0  0  0  0  0  0  0  0
  154.6373  139.6909  161.0444 C   0  0  0  0  0  0  0  0  0  0  0  0
  153.5888  140.7756  160.8473 C   0  0  0  0  0  0  0  0  0  0  0  0
  153.7204  141.9842  161.5631 C   0  0  0  0  0  0  0  0  0  0  0  0
  152.7771  143.0162  161.4003 C   0  0  0  0  0  0  0  0  0  0  0  0
  151.6944  142.8451  160.5187 C   0  0  0  0  0  0  0  0  0  0  0  0
  151.5574  141.6432  159.7997 C   0  0  0  0  0  0  0  0  0  0  0  0
  152.5007  140.6037  159.9527 C   0  0  0  0  0  0  0  0  0  0  0  0
  149.4233  137.1722  160.8930 H   0  0  0  0  0  0  0  0  0  0  0  0
  148.5131  137.3135  159.4388 H   0  0  0  0  0  0  0  0  0  0  0  0
  149.4134  131.5430  159.5701 H   0  0  0  0  0  0  0  0  0  0  0  0
  150.7655  132.5307  162.4389 H   0  0  0  0  0  0  0  0  0  0  0  0
  149.1734  132.7899  164.1580 H   0  0  0  0  0  0  0  0  0  0  0  0
  148.3529  133.8714  163.0148 H   0  0  0  0  0  0  0  0  0  0  0  0
  147.0423  131.6561  163.9388 H   0  0  0  0  0  0  0  0  0  0  0  0
  146.9487  132.0586  162.2202 H   0  0  0  0  0  0  0  0  0  0  0  0
  148.8988  130.1248  163.5459 H   0  0  0  0  0  0  0  0  0  0  0  0
  147.8620  129.8045  162.1499 H   0  0  0  0  0  0  0  0  0  0  0  0
  150.6922  138.9581  160.4850 H   0  0  0  0  0  0  0  0  0  0  0  0
  152.1168  139.6082  158.1302 H   0  0  0  0  0  0  0  0  0  0  0  0
  153.2947  137.3992  158.7983 H   0  0  0  0  0  0  0  0  0  0  0  0
  154.2840  138.7956  158.4808 H   0  0  0  0  0  0  0  0  0  0  0  0
  153.4588  137.8953  161.2623 H   0  0  0  0  0  0  0  0  0  0  0  0
  155.0301  137.6206  160.5508 H   0  0  0  0  0  0  0  0  0  0  0  0
  154.9176  139.6387  162.0972 H   0  0  0  0  0  0  0  0  0  0  0  0
  155.5318  139.9920  160.4979 H   0  0  0  0  0  0  0  0  0  0  0  0
  154.5502  142.1239  162.2406 H   0  0  0  0  0  0  0  0  0  0  0  0
  152.8851  143.9386  161.9515 H   0  0  0  0  0  0  0  0  0  0  0  0
  150.9689  143.6352  160.3936 H   0  0  0  0  0  0  0  0  0  0  0  0
  150.7220  141.5181  159.1261 H   0  0  0  0  0  0  0  0  0  0  0  0
  1  2  2  0  0  0  0
  2  3  1  0  0  0  0
  2 18  1  0  0  0  0
  3  4  1  0  0  0  0
  3 29  1  0  0  0  0
  3 30  1  0  0  0  0
  4 16  1  0  0  0  0
  4  5  1  0  0  0  0
  5  6  2  0  0  0  0
  5  7  1  0  0  0  0
  7  8  1  0  0  0  0
  7  9  2  0  0  0  0
  9 10  1  0  0  0  0
  9 31  1  0  0  0  0
 10 11  1  0  0  0  0
 10 16  1  0  0  0  0
 11 15  1  0  0  0  0
 11 12  1  0  0  0  0
 11 32  1  0  0  0  0
 12 13  1  0  0  0  0
 12 33  1  0  0  0  0
 12 34  1  0  0  0  0
 13 14  1  0  0  0  0
 13 35  1  0  0  0  0
 13 36  1  0  0  0  0
 14 15  1  0  0  0  0
 14 37  1  0  0  0  0
 14 38  1  0  0  0  0
 16 17  2  0  0  0  0
 18 19  1  0  0  0  0
 18 39  1  0  0  0  0
 19 28  1  0  0  0  0
 19 20  1  0  0  0  0
 19 40  1  0  0  0  0
 20 21  1  0  0  0  0
 20 41  1  0  0  0  0
 20 42  1  0  0  0  0
 21 22  1  0  0  0  0
 21 43  1  0  0  0  0
 21 44  1  0  0  0  0
 22 23  1  0  0  0  0
 22 45  1  0  0  0  0
 22 46  1  0  0  0  0
 23 28  2  0  0  0  0
 23 24  1  0  0  0  0
 24 25  2  0  0  0  0
 24 47  1  0  0  0  0
 25 26  1  0  0  0  0
 25 48  1  0  0  0  0
 26 27  2  0  0  0  0
 26 49  1  0  0  0  0
 27 28  1  0  0  0  0
 27 50  1  0  0  0  0
M  END
> <s_m_source_file>
AV-unprocessed.smi

> <i_m_source_file_index>
139

> <i_lp_mmshare_version>
43012

> <i_f3d_flags>
0

> <s_epik_input>
W2NIXTFbY0hdW2NIXVtjSF1jKGMxMilbQ0BASF0oW0NIMl1bQ0gyXVtDSDJdMilbTkhdQyg9TylbQ0gyXW4zYyg9TyljKEYpW2NIXW4oYzM9TylbQ0BASF00W0NIMl1bQ0gyXVtDSDJdTzQ=

> <s_epik_cmdline>
J2VwaWtfcHl0aG9uJywgJy1waCcsICc3LjAnLCAnLXRuJywgJzgnLCAnLW1hJywgJzIwMCcsICctbWV0YWxfYmluZGluZycsICctaW1hZScsICc8aW5maWxlLm1hZT4nLCAnLW9tYWUnLCAnPG91dGZpbGUubWFlPic=

> <r_lp_tautomer_probability>
1

> <r_epik_Ionization_Penalty>
3.261e-08

> <r_epik_Ionization_Penalty_Charging>
3.6725e-09

> <r_epik_Ionization_Penalty_Neutral>
2.89375e-08

> <r_epik_State_Penalty>
-0

> <r_epik_Charging_Adjusted_Penalty>
3.6725e-09

> <i_epik_Tot_Q>
0

> <i_epik_Tot_abs_Q>
0

> <r_epik_Metal_State_Penalty>
-0

> <b_epik_Metal_Only>
0

> <s_epik_Chemistry_Notes>
This compound contains an acetal/aminal-like group ( X-CH(R)-Y where X, Y are N, S, or O) that may be acid/base labile, releasing an aldehyde.

> <s_lp_Force_Field>
OPLS_2005

> <r_lp_Energy>
30.9445

> <b_lp_Chiralities_Consistent>
1

> <s_lp_Variant>
AV-unprocessed.smi:139-2

> <Gold.Version>
5.8.1

> <Gold.Id.Protein>
6NUR|6NUR_protein|mol2

> <Gold.PLP.Fitness>
52.5184

> <Gold.PLP.PLP>
-48.5353

> <Gold.PLP.part.hbond>
-2.0000

> <Gold.PLP.part.metal>
0.0000

> <Gold.PLP.part.buried>
-6.0462

> <Gold.PLP.part.nonpolar>
-41.6001

> <Gold.PLP.part.repulsive>
0.1603

> <Gold.PLP.ligand.clash>
0.0000

> <Gold.PLP.ligand.torsion>
0.5470

> <Gold.PLP.Chemscore.Hbond>
1.6800

> <Gold.PLP.Chemscore.CHOScore>
0.0000

> <Gold.PLP.Chemscore.Metal>
0.0000

> <Gold.PLP.Chemscore.Internal.Correction>
0.0371

> <Gold.Rescore>
     Score         DG    S(hbond)    S(metal)    S(lipo)     H(rot)  DE(clash)    DE(int)     intcor
     15.43     -18.54       1.33        0.00     113.33       1.82       0.10       3.01       ----

> <Gold.Chemscore.Fitness>
15.4285

> <Gold.Chemscore.DG>
-18.5358

> <Gold.Chemscore.ZeroCoef>
-5.4800

> <Gold.Chemscore.Hbond>
1.3320

> <Gold.Chemscore.Metal>
0.0000

> <Gold.Chemscore.Lipo>
113.3272

> <Gold.Chemscore.Internal_Hbond>
0.0000

> <Gold.Chemscore.DEClash>
0.0962

> <Gold.Chemscore.DEInternal>
3.0111

> <Gold.Chemscore.Rot>
1.8174

> <Gold.Chemscore.Internal.Correction>
   9.000000E+99

> <Gold.Chemscore.Hbond.Weighted>
-4.4489

> <Gold.Chemscore.Metal.Weighted>
-0.0000

> <Gold.Chemscore.Lipo.Weighted>
-13.2593

> <Gold.Chemscore.Internal_Hbond.Weighted>
0.0000

> <Gold.Chemscore.DEClash.Weighted>
0.0962

> <Gold.Chemscore.DEInternal.Weighted>
3.0111

> <Gold.Chemscore.Rot.Weighted>
4.6524

> <Gold.Chemscore.Internal.Correction.Weighted>
   9.000000E+99

> <Gold.Protein.RotatedTorsions>
[ 6907 6896 6895 6894 ] final   76.20 input  -60.11 | X-H torsion
[ 7974 7965 7964 7962 ] final  126.60 input  175.53 | X-H torsion
[ 8008 7997 7996 7995 ] final -145.03 input   59.86 | X-H torsion
[ 10167 10162 10161 10158 ] final  -61.02 input  -65.29 | X-H torsion
[ 10718 10713 10712 10709 ] final   35.12 input   66.30 | X-H torsion
[ 10763 10752 10751 10750 ] final  -94.42 input  -60.55 | X-H torsion
[ 11005 11000 10999 10996 ] final  -23.16 input  -57.11 | X-H torsion

> <Gold.Protein.ActiveResidues>
 VAL166  LYS551  ARG553  GLY616  TRP617  ASP618  TYR619  PRO620  LYS621  CYS622 
 ASP623  PHE694  ASN695  SER759  ASP760  ASP761  ALA762  ILE779  LEU786  VAL792 
 PHE793  MET794  SER795  GLU796  ALA797  LYS798  CYS799  TRP800  GLU811  SER814 

> <Gold.Protein.RotatedAtoms>
  152.5062  134.4005  159.9414 H   0  0  0  0  0  0  0  0  0  0  0  0  # atno 6907 bound_to 6896
  151.3969  133.3764  159.2735 H   0  0  0  0  0  0  0  0  0  0  0  0  # atno 6908 bound_to 6896
  150.9391  134.8822  159.7659 H   0  0  0  0  0  0  0  0  0  0  0  0  # atno 6909 bound_to 6896
  145.0599  139.3814  143.5011 H   0  0  0  0  0  0  0  0  0  0  0  0  # atno 7974 bound_to 7965
  155.5366  140.0604  157.2878 H   0  0  0  0  0  0  0  0  0  0  0  0  # atno 8008 bound_to 7997
  154.4466  140.1926  156.0593 H   0  0  0  0  0  0  0  0  0  0  0  0  # atno 8009 bound_to 7997
  156.0614  140.3272  155.7470 H   0  0  0  0  0  0  0  0  0  0  0  0  # atno 8010 bound_to 7997
  140.6033  143.2367  151.5879 H   0  0  0  0  0  0  0  0  0  0  0  0  # atno 10167 bound_to 10162
  157.3187  130.7437  149.6771 H   0  0  0  0  0  0  0  0  0  0  0  0  # atno 10718 bound_to 10713
  154.7053  135.5158  153.8586 H   0  0  0  0  0  0  0  0  0  0  0  0  # atno 10763 bound_to 10752
  153.0736  135.6609  154.0203 H   0  0  0  0  0  0  0  0  0  0  0  0  # atno 10764 bound_to 10752
  154.0054  135.3007  155.3378 H   0  0  0  0  0  0  0  0  0  0  0  0  # atno 10765 bound_to 10752
  140.8725  133.7710  156.0204 H   0  0  0  0  0  0  0  0  0  0  0  0  # atno 11005 bound_to 11000
  146.3523  140.0292  142.8652 LP  0  0  0  0  0  0  0  0  0  0  0  0  # atno 17320 bound_to 7965
  145.1422  140.9577  143.4482 LP  0  0  0  0  0  0  0  0  0  0  0  0  # atno 17321 bound_to 7965
  139.5306  144.2926  152.1139 LP  0  0  0  0  0  0  0  0  0  0  0  0  # atno 17342 bound_to 10162
  140.2111  144.4562  150.6385 LP  0  0  0  0  0  0  0  0  0  0  0  0  # atno 17343 bound_to 10162
  155.9684  130.4229  150.4539 LP  0  0  0  0  0  0  0  0  0  0  0  0  # atno 17370 bound_to 10713
  157.2551  131.0555  151.2355 LP  0  0  0  0  0  0  0  0  0  0  0  0  # atno 17371 bound_to 10713
  140.8556  134.2902  157.5256 LP  0  0  0  0  0  0  0  0  0  0  0  0  # atno 17394 bound_to 11000
  139.8713  134.9491  156.4016 LP  0  0  0  0  0  0  0  0  0  0  0  0  # atno 17395 bound_to 11000

$$$$
