AV-unprocessed.smi:418|AV-procd|sdf|2528|dock10
  -GOLD-   2262022483D 1   1.00000     0.00000
 Structure written by MMmdl.
 40 42  0  0  0  0  0  0  0  0  1 V2000
  153.7782  140.8887  160.4411 C   0  0  0  0  0  0  0  0  0  0  0  0
  152.8865  141.5510  159.4968 N   0  0  0  0  0  0  0  0  0  0  0  0
  152.4670  141.0770  158.3003 C   0  0  0  0  0  0  0  0  0  0  0  0
  152.7736  139.9945  157.8011 O   0  0  0  0  0  0  0  0  0  0  0  0
  151.6540  142.0062  157.7433 N   0  0  0  0  0  0  0  0  0  0  0  0
  150.9804  141.9082  156.4500 C   0  0  0  0  0  0  0  0  0  0  0  0
  150.4542  140.4825  156.1872 C   0  0  2  0  0  0  0  0  0  0  0  0
  150.5949  140.1956  154.8104 O   0  0  0  0  0  0  0  0  0  0  0  0
  148.9637  140.3437  156.5321 C   0  0  0  0  0  0  0  0  0  0  0  0
  148.2097  141.1393  155.6270 O   0  0  0  0  0  0  0  0  0  0  0  0
  147.1040  141.8087  156.1062 C   0  0  0  0  0  0  0  0  0  0  0  0
  146.7848  141.9341  157.4825 C   0  0  0  0  0  0  0  0  0  0  0  0
  145.6300  142.6323  157.8862 C   0  0  0  0  0  0  0  0  0  0  0  0
  144.7831  143.2136  156.9248 C   0  0  0  0  0  0  0  0  0  0  0  0
  145.0933  143.0974  155.5575 C   0  0  0  0  0  0  0  0  0  0  0  0
  146.2477  142.3994  155.1524 C   0  0  0  0  0  0  0  0  0  0  0  0
  146.5343  142.2942  153.8326 F   0  0  0  0  0  0  0  0  0  0  0  0
  151.5574  143.1083  158.6049 C   0  0  0  0  0  0  0  0  0  0  0  0
  150.8564  144.3211  158.4852 C   0  0  0  0  0  0  0  0  0  0  0  0
  150.9727  145.2428  159.5521 C   0  0  0  0  0  0  0  0  0  0  0  0
  151.7669  144.9428  160.6894 C   0  0  0  0  0  0  0  0  0  0  0  0
  152.4640  143.7153  160.7833 C   0  0  0  0  0  0  0  0  0  0  0  0
  152.3320  142.8195  159.7087 C   0  0  0  0  0  0  0  0  0  0  0  0
  154.1161  139.9180  160.0758 H   0  0  0  0  0  0  0  0  0  0  0  0
  153.2691  140.7325  161.3924 H   0  0  0  0  0  0  0  0  0  0  0  0
  154.6595  141.5045  160.6221 H   0  0  0  0  0  0  0  0  0  0  0  0
  150.1464  142.6119  156.4615 H   0  0  0  0  0  0  0  0  0  0  0  0
  151.6302  142.2450  155.6412 H   0  0  0  0  0  0  0  0  0  0  0  0
  151.0201  139.7445  156.7575 H   0  0  0  0  0  0  0  0  0  0  0  0
  149.7329  140.0953  154.4362 H   0  0  0  0  0  0  0  0  0  0  0  0
  148.6633  139.2959  156.4741 H   0  0  0  0  0  0  0  0  0  0  0  0
  148.7854  140.6927  157.5510 H   0  0  0  0  0  0  0  0  0  0  0  0
  147.4105  141.5038  158.2494 H   0  0  0  0  0  0  0  0  0  0  0  0
  145.3942  142.7212  158.9364 H   0  0  0  0  0  0  0  0  0  0  0  0
  143.8975  143.7481  157.2354 H   0  0  0  0  0  0  0  0  0  0  0  0
  144.4449  143.5427  154.8174 H   0  0  0  0  0  0  0  0  0  0  0  0
  150.2543  144.5462  157.6174 H   0  0  0  0  0  0  0  0  0  0  0  0
  150.4505  146.1868  159.5001 H   0  0  0  0  0  0  0  0  0  0  0  0
  151.8410  145.6607  161.4929 H   0  0  0  0  0  0  0  0  0  0  0  0
  153.0718  143.4798  161.6445 H   0  0  0  0  0  0  0  0  0  0  0  0
  1  2  1  0  0  0  0
  1 24  1  0  0  0  0
  1 25  1  0  0  0  0
  1 26  1  0  0  0  0
  2 23  1  0  0  0  0
  2  3  1  0  0  0  0
  3  4  2  0  0  0  0
  3  5  1  0  0  0  0
  5  6  1  0  0  0  0
  5 18  1  0  0  0  0
  6  7  1  0  0  0  0
  6 27  1  0  0  0  0
  6 28  1  0  0  0  0
  7  8  1  0  0  0  0
  7  9  1  0  0  0  0
  7 29  1  0  0  0  0
  8 30  1  0  0  0  0
  9 10  1  0  0  0  0
  9 31  1  0  0  0  0
  9 32  1  0  0  0  0
 10 11  1  0  0  0  0
 11 16  1  0  0  0  0
 11 12  2  0  0  0  0
 12 13  1  0  0  0  0
 12 33  1  0  0  0  0
 13 14  2  0  0  0  0
 13 34  1  0  0  0  0
 14 15  1  0  0  0  0
 14 35  1  0  0  0  0
 15 16  2  0  0  0  0
 15 36  1  0  0  0  0
 16 17  1  0  0  0  0
 18 23  2  0  0  0  0
 18 19  1  0  0  0  0
 19 20  2  0  0  0  0
 19 37  1  0  0  0  0
 20 21  1  0  0  0  0
 20 38  1  0  0  0  0
 21 22  2  0  0  0  0
 21 39  1  0  0  0  0
 22 23  1  0  0  0  0
 22 40  1  0  0  0  0
M  END
> <s_m_source_file>
AV-unprocessed.smi

> <i_m_source_file_index>
418

> <i_lp_mmshare_version>
43012

> <i_f3d_flags>
0

> <s_epik_input>
W2NIXTFbY0hdW2NIXVtjSF1jKGMxMiluKFtDSDNdKWMoPU8pbjJbQ0gyXVtDQEhdKFtPSF0pW0NIMl1PYzNbY0hdW2NIXVtjSF1bY0hdYzNG

> <s_epik_cmdline>
J2VwaWtfcHl0aG9uJywgJy1waCcsICc3LjAnLCAnLXRuJywgJzgnLCAnLW1hJywgJzIwMCcsICctbWV0YWxfYmluZGluZycsICctaW1hZScsICc8aW5maWxlLm1hZT4nLCAnLW9tYWUnLCAnPG91dGZpbGUubWFlPic=

> <r_lp_tautomer_probability>
1

> <r_epik_Ionization_Penalty>
2.40171e-06

> <r_epik_Ionization_Penalty_Charging>
2.41238e-09

> <r_epik_Ionization_Penalty_Neutral>
2.3993e-06

> <r_epik_State_Penalty>
-0

> <r_epik_Charging_Adjusted_Penalty>
2.41238e-09

> <i_epik_Tot_Q>
0

> <i_epik_Tot_abs_Q>
0

> <r_epik_Metal_State_Penalty>
-0

> <b_epik_Metal_Only>
0

> <s_lp_Force_Field>
OPLS_2005

> <r_lp_Energy>
46.4637

> <b_lp_Chiralities_Consistent>
1

> <s_lp_Variant>
AV-unprocessed.smi:418-1

> <Gold.Version>
5.8.1

> <Gold.Id.Protein>
6NUR|6NUR_protein|mol2

> <Gold.PLP.Fitness>
52.5557

> <Gold.PLP.PLP>
-48.9251

> <Gold.PLP.part.hbond>
-2.0000

> <Gold.PLP.part.metal>
0.0000

> <Gold.PLP.part.buried>
-8.4266

> <Gold.PLP.part.nonpolar>
-38.5988

> <Gold.PLP.part.repulsive>
0.0861

> <Gold.PLP.ligand.clash>
0.0000

> <Gold.PLP.ligand.torsion>
1.1939

> <Gold.PLP.Chemscore.Hbond>
2.0000

> <Gold.PLP.Chemscore.CHOScore>
0.0000

> <Gold.PLP.Chemscore.Metal>
0.0000

> <Gold.Chemscore.Hbonds>
donor molecule, donor type, donor heavy atom, donor atom, acceptor molecule, acceptor atom, score
      P1  H  7989  7998       L1     8  1.00
      P1  H  7997  8010       L1     4  1.00

> <Gold.PLP.Chemscore.Internal.Correction>
0.0184

> <Gold.Rescore>
     Score         DG    S(hbond)    S(metal)    S(lipo)     H(rot)  DE(clash)    DE(int)     intcor
     15.80     -18.25       1.85        0.00     106.10       2.27       0.12       2.33       ----

> <Gold.Chemscore.Fitness>
15.7978

> <Gold.Chemscore.DG>
-18.2550

> <Gold.Chemscore.ZeroCoef>
-5.4800

> <Gold.Chemscore.Hbond>
1.8486

> <Gold.Chemscore.Metal>
0.0000

> <Gold.Chemscore.Lipo>
106.0989

> <Gold.Chemscore.Internal_Hbond>
0.0000

> <Gold.Chemscore.DEClash>
0.1226

> <Gold.Chemscore.DEInternal>
2.3346

> <Gold.Chemscore.Rot>
2.2706

> <Gold.Chemscore.Internal.Correction>
   9.000000E+99

> <Gold.Chemscore.Hbonds>
donor molecule, donor type, donor heavy atom, donor atom, acceptor molecule, acceptor atom, score
      P1  H  7989  7998       L1     8  0.55
      P1  H  7997  8010       L1     4  0.80

> <Gold.Chemscore.Hbond.Weighted>
-6.1742

> <Gold.Chemscore.Metal.Weighted>
-0.0000

> <Gold.Chemscore.Lipo.Weighted>
-12.4136

> <Gold.Chemscore.Internal_Hbond.Weighted>
0.0000

> <Gold.Chemscore.DEClash.Weighted>
0.1226

> <Gold.Chemscore.DEInternal.Weighted>
2.3346

> <Gold.Chemscore.Rot.Weighted>
5.8128

> <Gold.Chemscore.Internal.Correction.Weighted>
   9.000000E+99

> <Gold.Protein.RotatedTorsions>
[ 6907 6896 6895 6894 ] final   86.12 input  -60.11 | X-H torsion
[ 7974 7965 7964 7962 ] final   78.45 input  175.53 | X-H torsion
[ 8008 7997 7996 7995 ] final   49.92 input   59.86 | X-H torsion
[ 10167 10162 10161 10158 ] final  122.42 input  -65.29 | X-H torsion
[ 10718 10713 10712 10709 ] final   36.79 input   66.30 | X-H torsion
[ 10763 10752 10751 10750 ] final   12.34 input  -60.55 | X-H torsion
[ 11005 11000 10999 10996 ] final -167.29 input  -57.11 | X-H torsion

> <Gold.Protein.ActiveResidues>
 VAL166  LYS551  ARG553  GLY616  TRP617  ASP618  TYR619  PRO620  LYS621  CYS622 
 ASP623  PHE694  ASN695  SER759  ASP760  ASP761  ALA762  ILE779  LEU786  VAL792 
 PHE793  MET794  SER795  GLU796  ALA797  LYS798  CYS799  TRP800  GLU811  SER814 

> <Gold.Protein.RotatedAtoms>
  152.5388  134.2481  159.8887 H   0  0  0  0  0  0  0  0  0  0  0  0  # atno 6907 bound_to 6896
  151.2445  133.4375  159.2616 H   0  0  0  0  0  0  0  0  0  0  0  0  # atno 6908 bound_to 6896
  151.0596  134.9741  159.8309 H   0  0  0  0  0  0  0  0  0  0  0  0  # atno 6909 bound_to 6896
  145.6770  139.2512  143.1836 H   0  0  0  0  0  0  0  0  0  0  0  0  # atno 7974 bound_to 7965
  155.4102  140.3442  155.4263 H   0  0  0  0  0  0  0  0  0  0  0  0  # atno 8008 bound_to 7997
  156.1453  140.1554  156.8888 H   0  0  0  0  0  0  0  0  0  0  0  0  # atno 8009 bound_to 7997
  154.5005  140.0816  156.7769 H   0  0  0  0  0  0  0  0  0  0  0  0  # atno 8010 bound_to 7997
  139.5860  144.7006  151.3409 H   0  0  0  0  0  0  0  0  0  0  0  0  # atno 10167 bound_to 10162
  157.3391  130.7538  149.6899 H   0  0  0  0  0  0  0  0  0  0  0  0  # atno 10718 bound_to 10713
  153.1833  135.6831  153.8449 H   0  0  0  0  0  0  0  0  0  0  0  0  # atno 10763 bound_to 10752
  153.7774  135.3187  155.3362 H   0  0  0  0  0  0  0  0  0  0  0  0  # atno 10764 bound_to 10752
  154.8073  135.4740  154.0520 H   0  0  0  0  0  0  0  0  0  0  0  0  # atno 10765 bound_to 10752
  140.5549  134.5391  157.5131 H   0  0  0  0  0  0  0  0  0  0  0  0  # atno 11005 bound_to 11000
  146.0997  140.7558  142.9555 LP  0  0  0  0  0  0  0  0  0  0  0  0  # atno 17320 bound_to 7965
  144.7038  140.3768  143.7134 LP  0  0  0  0  0  0  0  0  0  0  0  0  # atno 17321 bound_to 7965
  140.7131  143.7337  150.7604 LP  0  0  0  0  0  0  0  0  0  0  0  0  # atno 17342 bound_to 10162
  140.0882  143.4903  152.2493 LP  0  0  0  0  0  0  0  0  0  0  0  0  # atno 17343 bound_to 10162
  155.9705  130.4173  150.4272 LP  0  0  0  0  0  0  0  0  0  0  0  0  # atno 17370 bound_to 10713
  157.2317  131.0505  151.2488 LP  0  0  0  0  0  0  0  0  0  0  0  0  # atno 17371 bound_to 10713
  139.9436  134.7742  156.0616 LP  0  0  0  0  0  0  0  0  0  0  0  0  # atno 17394 bound_to 11000
  141.1149  133.6631  156.3070 LP  0  0  0  0  0  0  0  0  0  0  0  0  # atno 17395 bound_to 11000

$$$$
