AV-unprocessed.smi:2924|AV-procd|sdf|11219|dock7
  -GOLD-   2272016113D 1   1.00000     0.00000
 Structure written by MMmdl.
 29 31  0  0  0  0  0  0  0  0  1 V2000
  154.2674  140.3936  159.1952 N   0  0  0  0  0  0  0  0  0  0  0  0
  153.4754  141.2304  159.0903 C   0  0  0  0  0  0  0  0  0  0  0  0
  152.4766  142.2841  158.9574 C   0  0  0  0  0  0  0  0  0  0  0  0
  152.6859  143.5120  159.6198 C   0  0  0  0  0  0  0  0  0  0  0  0
  151.7225  144.5301  159.4985 C   0  0  0  0  0  0  0  0  0  0  0  0
  150.5824  144.2775  158.7143 C   0  0  0  0  0  0  0  0  0  0  0  0
  150.3707  143.1086  158.0746 N   0  0  0  0  0  0  0  0  0  0  0  0
  151.2930  142.1218  158.1884 C   0  0  0  0  0  0  0  0  0  0  0  0
  151.0462  140.9153  157.5083 N   0  0  0  0  0  0  0  0  0  0  0  0
  151.2110  140.8123  156.0614 C   0  0  1  0  0  0  0  0  0  0  0  0
  152.1494  139.6764  155.6472 C   0  0  0  0  0  0  0  0  0  0  0  0
  151.2800  138.8957  154.6513 C   0  0  1  0  0  0  0  0  0  0  0  0
  150.1961  138.0803  155.3679 C   0  0  0  0  0  0  0  0  0  0  0  0
  149.2302  139.1752  155.8161 C   0  0  0  0  0  0  0  0  0  0  0  0
  149.9239  140.4454  155.2947 C   0  0  2  0  0  0  0  0  0  0  0  0
  150.4955  139.9400  154.0996 O   0  0  0  0  0  0  0  0  0  0  0  0
  153.5719  143.6771  160.2160 H   0  0  0  0  0  0  0  0  0  0  0  0
  151.8540  145.4805  159.9943 H   0  0  0  0  0  0  0  0  0  0  0  0
  149.8202  145.0336  158.5969 H   0  0  0  0  0  0  0  0  0  0  0  0
  150.4953  140.2057  157.9699 H   0  0  0  0  0  0  0  0  0  0  0  0
  151.6122  141.7501  155.6741 H   0  0  0  0  0  0  0  0  0  0  0  0
  153.0359  140.0801  155.1575 H   0  0  0  0  0  0  0  0  0  0  0  0
  152.4789  139.0507  156.4779 H   0  0  0  0  0  0  0  0  0  0  0  0
  151.8505  138.3247  153.9184 H   0  0  0  0  0  0  0  0  0  0  0  0
  149.7033  137.3954  154.6768 H   0  0  0  0  0  0  0  0  0  0  0  0
  150.5945  137.4993  156.2004 H   0  0  0  0  0  0  0  0  0  0  0  0
  148.2610  139.0439  155.3335 H   0  0  0  0  0  0  0  0  0  0  0  0
  149.0683  139.1863  156.8942 H   0  0  0  0  0  0  0  0  0  0  0  0
  149.2451  141.2847  155.1401 H   0  0  0  0  0  0  0  0  0  0  0  0
  1  2  3  0  0  0  0
  2  3  1  0  0  0  0
  3  8  1  0  0  0  0
  3  4  2  0  0  0  0
  4  5  1  0  0  0  0
  4 17  1  0  0  0  0
  5  6  2  0  0  0  0
  5 18  1  0  0  0  0
  6  7  1  0  0  0  0
  6 19  1  0  0  0  0
  7  8  2  0  0  0  0
  8  9  1  0  0  0  0
  9 10  1  0  0  0  0
  9 20  1  0  0  0  0
 10 15  1  0  0  0  0
 10 11  1  0  0  0  0
 10 21  1  0  0  0  0
 11 12  1  0  0  0  0
 11 22  1  0  0  0  0
 11 23  1  0  0  0  0
 12 16  1  0  0  0  0
 12 13  1  0  0  0  0
 12 24  1  0  0  0  0
 13 14  1  0  0  0  0
 13 25  1  0  0  0  0
 13 26  1  0  0  0  0
 14 15  1  0  0  0  0
 14 27  1  0  0  0  0
 14 28  1  0  0  0  0
 15 16  1  0  0  0  0
 15 29  1  0  0  0  0
M  END
> <s_m_source_file>
AV-unprocessed.smi

> <i_m_source_file_index>
2924

> <i_lp_mmshare_version>
43012

> <i_f3d_flags>
0

> <s_epik_input>
TiNDYzFbY0hdW2NIXVtjSF1uYzFbTkhdW0NASF0oW0NIMl1bQ0BASF0yMylbQ0BASF0oTzMpW0NIMl1bQ0gyXTI=

> <s_epik_cmdline>
J2VwaWtfcHl0aG9uJywgJy1waCcsICc3LjAnLCAnLXRuJywgJzgnLCAnLW1hJywgJzIwMCcsICctbWV0YWxfYmluZGluZycsICctaW1hZScsICc8aW5maWxlLm1hZT4nLCAnLW9tYWUnLCAnPG91dGZpbGUubWFlPic=

> <r_lp_tautomer_probability>
1

> <r_epik_Ionization_Penalty>
2.11559e-05

> <r_epik_Ionization_Penalty_Charging>
0

> <r_epik_Ionization_Penalty_Neutral>
2.11559e-05

> <r_epik_State_Penalty>
-0

> <r_epik_Charging_Adjusted_Penalty>
0

> <i_epik_Tot_Q>
0

> <i_epik_Tot_abs_Q>
0

> <r_epik_Metal_State_Penalty>
-0

> <b_epik_Metal_Only>
0

> <s_lp_Force_Field>
OPLS_2005

> <r_lp_Energy>
42.6424

> <b_lp_Chiralities_Consistent>
1

> <s_lp_Variant>
AV-unprocessed.smi:2924-2

> <Gold.Version>
5.8.1

> <Gold.Id.Protein>
6NUR|6NUR_protein|mol2

> <Gold.PLP.Fitness>
38.6230

> <Gold.PLP.PLP>
-31.8568

> <Gold.PLP.part.hbond>
-1.9683

> <Gold.PLP.part.metal>
0.0000

> <Gold.PLP.part.buried>
-3.1851

> <Gold.PLP.part.nonpolar>
-26.2597

> <Gold.PLP.part.repulsive>
0.7005

> <Gold.PLP.ligand.clash>
0.0000

> <Gold.PLP.ligand.torsion>
0.7169

> <Gold.PLP.Chemscore.Hbond>
1.7301

> <Gold.PLP.Chemscore.CHOScore>
1.0000

> <Gold.PLP.Chemscore.Metal>
0.0000

> <Gold.Chemscore.Hbonds>
donor molecule, donor type, donor heavy atom, donor atom, acceptor molecule, acceptor atom, score
      P1  H  7989  7998       L1    16  1.00
      P1  H  7997  8008       L1     1  0.78
      L1  C     6    19       P1  8029  1.00

> <Gold.PLP.Chemscore.Internal.Correction>
0.0098

> <Gold.Rescore>
     Score         DG    S(hbond)    S(metal)    S(lipo)     H(rot)  DE(clash)    DE(int)     intcor
     15.40     -16.25       1.25        0.00      78.40       1.00       0.11       0.74       ----

> <Gold.Chemscore.Fitness>
15.4012

> <Gold.Chemscore.DG>
-16.2517

> <Gold.Chemscore.ZeroCoef>
-5.4800

> <Gold.Chemscore.Hbond>
1.2453

> <Gold.Chemscore.Metal>
0.0000

> <Gold.Chemscore.Lipo>
78.3951

> <Gold.Chemscore.Internal_Hbond>
0.0000

> <Gold.Chemscore.DEClash>
0.1057

> <Gold.Chemscore.DEInternal>
0.7448

> <Gold.Chemscore.Rot>
1.0000

> <Gold.Chemscore.Internal.Correction>
   9.000000E+99

> <Gold.Chemscore.Hbonds>
donor molecule, donor type, donor heavy atom, donor atom, acceptor molecule, acceptor atom, score
      P1  H  7989  7998       L1    16  0.26
      P1  H  7997  8008       L1     1  0.44

> <Gold.Chemscore.Hbond.Weighted>
-4.1594

> <Gold.Chemscore.Metal.Weighted>
-0.0000

> <Gold.Chemscore.Lipo.Weighted>
-9.1722

> <Gold.Chemscore.Internal_Hbond.Weighted>
0.0000

> <Gold.Chemscore.DEClash.Weighted>
0.1057

> <Gold.Chemscore.DEInternal.Weighted>
0.7448

> <Gold.Chemscore.Rot.Weighted>
2.5600

> <Gold.Chemscore.Internal.Correction.Weighted>
   9.000000E+99

> <Gold.Protein.RotatedTorsions>
[ 6907 6896 6895 6894 ] final  -51.48 input  -60.11 | X-H torsion
[ 7974 7965 7964 7962 ] final -138.52 input  175.53 | X-H torsion
[ 8008 7997 7996 7995 ] final -116.40 input   59.86 | X-H torsion
[ 10167 10162 10161 10158 ] final   65.07 input  -65.29 | X-H torsion
[ 10718 10713 10712 10709 ] final  113.06 input   66.30 | X-H torsion
[ 10763 10752 10751 10750 ] final -151.13 input  -60.55 | X-H torsion
[ 11005 11000 10999 10996 ] final   32.02 input  -57.11 | X-H torsion

> <Gold.Protein.ActiveResidues>
 VAL166  LYS551  ARG553  GLY616  TRP617  ASP618  TYR619  PRO620  LYS621  CYS622 
 ASP623  PHE694  ASN695  SER759  ASP760  ASP761  ALA762  ILE779  LEU786  VAL792 
 PHE793  MET794  SER795  GLU796  ALA797  LYS798  CYS799  TRP800  GLU811  SER814 

> <Gold.Protein.RotatedAtoms>
  150.8607  134.7958  159.7080 H   0  0  0  0  0  0  0  0  0  0  0  0  # atno 6907 bound_to 6896
  152.4645  134.5104  159.9762 H   0  0  0  0  0  0  0  0  0  0  0  0  # atno 6908 bound_to 6896
  151.5208  133.3428  159.2936 H   0  0  0  0  0  0  0  0  0  0  0  0  # atno 6909 bound_to 6896
  144.8751  140.6425  143.5242 H   0  0  0  0  0  0  0  0  0  0  0  0  # atno 7974 bound_to 7965
  155.0672  140.0393  157.2596 H   0  0  0  0  0  0  0  0  0  0  0  0  # atno 8008 bound_to 7997
  154.7012  140.2673  155.6694 H   0  0  0  0  0  0  0  0  0  0  0  0  # atno 8009 bound_to 7997
  156.2760  140.2740  156.1622 H   0  0  0  0  0  0  0  0  0  0  0  0  # atno 8010 bound_to 7997
  140.1152  144.4781  150.6953 H   0  0  0  0  0  0  0  0  0  0  0  0  # atno 10167 bound_to 10162
  157.6359  131.0978  150.6986 H   0  0  0  0  0  0  0  0  0  0  0  0  # atno 10718 bound_to 10713
  154.8077  135.3267  154.7389 H   0  0  0  0  0  0  0  0  0  0  0  0  # atno 10763 bound_to 10752
  153.8044  135.6901  153.4855 H   0  0  0  0  0  0  0  0  0  0  0  0  # atno 10764 bound_to 10752
  153.1833  135.4578  155.0001 H   0  0  0  0  0  0  0  0  0  0  0  0  # atno 10765 bound_to 10752
  140.2778  134.3008  155.7809 H   0  0  0  0  0  0  0  0  0  0  0  0  # atno 11005 bound_to 11000
  145.4057  139.1589  143.4153 LP  0  0  0  0  0  0  0  0  0  0  0  0  # atno 17320 bound_to 7965
  146.2957  140.4157  142.8722 LP  0  0  0  0  0  0  0  0  0  0  0  0  # atno 17321 bound_to 7965
  140.6903  143.2372  151.5149 LP  0  0  0  0  0  0  0  0  0  0  0  0  # atno 17342 bound_to 10162
  139.5598  144.2186  152.1672 LP  0  0  0  0  0  0  0  0  0  0  0  0  # atno 17343 bound_to 10162
  156.7318  130.4712  149.5498 LP  0  0  0  0  0  0  0  0  0  0  0  0  # atno 17370 bound_to 10713
  156.1597  130.6366  151.0703 LP  0  0  0  0  0  0  0  0  0  0  0  0  # atno 17371 bound_to 10713
  141.2167  133.7506  156.9434 LP  0  0  0  0  0  0  0  0  0  0  0  0  # atno 17394 bound_to 11000
  140.1312  134.9355  157.2339 LP  0  0  0  0  0  0  0  0  0  0  0  0  # atno 17395 bound_to 11000

$$$$
