AV-unprocessed.smi:784|AV-procd|sdf|3719|dock1
  -GOLD-   22720 1143D 1   1.00000     0.00000
 Structure written by MMmdl.
 37 38  0  0  0  0  0  0  0  0  2 V2000
  155.0938  136.4974  163.7538 C   0  0  0  0  0  0  0  0  0  0  0  0
  154.5019  136.5148  162.3755 C   0  0  0  0  0  0  0  0  0  0  0  0
  153.6620  137.4992  161.7878 C   0  0  0  0  0  0  0  0  0  0  0  0
  153.4159  137.0092  160.5364 C   0  0  0  0  0  0  0  0  0  0  0  0
  152.6143  137.5176  159.3832 C   0  0  0  0  0  0  0  0  0  0  0  0
  153.3274  139.0968  158.7473 S   0  0  0  0  0  0  0  0  0  0  0  0
  154.5706  139.3085  159.5063 O   0  0  0  0  0  0  0  0  0  0  0  0
  153.4497  138.9429  157.2878 O   0  0  0  0  0  0  0  0  0  0  0  0
  152.1675  140.1479  159.1770 N   0  5  0  0  0  0  0  0  0  0  0  0
  152.3797  141.5758  158.9835 C   0  0  0  0  0  0  0  0  0  0  0  0
  152.5291  142.2379  160.3746 C   0  0  0  0  0  0  0  0  0  0  0  0
  152.9210  143.7324  160.3942 C   0  0  0  0  0  0  0  0  0  0  0  0
  151.9333  144.7032  159.7134 C   0  0  0  0  0  0  0  0  0  0  0  0
  152.0616  144.6940  158.1812 C   0  0  0  0  0  0  0  0  0  0  0  0
  151.4058  143.5001  157.4475 C   0  0  0  0  0  0  0  0  0  0  0  0
  151.1751  142.1735  158.2139 C   0  0  0  0  0  0  0  0  0  0  0  0
  154.0575  135.8242  160.3641 O   0  0  0  0  0  0  0  0  0  0  0  0
  154.7473  135.5171  161.5425 N   0  0  0  0  0  0  0  0  0  0  0  0
  155.0623  137.4882  164.2071 H   0  0  0  0  0  0  0  0  0  0  0  0
  156.1355  136.1759  163.7344 H   0  0  0  0  0  0  0  0  0  0  0  0
  154.5453  135.8166  164.4049 H   0  0  0  0  0  0  0  0  0  0  0  0
  153.2885  138.4170  162.2171 H   0  0  0  0  0  0  0  0  0  0  0  0
  152.5757  136.7921  158.5714 H   0  0  0  0  0  0  0  0  0  0  0  0
  151.5906  137.7192  159.6985 H   0  0  0  0  0  0  0  0  0  0  0  0
  153.2908  141.7626  158.4134 H   0  0  0  0  0  0  0  0  0  0  0  0
  151.6045  142.1102  160.9396 H   0  0  0  0  0  0  0  0  0  0  0  0
  153.2906  141.6969  160.9385 H   0  0  0  0  0  0  0  0  0  0  0  0
  153.0067  144.0285  161.4402 H   0  0  0  0  0  0  0  0  0  0  0  0
  153.9220  143.8684  159.9803 H   0  0  0  0  0  0  0  0  0  0  0  0
  150.9067  144.5058  160.0243 H   0  0  0  0  0  0  0  0  0  0  0  0
  152.1625  145.7106  160.0619 H   0  0  0  0  0  0  0  0  0  0  0  0
  151.6343  145.6150  157.7831 H   0  0  0  0  0  0  0  0  0  0  0  0
  153.1192  144.7367  157.9180 H   0  0  0  0  0  0  0  0  0  0  0  0
  150.4302  143.8277  157.0866 H   0  0  0  0  0  0  0  0  0  0  0  0
  151.9818  143.2978  156.5429 H   0  0  0  0  0  0  0  0  0  0  0  0
  150.8232  141.4528  157.4743 H   0  0  0  0  0  0  0  0  0  0  0  0
  150.3362  142.2961  158.9003 H   0  0  0  0  0  0  0  0  0  0  0  0
  1  2  1  0  0  0  0
  1 19  1  0  0  0  0
  1 20  1  0  0  0  0
  1 21  1  0  0  0  0
  2 18  2  0  0  0  0
  2  3  1  0  0  0  0
  3  4  2  0  0  0  0
  3 22  1  0  0  0  0
  4  5  1  0  0  0  0
  4 17  1  0  0  0  0
  5  6  1  0  0  0  0
  5 23  1  0  0  0  0
  5 24  1  0  0  0  0
  6  7  2  0  0  0  0
  6  8  2  0  0  0  0
  6  9  1  0  0  0  0
  9 10  1  0  0  0  0
 10 16  1  0  0  0  0
 10 11  1  0  0  0  0
 10 25  1  0  0  0  0
 11 12  1  0  0  0  0
 11 26  1  0  0  0  0
 11 27  1  0  0  0  0
 12 13  1  0  0  0  0
 12 28  1  0  0  0  0
 12 29  1  0  0  0  0
 13 14  1  0  0  0  0
 13 30  1  0  0  0  0
 13 31  1  0  0  0  0
 14 15  1  0  0  0  0
 14 32  1  0  0  0  0
 14 33  1  0  0  0  0
 15 16  1  0  0  0  0
 15 34  1  0  0  0  0
 15 35  1  0  0  0  0
 16 36  1  0  0  0  0
 16 37  1  0  0  0  0
 17 18  1  0  0  0  0
M  CHG  1   9  -1
M  END
> <s_m_source_file>
AV-unprocessed.smi

> <i_m_source_file_index>
784

> <i_lp_mmshare_version>
43012

> <i_f3d_flags>
0

> <s_epik_input>
W0NIM11jMVtjSF1jKG9uMSlbQ0gyXVMoPU8pKD1PKVtOSF1bQ0hdMltDSDJdW0NIMl1bQ0gyXVtDSDJdW0NIMl1bQ0gyXTI=

> <s_epik_cmdline>
J2VwaWtfcHl0aG9uJywgJy1waCcsICc3LjAnLCAnLXRuJywgJzgnLCAnLW1hJywgJzIwMCcsICctbWV0YWxfYmluZGluZycsICctaW1hZScsICc8aW5maWxlLm1hZT4nLCAnLW9tYWUnLCAnPG91dGZpbGUubWFlPic=

> <r_lp_tautomer_probability>
1

> <r_epik_Ionization_Penalty>
5.56674

> <r_epik_Ionization_Penalty_Charging>
5.56674

> <r_epik_Ionization_Penalty_Neutral>
9.19761e-10

> <r_epik_State_Penalty>
5.56669

> <r_epik_Charging_Adjusted_Penalty>
11.1334

> <i_epik_Tot_Q>
-1

> <i_epik_Tot_abs_Q>
1

> <r_epik_Metal_State_Penalty>
1.56499

> <b_epik_Metal_Only>
1

> <s_lp_Force_Field>
OPLS_2005

> <r_lp_Energy>
11.8728

> <b_lp_Chiralities_Consistent>
1

> <s_lp_Variant>
AV-unprocessed.smi:784-2

> <Gold.Version>
5.8.1

> <Gold.Id.Protein>
6NUR|6NUR_protein|mol2

> <Gold.PLP.Fitness>
43.1227

> <Gold.PLP.PLP>
-37.8149

> <Gold.PLP.part.hbond>
-1.8341

> <Gold.PLP.part.metal>
0.0000

> <Gold.PLP.part.buried>
-5.2065

> <Gold.PLP.part.nonpolar>
-30.4442

> <Gold.PLP.part.repulsive>
0.0000

> <Gold.PLP.ligand.clash>
0.0000

> <Gold.PLP.ligand.torsion>
0.8357

> <Gold.PLP.Chemscore.Hbond>
1.9913

> <Gold.PLP.Chemscore.CHOScore>
0.0000

> <Gold.PLP.Chemscore.Metal>
0.0000

> <Gold.Chemscore.Hbonds>
donor molecule, donor type, donor heavy atom, donor atom, acceptor molecule, acceptor atom, score
      P1  H  6896  6907       L1    17  1.00
      P1  H  7997  8009       L1     8  1.00

> <Gold.PLP.Chemscore.Internal.Correction>
1.0054

> <Gold.Rescore>
     Score         DG    S(hbond)    S(metal)    S(lipo)     H(rot)  DE(clash)    DE(int)     intcor
     18.29     -20.12       1.42        0.00     113.93       1.34       0.22       1.61       ----

> <Gold.Chemscore.Fitness>
18.2898

> <Gold.Chemscore.DG>
-20.1182

> <Gold.Chemscore.ZeroCoef>
-5.4800

> <Gold.Chemscore.Hbond>
1.4194

> <Gold.Chemscore.Metal>
0.0000

> <Gold.Chemscore.Lipo>
113.9257

> <Gold.Chemscore.Internal_Hbond>
0.0000

> <Gold.Chemscore.DEClash>
0.2153

> <Gold.Chemscore.DEInternal>
1.6132

> <Gold.Chemscore.Rot>
1.3405

> <Gold.Chemscore.Internal.Correction>
   9.000000E+99

> <Gold.Chemscore.Hbonds>
donor molecule, donor type, donor heavy atom, donor atom, acceptor molecule, acceptor atom, score
      P1  H  6896  6907       L1    17  0.22
      P1  H  7997  8009       L1     8  0.72

> <Gold.Chemscore.Hbond.Weighted>
-4.7407

> <Gold.Chemscore.Metal.Weighted>
-0.0000

> <Gold.Chemscore.Lipo.Weighted>
-13.3293

> <Gold.Chemscore.Internal_Hbond.Weighted>
0.0000

> <Gold.Chemscore.DEClash.Weighted>
0.2153

> <Gold.Chemscore.DEInternal.Weighted>
1.6132

> <Gold.Chemscore.Rot.Weighted>
3.4318

> <Gold.Chemscore.Internal.Correction.Weighted>
   9.000000E+99

> <Gold.Protein.RotatedTorsions>
[ 6907 6896 6895 6894 ] final   63.52 input  -60.11 | X-H torsion
[ 7974 7965 7964 7962 ] final  -93.25 input  175.53 | X-H torsion
[ 8008 7997 7996 7995 ] final  176.66 input   59.86 | X-H torsion
[ 10167 10162 10161 10158 ] final -118.93 input  -65.29 | X-H torsion
[ 10718 10713 10712 10709 ] final  -75.49 input   66.30 | X-H torsion
[ 10763 10752 10751 10750 ] final   57.59 input  -60.55 | X-H torsion
[ 11005 11000 10999 10996 ] final  -81.26 input  -57.11 | X-H torsion

> <Gold.Protein.ActiveResidues>
 VAL166  LYS551  ARG553  GLY616  TRP617  ASP618  TYR619  PRO620  LYS621  CYS622 
 ASP623  PHE694  ASN695  SER759  ASP760  ASP761  ALA762  ILE779  LEU786  VAL792 
 PHE793  MET794  SER795  GLU796  ALA797  LYS798  CYS799  TRP800  GLU811  SER814 

> <Gold.Protein.RotatedAtoms>
  152.4260  134.5868  159.9962 H   0  0  0  0  0  0  0  0  0  0  0  0  # atno 6907 bound_to 6896
  151.6004  133.3351  159.3054 H   0  0  0  0  0  0  0  0  0  0  0  0  # atno 6908 bound_to 6896
  150.8149  134.7363  159.6786 H   0  0  0  0  0  0  0  0  0  0  0  0  # atno 6909 bound_to 6896
  145.3890  140.9526  143.2351 H   0  0  0  0  0  0  0  0  0  0  0  0  # atno 7974 bound_to 7965
  156.0741  140.1378  156.9793 H   0  0  0  0  0  0  0  0  0  0  0  0  # atno 8008 bound_to 7997
  154.4548  140.0966  156.6775 H   0  0  0  0  0  0  0  0  0  0  0  0  # atno 8009 bound_to 7997
  155.5182  140.3455  155.4403 H   0  0  0  0  0  0  0  0  0  0  0  0  # atno 8010 bound_to 7997
  140.0521  143.5049  152.2076 H   0  0  0  0  0  0  0  0  0  0  0  0  # atno 10167 bound_to 10162
  156.0206  130.4442  150.3051 H   0  0  0  0  0  0  0  0  0  0  0  0  # atno 10718 bound_to 10713
  152.9853  135.5636  154.5415 H   0  0  0  0  0  0  0  0  0  0  0  0  # atno 10763 bound_to 10752
  154.4869  135.2791  155.1529 H   0  0  0  0  0  0  0  0  0  0  0  0  # atno 10764 bound_to 10752
  154.3015  135.6306  153.5480 H   0  0  0  0  0  0  0  0  0  0  0  0  # atno 10765 bound_to 10752
  141.1667  133.7188  156.8396 H   0  0  0  0  0  0  0  0  0  0  0  0  # atno 11005 bound_to 11000
  144.8453  139.5406  143.6881 LP  0  0  0  0  0  0  0  0  0  0  0  0  # atno 17320 bound_to 7965
  146.2806  139.6868  142.9231 LP  0  0  0  0  0  0  0  0  0  0  0  0  # atno 17321 bound_to 7965
  139.5946  144.7562  151.3317 LP  0  0  0  0  0  0  0  0  0  0  0  0  # atno 17342 bound_to 10162
  140.7212  143.7131  150.7753 LP  0  0  0  0  0  0  0  0  0  0  0  0  # atno 17343 bound_to 10162
  157.1153  131.0232  151.3031 LP  0  0  0  0  0  0  0  0  0  0  0  0  # atno 17370 bound_to 10713
  157.4672  130.7687  149.7289 LP  0  0  0  0  0  0  0  0  0  0  0  0  # atno 17371 bound_to 10713
  140.1993  134.8909  157.3150 LP  0  0  0  0  0  0  0  0  0  0  0  0  # atno 17394 bound_to 11000
  140.2205  134.4029  155.7568 LP  0  0  0  0  0  0  0  0  0  0  0  0  # atno 17395 bound_to 11000

$$$$
