AV-unprocessed.smi:2198|AV-procd|sdf|8911|dock8
  -GOLD-   2272012123D 1   1.00000     0.00000
 Structure written by MMmdl.
 43 44  0  0  0  0  0  0  0  0  1 V2000
  147.8944  141.0640  153.4078 C   0  0  0  0  0  0  0  0  0  0  0  0
  148.7439  140.5516  154.5515 C   0  0  0  0  0  0  0  0  0  0  0  0
  149.9997  140.2645  154.4453 N   0  0  0  0  0  0  0  0  0  0  0  0
  150.6826  139.7993  155.5778 C   0  0  0  0  0  0  0  0  0  0  0  0
  152.1550  139.4862  155.3740 C   0  0  0  0  0  0  0  0  0  0  0  0
  150.0534  139.6438  156.7795 C   0  0  0  0  0  0  0  0  0  0  0  0
  150.7722  139.1442  158.0319 C   0  0  0  0  0  0  0  0  0  0  0  0
  152.0878  139.8486  158.3725 C   0  0  0  0  0  0  0  0  0  0  0  0
  153.1605  139.3929  157.9755 O   0  0  0  0  0  0  0  0  0  0  0  0
  151.9877  140.9620  159.1140 N   0  0  0  0  0  0  0  0  0  0  0  0
  153.1071  141.7857  159.5675 C   0  0  2  0  0  0  0  0  0  0  0  0
  153.2201  141.7309  161.1030 C   0  0  0  0  0  0  0  0  0  0  0  0
  152.0736  142.4867  161.7966 C   0  0  0  0  0  0  0  0  0  0  0  0
  151.9798  143.9374  161.2988 C   0  0  0  0  0  0  0  0  0  0  0  0
  151.8228  144.0018  159.7676 C   0  0  1  0  0  0  0  0  0  0  0  0
  151.7318  145.4531  159.2751 C   0  0  0  0  0  0  0  0  0  0  0  0
  152.9740  143.2433  159.0745 C   0  0  0  0  0  0  0  0  0  0  0  0
  148.6192  139.9734  156.8891 C   0  0  0  0  0  0  0  0  0  0  0  0
  147.9568  139.8744  157.9207 O   0  0  0  0  0  0  0  0  0  0  0  0
  148.0428  140.4135  155.7481 N   0  0  0  0  0  0  0  0  0  0  0  0
  147.0625  140.6538  155.7722 H   0  0  0  0  0  0  0  0  0  0  0  0
  148.2873  142.0136  153.0445 H   0  0  0  0  0  0  0  0  0  0  0  0
  146.8585  141.2179  153.7128 H   0  0  0  0  0  0  0  0  0  0  0  0
  147.9044  140.3506  152.5837 H   0  0  0  0  0  0  0  0  0  0  0  0
  152.3475  138.4263  155.5407 H   0  0  0  0  0  0  0  0  0  0  0  0
  152.7711  140.0639  156.0631 H   0  0  0  0  0  0  0  0  0  0  0  0
  152.4746  139.7279  154.3595 H   0  0  0  0  0  0  0  0  0  0  0  0
  150.1183  139.2104  158.9020 H   0  0  0  0  0  0  0  0  0  0  0  0
  150.9666  138.0778  157.9127 H   0  0  0  0  0  0  0  0  0  0  0  0
  151.0643  141.2616  159.3913 H   0  0  0  0  0  0  0  0  0  0  0  0
  154.0247  141.3627  159.1545 H   0  0  0  0  0  0  0  0  0  0  0  0
  153.2462  140.6951  161.4438 H   0  0  0  0  0  0  0  0  0  0  0  0
  154.1698  142.1734  161.4063 H   0  0  0  0  0  0  0  0  0  0  0  0
  151.1280  141.9751  161.6135 H   0  0  0  0  0  0  0  0  0  0  0  0
  152.2231  142.4752  162.8767 H   0  0  0  0  0  0  0  0  0  0  0  0
  151.1380  144.4346  161.7819 H   0  0  0  0  0  0  0  0  0  0  0  0
  152.8748  144.4829  161.6013 H   0  0  0  0  0  0  0  0  0  0  0  0
  150.8848  143.5110  159.5041 H   0  0  0  0  0  0  0  0  0  0  0  0
  152.6408  146.0087  159.5073 H   0  0  0  0  0  0  0  0  0  0  0  0
  150.8952  145.9742  159.7412 H   0  0  0  0  0  0  0  0  0  0  0  0
  151.5838  145.4925  158.1956 H   0  0  0  0  0  0  0  0  0  0  0  0
  153.9121  143.7657  159.2667 H   0  0  0  0  0  0  0  0  0  0  0  0
  152.8382  143.2634  157.9924 H   0  0  0  0  0  0  0  0  0  0  0  0
  1  2  1  0  0  0  0
  1 22  1  0  0  0  0
  1 23  1  0  0  0  0
  1 24  1  0  0  0  0
  2 20  1  0  0  0  0
  2  3  2  0  0  0  0
  3  4  1  0  0  0  0
  4  5  1  0  0  0  0
  4  6  2  0  0  0  0
  5 25  1  0  0  0  0
  5 26  1  0  0  0  0
  5 27  1  0  0  0  0
  6  7  1  0  0  0  0
  6 18  1  0  0  0  0
  7  8  1  0  0  0  0
  7 28  1  0  0  0  0
  7 29  1  0  0  0  0
  8  9  2  0  0  0  0
  8 10  1  0  0  0  0
 10 11  1  0  0  0  0
 10 30  1  0  0  0  0
 11 17  1  0  0  0  0
 11 12  1  0  0  0  0
 11 31  1  0  0  0  0
 12 13  1  0  0  0  0
 12 32  1  0  0  0  0
 12 33  1  0  0  0  0
 13 14  1  0  0  0  0
 13 34  1  0  0  0  0
 13 35  1  0  0  0  0
 14 15  1  0  0  0  0
 14 36  1  0  0  0  0
 14 37  1  0  0  0  0
 15 16  1  0  0  0  0
 15 17  1  0  0  0  0
 15 38  1  0  0  0  0
 16 39  1  0  0  0  0
 16 40  1  0  0  0  0
 16 41  1  0  0  0  0
 17 42  1  0  0  0  0
 17 43  1  0  0  0  0
 18 19  2  0  0  0  0
 18 20  1  0  0  0  0
 20 21  1  0  0  0  0
M  END
> <s_m_source_file>
AV-unprocessed.smi

> <i_m_source_file_index>
2198

> <i_lp_mmshare_version>
43012

> <i_f3d_flags>
0

> <s_epik_input>
W0NIM11jMW5jKFtDSDNdKWMoYyg9TylbbkhdMSlbQ0gyXUMoPU8pW05IXVtDQEBIXTJbQ0gyXVtDSDJdW0NIMl1bQ0BASF0oW0NIM10pW0NIMl0y

> <s_epik_cmdline>
J2VwaWtfcHl0aG9uJywgJy1waCcsICc3LjAnLCAnLXRuJywgJzgnLCAnLW1hJywgJzIwMCcsICctbWV0YWxfYmluZGluZycsICctaW1hZScsICc8aW5maWxlLm1hZT4nLCAnLW9tYWUnLCAnPG91dGZpbGUubWFlPic=

> <r_lp_tautomer_probability>
0.839158

> <r_epik_Ionization_Penalty>
0.000372587

> <r_epik_Ionization_Penalty_Charging>
0.000337977

> <r_epik_Ionization_Penalty_Neutral>
3.46101e-05

> <r_epik_State_Penalty>
0.09125

> <r_epik_Charging_Adjusted_Penalty>
0.091588

> <i_epik_Tot_Q>
0

> <i_epik_Tot_abs_Q>
0

> <r_epik_Metal_State_Penalty>
0.25197

> <b_epik_Metal_Only>
0

> <s_lp_Force_Field>
OPLS_2005

> <r_lp_Energy>
10.2455

> <b_lp_Chiralities_Consistent>
1

> <s_lp_Variant>
AV-unprocessed.smi:2198-1

> <Gold.Version>
5.8.1

> <Gold.Id.Protein>
6NUR|6NUR_protein|mol2

> <Gold.PLP.Fitness>
50.2646

> <Gold.PLP.PLP>
-45.2121

> <Gold.PLP.part.hbond>
-3.0000

> <Gold.PLP.part.metal>
0.0000

> <Gold.PLP.part.buried>
-4.3415

> <Gold.PLP.part.nonpolar>
-39.2151

> <Gold.PLP.part.repulsive>
0.2213

> <Gold.PLP.ligand.clash>
0.0000

> <Gold.PLP.ligand.torsion>
0.4781

> <Gold.PLP.Chemscore.Hbond>
2.0000

> <Gold.PLP.Chemscore.CHOScore>
0.0000

> <Gold.PLP.Chemscore.Metal>
0.0000

> <Gold.Chemscore.Hbonds>
donor molecule, donor type, donor heavy atom, donor atom, acceptor molecule, acceptor atom, score
      P1  H  7989  7998       L1     3  0.77
      P1  H  7997  8008       L1     9  1.00

> <Gold.PLP.Chemscore.Internal.Correction>
0.0087

> <Gold.Rescore>
     Score         DG    S(hbond)    S(metal)    S(lipo)     H(rot)  DE(clash)    DE(int)     intcor
     17.80     -20.26       1.72        0.00     109.77       1.48       0.84       1.63       ----

> <Gold.Chemscore.Fitness>
17.7964

> <Gold.Chemscore.DG>
-20.2643

> <Gold.Chemscore.ZeroCoef>
-5.4800

> <Gold.Chemscore.Hbond>
1.7155

> <Gold.Chemscore.Metal>
0.0000

> <Gold.Chemscore.Lipo>
109.7739

> <Gold.Chemscore.Internal_Hbond>
0.0000

> <Gold.Chemscore.DEClash>
0.8412

> <Gold.Chemscore.DEInternal>
1.6267

> <Gold.Chemscore.Rot>
1.4801

> <Gold.Chemscore.Internal.Correction>
   9.000000E+99

> <Gold.Chemscore.Hbonds>
donor molecule, donor type, donor heavy atom, donor atom, acceptor molecule, acceptor atom, score
      P1  H  7989  7998       L1     3  0.11
      P1  H  7997  8008       L1     9  0.98

> <Gold.Chemscore.Hbond.Weighted>
-5.7299

> <Gold.Chemscore.Metal.Weighted>
-0.0000

> <Gold.Chemscore.Lipo.Weighted>
-12.8435

> <Gold.Chemscore.Internal_Hbond.Weighted>
0.0000

> <Gold.Chemscore.DEClash.Weighted>
0.8412

> <Gold.Chemscore.DEInternal.Weighted>
1.6267

> <Gold.Chemscore.Rot.Weighted>
3.7891

> <Gold.Chemscore.Internal.Correction.Weighted>
   9.000000E+99

> <Gold.Protein.RotatedTorsions>
[ 6907 6896 6895 6894 ] final  -95.00 input  -60.11 | X-H torsion
[ 7974 7965 7964 7962 ] final -136.74 input  175.53 | X-H torsion
[ 8008 7997 7996 7995 ] final  -98.08 input   59.86 | X-H torsion
[ 10167 10162 10161 10158 ] final   80.38 input  -65.29 | X-H torsion
[ 10718 10713 10712 10709 ] final   78.60 input   66.30 | X-H torsion
[ 10763 10752 10751 10750 ] final  104.06 input  -60.55 | X-H torsion
[ 11005 11000 10999 10996 ] final  -82.40 input  -57.11 | X-H torsion

> <Gold.Protein.ActiveResidues>
 VAL166  LYS551  ARG553  GLY616  TRP617  ASP618  TYR619  PRO620  LYS621  CYS622 
 ASP623  PHE694  ASN695  SER759  ASP760  ASP761  ALA762  ILE779  LEU786  VAL792 
 PHE793  MET794  SER795  GLU796  ALA797  LYS798  CYS799  TRP800  GLU811  SER814 

> <Gold.Protein.RotatedAtoms>
  150.6954  134.1725  159.4217 H   0  0  0  0  0  0  0  0  0  0  0  0  # atno 6907 bound_to 6896
  151.9703  135.0078  160.0561 H   0  0  0  0  0  0  0  0  0  0  0  0  # atno 6908 bound_to 6896
  152.1848  133.4697  159.5013 H   0  0  0  0  0  0  0  0  0  0  0  0  # atno 6909 bound_to 6896
  144.8901  140.6630  143.5151 H   0  0  0  0  0  0  0  0  0  0  0  0  # atno 7974 bound_to 7965
  154.7964  140.0458  157.1240 H   0  0  0  0  0  0  0  0  0  0  0  0  # atno 8008 bound_to 7997
  154.9530  140.3067  155.5046 H   0  0  0  0  0  0  0  0  0  0  0  0  # atno 8009 bound_to 7997
  156.2956  140.2284  156.4609 H   0  0  0  0  0  0  0  0  0  0  0  0  # atno 8010 bound_to 7997
  139.9503  144.6030  150.8167 H   0  0  0  0  0  0  0  0  0  0  0  0  # atno 10167 bound_to 10162
  157.6750  130.9876  150.1810 H   0  0  0  0  0  0  0  0  0  0  0  0  # atno 10718 bound_to 10713
  153.3609  135.3956  155.1717 H   0  0  0  0  0  0  0  0  0  0  0  0  # atno 10763 bound_to 10752
  154.8679  135.3679  154.5101 H   0  0  0  0  0  0  0  0  0  0  0  0  # atno 10764 bound_to 10752
  153.5560  135.7082  153.5629 H   0  0  0  0  0  0  0  0  0  0  0  0  # atno 10765 bound_to 10752
  141.1663  133.7243  156.8566 H   0  0  0  0  0  0  0  0  0  0  0  0  # atno 11005 bound_to 11000
  145.3799  139.1639  143.4286 LP  0  0  0  0  0  0  0  0  0  0  0  0  # atno 17320 bound_to 7965
  146.3048  140.3878  142.8691 LP  0  0  0  0  0  0  0  0  0  0  0  0  # atno 17321 bound_to 7965
  140.7585  143.3108  151.2850 LP  0  0  0  0  0  0  0  0  0  0  0  0  # atno 17342 bound_to 10162
  139.6633  144.0150  152.2707 LP  0  0  0  0  0  0  0  0  0  0  0  0  # atno 17343 bound_to 10162
  156.2542  130.3704  149.8199 LP  0  0  0  0  0  0  0  0  0  0  0  0  # atno 17370 bound_to 10713
  156.5963  130.8527  151.3420 LP  0  0  0  0  0  0  0  0  0  0  0  0  # atno 17371 bound_to 10713
  140.1878  134.8987  157.3025 LP  0  0  0  0  0  0  0  0  0  0  0  0  # atno 17394 bound_to 11000
  140.2323  134.3894  155.7516 LP  0  0  0  0  0  0  0  0  0  0  0  0  # atno 17395 bound_to 11000

$$$$
