AV-unprocessed.smi:2527|AV-procd|sdf|9946|dock3
  -GOLD-   2272013583D 1   1.00000     0.00000
 Structure written by MMmdl.
 36 38  0  0  0  0  0  0  0  0  3 V2000
  151.5902  137.5881  154.3648 C   0  0  0  0  0  0  0  0  0  0  0  0
  151.4675  137.0820  155.6818 O   0  0  0  0  0  0  0  0  0  0  0  0
  151.1158  138.0851  156.6210 C   0  0  0  0  0  0  0  0  0  0  0  0
  152.1815  139.1903  156.6287 C   0  0  0  0  0  0  0  0  0  0  0  0
  151.6004  140.5258  156.8314 N   0  0  0  0  0  0  0  0  0  0  0  0
  150.7472  141.2412  156.0465 C   0  0  0  0  0  0  0  0  0  0  0  0
  150.0767  140.7273  154.4983 S   0  0  0  0  0  0  0  0  0  0  0  0
  148.2906  141.0156  154.6188 C   0  0  0  0  0  0  0  0  0  0  0  0
  147.4449  139.9083  154.0296 C   0  0  0  0  0  0  0  0  0  0  0  0
  147.6457  139.5699  152.7226 N   0  0  0  0  0  0  0  0  0  0  0  0
  146.7956  138.5839  152.4544 C   0  0  0  0  0  0  0  0  0  0  0  0
  146.7275  138.0537  151.3475 O   0  0  0  0  0  0  0  0  0  0  0  0
  146.0785  138.3101  153.5720 N   0  5  0  0  0  0  0  0  0  0  0  0
  146.5345  139.2043  154.5947 N   0  0  0  0  0  0  0  0  0  0  0  0
  150.5032  142.4252  156.6736 N   0  3  0  0  0  0  0  0  0  0  0  0
  151.2040  142.4667  157.8802 C   0  0  0  0  0  0  0  0  0  0  0  0
  151.2711  143.4515  158.8609 C   0  0  0  0  0  0  0  0  0  0  0  0
  152.0803  143.1763  159.9832 C   0  0  0  0  0  0  0  0  0  0  0  0
  152.2098  144.3506  161.2402 Cl  0  0  0  0  0  0  0  0  0  0  0  0
  152.7836  141.9592  160.0971 C   0  0  0  0  0  0  0  0  0  0  0  0
  152.7109  140.9688  159.0957 C   0  0  0  0  0  0  0  0  0  0  0  0
  151.9094  141.2496  157.9895 C   0  0  0  0  0  0  0  0  0  0  0  0
  148.3109  139.9917  152.0920 H   0  0  0  0  0  0  0  0  0  0  0  0
  151.8738  136.7817  153.6886 H   0  0  0  0  0  0  0  0  0  0  0  0
  152.3583  138.3605  154.3077 H   0  0  0  0  0  0  0  0  0  0  0  0
  150.6456  138.0057  154.0140 H   0  0  0  0  0  0  0  0  0  0  0  0
  150.1455  138.5122  156.3636 H   0  0  0  0  0  0  0  0  0  0  0  0
  151.0262  137.6491  157.6174 H   0  0  0  0  0  0  0  0  0  0  0  0
  152.9336  139.0053  157.3956 H   0  0  0  0  0  0  0  0  0  0  0  0
  152.7128  139.2008  155.6766 H   0  0  0  0  0  0  0  0  0  0  0  0
  148.0341  141.1564  155.6695 H   0  0  0  0  0  0  0  0  0  0  0  0
  148.0496  141.9477  154.1074 H   0  0  0  0  0  0  0  0  0  0  0  0
  150.7312  144.3831  158.7759 H   0  0  0  0  0  0  0  0  0  0  0  0
  153.3918  141.7788  160.9717 H   0  0  0  0  0  0  0  0  0  0  0  0
  153.2500  140.0386  159.1983 H   0  0  0  0  0  0  0  0  0  0  0  0
  149.9005  143.1476  156.3012 H   0  0  0  0  0  0  0  0  0  0  0  0
  1  2  1  0  0  0  0
  1 24  1  0  0  0  0
  1 25  1  0  0  0  0
  1 26  1  0  0  0  0
  2  3  1  0  0  0  0
  3  4  1  0  0  0  0
  3 27  1  0  0  0  0
  3 28  1  0  0  0  0
  4  5  1  0  0  0  0
  4 29  1  0  0  0  0
  4 30  1  0  0  0  0
  5 22  1  0  0  0  0
  5  6  1  0  0  0  0
  6  7  1  0  0  0  0
  6 15  2  0  0  0  0
  7  8  1  0  0  0  0
  8 31  1  0  0  0  0
  8 32  1  0  0  0  0
  8  9  1  0  0  0  0
  9 14  2  0  0  0  0
  9 10  1  0  0  0  0
 10 11  1  0  0  0  0
 10 23  1  0  0  0  0
 11 13  1  0  0  0  0
 11 12  2  0  0  0  0
 13 14  1  0  0  0  0
 15 16  1  0  0  0  0
 15 36  1  0  0  0  0
 16 22  2  0  0  0  0
 16 17  1  0  0  0  0
 17 18  2  0  0  0  0
 17 33  1  0  0  0  0
 18 19  1  0  0  0  0
 18 20  1  0  0  0  0
 20 21  2  0  0  0  0
 20 34  1  0  0  0  0
 21 22  1  0  0  0  0
 21 35  1  0  0  0  0
M  CHG  1  13  -1
M  CHG  1  15   1
M  END
> <s_m_source_file>
AV-unprocessed.smi

> <i_m_source_file_index>
2527

> <i_lp_mmshare_version>
43012

> <i_f3d_flags>
0

> <s_epik_input>
W2NIXTFjKENsKVtjSF1bY0hdYyhjMTIpbihbQ0gyXVtDSDJdT1tDSDNdKWMobjIpU1tDSDJdYzNuYyg9TylbbkhdW25IXTM=

> <s_epik_cmdline>
J2VwaWtfcHl0aG9uJywgJy1waCcsICc3LjAnLCAnLXRuJywgJzgnLCAnLW1hJywgJzIwMCcsICctbWV0YWxfYmluZGluZycsICctaW1hZScsICc8aW5maWxlLm1hZT4nLCAnLW9tYWUnLCAnPG91dGZpbGUubWFlPic=

> <r_lp_tautomer_probability>
0.999897

> <r_epik_Ionization_Penalty>
4.90706

> <r_epik_Ionization_Penalty_Charging>
2.34068

> <r_epik_Ionization_Penalty_Neutral>
2.56639

> <r_epik_State_Penalty>
6.79966

> <r_epik_Charging_Adjusted_Penalty>
9.14033

> <i_epik_Tot_Q>
0

> <i_epik_Tot_abs_Q>
2

> <r_epik_Metal_State_Penalty>
4.68507

> <b_epik_Metal_Only>
1

> <s_lp_Force_Field>
OPLS_2005

> <r_lp_Energy>
18.8792

> <b_lp_Chiralities_Consistent>
1

> <s_lp_Variant>
AV-unprocessed.smi:2527-5

> <Gold.Version>
5.8.1

> <Gold.Id.Protein>
6NUR|6NUR_protein|mol2

> <Gold.PLP.Fitness>
51.3843

> <Gold.PLP.PLP>
-41.0998

> <Gold.PLP.part.hbond>
-2.6818

> <Gold.PLP.part.metal>
0.0000

> <Gold.PLP.part.buried>
-3.1009

> <Gold.PLP.part.nonpolar>
-35.6010

> <Gold.PLP.part.repulsive>
0.8990

> <Gold.PLP.ligand.clash>
0.0000

> <Gold.PLP.ligand.torsion>
0.6703

> <Gold.PLP.Chemscore.Hbond>
3.8480

> <Gold.PLP.Chemscore.CHOScore>
0.0000

> <Gold.PLP.Chemscore.Metal>
0.0000

> <Gold.Chemscore.Hbonds>
donor molecule, donor type, donor heavy atom, donor atom, acceptor molecule, acceptor atom, score
      L1  H    10    23       P1  7957  1.00
      L1  H    15    36       P1  8028  2.00
      P1  H  7954  7966       L1    12  0.94

> <Gold.PLP.Chemscore.Internal.Correction>
0.0811

> <Gold.Rescore>
     Score         DG    S(hbond)    S(metal)    S(lipo)     H(rot)  DE(clash)    DE(int)     intcor
     16.98     -19.48       2.83        0.00     101.84       2.88       1.71       0.79       ----

> <Gold.Chemscore.Fitness>
16.9794

> <Gold.Chemscore.DG>
-19.4808

> <Gold.Chemscore.ZeroCoef>
-5.4800

> <Gold.Chemscore.Hbond>
2.8295

> <Gold.Chemscore.Metal>
0.0000

> <Gold.Chemscore.Lipo>
101.8411

> <Gold.Chemscore.Internal_Hbond>
0.0000

> <Gold.Chemscore.DEClash>
1.7138

> <Gold.Chemscore.DEInternal>
0.7876

> <Gold.Chemscore.Rot>
2.8770

> <Gold.Chemscore.Internal.Correction>
   9.000000E+99

> <Gold.Chemscore.Hbonds>
donor molecule, donor type, donor heavy atom, donor atom, acceptor molecule, acceptor atom, score
      L1  H    10    23       P1  7957  0.96
      L1  H    15    36       P1  8028  0.98
      P1  H  7954  7966       L1    12  0.90

> <Gold.Chemscore.Hbond.Weighted>
-9.4504

> <Gold.Chemscore.Metal.Weighted>
-0.0000

> <Gold.Chemscore.Lipo.Weighted>
-11.9154

> <Gold.Chemscore.Internal_Hbond.Weighted>
0.0000

> <Gold.Chemscore.DEClash.Weighted>
1.7138

> <Gold.Chemscore.DEInternal.Weighted>
0.7876

> <Gold.Chemscore.Rot.Weighted>
7.3650

> <Gold.Chemscore.Internal.Correction.Weighted>
   9.000000E+99

> <Gold.Protein.RotatedTorsions>
[ 6907 6896 6895 6894 ] final  -16.44 input  -60.11 | X-H torsion
[ 7974 7965 7964 7962 ] final   59.70 input  175.53 | X-H torsion
[ 8008 7997 7996 7995 ] final  108.41 input   59.86 | X-H torsion
[ 10167 10162 10161 10158 ] final  -29.54 input  -65.29 | X-H torsion
[ 10718 10713 10712 10709 ] final  139.99 input   66.30 | X-H torsion
[ 10763 10752 10751 10750 ] final  -11.58 input  -60.55 | X-H torsion
[ 11005 11000 10999 10996 ] final   24.10 input  -57.11 | X-H torsion

> <Gold.Protein.ActiveResidues>
 VAL166  LYS551  ARG553  GLY616  TRP617  ASP618  TYR619  PRO620  LYS621  CYS622 
 ASP623  PHE694  ASN695  SER759  ASP760  ASP761  ALA762  ILE779  LEU786  VAL792 
 PHE793  MET794  SER795  GLU796  ALA797  LYS798  CYS799  TRP800  GLU811  SER814 

> <Gold.Protein.RotatedAtoms>
  151.3086  135.0788  159.9263 H   0  0  0  0  0  0  0  0  0  0  0  0  # atno 6907 bound_to 6896
  152.5282  133.9759  159.7794 H   0  0  0  0  0  0  0  0  0  0  0  0  # atno 6908 bound_to 6896
  151.0059  133.5960  159.2719 H   0  0  0  0  0  0  0  0  0  0  0  0  # atno 6909 bound_to 6896
  145.9043  139.3605  143.0574 H   0  0  0  0  0  0  0  0  0  0  0  0  # atno 7974 bound_to 7965
  156.1900  140.3077  155.9314 H   0  0  0  0  0  0  0  0  0  0  0  0  # atno 8008 bound_to 7997
  155.3194  140.0455  157.3055 H   0  0  0  0  0  0  0  0  0  0  0  0  # atno 8009 bound_to 7997
  154.5441  140.2271  155.8601 H   0  0  0  0  0  0  0  0  0  0  0  0  # atno 8010 bound_to 7997
  140.7259  143.3920  151.1413 H   0  0  0  0  0  0  0  0  0  0  0  0  # atno 10167 bound_to 10162
  157.4083  131.1025  151.0481 H   0  0  0  0  0  0  0  0  0  0  0  0  # atno 10718 bound_to 10713
  153.4859  135.7017  153.5912 H   0  0  0  0  0  0  0  0  0  0  0  0  # atno 10763 bound_to 10752
  153.4105  135.3849  155.2047 H   0  0  0  0  0  0  0  0  0  0  0  0  # atno 10764 bound_to 10752
  154.8719  135.3903  154.4313 H   0  0  0  0  0  0  0  0  0  0  0  0  # atno 10765 bound_to 10752
  140.3624  134.2111  155.7671 H   0  0  0  0  0  0  0  0  0  0  0  0  # atno 11005 bound_to 11000
  145.8752  140.9396  143.0630 LP  0  0  0  0  0  0  0  0  0  0  0  0  # atno 17320 bound_to 7965
  144.6738  140.0707  143.7473 LP  0  0  0  0  0  0  0  0  0  0  0  0  # atno 17321 bound_to 7965
  139.7527  143.8755  152.3081 LP  0  0  0  0  0  0  0  0  0  0  0  0  # atno 17342 bound_to 10162
  139.8614  144.7115  150.9096 LP  0  0  0  0  0  0  0  0  0  0  0  0  # atno 17343 bound_to 10162
  157.1454  130.6161  149.5567 LP  0  0  0  0  0  0  0  0  0  0  0  0  # atno 17370 bound_to 10713
  155.9843  130.4867  150.6976 LP  0  0  0  0  0  0  0  0  0  0  0  0  # atno 17371 bound_to 10713
  141.1980  133.8046  157.0603 LP  0  0  0  0  0  0  0  0  0  0  0  0  # atno 17394 bound_to 11000
  140.0616  134.9751  157.1314 LP  0  0  0  0  0  0  0  0  0  0  0  0  # atno 17395 bound_to 11000

$$$$
