AV-unprocessed.smi:3287|AV-procd|sdf|12604|dock3
  -GOLD-   2272018533D 1   1.00000     0.00000
 Structure written by MMmdl.
 43 44  0  0  0  0  0  0  0  0  2 V2000
  151.9049  144.0002  161.1582 C   0  0  0  0  0  0  0  0  0  0  0  0
  152.8574  143.8330  159.9572 C   0  0  2  0  0  0  0  0  0  0  0  0
  152.5056  144.8079  158.8147 C   0  0  0  0  0  0  0  0  0  0  0  0
  151.2282  144.3976  158.0614 C   0  0  0  0  0  0  0  0  0  0  0  0
  151.3326  142.9564  157.5212 C   0  0  2  0  0  0  0  0  0  0  0  0
  150.0901  142.5294  156.8398 N   0  3  0  0  0  0  0  0  0  0  0  0
  150.2713  141.5575  155.7397 C   0  0  0  0  0  0  0  0  0  0  0  0
  149.1417  141.6644  154.7008 C   0  0  1  0  0  0  0  0  0  0  0  0
  149.5076  140.9293  153.5490 O   0  0  0  0  0  0  0  0  0  0  0  0
  147.8211  141.1848  155.2825 C   0  0  0  0  0  0  0  0  0  0  0  0
  147.7550  140.6084  156.5698 C   0  0  0  0  0  0  0  0  0  0  0  0
  146.4997  140.1966  157.0602 C   0  0  0  0  0  0  0  0  0  0  0  0
  145.3520  140.3275  156.3613 N   0  0  0  0  0  0  0  0  0  0  0  0
  145.4204  140.8803  155.1315 C   0  0  0  0  0  0  0  0  0  0  0  0
  146.6244  141.3247  154.5489 C   0  0  0  0  0  0  0  0  0  0  0  0
  151.6629  141.9769  158.6628 C   0  0  0  0  0  0  0  0  0  0  0  0
  152.9475  142.3842  159.4123 C   0  0  2  0  0  0  0  0  0  0  0  0
  153.3335  141.3521  160.4847 C   0  0  0  0  0  0  0  0  0  0  0  0
  150.8856  143.6965  160.9220 H   0  0  0  0  0  0  0  0  0  0  0  0
  151.8696  145.0407  161.4821 H   0  0  0  0  0  0  0  0  0  0  0  0
  152.2355  143.4145  162.0157 H   0  0  0  0  0  0  0  0  0  0  0  0
  153.8506  144.1090  160.3147 H   0  0  0  0  0  0  0  0  0  0  0  0
  152.3995  145.8217  159.2029 H   0  0  0  0  0  0  0  0  0  0  0  0
  153.3358  144.8439  158.1078 H   0  0  0  0  0  0  0  0  0  0  0  0
  150.3635  144.4879  158.7197 H   0  0  0  0  0  0  0  0  0  0  0  0
  151.0655  145.1020  157.2459 H   0  0  0  0  0  0  0  0  0  0  0  0
  152.1462  142.9100  156.7956 H   0  0  0  0  0  0  0  0  0  0  0  0
  149.4990  142.0919  157.5319 H   0  0  0  0  0  0  0  0  0  0  0  0
  151.2371  141.7114  155.2580 H   0  0  0  0  0  0  0  0  0  0  0  0
  150.2796  140.5513  156.1613 H   0  0  0  0  0  0  0  0  0  0  0  0
  149.0275  142.7067  154.3989 H   0  0  0  0  0  0  0  0  0  0  0  0
  148.9743  140.1494  153.5096 H   0  0  0  0  0  0  0  0  0  0  0  0
  148.6425  140.4849  157.1734 H   0  0  0  0  0  0  0  0  0  0  0  0
  146.4156  139.7533  158.0414 H   0  0  0  0  0  0  0  0  0  0  0  0
  144.4874  140.9744  154.5957 H   0  0  0  0  0  0  0  0  0  0  0  0
  146.6222  141.7635  153.5617 H   0  0  0  0  0  0  0  0  0  0  0  0
  150.8266  141.9202  159.3608 H   0  0  0  0  0  0  0  0  0  0  0  0
  151.7847  140.9728  158.2544 H   0  0  0  0  0  0  0  0  0  0  0  0
  153.7566  142.3755  158.6798 H   0  0  0  0  0  0  0  0  0  0  0  0
  152.5439  141.2216  161.2247 H   0  0  0  0  0  0  0  0  0  0  0  0
  154.2412  141.6505  161.0099 H   0  0  0  0  0  0  0  0  0  0  0  0
  153.5212  140.3766  160.0352 H   0  0  0  0  0  0  0  0  0  0  0  0
  149.6116  143.3440  156.4819 H   0  0  0  0  0  0  0  0  0  0  0  0
  1  2  1  0  0  0  0
  1 19  1  0  0  0  0
  1 20  1  0  0  0  0
  1 21  1  0  0  0  0
  2 17  1  0  0  0  0
  2  3  1  0  0  0  0
  2 22  1  0  0  0  0
  3  4  1  0  0  0  0
  3 23  1  0  0  0  0
  3 24  1  0  0  0  0
  4  5  1  0  0  0  0
  4 25  1  0  0  0  0
  4 26  1  0  0  0  0
  5  6  1  0  0  0  0
  5 16  1  0  0  0  0
  5 27  1  0  0  0  0
  6  7  1  0  0  0  0
  6 28  1  0  0  0  0
  6 43  1  0  0  0  0
  7  8  1  0  0  0  0
  7 29  1  0  0  0  0
  7 30  1  0  0  0  0
  8  9  1  0  0  0  0
  8 10  1  0  0  0  0
  8 31  1  0  0  0  0
  9 32  1  0  0  0  0
 10 15  1  0  0  0  0
 10 11  2  0  0  0  0
 11 12  1  0  0  0  0
 11 33  1  0  0  0  0
 12 13  2  0  0  0  0
 12 34  1  0  0  0  0
 13 14  1  0  0  0  0
 14 15  2  0  0  0  0
 14 35  1  0  0  0  0
 15 36  1  0  0  0  0
 16 17  1  0  0  0  0
 16 37  1  0  0  0  0
 16 38  1  0  0  0  0
 17 18  1  0  0  0  0
 17 39  1  0  0  0  0
 18 40  1  0  0  0  0
 18 41  1  0  0  0  0
 18 42  1  0  0  0  0
M  CHG  1   6   1
M  END
> <s_m_source_file>
AV-unprocessed.smi

> <i_m_source_file_index>
3287

> <i_lp_mmshare_version>
43012

> <i_f3d_flags>
0

> <s_epik_input>
W0NIM11bQ0BASF0xW0NIMl1bQ0gyXVtDQEhdKFtDSDJdW0NASF0xW0NIM10pW05IXVtDSDJdW0NASF0oW09IXSljMltjSF1bY0hdbltjSF1bY0hdMg==

> <s_epik_cmdline>
J2VwaWtfcHl0aG9uJywgJy1waCcsICc3LjAnLCAnLXRuJywgJzgnLCAnLW1hJywgJzIwMCcsICctbWV0YWxfYmluZGluZycsICctaW1hZScsICc8aW5maWxlLm1hZT4nLCAnLW9tYWUnLCAnPG91dGZpbGUubWFlPic=

> <r_lp_tautomer_probability>
1

> <r_epik_Ionization_Penalty>
0.00537262

> <r_epik_Ionization_Penalty_Charging>
0.00321624

> <r_epik_Ionization_Penalty_Neutral>
0.00215638

> <r_epik_State_Penalty>
-0

> <r_epik_Charging_Adjusted_Penalty>
0.00321624

> <i_epik_Tot_Q>
1

> <i_epik_Tot_abs_Q>
1

> <r_epik_Metal_State_Penalty>
-0

> <b_epik_Metal_Only>
0

> <s_lp_Force_Field>
OPLS_2005

> <r_lp_Energy>
17.5476

> <b_lp_Chiralities_Consistent>
1

> <s_lp_Variant>
AV-unprocessed.smi:3287-15

> <Gold.Version>
5.8.1

> <Gold.Id.Protein>
6NUR|6NUR_protein|mol2

> <Gold.PLP.Fitness>
53.2002

> <Gold.PLP.PLP>
-41.6637

> <Gold.PLP.part.hbond>
-4.0000

> <Gold.PLP.part.metal>
0.0000

> <Gold.PLP.part.buried>
-3.6964

> <Gold.PLP.part.nonpolar>
-34.0907

> <Gold.PLP.part.repulsive>
0.0690

> <Gold.PLP.ligand.clash>
0.0000

> <Gold.PLP.ligand.torsion>
0.6258

> <Gold.PLP.Chemscore.Hbond>
3.2569

> <Gold.PLP.Chemscore.CHOScore>
1.0000

> <Gold.PLP.Chemscore.Metal>
0.0000

> <Gold.Chemscore.Hbonds>
donor molecule, donor type, donor heavy atom, donor atom, acceptor molecule, acceptor atom, score
      L1  H     6    43       P1  8028  2.00
      P1  H  7989  7998       L1     9  0.26
      P1  H  8011  8017       L1     9  0.95
      L1  C    14    35       P1 10175  1.00

> <Gold.PLP.Chemscore.Internal.Correction>
0.0176

> <Gold.Rescore>
     Score         DG    S(hbond)    S(metal)    S(lipo)     H(rot)  DE(clash)    DE(int)     intcor
     21.00     -21.81       2.08        0.00     121.82       1.90       0.01       0.80       ----

> <Gold.Chemscore.Fitness>
20.9992

> <Gold.Chemscore.DG>
-21.8117

> <Gold.Chemscore.ZeroCoef>
-5.4800

> <Gold.Chemscore.Hbond>
2.0815

> <Gold.Chemscore.Metal>
0.0000

> <Gold.Chemscore.Lipo>
121.8161

> <Gold.Chemscore.Internal_Hbond>
0.0000

> <Gold.Chemscore.DEClash>
0.0091

> <Gold.Chemscore.DEInternal>
0.8034

> <Gold.Chemscore.Rot>
1.9035

> <Gold.Chemscore.Internal.Correction>
   9.000000E+99

> <Gold.Chemscore.Hbonds>
donor molecule, donor type, donor heavy atom, donor atom, acceptor molecule, acceptor atom, score
      L1  H     6    43       P1  8028  1.00
      P1  H  7989  7998       L1     9  0.16
      P1  H  8011  8017       L1     9  0.21

> <Gold.Chemscore.Hbond.Weighted>
-6.9521

> <Gold.Chemscore.Metal.Weighted>
-0.0000

> <Gold.Chemscore.Lipo.Weighted>
-14.2525

> <Gold.Chemscore.Internal_Hbond.Weighted>
0.0000

> <Gold.Chemscore.DEClash.Weighted>
0.0091

> <Gold.Chemscore.DEInternal.Weighted>
0.8034

> <Gold.Chemscore.Rot.Weighted>
4.8729

> <Gold.Chemscore.Internal.Correction.Weighted>
   9.000000E+99

> <Gold.Protein.RotatedTorsions>
[ 6907 6896 6895 6894 ] final  124.96 input  -60.11 | X-H torsion
[ 7974 7965 7964 7962 ] final -173.00 input  175.53 | X-H torsion
[ 8008 7997 7996 7995 ] final -124.77 input   59.86 | X-H torsion
[ 10167 10162 10161 10158 ] final   21.67 input  -65.29 | X-H torsion
[ 10718 10713 10712 10709 ] final -153.49 input   66.30 | X-H torsion
[ 10763 10752 10751 10750 ] final  -27.12 input  -60.55 | X-H torsion
[ 11005 11000 10999 10996 ] final  101.47 input  -57.11 | X-H torsion

> <Gold.Protein.ActiveResidues>
 VAL166  LYS551  ARG553  GLY616  TRP617  ASP618  TYR619  PRO620  LYS621  CYS622 
 ASP623  PHE694  ASN695  SER759  ASP760  ASP761  ALA762  ILE779  LEU786  VAL792 
 PHE793  MET794  SER795  GLU796  ALA797  LYS798  CYS799  TRP800  GLU811  SER814 

> <Gold.Protein.RotatedAtoms>
  152.4033  133.6851  159.6334 H   0  0  0  0  0  0  0  0  0  0  0  0  # atno 6907 bound_to 6896
  150.7921  133.8752  159.3279 H   0  0  0  0  0  0  0  0  0  0  0  0  # atno 6908 bound_to 6896
  151.6513  135.1003  160.0212 H   0  0  0  0  0  0  0  0  0  0  0  0  # atno 6909 bound_to 6896
  144.7141  140.1688  143.6369 H   0  0  0  0  0  0  0  0  0  0  0  0  # atno 7974 bound_to 7965
  155.2023  140.0416  157.2919 H   0  0  0  0  0  0  0  0  0  0  0  0  # atno 8008 bound_to 7997
  154.6066  140.2466  155.7694 H   0  0  0  0  0  0  0  0  0  0  0  0  # atno 8009 bound_to 7997
  156.2354  140.2923  156.0307 H   0  0  0  0  0  0  0  0  0  0  0  0  # atno 8010 bound_to 7997
  140.5408  143.9680  150.6518 H   0  0  0  0  0  0  0  0  0  0  0  0  # atno 10167 bound_to 10162
  156.4865  130.8327  151.2552 H   0  0  0  0  0  0  0  0  0  0  0  0  # atno 10718 bound_to 10713
  153.7270  135.6941  153.4999 H   0  0  0  0  0  0  0  0  0  0  0  0  # atno 10763 bound_to 10752
  153.2163  135.4385  155.0437 H   0  0  0  0  0  0  0  0  0  0  0  0  # atno 10764 bound_to 10752
  154.8266  135.3449  154.6801 H   0  0  0  0  0  0  0  0  0  0  0  0  # atno 10765 bound_to 10752
  139.8773  134.9184  156.4911 H   0  0  0  0  0  0  0  0  0  0  0  0  # atno 11005 bound_to 11000
  145.8963  139.2404  143.1520 LP  0  0  0  0  0  0  0  0  0  0  0  0  # atno 17320 bound_to 7965
  145.9855  140.8647  143.0093 LP  0  0  0  0  0  0  0  0  0  0  0  0  # atno 17321 bound_to 7965
  140.3080  143.3217  152.0907 LP  0  0  0  0  0  0  0  0  0  0  0  0  # atno 17342 bound_to 10162
  139.4988  144.6655  151.6367 LP  0  0  0  0  0  0  0  0  0  0  0  0  # atno 17343 bound_to 10162
  157.7478  131.0028  150.3013 LP  0  0  0  0  0  0  0  0  0  0  0  0  # atno 17370 bound_to 10713
  156.3469  130.3824  149.7361 LP  0  0  0  0  0  0  0  0  0  0  0  0  # atno 17371 bound_to 10713
  140.8658  133.8025  155.9312 LP  0  0  0  0  0  0  0  0  0  0  0  0  # atno 17394 bound_to 11000
  140.9003  134.2386  157.5045 LP  0  0  0  0  0  0  0  0  0  0  0  0  # atno 17395 bound_to 11000

$$$$
