AV-unprocessed.smi:273|AV-procd|sdf|2056|dock3
  -GOLD-   2262021293D 1   1.00000     0.00000
 Structure written by MMmdl.
 59 62  0  0  0  0  0  0  0  0  1 V2000
  151.8817  145.2302  159.6150 C   0  0  0  0  0  0  0  0  0  0  0  0
  152.4304  143.9742  158.9314 C   0  0  0  0  0  0  0  0  0  0  0  0
  151.4409  143.4151  158.0216 N   0  0  0  0  0  0  0  0  0  0  0  0
  150.7529  142.2836  158.2412 C   0  0  0  0  0  0  0  0  0  0  0  0
  150.9035  141.6089  159.2601 O   0  0  0  0  0  0  0  0  0  0  0  0
  149.7288  141.8402  157.1773 C   0  0  0  0  0  0  0  0  0  0  0  0
  148.9605  140.5793  157.6302 C   0  0  0  0  0  0  0  0  0  0  0  0
  147.9219  140.1470  156.5828 C   0  0  0  0  0  0  0  0  0  0  0  0
  148.5416  139.9710  155.2705 N   0  0  0  0  0  0  0  0  0  0  0  0
  147.7834  139.2779  154.3834 C   0  0  0  0  0  0  0  0  0  0  0  0
  147.3521  139.8787  153.2415 N   0  0  0  0  0  0  0  0  0  0  0  0
  146.5904  139.2090  152.3715 C   0  0  0  0  0  0  0  0  0  0  0  0
  146.1493  137.9518  152.4442 N   0  0  0  0  0  0  0  0  0  0  0  0
  146.5863  137.3410  153.5821 C   0  0  0  0  0  0  0  0  0  0  0  0
  147.4004  137.9231  154.5942 C   0  0  0  0  0  0  0  0  0  0  0  0
  147.6509  136.9893  155.5936 N   0  0  0  0  0  0  0  0  0  0  0  0
  147.0129  135.9208  155.2001 C   0  0  0  0  0  0  0  0  0  0  0  0
  146.3400  136.0480  154.0061 N   0  0  0  0  0  0  0  0  0  0  0  0
  145.5465  135.0317  153.3384 C   0  0  0  0  0  0  0  0  0  0  0  0
  144.7782  135.5733  152.1074 C   0  0  2  0  0  0  0  0  0  0  0  0
  143.4991  136.3530  152.4983 C   0  0  0  0  0  0  0  0  0  0  0  0
  143.6604  137.7431  152.3023 O   0  0  0  0  0  0  0  0  0  0  0  0
  144.4962  134.4536  151.0744 C   0  0  1  0  0  0  0  0  0  0  0  0
  145.6913  133.5801  150.7343 C   0  0  0  0  0  0  0  0  0  0  0  0
  145.0331  132.3451  150.1274 C   0  0  0  0  0  0  0  0  0  0  0  0
  143.7656  132.2268  150.7640 O   0  0  0  0  0  0  0  0  0  0  0  0
  143.5050  133.3859  151.5484 C   0  0  0  0  0  0  0  0  0  0  0  0
  149.2670  141.1400  154.7725 C   0  0  0  0  0  0  0  0  0  0  0  0
  150.3393  141.5906  155.7770 C   0  0  0  0  0  0  0  0  0  0  0  0
  152.6145  145.6468  160.3064 H   0  0  0  0  0  0  0  0  0  0  0  0
  150.9776  145.0078  160.1829 H   0  0  0  0  0  0  0  0  0  0  0  0
  151.6388  146.0018  158.8837 H   0  0  0  0  0  0  0  0  0  0  0  0
  153.3410  144.2195  158.3824 H   0  0  0  0  0  0  0  0  0  0  0  0
  152.6950  143.2267  159.6809 H   0  0  0  0  0  0  0  0  0  0  0  0
  151.2652  143.9209  157.1655 H   0  0  0  0  0  0  0  0  0  0  0  0
  149.0122  142.6580  157.0884 H   0  0  0  0  0  0  0  0  0  0  0  0
  149.6609  139.7602  157.8014 H   0  0  0  0  0  0  0  0  0  0  0  0
  148.4536  140.7563  158.5798 H   0  0  0  0  0  0  0  0  0  0  0  0
  147.4342  139.2328  156.9193 H   0  0  0  0  0  0  0  0  0  0  0  0
  147.1407  140.9040  156.5017 H   0  0  0  0  0  0  0  0  0  0  0  0
  146.2886  139.7603  151.4931 H   0  0  0  0  0  0  0  0  0  0  0  0
  147.0084  135.0074  155.7771 H   0  0  0  0  0  0  0  0  0  0  0  0
  146.2212  134.2261  153.0481 H   0  0  0  0  0  0  0  0  0  0  0  0
  144.8510  134.6046  154.0618 H   0  0  0  0  0  0  0  0  0  0  0  0
  145.4352  136.2957  151.6205 H   0  0  0  0  0  0  0  0  0  0  0  0
  142.6415  136.0147  151.9167 H   0  0  0  0  0  0  0  0  0  0  0  0
  143.2383  136.1749  153.5412 H   0  0  0  0  0  0  0  0  0  0  0  0
  143.5942  137.9259  151.3773 H   0  0  0  0  0  0  0  0  0  0  0  0
  144.1147  134.8932  150.1513 H   0  0  0  0  0  0  0  0  0  0  0  0
  146.3921  134.0558  150.0476 H   0  0  0  0  0  0  0  0  0  0  0  0
  146.2334  133.3060  151.6405 H   0  0  0  0  0  0  0  0  0  0  0  0
  144.8716  132.4859  149.0580 H   0  0  0  0  0  0  0  0  0  0  0  0
  145.6333  131.4454  150.2641 H   0  0  0  0  0  0  0  0  0  0  0  0
  143.6779  133.1356  152.5961 H   0  0  0  0  0  0  0  0  0  0  0  0
  142.4667  133.7017  151.4444 H   0  0  0  0  0  0  0  0  0  0  0  0
  149.7416  140.9074  153.8181 H   0  0  0  0  0  0  0  0  0  0  0  0
  148.5616  141.9529  154.5928 H   0  0  0  0  0  0  0  0  0  0  0  0
  150.8182  142.4944  155.3980 H   0  0  0  0  0  0  0  0  0  0  0  0
  151.1149  140.8252  155.8382 H   0  0  0  0  0  0  0  0  0  0  0  0
  1  2  1  0  0  0  0
  1 30  1  0  0  0  0
  1 31  1  0  0  0  0
  1 32  1  0  0  0  0
  2  3  1  0  0  0  0
  2 33  1  0  0  0  0
  2 34  1  0  0  0  0
  3  4  1  0  0  0  0
  3 35  1  0  0  0  0
  4  5  2  0  0  0  0
  4  6  1  0  0  0  0
  6 29  1  0  0  0  0
  6  7  1  0  0  0  0
  6 36  1  0  0  0  0
  7  8  1  0  0  0  0
  7 37  1  0  0  0  0
  7 38  1  0  0  0  0
  8  9  1  0  0  0  0
  8 39  1  0  0  0  0
  8 40  1  0  0  0  0
  9 10  1  0  0  0  0
  9 28  1  0  0  0  0
 10 15  1  0  0  0  0
 10 11  2  0  0  0  0
 11 12  1  0  0  0  0
 12 13  2  0  0  0  0
 12 41  1  0  0  0  0
 13 14  1  0  0  0  0
 14 18  1  0  0  0  0
 14 15  2  0  0  0  0
 15 16  1  0  0  0  0
 16 17  2  0  0  0  0
 17 18  1  0  0  0  0
 17 42  1  0  0  0  0
 18 19  1  0  0  0  0
 19 20  1  0  0  0  0
 19 43  1  0  0  0  0
 19 44  1  0  0  0  0
 20 21  1  0  0  0  0
 20 23  1  0  0  0  0
 20 45  1  0  0  0  0
 21 22  1  0  0  0  0
 21 46  1  0  0  0  0
 21 47  1  0  0  0  0
 22 48  1  0  0  0  0
 23 27  1  0  0  0  0
 23 24  1  0  0  0  0
 23 49  1  0  0  0  0
 24 25  1  0  0  0  0
 24 50  1  0  0  0  0
 24 51  1  0  0  0  0
 25 26  1  0  0  0  0
 25 52  1  0  0  0  0
 25 53  1  0  0  0  0
 26 27  1  0  0  0  0
 27 54  1  0  0  0  0
 27 55  1  0  0  0  0
 28 29  1  0  0  0  0
 28 56  1  0  0  0  0
 28 57  1  0  0  0  0
 29 58  1  0  0  0  0
 29 59  1  0  0  0  0
M  END
> <s_m_source_file>
AV-unprocessed.smi

> <i_m_source_file_index>
273

> <i_lp_mmshare_version>
43012

> <i_f3d_flags>
0

> <s_epik_input>
W0NIM11bQ0gyXVtOSF1DKD1PKVtDSF0xW0NIMl1bQ0gyXU4oW0NIMl1bQ0gyXTEpYyhuW2NIXW4yKWMoYzIzKW5bY0hdbjNbQ0gyXVtDQEhdKFtDSDJdW09IXSlbQ0BASF00W0NIMl1bQ0gyXU9bQ0gyXTQ=

> <s_epik_cmdline>
J2VwaWtfcHl0aG9uJywgJy1waCcsICc3LjAnLCAnLXRuJywgJzgnLCAnLW1hJywgJzIwMCcsICctbWV0YWxfYmluZGluZycsICctaW1hZScsICc8aW5maWxlLm1hZT4nLCAnLW9tYWUnLCAnPG91dGZpbGUubWFlPic=

> <r_lp_tautomer_probability>
1

> <r_epik_Ionization_Penalty>
0.00226556

> <r_epik_Ionization_Penalty_Charging>
0

> <r_epik_Ionization_Penalty_Neutral>
0.00226556

> <r_epik_State_Penalty>
0.00139883

> <r_epik_Charging_Adjusted_Penalty>
0.00139883

> <i_epik_Tot_Q>
0

> <i_epik_Tot_abs_Q>
0

> <r_epik_Metal_State_Penalty>
-0

> <b_epik_Metal_Only>
0

> <s_lp_Force_Field>
OPLS_2005

> <r_lp_Energy>
43.2491

> <b_lp_Chiralities_Consistent>
1

> <s_lp_Variant>
AV-unprocessed.smi:273-3

> <Gold.Version>
5.8.1

> <Gold.Id.Protein>
6NUR|6NUR_protein|mol2

> <Gold.PLP.Fitness>
44.3157

> <Gold.PLP.PLP>
-43.2684

> <Gold.PLP.part.hbond>
-2.4897

> <Gold.PLP.part.metal>
0.0000

> <Gold.PLP.part.buried>
-7.6081

> <Gold.PLP.part.nonpolar>
-34.9832

> <Gold.PLP.part.repulsive>
1.3613

> <Gold.PLP.ligand.clash>
0.0000

> <Gold.PLP.ligand.torsion>
1.4480

> <Gold.PLP.Chemscore.Hbond>
1.0000

> <Gold.PLP.Chemscore.CHOScore>
0.1095

> <Gold.PLP.Chemscore.Metal>
0.0000

> <Gold.Chemscore.Hbonds>
donor molecule, donor type, donor heavy atom, donor atom, acceptor molecule, acceptor atom, score
      L1  H    22    48       P1 10171  1.00
      L1  C    12    41       P1 10175  0.07

> <Gold.PLP.Chemscore.Internal.Correction>
0.6148

> <Gold.Rescore>
     Score         DG    S(hbond)    S(metal)    S(lipo)     H(rot)  DE(clash)    DE(int)     intcor
      7.86     -10.96       0.96        0.00      89.88       3.22       0.03       3.07       ----

> <Gold.Chemscore.Fitness>
7.8620

> <Gold.Chemscore.DG>
-10.9622

> <Gold.Chemscore.ZeroCoef>
-5.4800

> <Gold.Chemscore.Hbond>
0.9642

> <Gold.Chemscore.Metal>
0.0000

> <Gold.Chemscore.Lipo>
89.8841

> <Gold.Chemscore.Internal_Hbond>
0.0000

> <Gold.Chemscore.DEClash>
0.0304

> <Gold.Chemscore.DEInternal>
3.0698

> <Gold.Chemscore.Rot>
3.2244

> <Gold.Chemscore.Internal.Correction>
   9.000000E+99

> <Gold.Chemscore.Hbonds>
donor molecule, donor type, donor heavy atom, donor atom, acceptor molecule, acceptor atom, score
      L1  H    22    48       P1 10171  0.96

> <Gold.Chemscore.Hbond.Weighted>
-3.2203

> <Gold.Chemscore.Metal.Weighted>
-0.0000

> <Gold.Chemscore.Lipo.Weighted>
-10.5164

> <Gold.Chemscore.Internal_Hbond.Weighted>
0.0000

> <Gold.Chemscore.DEClash.Weighted>
0.0304

> <Gold.Chemscore.DEInternal.Weighted>
3.0698

> <Gold.Chemscore.Rot.Weighted>
8.2545

> <Gold.Chemscore.Internal.Correction.Weighted>
   9.000000E+99

> <Gold.Protein.RotatedTorsions>
[ 6907 6896 6895 6894 ] final  -20.85 input  -60.11 | X-H torsion
[ 7974 7965 7964 7962 ] final   56.58 input  175.53 | X-H torsion
[ 8008 7997 7996 7995 ] final   11.78 input   59.86 | X-H torsion
[ 10167 10162 10161 10158 ] final  128.73 input  -65.29 | X-H torsion
[ 10718 10713 10712 10709 ] final  -17.69 input   66.30 | X-H torsion
[ 10763 10752 10751 10750 ] final  128.51 input  -60.55 | X-H torsion
[ 11005 11000 10999 10996 ] final -149.25 input  -57.11 | X-H torsion

> <Gold.Protein.ActiveResidues>
 VAL166  LYS551  ARG553  GLY616  TRP617  ASP618  TYR619  PRO620  LYS621  CYS622 
 ASP623  PHE694  ASN695  SER759  ASP760  ASP761  ALA762  ILE779  LEU786  VAL792 
 PHE793  MET794  SER795  GLU796  ALA797  LYS798  CYS799  TRP800  GLU811  SER814 

> <Gold.Protein.RotatedAtoms>
  151.2420  135.0592  159.9028 H   0  0  0  0  0  0  0  0  0  0  0  0  # atno 6907 bound_to 6896
  152.5392  134.0424  159.8083 H   0  0  0  0  0  0  0  0  0  0  0  0  # atno 6908 bound_to 6896
  151.0619  133.5488  159.2665 H   0  0  0  0  0  0  0  0  0  0  0  0  # atno 6909 bound_to 6896
  145.9383  139.3866  143.0379 H   0  0  0  0  0  0  0  0  0  0  0  0  # atno 7974 bound_to 7965
  154.8116  140.2869  155.5849 H   0  0  0  0  0  0  0  0  0  0  0  0  # atno 8008 bound_to 7997
  156.2989  140.2567  156.2935 H   0  0  0  0  0  0  0  0  0  0  0  0  # atno 8009 bound_to 7997
  154.9441  140.0380  157.2101 H   0  0  0  0  0  0  0  0  0  0  0  0  # atno 8010 bound_to 7997
  139.5513  144.6815  151.4317 H   0  0  0  0  0  0  0  0  0  0  0  0  # atno 10167 bound_to 10162
  156.5700  130.4747  149.6367 H   0  0  0  0  0  0  0  0  0  0  0  0  # atno 10718 bound_to 10713
  153.7267  135.3245  155.3278 H   0  0  0  0  0  0  0  0  0  0  0  0  # atno 10763 bound_to 10752
  154.8339  135.4512  154.1163 H   0  0  0  0  0  0  0  0  0  0  0  0  # atno 10764 bound_to 10752
  153.2298  135.6958  153.7983 H   0  0  0  0  0  0  0  0  0  0  0  0  # atno 10765 bound_to 10752
  140.7527  134.3388  157.5122 H   0  0  0  0  0  0  0  0  0  0  0  0  # atno 11005 bound_to 11000
  145.8334  140.9618  143.0837 LP  0  0  0  0  0  0  0  0  0  0  0  0  # atno 17320 bound_to 7965
  144.6775  140.0192  143.7484 LP  0  0  0  0  0  0  0  0  0  0  0  0  # atno 17321 bound_to 7965
  140.6775  143.8156  150.7078 LP  0  0  0  0  0  0  0  0  0  0  0  0  # atno 17342 bound_to 10162
  140.1599  143.4284  152.2074 LP  0  0  0  0  0  0  0  0  0  0  0  0  # atno 17343 bound_to 10162
  156.2723  130.7024  151.1825 LP  0  0  0  0  0  0  0  0  0  0  0  0  # atno 17370 bound_to 10713
  157.7350  131.0576  150.5493 LP  0  0  0  0  0  0  0  0  0  0  0  0  # atno 17371 bound_to 10713
  139.8785  134.9152  156.3125 LP  0  0  0  0  0  0  0  0  0  0  0  0  # atno 17394 bound_to 11000
  140.9736  133.7311  156.0570 LP  0  0  0  0  0  0  0  0  0  0  0  0  # atno 17395 bound_to 11000

$$$$
