AV-unprocessed.smi:537|AV-procd|sdf|2865|dock5
  -GOLD-   2262023353D 1   1.00000     0.00000
 Structure written by MMmdl.
 32 33  0  0  0  0  0  0  0  0  2 V2000
  147.8638  141.9238  154.1031 C   0  0  0  0  0  0  0  0  0  0  0  0
  148.9510  141.9124  155.0615 N   0  0  0  0  0  0  0  0  0  0  0  0
  149.7832  140.8905  155.5023 C   0  0  0  0  0  0  0  0  0  0  0  0
  149.7170  139.6285  155.0758 N   0  0  0  0  0  0  0  0  0  0  0  0
  150.7373  139.0165  155.7904 C   0  0  0  0  0  0  0  0  0  0  0  0
  151.3743  139.9001  156.6055 C   0  0  0  0  0  0  0  0  0  0  0  0
  152.5116  139.5385  157.4795 C   0  0  0  0  0  0  0  0  0  0  0  0
  153.0599  140.3772  158.1916 O   0  0  0  0  0  0  0  0  0  0  0  0
  152.8380  138.2109  157.3774 N   0  5  0  0  0  0  0  0  0  0  0  0
  152.2176  137.2812  156.5698 C   0  0  0  0  0  0  0  0  0  0  0  0
  152.5810  136.1051  156.5461 O   0  0  0  0  0  0  0  0  0  0  0  0
  151.1699  137.6644  155.7712 N   0  0  0  0  0  0  0  0  0  0  0  0
  150.4579  136.7382  154.8853 C   0  0  0  0  0  0  0  0  0  0  0  0
  150.7462  141.1364  156.4252 N   0  0  0  0  0  0  0  0  0  0  0  0
  151.0444  142.4157  157.0639 C   0  0  0  0  0  0  0  0  0  0  0  0
  151.0208  142.3180  158.5966 C   0  0  0  0  0  0  0  0  0  0  0  0
  151.1177  143.6113  159.1698 O   0  0  0  0  0  0  0  0  0  0  0  0
  152.2280  144.3424  158.6823 C   0  0  0  0  0  0  0  0  0  0  0  0
  147.4329  142.9223  154.0321 H   0  0  0  0  0  0  0  0  0  0  0  0
  147.0820  141.2286  154.4094 H   0  0  0  0  0  0  0  0  0  0  0  0
  148.2240  141.6290  153.1174 H   0  0  0  0  0  0  0  0  0  0  0  0
  149.1312  142.8114  155.4842 H   0  0  0  0  0  0  0  0  0  0  0  0
  150.8221  135.7111  154.9183 H   0  0  0  0  0  0  0  0  0  0  0  0
  150.5385  137.0781  153.8525 H   0  0  0  0  0  0  0  0  0  0  0  0
  149.4001  136.7145  155.1483 H   0  0  0  0  0  0  0  0  0  0  0  0
  152.0239  142.7586  156.7298 H   0  0  0  0  0  0  0  0  0  0  0  0
  150.3441  143.1725  156.7158 H   0  0  0  0  0  0  0  0  0  0  0  0
  150.0966  141.8383  158.9229 H   0  0  0  0  0  0  0  0  0  0  0  0
  151.8489  141.6956  158.9381 H   0  0  0  0  0  0  0  0  0  0  0  0
  152.2527  145.3258  159.1517 H   0  0  0  0  0  0  0  0  0  0  0  0
  152.1624  144.4855  157.6031 H   0  0  0  0  0  0  0  0  0  0  0  0
  153.1659  143.8354  158.9127 H   0  0  0  0  0  0  0  0  0  0  0  0
  1  2  1  0  0  0  0
  1 19  1  0  0  0  0
  1 20  1  0  0  0  0
  1 21  1  0  0  0  0
  2  3  1  0  0  0  0
  2 22  1  0  0  0  0
  3 14  1  0  0  0  0
  3  4  2  0  0  0  0
  4  5  1  0  0  0  0
  5 12  1  0  0  0  0
  5  6  2  0  0  0  0
  6  7  1  0  0  0  0
  6 14  1  0  0  0  0
  7  8  2  0  0  0  0
  7  9  1  0  0  0  0
  9 10  1  0  0  0  0
 10 11  2  0  0  0  0
 10 12  1  0  0  0  0
 12 13  1  0  0  0  0
 13 23  1  0  0  0  0
 13 24  1  0  0  0  0
 13 25  1  0  0  0  0
 14 15  1  0  0  0  0
 15 16  1  0  0  0  0
 15 26  1  0  0  0  0
 15 27  1  0  0  0  0
 16 17  1  0  0  0  0
 16 28  1  0  0  0  0
 16 29  1  0  0  0  0
 17 18  1  0  0  0  0
 18 30  1  0  0  0  0
 18 31  1  0  0  0  0
 18 32  1  0  0  0  0
M  CHG  1   9  -1
M  END
> <s_m_source_file>
AV-unprocessed.smi

> <i_m_source_file_index>
537

> <i_lp_mmshare_version>
43012

> <i_f3d_flags>
0

> <s_epik_input>
W0NIM11PW0NIMl1bQ0gyXW4oYyhuMSlbTkhdW0NIM10pYyhjMTIpYyg9TylbbkhdYyg9TyluMltDSDNd

> <s_epik_cmdline>
J2VwaWtfcHl0aG9uJywgJy1waCcsICc3LjAnLCAnLXRuJywgJzgnLCAnLW1hJywgJzIwMCcsICctbWV0YWxfYmluZGluZycsICctaW1hZScsICc8aW5maWxlLm1hZT4nLCAnLW9tYWUnLCAnPG91dGZpbGUubWFlPic=

> <r_lp_tautomer_probability>
1

> <r_epik_Ionization_Penalty>
6.3083

> <r_epik_Ionization_Penalty_Charging>
1.44173e-08

> <r_epik_Ionization_Penalty_Neutral>
6.3083

> <r_epik_State_Penalty>
6.30819

> <r_epik_Charging_Adjusted_Penalty>
6.30819

> <i_epik_Tot_Q>
-1

> <i_epik_Tot_abs_Q>
1

> <r_epik_Metal_State_Penalty>
2.24297

> <b_epik_Metal_Only>
1

> <s_lp_Force_Field>
OPLS_2005

> <r_lp_Energy>
24.4874

> <b_lp_Chiralities_Consistent>
1

> <s_lp_Variant>
AV-unprocessed.smi:537-2

> <Gold.Version>
5.8.1

> <Gold.Id.Protein>
6NUR|6NUR_protein|mol2

> <Gold.PLP.Fitness>
34.5812

> <Gold.PLP.PLP>
-27.5844

> <Gold.PLP.part.hbond>
-3.0000

> <Gold.PLP.part.metal>
0.0000

> <Gold.PLP.part.buried>
-2.3583

> <Gold.PLP.part.nonpolar>
-22.7088

> <Gold.PLP.part.repulsive>
0.3211

> <Gold.PLP.ligand.clash>
0.0000

> <Gold.PLP.ligand.torsion>
0.0575

> <Gold.PLP.Chemscore.Hbond>
2.3696

> <Gold.PLP.Chemscore.CHOScore>
0.0000

> <Gold.PLP.Chemscore.Metal>
0.0000

> <Gold.Chemscore.Hbonds>
donor molecule, donor type, donor heavy atom, donor atom, acceptor molecule, acceptor atom, score
      L1  H     2    22       P1  8028  1.00
      P1  H  7997  8009       L1     8  0.30
      P1  H 10752 10765       L1    11  0.98

> <Gold.PLP.Chemscore.Internal.Correction>
0.0030

> <Gold.Rescore>
     Score         DG    S(hbond)    S(metal)    S(lipo)     H(rot)  DE(clash)    DE(int)     intcor
     11.95     -13.41       1.94        0.00      48.32       1.64       0.03       1.43       ----

> <Gold.Chemscore.Fitness>
11.9478

> <Gold.Chemscore.DG>
-13.4061

> <Gold.Chemscore.ZeroCoef>
-5.4800

> <Gold.Chemscore.Hbond>
1.9404

> <Gold.Chemscore.Metal>
0.0000

> <Gold.Chemscore.Lipo>
48.3229

> <Gold.Chemscore.Internal_Hbond>
0.0000

> <Gold.Chemscore.DEClash>
0.0329

> <Gold.Chemscore.DEInternal>
1.4255

> <Gold.Chemscore.Rot>
1.6439

> <Gold.Chemscore.Internal.Correction>
   9.000000E+99

> <Gold.Chemscore.Hbonds>
donor molecule, donor type, donor heavy atom, donor atom, acceptor molecule, acceptor atom, score
      L1  H     2    22       P1  8028  0.96
      P1  H  7997  8009       L1     8  0.01
      P1  H 10752 10765       L1    11  0.87

> <Gold.Chemscore.Hbond.Weighted>
-6.4808

> <Gold.Chemscore.Metal.Weighted>
-0.0000

> <Gold.Chemscore.Lipo.Weighted>
-5.6538

> <Gold.Chemscore.Internal_Hbond.Weighted>
0.0000

> <Gold.Chemscore.DEClash.Weighted>
0.0329

> <Gold.Chemscore.DEInternal.Weighted>
1.4255

> <Gold.Chemscore.Rot.Weighted>
4.2085

> <Gold.Chemscore.Internal.Correction.Weighted>
   9.000000E+99

> <Gold.Protein.RotatedTorsions>
[ 6907 6896 6895 6894 ] final   36.04 input  -60.11 | X-H torsion
[ 7974 7965 7964 7962 ] final -149.65 input  175.53 | X-H torsion
[ 8008 7997 7996 7995 ] final  138.04 input   59.86 | X-H torsion
[ 10167 10162 10161 10158 ] final   34.99 input  -65.29 | X-H torsion
[ 10718 10713 10712 10709 ] final -135.96 input   66.30 | X-H torsion
[ 10763 10752 10751 10750 ] final -156.14 input  -60.55 | X-H torsion
[ 11005 11000 10999 10996 ] final -116.56 input  -57.11 | X-H torsion

> <Gold.Protein.ActiveResidues>
 VAL166  LYS551  ARG553  GLY616  TRP617  ASP618  TYR619  PRO620  LYS621  CYS622 
 ASP623  PHE694  ASN695  SER759  ASP760  ASP761  ALA762  ILE779  LEU786  VAL792 
 PHE793  MET794  SER795  GLU796  ALA797  LYS798  CYS799  TRP800  GLU811  SER814 

> <Gold.Protein.RotatedAtoms>
  152.1244  134.9182  160.0561 H   0  0  0  0  0  0  0  0  0  0  0  0  # atno 6907 bound_to 6896
  152.0310  133.3932  159.4305 H   0  0  0  0  0  0  0  0  0  0  0  0  # atno 6908 bound_to 6896
  150.6851  134.3442  159.4924 H   0  0  0  0  0  0  0  0  0  0  0  0  # atno 6909 bound_to 6896
  144.7955  140.5037  143.5743 H   0  0  0  0  0  0  0  0  0  0  0  0  # atno 7974 bound_to 7965
  156.2999  140.2404  156.4007 H   0  0  0  0  0  0  0  0  0  0  0  0  # atno 8008 bound_to 7997
  154.8529  140.0423  157.1636 H   0  0  0  0  0  0  0  0  0  0  0  0  # atno 8009 bound_to 7997
  154.8979  140.2972  155.5338 H   0  0  0  0  0  0  0  0  0  0  0  0  # atno 8010 bound_to 7997
  140.4264  144.1387  150.6154 H   0  0  0  0  0  0  0  0  0  0  0  0  # atno 10167 bound_to 10162
  156.2719  130.7270  151.1240 H   0  0  0  0  0  0  0  0  0  0  0  0  # atno 10718 bound_to 10713
  154.7735  135.3152  154.8140 H   0  0  0  0  0  0  0  0  0  0  0  0  # atno 10763 bound_to 10752
  153.8869  135.6829  153.4767 H   0  0  0  0  0  0  0  0  0  0  0  0  # atno 10764 bound_to 10752
  153.1354  135.4762  154.9349 H   0  0  0  0  0  0  0  0  0  0  0  0  # atno 10765 bound_to 10752
  141.0414  133.9830  157.2988 H   0  0  0  0  0  0  0  0  0  0  0  0  # atno 11005 bound_to 11000
  145.5685  139.1482  143.3301 LP  0  0  0  0  0  0  0  0  0  0  0  0  # atno 17320 bound_to 7965
  146.2221  140.5819  142.9012 LP  0  0  0  0  0  0  0  0  0  0  0  0  # atno 17321 bound_to 7965
  140.4477  143.2500  151.9390 LP  0  0  0  0  0  0  0  0  0  0  0  0  # atno 17342 bound_to 10162
  139.4783  144.5593  151.8264 LP  0  0  0  0  0  0  0  0  0  0  0  0  # atno 17343 bound_to 10162
  157.7286  131.0630  150.5810 LP  0  0  0  0  0  0  0  0  0  0  0  0  # atno 17370 bound_to 10713
  156.5908  130.4328  149.5937 LP  0  0  0  0  0  0  0  0  0  0  0  0  # atno 17371 bound_to 10713
  139.9279  135.0201  156.8297 LP  0  0  0  0  0  0  0  0  0  0  0  0  # atno 17394 bound_to 11000
  140.6227  133.9979  155.7626 LP  0  0  0  0  0  0  0  0  0  0  0  0  # atno 17395 bound_to 11000

$$$$
