AV-unprocessed.smi:3290|AV-procd|sdf|12612|dock7
  -GOLD-   2272018543D 1   1.00000     0.00000
 Structure written by MMmdl.
 43 44  0  0  0  0  0  0  0  0  2 V2000
  146.8515  132.9102  152.4748 C   0  0  0  0  0  0  0  0  0  0  0  0
  146.2112  133.6344  151.2732 C   0  0  1  0  0  0  0  0  0  0  0  0
  145.8835  132.6532  150.1274 C   0  0  0  0  0  0  0  0  0  0  0  0
  144.6708  131.7630  150.4452 C   0  0  0  0  0  0  0  0  0  0  0  0
  143.4414  132.6099  150.8029 C   0  0  0  0  0  0  0  0  0  0  0  0
  143.7458  133.5842  151.9516 C   0  0  0  0  0  0  0  0  0  0  0  0
  144.9584  134.4844  151.6312 C   0  0  1  0  0  0  0  0  0  0  0  0
  145.1952  135.5144  152.7548 C   0  0  0  0  0  0  0  0  0  0  0  0
  146.1223  136.5825  152.3320 N   0  3  0  0  0  0  0  0  0  0  0  0
  146.2648  137.6802  153.3091 C   0  0  0  0  0  0  0  0  0  0  0  0
  146.8391  138.9472  152.6522 C   0  0  2  0  0  0  0  0  0  0  0  0
  147.2535  138.6290  151.3376 O   0  0  0  0  0  0  0  0  0  0  0  0
  147.9778  139.5253  153.4773 C   0  0  0  0  0  0  0  0  0  0  0  0
  148.9618  138.6785  154.0293 C   0  0  0  0  0  0  0  0  0  0  0  0
  150.0037  139.2567  154.7822 C   0  0  0  0  0  0  0  0  0  0  0  0
  150.1115  140.5845  155.0009 N   0  0  0  0  0  0  0  0  0  0  0  0
  149.1689  141.3912  154.4682 C   0  0  0  0  0  0  0  0  0  0  0  0
  148.0869  140.9151  153.7009 C   0  0  0  0  0  0  0  0  0  0  0  0
  146.1479  132.2490  152.9798 H   0  0  0  0  0  0  0  0  0  0  0  0
  147.2320  133.6159  153.2127 H   0  0  0  0  0  0  0  0  0  0  0  0
  147.6985  132.3029  152.1552 H   0  0  0  0  0  0  0  0  0  0  0  0
  146.9736  134.3116  150.8865 H   0  0  0  0  0  0  0  0  0  0  0  0
  145.6756  133.2206  149.2190 H   0  0  0  0  0  0  0  0  0  0  0  0
  146.7510  132.0324  149.9002 H   0  0  0  0  0  0  0  0  0  0  0  0
  144.4445  131.1274  149.5885 H   0  0  0  0  0  0  0  0  0  0  0  0
  144.9077  131.0899  151.2695 H   0  0  0  0  0  0  0  0  0  0  0  0
  143.1183  133.1710  149.9252 H   0  0  0  0  0  0  0  0  0  0  0  0
  142.6095  131.9602  151.0763 H   0  0  0  0  0  0  0  0  0  0  0  0
  142.8652  134.1999  152.1394 H   0  0  0  0  0  0  0  0  0  0  0  0
  143.9239  133.0245  152.8702 H   0  0  0  0  0  0  0  0  0  0  0  0
  144.6941  135.0522  150.7373 H   0  0  0  0  0  0  0  0  0  0  0  0
  144.2471  135.9772  153.0321 H   0  0  0  0  0  0  0  0  0  0  0  0
  145.5751  135.0276  153.6534 H   0  0  0  0  0  0  0  0  0  0  0  0
  147.0347  136.1740  152.1856 H   0  0  0  0  0  0  0  0  0  0  0  0
  145.2824  137.8959  153.7317 H   0  0  0  0  0  0  0  0  0  0  0  0
  146.9039  137.3565  154.1323 H   0  0  0  0  0  0  0  0  0  0  0  0
  146.0539  139.7004  152.5726 H   0  0  0  0  0  0  0  0  0  0  0  0
  147.8213  137.8739  151.3768 H   0  0  0  0  0  0  0  0  0  0  0  0
  148.9246  137.6092  153.8828 H   0  0  0  0  0  0  0  0  0  0  0  0
  150.7717  138.6354  155.2187 H   0  0  0  0  0  0  0  0  0  0  0  0
  149.2807  142.4485  154.6575 H   0  0  0  0  0  0  0  0  0  0  0  0
  147.3614  141.6048  153.2949 H   0  0  0  0  0  0  0  0  0  0  0  0
  145.7972  136.9670  151.4566 H   0  0  0  0  0  0  0  0  0  0  0  0
  1  2  1  0  0  0  0
  1 19  1  0  0  0  0
  1 20  1  0  0  0  0
  1 21  1  0  0  0  0
  2  7  1  0  0  0  0
  2  3  1  0  0  0  0
  2 22  1  0  0  0  0
  3  4  1  0  0  0  0
  3 23  1  0  0  0  0
  3 24  1  0  0  0  0
  4  5  1  0  0  0  0
  4 25  1  0  0  0  0
  4 26  1  0  0  0  0
  5  6  1  0  0  0  0
  5 27  1  0  0  0  0
  5 28  1  0  0  0  0
  6  7  1  0  0  0  0
  6 29  1  0  0  0  0
  6 30  1  0  0  0  0
  7  8  1  0  0  0  0
  7 31  1  0  0  0  0
  8  9  1  0  0  0  0
  8 32  1  0  0  0  0
  8 33  1  0  0  0  0
  9 10  1  0  0  0  0
  9 34  1  0  0  0  0
  9 43  1  0  0  0  0
 10 11  1  0  0  0  0
 10 35  1  0  0  0  0
 10 36  1  0  0  0  0
 11 12  1  0  0  0  0
 11 13  1  0  0  0  0
 11 37  1  0  0  0  0
 12 38  1  0  0  0  0
 13 18  1  0  0  0  0
 13 14  2  0  0  0  0
 14 15  1  0  0  0  0
 14 39  1  0  0  0  0
 15 16  2  0  0  0  0
 15 40  1  0  0  0  0
 16 17  1  0  0  0  0
 17 18  2  0  0  0  0
 17 41  1  0  0  0  0
 18 42  1  0  0  0  0
M  CHG  1   9   1
M  END
> <s_m_source_file>
AV-unprocessed.smi

> <i_m_source_file_index>
3290

> <i_lp_mmshare_version>
43012

> <i_f3d_flags>
0

> <s_epik_input>
W0NIM11bQ0BASF0xW0NIMl1bQ0gyXVtDSDJdW0NIMl1bQ0BIXTFbQ0gyXVtOSF1bQ0gyXVtDQEhdKFtPSF0pYzJbY0hdW2NIXW5bY0hdW2NIXTI=

> <s_epik_cmdline>
J2VwaWtfcHl0aG9uJywgJy1waCcsICc3LjAnLCAnLXRuJywgJzgnLCAnLW1hJywgJzIwMCcsICctbWV0YWxfYmluZGluZycsICctaW1hZScsICc8aW5maWxlLm1hZT4nLCAnLW9tYWUnLCAnPG91dGZpbGUubWFlPic=

> <r_lp_tautomer_probability>
1

> <r_epik_Ionization_Penalty>
0.00420552

> <r_epik_Ionization_Penalty_Charging>
0.00207255

> <r_epik_Ionization_Penalty_Neutral>
0.00213297

> <r_epik_State_Penalty>
-0

> <r_epik_Charging_Adjusted_Penalty>
0.00207255

> <i_epik_Tot_Q>
1

> <i_epik_Tot_abs_Q>
1

> <r_epik_Metal_State_Penalty>
-0

> <b_epik_Metal_Only>
0

> <s_lp_Force_Field>
OPLS_2005

> <r_lp_Energy>
18.26

> <b_lp_Chiralities_Consistent>
1

> <s_lp_Variant>
AV-unprocessed.smi:3290-2

> <Gold.Version>
5.8.1

> <Gold.Id.Protein>
6NUR|6NUR_protein|mol2

> <Gold.PLP.Fitness>
49.1802

> <Gold.PLP.PLP>
-38.2881

> <Gold.PLP.part.hbond>
-5.0000

> <Gold.PLP.part.metal>
0.0000

> <Gold.PLP.part.buried>
-1.0587

> <Gold.PLP.part.nonpolar>
-32.6694

> <Gold.PLP.part.repulsive>
0.1188

> <Gold.PLP.ligand.clash>
0.0000

> <Gold.PLP.ligand.torsion>
1.3336

> <Gold.PLP.Chemscore.Hbond>
3.5072

> <Gold.PLP.Chemscore.CHOScore>
1.0000

> <Gold.PLP.Chemscore.Metal>
0.0000

> <Gold.Chemscore.Hbonds>
donor molecule, donor type, donor heavy atom, donor atom, acceptor molecule, acceptor atom, score
      L1  H     9    34       P1  7948  2.00
      L1  H    12    38       P1  7948  1.00
      P1  H  7989  7998       L1    16  0.41
      L1  C    17    41       P1  8028  1.00

> <Gold.PLP.Chemscore.Internal.Correction>
0.0379

> <Gold.Rescore>
     Score         DG    S(hbond)    S(metal)    S(lipo)     H(rot)  DE(clash)    DE(int)     intcor
     17.37     -18.32       1.99        0.00      97.73       2.05       0.04       0.91       ----

> <Gold.Chemscore.Fitness>
17.3703

> <Gold.Chemscore.DG>
-18.3176

> <Gold.Chemscore.ZeroCoef>
-5.4800

> <Gold.Chemscore.Hbond>
1.9913

> <Gold.Chemscore.Metal>
0.0000

> <Gold.Chemscore.Lipo>
97.7293

> <Gold.Chemscore.Internal_Hbond>
0.0000

> <Gold.Chemscore.DEClash>
0.0411

> <Gold.Chemscore.DEInternal>
0.9062

> <Gold.Chemscore.Rot>
2.0498

> <Gold.Chemscore.Internal.Correction>
   9.000000E+99

> <Gold.Chemscore.Hbonds>
donor molecule, donor type, donor heavy atom, donor atom, acceptor molecule, acceptor atom, score
      L1  H     9    34       P1  7948  0.98
      L1  H    12    38       P1  7948  0.95
      P1  H  7989  7998       L1    16  0.01

> <Gold.Chemscore.Hbond.Weighted>
-6.6508

> <Gold.Chemscore.Metal.Weighted>
-0.0000

> <Gold.Chemscore.Lipo.Weighted>
-11.4343

> <Gold.Chemscore.Internal_Hbond.Weighted>
0.0000

> <Gold.Chemscore.DEClash.Weighted>
0.0411

> <Gold.Chemscore.DEInternal.Weighted>
0.9062

> <Gold.Chemscore.Rot.Weighted>
5.2475

> <Gold.Chemscore.Internal.Correction.Weighted>
   9.000000E+99

> <Gold.Protein.RotatedTorsions>
[ 6907 6896 6895 6894 ] final  -77.59 input  -60.11 | X-H torsion
[ 7974 7965 7964 7962 ] final  171.84 input  175.53 | X-H torsion
[ 8008 7997 7996 7995 ] final  -78.73 input   59.86 | X-H torsion
[ 10167 10162 10161 10158 ] final  103.95 input  -65.29 | X-H torsion
[ 10718 10713 10712 10709 ] final  131.36 input   66.30 | X-H torsion
[ 10763 10752 10751 10750 ] final   48.34 input  -60.55 | X-H torsion
[ 11005 11000 10999 10996 ] final   11.46 input  -57.11 | X-H torsion

> <Gold.Protein.ActiveResidues>
 VAL166  LYS551  ARG553  GLY616  TRP617  ASP618  TYR619  PRO620  LYS621  CYS622 
 ASP623  PHE694  ASN695  SER759  ASP760  ASP761  ALA762  ILE779  LEU786  VAL792 
 PHE793  MET794  SER795  GLU796  ALA797  LYS798  CYS799  TRP800  GLU811  SER814 

> <Gold.Protein.RotatedAtoms>
  150.6995  134.4399  159.5287 H   0  0  0  0  0  0  0  0  0  0  0  0  # atno 6907 bound_to 6896
  152.2111  134.8498  160.0506 H   0  0  0  0  0  0  0  0  0  0  0  0  # atno 6908 bound_to 6896
  151.9383  133.3595  159.3992 H   0  0  0  0  0  0  0  0  0  0  0  0  # atno 6909 bound_to 6896
  144.7284  139.9410  143.6428 H   0  0  0  0  0  0  0  0  0  0  0  0  # atno 7974 bound_to 7965
  154.5717  140.0689  156.8974 H   0  0  0  0  0  0  0  0  0  0  0  0  # atno 8008 bound_to 7997
  155.2622  140.3359  155.4254 H   0  0  0  0  0  0  0  0  0  0  0  0  # atno 8009 bound_to 7997
  156.2123  140.1764  156.7652 H   0  0  0  0  0  0  0  0  0  0  0  0  # atno 8010 bound_to 7997
  139.7219  144.7056  151.0859 H   0  0  0  0  0  0  0  0  0  0  0  0  # atno 10167 bound_to 10162
  157.4975  131.1093  150.9473 H   0  0  0  0  0  0  0  0  0  0  0  0  # atno 10718 bound_to 10713
  152.9792  135.5947  154.3910 H   0  0  0  0  0  0  0  0  0  0  0  0  # atno 10763 bound_to 10752
  154.3565  135.2767  155.2345 H   0  0  0  0  0  0  0  0  0  0  0  0  # atno 10764 bound_to 10752
  154.4361  135.6024  153.6154 H   0  0  0  0  0  0  0  0  0  0  0  0  # atno 10765 bound_to 10752
  140.5030  134.0727  155.7798 H   0  0  0  0  0  0  0  0  0  0  0  0  # atno 11005 bound_to 11000
  146.0784  139.3772  143.0479 LP  0  0  0  0  0  0  0  0  0  0  0  0  # atno 17320 bound_to 7965
  145.7874  140.9830  143.1067 LP  0  0  0  0  0  0  0  0  0  0  0  0  # atno 17321 bound_to 7965
  140.7755  143.5155  150.9600 LP  0  0  0  0  0  0  0  0  0  0  0  0  # atno 17342 bound_to 10162
  139.8842  143.7033  152.3153 LP  0  0  0  0  0  0  0  0  0  0  0  0  # atno 17343 bound_to 10162
  157.0154  130.5653  149.5325 LP  0  0  0  0  0  0  0  0  0  0  0  0  # atno 17370 bound_to 10713
  156.0209  130.5304  150.8273 LP  0  0  0  0  0  0  0  0  0  0  0  0  # atno 17371 bound_to 10713
  141.1425  133.9112  157.2292 LP  0  0  0  0  0  0  0  0  0  0  0  0  # atno 17394 bound_to 11000
  139.9702  135.0130  156.9493 LP  0  0  0  0  0  0  0  0  0  0  0  0  # atno 17395 bound_to 11000

$$$$
