AV-unprocessed.smi:2161|AV-procd|sdf|8801|dock3
  -GOLD-   2272011583D 1   1.00000     0.00000
 Structure written by MMmdl.
 31 32  0  0  0  0  0  0  0  0  1 V2000
  146.8006  138.9435  152.1167 C   0  0  0  0  0  0  0  0  0  0  0  0
  147.2127  139.6191  153.4215 C   0  0  0  0  0  0  0  0  0  0  0  0
  146.3597  139.8366  154.2815 O   0  0  0  0  0  0  0  0  0  0  0  0
  148.5168  139.9330  153.5336 N   0  0  0  0  0  0  0  0  0  0  0  0
  149.1827  140.5527  154.6246 C   0  0  0  0  0  0  0  0  0  0  0  0
  148.3552  141.3275  155.4673 C   0  0  0  0  0  0  0  0  0  0  0  0
  148.9177  141.9832  156.5790 C   0  0  0  0  0  0  0  0  0  0  0  0
  150.3013  141.8493  156.8242 C   0  0  0  0  0  0  0  0  0  0  0  0
  150.9379  142.4729  157.9068 N   0  0  0  0  0  0  0  0  0  0  0  0
  151.7619  141.5581  158.6862 C   0  0  0  0  0  0  0  0  0  0  0  0
  152.3222  142.2776  159.9262 C   0  0  0  0  0  0  0  0  0  0  0  0
  153.0305  143.4471  159.5240 O   0  0  0  0  0  0  0  0  0  0  0  0
  152.1922  144.3683  158.8315 C   0  0  0  0  0  0  0  0  0  0  0  0
  151.6400  143.7023  157.5596 C   0  0  0  0  0  0  0  0  0  0  0  0
  151.0511  141.0627  155.9271 C   0  0  0  0  0  0  0  0  0  0  0  0
  150.5122  140.4322  154.8625 N   0  0  0  0  0  0  0  0  0  0  0  0
  147.5494  139.0878  151.3367 H   0  0  0  0  0  0  0  0  0  0  0  0
  145.8558  139.3537  151.7588 H   0  0  0  0  0  0  0  0  0  0  0  0
  146.6712  137.8725  152.2744 H   0  0  0  0  0  0  0  0  0  0  0  0
  149.1001  139.7037  152.7423 H   0  0  0  0  0  0  0  0  0  0  0  0
  147.2976  141.4220  155.2678 H   0  0  0  0  0  0  0  0  0  0  0  0
  148.2927  142.5809  157.2257 H   0  0  0  0  0  0  0  0  0  0  0  0
  151.1705  140.6941  158.9916 H   0  0  0  0  0  0  0  0  0  0  0  0
  152.5826  141.1870  158.0705 H   0  0  0  0  0  0  0  0  0  0  0  0
  151.5201  142.5456  160.6157 H   0  0  0  0  0  0  0  0  0  0  0  0
  153.0011  141.6194  160.4681 H   0  0  0  0  0  0  0  0  0  0  0  0
  151.3808  144.6991  159.4820 H   0  0  0  0  0  0  0  0  0  0  0  0
  152.7732  145.2529  158.5710 H   0  0  0  0  0  0  0  0  0  0  0  0
  152.4613  143.4852  156.8757 H   0  0  0  0  0  0  0  0  0  0  0  0
  150.9602  144.3825  157.0451 H   0  0  0  0  0  0  0  0  0  0  0  0
  152.1142  140.9314  156.0676 H   0  0  0  0  0  0  0  0  0  0  0  0
  1  2  1  0  0  0  0
  1 17  1  0  0  0  0
  1 18  1  0  0  0  0
  1 19  1  0  0  0  0
  2  3  2  0  0  0  0
  2  4  1  0  0  0  0
  4  5  1  0  0  0  0
  4 20  1  0  0  0  0
  5 16  1  0  0  0  0
  5  6  2  0  0  0  0
  6  7  1  0  0  0  0
  6 21  1  0  0  0  0
  7  8  2  0  0  0  0
  7 22  1  0  0  0  0
  8  9  1  0  0  0  0
  8 15  1  0  0  0  0
  9 14  1  0  0  0  0
  9 10  1  0  0  0  0
 10 11  1  0  0  0  0
 10 23  1  0  0  0  0
 10 24  1  0  0  0  0
 11 12  1  0  0  0  0
 11 25  1  0  0  0  0
 11 26  1  0  0  0  0
 12 13  1  0  0  0  0
 13 14  1  0  0  0  0
 13 27  1  0  0  0  0
 13 28  1  0  0  0  0
 14 29  1  0  0  0  0
 14 30  1  0  0  0  0
 15 16  2  0  0  0  0
 15 31  1  0  0  0  0
M  END
> <s_m_source_file>
AV-unprocessed.smi

> <i_m_source_file_index>
2161

> <i_lp_mmshare_version>
43012

> <i_f3d_flags>
0

> <s_epik_input>
W0NIM11DKD1PKVtOSF1jMVtjSF1bY0hdYyhbY0hdbjEpTjJbQ0gyXVtDSDJdT1tDSDJdW0NIMl0y

> <s_epik_cmdline>
J2VwaWtfcHl0aG9uJywgJy1waCcsICc3LjAnLCAnLXRuJywgJzgnLCAnLW1hJywgJzIwMCcsICctbWV0YWxfYmluZGluZycsICctaW1hZScsICc8aW5maWxlLm1hZT4nLCAnLW9tYWUnLCAnPG91dGZpbGUubWFlPic=

> <r_lp_tautomer_probability>
1

> <r_epik_Ionization_Penalty>
0.00240688

> <r_epik_Ionization_Penalty_Charging>
0

> <r_epik_Ionization_Penalty_Neutral>
0.00240688

> <r_epik_State_Penalty>
0.00372447

> <r_epik_Charging_Adjusted_Penalty>
0.00372447

> <i_epik_Tot_Q>
0

> <i_epik_Tot_abs_Q>
0

> <r_epik_Metal_State_Penalty>
-0

> <b_epik_Metal_Only>
0

> <s_lp_Force_Field>
OPLS_2005

> <r_lp_Energy>
25.1248

> <b_lp_Chiralities_Consistent>
1

> <s_lp_Variant>
AV-unprocessed.smi:2161-1

> <Gold.Version>
5.8.1

> <Gold.Id.Protein>
6NUR|6NUR_protein|mol2

> <Gold.PLP.Fitness>
37.9191

> <Gold.PLP.PLP>
-32.7731

> <Gold.PLP.part.hbond>
-2.0000

> <Gold.PLP.part.metal>
0.0000

> <Gold.PLP.part.buried>
-2.4721

> <Gold.PLP.part.nonpolar>
-28.4104

> <Gold.PLP.part.repulsive>
0.3882

> <Gold.PLP.ligand.clash>
0.0000

> <Gold.PLP.ligand.torsion>
0.4818

> <Gold.PLP.Chemscore.Hbond>
2.0000

> <Gold.PLP.Chemscore.CHOScore>
0.0000

> <Gold.PLP.Chemscore.Metal>
0.0000

> <Gold.Chemscore.Hbonds>
donor molecule, donor type, donor heavy atom, donor atom, acceptor molecule, acceptor atom, score
      L1  H     4    20       P1  7957  0.99
      P1  H  7989  7998       L1    16  1.00

> <Gold.PLP.Chemscore.Internal.Correction>
0.1096

> <Gold.Rescore>
     Score         DG    S(hbond)    S(metal)    S(lipo)     H(rot)  DE(clash)    DE(int)     intcor
     15.37     -17.33       1.68        0.00      75.17       1.00       0.12       1.84       ----

> <Gold.Chemscore.Fitness>
15.3655

> <Gold.Chemscore.DG>
-17.3308

> <Gold.Chemscore.ZeroCoef>
-5.4800

> <Gold.Chemscore.Hbond>
1.6813

> <Gold.Chemscore.Metal>
0.0000

> <Gold.Chemscore.Lipo>
75.1731

> <Gold.Chemscore.Internal_Hbond>
0.0000

> <Gold.Chemscore.DEClash>
0.1230

> <Gold.Chemscore.DEInternal>
1.8423

> <Gold.Chemscore.Rot>
1.0000

> <Gold.Chemscore.Internal.Correction>
   9.000000E+99

> <Gold.Chemscore.Hbonds>
donor molecule, donor type, donor heavy atom, donor atom, acceptor molecule, acceptor atom, score
      L1  H     4    20       P1  7957  0.93
      P1  H  7989  7998       L1    16  0.36

> <Gold.Chemscore.Hbond.Weighted>
-5.6155

> <Gold.Chemscore.Metal.Weighted>
-0.0000

> <Gold.Chemscore.Lipo.Weighted>
-8.7952

> <Gold.Chemscore.Internal_Hbond.Weighted>
0.0000

> <Gold.Chemscore.DEClash.Weighted>
0.1230

> <Gold.Chemscore.DEInternal.Weighted>
1.8423

> <Gold.Chemscore.Rot.Weighted>
2.5600

> <Gold.Chemscore.Internal.Correction.Weighted>
   9.000000E+99

> <Gold.Protein.RotatedTorsions>
[ 6907 6896 6895 6894 ] final -168.16 input  -60.11 | X-H torsion
[ 7974 7965 7964 7962 ] final  124.46 input  175.53 | X-H torsion
[ 8008 7997 7996 7995 ] final -134.19 input   59.86 | X-H torsion
[ 10167 10162 10161 10158 ] final   32.71 input  -65.29 | X-H torsion
[ 10718 10713 10712 10709 ] final  -12.25 input   66.30 | X-H torsion
[ 10763 10752 10751 10750 ] final -128.31 input  -60.55 | X-H torsion
[ 11005 11000 10999 10996 ] final   -8.60 input  -57.11 | X-H torsion

> <Gold.Protein.ActiveResidues>
 VAL166  LYS551  ARG553  GLY616  TRP617  ASP618  TYR619  PRO620  LYS621  CYS622 
 ASP623  PHE694  ASN695  SER759  ASP760  ASP761  ALA762  ILE779  LEU786  VAL792 
 PHE793  MET794  SER795  GLU796  ALA797  LYS798  CYS799  TRP800  GLU811  SER814 

> <Gold.Protein.RotatedAtoms>
  151.4711  133.3569  159.2823 H   0  0  0  0  0  0  0  0  0  0  0  0  # atno 6907 bound_to 6896
  150.8960  134.8370  159.7338 H   0  0  0  0  0  0  0  0  0  0  0  0  # atno 6908 bound_to 6896
  152.4851  134.4626  159.9662 H   0  0  0  0  0  0  0  0  0  0  0  0  # atno 6909 bound_to 6896
  145.0841  139.3635  143.4894 H   0  0  0  0  0  0  0  0  0  0  0  0  # atno 7974 bound_to 7965
  155.3580  140.0481  157.3046 H   0  0  0  0  0  0  0  0  0  0  0  0  # atno 8008 bound_to 7997
  154.5192  140.2219  155.8971 H   0  0  0  0  0  0  0  0  0  0  0  0  # atno 8009 bound_to 7997
  156.1671  140.3104  155.8914 H   0  0  0  0  0  0  0  0  0  0  0  0  # atno 8010 bound_to 7997
  140.4474  144.1098  150.6185 H   0  0  0  0  0  0  0  0  0  0  0  0  # atno 10167 bound_to 10162
  156.6473  130.4945  149.6074 H   0  0  0  0  0  0  0  0  0  0  0  0  # atno 10718 bound_to 10713
  154.8756  135.3933  154.3736 H   0  0  0  0  0  0  0  0  0  0  0  0  # atno 10763 bound_to 10752
  153.4492  135.7028  153.6124 H   0  0  0  0  0  0  0  0  0  0  0  0  # atno 10764 bound_to 10752
  153.4672  135.3798  155.2339 H   0  0  0  0  0  0  0  0  0  0  0  0  # atno 10765 bound_to 10752
  140.7252  133.8795  155.8851 H   0  0  0  0  0  0  0  0  0  0  0  0  # atno 11005 bound_to 11000
  146.3531  140.0645  142.8627 LP  0  0  0  0  0  0  0  0  0  0  0  0  # atno 17320 bound_to 7965
  145.1143  140.9424  143.4638 LP  0  0  0  0  0  0  0  0  0  0  0  0  # atno 17321 bound_to 7965
  140.4247  143.2595  151.9671 LP  0  0  0  0  0  0  0  0  0  0  0  0  # atno 17342 bound_to 10162
  139.4794  144.5799  151.7950 LP  0  0  0  0  0  0  0  0  0  0  0  0  # atno 17343 bound_to 10162
  156.2112  130.6680  151.1271 LP  0  0  0  0  0  0  0  0  0  0  0  0  # atno 17370 bound_to 10713
  157.7152  131.0713  150.6354 LP  0  0  0  0  0  0  0  0  0  0  0  0  # atno 17371 bound_to 10713
  140.9969  134.1203  157.4355 LP  0  0  0  0  0  0  0  0  0  0  0  0  # atno 17394 bound_to 11000
  139.8839  135.0057  156.6330 LP  0  0  0  0  0  0  0  0  0  0  0  0  # atno 17395 bound_to 11000

$$$$
