AV-unprocessed.smi:2787|AV-procd|sdf|10757|dock1
  -GOLD-   2272015183D 1   1.00000     0.00000
 Structure written by MMmdl.
 35 36  0  0  0  0  0  0  0  0  1 V2000
  149.9550  139.5274  153.9001 O   0  0  0  0  0  0  0  0  0  0  0  0
  149.0268  140.0766  154.8119 C   0  0  0  0  0  0  0  0  0  0  0  0
  149.6282  141.2969  155.5241 C   0  0  0  0  0  0  0  0  0  0  0  0
  150.9623  140.9922  156.2278 C   0  0  0  0  0  0  0  0  0  0  0  0
  151.2670  141.9536  157.3416 C   0  0  0  0  0  0  0  0  0  0  0  0
  151.2902  143.2686  157.1171 N   0  0  0  0  0  0  0  0  0  0  0  0
  151.5911  143.7901  158.3588 C   0  0  0  0  0  0  0  0  0  0  0  0
  151.7491  145.1303  158.7792 C   0  0  0  0  0  0  0  0  0  0  0  0
  152.0622  145.4245  160.1225 C   0  0  0  0  0  0  0  0  0  0  0  0
  152.2222  144.3853  161.0617 C   0  0  0  0  0  0  0  0  0  0  0  0
  152.0690  143.0435  160.6629 C   0  0  0  0  0  0  0  0  0  0  0  0
  151.7554  142.7551  159.3207 C   0  0  0  0  0  0  0  0  0  0  0  0
  151.5430  141.5717  158.6187 N   0  0  0  0  0  0  0  0  0  0  0  0
  151.6242  140.2343  159.1974 C   0  0  0  0  0  0  0  0  0  0  0  0
  152.6408  139.3308  158.4708 C   0  0  1  0  0  0  0  0  0  0  0  0
  153.9559  139.7617  158.7584 O   0  0  0  0  0  0  0  0  0  0  0  0
  152.5003  137.8442  158.8510 C   0  0  0  0  0  0  0  0  0  0  0  0
  153.3045  137.0983  158.0930 F   0  0  0  0  0  0  0  0  0  0  0  0
  152.7913  137.6497  160.1376 F   0  0  0  0  0  0  0  0  0  0  0  0
  151.2464  137.4474  158.6333 F   0  0  0  0  0  0  0  0  0  0  0  0
  149.5508  139.4854  153.0468 H   0  0  0  0  0  0  0  0  0  0  0  0
  148.1114  140.3455  154.2836 H   0  0  0  0  0  0  0  0  0  0  0  0
  148.7650  139.3095  155.5411 H   0  0  0  0  0  0  0  0  0  0  0  0
  149.7898  142.0845  154.7871 H   0  0  0  0  0  0  0  0  0  0  0  0
  148.9058  141.6961  156.2359 H   0  0  0  0  0  0  0  0  0  0  0  0
  150.9590  139.9666  156.5873 H   0  0  0  0  0  0  0  0  0  0  0  0
  151.7757  141.0466  155.5033 H   0  0  0  0  0  0  0  0  0  0  0  0
  151.6289  145.9329  158.0667 H   0  0  0  0  0  0  0  0  0  0  0  0
  152.1807  146.4521  160.4337 H   0  0  0  0  0  0  0  0  0  0  0  0
  152.4629  144.6189  162.0885 H   0  0  0  0  0  0  0  0  0  0  0  0
  152.1909  142.2461  161.3807 H   0  0  0  0  0  0  0  0  0  0  0  0
  151.8388  140.2917  160.2624 H   0  0  0  0  0  0  0  0  0  0  0  0
  150.6318  139.7869  159.1327 H   0  0  0  0  0  0  0  0  0  0  0  0
  152.4950  139.4293  157.3944 H   0  0  0  0  0  0  0  0  0  0  0  0
  154.0978  139.6883  159.6896 H   0  0  0  0  0  0  0  0  0  0  0  0
  1  2  1  0  0  0  0
  1 21  1  0  0  0  0
  2  3  1  0  0  0  0
  2 22  1  0  0  0  0
  2 23  1  0  0  0  0
  3  4  1  0  0  0  0
  3 24  1  0  0  0  0
  3 25  1  0  0  0  0
  4  5  1  0  0  0  0
  4 26  1  0  0  0  0
  4 27  1  0  0  0  0
  5 13  1  0  0  0  0
  5  6  2  0  0  0  0
  6  7  1  0  0  0  0
  7 12  2  0  0  0  0
  7  8  1  0  0  0  0
  8  9  2  0  0  0  0
  8 28  1  0  0  0  0
  9 10  1  0  0  0  0
  9 29  1  0  0  0  0
 10 11  2  0  0  0  0
 10 30  1  0  0  0  0
 11 12  1  0  0  0  0
 11 31  1  0  0  0  0
 12 13  1  0  0  0  0
 13 14  1  0  0  0  0
 14 15  1  0  0  0  0
 14 32  1  0  0  0  0
 14 33  1  0  0  0  0
 15 16  1  0  0  0  0
 15 17  1  0  0  0  0
 15 34  1  0  0  0  0
 16 35  1  0  0  0  0
 17 18  1  0  0  0  0
 17 19  1  0  0  0  0
 17 20  1  0  0  0  0
M  END
> <s_m_source_file>
AV-unprocessed.smi

> <i_m_source_file_index>
2787

> <i_lp_mmshare_version>
43012

> <i_f3d_flags>
0

> <s_epik_input>
W09IXVtDSDJdW0NIMl1bQ0gyXWMobjEpbihbQ0gyXVtDQEhdKFtPSF0pQyhGKShGKUYpYyhjMTIpW2NIXVtjSF1bY0hdW2NIXTI=

> <s_epik_cmdline>
J2VwaWtfcHl0aG9uJywgJy1waCcsICc3LjAnLCAnLXRuJywgJzgnLCAnLW1hJywgJzIwMCcsICctbWV0YWxfYmluZGluZycsICctaW1hZScsICc8aW5maWxlLm1hZT4nLCAnLW9tYWUnLCAnPG91dGZpbGUubWFlPic=

> <r_epik_Ionization_Penalty>
0.137914

> <r_epik_Ionization_Penalty_Charging>
0

> <r_epik_Ionization_Penalty_Neutral>
0.137914

> <r_epik_State_Penalty>
0.107668

> <r_epik_Charging_Adjusted_Penalty>
0.107668

> <i_epik_Tot_Q>
0

> <i_epik_Tot_abs_Q>
0

> <r_epik_Metal_State_Penalty>
0.000111872

> <b_epik_Metal_Only>
0

> <s_lp_Force_Field>
OPLS_2005

> <r_lp_Energy>
11.7706

> <b_lp_Chiralities_Consistent>
1

> <s_lp_Variant>
AV-unprocessed.smi:2787-2

> <Gold.Version>
5.8.1

> <Gold.Id.Protein>
6NUR|6NUR_protein|mol2

> <Gold.PLP.Fitness>
53.0164

> <Gold.PLP.PLP>
-44.6673

> <Gold.PLP.part.hbond>
-3.0000

> <Gold.PLP.part.metal>
0.0000

> <Gold.PLP.part.buried>
-5.6039

> <Gold.PLP.part.nonpolar>
-35.6954

> <Gold.PLP.part.repulsive>
0.1333

> <Gold.PLP.ligand.clash>
0.0000

> <Gold.PLP.ligand.torsion>
0.2734

> <Gold.PLP.Chemscore.Hbond>
2.9280

> <Gold.PLP.Chemscore.CHOScore>
0.0000

> <Gold.PLP.Chemscore.Metal>
0.0000

> <Gold.Chemscore.Hbonds>
donor molecule, donor type, donor heavy atom, donor atom, acceptor molecule, acceptor atom, score
      L1  H     1    21       P1  7957  0.94
      P1  H  7989  7998       L1     1  0.61
      P1  H  7997  8009       L1    16  1.00

> <Gold.PLP.Chemscore.Internal.Correction>
0.1119

> <Gold.Rescore>
     Score         DG    S(hbond)    S(metal)    S(lipo)     H(rot)  DE(clash)    DE(int)     intcor
     16.89     -17.45       2.53        0.00     105.38       3.44       0.19       0.37       ----

> <Gold.Chemscore.Fitness>
16.8926

> <Gold.Chemscore.DG>
-17.4506

> <Gold.Chemscore.ZeroCoef>
-5.4800

> <Gold.Chemscore.Hbond>
2.5269

> <Gold.Chemscore.Metal>
0.0000

> <Gold.Chemscore.Lipo>
105.3762

> <Gold.Chemscore.Internal_Hbond>
0.0000

> <Gold.Chemscore.DEClash>
0.1895

> <Gold.Chemscore.DEInternal>
0.3685

> <Gold.Chemscore.Rot>
3.4369

> <Gold.Chemscore.Internal.Correction>
   9.000000E+99

> <Gold.Chemscore.Hbonds>
donor molecule, donor type, donor heavy atom, donor atom, acceptor molecule, acceptor atom, score
      L1  H     1    21       P1  7957  0.89
      P1  H  7989  7998       L1     1  0.13
      P1  H  7997  8009       L1    16  0.55

> <Gold.Chemscore.Hbond.Weighted>
-8.4400

> <Gold.Chemscore.Metal.Weighted>
-0.0000

> <Gold.Chemscore.Lipo.Weighted>
-12.3290

> <Gold.Chemscore.Internal_Hbond.Weighted>
0.0000

> <Gold.Chemscore.DEClash.Weighted>
0.1895

> <Gold.Chemscore.DEInternal.Weighted>
0.3685

> <Gold.Chemscore.Rot.Weighted>
8.7984

> <Gold.Chemscore.Internal.Correction.Weighted>
   9.000000E+99

> <Gold.Protein.RotatedTorsions>
[ 6907 6896 6895 6894 ] final   -9.37 input  -60.11 | X-H torsion
[ 7974 7965 7964 7962 ] final   98.36 input  175.53 | X-H torsion
[ 8008 7997 7996 7995 ] final  143.76 input   59.86 | X-H torsion
[ 10167 10162 10161 10158 ] final  156.74 input  -65.29 | X-H torsion
[ 10718 10713 10712 10709 ] final  -79.85 input   66.30 | X-H torsion
[ 10763 10752 10751 10750 ] final   50.81 input  -60.55 | X-H torsion
[ 11005 11000 10999 10996 ] final  117.22 input  -57.11 | X-H torsion

> <Gold.Protein.ActiveResidues>
 VAL166  LYS551  ARG553  GLY616  TRP617  ASP618  TYR619  PRO620  LYS621  CYS622 
 ASP623  PHE694  ASN695  SER759  ASP760  ASP761  ALA762  ILE779  LEU786  VAL792 
 PHE793  MET794  SER795  GLU796  ALA797  LYS798  CYS799  TRP800  GLU811  SER814 

> <Gold.Protein.RotatedAtoms>
  151.4189  135.0995  159.9607 H   0  0  0  0  0  0  0  0  0  0  0  0  # atno 6907 bound_to 6896
  152.4995  133.8726  159.7317 H   0  0  0  0  0  0  0  0  0  0  0  0  # atno 6908 bound_to 6896
  150.9238  133.6791  159.2854 H   0  0  0  0  0  0  0  0  0  0  0  0  # atno 6909 bound_to 6896
  145.4132  139.2331  143.3237 H   0  0  0  0  0  0  0  0  0  0  0  0  # atno 7974 bound_to 7965
  156.2923  140.2254  156.4942 H   0  0  0  0  0  0  0  0  0  0  0  0  # atno 8008 bound_to 7997
  154.7745  140.0464  157.1099 H   0  0  0  0  0  0  0  0  0  0  0  0  # atno 8009 bound_to 7997
  154.9834  140.3081  155.4940 H   0  0  0  0  0  0  0  0  0  0  0  0  # atno 8010 bound_to 7997
  139.4821  144.4981  151.8209 H   0  0  0  0  0  0  0  0  0  0  0  0  # atno 10167 bound_to 10162
  156.0083  130.4557  150.3711 H   0  0  0  0  0  0  0  0  0  0  0  0  # atno 10718 bound_to 10713
  152.9784  135.5867  154.4313 H   0  0  0  0  0  0  0  0  0  0  0  0  # atno 10763 bound_to 10752
  154.3925  135.2768  155.2148 H   0  0  0  0  0  0  0  0  0  0  0  0  # atno 10764 bound_to 10752
  154.4014  135.6103  153.5953 H   0  0  0  0  0  0  0  0  0  0  0  0  # atno 10765 bound_to 10752
  139.9067  134.9607  156.7317 H   0  0  0  0  0  0  0  0  0  0  0  0  # atno 11005 bound_to 11000
  146.2694  140.4846  142.8820 LP  0  0  0  0  0  0  0  0  0  0  0  0  # atno 17320 bound_to 7965
  144.8295  140.6683  143.6300 LP  0  0  0  0  0  0  0  0  0  0  0  0  # atno 17321 bound_to 7965
  140.4472  144.1905  150.5895 LP  0  0  0  0  0  0  0  0  0  0  0  0  # atno 17342 bound_to 10162
  140.4622  143.2444  151.9204 LP  0  0  0  0  0  0  0  0  0  0  0  0  # atno 17343 bound_to 10162
  157.1795  131.0389  151.2755 LP  0  0  0  0  0  0  0  0  0  0  0  0  # atno 17370 bound_to 10713
  157.4158  130.7410  149.6874 LP  0  0  0  0  0  0  0  0  0  0  0  0  # atno 17371 bound_to 10713
  140.6920  133.9382  155.7972 LP  0  0  0  0  0  0  0  0  0  0  0  0  # atno 17394 bound_to 11000
  141.0435  134.0588  157.3873 LP  0  0  0  0  0  0  0  0  0  0  0  0  # atno 17395 bound_to 11000

$$$$
