AV-unprocessed.smi:3002|AV-procd|sdf|11435|dock2
  -GOLD-   2272016363D 1   1.00000     0.00000
 Structure written by MMmdl.
 34 35  0  0  0  0  0  0  0  0  1 V2000
  146.7134  133.3396  153.8832 C   0  0  0  0  0  0  0  0  0  0  0  0
  146.5024  134.2666  152.6684 C   0  0  2  0  0  0  0  0  0  0  0  0
  145.9065  135.6299  153.0519 C   0  0  0  0  0  0  0  0  0  0  0  0
  144.8227  135.7037  153.6322 O   0  0  0  0  0  0  0  0  0  0  0  0
  146.6197  136.7081  152.6884 N   0  0  0  0  0  0  0  0  0  0  0  0
  146.1894  138.0952  152.8268 C   0  0  0  0  0  0  0  0  0  0  0  0
  147.3809  139.0337  153.1021 C   0  0  1  0  0  0  0  0  0  0  0  0
  146.9846  140.5125  153.3058 C   0  0  0  0  0  0  0  0  0  0  0  0
  148.1952  141.2768  153.8496 C   0  0  0  0  0  0  0  0  0  0  0  0
  149.1049  140.0833  154.8985 S   0  0  0  0  0  0  0  0  0  0  0  0
  150.5001  140.0096  154.4390 O   0  0  0  0  0  0  0  0  0  0  0  0
  148.7852  140.3277  156.3129 O   0  0  0  0  0  0  0  0  0  0  0  0
  148.1941  138.5972  154.3305 C   0  0  0  0  0  0  0  0  0  0  0  0
  145.6824  133.6428  151.6361 N   0  0  0  0  0  0  0  0  0  0  0  0
  145.9358  132.5850  150.8623 C   0  0  0  0  0  0  0  0  0  0  0  0
  144.9847  132.3248  149.9762 N   0  0  0  0  0  0  0  0  0  0  0  0
  144.1153  133.3360  150.2716 C   0  0  0  0  0  0  0  0  0  0  0  0
  144.4894  134.1606  151.2496 N   0  0  0  0  0  0  0  0  0  0  0  0
  147.3737  133.7998  154.6190 H   0  0  0  0  0  0  0  0  0  0  0  0
  147.1723  132.3988  153.5780 H   0  0  0  0  0  0  0  0  0  0  0  0
  145.7751  133.1005  154.3854 H   0  0  0  0  0  0  0  0  0  0  0  0
  147.4841  134.4536  152.2297 H   0  0  0  0  0  0  0  0  0  0  0  0
  147.5034  136.5536  152.2249 H   0  0  0  0  0  0  0  0  0  0  0  0
  145.6364  138.4260  151.9459 H   0  0  0  0  0  0  0  0  0  0  0  0
  145.4879  138.1424  153.6602 H   0  0  0  0  0  0  0  0  0  0  0  0
  148.0518  138.9970  152.2420 H   0  0  0  0  0  0  0  0  0  0  0  0
  146.6185  140.9696  152.3859 H   0  0  0  0  0  0  0  0  0  0  0  0
  146.1739  140.5687  154.0337 H   0  0  0  0  0  0  0  0  0  0  0  0
  148.8548  141.5840  153.0376 H   0  0  0  0  0  0  0  0  0  0  0  0
  147.9195  142.1581  154.4292 H   0  0  0  0  0  0  0  0  0  0  0  0
  147.5392  138.2806  155.1427 H   0  0  0  0  0  0  0  0  0  0  0  0
  148.8925  137.7888  154.1137 H   0  0  0  0  0  0  0  0  0  0  0  0
  146.8389  131.9981  150.9424 H   0  0  0  0  0  0  0  0  0  0  0  0
  143.1824  133.4732  149.7449 H   0  0  0  0  0  0  0  0  0  0  0  0
  1  2  1  0  0  0  0
  1 19  1  0  0  0  0
  1 20  1  0  0  0  0
  1 21  1  0  0  0  0
  2  3  1  0  0  0  0
  2 14  1  0  0  0  0
  2 22  1  0  0  0  0
  3  4  2  0  0  0  0
  3  5  1  0  0  0  0
  5  6  1  0  0  0  0
  5 23  1  0  0  0  0
  6  7  1  0  0  0  0
  6 24  1  0  0  0  0
  6 25  1  0  0  0  0
  7 13  1  0  0  0  0
  7  8  1  0  0  0  0
  7 26  1  0  0  0  0
  8  9  1  0  0  0  0
  8 27  1  0  0  0  0
  8 28  1  0  0  0  0
  9 10  1  0  0  0  0
  9 29  1  0  0  0  0
  9 30  1  0  0  0  0
 10 11  2  0  0  0  0
 10 12  2  0  0  0  0
 10 13  1  0  0  0  0
 13 31  1  0  0  0  0
 13 32  1  0  0  0  0
 14 18  1  0  0  0  0
 14 15  1  0  0  0  0
 15 16  2  0  0  0  0
 15 33  1  0  0  0  0
 16 17  1  0  0  0  0
 17 18  2  0  0  0  0
 17 34  1  0  0  0  0
M  END
> <s_m_source_file>
AV-unprocessed.smi

> <i_m_source_file_index>
3002

> <i_lp_mmshare_version>
43012

> <i_f3d_flags>
0

> <s_epik_input>
bjFbY0hdbltjSF1uMVtDQEhdKFtDSDNdKUMoPU8pW05IXVtDSDJdW0NAQEhdKFtDSDJdMilbQ0gyXVtDSDJdUzIoPU8pPU8=

> <s_epik_cmdline>
J2VwaWtfcHl0aG9uJywgJy1waCcsICc3LjAnLCAnLXRuJywgJzgnLCAnLW1hJywgJzIwMCcsICctbWV0YWxfYmluZGluZycsICctaW1hZScsICc8aW5maWxlLm1hZT4nLCAnLW9tYWUnLCAnPG91dGZpbGUubWFlPic=

> <r_lp_tautomer_probability>
1

> <r_epik_Ionization_Penalty>
1.1748e-05

> <r_epik_Ionization_Penalty_Charging>
0

> <r_epik_Ionization_Penalty_Neutral>
1.1748e-05

> <r_epik_State_Penalty>
-0

> <r_epik_Charging_Adjusted_Penalty>
0

> <i_epik_Tot_Q>
0

> <i_epik_Tot_abs_Q>
0

> <r_epik_Metal_State_Penalty>
-0

> <b_epik_Metal_Only>
0

> <s_lp_Force_Field>
OPLS_2005

> <r_lp_Energy>
9.21474

> <b_lp_Chiralities_Consistent>
1

> <s_lp_Variant>
AV-unprocessed.smi:3002-3

> <Gold.Version>
5.8.1

> <Gold.Id.Protein>
6NUR|6NUR_protein|mol2

> <Gold.PLP.Fitness>
36.7421

> <Gold.PLP.PLP>
-25.4609

> <Gold.PLP.part.hbond>
-1.9408

> <Gold.PLP.part.metal>
0.0000

> <Gold.PLP.part.buried>
-3.5466

> <Gold.PLP.part.nonpolar>
-20.7730

> <Gold.PLP.part.repulsive>
0.5009

> <Gold.PLP.ligand.clash>
0.0000

> <Gold.PLP.ligand.torsion>
0.3855

> <Gold.PLP.Chemscore.Hbond>
1.9750

> <Gold.PLP.Chemscore.CHOScore>
2.0000

> <Gold.PLP.Chemscore.Metal>
0.0000

> <Gold.Chemscore.Hbonds>
donor molecule, donor type, donor heavy atom, donor atom, acceptor molecule, acceptor atom, score
      L1  H     5    23       P1  7948  0.96
      P1  H  7989  7998       L1    11  1.00
      L1  C    15    33       P1 10747  1.00
      L1  C    17    34       P1 10186  1.00

> <Gold.PLP.Chemscore.Internal.Correction>
0.1273

> <Gold.Rescore>
     Score         DG    S(hbond)    S(metal)    S(lipo)     H(rot)  DE(clash)    DE(int)     intcor
      8.98     -10.56       1.98        0.00      39.32       2.39       0.04       1.54       ----

> <Gold.Chemscore.Fitness>
8.9758

> <Gold.Chemscore.DG>
-10.5555

> <Gold.Chemscore.ZeroCoef>
-5.4800

> <Gold.Chemscore.Hbond>
1.9776

> <Gold.Chemscore.Metal>
0.0000

> <Gold.Chemscore.Lipo>
39.3208

> <Gold.Chemscore.Internal_Hbond>
0.0000

> <Gold.Chemscore.DEClash>
0.0437

> <Gold.Chemscore.DEInternal>
1.5361

> <Gold.Chemscore.Rot>
2.3946

> <Gold.Chemscore.Internal.Correction>
   9.000000E+99

> <Gold.Chemscore.Hbonds>
donor molecule, donor type, donor heavy atom, donor atom, acceptor molecule, acceptor atom, score
      L1  H     5    23       P1  7948  0.91
      P1  H  7989  7998       L1    11  1.00

> <Gold.Chemscore.Hbond.Weighted>
-6.6051

> <Gold.Chemscore.Metal.Weighted>
-0.0000

> <Gold.Chemscore.Lipo.Weighted>
-4.6005

> <Gold.Chemscore.Internal_Hbond.Weighted>
0.0000

> <Gold.Chemscore.DEClash.Weighted>
0.0437

> <Gold.Chemscore.DEInternal.Weighted>
1.5361

> <Gold.Chemscore.Rot.Weighted>
6.1301

> <Gold.Chemscore.Internal.Correction.Weighted>
   9.000000E+99

> <Gold.Protein.RotatedTorsions>
[ 6907 6896 6895 6894 ] final  -83.76 input  -60.11 | X-H torsion
[ 7974 7965 7964 7962 ] final  -24.59 input  175.53 | X-H torsion
[ 8008 7997 7996 7995 ] final   42.98 input   59.86 | X-H torsion
[ 10167 10162 10161 10158 ] final  -45.20 input  -65.29 | X-H torsion
[ 10718 10713 10712 10709 ] final -111.54 input   66.30 | X-H torsion
[ 10763 10752 10751 10750 ] final   -7.25 input  -60.55 | X-H torsion
[ 11005 11000 10999 10996 ] final   21.80 input  -57.11 | X-H torsion

> <Gold.Protein.ActiveResidues>
 VAL166  LYS551  ARG553  GLY616  TRP617  ASP618  TYR619  PRO620  LYS621  CYS622 
 ASP623  PHE694  ASN695  SER759  ASP760  ASP761  ALA762  ILE779  LEU786  VAL792 
 PHE793  MET794  SER795  GLU796  ALA797  LYS798  CYS799  TRP800  GLU811  SER814 

> <Gold.Protein.RotatedAtoms>
  150.6882  134.3462  159.4889 H   0  0  0  0  0  0  0  0  0  0  0  0  # atno 6907 bound_to 6896
  152.1309  134.9133  160.0568 H   0  0  0  0  0  0  0  0  0  0  0  0  # atno 6908 bound_to 6896
  152.0303  133.3900  159.4331 H   0  0  0  0  0  0  0  0  0  0  0  0  # atno 6909 bound_to 6896
  146.1545  140.4772  142.8597 H   0  0  0  0  0  0  0  0  0  0  0  0  # atno 7974 bound_to 7965
  155.2952  140.3381  155.4250 H   0  0  0  0  0  0  0  0  0  0  0  0  # atno 8008 bound_to 7997
  156.2027  140.1739  156.7905 H   0  0  0  0  0  0  0  0  0  0  0  0  # atno 8009 bound_to 7997
  154.5580  140.0693  156.8758 H   0  0  0  0  0  0  0  0  0  0  0  0  # atno 8010 bound_to 7997
  140.6867  143.2891  151.3605 H   0  0  0  0  0  0  0  0  0  0  0  0  # atno 10167 bound_to 10162
  156.0653  130.5873  150.8387 H   0  0  0  0  0  0  0  0  0  0  0  0  # atno 10718 bound_to 10713
  153.4238  135.7010  153.6276 H   0  0  0  0  0  0  0  0  0  0  0  0  # atno 10763 bound_to 10752
  153.4720  135.3712  155.2396 H   0  0  0  0  0  0  0  0  0  0  0  0  # atno 10764 bound_to 10752
  154.8723  135.4045  154.3610 H   0  0  0  0  0  0  0  0  0  0  0  0  # atno 10765 bound_to 10752
  140.3876  134.1854  155.7663 H   0  0  0  0  0  0  0  0  0  0  0  0  # atno 11005 bound_to 11000
  144.7946  140.6098  143.6519 LP  0  0  0  0  0  0  0  0  0  0  0  0  # atno 17320 bound_to 7965
  145.4742  139.1501  143.3797 LP  0  0  0  0  0  0  0  0  0  0  0  0  # atno 17321 bound_to 7965
  139.6232  144.0866  152.2410 LP  0  0  0  0  0  0  0  0  0  0  0  0  # atno 17342 bound_to 10162
  140.0317  144.6076  150.7483 LP  0  0  0  0  0  0  0  0  0  0  0  0  # atno 17343 bound_to 10162
  157.5690  131.0946  150.9446 LP  0  0  0  0  0  0  0  0  0  0  0  0  # atno 17370 bound_to 10713
  156.9666  130.5475  149.5288 LP  0  0  0  0  0  0  0  0  0  0  0  0  # atno 17371 bound_to 10713
  141.1902  133.8222  157.0927 LP  0  0  0  0  0  0  0  0  0  0  0  0  # atno 17394 bound_to 11000
  140.0431  134.9844  157.0999 LP  0  0  0  0  0  0  0  0  0  0  0  0  # atno 17395 bound_to 11000

$$$$
