AV-unprocessed.smi:3269|AV-procd|sdf|12510|dock9
  -GOLD-   2272018423D 1   1.00000     0.00000
 Structure written by MMmdl.
 39 40  0  0  0  0  0  0  0  0  1 V2000
  152.2976  137.7035  159.0101 C   0  0  0  0  0  0  0  0  0  0  0  0
  150.8100  137.5211  158.9199 C   0  0  0  0  0  0  0  0  0  0  0  0
  150.1886  136.7850  159.8264 N   0  0  0  0  0  0  0  0  0  0  0  0
  148.8890  136.8257  159.4702 N   0  0  0  0  0  0  0  0  0  0  0  0
  147.9106  136.1088  160.2646 C   0  0  0  0  0  0  0  0  0  0  0  0
  148.6892  137.5905  158.3372 C   0  0  0  0  0  0  0  0  0  0  0  0
  147.3329  137.7987  157.7445 C   0  0  0  0  0  0  0  0  0  0  0  0
  149.9167  138.0533  157.9445 C   0  0  0  0  0  0  0  0  0  0  0  0
  150.2651  138.9235  156.7607 C   0  0  0  0  0  0  0  0  0  0  0  0
  151.4567  139.8411  157.0595 C   0  0  0  0  0  0  0  0  0  0  0  0
  152.4954  139.7735  156.4005 O   0  0  0  0  0  0  0  0  0  0  0  0
  151.2856  140.7023  158.0737 N   0  0  0  0  0  0  0  0  0  0  0  0
  152.2643  141.6897  158.5194 C   0  0  0  0  0  0  0  0  0  0  0  0
  151.6775  143.1121  158.6039 C   0  0  2  0  0  0  0  0  0  0  0  0
  152.6944  144.2445  158.7735 C   0  0  0  0  0  0  0  0  0  0  0  0
  151.8392  145.3221  159.4003 C   0  0  0  0  0  0  0  0  0  0  0  0
  150.9476  144.5062  160.3318 C   0  0  0  0  0  0  0  0  0  0  0  0
  150.7733  143.2416  159.6988 O   0  0  0  0  0  0  0  0  0  0  0  0
  152.5681  138.7516  158.8861 H   0  0  0  0  0  0  0  0  0  0  0  0
  152.8070  137.1347  158.2323 H   0  0  0  0  0  0  0  0  0  0  0  0
  152.6884  137.3749  159.9737 H   0  0  0  0  0  0  0  0  0  0  0  0
  147.3609  135.4141  159.6289 H   0  0  0  0  0  0  0  0  0  0  0  0
  147.2105  136.8164  160.7090 H   0  0  0  0  0  0  0  0  0  0  0  0
  148.3980  135.5458  161.0620 H   0  0  0  0  0  0  0  0  0  0  0  0
  147.3498  138.5789  156.9838 H   0  0  0  0  0  0  0  0  0  0  0  0
  146.6156  138.0991  158.5083 H   0  0  0  0  0  0  0  0  0  0  0  0
  146.9700  136.8820  157.2796 H   0  0  0  0  0  0  0  0  0  0  0  0
  150.5062  138.3102  155.8915 H   0  0  0  0  0  0  0  0  0  0  0  0
  149.4200  139.5447  156.4634 H   0  0  0  0  0  0  0  0  0  0  0  0
  150.4022  140.6868  158.5621 H   0  0  0  0  0  0  0  0  0  0  0  0
  152.6144  141.3857  159.5061 H   0  0  0  0  0  0  0  0  0  0  0  0
  153.1422  141.6827  157.8713 H   0  0  0  0  0  0  0  0  0  0  0  0
  151.0979  143.3055  157.7000 H   0  0  0  0  0  0  0  0  0  0  0  0
  153.4938  143.9682  159.4616 H   0  0  0  0  0  0  0  0  0  0  0  0
  153.1478  144.5523  157.8309 H   0  0  0  0  0  0  0  0  0  0  0  0
  152.4196  146.0827  159.9231 H   0  0  0  0  0  0  0  0  0  0  0  0
  151.2360  145.8145  158.6364 H   0  0  0  0  0  0  0  0  0  0  0  0
  151.4455  144.3471  161.2885 H   0  0  0  0  0  0  0  0  0  0  0  0
  149.9910  144.9917  160.5252 H   0  0  0  0  0  0  0  0  0  0  0  0
  1  2  1  0  0  0  0
  1 19  1  0  0  0  0
  1 20  1  0  0  0  0
  1 21  1  0  0  0  0
  2  8  1  0  0  0  0
  2  3  2  0  0  0  0
  3  4  1  0  0  0  0
  4  5  1  0  0  0  0
  4  6  1  0  0  0  0
  5 22  1  0  0  0  0
  5 23  1  0  0  0  0
  5 24  1  0  0  0  0
  6  7  1  0  0  0  0
  6  8  2  0  0  0  0
  7 25  1  0  0  0  0
  7 26  1  0  0  0  0
  7 27  1  0  0  0  0
  8  9  1  0  0  0  0
  9 10  1  0  0  0  0
  9 28  1  0  0  0  0
  9 29  1  0  0  0  0
 10 11  2  0  0  0  0
 10 12  1  0  0  0  0
 12 13  1  0  0  0  0
 12 30  1  0  0  0  0
 13 14  1  0  0  0  0
 13 31  1  0  0  0  0
 13 32  1  0  0  0  0
 14 18  1  0  0  0  0
 14 15  1  0  0  0  0
 14 33  1  0  0  0  0
 15 16  1  0  0  0  0
 15 34  1  0  0  0  0
 15 35  1  0  0  0  0
 16 17  1  0  0  0  0
 16 36  1  0  0  0  0
 16 37  1  0  0  0  0
 17 18  1  0  0  0  0
 17 38  1  0  0  0  0
 17 39  1  0  0  0  0
M  END
> <s_m_source_file>
AV-unprocessed.smi

> <i_m_source_file_index>
3269

> <i_lp_mmshare_version>
43012

> <i_f3d_flags>
0

> <s_epik_input>
W0NIM11jMW5uKFtDSDNdKWMoW0NIM10pYzFbQ0gyXUMoPU8pW05IXVtDSDJdW0NAQEhdMltDSDJdW0NIMl1bQ0gyXU8y

> <s_epik_cmdline>
J2VwaWtfcHl0aG9uJywgJy1waCcsICc3LjAnLCAnLXRuJywgJzgnLCAnLW1hJywgJzIwMCcsICctbWV0YWxfYmluZGluZycsICctaW1hZScsICc8aW5maWxlLm1hZT4nLCAnLW9tYWUnLCAnPG91dGZpbGUubWFlPic=

> <r_lp_tautomer_probability>
1

> <r_epik_Ionization_Penalty>
0.00306713

> <r_epik_Ionization_Penalty_Charging>
0

> <r_epik_Ionization_Penalty_Neutral>
0.00306713

> <r_epik_State_Penalty>
0.00215672

> <r_epik_Charging_Adjusted_Penalty>
0.00215672

> <i_epik_Tot_Q>
0

> <i_epik_Tot_abs_Q>
0

> <r_epik_Metal_State_Penalty>
-0

> <b_epik_Metal_Only>
0

> <s_lp_Force_Field>
OPLS_2005

> <r_lp_Energy>
13.6043

> <b_lp_Chiralities_Consistent>
1

> <s_lp_Variant>
AV-unprocessed.smi:3269-1

> <Gold.Version>
5.8.1

> <Gold.Id.Protein>
6NUR|6NUR_protein|mol2

> <Gold.PLP.Fitness>
36.7964

> <Gold.PLP.PLP>
-31.7278

> <Gold.PLP.part.hbond>
-2.6403

> <Gold.PLP.part.metal>
0.0000

> <Gold.PLP.part.buried>
-5.7520

> <Gold.PLP.part.nonpolar>
-24.2876

> <Gold.PLP.part.repulsive>
0.1351

> <Gold.PLP.ligand.clash>
0.0000

> <Gold.PLP.ligand.torsion>
0.4685

> <Gold.PLP.Chemscore.Hbond>
2.0000

> <Gold.PLP.Chemscore.CHOScore>
0.0000

> <Gold.PLP.Chemscore.Metal>
0.0000

> <Gold.Chemscore.Hbonds>
donor molecule, donor type, donor heavy atom, donor atom, acceptor molecule, acceptor atom, score
      P1  H  6896  6909       L1     3  1.00
      P1  H  7997  8008       L1    11  1.00

> <Gold.PLP.Chemscore.Internal.Correction>
0.0055

> <Gold.Rescore>
     Score         DG    S(hbond)    S(metal)    S(lipo)     H(rot)  DE(clash)    DE(int)     intcor
     17.65     -17.91       1.97        0.00      82.87       1.50       0.01       0.25       ----

> <Gold.Chemscore.Fitness>
17.6479

> <Gold.Chemscore.DG>
-17.9111

> <Gold.Chemscore.ZeroCoef>
-5.4800

> <Gold.Chemscore.Hbond>
1.9677

> <Gold.Chemscore.Metal>
0.0000

> <Gold.Chemscore.Lipo>
82.8739

> <Gold.Chemscore.Internal_Hbond>
0.0000

> <Gold.Chemscore.DEClash>
0.0088

> <Gold.Chemscore.DEInternal>
0.2544

> <Gold.Chemscore.Rot>
1.4989

> <Gold.Chemscore.Internal.Correction>
   9.000000E+99

> <Gold.Chemscore.Hbonds>
donor molecule, donor type, donor heavy atom, donor atom, acceptor molecule, acceptor atom, score
      P1  H  6896  6909       L1     3  0.57
      P1  H  7997  8008       L1    11  0.98

> <Gold.Chemscore.Hbond.Weighted>
-6.5720

> <Gold.Chemscore.Metal.Weighted>
-0.0000

> <Gold.Chemscore.Lipo.Weighted>
-9.6962

> <Gold.Chemscore.Internal_Hbond.Weighted>
0.0000

> <Gold.Chemscore.DEClash.Weighted>
0.0088

> <Gold.Chemscore.DEInternal.Weighted>
0.2544

> <Gold.Chemscore.Rot.Weighted>
3.8371

> <Gold.Chemscore.Internal.Correction.Weighted>
   9.000000E+99

> <Gold.Protein.RotatedTorsions>
[ 6907 6896 6895 6894 ] final   79.71 input  -60.11 | X-H torsion
[ 7974 7965 7964 7962 ] final   17.19 input  175.53 | X-H torsion
[ 8008 7997 7996 7995 ] final  -31.08 input   59.86 | X-H torsion
[ 10167 10162 10161 10158 ] final -104.38 input  -65.29 | X-H torsion
[ 10718 10713 10712 10709 ] final   -1.56 input   66.30 | X-H torsion
[ 10763 10752 10751 10750 ] final   72.87 input  -60.55 | X-H torsion
[ 11005 11000 10999 10996 ] final   11.36 input  -57.11 | X-H torsion

> <Gold.Protein.ActiveResidues>
 VAL166  LYS551  ARG553  GLY616  TRP617  ASP618  TYR619  PRO620  LYS621  CYS622 
 ASP623  PHE694  ASN695  SER759  ASP760  ASP761  ALA762  ILE779  LEU786  VAL792 
 PHE793  MET794  SER795  GLU796  ALA797  LYS798  CYS799  TRP800  GLU811  SER814 

> <Gold.Protein.RotatedAtoms>
  152.5208  134.3470  159.9237 H   0  0  0  0  0  0  0  0  0  0  0  0  # atno 6907 bound_to 6896
  151.3420  133.3952  159.2680 H   0  0  0  0  0  0  0  0  0  0  0  0  # atno 6908 bound_to 6896
  150.9796  134.9172  159.7894 H   0  0  0  0  0  0  0  0  0  0  0  0  # atno 6909 bound_to 6896
  146.2226  139.8637  142.8600 H   0  0  0  0  0  0  0  0  0  0  0  0  # atno 7974 bound_to 7965
  154.4227  140.1774  156.1509 H   0  0  0  0  0  0  0  0  0  0  0  0  # atno 8008 bound_to 7997
  155.9916  140.3368  155.6734 H   0  0  0  0  0  0  0  0  0  0  0  0  # atno 8009 bound_to 7997
  155.6365  140.0675  157.2623 H   0  0  0  0  0  0  0  0  0  0  0  0  # atno 8010 bound_to 7997
  140.2099  143.3754  152.1059 H   0  0  0  0  0  0  0  0  0  0  0  0  # atno 10167 bound_to 10162
  156.8038  130.5401  149.5718 H   0  0  0  0  0  0  0  0  0  0  0  0  # atno 10718 bound_to 10713
  153.0486  135.5084  154.7809 H   0  0  0  0  0  0  0  0  0  0  0  0  # atno 10763 bound_to 10752
  154.6689  135.2950  154.9770 H   0  0  0  0  0  0  0  0  0  0  0  0  # atno 10764 bound_to 10752
  154.0595  135.6693  153.4862 H   0  0  0  0  0  0  0  0  0  0  0  0  # atno 10765 bound_to 10752
  140.5041  134.0717  155.7801 H   0  0  0  0  0  0  0  0  0  0  0  0  # atno 11005 bound_to 11000
  145.2678  141.0098  143.3789 LP  0  0  0  0  0  0  0  0  0  0  0  0  # atno 17320 bound_to 7965
  144.9248  139.4369  143.6524 LP  0  0  0  0  0  0  0  0  0  0  0  0  # atno 17321 bound_to 7965
  139.5184  144.7005  151.5507 LP  0  0  0  0  0  0  0  0  0  0  0  0  # atno 17342 bound_to 10162
  140.6331  143.9038  150.6623 LP  0  0  0  0  0  0  0  0  0  0  0  0  # atno 17343 bound_to 10162
  156.1085  130.6023  151.0010 LP  0  0  0  0  0  0  0  0  0  0  0  0  # atno 17370 bound_to 10713
  157.6540  131.0892  150.7987 LP  0  0  0  0  0  0  0  0  0  0  0  0  # atno 17371 bound_to 10713
  141.1420  133.9121  157.2303 LP  0  0  0  0  0  0  0  0  0  0  0  0  # atno 17394 bound_to 11000
  139.9696  135.0132  156.9478 LP  0  0  0  0  0  0  0  0  0  0  0  0  # atno 17395 bound_to 11000

$$$$
