AV-unprocessed.smi:247|AV-procd|sdf|1892|dock6
  -GOLD-   2262020553D 1   1.00000     0.00000
 Structure written by MMmdl.
 61 65  0  0  0  0  0  0  0  0  1 V2000
  143.0606  134.3378  153.9206 O   0  0  0  0  0  0  0  0  0  0  0  0
  144.4424  134.1740  153.6687 C   0  0  0  0  0  0  0  0  0  0  0  0
  144.7890  134.0745  152.1565 C   0  0  0  0  0  0  0  0  0  0  0  0
  144.5260  135.4638  151.4922 C   0  0  0  0  0  0  0  0  0  0  0  0
  145.2162  136.5842  152.1146 N   0  0  0  0  0  0  0  0  0  0  0  0
  146.2546  137.3133  151.5789 C   0  0  0  0  0  0  0  0  0  0  0  0
  146.7165  138.2678  152.3388 N   0  0  0  0  0  0  0  0  0  0  0  0
  145.9219  138.2062  153.4769 C   0  0  0  0  0  0  0  0  0  0  0  0
  145.8846  138.9273  154.7036 C   0  0  0  0  0  0  0  0  0  0  0  0
  146.7378  139.9185  155.0404 N   0  0  0  0  0  0  0  0  0  0  0  0
  146.2535  141.2613  154.7289 C   0  0  0  0  0  0  0  0  0  0  0  0
  147.4323  142.0231  154.1162 C   0  0  0  0  0  0  0  0  0  0  0  0
  148.6454  141.2207  154.5709 C   0  0  0  0  0  0  0  0  0  0  0  0
  148.1057  139.7849  154.5369 C   0  0  1  0  0  0  0  0  0  0  0  0
  148.9292  138.6674  155.2651 C   0  0  2  0  0  0  0  0  0  0  0  0
  149.0063  138.8148  156.8038 C   0  0  0  0  0  0  0  0  0  0  0  0
  149.7707  139.9629  157.1638 O   0  0  0  0  0  0  0  0  0  0  0  0
  151.1327  139.8801  156.7567 C   0  0  0  0  0  0  0  0  0  0  0  0
  151.2265  139.7406  155.2289 C   0  0  0  0  0  0  0  0  0  0  0  0
  150.3877  138.5434  154.7593 C   0  0  2  0  0  0  0  0  0  0  0  0
  150.4754  138.3985  153.3569 O   0  0  0  0  0  0  0  0  0  0  0  0
  144.9413  138.5873  155.6149 N   0  0  0  0  0  0  0  0  0  0  0  0
  144.0867  137.5942  155.3506 C   0  0  0  0  0  0  0  0  0  0  0  0
  144.0104  136.8252  154.2621 N   0  0  0  0  0  0  0  0  0  0  0  0
  144.9605  137.1665  153.3444 C   0  0  0  0  0  0  0  0  0  0  0  0
  146.2614  133.6179  151.9869 C   0  0  0  0  0  0  0  0  0  0  0  0
  146.6034  133.2762  150.5259 C   0  0  0  0  0  0  0  0  0  0  0  0
  145.7215  132.2682  150.0471 O   0  0  0  0  0  0  0  0  0  0  0  0
  144.3586  132.6760  150.0389 C   0  0  0  0  0  0  0  0  0  0  0  0
  143.8935  133.0113  151.4695 C   0  0  0  0  0  0  0  0  0  0  0  0
  142.7282  133.5391  154.3009 H   0  0  0  0  0  0  0  0  0  0  0  0
  144.9691  135.0132  154.1244 H   0  0  0  0  0  0  0  0  0  0  0  0
  144.7589  133.2758  154.1988 H   0  0  0  0  0  0  0  0  0  0  0  0
  144.8056  135.4618  150.4400 H   0  0  0  0  0  0  0  0  0  0  0  0
  143.4573  135.6820  151.5043 H   0  0  0  0  0  0  0  0  0  0  0  0
  146.6714  137.1056  150.6042 H   0  0  0  0  0  0  0  0  0  0  0  0
  145.3880  141.2689  154.0650 H   0  0  0  0  0  0  0  0  0  0  0  0
  145.9497  141.7323  155.6640 H   0  0  0  0  0  0  0  0  0  0  0  0
  147.3617  141.9965  153.0279 H   0  0  0  0  0  0  0  0  0  0  0  0
  147.4696  143.0675  154.4269 H   0  0  0  0  0  0  0  0  0  0  0  0
  149.5118  141.3684  153.9257 H   0  0  0  0  0  0  0  0  0  0  0  0
  148.9072  141.5300  155.5828 H   0  0  0  0  0  0  0  0  0  0  0  0
  148.0410  139.5231  153.4811 H   0  0  0  0  0  0  0  0  0  0  0  0
  148.4361  137.7127  155.0755 H   0  0  0  0  0  0  0  0  0  0  0  0
  148.0142  138.8781  157.2485 H   0  0  0  0  0  0  0  0  0  0  0  0
  149.4642  137.9278  157.2453 H   0  0  0  0  0  0  0  0  0  0  0  0
  151.6540  140.7796  157.0840 H   0  0  0  0  0  0  0  0  0  0  0  0
  151.6154  139.0361  157.2517 H   0  0  0  0  0  0  0  0  0  0  0  0
  150.8787  140.6599  154.7566 H   0  0  0  0  0  0  0  0  0  0  0  0
  152.2683  139.6138  154.9321 H   0  0  0  0  0  0  0  0  0  0  0  0
  150.8215  137.6370  155.1841 H   0  0  0  0  0  0  0  0  0  0  0  0
  149.7789  137.8278  153.0698 H   0  0  0  0  0  0  0  0  0  0  0  0
  143.3644  137.3815  156.1246 H   0  0  0  0  0  0  0  0  0  0  0  0
  146.9543  134.3632  152.3755 H   0  0  0  0  0  0  0  0  0  0  0  0
  146.4402  132.7205  152.5804 H   0  0  0  0  0  0  0  0  0  0  0  0
  146.5562  134.1560  149.8838 H   0  0  0  0  0  0  0  0  0  0  0  0
  147.6247  132.9003  150.4643 H   0  0  0  0  0  0  0  0  0  0  0  0
  144.2213  133.5179  149.3604 H   0  0  0  0  0  0  0  0  0  0  0  0
  143.7575  131.8595  149.6389 H   0  0  0  0  0  0  0  0  0  0  0  0
  143.9062  132.0820  152.0394 H   0  0  0  0  0  0  0  0  0  0  0  0
  142.8537  133.3395  151.4565 H   0  0  0  0  0  0  0  0  0  0  0  0
  1  2  1  0  0  0  0
  1 31  1  0  0  0  0
  2  3  1  0  0  0  0
  2 32  1  0  0  0  0
  2 33  1  0  0  0  0
  3 30  1  0  0  0  0
  3  4  1  0  0  0  0
  3 26  1  0  0  0  0
  4  5  1  0  0  0  0
  4 34  1  0  0  0  0
  4 35  1  0  0  0  0
  5 25  1  0  0  0  0
  5  6  1  0  0  0  0
  6  7  2  0  0  0  0
  6 36  1  0  0  0  0
  7  8  1  0  0  0  0
  8 25  2  0  0  0  0
  8  9  1  0  0  0  0
  9 10  1  0  0  0  0
  9 22  2  0  0  0  0
 10 14  1  0  0  0  0
 10 11  1  0  0  0  0
 11 12  1  0  0  0  0
 11 37  1  0  0  0  0
 11 38  1  0  0  0  0
 12 13  1  0  0  0  0
 12 39  1  0  0  0  0
 12 40  1  0  0  0  0
 13 14  1  0  0  0  0
 13 41  1  0  0  0  0
 13 42  1  0  0  0  0
 14 15  1  0  0  0  0
 14 43  1  0  0  0  0
 15 20  1  0  0  0  0
 15 16  1  0  0  0  0
 15 44  1  0  0  0  0
 16 17  1  0  0  0  0
 16 45  1  0  0  0  0
 16 46  1  0  0  0  0
 17 18  1  0  0  0  0
 18 19  1  0  0  0  0
 18 47  1  0  0  0  0
 18 48  1  0  0  0  0
 19 20  1  0  0  0  0
 19 49  1  0  0  0  0
 19 50  1  0  0  0  0
 20 21  1  0  0  0  0
 20 51  1  0  0  0  0
 21 52  1  0  0  0  0
 22 23  1  0  0  0  0
 23 24  2  0  0  0  0
 23 53  1  0  0  0  0
 24 25  1  0  0  0  0
 26 27  1  0  0  0  0
 26 54  1  0  0  0  0
 26 55  1  0  0  0  0
 27 28  1  0  0  0  0
 27 56  1  0  0  0  0
 27 57  1  0  0  0  0
 28 29  1  0  0  0  0
 29 30  1  0  0  0  0
 29 58  1  0  0  0  0
 29 59  1  0  0  0  0
 30 60  1  0  0  0  0
 30 61  1  0  0  0  0
M  END
> <s_m_source_file>
AV-unprocessed.smi

> <i_m_source_file_index>
247

> <i_lp_mmshare_version>
43012

> <i_f3d_flags>
0

> <s_epik_input>
W0NIMl0xW0NIMl1PW0NIMl1bQ0gyXUMxKFtDSDJdW09IXSlbQ0gyXW4oW2NIXW4yKWMoYzIzKW5bY0hdbmMzTjRbQ0gyXVtDSDJdW0NIMl1bQ0BIXTRbQ0BASF01W0NIMl1PW0NIMl1bQ0gyXVtDQEhdNVtPSF0=

> <s_epik_cmdline>
J2VwaWtfcHl0aG9uJywgJy1waCcsICc3LjAnLCAnLXRuJywgJzgnLCAnLW1hJywgJzIwMCcsICctbWV0YWxfYmluZGluZycsICctaW1hZScsICc8aW5maWxlLm1hZT4nLCAnLW9tYWUnLCAnPG91dGZpbGUubWFlPic=

> <r_lp_tautomer_probability>
1

> <r_epik_Ionization_Penalty>
0.00362597

> <r_epik_Ionization_Penalty_Charging>
0

> <r_epik_Ionization_Penalty_Neutral>
0.00362597

> <r_epik_State_Penalty>
0.00241433

> <r_epik_Charging_Adjusted_Penalty>
0.00241433

> <i_epik_Tot_Q>
0

> <i_epik_Tot_abs_Q>
0

> <r_epik_Metal_State_Penalty>
-0

> <b_epik_Metal_Only>
0

> <s_lp_Force_Field>
OPLS_2005

> <r_lp_Energy>
63.5358

> <b_lp_Chiralities_Consistent>
1

> <s_lp_Variant>
AV-unprocessed.smi:247-5

> <Gold.Version>
5.8.1

> <Gold.Id.Protein>
6NUR|6NUR_protein|mol2

> <Gold.PLP.Fitness>
42.7094

> <Gold.PLP.PLP>
-38.1203

> <Gold.PLP.part.hbond>
-3.9385

> <Gold.PLP.part.metal>
0.0000

> <Gold.PLP.part.buried>
-2.7217

> <Gold.PLP.part.nonpolar>
-34.5135

> <Gold.PLP.part.repulsive>
1.3487

> <Gold.PLP.ligand.clash>
0.0000

> <Gold.PLP.ligand.torsion>
0.9266

> <Gold.PLP.Chemscore.Hbond>
2.0000

> <Gold.PLP.Chemscore.CHOScore>
0.1140

> <Gold.PLP.Chemscore.Metal>
0.0000

> <Gold.Chemscore.Hbonds>
donor molecule, donor type, donor heavy atom, donor atom, acceptor molecule, acceptor atom, score
      L1  H     1    31       P1 10957  1.00
      L1  H    21    52       P1  7948  0.78
      L1  C     6    36       P1  7948  0.11

> <Gold.PLP.Chemscore.Internal.Correction>
0.1003

> <Gold.Rescore>
     Score         DG    S(hbond)    S(metal)    S(lipo)     H(rot)  DE(clash)    DE(int)     intcor
      6.95     -13.63       1.68        0.00      92.30       3.23       1.92       4.76       ----

> <Gold.Chemscore.Fitness>
6.9451

> <Gold.Chemscore.DG>
-13.6315

> <Gold.Chemscore.ZeroCoef>
-5.4800

> <Gold.Chemscore.Hbond>
1.6814

> <Gold.Chemscore.Metal>
0.0000

> <Gold.Chemscore.Lipo>
92.2974

> <Gold.Chemscore.Internal_Hbond>
0.0000

> <Gold.Chemscore.DEClash>
1.9244

> <Gold.Chemscore.DEInternal>
4.7620

> <Gold.Chemscore.Rot>
3.2278

> <Gold.Chemscore.Internal.Correction>
   9.000000E+99

> <Gold.Chemscore.Hbonds>
donor molecule, donor type, donor heavy atom, donor atom, acceptor molecule, acceptor atom, score
      L1  H     1    31       P1 10957  1.00
      L1  H    21    52       P1  7948  0.45

> <Gold.Chemscore.Hbond.Weighted>
-5.6160

> <Gold.Chemscore.Metal.Weighted>
-0.0000

> <Gold.Chemscore.Lipo.Weighted>
-10.7988

> <Gold.Chemscore.Internal_Hbond.Weighted>
0.0000

> <Gold.Chemscore.DEClash.Weighted>
1.9244

> <Gold.Chemscore.DEInternal.Weighted>
4.7620

> <Gold.Chemscore.Rot.Weighted>
8.2633

> <Gold.Chemscore.Internal.Correction.Weighted>
   9.000000E+99

> <Gold.Protein.RotatedTorsions>
[ 6907 6896 6895 6894 ] final   96.73 input  -60.11 | X-H torsion
[ 7974 7965 7964 7962 ] final    3.57 input  175.53 | X-H torsion
[ 8008 7997 7996 7995 ] final  -60.78 input   59.86 | X-H torsion
[ 10167 10162 10161 10158 ] final  -98.33 input  -65.29 | X-H torsion
[ 10718 10713 10712 10709 ] final  -41.75 input   66.30 | X-H torsion
[ 10763 10752 10751 10750 ] final  -43.06 input  -60.55 | X-H torsion
[ 11005 11000 10999 10996 ] final -179.97 input  -57.11 | X-H torsion

> <Gold.Protein.ActiveResidues>
 VAL166  LYS551  ARG553  GLY616  TRP617  ASP618  TYR619  PRO620  LYS621  CYS622 
 ASP623  PHE694  ASN695  SER759  ASP760  ASP761  ALA762  ILE779  LEU786  VAL792 
 PHE793  MET794  SER795  GLU796  ALA797  LYS798  CYS799  TRP800  GLU811  SER814 

> <Gold.Protein.RotatedAtoms>
  152.5432  134.0841  159.8248 H   0  0  0  0  0  0  0  0  0  0  0  0  # atno 6907 bound_to 6896
  151.0939  133.5287  159.2621 H   0  0  0  0  0  0  0  0  0  0  0  0  # atno 6908 bound_to 6896
  151.2068  135.0474  159.8949 H   0  0  0  0  0  0  0  0  0  0  0  0  # atno 6909 bound_to 6896
  146.2445  140.0665  142.8365 H   0  0  0  0  0  0  0  0  0  0  0  0  # atno 7974 bound_to 7965
  154.4415  140.1032  156.6327 H   0  0  0  0  0  0  0  0  0  0  0  0  # atno 8008 bound_to 7997
  155.5587  140.3487  155.4467 H   0  0  0  0  0  0  0  0  0  0  0  0  # atno 8009 bound_to 7997
  156.0475  140.1296  157.0076 H   0  0  0  0  0  0  0  0  0  0  0  0  # atno 8010 bound_to 7997
  140.2741  143.3324  152.0505 H   0  0  0  0  0  0  0  0  0  0  0  0  # atno 10167 bound_to 10162
  156.2670  130.4203  149.8479 H   0  0  0  0  0  0  0  0  0  0  0  0  # atno 10718 bound_to 10713
  153.9894  135.6707  153.4753 H   0  0  0  0  0  0  0  0  0  0  0  0  # atno 10763 bound_to 10752
  153.0712  135.4973  154.8305 H   0  0  0  0  0  0  0  0  0  0  0  0  # atno 10764 bound_to 10752
  154.7118  135.3099  154.9147 H   0  0  0  0  0  0  0  0  0  0  0  0  # atno 10765 bound_to 10752
  140.4127  134.6677  157.4622 H   0  0  0  0  0  0  0  0  0  0  0  0  # atno 11005 bound_to 11000
  145.0854  140.9249  143.4800 LP  0  0  0  0  0  0  0  0  0  0  0  0  # atno 17320 bound_to 7965
  145.0826  139.2948  143.5776 LP  0  0  0  0  0  0  0  0  0  0  0  0  # atno 17321 bound_to 7965
  139.4980  144.6636  151.6407 LP  0  0  0  0  0  0  0  0  0  0  0  0  # atno 17342 bound_to 10162
  140.5865  143.9854  150.6299 LP  0  0  0  0  0  0  0  0  0  0  0  0  # atno 17343 bound_to 10162
  156.5974  130.8532  151.3423 LP  0  0  0  0  0  0  0  0  0  0  0  0  # atno 17370 bound_to 10713
  157.7271  130.9638  150.1683 LP  0  0  0  0  0  0  0  0  0  0  0  0  # atno 17371 bound_to 10713
  140.0256  134.6482  155.9178 LP  0  0  0  0  0  0  0  0  0  0  0  0  # atno 17394 bound_to 11000
  141.1815  133.6547  156.5039 LP  0  0  0  0  0  0  0  0  0  0  0  0  # atno 17395 bound_to 11000

$$$$
