AV-unprocessed.smi:178|AV-procd|sdf|1447|dock3
  -GOLD-   2262019243D 1   1.00000     0.00000
 Structure written by MMmdl.
 50 52  0  0  0  0  0  0  0  0  1 V2000
  152.1155  145.1776  158.8174 C   0  0  0  0  0  0  0  0  0  0  0  0
  151.5981  143.9044  159.1625 O   0  0  0  0  0  0  0  0  0  0  0  0
  151.3709  143.0852  158.0287 C   0  0  0  0  0  0  0  0  0  0  0  0
  151.3980  141.6138  158.4709 C   0  0  0  0  0  0  0  0  0  0  0  0
  151.1983  140.6841  157.3569 N   0  0  0  0  0  0  0  0  0  0  0  0
  150.7404  141.2141  156.0752 C   0  0  0  0  0  0  0  0  0  0  0  0
  149.2106  141.2789  155.9760 C   0  0  0  0  0  0  0  0  0  0  0  0
  148.7457  141.3949  154.5865 C   0  0  0  0  0  0  0  0  0  0  0  0
  148.3793  141.4858  153.4930 N   0  0  0  0  0  0  0  0  0  0  0  0
  151.2816  139.3394  157.5735 C   0  0  0  0  0  0  0  0  0  0  0  0
  151.5252  138.9138  158.8422 N   0  0  0  0  0  0  0  0  0  0  0  0
  151.6214  137.6126  159.1242 C   0  0  0  0  0  0  0  0  0  0  0  0
  151.5086  136.5723  158.2997 N   0  0  0  0  0  0  0  0  0  0  0  0
  151.2617  136.9799  157.0231 C   0  0  0  0  0  0  0  0  0  0  0  0
  151.1305  138.3276  156.5738 C   0  0  0  0  0  0  0  0  0  0  0  0
  150.8590  138.3290  155.2087 N   0  0  0  0  0  0  0  0  0  0  0  0
  150.8412  137.0694  154.8733 C   0  0  0  0  0  0  0  0  0  0  0  0
  151.0863  136.1894  155.9006 N   0  0  0  0  0  0  0  0  0  0  0  0
  151.1341  134.7384  155.8104 C   0  0  0  0  0  0  0  0  0  0  0  0
  149.7813  134.0984  155.4149 C   0  0  1  0  0  0  0  0  0  0  0  0
  148.7335  134.9482  155.8533 O   0  0  0  0  0  0  0  0  0  0  0  0
  149.6435  133.9206  153.9098 C   0  0  0  0  0  0  0  0  0  0  0  0
  148.6429  132.7782  153.8013 C   0  0  0  0  0  0  0  0  0  0  0  0
  149.0093  131.9046  154.8584 O   0  0  0  0  0  0  0  0  0  0  0  0
  149.5763  132.6518  155.9338 C   0  0  2  0  0  0  0  0  0  0  0  0
  148.7193  132.4842  157.2011 C   0  0  0  0  0  0  0  0  0  0  0  0
  152.2797  145.7630  159.7223 H   0  0  0  0  0  0  0  0  0  0  0  0
  151.4195  145.7272  158.1824 H   0  0  0  0  0  0  0  0  0  0  0  0
  153.0696  145.0886  158.2963 H   0  0  0  0  0  0  0  0  0  0  0  0
  150.4070  143.3318  157.5811 H   0  0  0  0  0  0  0  0  0  0  0  0
  152.1387  143.2731  157.2775 H   0  0  0  0  0  0  0  0  0  0  0  0
  152.3619  141.4025  158.9351 H   0  0  0  0  0  0  0  0  0  0  0  0
  150.6547  141.4375  159.2492 H   0  0  0  0  0  0  0  0  0  0  0  0
  151.1474  142.2181  155.9520 H   0  0  0  0  0  0  0  0  0  0  0  0
  151.1602  140.6381  155.2511 H   0  0  0  0  0  0  0  0  0  0  0  0
  148.7516  140.3883  156.4044 H   0  0  0  0  0  0  0  0  0  0  0  0
  148.8259  142.1371  156.5264 H   0  0  0  0  0  0  0  0  0  0  0  0
  151.8177  137.3713  160.1584 H   0  0  0  0  0  0  0  0  0  0  0  0
  150.6543  136.7478  153.8591 H   0  0  0  0  0  0  0  0  0  0  0  0
  151.9087  134.4619  155.0936 H   0  0  0  0  0  0  0  0  0  0  0  0
  151.4632  134.3534  156.7766 H   0  0  0  0  0  0  0  0  0  0  0  0
  148.8749  135.8097  155.4915 H   0  0  0  0  0  0  0  0  0  0  0  0
  149.3230  134.8231  153.3878 H   0  0  0  0  0  0  0  0  0  0  0  0
  150.5933  133.6044  153.4758 H   0  0  0  0  0  0  0  0  0  0  0  0
  147.6258  133.1365  153.9660 H   0  0  0  0  0  0  0  0  0  0  0  0
  148.6776  132.2761  152.8344 H   0  0  0  0  0  0  0  0  0  0  0  0
  150.5508  132.1982  156.1170 H   0  0  0  0  0  0  0  0  0  0  0  0
  149.1230  133.0609  158.0332 H   0  0  0  0  0  0  0  0  0  0  0  0
  148.6879  131.4387  157.5084 H   0  0  0  0  0  0  0  0  0  0  0  0
  147.6908  132.8060  157.0363 H   0  0  0  0  0  0  0  0  0  0  0  0
  1  2  1  0  0  0  0
  1 27  1  0  0  0  0
  1 28  1  0  0  0  0
  1 29  1  0  0  0  0
  2  3  1  0  0  0  0
  3  4  1  0  0  0  0
  3 30  1  0  0  0  0
  3 31  1  0  0  0  0
  4  5  1  0  0  0  0
  4 32  1  0  0  0  0
  4 33  1  0  0  0  0
  5  6  1  0  0  0  0
  5 10  1  0  0  0  0
  6  7  1  0  0  0  0
  6 34  1  0  0  0  0
  6 35  1  0  0  0  0
  7  8  1  0  0  0  0
  7 36  1  0  0  0  0
  7 37  1  0  0  0  0
  8  9  3  0  0  0  0
 10 15  1  0  0  0  0
 10 11  2  0  0  0  0
 11 12  1  0  0  0  0
 12 13  2  0  0  0  0
 12 38  1  0  0  0  0
 13 14  1  0  0  0  0
 14 18  1  0  0  0  0
 14 15  2  0  0  0  0
 15 16  1  0  0  0  0
 16 17  2  0  0  0  0
 17 18  1  0  0  0  0
 17 39  1  0  0  0  0
 18 19  1  0  0  0  0
 19 20  1  0  0  0  0
 19 40  1  0  0  0  0
 19 41  1  0  0  0  0
 20 25  1  0  0  0  0
 20 21  1  0  0  0  0
 20 22  1  0  0  0  0
 21 42  1  0  0  0  0
 22 23  1  0  0  0  0
 22 43  1  0  0  0  0
 22 44  1  0  0  0  0
 23 24  1  0  0  0  0
 23 45  1  0  0  0  0
 23 46  1  0  0  0  0
 24 25  1  0  0  0  0
 25 26  1  0  0  0  0
 25 47  1  0  0  0  0
 26 48  1  0  0  0  0
 26 49  1  0  0  0  0
 26 50  1  0  0  0  0
M  END
> <s_m_source_file>
AV-unprocessed.smi

> <i_m_source_file_index>
178

> <i_lp_mmshare_version>
43012

> <i_f3d_flags>
0

> <s_epik_input>
W0NIM11PW0NIMl1bQ0gyXU4oW0NIMl1bQ0gyXUMjTiljKG5bY0hdbjEpYyhjMTIpbltjSF1uMltDSDJdW0NAQF0zKFtPSF0pW0NIMl1bQ0gyXU9bQ0BIXTNbQ0gzXQ==

> <s_epik_cmdline>
J2VwaWtfcHl0aG9uJywgJy1waCcsICc3LjAnLCAnLXRuJywgJzgnLCAnLW1hJywgJzIwMCcsICctbWV0YWxfYmluZGluZycsICctaW1hZScsICc8aW5maWxlLm1hZT4nLCAnLW9tYWUnLCAnPG91dGZpbGUubWFlPic=

> <r_lp_tautomer_probability>
1

> <r_epik_Ionization_Penalty>
0.000885317

> <r_epik_Ionization_Penalty_Charging>
0

> <r_epik_Ionization_Penalty_Neutral>
0.000885317

> <r_epik_State_Penalty>
0.00047273

> <r_epik_Charging_Adjusted_Penalty>
0.00047273

> <i_epik_Tot_Q>
0

> <i_epik_Tot_abs_Q>
0

> <r_epik_Metal_State_Penalty>
-0

> <b_epik_Metal_Only>
0

> <s_lp_Force_Field>
OPLS_2005

> <r_lp_Energy>
28.3017

> <b_lp_Chiralities_Consistent>
1

> <s_lp_Variant>
AV-unprocessed.smi:178-3

> <Gold.Version>
5.8.1

> <Gold.Id.Protein>
6NUR|6NUR_protein|mol2

> <Gold.PLP.Fitness>
41.9839

> <Gold.PLP.PLP>
-37.7431

> <Gold.PLP.part.hbond>
-2.0000

> <Gold.PLP.part.metal>
0.0000

> <Gold.PLP.part.buried>
-5.6450

> <Gold.PLP.part.nonpolar>
-30.9104

> <Gold.PLP.part.repulsive>
1.1843

> <Gold.PLP.ligand.clash>
0.0000

> <Gold.PLP.ligand.torsion>
1.2475

> <Gold.PLP.Chemscore.Hbond>
1.2403

> <Gold.PLP.Chemscore.CHOScore>
0.9170

> <Gold.PLP.Chemscore.Metal>
0.0000

> <Gold.Chemscore.Hbonds>
donor molecule, donor type, donor heavy atom, donor atom, acceptor molecule, acceptor atom, score
      P1  H  6896  6908       L1    13  0.34
      P1  H  8011  8017       L1     9  0.69
      L1  C    17    39       P1  7948  0.37
      L1  C    17    39       P1  7949  0.65

> <Gold.PLP.Chemscore.Internal.Correction>
0.2640

> <Gold.Rescore>
     Score         DG    S(hbond)    S(metal)    S(lipo)     H(rot)  DE(clash)    DE(int)     intcor
      8.16     -10.44       1.42        0.00      75.55       3.37       0.10       2.18       ----

> <Gold.Chemscore.Fitness>
8.1572

> <Gold.Chemscore.DG>
-10.4362

> <Gold.Chemscore.ZeroCoef>
-5.4800

> <Gold.Chemscore.Hbond>
1.4227

> <Gold.Chemscore.Metal>
0.0000

> <Gold.Chemscore.Lipo>
75.5529

> <Gold.Chemscore.Internal_Hbond>
0.0000

> <Gold.Chemscore.DEClash>
0.1036

> <Gold.Chemscore.DEInternal>
2.1754

> <Gold.Chemscore.Rot>
3.3732

> <Gold.Chemscore.Internal.Correction>
   9.000000E+99

> <Gold.Chemscore.Hbonds>
donor molecule, donor type, donor heavy atom, donor atom, acceptor molecule, acceptor atom, score
      P1  H  6896  6908       L1    13  0.06
      P1  H  8011  8017       L1     9  0.51

> <Gold.Chemscore.Hbond.Weighted>
-4.7519

> <Gold.Chemscore.Metal.Weighted>
-0.0000

> <Gold.Chemscore.Lipo.Weighted>
-8.8397

> <Gold.Chemscore.Internal_Hbond.Weighted>
0.0000

> <Gold.Chemscore.DEClash.Weighted>
0.1036

> <Gold.Chemscore.DEInternal.Weighted>
2.1754

> <Gold.Chemscore.Rot.Weighted>
8.6354

> <Gold.Chemscore.Internal.Correction.Weighted>
   9.000000E+99

> <Gold.Protein.RotatedTorsions>
[ 6907 6896 6895 6894 ] final -147.14 input  -60.11 | X-H torsion
[ 7974 7965 7964 7962 ] final   86.50 input  175.53 | X-H torsion
[ 8008 7997 7996 7995 ] final  105.95 input   59.86 | X-H torsion
[ 10167 10162 10161 10158 ] final  108.23 input  -65.29 | X-H torsion
[ 10718 10713 10712 10709 ] final -126.51 input   66.30 | X-H torsion
[ 10763 10752 10751 10750 ] final  -99.45 input  -60.55 | X-H torsion
[ 11005 11000 10999 10996 ] final -166.49 input  -57.11 | X-H torsion

> <Gold.Protein.ActiveResidues>
 VAL166  LYS551  ARG553  GLY616  TRP617  ASP618  TYR619  PRO620  LYS621  CYS622 
 ASP623  PHE694  ASN695  SER759  ASP760  ASP761  ALA762  ILE779  LEU786  VAL792 
 PHE793  MET794  SER795  GLU796  ALA797  LYS798  CYS799  TRP800  GLU811  SER814 

> <Gold.Protein.RotatedAtoms>
  151.1515  133.4904  159.2595 H   0  0  0  0  0  0  0  0  0  0  0  0  # atno 6907 bound_to 6896
  151.1549  135.0245  159.8695 H   0  0  0  0  0  0  0  0  0  0  0  0  # atno 6908 bound_to 6896
  152.5463  134.1395  159.8526 H   0  0  0  0  0  0  0  0  0  0  0  0  # atno 6909 bound_to 6896
  145.5714  139.2314  143.2404 H   0  0  0  0  0  0  0  0  0  0  0  0  # atno 7974 bound_to 7965
  156.1702  140.3121  155.8960 H   0  0  0  0  0  0  0  0  0  0  0  0  # atno 8008 bound_to 7997
  155.3602  140.0476  157.3063 H   0  0  0  0  0  0  0  0  0  0  0  0  # atno 8009 bound_to 7997
  154.5233  140.2206  155.8946 H   0  0  0  0  0  0  0  0  0  0  0  0  # atno 8010 bound_to 7997
  139.6862  144.7113  151.1427 H   0  0  0  0  0  0  0  0  0  0  0  0  # atno 10167 bound_to 10162
  156.1772  130.6707  151.0257 H   0  0  0  0  0  0  0  0  0  0  0  0  # atno 10718 bound_to 10713
  154.7499  135.4972  153.9270 H   0  0  0  0  0  0  0  0  0  0  0  0  # atno 10763 bound_to 10752
  153.1132  135.6714  153.9472 H   0  0  0  0  0  0  0  0  0  0  0  0  # atno 10764 bound_to 10752
  153.9225  135.3087  155.3426 H   0  0  0  0  0  0  0  0  0  0  0  0  # atno 10765 bound_to 10752
  140.5639  134.5305  157.5149 H   0  0  0  0  0  0  0  0  0  0  0  0  # atno 11005 bound_to 11000
  146.1781  140.6540  142.9202 LP  0  0  0  0  0  0  0  0  0  0  0  0  # atno 17320 bound_to 7965
  144.7436  140.5008  143.6852 LP  0  0  0  0  0  0  0  0  0  0  0  0  # atno 17321 bound_to 7965
  140.7668  143.5625  150.9083 LP  0  0  0  0  0  0  0  0  0  0  0  0  # atno 17342 bound_to 10162
  139.9300  143.6504  152.3078 LP  0  0  0  0  0  0  0  0  0  0  0  0  # atno 17343 bound_to 10162
  157.6843  131.0829  150.7284 LP  0  0  0  0  0  0  0  0  0  0  0  0  # atno 17370 bound_to 10713
  156.7342  130.4719  149.5492 LP  0  0  0  0  0  0  0  0  0  0  0  0  # atno 17371 bound_to 10713
  139.9394  134.7814  156.0717 LP  0  0  0  0  0  0  0  0  0  0  0  0  # atno 17394 bound_to 11000
  141.1098  133.6647  156.2950 LP  0  0  0  0  0  0  0  0  0  0  0  0  # atno 17395 bound_to 11000

$$$$
