AV-unprocessed.smi:86|AV-procd|sdf|815|dock10
  -GOLD-   2262017213D 1   1.00000     0.00000
 Structure written by MMmdl.
 51 55  0  0  0  0  0  0  0  0  1 V2000
  150.2049  136.6514  158.9049 O   0  0  0  0  0  0  0  0  0  0  0  0
  148.8570  137.0767  158.8948 C   0  0  0  0  0  0  0  0  0  0  0  0
  147.9740  136.1761  159.7762 C   0  0  0  0  0  0  0  0  0  0  0  0
  148.0401  134.7083  159.3040 C   0  0  0  0  0  0  0  0  0  0  0  0
  147.8259  134.5301  157.8755 N   0  0  0  0  0  0  0  0  0  0  0  0
  148.6779  133.9114  156.9899 C   0  0  0  0  0  0  0  0  0  0  0  0
  148.2627  133.8741  155.7543 N   0  0  0  0  0  0  0  0  0  0  0  0
  147.0210  134.5008  155.7847 C   0  0  0  0  0  0  0  0  0  0  0  0
  146.0228  134.7993  154.8083 C   0  0  0  0  0  0  0  0  0  0  0  0
  146.1079  134.4817  153.4901 N   0  0  0  0  0  0  0  0  0  0  0  0
  147.0921  133.5321  152.9767 C   0  0  0  0  0  0  0  0  0  0  0  0
  146.4842  132.9612  151.6862 C   0  0  1  0  0  0  0  0  0  0  0  0
  145.7413  131.6342  151.9584 C   0  0  0  0  0  0  0  0  0  0  0  0
  144.8104  131.2430  150.8032 C   0  0  0  0  0  0  0  0  0  0  0  0
  143.7824  132.3552  150.5463 C   0  0  2  0  0  0  0  0  0  0  0  0
  142.9323  131.9771  149.4843 O   0  0  0  0  0  0  0  0  0  0  0  0
  144.4848  133.6765  150.1931 C   0  0  0  0  0  0  0  0  0  0  0  0
  145.5403  134.0898  151.2373 C   0  0  1  0  0  0  0  0  0  0  0  0
  145.0023  134.6419  152.5588 C   0  0  0  0  0  0  0  0  0  0  0  0
  144.9020  135.4338  155.2426 N   0  0  0  0  0  0  0  0  0  0  0  0
  144.7602  135.7618  156.5292 C   0  0  0  0  0  0  0  0  0  0  0  0
  145.6037  135.5517  157.5398 N   0  0  0  0  0  0  0  0  0  0  0  0
  146.7322  134.9141  157.1185 C   0  0  0  0  0  0  0  0  0  0  0  0
  148.1333  136.4003  161.2864 C   0  0  0  0  0  0  0  0  0  0  0  0
  146.9458  137.2180  161.3458 O   0  0  0  0  0  0  0  0  0  0  0  0
  146.5686  136.7363  160.0387 C   0  0  0  0  0  0  0  0  0  0  0  0
  150.4838  136.5184  158.0116 H   0  0  0  0  0  0  0  0  0  0  0  0
  148.8317  138.1058  159.2550 H   0  0  0  0  0  0  0  0  0  0  0  0
  148.4984  137.1113  157.8662 H   0  0  0  0  0  0  0  0  0  0  0  0
  149.0048  134.2683  159.5596 H   0  0  0  0  0  0  0  0  0  0  0  0
  147.2989  134.1045  159.8291 H   0  0  0  0  0  0  0  0  0  0  0  0
  149.6275  133.4926  157.2900 H   0  0  0  0  0  0  0  0  0  0  0  0
  148.0137  134.0728  152.7593 H   0  0  0  0  0  0  0  0  0  0  0  0
  147.3261  132.7415  153.6909 H   0  0  0  0  0  0  0  0  0  0  0  0
  147.2553  132.7864  150.9348 H   0  0  0  0  0  0  0  0  0  0  0  0
  146.4634  130.8377  152.1395 H   0  0  0  0  0  0  0  0  0  0  0  0
  145.1491  131.7180  152.8710 H   0  0  0  0  0  0  0  0  0  0  0  0
  145.3985  131.0564  149.9034 H   0  0  0  0  0  0  0  0  0  0  0  0
  144.3005  130.3094  151.0434 H   0  0  0  0  0  0  0  0  0  0  0  0
  143.1636  132.4923  151.4337 H   0  0  0  0  0  0  0  0  0  0  0  0
  142.3016  132.6668  149.3441 H   0  0  0  0  0  0  0  0  0  0  0  0
  144.9823  133.5653  149.2284 H   0  0  0  0  0  0  0  0  0  0  0  0
  143.7529  134.4752  150.0668 H   0  0  0  0  0  0  0  0  0  0  0  0
  146.1527  134.8769  150.7936 H   0  0  0  0  0  0  0  0  0  0  0  0
  144.1439  134.0690  152.9111 H   0  0  0  0  0  0  0  0  0  0  0  0
  144.7077  135.6868  152.4580 H   0  0  0  0  0  0  0  0  0  0  0  0
  143.8386  136.2631  156.7855 H   0  0  0  0  0  0  0  0  0  0  0  0
  148.0293  135.4926  161.8834 H   0  0  0  0  0  0  0  0  0  0  0  0
  149.0348  136.9472  161.5647 H   0  0  0  0  0  0  0  0  0  0  0  0
  146.2743  137.5382  159.3606 H   0  0  0  0  0  0  0  0  0  0  0  0
  145.7880  135.9778  160.1058 H   0  0  0  0  0  0  0  0  0  0  0  0
  1  2  1  0  0  0  0
  1 27  1  0  0  0  0
  2  3  1  0  0  0  0
  2 28  1  0  0  0  0
  2 29  1  0  0  0  0
  3 26  1  0  0  0  0
  3  4  1  0  0  0  0
  3 24  1  0  0  0  0
  4  5  1  0  0  0  0
  4 30  1  0  0  0  0
  4 31  1  0  0  0  0
  5 23  1  0  0  0  0
  5  6  1  0  0  0  0
  6  7  2  0  0  0  0
  6 32  1  0  0  0  0
  7  8  1  0  0  0  0
  8 23  2  0  0  0  0
  8  9  1  0  0  0  0
  9 10  1  0  0  0  0
  9 20  2  0  0  0  0
 10 19  1  0  0  0  0
 10 11  1  0  0  0  0
 11 12  1  0  0  0  0
 11 33  1  0  0  0  0
 11 34  1  0  0  0  0
 12 18  1  0  0  0  0
 12 13  1  0  0  0  0
 12 35  1  0  0  0  0
 13 14  1  0  0  0  0
 13 36  1  0  0  0  0
 13 37  1  0  0  0  0
 14 15  1  0  0  0  0
 14 38  1  0  0  0  0
 14 39  1  0  0  0  0
 15 16  1  0  0  0  0
 15 17  1  0  0  0  0
 15 40  1  0  0  0  0
 16 41  1  0  0  0  0
 17 18  1  0  0  0  0
 17 42  1  0  0  0  0
 17 43  1  0  0  0  0
 18 19  1  0  0  0  0
 18 44  1  0  0  0  0
 19 45  1  0  0  0  0
 19 46  1  0  0  0  0
 20 21  1  0  0  0  0
 21 22  2  0  0  0  0
 21 47  1  0  0  0  0
 22 23  1  0  0  0  0
 24 25  1  0  0  0  0
 24 48  1  0  0  0  0
 24 49  1  0  0  0  0
 25 26  1  0  0  0  0
 26 50  1  0  0  0  0
 26 51  1  0  0  0  0
M  END
> <s_m_source_file>
AV-unprocessed.smi

> <i_m_source_file_index>
86

> <i_lp_mmshare_version>
43012

> <i_f3d_flags>
0

> <s_epik_input>
W0NIMl0xT1tDSDJdQzEoW0NIMl1bT0hdKVtDSDJdbihbY0hdbjIpYyhjMjMpbltjSF1uYzNOKFtDSDJdNClbQ0gyXVtDQEBIXShbQ0BIXTQ1KVtDSDJdW0NASF0oW09IXSlbQ0gyXVtDSDJdNQ==

> <s_epik_cmdline>
J2VwaWtfcHl0aG9uJywgJy1waCcsICc3LjAnLCAnLXRuJywgJzgnLCAnLW1hJywgJzIwMCcsICctbWV0YWxfYmluZGluZycsICctaW1hZScsICc8aW5maWxlLm1hZT4nLCAnLW9tYWUnLCAnPG91dGZpbGUubWFlPic=

> <r_lp_tautomer_probability>
1

> <r_epik_Ionization_Penalty>
0.00425795

> <r_epik_Ionization_Penalty_Charging>
0

> <r_epik_Ionization_Penalty_Neutral>
0.00425795

> <r_epik_State_Penalty>
0.00299946

> <r_epik_Charging_Adjusted_Penalty>
0.00299946

> <i_epik_Tot_Q>
0

> <i_epik_Tot_abs_Q>
0

> <r_epik_Metal_State_Penalty>
-0

> <b_epik_Metal_Only>
0

> <s_lp_Force_Field>
OPLS_2005

> <r_lp_Energy>
53.5729

> <b_lp_Chiralities_Consistent>
1

> <s_lp_Variant>
AV-unprocessed.smi:86-4

> <Gold.Version>
5.8.1

> <Gold.Id.Protein>
6NUR|6NUR_protein|mol2

> <Gold.PLP.Fitness>
44.5434

> <Gold.PLP.PLP>
-33.5961

> <Gold.PLP.part.hbond>
-5.0812

> <Gold.PLP.part.metal>
0.0000

> <Gold.PLP.part.buried>
-5.9894

> <Gold.PLP.part.nonpolar>
-22.5253

> <Gold.PLP.part.repulsive>
0.0466

> <Gold.PLP.ligand.clash>
0.0000

> <Gold.PLP.ligand.torsion>
0.3128

> <Gold.PLP.Chemscore.Hbond>
3.7050

> <Gold.PLP.Chemscore.CHOScore>
0.0000

> <Gold.PLP.Chemscore.Metal>
0.0000

> <Gold.Chemscore.Hbonds>
donor molecule, donor type, donor heavy atom, donor atom, acceptor molecule, acceptor atom, score
      L1  H    16    41       P1 10186  0.63
      P1  H  6896  6908       L1     1  0.99
      P1  H  6934  6947       L1    25  0.95
      P1  H 10785 10796       L1    16  1.00

> <Gold.PLP.Chemscore.Internal.Correction>
0.4579

> <Gold.Rescore>
     Score         DG    S(hbond)    S(metal)    S(lipo)     H(rot)  DE(clash)    DE(int)     intcor
     15.05     -17.72       3.07        0.00      77.51       2.76       0.09       2.59       ----

> <Gold.Chemscore.Fitness>
15.0470

> <Gold.Chemscore.DG>
-17.7246

> <Gold.Chemscore.ZeroCoef>
-5.4800

> <Gold.Chemscore.Hbond>
3.0685

> <Gold.Chemscore.Metal>
0.0000

> <Gold.Chemscore.Lipo>
77.5131

> <Gold.Chemscore.Internal_Hbond>
0.0000

> <Gold.Chemscore.DEClash>
0.0915

> <Gold.Chemscore.DEInternal>
2.5861

> <Gold.Chemscore.Rot>
2.7630

> <Gold.Chemscore.Internal.Correction>
   9.000000E+99

> <Gold.Chemscore.Hbonds>
donor molecule, donor type, donor heavy atom, donor atom, acceptor molecule, acceptor atom, score
      L1  H    16    41       P1 10186  0.63
      P1  H  6896  6908       L1     1  0.28
      P1  H  6934  6947       L1    25  0.20
      P1  H 10785 10796       L1    16  0.91

> <Gold.Chemscore.Hbond.Weighted>
-10.2489

> <Gold.Chemscore.Metal.Weighted>
-0.0000

> <Gold.Chemscore.Lipo.Weighted>
-9.0690

> <Gold.Chemscore.Internal_Hbond.Weighted>
0.0000

> <Gold.Chemscore.DEClash.Weighted>
0.0915

> <Gold.Chemscore.DEInternal.Weighted>
2.5861

> <Gold.Chemscore.Rot.Weighted>
7.0734

> <Gold.Chemscore.Internal.Correction.Weighted>
   9.000000E+99

> <Gold.Protein.RotatedTorsions>
[ 6907 6896 6895 6894 ] final -150.32 input  -60.11 | X-H torsion
[ 7974 7965 7964 7962 ] final   95.33 input  175.53 | X-H torsion
[ 8008 7997 7996 7995 ] final  134.17 input   59.86 | X-H torsion
[ 10167 10162 10161 10158 ] final -169.44 input  -65.29 | X-H torsion
[ 10718 10713 10712 10709 ] final  174.04 input   66.30 | X-H torsion
[ 10763 10752 10751 10750 ] final  152.37 input  -60.55 | X-H torsion
[ 11005 11000 10999 10996 ] final   45.91 input  -57.11 | X-H torsion

> <Gold.Protein.ActiveResidues>
 VAL166  LYS551  ARG553  GLY616  TRP617  ASP618  TYR619  PRO620  LYS621  CYS622 
 ASP623  PHE694  ASN695  SER759  ASP760  ASP761  ALA762  ILE779  LEU786  VAL792 
 PHE793  MET794  SER795  GLU796  ALA797  LYS798  CYS799  TRP800  GLU811  SER814 

> <Gold.Protein.RotatedAtoms>
  151.1969  133.4634  159.2595 H   0  0  0  0  0  0  0  0  0  0  0  0  # atno 6907 bound_to 6896
  151.1108  135.0025  159.8503 H   0  0  0  0  0  0  0  0  0  0  0  0  # atno 6908 bound_to 6896
  152.5450  134.1888  159.8718 H   0  0  0  0  0  0  0  0  0  0  0  0  # atno 6909 bound_to 6896
  145.4536  139.2291  143.3026 H   0  0  0  0  0  0  0  0  0  0  0  0  # atno 7974 bound_to 7965
  156.2997  140.2503  156.3373 H   0  0  0  0  0  0  0  0  0  0  0  0  # atno 8008 bound_to 7997
  154.9088  140.0404  157.1954 H   0  0  0  0  0  0  0  0  0  0  0  0  # atno 8009 bound_to 7997
  154.8426  140.2893  155.5654 H   0  0  0  0  0  0  0  0  0  0  0  0  # atno 8010 bound_to 7997
  139.5923  144.1187  152.1648 H   0  0  0  0  0  0  0  0  0  0  0  0  # atno 10167 bound_to 10162
  156.9554  131.0044  151.2939 H   0  0  0  0  0  0  0  0  0  0  0  0  # atno 10718 bound_to 10713
  154.1190  135.2834  155.3213 H   0  0  0  0  0  0  0  0  0  0  0  0  # atno 10763 bound_to 10752
  154.6437  135.5393  153.7822 H   0  0  0  0  0  0  0  0  0  0  0  0  # atno 10764 bound_to 10752
  153.0319  135.6492  154.1345 H   0  0  0  0  0  0  0  0  0  0  0  0  # atno 10765 bound_to 10752
  140.1417  134.4575  155.8445 H   0  0  0  0  0  0  0  0  0  0  0  0  # atno 11005 bound_to 11000
  146.2490  140.5298  142.8901 LP  0  0  0  0  0  0  0  0  0  0  0  0  # atno 17320 bound_to 7965
  144.8046  140.6276  143.6455 LP  0  0  0  0  0  0  0  0  0  0  0  0  # atno 17321 bound_to 7965
  140.0764  144.5736  150.7154 LP  0  0  0  0  0  0  0  0  0  0  0  0  # atno 17342 bound_to 10162
  140.7183  143.2565  151.4362 LP  0  0  0  0  0  0  0  0  0  0  0  0  # atno 17343 bound_to 10162
  157.5694  130.8300  149.8371 LP  0  0  0  0  0  0  0  0  0  0  0  0  # atno 17370 bound_to 10713
  156.0345  130.3755  150.1598 LP  0  0  0  0  0  0  0  0  0  0  0  0  # atno 17371 bound_to 10713
  141.2187  133.6836  156.7258 LP  0  0  0  0  0  0  0  0  0  0  0  0  # atno 17394 bound_to 11000
  140.2714  134.8389  157.3851 LP  0  0  0  0  0  0  0  0  0  0  0  0  # atno 17395 bound_to 11000

$$$$
