AV-unprocessed.smi:1550|AV-procd|sdf|6227|dock5
  -GOLD-   22720 6403D 1   1.00000     0.00000
 Structure written by MMmdl.
 43 44  0  0  0  0  0  0  0  0  1 V2000
  148.1462  138.5228  156.9559 C   0  0  0  0  0  0  0  0  0  0  0  0
  149.3924  138.4224  157.8479 C   0  0  1  0  0  0  0  0  0  0  0  0
  149.5758  139.6911  158.4699 O   0  0  0  0  0  0  0  0  0  0  0  0
  149.7920  140.7821  157.5820 C   0  0  0  0  0  0  0  0  0  0  0  0
  151.0622  141.5236  158.0165 C   0  0  1  0  0  0  0  0  0  0  0  0
  151.0339  143.0064  157.5972 C   0  0  0  0  0  0  0  0  0  0  0  0
  152.2785  143.7359  158.1160 C   0  0  0  0  0  0  0  0  0  0  0  0
  152.4178  143.5134  159.6256 C   0  0  0  0  0  0  0  0  0  0  0  0
  152.3605  142.0127  159.9522 C   0  0  0  0  0  0  0  0  0  0  0  0
  151.1574  141.4502  159.4377 O   0  0  0  0  0  0  0  0  0  0  0  0
  149.2298  137.3279  158.9149 C   0  0  0  0  0  0  0  0  0  0  0  0
  150.2296  136.7711  159.3688 O   0  0  0  0  0  0  0  0  0  0  0  0
  147.9614  137.0563  159.2804 N   0  0  0  0  0  0  0  0  0  0  0  0
  147.4891  136.0736  160.1657 C   0  0  0  0  0  0  0  0  0  0  0  0
  147.4192  134.7473  159.8789 C   0  0  0  0  0  0  0  0  0  0  0  0
  146.9009  133.7797  160.8328 C   0  0  0  0  0  0  0  0  0  0  0  0
  146.8241  132.2920  160.5278 C   0  0  0  0  0  0  0  0  0  0  0  0
  147.3036  132.0470  159.3088 F   0  0  0  0  0  0  0  0  0  0  0  0
  147.5576  131.6046  161.4032 F   0  0  0  0  0  0  0  0  0  0  0  0
  145.5711  131.8399  160.5846 F   0  0  0  0  0  0  0  0  0  0  0  0
  146.4814  134.2669  162.0143 C   0  0  0  0  0  0  0  0  0  0  0  0
  146.5398  135.6303  162.3121 N   0  0  0  0  0  0  0  0  0  0  0  0
  147.0118  136.5730  161.4658 C   0  0  0  0  0  0  0  0  0  0  0  0
  147.0256  137.7572  161.7999 O   0  0  0  0  0  0  0  0  0  0  0  0
  146.2026  135.9168  163.2200 H   0  0  0  0  0  0  0  0  0  0  0  0
  147.9413  137.5766  156.4538 H   0  0  0  0  0  0  0  0  0  0  0  0
  148.2842  139.2812  156.1848 H   0  0  0  0  0  0  0  0  0  0  0  0
  147.2606  138.7971  157.5305 H   0  0  0  0  0  0  0  0  0  0  0  0
  150.2524  138.2022  157.2119 H   0  0  0  0  0  0  0  0  0  0  0  0
  149.9215  140.4163  156.5627 H   0  0  0  0  0  0  0  0  0  0  0  0
  148.9345  141.4568  157.5808 H   0  0  0  0  0  0  0  0  0  0  0  0
  151.9276  141.0363  157.5632 H   0  0  0  0  0  0  0  0  0  0  0  0
  150.9782  143.0930  156.5116 H   0  0  0  0  0  0  0  0  0  0  0  0
  150.1380  143.4846  157.9956 H   0  0  0  0  0  0  0  0  0  0  0  0
  153.1645  143.3565  157.6055 H   0  0  0  0  0  0  0  0  0  0  0  0
  152.2179  144.8009  157.8913 H   0  0  0  0  0  0  0  0  0  0  0  0
  153.3527  143.9434  159.9861 H   0  0  0  0  0  0  0  0  0  0  0  0
  151.6124  144.0305  160.1486 H   0  0  0  0  0  0  0  0  0  0  0  0
  153.2245  141.4904  159.5386 H   0  0  0  0  0  0  0  0  0  0  0  0
  152.3857  141.8630  161.0317 H   0  0  0  0  0  0  0  0  0  0  0  0
  147.2461  137.6566  158.8953 H   0  0  0  0  0  0  0  0  0  0  0  0
  147.7297  134.3789  158.9148 H   0  0  0  0  0  0  0  0  0  0  0  0
  146.0744  133.6586  162.8086 H   0  0  0  0  0  0  0  0  0  0  0  0
  1  2  1  0  0  0  0
  1 26  1  0  0  0  0
  1 27  1  0  0  0  0
  1 28  1  0  0  0  0
  2  3  1  0  0  0  0
  2 11  1  0  0  0  0
  2 29  1  0  0  0  0
  3  4  1  0  0  0  0
  4  5  1  0  0  0  0
  4 30  1  0  0  0  0
  4 31  1  0  0  0  0
  5 10  1  0  0  0  0
  5  6  1  0  0  0  0
  5 32  1  0  0  0  0
  6  7  1  0  0  0  0
  6 33  1  0  0  0  0
  6 34  1  0  0  0  0
  7  8  1  0  0  0  0
  7 35  1  0  0  0  0
  7 36  1  0  0  0  0
  8  9  1  0  0  0  0
  8 37  1  0  0  0  0
  8 38  1  0  0  0  0
  9 10  1  0  0  0  0
  9 39  1  0  0  0  0
  9 40  1  0  0  0  0
 11 12  2  0  0  0  0
 11 13  1  0  0  0  0
 13 14  1  0  0  0  0
 13 41  1  0  0  0  0
 14 23  1  0  0  0  0
 14 15  2  0  0  0  0
 15 16  1  0  0  0  0
 15 42  1  0  0  0  0
 16 17  1  0  0  0  0
 16 21  2  0  0  0  0
 17 18  1  0  0  0  0
 17 19  1  0  0  0  0
 17 20  1  0  0  0  0
 21 22  1  0  0  0  0
 21 43  1  0  0  0  0
 22 25  1  0  0  0  0
 22 23  1  0  0  0  0
 23 24  2  0  0  0  0
M  END
> <s_m_source_file>
AV-unprocessed.smi

> <i_m_source_file_index>
1550

> <i_lp_mmshare_version>
43012

> <i_f3d_flags>
0

> <s_epik_input>
TzFbQ0gyXVtDSDJdW0NIMl1bQ0gyXVtDQEhdMVtDSDJdT1tDQEBIXShbQ0gzXSlDKD1PKVtOSF1jMltjSF1jKEMoRikoRilGKVtjSF1bbkhdYzI9Tw==

> <s_epik_cmdline>
J2VwaWtfcHl0aG9uJywgJy1waCcsICc3LjAnLCAnLXRuJywgJzgnLCAnLW1hJywgJzIwMCcsICctbWV0YWxfYmluZGluZycsICctaW1hZScsICc8aW5maWxlLm1hZT4nLCAnLW9tYWUnLCAnPG91dGZpbGUubWFlPic=

> <r_lp_tautomer_probability>
0.999

> <r_epik_Ionization_Penalty>
0.00891333

> <r_epik_Ionization_Penalty_Charging>
0.00891323

> <r_epik_Ionization_Penalty_Neutral>
1.00146e-07

> <r_epik_State_Penalty>
0.00674197

> <r_epik_Charging_Adjusted_Penalty>
0.0156552

> <i_epik_Tot_Q>
0

> <i_epik_Tot_abs_Q>
0

> <r_epik_Metal_State_Penalty>
0.321024

> <b_epik_Metal_Only>
0

> <s_lp_Force_Field>
OPLS_2005

> <r_lp_Energy>
24.886

> <b_lp_Chiralities_Consistent>
1

> <s_lp_Variant>
AV-unprocessed.smi:1550-4

> <Gold.Version>
5.8.1

> <Gold.Id.Protein>
6NUR|6NUR_protein|mol2

> <Gold.PLP.Fitness>
45.4176

> <Gold.PLP.PLP>
-42.4527

> <Gold.PLP.part.hbond>
-3.7015

> <Gold.PLP.part.metal>
0.0000

> <Gold.PLP.part.buried>
-4.3991

> <Gold.PLP.part.nonpolar>
-34.5408

> <Gold.PLP.part.repulsive>
0.3301

> <Gold.PLP.ligand.clash>
0.0000

> <Gold.PLP.ligand.torsion>
2.0973

> <Gold.PLP.Chemscore.Hbond>
2.3600

> <Gold.PLP.Chemscore.CHOScore>
0.0000

> <Gold.PLP.Chemscore.Metal>
0.0000

> <Gold.Chemscore.Hbonds>
donor molecule, donor type, donor heavy atom, donor atom, acceptor molecule, acceptor atom, score
      P1  H  6896  6907       L1    12  1.00
      P1  H  6931  6943       L1    24  0.51
      P1  H  6934  6947       L1    24  0.75

> <Gold.PLP.Chemscore.Internal.Correction>
0.0795

> <Gold.Rescore>
     Score         DG    S(hbond)    S(metal)    S(lipo)     H(rot)  DE(clash)    DE(int)     intcor
     17.43     -19.33       2.63        0.00      84.04       1.86       0.00       1.90       ----

> <Gold.Chemscore.Fitness>
17.4305

> <Gold.Chemscore.DG>
-19.3328

> <Gold.Chemscore.ZeroCoef>
-5.4800

> <Gold.Chemscore.Hbond>
2.6269

> <Gold.Chemscore.Metal>
0.0000

> <Gold.Chemscore.Lipo>
84.0444

> <Gold.Chemscore.Internal_Hbond>
0.0000

> <Gold.Chemscore.DEClash>
0.0000

> <Gold.Chemscore.DEInternal>
1.9023

> <Gold.Chemscore.Rot>
1.8571

> <Gold.Chemscore.Internal.Correction>
   9.000000E+99

> <Gold.Chemscore.Hbonds>
donor molecule, donor type, donor heavy atom, donor atom, acceptor molecule, acceptor atom, score
      P1  H  6896  6907       L1    12  0.98
      P1  H  6931  6943       L1    24  0.27
      P1  H  6934  6947       L1    24  0.70

> <Gold.Chemscore.Hbond.Weighted>
-8.7737

> <Gold.Chemscore.Metal.Weighted>
-0.0000

> <Gold.Chemscore.Lipo.Weighted>
-9.8332

> <Gold.Chemscore.Internal_Hbond.Weighted>
0.0000

> <Gold.Chemscore.DEClash.Weighted>
0.0000

> <Gold.Chemscore.DEInternal.Weighted>
1.9023

> <Gold.Chemscore.Rot.Weighted>
4.7541

> <Gold.Chemscore.Internal.Correction.Weighted>
   9.000000E+99

> <Gold.Protein.RotatedTorsions>
[ 6907 6896 6895 6894 ] final  -37.85 input  -60.11 | X-H torsion
[ 7974 7965 7964 7962 ] final   50.14 input  175.53 | X-H torsion
[ 8008 7997 7996 7995 ] final -168.64 input   59.86 | X-H torsion
[ 10167 10162 10161 10158 ] final   51.42 input  -65.29 | X-H torsion
[ 10718 10713 10712 10709 ] final   61.79 input   66.30 | X-H torsion
[ 10763 10752 10751 10750 ] final   33.62 input  -60.55 | X-H torsion
[ 11005 11000 10999 10996 ] final   21.81 input  -57.11 | X-H torsion

> <Gold.Protein.ActiveResidues>
 VAL166  LYS551  ARG553  GLY616  TRP617  ASP618  TYR619  PRO620  LYS621  CYS622 
 ASP623  PHE694  ASN695  SER759  ASP760  ASP761  ALA762  ILE779  LEU786  VAL792 
 PHE793  MET794  SER795  GLU796  ALA797  LYS798  CYS799  TRP800  GLU811  SER814 

> <Gold.Protein.RotatedAtoms>
  151.0097  134.9387  159.7999 H   0  0  0  0  0  0  0  0  0  0  0  0  # atno 6907 bound_to 6896
  152.5299  134.3045  159.9100 H   0  0  0  0  0  0  0  0  0  0  0  0  # atno 6908 bound_to 6896
  151.3051  133.4063  159.2677 H   0  0  0  0  0  0  0  0  0  0  0  0  # atno 6909 bound_to 6896
  146.0040  139.4470  142.9997 H   0  0  0  0  0  0  0  0  0  0  0  0  # atno 7974 bound_to 7965
  155.8942  140.1030  157.1397 H   0  0  0  0  0  0  0  0  0  0  0  0  # atno 8008 bound_to 7997
  154.4018  140.1305  156.4418 H   0  0  0  0  0  0  0  0  0  0  0  0  # atno 8009 bound_to 7997
  155.7499  140.3465  155.5147 H   0  0  0  0  0  0  0  0  0  0  0  0  # atno 8010 bound_to 7997
  140.2621  144.3361  150.6315 H   0  0  0  0  0  0  0  0  0  0  0  0  # atno 10167 bound_to 10162
  157.5853  130.9014  149.9505 H   0  0  0  0  0  0  0  0  0  0  0  0  # atno 10718 bound_to 10713
  153.0203  135.6382  154.1540 H   0  0  0  0  0  0  0  0  0  0  0  0  # atno 10763 bound_to 10752
  154.1276  135.2842  155.3195 H   0  0  0  0  0  0  0  0  0  0  0  0  # atno 10764 bound_to 10752
  154.6218  135.5522  153.7646 H   0  0  0  0  0  0  0  0  0  0  0  0  # atno 10765 bound_to 10752
  140.3875  134.1854  155.7663 H   0  0  0  0  0  0  0  0  0  0  0  0  # atno 11005 bound_to 11000
  145.7444  140.9996  143.1284 LP  0  0  0  0  0  0  0  0  0  0  0  0  # atno 17320 bound_to 7965
  144.6929  139.9138  143.7464 LP  0  0  0  0  0  0  0  0  0  0  0  0  # atno 17321 bound_to 7965
  140.5957  143.2167  151.7168 LP  0  0  0  0  0  0  0  0  0  0  0  0  # atno 17342 bound_to 10162
  139.5013  144.3870  152.0318 LP  0  0  0  0  0  0  0  0  0  0  0  0  # atno 17343 bound_to 10162
  156.0902  130.3664  150.0409 LP  0  0  0  0  0  0  0  0  0  0  0  0  # atno 17370 bound_to 10713
  156.8542  130.9469  151.3623 LP  0  0  0  0  0  0  0  0  0  0  0  0  # atno 17371 bound_to 10713
  141.1902  133.8221  157.0926 LP  0  0  0  0  0  0  0  0  0  0  0  0  # atno 17394 bound_to 11000
  140.0432  134.9844  157.1000 LP  0  0  0  0  0  0  0  0  0  0  0  0  # atno 17395 bound_to 11000

$$$$
