AV-unprocessed.smi:71|AV-procd|sdf|661|dock3
  -GOLD-   2262016563D 1   1.00000     0.00000
 Structure written by MMmdl.
 31 32  0  0  0  0  0  0  0  0  1 V2000
  150.6488  144.8040  157.9406 N   0  0  0  0  0  0  0  0  0  0  0  0
  151.3926  143.8726  158.6600 C   0  0  0  0  0  0  0  0  0  0  0  0
  151.9907  144.2371  159.8829 C   0  0  0  0  0  0  0  0  0  0  0  0
  152.7294  143.2643  160.5827 C   0  0  0  0  0  0  0  0  0  0  0  0
  152.8439  141.9734  160.0325 C   0  0  0  0  0  0  0  0  0  0  0  0
  152.2195  141.7068  158.7927 C   0  0  0  0  0  0  0  0  0  0  0  0
  152.2960  140.3402  158.1778 C   0  0  0  0  0  0  0  0  0  0  0  0
  153.3391  139.6938  158.2794 O   0  0  0  0  0  0  0  0  0  0  0  0
  151.1978  139.8729  157.5383 N   0  0  0  0  0  0  0  0  0  0  0  0
  149.8699  140.4938  157.5629 C   0  0  0  0  0  0  0  0  0  0  0  0
  148.9565  139.5798  156.7479 C   0  0  0  0  0  0  0  0  0  0  0  0
  149.6460  138.2253  156.7938 C   0  0  0  0  0  0  0  0  0  0  0  0
  151.1411  138.5564  156.8909 C   0  0  1  0  0  0  0  0  0  0  0  0
  151.8411  138.5933  155.5158 C   0  0  0  0  0  0  0  0  0  0  0  0
  151.8569  137.3051  154.9381 O   0  0  0  0  0  0  0  0  0  0  0  0
  151.4985  142.6375  158.1261 N   0  0  0  0  0  0  0  0  0  0  0  0
  150.2102  144.5668  157.0624 H   0  0  0  0  0  0  0  0  0  0  0  0
  150.5527  145.7574  158.2592 H   0  0  0  0  0  0  0  0  0  0  0  0
  151.8843  145.2359  160.2804 H   0  0  0  0  0  0  0  0  0  0  0  0
  153.1969  143.5032  161.5263 H   0  0  0  0  0  0  0  0  0  0  0  0
  153.3969  141.2056  160.5542 H   0  0  0  0  0  0  0  0  0  0  0  0
  149.5222  140.5560  158.5955 H   0  0  0  0  0  0  0  0  0  0  0  0
  149.8692  141.4992  157.1428 H   0  0  0  0  0  0  0  0  0  0  0  0
  147.9367  139.5489  157.1325 H   0  0  0  0  0  0  0  0  0  0  0  0
  148.9126  139.9314  155.7161 H   0  0  0  0  0  0  0  0  0  0  0  0
  149.3345  137.6947  157.6945 H   0  0  0  0  0  0  0  0  0  0  0  0
  149.3924  137.5953  155.9407 H   0  0  0  0  0  0  0  0  0  0  0  0
  151.6311  137.8123  157.5226 H   0  0  0  0  0  0  0  0  0  0  0  0
  151.3463  139.2920  154.8405 H   0  0  0  0  0  0  0  0  0  0  0  0
  152.8756  138.9224  155.6157 H   0  0  0  0  0  0  0  0  0  0  0  0
  151.1302  137.2357  154.3377 H   0  0  0  0  0  0  0  0  0  0  0  0
  1  2  1  0  0  0  0
  1 17  1  0  0  0  0
  1 18  1  0  0  0  0
  2 16  1  0  0  0  0
  2  3  2  0  0  0  0
  3  4  1  0  0  0  0
  3 19  1  0  0  0  0
  4  5  2  0  0  0  0
  4 20  1  0  0  0  0
  5  6  1  0  0  0  0
  5 21  1  0  0  0  0
  6  7  1  0  0  0  0
  6 16  2  0  0  0  0
  7  8  2  0  0  0  0
  7  9  1  0  0  0  0
  9 13  1  0  0  0  0
  9 10  1  0  0  0  0
 10 11  1  0  0  0  0
 10 22  1  0  0  0  0
 10 23  1  0  0  0  0
 11 12  1  0  0  0  0
 11 24  1  0  0  0  0
 11 25  1  0  0  0  0
 12 13  1  0  0  0  0
 12 26  1  0  0  0  0
 12 27  1  0  0  0  0
 13 14  1  0  0  0  0
 13 28  1  0  0  0  0
 14 15  1  0  0  0  0
 14 29  1  0  0  0  0
 14 30  1  0  0  0  0
 15 31  1  0  0  0  0
M  END
> <s_m_source_file>
AV-unprocessed.smi

> <i_m_source_file_index>
71

> <i_lp_mmshare_version>
43012

> <i_f3d_flags>
0

> <s_epik_input>
W05IMl1jMVtjSF1bY0hdW2NIXWMobjEpQyg9TylOMltDSDJdW0NIMl1bQ0gyXVtDQEhdMltDSDJdW09IXQ==

> <s_epik_cmdline>
J2VwaWtfcHl0aG9uJywgJy1waCcsICc3LjAnLCAnLXRuJywgJzgnLCAnLW1hJywgJzIwMCcsICctbWV0YWxfYmluZGluZycsICctaW1hZScsICc8aW5maWxlLm1hZT4nLCAnLW9tYWUnLCAnPG91dGZpbGUubWFlPic=

> <r_lp_tautomer_probability>
1

> <r_epik_Ionization_Penalty>
2.21614e-05

> <r_epik_Ionization_Penalty_Charging>
0

> <r_epik_Ionization_Penalty_Neutral>
2.21614e-05

> <r_epik_State_Penalty>
-0

> <r_epik_Charging_Adjusted_Penalty>
0

> <i_epik_Tot_Q>
0

> <i_epik_Tot_abs_Q>
0

> <r_epik_Metal_State_Penalty>
-0

> <b_epik_Metal_Only>
0

> <s_lp_Force_Field>
OPLS_2005

> <r_lp_Energy>
36.7339

> <b_lp_Chiralities_Consistent>
1

> <s_lp_Variant>
AV-unprocessed.smi:71-1

> <Gold.Version>
5.8.1

> <Gold.Id.Protein>
6NUR|6NUR_protein|mol2

> <Gold.PLP.Fitness>
37.9786

> <Gold.PLP.PLP>
-29.2686

> <Gold.PLP.part.hbond>
-3.7893

> <Gold.PLP.part.metal>
0.0000

> <Gold.PLP.part.buried>
-4.7190

> <Gold.PLP.part.nonpolar>
-21.4765

> <Gold.PLP.part.repulsive>
0.1775

> <Gold.PLP.ligand.clash>
0.0000

> <Gold.PLP.ligand.torsion>
0.5735

> <Gold.PLP.Chemscore.Hbond>
2.9120

> <Gold.PLP.Chemscore.CHOScore>
0.0000

> <Gold.PLP.Chemscore.Metal>
0.0000

> <Gold.Chemscore.Hbonds>
donor molecule, donor type, donor heavy atom, donor atom, acceptor molecule, acceptor atom, score
      L1  H     1    17       P1  8028  1.00
      P1  H  7997  8010       L1     8  1.00
      P1  H 10752 10764       L1    15  0.92

> <Gold.PLP.Chemscore.Internal.Correction>
1.1210

> <Gold.Rescore>
     Score         DG    S(hbond)    S(metal)    S(lipo)     H(rot)  DE(clash)    DE(int)     intcor
     16.05     -18.08       2.74        0.00      62.15       1.50       0.01       2.02       ----

> <Gold.Chemscore.Fitness>
16.0498

> <Gold.Chemscore.DG>
-18.0757

> <Gold.Chemscore.ZeroCoef>
-5.4800

> <Gold.Chemscore.Hbond>
2.7405

> <Gold.Chemscore.Metal>
0.0000

> <Gold.Chemscore.Lipo>
62.1515

> <Gold.Chemscore.Internal_Hbond>
0.0000

> <Gold.Chemscore.DEClash>
0.0089

> <Gold.Chemscore.DEInternal>
2.0170

> <Gold.Chemscore.Rot>
1.4959

> <Gold.Chemscore.Internal.Correction>
   9.000000E+99

> <Gold.Chemscore.Hbonds>
donor molecule, donor type, donor heavy atom, donor atom, acceptor molecule, acceptor atom, score
      L1  H     1    17       P1  8028  0.59
      P1  H  7997  8010       L1     8  0.97
      P1  H 10752 10764       L1    15  0.29

> <Gold.Chemscore.Hbond.Weighted>
-9.1534

> <Gold.Chemscore.Metal.Weighted>
-0.0000

> <Gold.Chemscore.Lipo.Weighted>
-7.2717

> <Gold.Chemscore.Internal_Hbond.Weighted>
0.0000

> <Gold.Chemscore.DEClash.Weighted>
0.0089

> <Gold.Chemscore.DEInternal.Weighted>
2.0170

> <Gold.Chemscore.Rot.Weighted>
3.8295

> <Gold.Chemscore.Internal.Correction.Weighted>
   9.000000E+99

> <Gold.Protein.RotatedTorsions>
[ 6907 6896 6895 6894 ] final   59.45 input  -60.11 | X-H torsion
[ 7974 7965 7964 7962 ] final -106.48 input  175.53 | X-H torsion
[ 8008 7997 7996 7995 ] final   19.97 input   59.86 | X-H torsion
[ 10167 10162 10161 10158 ] final   14.17 input  -65.29 | X-H torsion
[ 10718 10713 10712 10709 ] final  -27.16 input   66.30 | X-H torsion
[ 10763 10752 10751 10750 ] final  -67.47 input  -60.55 | X-H torsion
[ 11005 11000 10999 10996 ] final -107.11 input  -57.11 | X-H torsion

> <Gold.Protein.ActiveResidues>
 VAL166  LYS551  ARG553  GLY616  TRP617  ASP618  TYR619  PRO620  LYS621  CYS622 
 ASP623  PHE694  ASN695  SER759  ASP760  ASP761  ALA762  ILE779  LEU786  VAL792 
 PHE793  MET794  SER795  GLU796  ALA797  LYS798  CYS799  TRP800  GLU811  SER814 

> <Gold.Protein.RotatedAtoms>
  152.3916  134.6432  160.0105 H   0  0  0  0  0  0  0  0  0  0  0  0  # atno 6907 bound_to 6896
  151.6664  133.3309  159.3194 H   0  0  0  0  0  0  0  0  0  0  0  0  # atno 6908 bound_to 6896
  150.7831  134.6837  159.6502 H   0  0  0  0  0  0  0  0  0  0  0  0  # atno 6909 bound_to 6896
  145.2173  140.9120  143.3279 H   0  0  0  0  0  0  0  0  0  0  0  0  # atno 7974 bound_to 7965
  154.9286  140.3037  155.5179 H   0  0  0  0  0  0  0  0  0  0  0  0  # atno 8008 bound_to 7997
  156.3005  140.2358  156.4280 H   0  0  0  0  0  0  0  0  0  0  0  0  # atno 8009 bound_to 7997
  154.8260  140.0421  157.1432 H   0  0  0  0  0  0  0  0  0  0  0  0  # atno 8010 bound_to 7997
  140.5954  143.8713  150.6913 H   0  0  0  0  0  0  0  0  0  0  0  0  # atno 10167 bound_to 10162
  156.4418  130.4466  149.7047 H   0  0  0  0  0  0  0  0  0  0  0  0  # atno 10718 bound_to 10713
  154.3749  135.6087  153.5760 H   0  0  0  0  0  0  0  0  0  0  0  0  # atno 10763 bound_to 10752
  152.9789  135.5847  154.4478 H   0  0  0  0  0  0  0  0  0  0  0  0  # atno 10764 bound_to 10752
  154.4238  135.2846  155.1935 H   0  0  0  0  0  0  0  0  0  0  0  0  # atno 10765 bound_to 10752
  141.0971  133.8952  157.1936 H   0  0  0  0  0  0  0  0  0  0  0  0  # atno 11005 bound_to 11000
  144.9798  139.3794  143.6267 LP  0  0  0  0  0  0  0  0  0  0  0  0  # atno 17320 bound_to 7965
  146.3384  139.8934  142.8805 LP  0  0  0  0  0  0  0  0  0  0  0  0  # atno 17321 bound_to 7965
  140.2246  143.3783  152.1615 LP  0  0  0  0  0  0  0  0  0  0  0  0  # atno 17342 bound_to 10162
  139.5254  144.7096  151.5248 LP  0  0  0  0  0  0  0  0  0  0  0  0  # atno 17343 bound_to 10162
  156.3909  130.7626  151.2627 LP  0  0  0  0  0  0  0  0  0  0  0  0  # atno 17370 bound_to 10713
  157.7506  131.0268  150.3978 LP  0  0  0  0  0  0  0  0  0  0  0  0  # atno 17371 bound_to 10713
  139.9811  135.0098  156.9750 LP  0  0  0  0  0  0  0  0  0  0  0  0  # atno 17394 bound_to 11000
  140.5114  134.0998  155.7271 LP  0  0  0  0  0  0  0  0  0  0  0  0  # atno 17395 bound_to 11000

$$$$
