AV-unprocessed.smi:2857|AV-procd|sdf|10997|dock10
  -GOLD-   2272015453D 1   1.00000     0.00000
 Structure written by MMmdl.
 44 46  0  0  0  0  0  0  0  0  1 V2000
  151.0177  144.2102  158.2816 C   0  0  0  0  0  0  0  0  0  0  0  0
  151.7504  143.1518  159.0804 C   0  0  0  0  0  0  0  0  0  0  0  0
  152.4387  143.4986  160.2590 C   0  0  0  0  0  0  0  0  0  0  0  0
  153.1146  142.5087  160.9946 C   0  0  0  0  0  0  0  0  0  0  0  0
  153.1067  141.1677  160.5582 C   0  0  0  0  0  0  0  0  0  0  0  0
  153.8427  140.1136  161.3639 C   0  0  0  0  0  0  0  0  0  0  0  0
  152.4209  140.8057  159.3755 C   0  0  0  0  0  0  0  0  0  0  0  0
  152.4539  139.4771  159.0041 O   0  0  0  0  0  0  0  0  0  0  0  0
  151.3832  138.9607  158.2250 C   0  0  0  0  0  0  0  0  0  0  0  0
  150.5813  137.9748  159.0884 C   0  0  2  0  0  0  0  0  0  0  0  0
  151.2904  136.7523  159.1434 O   0  0  0  0  0  0  0  0  0  0  0  0
  149.1733  137.7206  158.5141 C   0  0  0  0  0  0  0  0  0  0  0  0
  148.8342  136.3058  158.4728 N   0  0  0  0  0  0  0  0  0  0  0  0
  149.0251  135.6078  157.3234 N   0  0  0  0  0  0  0  0  0  0  0  0
  148.6217  134.3656  157.5821 C   0  0  0  0  0  0  0  0  0  0  0  0
  148.1534  134.2247  158.9171 C   0  0  0  0  0  0  0  0  0  0  0  0
  147.6097  133.1277  159.7116 C   0  0  0  0  0  0  0  0  0  0  0  0
  147.2704  133.3687  160.9392 N   0  0  0  0  0  0  0  0  0  0  0  0
  147.4172  134.6438  161.4973 N   0  0  0  0  0  0  0  0  0  0  0  0
  146.9888  134.7551  162.8897 C   0  0  0  0  0  0  0  0  0  0  0  0
  147.9173  135.7347  160.8421 C   0  0  0  0  0  0  0  0  0  0  0  0
  148.0417  136.8473  161.3538 O   0  0  0  0  0  0  0  0  0  0  0  0
  148.3078  135.4679  159.4365 C   0  0  0  0  0  0  0  0  0  0  0  0
  151.7421  141.8123  158.6418 C   0  0  0  0  0  0  0  0  0  0  0  0
  151.1584  145.2027  158.7107 H   0  0  0  0  0  0  0  0  0  0  0  0
  149.9490  143.9955  158.2628 H   0  0  0  0  0  0  0  0  0  0  0  0
  151.3826  144.2295  157.2544 H   0  0  0  0  0  0  0  0  0  0  0  0
  152.4514  144.5224  160.6036 H   0  0  0  0  0  0  0  0  0  0  0  0
  153.6407  142.7846  161.8970 H   0  0  0  0  0  0  0  0  0  0  0  0
  154.6695  139.7047  160.7829 H   0  0  0  0  0  0  0  0  0  0  0  0
  153.1700  139.2970  161.6270 H   0  0  0  0  0  0  0  0  0  0  0  0
  154.2480  140.5272  162.2874 H   0  0  0  0  0  0  0  0  0  0  0  0
  150.7385  139.7911  157.9325 H   0  0  0  0  0  0  0  0  0  0  0  0
  151.7413  138.4769  157.3143 H   0  0  0  0  0  0  0  0  0  0  0  0
  150.4839  138.3719  160.0998 H   0  0  0  0  0  0  0  0  0  0  0  0
  152.2010  136.9277  158.9601 H   0  0  0  0  0  0  0  0  0  0  0  0
  148.4268  138.2285  159.1267 H   0  0  0  0  0  0  0  0  0  0  0  0
  149.0787  138.1448  157.5152 H   0  0  0  0  0  0  0  0  0  0  0  0
  148.6802  133.6208  156.8023 H   0  0  0  0  0  0  0  0  0  0  0  0
  147.4938  132.1344  159.2784 H   0  0  0  0  0  0  0  0  0  0  0  0
  146.2080  135.5102  162.9932 H   0  0  0  0  0  0  0  0  0  0  0  0
  147.8272  135.0408  163.5264 H   0  0  0  0  0  0  0  0  0  0  0  0
  146.5896  133.8139  163.2715 H   0  0  0  0  0  0  0  0  0  0  0  0
  151.2043  141.5800  157.7352 H   0  0  0  0  0  0  0  0  0  0  0  0
  1  2  1  0  0  0  0
  1 25  1  0  0  0  0
  1 26  1  0  0  0  0
  1 27  1  0  0  0  0
  2 24  1  0  0  0  0
  2  3  2  0  0  0  0
  3  4  1  0  0  0  0
  3 28  1  0  0  0  0
  4  5  2  0  0  0  0
  4 29  1  0  0  0  0
  5  6  1  0  0  0  0
  5  7  1  0  0  0  0
  6 30  1  0  0  0  0
  6 31  1  0  0  0  0
  6 32  1  0  0  0  0
  7  8  1  0  0  0  0
  7 24  2  0  0  0  0
  8  9  1  0  0  0  0
  9 10  1  0  0  0  0
  9 33  1  0  0  0  0
  9 34  1  0  0  0  0
 10 11  1  0  0  0  0
 10 12  1  0  0  0  0
 10 35  1  0  0  0  0
 11 36  1  0  0  0  0
 12 13  1  0  0  0  0
 12 37  1  0  0  0  0
 12 38  1  0  0  0  0
 13 23  1  0  0  0  0
 13 14  1  0  0  0  0
 14 15  2  0  0  0  0
 15 16  1  0  0  0  0
 15 39  1  0  0  0  0
 16 23  2  0  0  0  0
 16 17  1  0  0  0  0
 17 18  2  0  0  0  0
 17 40  1  0  0  0  0
 18 19  1  0  0  0  0
 19 20  1  0  0  0  0
 19 21  1  0  0  0  0
 20 41  1  0  0  0  0
 20 42  1  0  0  0  0
 20 43  1  0  0  0  0
 21 22  2  0  0  0  0
 21 23  1  0  0  0  0
 24 44  1  0  0  0  0
M  END
> <s_m_source_file>
AV-unprocessed.smi

> <i_m_source_file_index>
2857

> <i_lp_mmshare_version>
43012

> <i_f3d_flags>
0

> <s_epik_input>
W0NIM11jMVtjSF1bY0hdYyhbQ0gzXSljKFtjSF0xKU9bQ0gyXVtDQEhdKFtPSF0pW0NIMl1uKG5bY0hdMiljKGMyMyljKD1PKW4oW0NIM10pbltjSF0z

> <s_epik_cmdline>
J2VwaWtfcHl0aG9uJywgJy1waCcsICc3LjAnLCAnLXRuJywgJzgnLCAnLW1hJywgJzIwMCcsICctbWV0YWxfYmluZGluZycsICctaW1hZScsICc8aW5maWxlLm1hZT4nLCAnLW9tYWUnLCAnPG91dGZpbGUubWFlPic=

> <r_lp_tautomer_probability>
1

> <r_epik_Ionization_Penalty>
2.24607e-06

> <r_epik_Ionization_Penalty_Charging>
1.42095e-10

> <r_epik_Ionization_Penalty_Neutral>
2.24593e-06

> <r_epik_State_Penalty>
-0

> <r_epik_Charging_Adjusted_Penalty>
1.42095e-10

> <i_epik_Tot_Q>
0

> <i_epik_Tot_abs_Q>
0

> <r_epik_Metal_State_Penalty>
-0

> <b_epik_Metal_Only>
0

> <s_lp_Force_Field>
OPLS_2005

> <r_lp_Energy>
31.8826

> <b_lp_Chiralities_Consistent>
1

> <s_lp_Variant>
AV-unprocessed.smi:2857-1

> <Gold.Version>
5.8.1

> <Gold.Id.Protein>
6NUR|6NUR_protein|mol2

> <Gold.PLP.Fitness>
50.4086

> <Gold.PLP.PLP>
-46.1625

> <Gold.PLP.part.hbond>
-2.9676

> <Gold.PLP.part.metal>
0.0000

> <Gold.PLP.part.buried>
-5.2228

> <Gold.PLP.part.nonpolar>
-37.8777

> <Gold.PLP.part.repulsive>
0.0000

> <Gold.PLP.ligand.clash>
0.0000

> <Gold.PLP.ligand.torsion>
1.8864

> <Gold.PLP.Chemscore.Hbond>
2.6661

> <Gold.PLP.Chemscore.CHOScore>
0.0000

> <Gold.PLP.Chemscore.Metal>
0.0000

> <Gold.Chemscore.Hbonds>
donor molecule, donor type, donor heavy atom, donor atom, acceptor molecule, acceptor atom, score
      P1  H  6896  6908       L1    11  1.00
      P1  H  6931  6943       L1    22  1.00
      P1  H  6934  6947       L1    22  0.11

> <Gold.PLP.Chemscore.Internal.Correction>
0.0205

> <Gold.Rescore>
     Score         DG    S(hbond)    S(metal)    S(lipo)     H(rot)  DE(clash)    DE(int)     intcor
     18.79     -20.77       2.27        0.00     116.63       2.32       0.22       1.75       ----

> <Gold.Chemscore.Fitness>
18.7895

> <Gold.Chemscore.DG>
-20.7659

> <Gold.Chemscore.ZeroCoef>
-5.4800

> <Gold.Chemscore.Hbond>
2.2722

> <Gold.Chemscore.Metal>
0.0000

> <Gold.Chemscore.Lipo>
116.6263

> <Gold.Chemscore.Internal_Hbond>
0.0000

> <Gold.Chemscore.DEClash>
0.2218

> <Gold.Chemscore.DEInternal>
1.7547

> <Gold.Chemscore.Rot>
2.3236

> <Gold.Chemscore.Internal.Correction>
   9.000000E+99

> <Gold.Chemscore.Hbonds>
donor molecule, donor type, donor heavy atom, donor atom, acceptor molecule, acceptor atom, score
      P1  H  6896  6908       L1    11  0.44
      P1  H  6931  6943       L1    22  1.00
      P1  H  6934  6947       L1    22  0.13

> <Gold.Chemscore.Hbond.Weighted>
-7.5891

> <Gold.Chemscore.Metal.Weighted>
-0.0000

> <Gold.Chemscore.Lipo.Weighted>
-13.6453

> <Gold.Chemscore.Internal_Hbond.Weighted>
0.0000

> <Gold.Chemscore.DEClash.Weighted>
0.2218

> <Gold.Chemscore.DEInternal.Weighted>
1.7547

> <Gold.Chemscore.Rot.Weighted>
5.9484

> <Gold.Chemscore.Internal.Correction.Weighted>
   9.000000E+99

> <Gold.Protein.RotatedTorsions>
[ 6907 6896 6895 6894 ] final -137.72 input  -60.11 | X-H torsion
[ 7974 7965 7964 7962 ] final -168.47 input  175.53 | X-H torsion
[ 8008 7997 7996 7995 ] final  117.05 input   59.86 | X-H torsion
[ 10167 10162 10161 10158 ] final   72.55 input  -65.29 | X-H torsion
[ 10718 10713 10712 10709 ] final   42.22 input   66.30 | X-H torsion
[ 10763 10752 10751 10750 ] final   55.09 input  -60.55 | X-H torsion
[ 11005 11000 10999 10996 ] final   -5.35 input  -57.11 | X-H torsion

> <Gold.Protein.ActiveResidues>
 VAL166  LYS551  ARG553  GLY616  TRP617  ASP618  TYR619  PRO620  LYS621  CYS622 
 ASP623  PHE694  ASN695  SER759  ASP760  ASP761  ALA762  ILE779  LEU786  VAL792 
 PHE793  MET794  SER795  GLU796  ALA797  LYS798  CYS799  TRP800  GLU811  SER814 

> <Gold.Protein.RotatedAtoms>
  151.0260  133.5833  159.2665 H   0  0  0  0  0  0  0  0  0  0  0  0  # atno 6907 bound_to 6896
  151.2933  135.0747  159.9222 H   0  0  0  0  0  0  0  0  0  0  0  0  # atno 6908 bound_to 6896
  152.5334  133.9954  159.7924 H   0  0  0  0  0  0  0  0  0  0  0  0  # atno 6909 bound_to 6896
  144.7202  140.2365  143.6297 H   0  0  0  0  0  0  0  0  0  0  0  0  # atno 7974 bound_to 7965
  156.2473  140.2904  156.0618 H   0  0  0  0  0  0  0  0  0  0  0  0  # atno 8008 bound_to 7997
  155.1768  140.0403  157.2891 H   0  0  0  0  0  0  0  0  0  0  0  0  # atno 8009 bound_to 7997
  154.6288  140.2494  155.7466 H   0  0  0  0  0  0  0  0  0  0  0  0  # atno 8010 bound_to 7997
  140.0341  144.5442  150.7484 H   0  0  0  0  0  0  0  0  0  0  0  0  # atno 10167 bound_to 10162
  157.4024  130.7868  149.7360 H   0  0  0  0  0  0  0  0  0  0  0  0  # atno 10718 bound_to 10713
  152.9812  135.5722  154.5011 H   0  0  0  0  0  0  0  0  0  0  0  0  # atno 10763 bound_to 10752
  154.4530  135.2779  155.1769 H   0  0  0  0  0  0  0  0  0  0  0  0  # atno 10764 bound_to 10752
  154.3389  135.6233  153.5640 H   0  0  0  0  0  0  0  0  0  0  0  0  # atno 10765 bound_to 10752
  140.6902  133.9078  155.8613 H   0  0  0  0  0  0  0  0  0  0  0  0  # atno 11005 bound_to 11000
  145.8360  139.2108  143.1855 LP  0  0  0  0  0  0  0  0  0  0  0  0  # atno 17320 bound_to 7965
  146.0388  140.8185  142.9839 LP  0  0  0  0  0  0  0  0  0  0  0  0  # atno 17321 bound_to 7965
  140.7289  143.2667  151.4022 LP  0  0  0  0  0  0  0  0  0  0  0  0  # atno 17342 bound_to 10162
  139.6057  144.1203  152.2246 LP  0  0  0  0  0  0  0  0  0  0  0  0  # atno 17343 bound_to 10162
  155.9827  130.4007  150.3403 LP  0  0  0  0  0  0  0  0  0  0  0  0  # atno 17370 bound_to 10713
  157.1532  131.0326  151.2875 LP  0  0  0  0  0  0  0  0  0  0  0  0  # atno 17371 bound_to 10713
  141.0248  134.0839  157.4081 LP  0  0  0  0  0  0  0  0  0  0  0  0  # atno 17394 bound_to 11000
  139.8926  135.0125  156.6853 LP  0  0  0  0  0  0  0  0  0  0  0  0  # atno 17395 bound_to 11000

$$$$
