AV-unprocessed.smi:155|AV-procd|sdf|1279|dock1
  -GOLD-   2262018543D 1   1.00000     0.00000
 Structure written by MMmdl.
 64 67  0  0  0  0  0  0  0  0  3 V2000
  144.8897  132.1413  151.8672 C   0  0  0  0  0  0  0  0  0  0  0  0
  144.5194  133.0202  152.9988 N   0  3  0  0  0  0  0  0  0  0  0  0
  143.9725  134.3129  152.5259 C   0  0  0  0  0  0  0  0  0  0  0  0
  145.6305  133.1744  153.9719 C   0  0  0  0  0  0  0  0  0  0  0  0
  146.6918  134.1945  153.5083 C   0  0  0  0  0  0  0  0  0  0  0  0
  147.7213  134.4662  154.5470 N   0  3  2  0  0  0  0  0  0  0  0  0
  148.7274  133.3761  154.6639 C   0  0  0  0  0  0  0  0  0  0  0  0
  150.1450  133.9577  154.8048 C   0  0  0  0  0  0  0  0  0  0  0  0
  150.4244  134.5892  156.1788 C   0  0  0  0  0  0  0  0  0  0  0  0
  149.4519  135.6212  156.5326 N   0  0  0  0  0  0  0  0  0  0  0  0
  149.5576  136.9042  156.0687 C   0  0  0  0  0  0  0  0  0  0  0  0
  149.3185  137.1193  154.7461 N   0  0  0  0  0  0  0  0  0  0  0  0
  149.4032  138.3413  154.2163 C   0  0  0  0  0  0  0  0  0  0  0  0
  149.7140  139.4873  154.8182 N   0  0  0  0  0  0  0  0  0  0  0  0
  149.9566  139.2953  156.1450 C   0  0  0  0  0  0  0  0  0  0  0  0
  149.9044  138.0542  156.8484 C   0  0  0  0  0  0  0  0  0  0  0  0
  150.2261  138.2794  158.1844 N   0  0  0  0  0  0  0  0  0  0  0  0
  150.4392  139.5631  158.2667 C   0  0  0  0  0  0  0  0  0  0  0  0
  150.2970  140.2506  157.0862 N   0  0  0  0  0  0  0  0  0  0  0  0
  150.4636  141.6801  156.8899 C   0  0  0  0  0  0  0  0  0  0  0  0
  150.1843  142.4834  158.1756 C   0  0  2  0  0  0  0  0  0  0  0  0
  149.0755  143.3459  158.0004 O   0  0  0  0  0  0  0  0  0  0  0  0
  151.4095  143.2810  158.6664 C   0  0  2  0  0  0  0  0  0  0  0  0
  151.3210  143.8316  160.1007 C   0  0  0  0  0  0  0  0  0  0  0  0
  151.4953  145.3293  159.9232 C   0  0  0  0  0  0  0  0  0  0  0  0
  152.2508  145.4234  158.6043 C   0  0  0  0  0  0  0  0  0  0  0  0
  151.6543  144.4024  157.8219 O   0  0  0  0  0  0  0  0  0  0  0  0
  148.1506  135.1233  156.9885 C   0  0  0  0  0  0  0  0  0  0  0  0
  147.1308  134.8807  155.8521 C   0  0  0  0  0  0  0  0  0  0  0  0
  145.7074  132.5725  151.2877 H   0  0  0  0  0  0  0  0  0  0  0  0
  144.0401  131.9915  151.1998 H   0  0  0  0  0  0  0  0  0  0  0  0
  145.2033  131.1594  152.2237 H   0  0  0  0  0  0  0  0  0  0  0  0
  144.7382  134.8990  152.0153 H   0  0  0  0  0  0  0  0  0  0  0  0
  143.5808  134.9056  153.3523 H   0  0  0  0  0  0  0  0  0  0  0  0
  143.1501  134.1494  151.8282 H   0  0  0  0  0  0  0  0  0  0  0  0
  145.2112  133.5254  154.9164 H   0  0  0  0  0  0  0  0  0  0  0  0
  146.0761  132.1991  154.1713 H   0  0  0  0  0  0  0  0  0  0  0  0
  147.1779  133.8720  152.5868 H   0  0  0  0  0  0  0  0  0  0  0  0
  146.1725  135.1266  153.2805 H   0  0  0  0  0  0  0  0  0  0  0  0
  148.4845  132.7021  155.4868 H   0  0  0  0  0  0  0  0  0  0  0  0
  148.7212  132.7573  153.7661 H   0  0  0  0  0  0  0  0  0  0  0  0
  150.8708  133.1599  154.6448 H   0  0  0  0  0  0  0  0  0  0  0  0
  150.3225  134.6833  154.0105 H   0  0  0  0  0  0  0  0  0  0  0  0
  150.3819  133.8062  156.9367 H   0  0  0  0  0  0  0  0  0  0  0  0
  151.4427  134.9673  156.2439 H   0  0  0  0  0  0  0  0  0  0  0  0
  149.1897  138.4108  153.1597 H   0  0  0  0  0  0  0  0  0  0  0  0
  150.7033  140.0472  159.1961 H   0  0  0  0  0  0  0  0  0  0  0  0
  151.4826  141.8621  156.5464 H   0  0  0  0  0  0  0  0  0  0  0  0
  149.8028  142.0001  156.0834 H   0  0  0  0  0  0  0  0  0  0  0  0
  149.9066  141.7825  158.9641 H   0  0  0  0  0  0  0  0  0  0  0  0
  149.0113  143.5655  157.0831 H   0  0  0  0  0  0  0  0  0  0  0  0
  152.2897  142.6393  158.6020 H   0  0  0  0  0  0  0  0  0  0  0  0
  150.3865  143.5896  160.6080 H   0  0  0  0  0  0  0  0  0  0  0  0
  152.1339  143.4256  160.7039 H   0  0  0  0  0  0  0  0  0  0  0  0
  150.5199  145.8073  159.8236 H   0  0  0  0  0  0  0  0  0  0  0  0
  152.0233  145.8008  160.7525 H   0  0  0  0  0  0  0  0  0  0  0  0
  152.1565  146.4009  158.1309 H   0  0  0  0  0  0  0  0  0  0  0  0
  153.3108  145.2066  158.7449 H   0  0  0  0  0  0  0  0  0  0  0  0
  148.3158  134.1787  157.5078 H   0  0  0  0  0  0  0  0  0  0  0  0
  147.7271  135.7820  157.7476 H   0  0  0  0  0  0  0  0  0  0  0  0
  146.5852  135.8108  155.6972 H   0  0  0  0  0  0  0  0  0  0  0  0
  146.3944  134.1456  156.1800 H   0  0  0  0  0  0  0  0  0  0  0  0
  143.7699  132.5470  153.4836 H   0  0  0  0  0  0  0  0  0  0  0  0
  148.2432  135.2622  154.2086 H   0  0  0  0  0  0  0  0  0  0  0  0
  1  2  1  0  0  0  0
  1 30  1  0  0  0  0
  1 31  1  0  0  0  0
  1 32  1  0  0  0  0
  2  3  1  0  0  0  0
  2  4  1  0  0  0  0
  2 63  1  0  0  0  0
  3 33  1  0  0  0  0
  3 34  1  0  0  0  0
  3 35  1  0  0  0  0
  4  5  1  0  0  0  0
  4 36  1  0  0  0  0
  4 37  1  0  0  0  0
  5  6  1  0  0  0  0
  5 38  1  0  0  0  0
  5 39  1  0  0  0  0
  6 29  1  0  0  0  0
  6  7  1  0  0  0  0
  6 64  1  0  0  0  0
  7  8  1  0  0  0  0
  7 40  1  0  0  0  0
  7 41  1  0  0  0  0
  8  9  1  0  0  0  0
  8 42  1  0  0  0  0
  8 43  1  0  0  0  0
  9 10  1  0  0  0  0
  9 44  1  0  0  0  0
  9 45  1  0  0  0  0
 10 11  1  0  0  0  0
 10 28  1  0  0  0  0
 11 16  1  0  0  0  0
 11 12  2  0  0  0  0
 12 13  1  0  0  0  0
 13 14  2  0  0  0  0
 13 46  1  0  0  0  0
 14 15  1  0  0  0  0
 15 19  1  0  0  0  0
 15 16  2  0  0  0  0
 16 17  1  0  0  0  0
 17 18  2  0  0  0  0
 18 19  1  0  0  0  0
 18 47  1  0  0  0  0
 19 20  1  0  0  0  0
 20 21  1  0  0  0  0
 20 48  1  0  0  0  0
 20 49  1  0  0  0  0
 21 22  1  0  0  0  0
 21 23  1  0  0  0  0
 21 50  1  0  0  0  0
 22 51  1  0  0  0  0
 23 27  1  0  0  0  0
 23 24  1  0  0  0  0
 23 52  1  0  0  0  0
 24 25  1  0  0  0  0
 24 53  1  0  0  0  0
 24 54  1  0  0  0  0
 25 26  1  0  0  0  0
 25 55  1  0  0  0  0
 25 56  1  0  0  0  0
 26 27  1  0  0  0  0
 26 57  1  0  0  0  0
 26 58  1  0  0  0  0
 28 29  1  0  0  0  0
 28 59  1  0  0  0  0
 28 60  1  0  0  0  0
 29 61  1  0  0  0  0
 29 62  1  0  0  0  0
M  CHG  1   2   1
M  CHG  1   6   1
M  END
> <s_m_source_file>
AV-unprocessed.smi

> <i_m_source_file_index>
155

> <i_lp_mmshare_version>
43012

> <i_f3d_flags>
0

> <s_epik_input>
W0NIM11OKFtDSDNdKVtDSDJdW0NIMl1OMVtDSDJdW0NIMl1bQ0gyXU4oW0NIMl1bQ0gyXTEpYyhuW2NIXW4yKWMoYzIzKW5bY0hdbjNbQ0gyXVtDQEhdKFtPSF0pW0NAQEhdNFtDSDJdW0NIMl1bQ0gyXU80

> <s_epik_cmdline>
J2VwaWtfcHl0aG9uJywgJy1waCcsICc3LjAnLCAnLXRuJywgJzgnLCAnLW1hJywgJzIwMCcsICctbWV0YWxfYmluZGluZycsICctaW1hZScsICc8aW5maWxlLm1hZT4nLCAnLW9tYWUnLCAnPG91dGZpbGUubWFlPic=

> <r_lp_tautomer_probability>
1

> <r_epik_Ionization_Penalty>
3.0333

> <r_epik_Ionization_Penalty_Charging>
3.03317

> <r_epik_Ionization_Penalty_Neutral>
0.000131872

> <r_epik_State_Penalty>
1.99939

> <r_epik_Charging_Adjusted_Penalty>
5.03256

> <i_epik_Tot_Q>
2

> <i_epik_Tot_abs_Q>
2

> <r_epik_Metal_State_Penalty>
2.00021

> <b_epik_Metal_Only>
0

> <s_lp_Force_Field>
OPLS_2005

> <r_lp_Energy>
62.7096

> <b_lp_Chiralities_Consistent>
1

> <s_lp_Variant>
AV-unprocessed.smi:155-13

> <Gold.Version>
5.8.1

> <Gold.Id.Protein>
6NUR|6NUR_protein|mol2

> <Gold.PLP.Fitness>
45.0079

> <Gold.PLP.PLP>
-35.8912

> <Gold.PLP.part.hbond>
-2.9753

> <Gold.PLP.part.metal>
0.0000

> <Gold.PLP.part.buried>
-7.6741

> <Gold.PLP.part.nonpolar>
-26.2412

> <Gold.PLP.part.repulsive>
1.2101

> <Gold.PLP.ligand.clash>
0.0000

> <Gold.PLP.ligand.torsion>
2.8733

> <Gold.PLP.Chemscore.Hbond>
3.0000

> <Gold.PLP.Chemscore.CHOScore>
1.7297

> <Gold.PLP.Chemscore.Metal>
0.0000

> <Gold.Chemscore.Hbonds>
donor molecule, donor type, donor heavy atom, donor atom, acceptor molecule, acceptor atom, score
      L1  H     2    63       P1 10957  2.00
      L1  H    22    51       P1  8028  1.00
      L1  C    13    46       P1  7948  0.76
      L1  C    13    46       P1  7957  0.83

> <Gold.PLP.Chemscore.Internal.Correction>
0.6741

> <Gold.Rescore>
     Score         DG    S(hbond)    S(metal)    S(lipo)     H(rot)  DE(clash)    DE(int)     intcor
     12.24     -15.38       1.73        0.00      95.32       2.75       0.18       2.95       ----

> <Gold.Chemscore.Fitness>
12.2428

> <Gold.Chemscore.DG>
-15.3779

> <Gold.Chemscore.ZeroCoef>
-5.4800

> <Gold.Chemscore.Hbond>
1.7315

> <Gold.Chemscore.Metal>
0.0000

> <Gold.Chemscore.Lipo>
95.3237

> <Gold.Chemscore.Internal_Hbond>
0.0000

> <Gold.Chemscore.DEClash>
0.1845

> <Gold.Chemscore.DEInternal>
2.9506

> <Gold.Chemscore.Rot>
2.7493

> <Gold.Chemscore.Internal.Correction>
   9.000000E+99

> <Gold.Chemscore.Hbonds>
donor molecule, donor type, donor heavy atom, donor atom, acceptor molecule, acceptor atom, score
      L1  H     2    63       P1 10957  0.35
      L1  H    22    51       P1  8028  0.48

> <Gold.Chemscore.Hbond.Weighted>
-5.7833

> <Gold.Chemscore.Metal.Weighted>
-0.0000

> <Gold.Chemscore.Lipo.Weighted>
-11.1529

> <Gold.Chemscore.Internal_Hbond.Weighted>
0.0000

> <Gold.Chemscore.DEClash.Weighted>
0.1845

> <Gold.Chemscore.DEInternal.Weighted>
2.9506

> <Gold.Chemscore.Rot.Weighted>
7.0383

> <Gold.Chemscore.Internal.Correction.Weighted>
   9.000000E+99

> <Gold.Protein.RotatedTorsions>
[ 6907 6896 6895 6894 ] final   15.64 input  -60.11 | X-H torsion
[ 7974 7965 7964 7962 ] final -138.15 input  175.53 | X-H torsion
[ 8008 7997 7996 7995 ] final  162.91 input   59.86 | X-H torsion
[ 10167 10162 10161 10158 ] final   50.41 input  -65.29 | X-H torsion
[ 10718 10713 10712 10709 ] final -127.00 input   66.30 | X-H torsion
[ 10763 10752 10751 10750 ] final   12.84 input  -60.55 | X-H torsion
[ 11005 11000 10999 10996 ] final   46.79 input  -57.11 | X-H torsion

> <Gold.Protein.ActiveResidues>
 VAL166  LYS551  ARG553  GLY616  TRP617  ASP618  TYR619  PRO620  LYS621  CYS622 
 ASP623  PHE694  ASN695  SER759  ASP760  ASP761  ALA762  ILE779  LEU786  VAL792 
 PHE793  MET794  SER795  GLU796  ALA797  LYS798  CYS799  TRP800  GLU811  SER814 

> <Gold.Protein.RotatedAtoms>
  151.8212  135.0651  160.0425 H   0  0  0  0  0  0  0  0  0  0  0  0  # atno 6907 bound_to 6896
  152.2949  133.5593  159.5590 H   0  0  0  0  0  0  0  0  0  0  0  0  # atno 6908 bound_to 6896
  150.7247  134.0291  159.3769 H   0  0  0  0  0  0  0  0  0  0  0  0  # atno 6909 bound_to 6896
  144.8783  140.6469  143.5223 H   0  0  0  0  0  0  0  0  0  0  0  0  # atno 7974 bound_to 7965
  156.1996  140.1737  156.7927 H   0  0  0  0  0  0  0  0  0  0  0  0  # atno 8008 bound_to 7997
  154.5574  140.0706  156.8796 H   0  0  0  0  0  0  0  0  0  0  0  0  # atno 8009 bound_to 7997
  155.2912  140.3355  155.4255 H   0  0  0  0  0  0  0  0  0  0  0  0  # atno 8010 bound_to 7997
  140.2727  144.3247  150.6286 H   0  0  0  0  0  0  0  0  0  0  0  0  # atno 10167 bound_to 10162
  156.1816  130.6736  151.0312 H   0  0  0  0  0  0  0  0  0  0  0  0  # atno 10718 bound_to 10713
  153.1782  135.6823  153.8515 H   0  0  0  0  0  0  0  0  0  0  0  0  # atno 10763 bound_to 10752
  153.7856  135.3176  155.3373 H   0  0  0  0  0  0  0  0  0  0  0  0  # atno 10764 bound_to 10752
  154.8042  135.4759  154.0445 H   0  0  0  0  0  0  0  0  0  0  0  0  # atno 10765 bound_to 10752
  140.1337  134.4672  155.8501 H   0  0  0  0  0  0  0  0  0  0  0  0  # atno 11005 bound_to 11000
  145.4002  139.1599  143.4181 LP  0  0  0  0  0  0  0  0  0  0  0  0  # atno 17320 bound_to 7965
  146.2977  140.4098  142.8715 LP  0  0  0  0  0  0  0  0  0  0  0  0  # atno 17321 bound_to 7965
  140.5877  143.2169  151.7312 LP  0  0  0  0  0  0  0  0  0  0  0  0  # atno 17342 bound_to 10162
  139.4984  144.3987  152.0204 LP  0  0  0  0  0  0  0  0  0  0  0  0  # atno 17343 bound_to 10162
  157.6872  131.0821  150.7210 LP  0  0  0  0  0  0  0  0  0  0  0  0  # atno 17370 bound_to 10713
  156.7267  130.4697  149.5509 LP  0  0  0  0  0  0  0  0  0  0  0  0  # atno 17371 bound_to 10713
  141.2174  133.6806  156.7118 LP  0  0  0  0  0  0  0  0  0  0  0  0  # atno 17394 bound_to 11000
  140.2809  134.8317  157.3932 LP  0  0  0  0  0  0  0  0  0  0  0  0  # atno 17395 bound_to 11000

$$$$
