AV-unprocessed.smi:1144|AV-procd|sdf|4876|dock2
  -GOLD-   22720 3443D 1   1.00000     0.00000
 Structure written by MMmdl.
 35 36  0  0  0  0  0  0  0  0  2 V2000
  147.5401  136.8447  154.8803 C   0  0  0  0  0  0  0  0  0  0  0  0
  148.5691  137.7778  154.3743 N   0  3  1  0  0  0  0  0  0  0  0  0
  147.9859  138.9917  153.7595 C   0  0  0  0  0  0  0  0  0  0  0  0
  149.1006  139.9048  153.2239 C   0  0  0  0  0  0  0  0  0  0  0  0
  150.0008  140.2227  154.2784 O   0  0  0  0  0  0  0  0  0  0  0  0
  150.6459  139.0690  154.8107 C   0  0  1  0  0  0  0  0  0  0  0  0
  151.6465  139.5298  155.8790 C   0  0  0  0  0  0  0  0  0  0  0  0
  151.0322  140.4364  156.8371 N   0  0  0  0  0  0  0  0  0  0  0  0
  151.7279  141.1049  157.8261 C   0  0  0  0  0  0  0  0  0  0  0  0
  152.6263  140.4193  158.5421 N   0  0  0  0  0  0  0  0  0  0  0  0
  153.2882  141.0962  159.5050 C   0  0  0  0  0  0  0  0  0  0  0  0
  153.0497  142.4633  159.7489 C   0  0  0  0  0  0  0  0  0  0  0  0
  152.0798  143.0856  158.9312 C   0  0  0  0  0  0  0  0  0  0  0  0
  151.7182  144.5558  159.0806 C   0  0  0  0  0  0  0  0  0  0  0  0
  152.2633  145.0853  160.1766 F   0  0  0  0  0  0  0  0  0  0  0  0
  152.1544  145.2360  158.0202 F   0  0  0  0  0  0  0  0  0  0  0  0
  150.3940  144.6872  159.1616 F   0  0  0  0  0  0  0  0  0  0  0  0
  151.4226  142.3959  157.9692 N   0  0  0  0  0  0  0  0  0  0  0  0
  149.5705  138.1378  155.4042 C   0  0  0  0  0  0  0  0  0  0  0  0
  146.9530  137.3030  155.6775 H   0  0  0  0  0  0  0  0  0  0  0  0
  148.0029  135.9389  155.2732 H   0  0  0  0  0  0  0  0  0  0  0  0
  146.8604  136.5508  154.0798 H   0  0  0  0  0  0  0  0  0  0  0  0
  147.3132  138.7097  152.9485 H   0  0  0  0  0  0  0  0  0  0  0  0
  147.3899  139.5275  154.5001 H   0  0  0  0  0  0  0  0  0  0  0  0
  149.6365  139.4277  152.4018 H   0  0  0  0  0  0  0  0  0  0  0  0
  148.6740  140.8284  152.8324 H   0  0  0  0  0  0  0  0  0  0  0  0
  151.1820  138.5452  154.0167 H   0  0  0  0  0  0  0  0  0  0  0  0
  152.0641  138.6680  156.4013 H   0  0  0  0  0  0  0  0  0  0  0  0
  152.4786  140.0512  155.4045 H   0  0  0  0  0  0  0  0  0  0  0  0
  150.0307  140.5620  156.8107 H   0  0  0  0  0  0  0  0  0  0  0  0
  154.0126  140.5436  160.0849 H   0  0  0  0  0  0  0  0  0  0  0  0
  153.5842  142.9966  160.5209 H   0  0  0  0  0  0  0  0  0  0  0  0
  149.0712  138.6249  156.2437 H   0  0  0  0  0  0  0  0  0  0  0  0
  150.0370  137.2309  155.7916 H   0  0  0  0  0  0  0  0  0  0  0  0
  149.0670  137.2915  153.6420 H   0  0  0  0  0  0  0  0  0  0  0  0
  1  2  1  0  0  0  0
  1 20  1  0  0  0  0
  1 21  1  0  0  0  0
  1 22  1  0  0  0  0
  2 19  1  0  0  0  0
  2  3  1  0  0  0  0
  2 35  1  0  0  0  0
  3  4  1  0  0  0  0
  3 23  1  0  0  0  0
  3 24  1  0  0  0  0
  4  5  1  0  0  0  0
  4 25  1  0  0  0  0
  4 26  1  0  0  0  0
  5  6  1  0  0  0  0
  6  7  1  0  0  0  0
  6 19  1  0  0  0  0
  6 27  1  0  0  0  0
  7  8  1  0  0  0  0
  7 28  1  0  0  0  0
  7 29  1  0  0  0  0
  8  9  1  0  0  0  0
  8 30  1  0  0  0  0
  9 18  1  0  0  0  0
  9 10  2  0  0  0  0
 10 11  1  0  0  0  0
 11 12  2  0  0  0  0
 11 31  1  0  0  0  0
 12 13  1  0  0  0  0
 12 32  1  0  0  0  0
 13 14  1  0  0  0  0
 13 18  2  0  0  0  0
 14 15  1  0  0  0  0
 14 16  1  0  0  0  0
 14 17  1  0  0  0  0
 19 33  1  0  0  0  0
 19 34  1  0  0  0  0
M  CHG  1   2   1
M  END
> <s_m_source_file>
AV-unprocessed.smi

> <i_m_source_file_index>
1144

> <i_lp_mmshare_version>
43012

> <i_f3d_flags>
0

> <s_epik_input>
W0NIM11OMVtDSDJdW0NIMl1PW0NASF0oW0NIMl0xKVtDSDJdW05IXWMybltjSF1bY0hdYyhuMilDKEYpKEYpRg==

> <s_epik_cmdline>
J2VwaWtfcHl0aG9uJywgJy1waCcsICc3LjAnLCAnLXRuJywgJzgnLCAnLW1hJywgJzIwMCcsICctbWV0YWxfYmluZGluZycsICctaW1hZScsICc8aW5maWxlLm1hZT4nLCAnLW9tYWUnLCAnPG91dGZpbGUubWFlPic=

> <r_lp_tautomer_probability>
1

> <r_epik_Ionization_Penalty>
0.178506

> <r_epik_Ionization_Penalty_Charging>
0.178504

> <r_epik_Ionization_Penalty_Neutral>
2.47225e-06

> <r_epik_State_Penalty>
0.167974

> <r_epik_Charging_Adjusted_Penalty>
0.346478

> <i_epik_Tot_Q>
1

> <i_epik_Tot_abs_Q>
1

> <r_epik_Metal_State_Penalty>
0.167974

> <b_epik_Metal_Only>
0

> <s_lp_Force_Field>
OPLS_2005

> <r_lp_Energy>
9.30015

> <b_lp_Chiralities_Consistent>
1

> <s_lp_Variant>
AV-unprocessed.smi:1144-1

> <Gold.Version>
5.8.1

> <Gold.Id.Protein>
6NUR|6NUR_protein|mol2

> <Gold.PLP.Fitness>
41.8461

> <Gold.PLP.PLP>
-34.2965

> <Gold.PLP.part.hbond>
-2.0000

> <Gold.PLP.part.metal>
0.0000

> <Gold.PLP.part.buried>
-0.3191

> <Gold.PLP.part.nonpolar>
-32.6052

> <Gold.PLP.part.repulsive>
0.1893

> <Gold.PLP.ligand.clash>
0.0000

> <Gold.PLP.ligand.torsion>
0.7044

> <Gold.PLP.Chemscore.Hbond>
2.9840

> <Gold.PLP.Chemscore.CHOScore>
0.0000

> <Gold.PLP.Chemscore.Metal>
0.0000

> <Gold.Chemscore.Hbonds>
donor molecule, donor type, donor heavy atom, donor atom, acceptor molecule, acceptor atom, score
      L1  H     2    35       P1  7948  1.81
      P1  H  7989  7998       L1     5  0.60

> <Gold.PLP.Chemscore.Internal.Correction>
0.0062

> <Gold.Rescore>
     Score         DG    S(hbond)    S(metal)    S(lipo)     H(rot)  DE(clash)    DE(int)     intcor
     11.60     -14.02       0.97        0.00      74.59       1.34       1.93       0.49       ----

> <Gold.Chemscore.Fitness>
11.5970

> <Gold.Chemscore.DG>
-14.0181

> <Gold.Chemscore.ZeroCoef>
-5.4800

> <Gold.Chemscore.Hbond>
0.9690

> <Gold.Chemscore.Metal>
0.0000

> <Gold.Chemscore.Lipo>
74.5868

> <Gold.Chemscore.Internal_Hbond>
0.0000

> <Gold.Chemscore.DEClash>
1.9326

> <Gold.Chemscore.DEInternal>
0.4886

> <Gold.Chemscore.Rot>
1.3379

> <Gold.Chemscore.Internal.Correction>
   9.000000E+99

> <Gold.Chemscore.Hbonds>
donor molecule, donor type, donor heavy atom, donor atom, acceptor molecule, acceptor atom, score
      L1  H     2    35       P1  7948  0.82
      P1  H  7989  7998       L1     5  0.03

> <Gold.Chemscore.Hbond.Weighted>
-3.2364

> <Gold.Chemscore.Metal.Weighted>
-0.0000

> <Gold.Chemscore.Lipo.Weighted>
-8.7267

> <Gold.Chemscore.Internal_Hbond.Weighted>
0.0000

> <Gold.Chemscore.DEClash.Weighted>
1.9326

> <Gold.Chemscore.DEInternal.Weighted>
0.4886

> <Gold.Chemscore.Rot.Weighted>
3.4250

> <Gold.Chemscore.Internal.Correction.Weighted>
   9.000000E+99

> <Gold.Protein.RotatedTorsions>
[ 6907 6896 6895 6894 ] final  -82.91 input  -60.11 | X-H torsion
[ 7974 7965 7964 7962 ] final   32.34 input  175.53 | X-H torsion
[ 8008 7997 7996 7995 ] final    6.49 input   59.86 | X-H torsion
[ 10167 10162 10161 10158 ] final    6.30 input  -65.29 | X-H torsion
[ 10718 10713 10712 10709 ] final  146.67 input   66.30 | X-H torsion
[ 10763 10752 10751 10750 ] final   24.87 input  -60.55 | X-H torsion
[ 11005 11000 10999 10996 ] final  109.33 input  -57.11 | X-H torsion

> <Gold.Protein.ActiveResidues>
 VAL166  LYS551  ARG553  GLY616  TRP617  ASP618  TYR619  PRO620  LYS621  CYS622 
 ASP623  PHE694  ASN695  SER759  ASP760  ASP761  ALA762  ILE779  LEU786  VAL792 
 PHE793  MET794  SER795  GLU796  ALA797  LYS798  CYS799  TRP800  GLU811  SER814 

> <Gold.Protein.RotatedAtoms>
  150.6891  134.3592  159.4942 H   0  0  0  0  0  0  0  0  0  0  0  0  # atno 6907 bound_to 6896
  152.1423  134.9050  160.0562 H   0  0  0  0  0  0  0  0  0  0  0  0  # atno 6908 bound_to 6896
  152.0179  133.3852  159.4283 H   0  0  0  0  0  0  0  0  0  0  0  0  # atno 6909 bound_to 6896
  146.1493  139.6539  142.9110 H   0  0  0  0  0  0  0  0  0  0  0  0  # atno 7974 bound_to 7965
  154.7417  140.2750  155.6368 H   0  0  0  0  0  0  0  0  0  0  0  0  # atno 8008 bound_to 7997
  156.2875  140.2696  156.2072 H   0  0  0  0  0  0  0  0  0  0  0  0  # atno 8009 bound_to 7997
  155.0250  140.0371  157.2442 H   0  0  0  0  0  0  0  0  0  0  0  0  # atno 8010 bound_to 7997
  140.6435  143.7718  150.7463 H   0  0  0  0  0  0  0  0  0  0  0  0  # atno 10167 bound_to 10162
  157.3303  131.0919  151.1168 H   0  0  0  0  0  0  0  0  0  0  0  0  # atno 10718 bound_to 10713
  153.0732  135.6595  154.0202 H   0  0  0  0  0  0  0  0  0  0  0  0  # atno 10763 bound_to 10752
  153.9842  135.2952  155.3419 H   0  0  0  0  0  0  0  0  0  0  0  0  # atno 10764 bound_to 10752
  154.7113  135.5204  153.8741 H   0  0  0  0  0  0  0  0  0  0  0  0  # atno 10765 bound_to 10752
  139.8860  134.9455  156.6109 H   0  0  0  0  0  0  0  0  0  0  0  0  # atno 11005 bound_to 11000
  145.4862  141.0438  143.2618 LP  0  0  0  0  0  0  0  0  0  0  0  0  # atno 17320 bound_to 7965
  144.7884  139.6379  143.7124 LP  0  0  0  0  0  0  0  0  0  0  0  0  # atno 17321 bound_to 7965
  140.1354  143.4488  152.2228 LP  0  0  0  0  0  0  0  0  0  0  0  0  # atno 17342 bound_to 10162
  139.5645  144.7426  151.4062 LP  0  0  0  0  0  0  0  0  0  0  0  0  # atno 17343 bound_to 10162
  157.2419  130.6573  149.5893 LP  0  0  0  0  0  0  0  0  0  0  0  0  # atno 17370 bound_to 10713
  155.9695  130.4566  150.5930 LP  0  0  0  0  0  0  0  0  0  0  0  0  # atno 17371 bound_to 10713
  140.7812  133.8658  155.8569 LP  0  0  0  0  0  0  0  0  0  0  0  0  # atno 17394 bound_to 11000
  140.9758  134.1470  157.4537 LP  0  0  0  0  0  0  0  0  0  0  0  0  # atno 17395 bound_to 11000

$$$$
