AV-unprocessed.smi:284|AV-procd|sdf|2163|dock5
  -GOLD-   2262021523D 1   1.00000     0.00000
 Structure written by MMmdl.
 60 62  0  0  0  0  0  0  0  0  1 V2000
  145.4318  135.8221  156.3378 C   0  0  0  0  0  0  0  0  0  0  0  0
  146.7842  135.9955  157.0106 C   0  0  0  0  0  0  0  0  0  0  0  0
  146.9694  135.7485  158.3277 C   0  0  0  0  0  0  0  0  0  0  0  0
  148.1835  135.8985  158.9697 N   0  0  0  0  0  0  0  0  0  0  0  0
  148.3118  135.6110  160.4460 C   0  0  2  0  0  0  0  0  0  0  0  0
  147.1763  134.7201  160.9397 C   0  0  0  0  0  0  0  0  0  0  0  0
  147.1634  135.0911  162.4080 C   0  0  2  0  0  0  0  0  0  0  0  0
  145.9313  134.7839  163.0301 O   0  0  0  0  0  0  0  0  0  0  0  0
  147.5424  136.5866  162.3862 C   0  0  2  0  0  0  0  0  0  0  0  0
  146.4079  137.6267  162.5161 C   0  0  0  0  0  0  0  0  0  0  0  0
  145.7887  137.9200  161.2801 O   0  0  0  0  0  0  0  0  0  0  0  0
  148.2281  136.8109  161.1533 O   0  0  0  0  0  0  0  0  0  0  0  0
  149.3156  136.3102  158.2384 C   0  0  0  0  0  0  0  0  0  0  0  0
  150.4140  136.4357  158.7848 O   0  0  0  0  0  0  0  0  0  0  0  0
  149.1577  136.5708  156.8583 N   0  0  0  0  0  0  0  0  0  0  0  0
  150.3377  137.0223  156.0874 C   0  0  0  0  0  0  0  0  0  0  0  0
  150.9473  138.3337  156.6079 C   0  0  0  0  0  0  0  0  0  0  0  0
  152.1626  138.4297  156.7808 O   0  0  0  0  0  0  0  0  0  0  0  0
  150.0566  139.3059  156.8769 N   0  0  0  0  0  0  0  0  0  0  0  0
  150.2805  140.6244  157.3599 C   0  0  0  0  0  0  0  0  0  0  0  0
  149.2839  141.6258  157.4231 C   0  0  0  0  0  0  0  0  0  0  0  0
  149.5879  142.9038  157.9312 C   0  0  0  0  0  0  0  0  0  0  0  0
  150.8895  143.2130  158.3973 C   0  0  0  0  0  0  0  0  0  0  0  0
  151.2576  144.5984  158.9625 C   0  0  0  0  0  0  0  0  0  0  0  0
  152.3239  145.2535  158.0612 C   0  0  0  0  0  0  0  0  0  0  0  0
  151.8296  144.5321  160.3966 C   0  0  0  0  0  0  0  0  0  0  0  0
  150.0032  145.4970  159.0043 C   0  0  0  0  0  0  0  0  0  0  0  0
  151.8727  142.1977  158.3456 C   0  0  0  0  0  0  0  0  0  0  0  0
  151.5720  140.9208  157.8364 C   0  0  0  0  0  0  0  0  0  0  0  0
  147.9139  136.4420  156.1919 C   0  0  0  0  0  0  0  0  0  0  0  0
  147.8146  136.7014  154.9909 O   0  0  0  0  0  0  0  0  0  0  0  0
  144.6651  135.5027  157.0443 H   0  0  0  0  0  0  0  0  0  0  0  0
  145.4923  135.0717  155.5487 H   0  0  0  0  0  0  0  0  0  0  0  0
  145.1036  136.7621  155.8929 H   0  0  0  0  0  0  0  0  0  0  0  0
  146.1220  135.4152  158.9077 H   0  0  0  0  0  0  0  0  0  0  0  0
  149.2993  135.1849  160.6280 H   0  0  0  0  0  0  0  0  0  0  0  0
  146.2434  135.0042  160.4506 H   0  0  0  0  0  0  0  0  0  0  0  0
  147.3816  133.6670  160.7458 H   0  0  0  0  0  0  0  0  0  0  0  0
  147.9515  134.5327  162.9154 H   0  0  0  0  0  0  0  0  0  0  0  0
  145.9286  135.1609  163.8967 H   0  0  0  0  0  0  0  0  0  0  0  0
  148.2534  136.7744  163.1916 H   0  0  0  0  0  0  0  0  0  0  0  0
  145.6398  137.2498  163.1919 H   0  0  0  0  0  0  0  0  0  0  0  0
  146.7874  138.5493  162.9555 H   0  0  0  0  0  0  0  0  0  0  0  0
  145.3297  137.1494  160.9833 H   0  0  0  0  0  0  0  0  0  0  0  0
  151.1096  136.2506  156.0817 H   0  0  0  0  0  0  0  0  0  0  0  0
  150.0960  137.1561  155.0321 H   0  0  0  0  0  0  0  0  0  0  0  0
  149.0864  139.0504  156.7637 H   0  0  0  0  0  0  0  0  0  0  0  0
  148.2718  141.4382  157.1010 H   0  0  0  0  0  0  0  0  0  0  0  0
  148.7916  143.6308  157.9546 H   0  0  0  0  0  0  0  0  0  0  0  0
  152.6158  146.2335  158.4403 H   0  0  0  0  0  0  0  0  0  0  0  0
  151.9659  145.3983  157.0419 H   0  0  0  0  0  0  0  0  0  0  0  0
  153.2252  144.6417  158.0085 H   0  0  0  0  0  0  0  0  0  0  0  0
  152.7527  143.9527  160.4378 H   0  0  0  0  0  0  0  0  0  0  0  0
  151.1180  144.0880  161.0940 H   0  0  0  0  0  0  0  0  0  0  0  0
  152.0654  145.5281  160.7731 H   0  0  0  0  0  0  0  0  0  0  0  0
  150.2310  146.4761  159.4272 H   0  0  0  0  0  0  0  0  0  0  0  0
  149.2191  145.0508  159.6171 H   0  0  0  0  0  0  0  0  0  0  0  0
  149.5860  145.6710  158.0126 H   0  0  0  0  0  0  0  0  0  0  0  0
  152.8742  142.3889  158.7006 H   0  0  0  0  0  0  0  0  0  0  0  0
  152.3448  140.1666  157.8108 H   0  0  0  0  0  0  0  0  0  0  0  0
  1  2  1  0  0  0  0
  1 32  1  0  0  0  0
  1 33  1  0  0  0  0
  1 34  1  0  0  0  0
  2 30  1  0  0  0  0
  2  3  2  0  0  0  0
  3  4  1  0  0  0  0
  3 35  1  0  0  0  0
  4  5  1  0  0  0  0
  4 13  1  0  0  0  0
  5 12  1  0  0  0  0
  5  6  1  0  0  0  0
  5 36  1  0  0  0  0
  6  7  1  0  0  0  0
  6 37  1  0  0  0  0
  6 38  1  0  0  0  0
  7  8  1  0  0  0  0
  7  9  1  0  0  0  0
  7 39  1  0  0  0  0
  8 40  1  0  0  0  0
  9 10  1  0  0  0  0
  9 12  1  0  0  0  0
  9 41  1  0  0  0  0
 10 11  1  0  0  0  0
 10 42  1  0  0  0  0
 10 43  1  0  0  0  0
 11 44  1  0  0  0  0
 13 14  2  0  0  0  0
 13 15  1  0  0  0  0
 15 16  1  0  0  0  0
 15 30  1  0  0  0  0
 16 17  1  0  0  0  0
 16 45  1  0  0  0  0
 16 46  1  0  0  0  0
 17 18  2  0  0  0  0
 17 19  1  0  0  0  0
 19 20  1  0  0  0  0
 19 47  1  0  0  0  0
 20 29  1  0  0  0  0
 20 21  2  0  0  0  0
 21 22  1  0  0  0  0
 21 48  1  0  0  0  0
 22 23  2  0  0  0  0
 22 49  1  0  0  0  0
 23 24  1  0  0  0  0
 23 28  1  0  0  0  0
 24 25  1  0  0  0  0
 24 26  1  0  0  0  0
 24 27  1  0  0  0  0
 25 50  1  0  0  0  0
 25 51  1  0  0  0  0
 25 52  1  0  0  0  0
 26 53  1  0  0  0  0
 26 54  1  0  0  0  0
 26 55  1  0  0  0  0
 27 56  1  0  0  0  0
 27 57  1  0  0  0  0
 27 58  1  0  0  0  0
 28 29  2  0  0  0  0
 28 59  1  0  0  0  0
 29 60  1  0  0  0  0
 30 31  2  0  0  0  0
M  END
> <s_m_source_file>
AV-unprocessed.smi

> <i_m_source_file_index>
284

> <i_lp_mmshare_version>
43012

> <i_f3d_flags>
0

> <s_epik_input>
W09IXVtDSDJdW0NAQEhdKE8xKVtDQEhdKFtPSF0pW0NIMl1bQ0BIXTFuKFtjSF1jMltDSDNdKWMoPU8pbihjMj1PKVtDSDJdQyg9TylbTkhdYzNbY0hdW2NIXWMoQyhbQ0gzXSkoW0NIM10pW0NIM10pW2NIXVtjSF0z

> <s_epik_cmdline>
J2VwaWtfcHl0aG9uJywgJy1waCcsICc3LjAnLCAnLXRuJywgJzgnLCAnLW1hJywgJzIwMCcsICctbWV0YWxfYmluZGluZycsICctaW1hZScsICc8aW5maWxlLm1hZT4nLCAnLW9tYWUnLCAnPG91dGZpbGUubWFlPic=

> <r_lp_tautomer_probability>
1

> <r_epik_Ionization_Penalty>
4.92358e-06

> <r_epik_Ionization_Penalty_Charging>
1.29777e-07

> <r_epik_Ionization_Penalty_Neutral>
4.79381e-06

> <r_epik_State_Penalty>
-0

> <r_epik_Charging_Adjusted_Penalty>
1.29777e-07

> <i_epik_Tot_Q>
0

> <i_epik_Tot_abs_Q>
0

> <r_epik_Metal_State_Penalty>
-0

> <b_epik_Metal_Only>
0

> <s_epik_Chemistry_Notes>
This compound contains an acetal/aminal-like group ( X-CH(R)-Y where X, Y are N, S, or O) that may be acid/base labile, releasing an aldehyde.

> <s_lp_Force_Field>
OPLS_2005

> <r_lp_Energy>
44.8012

> <b_lp_Chiralities_Consistent>
1

> <s_lp_Variant>
AV-unprocessed.smi:284-7

> <Gold.Version>
5.8.1

> <Gold.Id.Protein>
6NUR|6NUR_protein|mol2

> <Gold.PLP.Fitness>
52.8040

> <Gold.PLP.PLP>
-47.2341

> <Gold.PLP.part.hbond>
-4.0000

> <Gold.PLP.part.metal>
0.0000

> <Gold.PLP.part.buried>
-8.6332

> <Gold.PLP.part.nonpolar>
-34.6005

> <Gold.PLP.part.repulsive>
0.0880

> <Gold.PLP.ligand.clash>
0.0000

> <Gold.PLP.ligand.torsion>
1.0897

> <Gold.PLP.Chemscore.Hbond>
2.5640

> <Gold.PLP.Chemscore.CHOScore>
0.0000

> <Gold.PLP.Chemscore.Metal>
0.0000

> <Gold.Chemscore.Hbonds>
donor molecule, donor type, donor heavy atom, donor atom, acceptor molecule, acceptor atom, score
      P1  H  6896  6909       L1    14  1.00
      P1  H  6931  6943       L1    12  0.45
      P1  H  6934  6947       L1    11  0.35

> <Gold.PLP.Chemscore.Internal.Correction>
0.0574

> <Gold.Rescore>
     Score         DG    S(hbond)    S(metal)    S(lipo)     H(rot)  DE(clash)    DE(int)     intcor
     13.80     -17.39       1.68        0.00     125.42       3.27       0.16       3.43       ----

> <Gold.Chemscore.Fitness>
13.7997

> <Gold.Chemscore.DG>
-17.3868

> <Gold.Chemscore.ZeroCoef>
-5.4800

> <Gold.Chemscore.Hbond>
1.6804

> <Gold.Chemscore.Metal>
0.0000

> <Gold.Chemscore.Lipo>
125.4220

> <Gold.Chemscore.Internal_Hbond>
0.0000

> <Gold.Chemscore.DEClash>
0.1551

> <Gold.Chemscore.DEInternal>
3.4321

> <Gold.Chemscore.Rot>
3.2735

> <Gold.Chemscore.Internal.Correction>
   9.000000E+99

> <Gold.Chemscore.Hbonds>
donor molecule, donor type, donor heavy atom, donor atom, acceptor molecule, acceptor atom, score
      P1  H  6896  6909       L1    14  0.83
      P1  H  6931  6943       L1    12  0.02
      P1  H  6934  6947       L1    11  0.01

> <Gold.Chemscore.Hbond.Weighted>
-5.6125

> <Gold.Chemscore.Metal.Weighted>
-0.0000

> <Gold.Chemscore.Lipo.Weighted>
-14.6744

> <Gold.Chemscore.Internal_Hbond.Weighted>
0.0000

> <Gold.Chemscore.DEClash.Weighted>
0.1551

> <Gold.Chemscore.DEInternal.Weighted>
3.4321

> <Gold.Chemscore.Rot.Weighted>
8.3801

> <Gold.Chemscore.Internal.Correction.Weighted>
   9.000000E+99

> <Gold.Protein.RotatedTorsions>
[ 6907 6896 6895 6894 ] final   76.32 input  -60.11 | X-H torsion
[ 7974 7965 7964 7962 ] final  164.41 input  175.53 | X-H torsion
[ 8008 7997 7996 7995 ] final  -59.99 input   59.86 | X-H torsion
[ 10167 10162 10161 10158 ] final   20.13 input  -65.29 | X-H torsion
[ 10718 10713 10712 10709 ] final  -57.18 input   66.30 | X-H torsion
[ 10763 10752 10751 10750 ] final -142.71 input  -60.55 | X-H torsion
[ 11005 11000 10999 10996 ] final -116.15 input  -57.11 | X-H torsion

> <Gold.Protein.ActiveResidues>
 VAL166  LYS551  ARG553  GLY616  TRP617  ASP618  TYR619  PRO620  LYS621  CYS622 
 ASP623  PHE694  ASN695  SER759  ASP760  ASP761  ALA762  ILE779  LEU786  VAL792 
 PHE793  MET794  SER795  GLU796  ALA797  LYS798  CYS799  TRP800  GLU811  SER814 

> <Gold.Protein.RotatedAtoms>
  152.5067  134.3986  159.9408 H   0  0  0  0  0  0  0  0  0  0  0  0  # atno 6907 bound_to 6896
  151.3949  133.3770  159.2733 H   0  0  0  0  0  0  0  0  0  0  0  0  # atno 6908 bound_to 6896
  150.9404  134.8835  159.7668 H   0  0  0  0  0  0  0  0  0  0  0  0  # atno 6909 bound_to 6896
  144.7546  139.8323  143.6354 H   0  0  0  0  0  0  0  0  0  0  0  0  # atno 7974 bound_to 7965
  154.4377  140.1049  156.6203 H   0  0  0  0  0  0  0  0  0  0  0  0  # atno 8008 bound_to 7997
  155.5715  140.3489  155.4498 H   0  0  0  0  0  0  0  0  0  0  0  0  # atno 8009 bound_to 7997
  156.0386  140.1277  157.0170 H   0  0  0  0  0  0  0  0  0  0  0  0  # atno 8010 bound_to 7997
  140.5527  143.9480  150.6589 H   0  0  0  0  0  0  0  0  0  0  0  0  # atno 10167 bound_to 10162
  156.1231  130.4164  150.0405 H   0  0  0  0  0  0  0  0  0  0  0  0  # atno 10718 bound_to 10713
  154.8498  135.3488  154.6072 H   0  0  0  0  0  0  0  0  0  0  0  0  # atno 10763 bound_to 10752
  153.6681  135.6986  153.5160 H   0  0  0  0  0  0  0  0  0  0  0  0  # atno 10764 bound_to 10752
  153.2764  135.4277  155.0994 H   0  0  0  0  0  0  0  0  0  0  0  0  # atno 10765 bound_to 10752
  141.0441  133.9790  157.2946 H   0  0  0  0  0  0  0  0  0  0  0  0  # atno 11005 bound_to 11000
  146.1540  139.4632  143.0030 LP  0  0  0  0  0  0  0  0  0  0  0  0  # atno 17320 bound_to 7965
  145.6824  141.0187  143.1599 LP  0  0  0  0  0  0  0  0  0  0  0  0  # atno 17321 bound_to 7965
  140.2910  143.3324  152.1062 LP  0  0  0  0  0  0  0  0  0  0  0  0  # atno 17342 bound_to 10162
  139.5034  144.6755  151.6138 LP  0  0  0  0  0  0  0  0  0  0  0  0  # atno 17343 bound_to 10162
  156.8338  130.9402  151.3635 LP  0  0  0  0  0  0  0  0  0  0  0  0  # atno 17370 bound_to 10713
  157.6413  130.8808  149.9454 LP  0  0  0  0  0  0  0  0  0  0  0  0  # atno 17371 bound_to 10713
  139.9298  135.0200  156.8361 LP  0  0  0  0  0  0  0  0  0  0  0  0  # atno 17394 bound_to 11000
  140.6180  134.0021  155.7605 LP  0  0  0  0  0  0  0  0  0  0  0  0  # atno 17395 bound_to 11000

$$$$
