AV-unprocessed.smi:2301|AV-procd|sdf|9234|dock2
  -GOLD-   2272012453D 1   1.00000     0.00000
 Structure written by MMmdl.
 37 38  0  0  0  0  0  0  0  0  1 V2000
  153.5364  141.2207  160.1679 C   0  0  0  0  0  0  0  0  0  0  0  0
  152.7735  142.3898  159.5811 C   0  0  0  0  0  0  0  0  0  0  0  0
  152.9248  143.6897  160.1025 C   0  0  0  0  0  0  0  0  0  0  0  0
  152.1897  144.7313  159.5091 C   0  0  0  0  0  0  0  0  0  0  0  0
  151.3402  144.4328  158.4264 C   0  0  0  0  0  0  0  0  0  0  0  0
  151.2460  143.1009  157.9633 C   0  0  0  0  0  0  0  0  0  0  0  0
  150.3638  142.9048  156.8676 N   0  0  0  0  0  0  0  0  0  0  0  0
  150.2237  141.8104  156.0987 C   0  0  0  0  0  0  0  0  0  0  0  0
  150.8585  140.7630  156.2269 O   0  0  0  0  0  0  0  0  0  0  0  0
  149.2912  141.9981  155.1533 N   0  0  0  0  0  0  0  0  0  0  0  0
  148.8922  141.0098  154.1555 C   0  0  1  0  0  0  0  0  0  0  0  0
  148.7832  139.6227  154.8170 C   0  0  0  0  0  0  0  0  0  0  0  0
  148.3061  138.5571  153.8169 C   0  0  0  0  0  0  0  0  0  0  0  0
  146.9709  138.9637  153.1703 C   0  0  2  0  0  0  0  0  0  0  0  0
  146.5974  137.9986  152.2099 O   0  0  0  0  0  0  0  0  0  0  0  0
  147.0799  140.3426  152.4978 C   0  0  0  0  0  0  0  0  0  0  0  0
  147.5553  141.4098  153.4966 C   0  0  0  0  0  0  0  0  0  0  0  0
  151.9592  142.1032  158.5426 N   0  0  0  0  0  0  0  0  0  0  0  0
  149.6626  140.9553  153.3838 H   0  0  0  0  0  0  0  0  0  0  0  0
  146.1933  138.9941  153.9347 H   0  0  0  0  0  0  0  0  0  0  0  0
  154.0523  141.5060  161.0851 H   0  0  0  0  0  0  0  0  0  0  0  0
  154.2793  140.8596  159.4563 H   0  0  0  0  0  0  0  0  0  0  0  0
  152.8570  140.4005  160.4021 H   0  0  0  0  0  0  0  0  0  0  0  0
  153.5856  143.8864  160.9341 H   0  0  0  0  0  0  0  0  0  0  0  0
  152.2759  145.7430  159.8770 H   0  0  0  0  0  0  0  0  0  0  0  0
  150.7692  145.2220  157.9593 H   0  0  0  0  0  0  0  0  0  0  0  0
  149.7715  143.6901  156.6421 H   0  0  0  0  0  0  0  0  0  0  0  0
  148.8205  142.8905  155.1207 H   0  0  0  0  0  0  0  0  0  0  0  0
  149.7484  139.3290  155.2316 H   0  0  0  0  0  0  0  0  0  0  0  0
  148.0868  139.6660  155.6558 H   0  0  0  0  0  0  0  0  0  0  0  0
  149.0659  138.4193  153.0461 H   0  0  0  0  0  0  0  0  0  0  0  0
  148.2009  137.5969  154.3234 H   0  0  0  0  0  0  0  0  0  0  0  0
  147.3789  137.5718  151.8927 H   0  0  0  0  0  0  0  0  0  0  0  0
  147.7799  140.2946  151.6622 H   0  0  0  0  0  0  0  0  0  0  0  0
  146.1163  140.6341  152.0785 H   0  0  0  0  0  0  0  0  0  0  0  0
  146.7925  141.5516  154.2637 H   0  0  0  0  0  0  0  0  0  0  0  0
  147.6579  142.3668  152.9837 H   0  0  0  0  0  0  0  0  0  0  0  0
  1  2  1  0  0  0  0
  1 21  1  0  0  0  0
  1 22  1  0  0  0  0
  1 23  1  0  0  0  0
  2 18  1  0  0  0  0
  2  3  2  0  0  0  0
  3  4  1  0  0  0  0
  3 24  1  0  0  0  0
  4  5  2  0  0  0  0
  4 25  1  0  0  0  0
  5  6  1  0  0  0  0
  5 26  1  0  0  0  0
  6  7  1  0  0  0  0
  6 18  2  0  0  0  0
  7  8  1  0  0  0  0
  7 27  1  0  0  0  0
  8  9  2  0  0  0  0
  8 10  1  0  0  0  0
 10 11  1  0  0  0  0
 10 28  1  0  0  0  0
 11 19  1  0  0  0  0
 11 17  1  0  0  0  0
 11 12  1  0  0  0  0
 12 13  1  0  0  0  0
 12 29  1  0  0  0  0
 12 30  1  0  0  0  0
 13 14  1  0  0  0  0
 13 31  1  0  0  0  0
 13 32  1  0  0  0  0
 14 20  1  0  0  0  0
 14 15  1  0  0  0  0
 14 16  1  0  0  0  0
 15 33  1  0  0  0  0
 16 17  1  0  0  0  0
 16 34  1  0  0  0  0
 16 35  1  0  0  0  0
 17 36  1  0  0  0  0
 17 37  1  0  0  0  0
M  END
> <s_m_source_file>
AV-unprocessed.smi

> <i_m_source_file_index>
2301

> <i_lp_mmshare_version>
43012

> <i_f3d_flags>
0

> <s_epik_input>
W0NIM11jMVtjSF1bY0hdW2NIXWMobjEpW05IXUMoPU8pW05IXVtDQEhdMltDSDJdW0NIMl1bQ0BIXShbT0hdKVtDSDJdW0NIMl0y

> <s_epik_cmdline>
J2VwaWtfcHl0aG9uJywgJy1waCcsICc3LjAnLCAnLXRuJywgJzgnLCAnLW1hJywgJzIwMCcsICctbWV0YWxfYmluZGluZycsICctaW1hZScsICc8aW5maWxlLm1hZT4nLCAnLW9tYWUnLCAnPG91dGZpbGUubWFlPic=

> <r_lp_tautomer_probability>
1

> <r_epik_Ionization_Penalty>
9.15533e-05

> <r_epik_Ionization_Penalty_Charging>
0

> <r_epik_Ionization_Penalty_Neutral>
9.15533e-05

> <r_epik_State_Penalty>
-0

> <r_epik_Charging_Adjusted_Penalty>
0

> <i_epik_Tot_Q>
0

> <i_epik_Tot_abs_Q>
0

> <r_epik_Metal_State_Penalty>
-0

> <b_epik_Metal_Only>
0

> <s_lp_Force_Field>
OPLS_2005

> <r_lp_Energy>
9.20264

> <b_lp_Chiralities_Consistent>
1

> <s_lp_Variant>
AV-unprocessed.smi:2301-1

> <Gold.Version>
5.8.1

> <Gold.Id.Protein>
6NUR|6NUR_protein|mol2

> <Gold.PLP.Fitness>
47.6091

> <Gold.PLP.PLP>
-39.3257

> <Gold.PLP.part.hbond>
-3.0000

> <Gold.PLP.part.metal>
0.0000

> <Gold.PLP.part.buried>
-2.4409

> <Gold.PLP.part.nonpolar>
-33.9414

> <Gold.PLP.part.repulsive>
0.2536

> <Gold.PLP.ligand.clash>
0.0000

> <Gold.PLP.ligand.torsion>
0.2520

> <Gold.PLP.Chemscore.Hbond>
2.9280

> <Gold.PLP.Chemscore.CHOScore>
0.0000

> <Gold.PLP.Chemscore.Metal>
0.0000

> <Gold.Chemscore.Hbonds>
donor molecule, donor type, donor heavy atom, donor atom, acceptor molecule, acceptor atom, score
      L1  H     7    27       P1  8028  1.00
      L1  H    10    28       P1  8028  0.93
      L1  H    15    33       P1  7948  0.98

> <Gold.PLP.Chemscore.Internal.Correction>
0.0034

> <Gold.Rescore>
     Score         DG    S(hbond)    S(metal)    S(lipo)     H(rot)  DE(clash)    DE(int)     intcor
     19.90     -23.42       2.92        0.00     101.48       1.44       0.36       3.17       ----

> <Gold.Chemscore.Fitness>
19.8951

> <Gold.Chemscore.DG>
-23.4249

> <Gold.Chemscore.ZeroCoef>
-5.4800

> <Gold.Chemscore.Hbond>
2.9216

> <Gold.Chemscore.Metal>
0.0000

> <Gold.Chemscore.Lipo>
101.4841

> <Gold.Chemscore.Internal_Hbond>
0.0000

> <Gold.Chemscore.DEClash>
0.3639

> <Gold.Chemscore.DEInternal>
3.1659

> <Gold.Chemscore.Rot>
1.4402

> <Gold.Chemscore.Internal.Correction>
   9.000000E+99

> <Gold.Chemscore.Hbonds>
donor molecule, donor type, donor heavy atom, donor atom, acceptor molecule, acceptor atom, score
      L1  H     7    27       P1  8028  0.99
      L1  H    10    28       P1  8028  0.89
      L1  H    15    33       P1  7948  0.91

> <Gold.Chemscore.Hbond.Weighted>
-9.7581

> <Gold.Chemscore.Metal.Weighted>
-0.0000

> <Gold.Chemscore.Lipo.Weighted>
-11.8736

> <Gold.Chemscore.Internal_Hbond.Weighted>
0.0000

> <Gold.Chemscore.DEClash.Weighted>
0.3639

> <Gold.Chemscore.DEInternal.Weighted>
3.1659

> <Gold.Chemscore.Rot.Weighted>
3.6869

> <Gold.Chemscore.Internal.Correction.Weighted>
   9.000000E+99

> <Gold.Protein.RotatedTorsions>
[ 6907 6896 6895 6894 ] final -129.57 input  -60.11 | X-H torsion
[ 7974 7965 7964 7962 ] final   31.65 input  175.53 | X-H torsion
[ 8008 7997 7996 7995 ] final -105.23 input   59.86 | X-H torsion
[ 10167 10162 10161 10158 ] final   63.28 input  -65.29 | X-H torsion
[ 10718 10713 10712 10709 ] final  -78.20 input   66.30 | X-H torsion
[ 10763 10752 10751 10750 ] final -139.51 input  -60.55 | X-H torsion
[ 11005 11000 10999 10996 ] final  -80.99 input  -57.11 | X-H torsion

> <Gold.Protein.ActiveResidues>
 VAL166  LYS551  ARG553  GLY616  TRP617  ASP618  TYR619  PRO620  LYS621  CYS622 
 ASP623  PHE694  ASN695  SER759  ASP760  ASP761  ALA762  ILE779  LEU786  VAL792 
 PHE793  MET794  SER795  GLU796  ALA797  LYS798  CYS799  TRP800  GLU811  SER814 

> <Gold.Protein.RotatedAtoms>
  150.9302  133.6776  159.2812 H   0  0  0  0  0  0  0  0  0  0  0  0  # atno 6907 bound_to 6896
  151.4200  135.0995  159.9621 H   0  0  0  0  0  0  0  0  0  0  0  0  # atno 6908 bound_to 6896
  152.5022  133.8756  159.7375 H   0  0  0  0  0  0  0  0  0  0  0  0  # atno 6909 bound_to 6896
  146.1536  139.6629  142.9081 H   0  0  0  0  0  0  0  0  0  0  0  0  # atno 7974 bound_to 7965
  154.8969  140.0414  157.1871 H   0  0  0  0  0  0  0  0  0  0  0  0  # atno 8008 bound_to 7997
  154.8484  140.2925  155.5593 H   0  0  0  0  0  0  0  0  0  0  0  0  # atno 8009 bound_to 7997
  156.2995  140.2469  156.3438 H   0  0  0  0  0  0  0  0  0  0  0  0  # atno 8010 bound_to 7997
  140.1347  144.4610  150.6845 H   0  0  0  0  0  0  0  0  0  0  0  0  # atno 10167 bound_to 10162
  156.0124  130.4511  150.3460 H   0  0  0  0  0  0  0  0  0  0  0  0  # atno 10718 bound_to 10713
  154.8607  135.3580  154.5558 H   0  0  0  0  0  0  0  0  0  0  0  0  # atno 10763 bound_to 10752
  153.6174  135.7007  153.5328 H   0  0  0  0  0  0  0  0  0  0  0  0  # atno 10764 bound_to 10752
  153.3157  135.4165  155.1334 H   0  0  0  0  0  0  0  0  0  0  0  0  # atno 10765 bound_to 10752
  141.1667  133.7175  156.8355 H   0  0  0  0  0  0  0  0  0  0  0  0  # atno 11005 bound_to 11000
  145.4762  141.0437  143.2671 LP  0  0  0  0  0  0  0  0  0  0  0  0  # atno 17320 bound_to 7965
  144.7935  139.6280  143.7103 LP  0  0  0  0  0  0  0  0  0  0  0  0  # atno 17321 bound_to 7965
  140.6796  143.2320  151.5418 LP  0  0  0  0  0  0  0  0  0  0  0  0  # atno 17342 bound_to 10162
  139.5502  144.2416  152.1516 LP  0  0  0  0  0  0  0  0  0  0  0  0  # atno 17343 bound_to 10162
  157.1554  131.0331  151.2865 LP  0  0  0  0  0  0  0  0  0  0  0  0  # atno 17370 bound_to 10713
  157.4356  130.7515  149.7026 LP  0  0  0  0  0  0  0  0  0  0  0  0  # atno 17371 bound_to 10713
  140.2020  134.8890  157.3180 LP  0  0  0  0  0  0  0  0  0  0  0  0  # atno 17394 bound_to 11000
  140.2177  134.4061  155.7581 LP  0  0  0  0  0  0  0  0  0  0  0  0  # atno 17395 bound_to 11000

$$$$
