AV-unprocessed.smi:221|AV-procd|sdf|1688|dock1
  -GOLD-   2262020123D 1   1.00000     0.00000
 Structure written by MMmdl.
 50 53  0  0  0  0  0  0  0  0  1 V2000
  143.0439  133.5870  150.9160 N   0  0  0  0  0  0  0  0  0  0  0  0
  143.9787  132.6375  150.8338 C   0  0  0  0  0  0  0  0  0  0  0  0
  143.7663  131.5558  150.2885 O   0  0  0  0  0  0  0  0  0  0  0  0
  145.3522  132.9619  151.4381 C   0  0  2  0  0  0  0  0  0  0  0  0
  146.2520  131.7137  151.5192 C   0  0  0  0  0  0  0  0  0  0  0  0
  147.0910  131.9595  152.7656 C   0  0  2  0  0  0  0  0  0  0  0  0
  147.5912  130.8351  153.2774 F   0  0  0  0  0  0  0  0  0  0  0  0
  146.0901  132.6356  153.6935 C   0  0  0  0  0  0  0  0  0  0  0  0
  145.2410  133.4449  152.8213 N   0  0  0  0  0  0  0  0  0  0  0  0
  145.3087  134.7939  152.9400 C   0  0  0  0  0  0  0  0  0  0  0  0
  144.3684  135.5794  152.3505 N   0  0  0  0  0  0  0  0  0  0  0  0
  144.4162  136.9068  152.4962 C   0  0  0  0  0  0  0  0  0  0  0  0
  145.2981  137.6404  153.1783 N   0  0  0  0  0  0  0  0  0  0  0  0
  146.2407  136.8554  153.7748 C   0  0  0  0  0  0  0  0  0  0  0  0
  146.3143  135.4356  153.7123 C   0  0  0  0  0  0  0  0  0  0  0  0
  147.3982  134.9837  154.4528 N   0  0  0  0  0  0  0  0  0  0  0  0
  147.9344  136.0739  154.9288 C   0  0  0  0  0  0  0  0  0  0  0  0
  147.3214  137.2476  154.5473 N   0  0  0  0  0  0  0  0  0  0  0  0
  147.6969  138.5990  154.9384 C   0  0  0  0  0  0  0  0  0  0  0  0
  148.9877  139.1263  154.2496 C   0  0  2  0  0  0  0  0  0  0  0  0
  150.2030  138.3185  154.7632 C   0  0  0  0  0  0  0  0  0  0  0  0
  151.4152  138.9693  154.4408 O   0  0  0  0  0  0  0  0  0  0  0  0
  149.2357  140.6536  154.4514 C   0  0  2  0  0  0  0  0  0  0  0  0
  149.5794  141.1113  155.8625 C   0  0  0  0  0  0  0  0  0  0  0  0
  148.2192  141.1842  156.5478 C   0  0  0  0  0  0  0  0  0  0  0  0
  147.2930  141.4869  155.5103 O   0  0  0  0  0  0  0  0  0  0  0  0
  147.9618  141.4894  154.2528 C   0  0  0  0  0  0  0  0  0  0  0  0
  145.8526  133.7139  150.8227 H   0  0  0  0  0  0  0  0  0  0  0  0
  147.9232  132.6286  152.5432 H   0  0  0  0  0  0  0  0  0  0  0  0
  142.1226  133.4150  150.5401 H   0  0  0  0  0  0  0  0  0  0  0  0
  143.2563  134.4685  151.3600 H   0  0  0  0  0  0  0  0  0  0  0  0
  145.6578  130.8077  151.6547 H   0  0  0  0  0  0  0  0  0  0  0  0
  146.8636  131.5787  150.6268 H   0  0  0  0  0  0  0  0  0  0  0  0
  145.4532  131.8895  154.1705 H   0  0  0  0  0  0  0  0  0  0  0  0
  146.5815  133.1893  154.4947 H   0  0  0  0  0  0  0  0  0  0  0  0
  143.6354  137.4603  151.9957 H   0  0  0  0  0  0  0  0  0  0  0  0
  148.8024  136.0482  155.5712 H   0  0  0  0  0  0  0  0  0  0  0  0
  146.8651  139.2788  154.7506 H   0  0  0  0  0  0  0  0  0  0  0  0
  147.8182  138.5746  156.0215 H   0  0  0  0  0  0  0  0  0  0  0  0
  148.9185  138.9425  153.1770 H   0  0  0  0  0  0  0  0  0  0  0  0
  150.1840  138.1979  155.8447 H   0  0  0  0  0  0  0  0  0  0  0  0
  150.2067  137.3144  154.3379 H   0  0  0  0  0  0  0  0  0  0  0  0
  151.9803  138.9442  155.1980 H   0  0  0  0  0  0  0  0  0  0  0  0
  150.0186  140.9729  153.7623 H   0  0  0  0  0  0  0  0  0  0  0  0
  150.3044  140.4995  156.3900 H   0  0  0  0  0  0  0  0  0  0  0  0
  150.0057  142.1147  155.8158 H   0  0  0  0  0  0  0  0  0  0  0  0
  147.9542  140.2217  156.9863 H   0  0  0  0  0  0  0  0  0  0  0  0
  148.1936  141.9358  157.3371 H   0  0  0  0  0  0  0  0  0  0  0  0
  148.2266  142.5197  154.0102 H   0  0  0  0  0  0  0  0  0  0  0  0
  147.3012  141.1319  153.4646 H   0  0  0  0  0  0  0  0  0  0  0  0
  1  2  1  0  0  0  0
  1 30  1  0  0  0  0
  1 31  1  0  0  0  0
  2  3  2  0  0  0  0
  2  4  1  0  0  0  0
  4 28  1  0  0  0  0
  4  9  1  0  0  0  0
  4  5  1  0  0  0  0
  5  6  1  0  0  0  0
  5 32  1  0  0  0  0
  5 33  1  0  0  0  0
  6 29  1  0  0  0  0
  6  7  1  0  0  0  0
  6  8  1  0  0  0  0
  8  9  1  0  0  0  0
  8 34  1  0  0  0  0
  8 35  1  0  0  0  0
  9 10  1  0  0  0  0
 10 15  1  0  0  0  0
 10 11  2  0  0  0  0
 11 12  1  0  0  0  0
 12 13  2  0  0  0  0
 12 36  1  0  0  0  0
 13 14  1  0  0  0  0
 14 18  1  0  0  0  0
 14 15  2  0  0  0  0
 15 16  1  0  0  0  0
 16 17  2  0  0  0  0
 17 18  1  0  0  0  0
 17 37  1  0  0  0  0
 18 19  1  0  0  0  0
 19 20  1  0  0  0  0
 19 38  1  0  0  0  0
 19 39  1  0  0  0  0
 20 21  1  0  0  0  0
 20 23  1  0  0  0  0
 20 40  1  0  0  0  0
 21 22  1  0  0  0  0
 21 41  1  0  0  0  0
 21 42  1  0  0  0  0
 22 43  1  0  0  0  0
 23 27  1  0  0  0  0
 23 24  1  0  0  0  0
 23 44  1  0  0  0  0
 24 25  1  0  0  0  0
 24 45  1  0  0  0  0
 24 46  1  0  0  0  0
 25 26  1  0  0  0  0
 25 47  1  0  0  0  0
 25 48  1  0  0  0  0
 26 27  1  0  0  0  0
 27 49  1  0  0  0  0
 27 50  1  0  0  0  0
M  END
> <s_m_source_file>
AV-unprocessed.smi

> <i_m_source_file_index>
221

> <i_lp_mmshare_version>
43012

> <i_f3d_flags>
0

> <s_epik_input>
W05IMl1DKD1PKVtDQEBIXTFbQ0gyXVtDQEBIXShGKVtDSDJdTjFjKG5bY0hdbjIpYyhjMjMpbltjSF1uM1tDSDJdW0NASF0oW0NIMl1bT0hdKVtDQEBIXTRbQ0gyXVtDSDJdT1tDSDJdNA==

> <s_epik_cmdline>
J2VwaWtfcHl0aG9uJywgJy1waCcsICc3LjAnLCAnLXRuJywgJzgnLCAnLW1hJywgJzIwMCcsICctbWV0YWxfYmluZGluZycsICctaW1hZScsICc8aW5maWxlLm1hZT4nLCAnLW9tYWUnLCAnPG91dGZpbGUubWFlPic=

> <r_lp_tautomer_probability>
1

> <r_epik_Ionization_Penalty>
0.000818822

> <r_epik_Ionization_Penalty_Charging>
0

> <r_epik_Ionization_Penalty_Neutral>
0.000818822

> <r_epik_State_Penalty>
0.000440551

> <r_epik_Charging_Adjusted_Penalty>
0.000440551

> <i_epik_Tot_Q>
0

> <i_epik_Tot_abs_Q>
0

> <r_epik_Metal_State_Penalty>
-0

> <b_epik_Metal_Only>
0

> <s_lp_Force_Field>
OPLS_2005

> <r_lp_Energy>
54.2939

> <b_lp_Chiralities_Consistent>
1

> <s_lp_Variant>
AV-unprocessed.smi:221-3

> <Gold.Version>
5.8.1

> <Gold.Id.Protein>
6NUR|6NUR_protein|mol2

> <Gold.PLP.Fitness>
40.3275

> <Gold.PLP.PLP>
-31.4382

> <Gold.PLP.part.hbond>
-3.0000

> <Gold.PLP.part.metal>
0.0000

> <Gold.PLP.part.buried>
-2.6251

> <Gold.PLP.part.nonpolar>
-26.8692

> <Gold.PLP.part.repulsive>
0.7773

> <Gold.PLP.ligand.clash>
0.0000

> <Gold.PLP.ligand.torsion>
0.7593

> <Gold.PLP.Chemscore.Hbond>
2.2897

> <Gold.PLP.Chemscore.CHOScore>
0.9321

> <Gold.PLP.Chemscore.Metal>
0.0000

> <Gold.Chemscore.Hbonds>
donor molecule, donor type, donor heavy atom, donor atom, acceptor molecule, acceptor atom, score
      L1  H     1    30       P1 10186  0.66
      P1  H  7989  7998       L1    22  0.78
      P1  H 10785 10796       L1     3  0.53
      L1  C    12    36       P1 10171  0.92

> <Gold.PLP.Chemscore.Internal.Correction>
0.7423

> <Gold.Rescore>
     Score         DG    S(hbond)    S(metal)    S(lipo)     H(rot)  DE(clash)    DE(int)     intcor
      4.49     -10.02       2.00        0.00      63.26       3.72       0.71       4.82       ----

> <Gold.Chemscore.Fitness>
4.4923

> <Gold.Chemscore.DG>
-10.0232

> <Gold.Chemscore.ZeroCoef>
-5.4800

> <Gold.Chemscore.Hbond>
1.9956

> <Gold.Chemscore.Metal>
0.0000

> <Gold.Chemscore.Lipo>
63.2627

> <Gold.Chemscore.Internal_Hbond>
0.0000

> <Gold.Chemscore.DEClash>
0.7081

> <Gold.Chemscore.DEInternal>
4.8228

> <Gold.Chemscore.Rot>
3.7202

> <Gold.Chemscore.Internal.Correction>
   9.000000E+99

> <Gold.Chemscore.Hbonds>
donor molecule, donor type, donor heavy atom, donor atom, acceptor molecule, acceptor atom, score
      L1  H     1    30       P1 10186  0.65
      P1  H  7989  7998       L1    22  0.53
      P1  H 10785 10796       L1     3  0.53

> <Gold.Chemscore.Hbond.Weighted>
-6.6652

> <Gold.Chemscore.Metal.Weighted>
-0.0000

> <Gold.Chemscore.Lipo.Weighted>
-7.4017

> <Gold.Chemscore.Internal_Hbond.Weighted>
0.0000

> <Gold.Chemscore.DEClash.Weighted>
0.7081

> <Gold.Chemscore.DEInternal.Weighted>
4.8228

> <Gold.Chemscore.Rot.Weighted>
9.5237

> <Gold.Chemscore.Internal.Correction.Weighted>
   9.000000E+99

> <Gold.Protein.RotatedTorsions>
[ 6907 6896 6895 6894 ] final  -15.91 input  -60.11 | X-H torsion
[ 7974 7965 7964 7962 ] final  107.22 input  175.53 | X-H torsion
[ 8008 7997 7996 7995 ] final   24.13 input   59.86 | X-H torsion
[ 10167 10162 10161 10158 ] final   50.43 input  -65.29 | X-H torsion
[ 10718 10713 10712 10709 ] final  -59.77 input   66.30 | X-H torsion
[ 10763 10752 10751 10750 ] final  -12.21 input  -60.55 | X-H torsion
[ 11005 11000 10999 10996 ] final  -43.09 input  -57.11 | X-H torsion

> <Gold.Protein.ActiveResidues>
 VAL166  LYS551  ARG553  GLY616  TRP617  ASP618  TYR619  PRO620  LYS621  CYS622 
 ASP623  PHE694  ASN695  SER759  ASP760  ASP761  ALA762  ILE779  LEU786  VAL792 
 PHE793  MET794  SER795  GLU796  ALA797  LYS798  CYS799  TRP800  GLU811  SER814 

> <Gold.Protein.RotatedAtoms>
  151.3167  135.0808  159.9291 H   0  0  0  0  0  0  0  0  0  0  0  0  # atno 6907 bound_to 6896
  152.5266  133.9681  159.7759 H   0  0  0  0  0  0  0  0  0  0  0  0  # atno 6908 bound_to 6896
  150.9994  133.6019  159.2727 H   0  0  0  0  0  0  0  0  0  0  0  0  # atno 6909 bound_to 6896
  145.2965  139.2583  143.3837 H   0  0  0  0  0  0  0  0  0  0  0  0  # atno 7974 bound_to 7965
  154.9915  140.3114  155.4904 H   0  0  0  0  0  0  0  0  0  0  0  0  # atno 8008 bound_to 7997
  156.2939  140.2248  156.4960 H   0  0  0  0  0  0  0  0  0  0  0  0  # atno 8009 bound_to 7997
  154.7699  140.0453  157.1031 H   0  0  0  0  0  0  0  0  0  0  0  0  # atno 8010 bound_to 7997
  140.2726  144.3249  150.6286 H   0  0  0  0  0  0  0  0  0  0  0  0  # atno 10167 bound_to 10162
  156.1038  130.4183  150.0761 H   0  0  0  0  0  0  0  0  0  0  0  0  # atno 10718 bound_to 10713
  153.4952  135.7017  153.5862 H   0  0  0  0  0  0  0  0  0  0  0  0  # atno 10763 bound_to 10752
  153.4017  135.3870  155.1992 H   0  0  0  0  0  0  0  0  0  0  0  0  # atno 10764 bound_to 10752
  154.8714  135.3883  154.4416 H   0  0  0  0  0  0  0  0  0  0  0  0  # atno 10765 bound_to 10752
  141.0360  133.6799  156.2685 H   0  0  0  0  0  0  0  0  0  0  0  0  # atno 11005 bound_to 11000
  146.3167  140.3469  142.8652 LP  0  0  0  0  0  0  0  0  0  0  0  0  # atno 17320 bound_to 7965
  144.9129  140.7778  143.5796 LP  0  0  0  0  0  0  0  0  0  0  0  0  # atno 17321 bound_to 7965
  140.5877  143.2169  151.7310 LP  0  0  0  0  0  0  0  0  0  0  0  0  # atno 17342 bound_to 10162
  139.4985  144.3985  152.0206 LP  0  0  0  0  0  0  0  0  0  0  0  0  # atno 17343 bound_to 10162
  156.8742  130.9534  151.3606 LP  0  0  0  0  0  0  0  0  0  0  0  0  # atno 17370 bound_to 10713
  157.6212  130.8656  149.9112 LP  0  0  0  0  0  0  0  0  0  0  0  0  # atno 17371 bound_to 10713
  140.6321  134.5253  157.5560 LP  0  0  0  0  0  0  0  0  0  0  0  0  # atno 17394 bound_to 11000
  139.9241  134.8090  156.1121 LP  0  0  0  0  0  0  0  0  0  0  0  0  # atno 17395 bound_to 11000

$$$$
