AV-unprocessed.smi:155|AV-procd|sdf|1278|dock1
  -GOLD-   2262018543D 1   1.00000     0.00000
 Structure written by MMmdl.
 63 66  0  0  0  0  0  0  0  0  2 V2000
  145.4710  131.9159  150.1445 C   0  0  0  0  0  0  0  0  0  0  0  0
  146.4910  131.4005  151.0876 N   0  3  0  0  0  0  0  0  0  0  0  0
  146.1232  130.0626  151.6020 C   0  0  0  0  0  0  0  0  0  0  0  0
  146.8121  132.3530  152.1800 C   0  0  0  0  0  0  0  0  0  0  0  0
  148.0358  131.9040  153.0065 C   0  0  0  0  0  0  0  0  0  0  0  0
  148.0104  132.4532  154.3627 N   0  0  0  0  0  0  0  0  0  0  0  0
  149.1987  132.0813  155.1454 C   0  0  0  0  0  0  0  0  0  0  0  0
  150.4084  133.0262  154.9854 C   0  0  0  0  0  0  0  0  0  0  0  0
  150.3864  134.1915  155.9934 C   0  0  0  0  0  0  0  0  0  0  0  0
  149.3031  135.1456  155.7502 N   0  0  0  0  0  0  0  0  0  0  0  0
  149.4171  136.3868  156.2882 C   0  0  0  0  0  0  0  0  0  0  0  0
  148.3832  136.9115  156.9989 N   0  0  0  0  0  0  0  0  0  0  0  0
  148.4757  138.1385  157.5196 C   0  0  0  0  0  0  0  0  0  0  0  0
  149.4944  138.9978  157.4553 N   0  0  0  0  0  0  0  0  0  0  0  0
  150.5406  138.4731  156.7555 C   0  0  0  0  0  0  0  0  0  0  0  0
  150.5856  137.1878  156.1448 C   0  0  0  0  0  0  0  0  0  0  0  0
  151.8178  137.0002  155.5290 N   0  0  0  0  0  0  0  0  0  0  0  0
  152.4587  138.1150  155.7516 C   0  0  0  0  0  0  0  0  0  0  0  0
  151.7719  139.0493  156.4938 N   0  0  0  0  0  0  0  0  0  0  0  0
  152.2416  140.3707  156.8749 C   0  0  0  0  0  0  0  0  0  0  0  0
  152.4642  140.5398  158.3952 C   0  0  1  0  0  0  0  0  0  0  0  0
  153.5304  139.6736  158.7259 O   0  0  0  0  0  0  0  0  0  0  0  0
  152.8796  141.9575  158.8490 C   0  0  1  0  0  0  0  0  0  0  0  0
  152.0135  143.1111  158.3348 C   0  0  0  0  0  0  0  0  0  0  0  0
  152.1719  144.1935  159.3907 C   0  0  0  0  0  0  0  0  0  0  0  0
  152.7847  143.4573  160.5823 C   0  0  0  0  0  0  0  0  0  0  0  0
  152.6766  142.0815  160.2496 O   0  0  0  0  0  0  0  0  0  0  0  0
  147.9414  134.6269  155.6273 C   0  0  0  0  0  0  0  0  0  0  0  0
  147.7611  133.8960  154.2870 C   0  0  0  0  0  0  0  0  0  0  0  0
  144.5169  132.0738  150.6490 H   0  0  0  0  0  0  0  0  0  0  0  0
  145.3097  131.2070  149.3316 H   0  0  0  0  0  0  0  0  0  0  0  0
  145.7765  132.8597  149.6945 H   0  0  0  0  0  0  0  0  0  0  0  0
  145.2218  130.1136  152.2144 H   0  0  0  0  0  0  0  0  0  0  0  0
  146.9272  129.6453  152.2094 H   0  0  0  0  0  0  0  0  0  0  0  0
  145.9397  129.3692  150.7804 H   0  0  0  0  0  0  0  0  0  0  0  0
  146.9724  133.3442  151.7520 H   0  0  0  0  0  0  0  0  0  0  0  0
  145.9512  132.4395  152.8433 H   0  0  0  0  0  0  0  0  0  0  0  0
  148.1177  130.8164  153.0283 H   0  0  0  0  0  0  0  0  0  0  0  0
  148.9399  132.2679  152.5189 H   0  0  0  0  0  0  0  0  0  0  0  0
  148.9170  132.0430  156.1981 H   0  0  0  0  0  0  0  0  0  0  0  0
  149.5015  131.0635  154.9056 H   0  0  0  0  0  0  0  0  0  0  0  0
  151.3109  132.4465  155.1813 H   0  0  0  0  0  0  0  0  0  0  0  0
  150.5110  133.3869  153.9613 H   0  0  0  0  0  0  0  0  0  0  0  0
  150.3055  133.8056  157.0106 H   0  0  0  0  0  0  0  0  0  0  0  0
  151.3415  134.7152  155.9312 H   0  0  0  0  0  0  0  0  0  0  0  0
  147.6088  138.4813  158.0648 H   0  0  0  0  0  0  0  0  0  0  0  0
  153.4594  138.2849  155.3816 H   0  0  0  0  0  0  0  0  0  0  0  0
  153.1792  140.5365  156.3419 H   0  0  0  0  0  0  0  0  0  0  0  0
  151.5431  141.1235  156.5073 H   0  0  0  0  0  0  0  0  0  0  0  0
  151.5794  140.2131  158.9427 H   0  0  0  0  0  0  0  0  0  0  0  0
  153.2156  139.0431  159.3560 H   0  0  0  0  0  0  0  0  0  0  0  0
  153.9279  142.1508  158.6113 H   0  0  0  0  0  0  0  0  0  0  0  0
  152.3144  143.4546  157.3455 H   0  0  0  0  0  0  0  0  0  0  0  0
  150.9673  142.8068  158.2858 H   0  0  0  0  0  0  0  0  0  0  0  0
  152.8311  144.9932  159.0511 H   0  0  0  0  0  0  0  0  0  0  0  0
  151.2067  144.6353  159.6416 H   0  0  0  0  0  0  0  0  0  0  0  0
  153.8380  143.7185  160.6956 H   0  0  0  0  0  0  0  0  0  0  0  0
  152.2748  143.6777  161.5206 H   0  0  0  0  0  0  0  0  0  0  0  0
  147.7052  133.9786  156.4720 H   0  0  0  0  0  0  0  0  0  0  0  0
  147.2164  135.4388  155.6780 H   0  0  0  0  0  0  0  0  0  0  0  0
  148.3838  134.3631  153.5216 H   0  0  0  0  0  0  0  0  0  0  0  0
  146.7301  134.0262  153.9560 H   0  0  0  0  0  0  0  0  0  0  0  0
  147.3425  131.2714  150.5597 H   0  0  0  0  0  0  0  0  0  0  0  0
  1  2  1  0  0  0  0
  1 30  1  0  0  0  0
  1 31  1  0  0  0  0
  1 32  1  0  0  0  0
  2  3  1  0  0  0  0
  2  4  1  0  0  0  0
  2 63  1  0  0  0  0
  3 33  1  0  0  0  0
  3 34  1  0  0  0  0
  3 35  1  0  0  0  0
  4  5  1  0  0  0  0
  4 36  1  0  0  0  0
  4 37  1  0  0  0  0
  5  6  1  0  0  0  0
  5 38  1  0  0  0  0
  5 39  1  0  0  0  0
  6 29  1  0  0  0  0
  6  7  1  0  0  0  0
  7  8  1  0  0  0  0
  7 40  1  0  0  0  0
  7 41  1  0  0  0  0
  8  9  1  0  0  0  0
  8 42  1  0  0  0  0
  8 43  1  0  0  0  0
  9 10  1  0  0  0  0
  9 44  1  0  0  0  0
  9 45  1  0  0  0  0
 10 11  1  0  0  0  0
 10 28  1  0  0  0  0
 11 16  1  0  0  0  0
 11 12  2  0  0  0  0
 12 13  1  0  0  0  0
 13 14  2  0  0  0  0
 13 46  1  0  0  0  0
 14 15  1  0  0  0  0
 15 19  1  0  0  0  0
 15 16  2  0  0  0  0
 16 17  1  0  0  0  0
 17 18  2  0  0  0  0
 18 19  1  0  0  0  0
 18 47  1  0  0  0  0
 19 20  1  0  0  0  0
 20 21  1  0  0  0  0
 20 48  1  0  0  0  0
 20 49  1  0  0  0  0
 21 22  1  0  0  0  0
 21 23  1  0  0  0  0
 21 50  1  0  0  0  0
 22 51  1  0  0  0  0
 23 27  1  0  0  0  0
 23 24  1  0  0  0  0
 23 52  1  0  0  0  0
 24 25  1  0  0  0  0
 24 53  1  0  0  0  0
 24 54  1  0  0  0  0
 25 26  1  0  0  0  0
 25 55  1  0  0  0  0
 25 56  1  0  0  0  0
 26 27  1  0  0  0  0
 26 57  1  0  0  0  0
 26 58  1  0  0  0  0
 28 29  1  0  0  0  0
 28 59  1  0  0  0  0
 28 60  1  0  0  0  0
 29 61  1  0  0  0  0
 29 62  1  0  0  0  0
M  CHG  1   2   1
M  END
> <s_m_source_file>
AV-unprocessed.smi

> <i_m_source_file_index>
155

> <i_lp_mmshare_version>
43012

> <i_f3d_flags>
0

> <s_epik_input>
W0NIM11OKFtDSDNdKVtDSDJdW0NIMl1OMVtDSDJdW0NIMl1bQ0gyXU4oW0NIMl1bQ0gyXTEpYyhuW2NIXW4yKWMoYzIzKW5bY0hdbjNbQ0gyXVtDQEhdKFtPSF0pW0NAQEhdNFtDSDJdW0NIMl1bQ0gyXU80

> <s_epik_cmdline>
J2VwaWtfcHl0aG9uJywgJy1waCcsICc3LjAnLCAnLXRuJywgJzgnLCAnLW1hJywgJzIwMCcsICctbWV0YWxfYmluZGluZycsICctaW1hZScsICc8aW5maWxlLm1hZT4nLCAnLW9tYWUnLCAnPG91dGZpbGUubWFlPic=

> <r_lp_tautomer_probability>
1

> <r_epik_Ionization_Penalty>
0.0599493

> <r_epik_Ionization_Penalty_Charging>
0.00816363

> <r_epik_Ionization_Penalty_Neutral>
0.0517857

> <r_epik_State_Penalty>
0.460607

> <r_epik_Charging_Adjusted_Penalty>
0.468771

> <i_epik_Tot_Q>
1

> <i_epik_Tot_abs_Q>
1

> <r_epik_Metal_State_Penalty>
0.45965

> <b_epik_Metal_Only>
0

> <s_lp_Force_Field>
OPLS_2005

> <r_lp_Energy>
60.0635

> <b_lp_Chiralities_Consistent>
1

> <s_lp_Variant>
AV-unprocessed.smi:155-12

> <Gold.Version>
5.8.1

> <Gold.Id.Protein>
6NUR|6NUR_protein|mol2

> <Gold.PLP.Fitness>
48.3730

> <Gold.PLP.PLP>
-40.3844

> <Gold.PLP.part.hbond>
-3.0000

> <Gold.PLP.part.metal>
0.0000

> <Gold.PLP.part.buried>
-5.3371

> <Gold.PLP.part.nonpolar>
-31.4119

> <Gold.PLP.part.repulsive>
0.1227

> <Gold.PLP.ligand.clash>
0.0000

> <Gold.PLP.ligand.torsion>
0.9922

> <Gold.PLP.Chemscore.Hbond>
2.9750

> <Gold.PLP.Chemscore.CHOScore>
0.0000

> <Gold.PLP.Chemscore.Metal>
0.0000

> <Gold.Chemscore.Hbonds>
donor molecule, donor type, donor heavy atom, donor atom, acceptor molecule, acceptor atom, score
      L1  H     2    63       P1 10747  1.00
      P1  H  7997  8008       L1    22  1.00
      P1  H 10752 10763       L1    17  1.00

> <Gold.PLP.Chemscore.Internal.Correction>
1.0481

> <Gold.Rescore>
     Score         DG    S(hbond)    S(metal)    S(lipo)     H(rot)  DE(clash)    DE(int)     intcor
     19.85     -20.90       2.67        0.00     114.80       2.71       0.05       0.99       ----

> <Gold.Chemscore.Fitness>
19.8500

> <Gold.Chemscore.DG>
-20.8969

> <Gold.Chemscore.ZeroCoef>
-5.4800

> <Gold.Chemscore.Hbond>
2.6699

> <Gold.Chemscore.Metal>
0.0000

> <Gold.Chemscore.Lipo>
114.8039

> <Gold.Chemscore.Internal_Hbond>
0.0000

> <Gold.Chemscore.DEClash>
0.0525

> <Gold.Chemscore.DEInternal>
0.9944

> <Gold.Chemscore.Rot>
2.7080

> <Gold.Chemscore.Internal.Correction>
   9.000000E+99

> <Gold.Chemscore.Hbonds>
donor molecule, donor type, donor heavy atom, donor atom, acceptor molecule, acceptor atom, score
      L1  H     2    63       P1 10747  0.99
      P1  H  7997  8008       L1    22  0.28
      P1  H 10752 10763       L1    17  0.80

> <Gold.Chemscore.Hbond.Weighted>
-8.9174

> <Gold.Chemscore.Metal.Weighted>
-0.0000

> <Gold.Chemscore.Lipo.Weighted>
-13.4321

> <Gold.Chemscore.Internal_Hbond.Weighted>
0.0000

> <Gold.Chemscore.DEClash.Weighted>
0.0525

> <Gold.Chemscore.DEInternal.Weighted>
0.9944

> <Gold.Chemscore.Rot.Weighted>
6.9326

> <Gold.Chemscore.Internal.Correction.Weighted>
   9.000000E+99

> <Gold.Protein.RotatedTorsions>
[ 6907 6896 6895 6894 ] final  -43.24 input  -60.11 | X-H torsion
[ 7974 7965 7964 7962 ] final -146.40 input  175.53 | X-H torsion
[ 8008 7997 7996 7995 ] final -101.90 input   59.86 | X-H torsion
[ 10167 10162 10161 10158 ] final -129.92 input  -65.29 | X-H torsion
[ 10718 10713 10712 10709 ] final  141.69 input   66.30 | X-H torsion
[ 10763 10752 10751 10750 ] final   67.07 input  -60.55 | X-H torsion
[ 11005 11000 10999 10996 ] final  171.10 input  -57.11 | X-H torsion

> <Gold.Protein.ActiveResidues>
 VAL166  LYS551  ARG553  GLY616  TRP617  ASP618  TYR619  PRO620  LYS621  CYS622 
 ASP623  PHE694  ASN695  SER759  ASP760  ASP761  ALA762  ILE779  LEU786  VAL792 
 PHE793  MET794  SER795  GLU796  ALA797  LYS798  CYS799  TRP800  GLU811  SER814 

> <Gold.Protein.RotatedAtoms>
  150.9462  134.8866  159.7642 H   0  0  0  0  0  0  0  0  0  0  0  0  # atno 6907 bound_to 6896
  152.5101  134.3872  159.9381 H   0  0  0  0  0  0  0  0  0  0  0  0  # atno 6908 bound_to 6896
  151.3890  133.3755  159.2753 H   0  0  0  0  0  0  0  0  0  0  0  0  # atno 6909 bound_to 6896
  144.8162  140.5461  143.5609 H   0  0  0  0  0  0  0  0  0  0  0  0  # atno 7974 bound_to 7965
  154.8491  140.0431  157.1592 H   0  0  0  0  0  0  0  0  0  0  0  0  # atno 8008 bound_to 7997
  154.8962  140.2993  155.5322 H   0  0  0  0  0  0  0  0  0  0  0  0  # atno 8009 bound_to 7997
  156.2995  140.2384  156.3984 H   0  0  0  0  0  0  0  0  0  0  0  0  # atno 8010 bound_to 7997
  139.9347  143.6232  152.2520 H   0  0  0  0  0  0  0  0  0  0  0  0  # atno 10167 bound_to 10162
  157.3891  131.1002  151.0664 H   0  0  0  0  0  0  0  0  0  0  0  0  # atno 10718 bound_to 10713
  153.0169  135.5297  154.6922 H   0  0  0  0  0  0  0  0  0  0  0  0  # atno 10763 bound_to 10752
  154.6053  135.2872  155.0493 H   0  0  0  0  0  0  0  0  0  0  0  0  # atno 10764 bound_to 10752
  154.1535  135.6559  153.5021 H   0  0  0  0  0  0  0  0  0  0  0  0  # atno 10765 bound_to 10752
  140.3154  134.7481  157.4024 H   0  0  0  0  0  0  0  0  0  0  0  0  # atno 11005 bound_to 11000
  145.5209  139.1477  143.3553 LP  0  0  0  0  0  0  0  0  0  0  0  0  # atno 17320 bound_to 7965
  146.2465  140.5350  142.8911 LP  0  0  0  0  0  0  0  0  0  0  0  0  # atno 17321 bound_to 7965
  139.6753  144.7659  151.1707 LP  0  0  0  0  0  0  0  0  0  0  0  0  # atno 17342 bound_to 10162
  140.7628  143.5804  150.8901 LP  0  0  0  0  0  0  0  0  0  0  0  0  # atno 17343 bound_to 10162
  157.1704  130.6265  149.5639 LP  0  0  0  0  0  0  0  0  0  0  0  0  # atno 17370 bound_to 10713
  155.9794  130.4787  150.6712 LP  0  0  0  0  0  0  0  0  0  0  0  0  # atno 17371 bound_to 10713
  140.0988  134.5501  155.8373 LP  0  0  0  0  0  0  0  0  0  0  0  0  # atno 17394 bound_to 11000
  141.2099  133.6688  156.6469 LP  0  0  0  0  0  0  0  0  0  0  0  0  # atno 17395 bound_to 11000

$$$$
