AV-unprocessed.smi:910|AV-procd|sdf|4124|dock8
  -GOLD-   22720 2 23D 1   1.00000     0.00000
 Structure written by MMmdl.
 46 47  0  0  0  0  0  0  0  0  1 V2000
  153.2726  136.2292  162.9410 C   0  0  0  0  0  0  0  0  0  0  0  0
  153.3145  135.6842  161.5303 C   0  0  0  0  0  0  0  0  0  0  0  0
  153.3885  136.5031  160.4377 N   0  0  0  0  0  0  0  0  0  0  0  0
  153.4111  135.7060  159.2955 C   0  0  0  0  0  0  0  0  0  0  0  0
  153.4783  135.9785  158.0283 N   0  0  0  0  0  0  0  0  0  0  0  0
  153.5240  137.2992  157.6054 C   0  0  0  0  0  0  0  0  0  0  0  0
  154.2031  138.2265  158.0577 O   0  0  0  0  0  0  0  0  0  0  0  0
  152.7028  137.4761  156.5597 N   0  0  0  0  0  0  0  0  0  0  0  0
  152.5075  138.7272  155.8337 C   0  0  0  0  0  0  0  0  0  0  0  0
  151.6902  139.7386  156.6501 C   0  0  0  0  0  0  0  0  0  0  0  0
  152.4013  140.0481  157.8396 O   0  0  0  0  0  0  0  0  0  0  0  0
  151.7366  140.9596  158.7048 C   0  0  2  0  0  0  0  0  0  0  0  0
  151.2867  142.1972  157.9005 C   0  0  0  0  0  0  0  0  0  0  0  0
  150.6892  143.2779  158.8134 C   0  0  0  0  0  0  0  0  0  0  0  0
  151.6771  143.6723  159.9202 C   0  0  0  0  0  0  0  0  0  0  0  0
  152.1183  142.4430  160.7292 C   0  0  0  0  0  0  0  0  0  0  0  0
  152.7254  141.3506  159.8259 C   0  0  1  0  0  0  0  0  0  0  0  0
  153.1511  140.1302  160.6597 C   0  0  0  0  0  0  0  0  0  0  0  0
  153.3495  134.4074  159.7349 O   0  0  0  0  0  0  0  0  0  0  0  0
  153.2901  134.4270  161.0959 C   0  0  0  0  0  0  0  0  0  0  0  0
  153.2137  133.1130  161.8400 C   0  0  0  0  0  0  0  0  0  0  0  0
  154.1267  135.8639  163.5114 H   0  0  0  0  0  0  0  0  0  0  0  0
  152.3601  135.9069  163.4428 H   0  0  0  0  0  0  0  0  0  0  0  0
  153.2996  137.3192  162.9414 H   0  0  0  0  0  0  0  0  0  0  0  0
  153.4180  137.5108  160.4956 H   0  0  0  0  0  0  0  0  0  0  0  0
  152.1817  136.6761  156.2312 H   0  0  0  0  0  0  0  0  0  0  0  0
  153.4867  139.1454  155.5993 H   0  0  0  0  0  0  0  0  0  0  0  0
  152.0183  138.5295  154.8787 H   0  0  0  0  0  0  0  0  0  0  0  0
  151.5298  140.6404  156.0596 H   0  0  0  0  0  0  0  0  0  0  0  0
  150.7080  139.3274  156.8873 H   0  0  0  0  0  0  0  0  0  0  0  0
  150.8676  140.4845  159.1644 H   0  0  0  0  0  0  0  0  0  0  0  0
  152.1396  142.6109  157.3608 H   0  0  0  0  0  0  0  0  0  0  0  0
  150.5516  141.9172  157.1464 H   0  0  0  0  0  0  0  0  0  0  0  0
  150.4206  144.1552  158.2243 H   0  0  0  0  0  0  0  0  0  0  0  0
  149.7648  142.9097  159.2605 H   0  0  0  0  0  0  0  0  0  0  0  0
  152.5510  144.1524  159.4779 H   0  0  0  0  0  0  0  0  0  0  0  0
  151.2203  144.4090  160.5815 H   0  0  0  0  0  0  0  0  0  0  0  0
  152.8426  142.7465  161.4857 H   0  0  0  0  0  0  0  0  0  0  0  0
  151.2606  142.0396  161.2693 H   0  0  0  0  0  0  0  0  0  0  0  0
  153.6216  141.7622  159.3590 H   0  0  0  0  0  0  0  0  0  0  0  0
  152.2956  139.6705  161.1552 H   0  0  0  0  0  0  0  0  0  0  0  0
  153.8694  140.4136  161.4294 H   0  0  0  0  0  0  0  0  0  0  0  0
  153.6233  139.3678  160.0393 H   0  0  0  0  0  0  0  0  0  0  0  0
  152.5237  133.1904  162.6804 H   0  0  0  0  0  0  0  0  0  0  0  0
  154.1970  132.8386  162.2223 H   0  0  0  0  0  0  0  0  0  0  0  0
  152.8643  132.3192  161.1794 H   0  0  0  0  0  0  0  0  0  0  0  0
  1 22  1  0  0  0  0
  1 23  1  0  0  0  0
  1 24  1  0  0  0  0
  1  2  1  0  0  0  0
  2  3  1  0  0  0  0
  2 20  2  0  0  0  0
  3 25  1  0  0  0  0
  3  4  1  0  0  0  0
  4 19  1  0  0  0  0
  4  5  2  0  0  0  0
  5  6  1  0  0  0  0
  6  8  1  0  0  0  0
  6  7  2  0  0  0  0
  8  9  1  0  0  0  0
  8 26  1  0  0  0  0
  9 10  1  0  0  0  0
  9 27  1  0  0  0  0
  9 28  1  0  0  0  0
 10 11  1  0  0  0  0
 10 29  1  0  0  0  0
 10 30  1  0  0  0  0
 11 12  1  0  0  0  0
 12 17  1  0  0  0  0
 12 13  1  0  0  0  0
 12 31  1  0  0  0  0
 13 14  1  0  0  0  0
 13 32  1  0  0  0  0
 13 33  1  0  0  0  0
 14 15  1  0  0  0  0
 14 34  1  0  0  0  0
 14 35  1  0  0  0  0
 15 16  1  0  0  0  0
 15 36  1  0  0  0  0
 15 37  1  0  0  0  0
 16 17  1  0  0  0  0
 16 38  1  0  0  0  0
 16 39  1  0  0  0  0
 17 18  1  0  0  0  0
 17 40  1  0  0  0  0
 18 41  1  0  0  0  0
 18 42  1  0  0  0  0
 18 43  1  0  0  0  0
 19 20  1  0  0  0  0
 20 21  1  0  0  0  0
 21 44  1  0  0  0  0
 21 45  1  0  0  0  0
 21 46  1  0  0  0  0
M  END
> <s_m_source_file>
AV-unprocessed.smi

> <i_m_source_file_index>
910

> <i_lp_mmshare_version>
43012

> <i_f3d_flags>
0

> <s_epik_input>
W0NIM11jMW5jKG9jMVtDSDNdKVtOSF1DKD1PKVtOSF1bQ0gyXVtDSDJdT1tDQEBIXTJbQ0gyXVtDSDJdW0NIMl1bQ0gyXVtDQEhdMltDSDNd

> <s_epik_cmdline>
J2VwaWtfcHl0aG9uJywgJy1waCcsICc3LjAnLCAnLXRuJywgJzgnLCAnLW1hJywgJzIwMCcsICctbWV0YWxfYmluZGluZycsICctaW1hZScsICc8aW5maWxlLm1hZT4nLCAnLW9tYWUnLCAnPG91dGZpbGUubWFlPic=

> <r_lp_tautomer_probability>
0.107061

> <r_epik_Ionization_Penalty>
0.727192

> <r_epik_Ionization_Penalty_Charging>
0.726719

> <r_epik_Ionization_Penalty_Neutral>
0.000473387

> <r_epik_State_Penalty>
2.53712

> <r_epik_Charging_Adjusted_Penalty>
3.26383

> <i_epik_Tot_Q>
0

> <i_epik_Tot_abs_Q>
0

> <r_epik_Metal_State_Penalty>
3.71015

> <b_epik_Metal_Only>
0

> <s_lp_Force_Field>
OPLS_2005

> <r_lp_Energy>
31.238

> <b_lp_Chiralities_Consistent>
1

> <s_lp_Variant>
AV-unprocessed.smi:910-9

> <Gold.Version>
5.8.1

> <Gold.Id.Protein>
6NUR|6NUR_protein|mol2

> <Gold.PLP.Fitness>
41.3192

> <Gold.PLP.PLP>
-36.2844

> <Gold.PLP.part.hbond>
-2.6727

> <Gold.PLP.part.metal>
0.0000

> <Gold.PLP.part.buried>
-4.1361

> <Gold.PLP.part.nonpolar>
-30.4994

> <Gold.PLP.part.repulsive>
0.1910

> <Gold.PLP.ligand.clash>
0.0000

> <Gold.PLP.ligand.torsion>
0.4858

> <Gold.PLP.Chemscore.Hbond>
1.9913

> <Gold.PLP.Chemscore.CHOScore>
0.0000

> <Gold.PLP.Chemscore.Metal>
0.0000

> <Gold.Chemscore.Hbonds>
donor molecule, donor type, donor heavy atom, donor atom, acceptor molecule, acceptor atom, score
      P1  H  7997  8009       L1     7  0.30

> <Gold.PLP.Chemscore.Internal.Correction>
0.0326

> <Gold.Rescore>
     Score         DG    S(hbond)    S(metal)    S(lipo)     H(rot)  DE(clash)    DE(int)     intcor
     15.59     -18.37       1.62        0.00     100.20       1.66       0.05       2.73       ----

> <Gold.Chemscore.Fitness>
15.5914

> <Gold.Chemscore.DG>
-18.3690

> <Gold.Chemscore.ZeroCoef>
-5.4800

> <Gold.Chemscore.Hbond>
1.6197

> <Gold.Chemscore.Metal>
0.0000

> <Gold.Chemscore.Lipo>
100.1956

> <Gold.Chemscore.Internal_Hbond>
0.0000

> <Gold.Chemscore.DEClash>
0.0504

> <Gold.Chemscore.DEInternal>
2.7271

> <Gold.Chemscore.Rot>
1.6576

> <Gold.Chemscore.Internal.Correction>
   9.000000E+99

> <Gold.Chemscore.Hbonds>
donor molecule, donor type, donor heavy atom, donor atom, acceptor molecule, acceptor atom, score
      P1  H  7997  8009       L1     7  0.28

> <Gold.Chemscore.Hbond.Weighted>
-5.4097

> <Gold.Chemscore.Metal.Weighted>
-0.0000

> <Gold.Chemscore.Lipo.Weighted>
-11.7229

> <Gold.Chemscore.Internal_Hbond.Weighted>
0.0000

> <Gold.Chemscore.DEClash.Weighted>
0.0504

> <Gold.Chemscore.DEInternal.Weighted>
2.7271

> <Gold.Chemscore.Rot.Weighted>
4.2436

> <Gold.Chemscore.Internal.Correction.Weighted>
   9.000000E+99

> <Gold.Protein.RotatedTorsions>
[ 6907 6896 6895 6894 ] final   84.23 input  -60.11 | X-H torsion
[ 7974 7965 7964 7962 ] final  -36.44 input  175.53 | X-H torsion
[ 8008 7997 7996 7995 ] final  172.74 input   59.86 | X-H torsion
[ 10167 10162 10161 10158 ] final   -5.92 input  -65.29 | X-H torsion
[ 10718 10713 10712 10709 ] final   83.95 input   66.30 | X-H torsion
[ 10763 10752 10751 10750 ] final  -24.28 input  -60.55 | X-H torsion
[ 11005 11000 10999 10996 ] final  164.64 input  -57.11 | X-H torsion

> <Gold.Protein.ActiveResidues>
 VAL166  LYS551  ARG553  GLY616  TRP617  ASP618  TYR619  PRO620  LYS621  CYS622 
 ASP623  PHE694  ASN695  SER759  ASP760  ASP761  ALA762  ILE779  LEU786  VAL792 
 PHE793  MET794  SER795  GLU796  ALA797  LYS798  CYS799  TRP800  GLU811  SER814 

> <Gold.Protein.RotatedAtoms>
  152.5347  134.2773  159.8993 H   0  0  0  0  0  0  0  0  0  0  0  0  # atno 6907 bound_to 6896
  151.2728  133.4240  159.2630 H   0  0  0  0  0  0  0  0  0  0  0  0  # atno 6908 bound_to 6896
  151.0352  134.9583  159.8189 H   0  0  0  0  0  0  0  0  0  0  0  0  # atno 6909 bound_to 6896
  146.0661  140.6278  142.8974 H   0  0  0  0  0  0  0  0  0  0  0  0  # atno 7974 bound_to 7965
  156.1144  140.1478  156.9293 H   0  0  0  0  0  0  0  0  0  0  0  0  # atno 8008 bound_to 7997
  154.4790  140.0885  156.7374 H   0  0  0  0  0  0  0  0  0  0  0  0  # atno 8009 bound_to 7997
  155.4539  140.3436  155.4306 H   0  0  0  0  0  0  0  0  0  0  0  0  # atno 8010 bound_to 7997
  140.6979  143.6254  150.8573 H   0  0  0  0  0  0  0  0  0  0  0  0  # atno 10167 bound_to 10162
  157.6889  131.0113  150.2600 H   0  0  0  0  0  0  0  0  0  0  0  0  # atno 10718 bound_to 10713
  153.6813  135.6966  153.5117 H   0  0  0  0  0  0  0  0  0  0  0  0  # atno 10763 bound_to 10752
  153.2483  135.4283  155.0770 H   0  0  0  0  0  0  0  0  0  0  0  0  # atno 10764 bound_to 10752
  154.8399  135.3525  154.6356 H   0  0  0  0  0  0  0  0  0  0  0  0  # atno 10765 bound_to 10752
  140.2480  134.7999  157.3474 H   0  0  0  0  0  0  0  0  0  0  0  0  # atno 11005 bound_to 11000
  144.7203  140.4352  143.7013 LP  0  0  0  0  0  0  0  0  0  0  0  0  # atno 17320 bound_to 7965
  145.6474  139.1559  143.2881 LP  0  0  0  0  0  0  0  0  0  0  0  0  # atno 17321 bound_to 7965
  139.9973  143.5782  152.2888 LP  0  0  0  0  0  0  0  0  0  0  0  0  # atno 17342 bound_to 10162
  139.6459  144.7658  151.2246 LP  0  0  0  0  0  0  0  0  0  0  0  0  # atno 17343 bound_to 10162
  156.3181  130.3782  149.7600 LP  0  0  0  0  0  0  0  0  0  0  0  0  # atno 17370 bound_to 10713
  156.5178  130.8201  151.3193 LP  0  0  0  0  0  0  0  0  0  0  0  0  # atno 17371 bound_to 10713
  140.1587  134.4757  155.7910 LP  0  0  0  0  0  0  0  0  0  0  0  0  # atno 17394 bound_to 11000
  141.2204  133.6892  156.7506 LP  0  0  0  0  0  0  0  0  0  0  0  0  # atno 17395 bound_to 11000

$$$$
