AV-unprocessed.smi:2355|AV-procd|sdf|9391|dock10
  -GOLD-   2272013 23D 1   1.00000     0.00000
 Structure written by MMmdl.
 49 50  0  0  0  0  0  0  0  0  2 V2000
  151.7519  145.9277  160.1548 C   0  0  0  0  0  0  0  0  0  0  0  0
  151.7775  144.4931  159.6709 C   0  0  0  0  0  0  0  0  0  0  0  0
  152.6513  143.5518  160.2476 C   0  0  0  0  0  0  0  0  0  0  0  0
  152.6281  142.2330  159.7531 C   0  0  0  0  0  0  0  0  0  0  0  0
  153.5444  141.1717  160.3242 C   0  0  0  0  0  0  0  0  0  0  0  0
  151.8107  141.8346  158.7549 N   0  0  0  0  0  0  0  0  0  0  0  0
  150.9649  142.7325  158.1917 C   0  0  0  0  0  0  0  0  0  0  0  0
  150.0675  142.4143  157.1374 N   0  0  0  0  0  0  0  0  0  0  0  0
  149.5857  141.2066  156.7944 C   0  0  0  0  0  0  0  0  0  0  0  0
  149.8570  140.1439  157.3545 O   0  0  0  0  0  0  0  0  0  0  0  0
  148.7509  141.2937  155.7480 N   0  0  0  0  0  0  0  0  0  0  0  0
  148.0577  140.1651  155.1277 C   0  0  2  0  0  0  0  0  0  0  0  0
  149.0966  139.2732  154.4254 C   0  0  0  0  0  0  0  0  0  0  0  0
  146.9087  140.6393  154.1831 C   0  0  1  0  0  0  0  0  0  0  0  0
  147.4261  141.6435  153.1215 C   0  0  0  0  0  0  0  0  0  0  0  0
  146.1673  139.4729  153.5968 N   0  3  0  0  0  0  0  0  0  0  0  0
  146.8818  138.8570  152.4447 C   0  0  0  0  0  0  0  0  0  0  0  0
  146.0609  137.7154  151.8236 C   0  0  0  0  0  0  0  0  0  0  0  0
  145.7790  136.7386  152.8143 O   0  0  0  0  0  0  0  0  0  0  0  0
  145.0006  137.2810  153.8700 C   0  0  0  0  0  0  0  0  0  0  0  0
  145.7788  138.4106  154.5659 C   0  0  0  0  0  0  0  0  0  0  0  0
  150.9233  144.0753  158.6302 C   0  0  0  0  0  0  0  0  0  0  0  0
  152.5093  146.1013  160.9198 H   0  0  0  0  0  0  0  0  0  0  0  0
  150.7768  146.1656  160.5801 H   0  0  0  0  0  0  0  0  0  0  0  0
  151.9424  146.6102  159.3262 H   0  0  0  0  0  0  0  0  0  0  0  0
  153.3218  143.8325  161.0467 H   0  0  0  0  0  0  0  0  0  0  0  0
  154.0174  141.5132  161.2455 H   0  0  0  0  0  0  0  0  0  0  0  0
  154.3287  140.9264  159.6076 H   0  0  0  0  0  0  0  0  0  0  0  0
  152.9852  140.2626  160.5475 H   0  0  0  0  0  0  0  0  0  0  0  0
  149.7572  143.1977  156.5822 H   0  0  0  0  0  0  0  0  0  0  0  0
  148.5851  142.2055  155.3473 H   0  0  0  0  0  0  0  0  0  0  0  0
  147.6438  139.5788  155.9471 H   0  0  0  0  0  0  0  0  0  0  0  0
  148.6352  138.3844  153.9948 H   0  0  0  0  0  0  0  0  0  0  0  0
  149.8551  138.9319  155.1308 H   0  0  0  0  0  0  0  0  0  0  0  0
  149.6125  139.8035  153.6248 H   0  0  0  0  0  0  0  0  0  0  0  0
  146.1855  141.1930  154.7840 H   0  0  0  0  0  0  0  0  0  0  0  0
  147.9963  142.4546  153.5736 H   0  0  0  0  0  0  0  0  0  0  0  0
  146.6074  142.1247  152.5865 H   0  0  0  0  0  0  0  0  0  0  0  0
  148.0704  141.1612  152.3863 H   0  0  0  0  0  0  0  0  0  0  0  0
  147.0823  139.5903  151.6666 H   0  0  0  0  0  0  0  0  0  0  0  0
  147.8487  138.4756  152.7768 H   0  0  0  0  0  0  0  0  0  0  0  0
  145.1346  138.0917  151.3865 H   0  0  0  0  0  0  0  0  0  0  0  0
  146.6242  137.2451  151.0174 H   0  0  0  0  0  0  0  0  0  0  0  0
  144.0460  137.6444  153.4857 H   0  0  0  0  0  0  0  0  0  0  0  0
  144.7737  136.4882  154.5832 H   0  0  0  0  0  0  0  0  0  0  0  0
  146.6715  138.0084  155.0477 H   0  0  0  0  0  0  0  0  0  0  0  0
  145.1363  138.8130  155.3484 H   0  0  0  0  0  0  0  0  0  0  0  0
  150.2445  144.7813  158.1736 H   0  0  0  0  0  0  0  0  0  0  0  0
  145.2998  139.8451  153.2375 H   0  0  0  0  0  0  0  0  0  0  0  0
  1  2  1  0  0  0  0
  1 23  1  0  0  0  0
  1 24  1  0  0  0  0
  1 25  1  0  0  0  0
  2 22  1  0  0  0  0
  2  3  2  0  0  0  0
  3  4  1  0  0  0  0
  3 26  1  0  0  0  0
  4  5  1  0  0  0  0
  4  6  2  0  0  0  0
  5 27  1  0  0  0  0
  5 28  1  0  0  0  0
  5 29  1  0  0  0  0
  6  7  1  0  0  0  0
  7  8  1  0  0  0  0
  7 22  2  0  0  0  0
  8  9  1  0  0  0  0
  8 30  1  0  0  0  0
  9 10  2  0  0  0  0
  9 11  1  0  0  0  0
 11 12  1  0  0  0  0
 11 31  1  0  0  0  0
 12 13  1  0  0  0  0
 12 14  1  0  0  0  0
 12 32  1  0  0  0  0
 13 33  1  0  0  0  0
 13 34  1  0  0  0  0
 13 35  1  0  0  0  0
 14 15  1  0  0  0  0
 14 16  1  0  0  0  0
 14 36  1  0  0  0  0
 15 37  1  0  0  0  0
 15 38  1  0  0  0  0
 15 39  1  0  0  0  0
 16 21  1  0  0  0  0
 16 17  1  0  0  0  0
 16 49  1  0  0  0  0
 17 18  1  0  0  0  0
 17 40  1  0  0  0  0
 17 41  1  0  0  0  0
 18 19  1  0  0  0  0
 18 42  1  0  0  0  0
 18 43  1  0  0  0  0
 19 20  1  0  0  0  0
 20 21  1  0  0  0  0
 20 44  1  0  0  0  0
 20 45  1  0  0  0  0
 21 46  1  0  0  0  0
 21 47  1  0  0  0  0
 22 48  1  0  0  0  0
M  CHG  1  16   1
M  END
> <s_m_source_file>
AV-unprocessed.smi

> <i_m_source_file_index>
2355

> <i_lp_mmshare_version>
43012

> <i_f3d_flags>
0

> <s_epik_input>
W0NIM11jMVtjSF1jKFtDSDNdKW5jKFtjSF0xKVtOSF1DKD1PKVtOSF1bQ0BIXShbQ0gzXSlbQ0BIXShbQ0gzXSlOMltDSDJdW0NIMl1PW0NIMl1bQ0gyXTI=

> <s_epik_cmdline>
J2VwaWtfcHl0aG9uJywgJy1waCcsICc3LjAnLCAnLXRuJywgJzgnLCAnLW1hJywgJzIwMCcsICctbWV0YWxfYmluZGluZycsICctaW1hZScsICc8aW5maWxlLm1hZT4nLCAnLW9tYWUnLCAnPG91dGZpbGUubWFlPic=

> <r_epik_Ionization_Penalty>
0.602711

> <r_epik_Ionization_Penalty_Charging>
0.602531

> <r_epik_Ionization_Penalty_Neutral>
0.000180055

> <r_epik_State_Penalty>
0.617039

> <r_epik_Charging_Adjusted_Penalty>
1.21957

> <i_epik_Tot_Q>
1

> <i_epik_Tot_abs_Q>
1

> <r_epik_Metal_State_Penalty>
0.617075

> <b_epik_Metal_Only>
0

> <s_lp_Force_Field>
OPLS_2005

> <r_lp_Energy>
24.3328

> <b_lp_Chiralities_Consistent>
1

> <s_lp_Variant>
AV-unprocessed.smi:2355-7

> <Gold.Version>
5.8.1

> <Gold.Id.Protein>
6NUR|6NUR_protein|mol2

> <Gold.PLP.Fitness>
47.7435

> <Gold.PLP.PLP>
-39.5157

> <Gold.PLP.part.hbond>
-2.0000

> <Gold.PLP.part.metal>
0.0000

> <Gold.PLP.part.buried>
-4.9000

> <Gold.PLP.part.nonpolar>
-33.7388

> <Gold.PLP.part.repulsive>
0.2545

> <Gold.PLP.ligand.clash>
0.0000

> <Gold.PLP.ligand.torsion>
0.4429

> <Gold.PLP.Chemscore.Hbond>
3.0000

> <Gold.PLP.Chemscore.CHOScore>
0.0000

> <Gold.PLP.Chemscore.Metal>
0.0000

> <Gold.Chemscore.Hbonds>
donor molecule, donor type, donor heavy atom, donor atom, acceptor molecule, acceptor atom, score
      L1  H     8    30       P1  8028  1.00
      L1  H    16    49       P1 10175  2.00

> <Gold.PLP.Chemscore.Internal.Correction>
0.1136

> <Gold.Rescore>
     Score         DG    S(hbond)    S(metal)    S(lipo)     H(rot)  DE(clash)    DE(int)     intcor
     19.35     -24.30       2.74        0.00     114.24       1.45       2.20       2.75       ----

> <Gold.Chemscore.Fitness>
19.3487

> <Gold.Chemscore.DG>
-24.2957

> <Gold.Chemscore.ZeroCoef>
-5.4800

> <Gold.Chemscore.Hbond>
2.7399

> <Gold.Chemscore.Metal>
0.0000

> <Gold.Chemscore.Lipo>
114.2443

> <Gold.Chemscore.Internal_Hbond>
0.0000

> <Gold.Chemscore.DEClash>
2.2008

> <Gold.Chemscore.DEInternal>
2.7462

> <Gold.Chemscore.Rot>
1.4462

> <Gold.Chemscore.Internal.Correction>
   9.000000E+99

> <Gold.Chemscore.Hbonds>
donor molecule, donor type, donor heavy atom, donor atom, acceptor molecule, acceptor atom, score
      L1  H     8    30       P1  8028  0.98
      L1  H    16    49       P1 10175  1.00

> <Gold.Chemscore.Hbond.Weighted>
-9.1514

> <Gold.Chemscore.Metal.Weighted>
-0.0000

> <Gold.Chemscore.Lipo.Weighted>
-13.3666

> <Gold.Chemscore.Internal_Hbond.Weighted>
0.0000

> <Gold.Chemscore.DEClash.Weighted>
2.2008

> <Gold.Chemscore.DEInternal.Weighted>
2.7462

> <Gold.Chemscore.Rot.Weighted>
3.7023

> <Gold.Chemscore.Internal.Correction.Weighted>
   9.000000E+99

> <Gold.Protein.RotatedTorsions>
[ 6907 6896 6895 6894 ] final  -52.46 input  -60.11 | X-H torsion
[ 7974 7965 7964 7962 ] final  158.08 input  175.53 | X-H torsion
[ 8008 7997 7996 7995 ] final  -87.48 input   59.86 | X-H torsion
[ 10167 10162 10161 10158 ] final  -49.95 input  -65.29 | X-H torsion
[ 10718 10713 10712 10709 ] final   66.02 input   66.30 | X-H torsion
[ 10763 10752 10751 10750 ] final  -72.28 input  -60.55 | X-H torsion
[ 11005 11000 10999 10996 ] final  -94.11 input  -57.11 | X-H torsion

> <Gold.Protein.ActiveResidues>
 VAL166  LYS551  ARG553  GLY616  TRP617  ASP618  TYR619  PRO620  LYS621  CYS622 
 ASP623  PHE694  ASN695  SER759  ASP760  ASP761  ALA762  ILE779  LEU786  VAL792 
 PHE793  MET794  SER795  GLU796  ALA797  LYS798  CYS799  TRP800  GLU811  SER814 

> <Gold.Protein.RotatedAtoms>
  150.8516  134.7843  159.7012 H   0  0  0  0  0  0  0  0  0  0  0  0  # atno 6907 bound_to 6896
  152.4579  134.5246  159.9803 H   0  0  0  0  0  0  0  0  0  0  0  0  # atno 6908 bound_to 6896
  151.5366  133.3402  159.2963 H   0  0  0  0  0  0  0  0  0  0  0  0  # atno 6909 bound_to 6896
  144.7866  139.7429  143.6238 H   0  0  0  0  0  0  0  0  0  0  0  0  # atno 7974 bound_to 7965
  154.6638  140.0565  157.0091 H   0  0  0  0  0  0  0  0  0  0  0  0  # atno 8008 bound_to 7997
  155.1189  140.3245  155.4483 H   0  0  0  0  0  0  0  0  0  0  0  0  # atno 8009 bound_to 7997
  156.2629  140.2001  156.6312 H   0  0  0  0  0  0  0  0  0  0  0  0  # atno 8010 bound_to 7997
  140.6661  143.2677  151.4288 H   0  0  0  0  0  0  0  0  0  0  0  0  # atno 10167 bound_to 10162
  157.6143  130.9245  150.0054 H   0  0  0  0  0  0  0  0  0  0  0  0  # atno 10718 bound_to 10713
  154.4434  135.5935  153.6144 H   0  0  0  0  0  0  0  0  0  0  0  0  # atno 10763 bound_to 10752
  152.9807  135.6003  154.3694 H   0  0  0  0  0  0  0  0  0  0  0  0  # atno 10764 bound_to 10752
  154.3546  135.2841  155.2332 H   0  0  0  0  0  0  0  0  0  0  0  0  # atno 10765 bound_to 10752
  141.1479  133.7933  157.0252 H   0  0  0  0  0  0  0  0  0  0  0  0  # atno 11005 bound_to 11000
  146.2101  139.5451  142.9687 LP  0  0  0  0  0  0  0  0  0  0  0  0  # atno 17320 bound_to 7965
  145.5905  141.0370  143.2073 LP  0  0  0  0  0  0  0  0  0  0  0  0  # atno 17321 bound_to 7965
  139.5910  144.1498  152.2088 LP  0  0  0  0  0  0  0  0  0  0  0  0  # atno 17342 bound_to 10162
  140.0853  144.5666  150.7093 LP  0  0  0  0  0  0  0  0  0  0  0  0  # atno 17343 bound_to 10162
  156.1258  130.3644  149.9812 LP  0  0  0  0  0  0  0  0  0  0  0  0  # atno 17370 bound_to 10713
  156.7883  130.9246  151.3646 LP  0  0  0  0  0  0  0  0  0  0  0  0  # atno 17371 bound_to 10713
  140.0790  134.9659  157.1593 LP  0  0  0  0  0  0  0  0  0  0  0  0  # atno 17394 bound_to 11000
  140.3604  134.2501  155.7188 LP  0  0  0  0  0  0  0  0  0  0  0  0  # atno 17395 bound_to 11000

$$$$
