AV-unprocessed.smi:698|AV-procd|sdf|3397|dock2
  -GOLD-   22720 0373D 1   1.00000     0.00000
 Structure written by MMmdl.
 33 34  0  0  0  0  0  0  0  0  1 V2000
  154.6800  140.7822  161.7350 C   0  0  0  0  0  0  0  0  0  0  0  0
  153.7077  141.3712  160.7102 C   0  0  0  0  0  0  0  0  0  0  0  0
  153.2730  142.6472  161.1710 O   0  0  0  0  0  0  0  0  0  0  0  0
  152.4741  143.4079  160.3419 C   0  0  0  0  0  0  0  0  0  0  0  0
  152.2284  144.7510  160.6847 C   0  0  0  0  0  0  0  0  0  0  0  0
  151.4136  145.5217  159.8365 C   0  0  0  0  0  0  0  0  0  0  0  0
  150.8758  144.9225  158.6815 C   0  0  0  0  0  0  0  0  0  0  0  0
  151.1661  143.5686  158.4036 C   0  0  0  0  0  0  0  0  0  0  0  0
  150.5768  143.0544  157.2188 N   0  0  0  0  0  0  0  0  0  0  0  0
  150.7803  141.8575  156.6349 C   0  0  0  0  0  0  0  0  0  0  0  0
  151.5325  140.9874  157.0748 O   0  0  0  0  0  0  0  0  0  0  0  0
  149.9908  141.5856  155.3472 C   0  0  2  0  0  0  0  0  0  0  0  0
  148.4770  141.5084  155.5494 C   0  0  0  0  0  0  0  0  0  0  0  0
  148.0523  140.7114  154.3356 C   0  0  0  0  0  0  0  0  0  0  0  0
  149.2097  139.7296  154.1574 C   0  0  0  0  0  0  0  0  0  0  0  0
  150.3388  140.3135  154.8033 O   0  0  0  0  0  0  0  0  0  0  0  0
  151.9539  142.8361  159.2285 N   0  0  0  0  0  0  0  0  0  0  0  0
  155.0312  139.8000  161.4182 H   0  0  0  0  0  0  0  0  0  0  0  0
  154.2010  140.6684  162.7078 H   0  0  0  0  0  0  0  0  0  0  0  0
  155.5516  141.4245  161.8621 H   0  0  0  0  0  0  0  0  0  0  0  0
  154.2066  141.4648  159.7443 H   0  0  0  0  0  0  0  0  0  0  0  0
  152.8566  140.6993  160.5870 H   0  0  0  0  0  0  0  0  0  0  0  0
  152.6563  145.1799  161.5785 H   0  0  0  0  0  0  0  0  0  0  0  0
  151.2040  146.5557  160.0672 H   0  0  0  0  0  0  0  0  0  0  0  0
  150.2478  145.5003  158.0188 H   0  0  0  0  0  0  0  0  0  0  0  0
  149.9309  143.6714  156.7480 H   0  0  0  0  0  0  0  0  0  0  0  0
  150.2285  142.3530  154.6087 H   0  0  0  0  0  0  0  0  0  0  0  0
  148.2286  140.9657  156.4632 H   0  0  0  0  0  0  0  0  0  0  0  0
  148.0036  142.4898  155.5922 H   0  0  0  0  0  0  0  0  0  0  0  0
  147.0890  140.2167  154.4627 H   0  0  0  0  0  0  0  0  0  0  0  0
  147.9844  141.3689  153.4677 H   0  0  0  0  0  0  0  0  0  0  0  0
  148.9882  138.7790  154.6433 H   0  0  0  0  0  0  0  0  0  0  0  0
  149.4167  139.5312  153.1056 H   0  0  0  0  0  0  0  0  0  0  0  0
  1  2  1  0  0  0  0
  1 18  1  0  0  0  0
  1 19  1  0  0  0  0
  1 20  1  0  0  0  0
  2  3  1  0  0  0  0
  2 21  1  0  0  0  0
  2 22  1  0  0  0  0
  3  4  1  0  0  0  0
  4 17  1  0  0  0  0
  4  5  2  0  0  0  0
  5  6  1  0  0  0  0
  5 23  1  0  0  0  0
  6  7  2  0  0  0  0
  6 24  1  0  0  0  0
  7  8  1  0  0  0  0
  7 25  1  0  0  0  0
  8  9  1  0  0  0  0
  8 17  2  0  0  0  0
  9 10  1  0  0  0  0
  9 26  1  0  0  0  0
 10 11  2  0  0  0  0
 10 12  1  0  0  0  0
 12 16  1  0  0  0  0
 12 13  1  0  0  0  0
 12 27  1  0  0  0  0
 13 14  1  0  0  0  0
 13 28  1  0  0  0  0
 13 29  1  0  0  0  0
 14 15  1  0  0  0  0
 14 30  1  0  0  0  0
 14 31  1  0  0  0  0
 15 16  1  0  0  0  0
 15 32  1  0  0  0  0
 15 33  1  0  0  0  0
M  END
> <s_m_source_file>
AV-unprocessed.smi

> <i_m_source_file_index>
698

> <i_lp_mmshare_version>
43012

> <i_f3d_flags>
0

> <s_epik_input>
W0NIM11bQ0gyXU9jMVtjSF1bY0hdW2NIXWMobjEpW05IXUMoPU8pW0NAQEhdMltDSDJdW0NIMl1bQ0gyXU8y

> <s_epik_cmdline>
J2VwaWtfcHl0aG9uJywgJy1waCcsICc3LjAnLCAnLXRuJywgJzgnLCAnLW1hJywgJzIwMCcsICctbWV0YWxfYmluZGluZycsICctaW1hZScsICc8aW5maWxlLm1hZT4nLCAnLW9tYWUnLCAnPG91dGZpbGUubWFlPic=

> <r_lp_tautomer_probability>
1

> <r_epik_Ionization_Penalty>
3.42089e-05

> <r_epik_Ionization_Penalty_Charging>
0

> <r_epik_Ionization_Penalty_Neutral>
3.42089e-05

> <r_epik_State_Penalty>
-0

> <r_epik_Charging_Adjusted_Penalty>
0

> <i_epik_Tot_Q>
0

> <i_epik_Tot_abs_Q>
0

> <r_epik_Metal_State_Penalty>
-0

> <b_epik_Metal_Only>
0

> <s_lp_Force_Field>
OPLS_2005

> <r_lp_Energy>
21.1038

> <b_lp_Chiralities_Consistent>
1

> <s_lp_Variant>
AV-unprocessed.smi:698-1

> <Gold.Version>
5.8.1

> <Gold.Id.Protein>
6NUR|6NUR_protein|mol2

> <Gold.PLP.Fitness>
44.0440

> <Gold.PLP.PLP>
-38.3561

> <Gold.PLP.part.hbond>
-2.0000

> <Gold.PLP.part.metal>
0.0000

> <Gold.PLP.part.buried>
-3.2055

> <Gold.PLP.part.nonpolar>
-32.0320

> <Gold.PLP.part.repulsive>
0.1213

> <Gold.PLP.ligand.clash>
0.0000

> <Gold.PLP.ligand.torsion>
0.1700

> <Gold.PLP.Chemscore.Hbond>
2.0000

> <Gold.PLP.Chemscore.CHOScore>
0.0000

> <Gold.PLP.Chemscore.Metal>
0.0000

> <Gold.Chemscore.Hbonds>
donor molecule, donor type, donor heavy atom, donor atom, acceptor molecule, acceptor atom, score
      L1  H     9    26       P1  8028  1.00
      P1  H  7989  7998       L1    16  0.95

> <Gold.PLP.Chemscore.Internal.Correction>
0.0279

> <Gold.Rescore>
     Score         DG    S(hbond)    S(metal)    S(lipo)     H(rot)  DE(clash)    DE(int)     intcor
     13.35     -15.20       1.16        0.00      81.03       1.42       0.25       1.60       ----

> <Gold.Chemscore.Fitness>
13.3462

> <Gold.Chemscore.DG>
-15.2006

> <Gold.Chemscore.ZeroCoef>
-5.4800

> <Gold.Chemscore.Hbond>
1.1592

> <Gold.Chemscore.Metal>
0.0000

> <Gold.Chemscore.Lipo>
81.0274

> <Gold.Chemscore.Internal_Hbond>
0.0000

> <Gold.Chemscore.DEClash>
0.2529

> <Gold.Chemscore.DEInternal>
1.6015

> <Gold.Chemscore.Rot>
1.4185

> <Gold.Chemscore.Internal.Correction>
   9.000000E+99

> <Gold.Chemscore.Hbonds>
donor molecule, donor type, donor heavy atom, donor atom, acceptor molecule, acceptor atom, score
      L1  H     9    26       P1  8028  1.00
      P1  H  7989  7998       L1    16  0.16

> <Gold.Chemscore.Hbond.Weighted>
-3.8717

> <Gold.Chemscore.Metal.Weighted>
-0.0000

> <Gold.Chemscore.Lipo.Weighted>
-9.4802

> <Gold.Chemscore.Internal_Hbond.Weighted>
0.0000

> <Gold.Chemscore.DEClash.Weighted>
0.2529

> <Gold.Chemscore.DEInternal.Weighted>
1.6015

> <Gold.Chemscore.Rot.Weighted>
3.6313

> <Gold.Chemscore.Internal.Correction.Weighted>
   9.000000E+99

> <Gold.Protein.RotatedTorsions>
[ 6907 6896 6895 6894 ] final   50.61 input  -60.11 | X-H torsion
[ 7974 7965 7964 7962 ] final -167.49 input  175.53 | X-H torsion
[ 8008 7997 7996 7995 ] final   -2.88 input   59.86 | X-H torsion
[ 10167 10162 10161 10158 ] final  123.17 input  -65.29 | X-H torsion
[ 10718 10713 10712 10709 ] final  -12.28 input   66.30 | X-H torsion
[ 10763 10752 10751 10750 ] final   95.46 input  -60.55 | X-H torsion
[ 11005 11000 10999 10996 ] final -140.33 input  -57.11 | X-H torsion

> <Gold.Protein.ActiveResidues>
 VAL166  LYS551  ARG553  GLY616  TRP617  ASP618  TYR619  PRO620  LYS621  CYS622 
 ASP623  PHE694  ASN695  SER759  ASP760  ASP761  ALA762  ILE779  LEU786  VAL792 
 PHE793  MET794  SER795  GLU796  ALA797  LYS798  CYS799  TRP800  GLU811  SER814 

> <Gold.Protein.RotatedAtoms>
  152.3037  134.7580  160.0351 H   0  0  0  0  0  0  0  0  0  0  0  0  # atno 6907 bound_to 6896
  151.8085  133.3373  159.3556 H   0  0  0  0  0  0  0  0  0  0  0  0  # atno 6908 bound_to 6896
  150.7286  134.5616  159.5889 H   0  0  0  0  0  0  0  0  0  0  0  0  # atno 6909 bound_to 6896
  144.7222  140.2511  143.6278 H   0  0  0  0  0  0  0  0  0  0  0  0  # atno 7974 bound_to 7965
  154.6309  140.2523  155.7435 H   0  0  0  0  0  0  0  0  0  0  0  0  # atno 8008 bound_to 7997
  156.2478  140.2907  156.0580 H   0  0  0  0  0  0  0  0  0  0  0  0  # atno 8009 bound_to 7997
  155.1747  140.0387  157.2860 H   0  0  0  0  0  0  0  0  0  0  0  0  # atno 8010 bound_to 7997
  139.5815  144.6988  151.3516 H   0  0  0  0  0  0  0  0  0  0  0  0  # atno 10167 bound_to 10162
  156.6469  130.4944  149.6075 H   0  0  0  0  0  0  0  0  0  0  0  0  # atno 10718 bound_to 10713
  153.2535  135.4253  155.0822 H   0  0  0  0  0  0  0  0  0  0  0  0  # atno 10763 bound_to 10752
  154.8391  135.3431  154.6479 H   0  0  0  0  0  0  0  0  0  0  0  0  # atno 10764 bound_to 10752
  153.6900  135.7034  153.5149 H   0  0  0  0  0  0  0  0  0  0  0  0  # atno 10765 bound_to 10752
  140.8433  134.2375  157.4799 H   0  0  0  0  0  0  0  0  0  0  0  0  # atno 11005 bound_to 11000
  145.8227  139.2051  143.1929 LP  0  0  0  0  0  0  0  0  0  0  0  0  # atno 17320 bound_to 7965
  146.0500  140.8079  142.9786 LP  0  0  0  0  0  0  0  0  0  0  0  0  # atno 17321 bound_to 7965
  140.7093  143.7433  150.7537 LP  0  0  0  0  0  0  0  0  0  0  0  0  # atno 17342 bound_to 10162
  140.0967  143.4826  152.2448 LP  0  0  0  0  0  0  0  0  0  0  0  0  # atno 17343 bound_to 10162
  156.2115  130.6681  151.1274 LP  0  0  0  0  0  0  0  0  0  0  0  0  # atno 17370 bound_to 10713
  157.7153  131.0713  150.6349 LP  0  0  0  0  0  0  0  0  0  0  0  0  # atno 17371 bound_to 10713
  139.8703  134.9646  156.4502 LP  0  0  0  0  0  0  0  0  0  0  0  0  # atno 17394 bound_to 11000
  140.8871  133.7875  155.9530 LP  0  0  0  0  0  0  0  0  0  0  0  0  # atno 17395 bound_to 11000

$$$$
