AV-unprocessed.smi:1430|AV-procd|sdf|5826|dock1
  -GOLD-   22720 5483D 1   1.00000     0.00000
 Structure written by MMmdl.
 47 48  0  0  0  0  0  0  0  0  2 V2000
  150.8048  142.0736  157.6989 C   0  0  0  0  0  0  0  0  0  0  0  0
  150.7232  141.8540  156.2948 O   0  0  0  0  0  0  0  0  0  0  0  0
  150.2997  140.6190  155.8487 C   0  0  0  0  0  0  0  0  0  0  0  0
  149.7477  139.7182  156.7808 C   0  0  0  0  0  0  0  0  0  0  0  0
  149.3138  138.4553  156.3343 C   0  0  0  0  0  0  0  0  0  0  0  0
  149.4386  138.1346  154.9610 C   0  0  0  0  0  0  0  0  0  0  0  0
  149.0579  136.8907  154.3876 N   0  0  0  0  0  0  0  0  0  0  0  0
  148.9002  135.7014  154.9927 C   0  0  0  0  0  0  0  0  0  0  0  0
  149.0072  135.4958  156.2007 O   0  0  0  0  0  0  0  0  0  0  0  0
  148.6022  134.7409  154.1056 N   0  0  0  0  0  0  0  0  0  0  0  0
  148.3737  133.3327  154.4277 C   0  0  0  0  0  0  0  0  0  0  0  0
  148.9445  132.3584  153.3730 C   0  0  0  0  0  0  0  0  0  0  0  0
  147.8874  131.6210  152.6370 N   0  3  1  0  0  0  0  0  0  0  0  0
  147.2582  130.5505  153.4434 C   0  0  0  0  0  0  0  0  0  0  0  0
  146.2523  129.7494  152.5946 C   0  0  2  0  0  0  0  0  0  0  0  0
  146.9239  128.8188  151.5682 C   0  0  0  0  0  0  0  0  0  0  0  0
  145.3086  130.6333  151.9878 O   0  0  0  0  0  0  0  0  0  0  0  0
  145.8787  131.6689  151.1904 C   0  0  1  0  0  0  0  0  0  0  0  0
  144.7333  132.5214  150.6337 C   0  0  0  0  0  0  0  0  0  0  0  0
  146.8533  132.4996  152.0445 C   0  0  0  0  0  0  0  0  0  0  0  0
  150.0162  139.1020  154.1130 C   0  0  0  0  0  0  0  0  0  0  0  0
  150.4350  140.3136  154.5346 N   0  0  0  0  0  0  0  0  0  0  0  0
  151.1511  143.0900  157.8851 H   0  0  0  0  0  0  0  0  0  0  0  0
  151.5138  141.3910  158.1694 H   0  0  0  0  0  0  0  0  0  0  0  0
  149.8303  141.9637  158.1770 H   0  0  0  0  0  0  0  0  0  0  0  0
  149.6631  139.9895  157.8229 H   0  0  0  0  0  0  0  0  0  0  0  0
  148.9110  137.7607  157.0544 H   0  0  0  0  0  0  0  0  0  0  0  0
  148.8475  136.9194  153.4007 H   0  0  0  0  0  0  0  0  0  0  0  0
  148.5176  135.0036  153.1342 H   0  0  0  0  0  0  0  0  0  0  0  0
  148.7891  133.1078  155.4111 H   0  0  0  0  0  0  0  0  0  0  0  0
  147.2969  133.1889  154.5155 H   0  0  0  0  0  0  0  0  0  0  0  0
  149.5281  132.9397  152.6580 H   0  0  0  0  0  0  0  0  0  0  0  0
  149.6454  131.6597  153.8319 H   0  0  0  0  0  0  0  0  0  0  0  0
  148.0211  129.8811  153.8434 H   0  0  0  0  0  0  0  0  0  0  0  0
  146.7495  130.9990  154.2985 H   0  0  0  0  0  0  0  0  0  0  0  0
  145.6793  129.1132  153.2698 H   0  0  0  0  0  0  0  0  0  0  0  0
  147.5342  128.0673  152.0697 H   0  0  0  0  0  0  0  0  0  0  0  0
  147.5774  129.3582  150.8829 H   0  0  0  0  0  0  0  0  0  0  0  0
  146.1768  128.2921  150.9742 H   0  0  0  0  0  0  0  0  0  0  0  0
  146.4139  131.2311  150.3475 H   0  0  0  0  0  0  0  0  0  0  0  0
  145.1130  133.3312  150.0103 H   0  0  0  0  0  0  0  0  0  0  0  0
  144.1445  132.9655  151.4371 H   0  0  0  0  0  0  0  0  0  0  0  0
  144.0606  131.9195  150.0223 H   0  0  0  0  0  0  0  0  0  0  0  0
  146.3158  133.0189  152.8399 H   0  0  0  0  0  0  0  0  0  0  0  0
  147.3214  133.2631  151.4230 H   0  0  0  0  0  0  0  0  0  0  0  0
  150.1462  138.8997  153.0597 H   0  0  0  0  0  0  0  0  0  0  0  0
  148.3532  131.1551  151.8714 H   0  0  0  0  0  0  0  0  0  0  0  0
  1  2  1  0  0  0  0
  1 23  1  0  0  0  0
  1 24  1  0  0  0  0
  1 25  1  0  0  0  0
  2  3  1  0  0  0  0
  3 22  1  0  0  0  0
  3  4  2  0  0  0  0
  4  5  1  0  0  0  0
  4 26  1  0  0  0  0
  5  6  2  0  0  0  0
  5 27  1  0  0  0  0
  6  7  1  0  0  0  0
  6 21  1  0  0  0  0
  7  8  1  0  0  0  0
  7 28  1  0  0  0  0
  8  9  2  0  0  0  0
  8 10  1  0  0  0  0
 10 11  1  0  0  0  0
 10 29  1  0  0  0  0
 11 12  1  0  0  0  0
 11 30  1  0  0  0  0
 11 31  1  0  0  0  0
 12 13  1  0  0  0  0
 12 32  1  0  0  0  0
 12 33  1  0  0  0  0
 13 20  1  0  0  0  0
 13 14  1  0  0  0  0
 13 47  1  0  0  0  0
 14 15  1  0  0  0  0
 14 34  1  0  0  0  0
 14 35  1  0  0  0  0
 15 16  1  0  0  0  0
 15 17  1  0  0  0  0
 15 36  1  0  0  0  0
 16 37  1  0  0  0  0
 16 38  1  0  0  0  0
 16 39  1  0  0  0  0
 17 18  1  0  0  0  0
 18 19  1  0  0  0  0
 18 20  1  0  0  0  0
 18 40  1  0  0  0  0
 19 41  1  0  0  0  0
 19 42  1  0  0  0  0
 19 43  1  0  0  0  0
 20 44  1  0  0  0  0
 20 45  1  0  0  0  0
 21 22  2  0  0  0  0
 21 46  1  0  0  0  0
M  CHG  1  13   1
M  END
> <s_m_source_file>
AV-unprocessed.smi

> <i_m_source_file_index>
1430

> <i_lp_mmshare_version>
43012

> <i_f3d_flags>
0

> <s_epik_input>
W0NIM11PYzFbY0hdW2NIXWMoW2NIXW4xKVtOSF1DKD1PKVtOSF1bQ0gyXVtDSDJdTjJbQ0gyXVtDQEBIXShbQ0gzXSlPW0NAQEhdKFtDSDNdKVtDSDJdMg==

> <s_epik_cmdline>
J2VwaWtfcHl0aG9uJywgJy1waCcsICc3LjAnLCAnLXRuJywgJzgnLCAnLW1hJywgJzIwMCcsICctbWV0YWxfYmluZGluZycsICctaW1hZScsICc8aW5maWxlLm1hZT4nLCAnLW9tYWUnLCAnPG91dGZpbGUubWFlPic=

> <r_lp_tautomer_probability>
1

> <r_epik_Ionization_Penalty>
0.602607

> <r_epik_Ionization_Penalty_Charging>
0.602531

> <r_epik_Ionization_Penalty_Neutral>
7.66983e-05

> <r_epik_State_Penalty>
0.617039

> <r_epik_Charging_Adjusted_Penalty>
1.21957

> <i_epik_Tot_Q>
1

> <i_epik_Tot_abs_Q>
1

> <r_epik_Metal_State_Penalty>
0.617043

> <b_epik_Metal_Only>
0

> <s_lp_Force_Field>
OPLS_2005

> <r_lp_Energy>
27.4257

> <b_lp_Chiralities_Consistent>
1

> <s_lp_Variant>
AV-unprocessed.smi:1430-5

> <Gold.Version>
5.8.1

> <Gold.Id.Protein>
6NUR|6NUR_protein|mol2

> <Gold.PLP.Fitness>
48.0597

> <Gold.PLP.PLP>
-35.0082

> <Gold.PLP.part.hbond>
-4.0000

> <Gold.PLP.part.metal>
0.0000

> <Gold.PLP.part.buried>
-3.7622

> <Gold.PLP.part.nonpolar>
-26.4470

> <Gold.PLP.part.repulsive>
0.3721

> <Gold.PLP.ligand.clash>
0.3578

> <Gold.PLP.ligand.torsion>
0.8080

> <Gold.PLP.Chemscore.Hbond>
3.9600

> <Gold.PLP.Chemscore.CHOScore>
1.0000

> <Gold.PLP.Chemscore.Metal>
0.0000

> <Gold.Chemscore.Hbonds>
donor molecule, donor type, donor heavy atom, donor atom, acceptor molecule, acceptor atom, score
      L1  H     7    28       P1  7948  0.99
      L1  H    10    29       P1  7948  0.93
      L1  H    13    47       P1 10747  1.00
      P1  H  7989  7998       L1    22  1.00
      L1  C    21    46       P1  7957  1.00

> <Gold.PLP.Chemscore.Internal.Correction>
0.1454

> <Gold.Rescore>
     Score         DG    S(hbond)    S(metal)    S(lipo)     H(rot)  DE(clash)    DE(int)     intcor
     20.65     -22.45       3.51        0.00      83.20       1.76       0.05       1.74       ----

> <Gold.Chemscore.Fitness>
20.6508

> <Gold.Chemscore.DG>
-22.4463

> <Gold.Chemscore.ZeroCoef>
-5.4800

> <Gold.Chemscore.Hbond>
3.5146

> <Gold.Chemscore.Metal>
0.0000

> <Gold.Chemscore.Lipo>
83.2030

> <Gold.Chemscore.Internal_Hbond>
0.0000

> <Gold.Chemscore.DEClash>
0.0532

> <Gold.Chemscore.DEInternal>
1.7423

> <Gold.Chemscore.Rot>
1.7606

> <Gold.Chemscore.Internal.Correction>
   9.000000E+99

> <Gold.Chemscore.Hbonds>
donor molecule, donor type, donor heavy atom, donor atom, acceptor molecule, acceptor atom, score
      L1  H     7    28       P1  7948  0.94
      L1  H    10    29       P1  7948  0.64
      L1  H    13    47       P1 10747  1.00
      P1  H  7989  7998       L1    22  0.69

> <Gold.Chemscore.Hbond.Weighted>
-11.7387

> <Gold.Chemscore.Metal.Weighted>
-0.0000

> <Gold.Chemscore.Lipo.Weighted>
-9.7347

> <Gold.Chemscore.Internal_Hbond.Weighted>
0.0000

> <Gold.Chemscore.DEClash.Weighted>
0.0532

> <Gold.Chemscore.DEInternal.Weighted>
1.7423

> <Gold.Chemscore.Rot.Weighted>
4.5072

> <Gold.Chemscore.Internal.Correction.Weighted>
   9.000000E+99

> <Gold.Protein.RotatedTorsions>
[ 6907 6896 6895 6894 ] final  -37.44 input  -60.11 | X-H torsion
[ 7974 7965 7964 7962 ] final -122.60 input  175.53 | X-H torsion
[ 8008 7997 7996 7995 ] final  155.60 input   59.86 | X-H torsion
[ 10167 10162 10161 10158 ] final   11.97 input  -65.29 | X-H torsion
[ 10718 10713 10712 10709 ] final   72.32 input   66.30 | X-H torsion
[ 10763 10752 10751 10750 ] final   43.87 input  -60.55 | X-H torsion
[ 11005 11000 10999 10996 ] final  121.65 input  -57.11 | X-H torsion

> <Gold.Protein.ActiveResidues>
 VAL166  LYS551  ARG553  GLY616  TRP617  ASP618  TYR619  PRO620  LYS621  CYS622 
 ASP623  PHE694  ASN695  SER759  ASP760  ASP761  ALA762  ILE779  LEU786  VAL792 
 PHE793  MET794  SER795  GLU796  ALA797  LYS798  CYS799  TRP800  GLU811  SER814 

> <Gold.Protein.RotatedAtoms>
  151.0147  134.9424  159.8026 H   0  0  0  0  0  0  0  0  0  0  0  0  # atno 6907 bound_to 6896
  152.5311  134.2981  159.9078 H   0  0  0  0  0  0  0  0  0  0  0  0  # atno 6908 bound_to 6896
  151.2988  133.4090  159.2672 H   0  0  0  0  0  0  0  0  0  0  0  0  # atno 6909 bound_to 6896
  145.0277  140.8041  143.4343 H   0  0  0  0  0  0  0  0  0  0  0  0  # atno 7974 bound_to 7965
  156.2469  140.1935  156.6826 H   0  0  0  0  0  0  0  0  0  0  0  0  # atno 8008 bound_to 7997
  154.6310  140.0596  156.9758 H   0  0  0  0  0  0  0  0  0  0  0  0  # atno 8009 bound_to 7997
  155.1710  140.3268  155.4395 H   0  0  0  0  0  0  0  0  0  0  0  0  # atno 8010 bound_to 7997
  140.6098  143.8432  150.7052 H   0  0  0  0  0  0  0  0  0  0  0  0  # atno 10167 bound_to 10162
  157.6495  130.9573  150.0913 H   0  0  0  0  0  0  0  0  0  0  0  0  # atno 10718 bound_to 10713
  152.9852  135.6088  154.3181 H   0  0  0  0  0  0  0  0  0  0  0  0  # atno 10763 bound_to 10752
  154.2893  135.2775  155.2664 H   0  0  0  0  0  0  0  0  0  0  0  0  # atno 10764 bound_to 10752
  154.4967  135.5878  153.6556 H   0  0  0  0  0  0  0  0  0  0  0  0  # atno 10765 bound_to 10752
  139.9235  134.9639  156.7990 H   0  0  0  0  0  0  0  0  0  0  0  0  # atno 11005 bound_to 11000
  145.1812  139.2351  143.5291 LP  0  0  0  0  0  0  0  0  0  0  0  0  # atno 17320 bound_to 7965
  146.3494  140.1586  142.8591 LP  0  0  0  0  0  0  0  0  0  0  0  0  # atno 17321 bound_to 7965
  140.1998  143.3968  152.1800 LP  0  0  0  0  0  0  0  0  0  0  0  0  # atno 17342 bound_to 10162
  139.5352  144.7202  151.4917 LP  0  0  0  0  0  0  0  0  0  0  0  0  # atno 17343 bound_to 10162
  156.1861  130.3652  149.8971 LP  0  0  0  0  0  0  0  0  0  0  0  0  # atno 17370 bound_to 10713
  156.6911  130.8896  151.3588 LP  0  0  0  0  0  0  0  0  0  0  0  0  # atno 17371 bound_to 10713
  140.6405  133.9822  155.7705 LP  0  0  0  0  0  0  0  0  0  0  0  0  # atno 17394 bound_to 11000
  141.0774  134.0114  157.3437 LP  0  0  0  0  0  0  0  0  0  0  0  0  # atno 17395 bound_to 11000

$$$$
