AV-unprocessed.smi:1065|AV-procd|sdf|4666|dock1
  -GOLD-   22720 3173D 1   1.00000     0.00000
 Structure written by MMmdl.
 39 40  0  0  0  0  0  0  0  0  1 V2000
  153.7121  142.8607  163.6138 C   0  0  0  0  0  0  0  0  0  0  0  0
  153.0819  143.8801  162.6545 C   0  0  0  0  0  0  0  0  0  0  0  0
  152.3258  143.2461  161.4688 C   0  0  2  0  0  0  0  0  0  0  0  0
  153.1131  142.0532  160.8914 C   0  0  0  0  0  0  0  0  0  0  0  0
  152.3776  141.3955  159.7124 C   0  0  0  0  0  0  0  0  0  0  0  0
  152.0742  142.4130  158.5918 C   0  0  1  0  0  0  0  0  0  0  0  0
  151.3208  141.7808  157.4058 C   0  0  0  0  0  0  0  0  0  0  0  0
  151.9503  140.5407  156.9726 N   0  0  0  0  0  0  0  0  0  0  0  0
  151.6463  139.8875  155.8421 C   0  0  0  0  0  0  0  0  0  0  0  0
  150.8102  140.2861  155.0317 O   0  0  0  0  0  0  0  0  0  0  0  0
  152.3954  138.5795  155.5887 C   0  0  0  0  0  0  0  0  0  0  0  0
  152.0322  137.5780  156.5731 N   0  0  0  0  0  0  0  0  0  0  0  0
  151.9618  137.6426  157.9042 C   0  0  0  0  0  0  0  0  0  0  0  0
  151.5993  136.4828  158.4310 N   0  0  0  0  0  0  0  0  0  0  0  0
  151.4443  135.6676  157.3220 N   0  0  0  0  0  0  0  0  0  0  0  0
  151.7001  136.3118  156.2166 N   0  0  0  0  0  0  0  0  0  0  0  0
  151.2884  143.6065  159.1671 C   0  0  0  0  0  0  0  0  0  0  0  0
  152.0238  144.2622  160.3471 C   0  0  0  0  0  0  0  0  0  0  0  0
  154.2992  143.3665  164.3806 H   0  0  0  0  0  0  0  0  0  0  0  0
  154.3778  142.1789  163.0841 H   0  0  0  0  0  0  0  0  0  0  0  0
  152.9558  142.2656  164.1247 H   0  0  0  0  0  0  0  0  0  0  0  0
  152.4157  144.5408  163.2104 H   0  0  0  0  0  0  0  0  0  0  0  0
  153.8802  144.5146  162.2673 H   0  0  0  0  0  0  0  0  0  0  0  0
  151.3761  142.8625  161.8450 H   0  0  0  0  0  0  0  0  0  0  0  0
  154.0984  142.3866  160.5625 H   0  0  0  0  0  0  0  0  0  0  0  0
  153.2854  141.3081  161.6688 H   0  0  0  0  0  0  0  0  0  0  0  0
  152.9850  140.5749  159.3296 H   0  0  0  0  0  0  0  0  0  0  0  0
  151.4476  140.9490  160.0670 H   0  0  0  0  0  0  0  0  0  0  0  0
  153.0256  142.7930  158.2160 H   0  0  0  0  0  0  0  0  0  0  0  0
  150.2837  141.5830  157.6825 H   0  0  0  0  0  0  0  0  0  0  0  0
  151.2996  142.4763  156.5652 H   0  0  0  0  0  0  0  0  0  0  0  0
  152.6476  140.1411  157.5844 H   0  0  0  0  0  0  0  0  0  0  0  0
  152.1566  138.1975  154.5952 H   0  0  0  0  0  0  0  0  0  0  0  0
  153.4730  138.7483  155.6198 H   0  0  0  0  0  0  0  0  0  0  0  0
  152.1780  138.5297  158.4811 H   0  0  0  0  0  0  0  0  0  0  0  0
  151.1185  144.3507  158.3882 H   0  0  0  0  0  0  0  0  0  0  0  0
  150.3022  143.2750  159.4949 H   0  0  0  0  0  0  0  0  0  0  0  0
  151.4137  145.0807  160.7284 H   0  0  0  0  0  0  0  0  0  0  0  0
  152.9536  144.7094  159.9932 H   0  0  0  0  0  0  0  0  0  0  0  0
  1  2  1  0  0  0  0
  1 19  1  0  0  0  0
  1 20  1  0  0  0  0
  1 21  1  0  0  0  0
  2  3  1  0  0  0  0
  2 22  1  0  0  0  0
  2 23  1  0  0  0  0
  3 18  1  0  0  0  0
  3  4  1  0  0  0  0
  3 24  1  0  0  0  0
  4  5  1  0  0  0  0
  4 25  1  0  0  0  0
  4 26  1  0  0  0  0
  5  6  1  0  0  0  0
  5 27  1  0  0  0  0
  5 28  1  0  0  0  0
  6  7  1  0  0  0  0
  6 17  1  0  0  0  0
  6 29  1  0  0  0  0
  7  8  1  0  0  0  0
  7 30  1  0  0  0  0
  7 31  1  0  0  0  0
  8  9  1  0  0  0  0
  8 32  1  0  0  0  0
  9 10  2  0  0  0  0
  9 11  1  0  0  0  0
 11 12  1  0  0  0  0
 11 33  1  0  0  0  0
 11 34  1  0  0  0  0
 12 16  1  0  0  0  0
 12 13  1  0  0  0  0
 13 14  2  0  0  0  0
 13 35  1  0  0  0  0
 14 15  1  0  0  0  0
 15 16  2  0  0  0  0
 17 18  1  0  0  0  0
 17 36  1  0  0  0  0
 17 37  1  0  0  0  0
 18 38  1  0  0  0  0
 18 39  1  0  0  0  0
M  END
> <s_m_source_file>
AV-unprocessed.smi

> <i_m_source_file_index>
1065

> <i_lp_mmshare_version>
43012

> <i_f3d_flags>
0

> <s_epik_input>
W0NIM11bQ0gyXVtDQEBIXTFbQ0gyXVtDSDJdW0NASF0oW0NIMl1bQ0gyXTEpW0NIMl1bTkhdQyg9TylbQ0gyXW4yW2NIXW5ubjI=

> <s_epik_cmdline>
J2VwaWtfcHl0aG9uJywgJy1waCcsICc3LjAnLCAnLXRuJywgJzgnLCAnLW1hJywgJzIwMCcsICctbWV0YWxfYmluZGluZycsICctaW1hZScsICc8aW5maWxlLm1hZT4nLCAnLW9tYWUnLCAnPG91dGZpbGUubWFlPic=

> <r_lp_tautomer_probability>
1

> <r_epik_Ionization_Penalty>
4.54759e-07

> <r_epik_Ionization_Penalty_Charging>
0

> <r_epik_Ionization_Penalty_Neutral>
4.54759e-07

> <r_epik_State_Penalty>
-0

> <r_epik_Charging_Adjusted_Penalty>
0

> <i_epik_Tot_Q>
0

> <i_epik_Tot_abs_Q>
0

> <r_epik_Metal_State_Penalty>
-0

> <b_epik_Metal_Only>
0

> <s_lp_Force_Field>
OPLS_2005

> <r_lp_Energy>
13.9446

> <b_lp_Chiralities_Consistent>
1

> <s_lp_Variant>
AV-unprocessed.smi:1065-1

> <Gold.Version>
5.8.1

> <Gold.Id.Protein>
6NUR|6NUR_protein|mol2

> <Gold.PLP.Fitness>
46.3540

> <Gold.PLP.PLP>
-39.3536

> <Gold.PLP.part.hbond>
-4.0000

> <Gold.PLP.part.metal>
0.0000

> <Gold.PLP.part.buried>
-5.6804

> <Gold.PLP.part.nonpolar>
-29.4500

> <Gold.PLP.part.repulsive>
0.1883

> <Gold.PLP.ligand.clash>
0.0000

> <Gold.PLP.ligand.torsion>
0.4035

> <Gold.PLP.Chemscore.Hbond>
2.5920

> <Gold.PLP.Chemscore.CHOScore>
0.0000

> <Gold.PLP.Chemscore.Metal>
0.0000

> <Gold.Chemscore.Hbonds>
donor molecule, donor type, donor heavy atom, donor atom, acceptor molecule, acceptor atom, score
      P1  H  6896  6909       L1    14  0.61
      P1  H  7989  7998       L1    10  1.00
      P1  H 10752 10763       L1    16  0.86

> <Gold.PLP.Chemscore.Internal.Correction>
0.0315

> <Gold.Rescore>
     Score         DG    S(hbond)    S(metal)    S(lipo)     H(rot)  DE(clash)    DE(int)     intcor
     18.35     -18.98       2.33        0.00     102.65       2.45       0.23       0.40       ----

> <Gold.Chemscore.Fitness>
18.3494

> <Gold.Chemscore.DG>
-18.9833

> <Gold.Chemscore.ZeroCoef>
-5.4800

> <Gold.Chemscore.Hbond>
2.3257

> <Gold.Chemscore.Metal>
0.0000

> <Gold.Chemscore.Lipo>
102.6524

> <Gold.Chemscore.Internal_Hbond>
0.0000

> <Gold.Chemscore.DEClash>
0.2304

> <Gold.Chemscore.DEInternal>
0.4035

> <Gold.Chemscore.Rot>
2.4512

> <Gold.Chemscore.Internal.Correction>
   9.000000E+99

> <Gold.Chemscore.Hbonds>
donor molecule, donor type, donor heavy atom, donor atom, acceptor molecule, acceptor atom, score
      P1  H  6896  6909       L1    14  0.18
      P1  H  7989  7998       L1    10  0.74
      P1  H 10752 10763       L1    16  0.67

> <Gold.Chemscore.Hbond.Weighted>
-7.7679

> <Gold.Chemscore.Metal.Weighted>
-0.0000

> <Gold.Chemscore.Lipo.Weighted>
-12.0103

> <Gold.Chemscore.Internal_Hbond.Weighted>
0.0000

> <Gold.Chemscore.DEClash.Weighted>
0.2304

> <Gold.Chemscore.DEInternal.Weighted>
0.4035

> <Gold.Chemscore.Rot.Weighted>
6.2750

> <Gold.Chemscore.Internal.Correction.Weighted>
   9.000000E+99

> <Gold.Protein.RotatedTorsions>
[ 6907 6896 6895 6894 ] final  110.38 input  -60.11 | X-H torsion
[ 7974 7965 7964 7962 ] final   -1.02 input  175.53 | X-H torsion
[ 8008 7997 7996 7995 ] final  106.98 input   59.86 | X-H torsion
[ 10167 10162 10161 10158 ] final   13.87 input  -65.29 | X-H torsion
[ 10718 10713 10712 10709 ] final  -19.04 input   66.30 | X-H torsion
[ 10763 10752 10751 10750 ] final   67.72 input  -60.55 | X-H torsion
[ 11005 11000 10999 10996 ] final   17.47 input  -57.11 | X-H torsion

> <Gold.Protein.ActiveResidues>
 VAL166  LYS551  ARG553  GLY616  TRP617  ASP618  TYR619  PRO620  LYS621  CYS622 
 ASP623  PHE694  ASN695  SER759  ASP760  ASP761  ALA762  ILE779  LEU786  VAL792 
 PHE793  MET794  SER795  GLU796  ALA797  LYS798  CYS799  TRP800  GLU811  SER814 

> <Gold.Protein.RotatedAtoms>
  152.5022  133.8809  159.7345 H   0  0  0  0  0  0  0  0  0  0  0  0  # atno 6907 bound_to 6896
  150.9272  133.6801  159.2825 H   0  0  0  0  0  0  0  0  0  0  0  0  # atno 6908 bound_to 6896
  151.4158  135.0996  159.9651 H   0  0  0  0  0  0  0  0  0  0  0  0  # atno 6909 bound_to 6896
  146.2421  140.1358  142.8336 H   0  0  0  0  0  0  0  0  0  0  0  0  # atno 7974 bound_to 7965
  156.1787  140.3103  155.9108 H   0  0  0  0  0  0  0  0  0  0  0  0  # atno 8008 bound_to 7997
  155.3431  140.0467  157.3062 H   0  0  0  0  0  0  0  0  0  0  0  0  # atno 8009 bound_to 7997
  154.5318  140.2233  155.8800 H   0  0  0  0  0  0  0  0  0  0  0  0  # atno 8010 bound_to 7997
  140.5974  143.8674  150.6931 H   0  0  0  0  0  0  0  0  0  0  0  0  # atno 10167 bound_to 10162
  156.5511  130.4702  149.6451 H   0  0  0  0  0  0  0  0  0  0  0  0  # atno 10718 bound_to 10713
  153.0200  135.5273  154.7023 H   0  0  0  0  0  0  0  0  0  0  0  0  # atno 10763 bound_to 10752
  154.6129  135.2880  155.0415 H   0  0  0  0  0  0  0  0  0  0  0  0  # atno 10764 bound_to 10752
  154.1430  135.6575  153.4999 H   0  0  0  0  0  0  0  0  0  0  0  0  # atno 10765 bound_to 10752
  140.4356  134.1375  155.7685 H   0  0  0  0  0  0  0  0  0  0  0  0  # atno 11005 bound_to 11000
  145.0288  140.8854  143.5122 LP  0  0  0  0  0  0  0  0  0  0  0  0  # atno 17320 bound_to 7965
  145.1419  139.2567  143.5486 LP  0  0  0  0  0  0  0  0  0  0  0  0  # atno 17321 bound_to 7965
  140.2212  143.3808  152.1641 LP  0  0  0  0  0  0  0  0  0  0  0  0  # atno 17342 bound_to 10162
  139.5267  144.7111  151.5203 LP  0  0  0  0  0  0  0  0  0  0  0  0  # atno 17343 bound_to 10162
  156.2883  130.7110  151.1952 LP  0  0  0  0  0  0  0  0  0  0  0  0  # atno 17370 bound_to 10713
  157.7387  131.0537  150.5277 LP  0  0  0  0  0  0  0  0  0  0  0  0  # atno 17371 bound_to 10713
  141.1727  133.8576  157.1519 LP  0  0  0  0  0  0  0  0  0  0  0  0  # atno 17394 bound_to 11000
  140.0105  134.9990  157.0384 LP  0  0  0  0  0  0  0  0  0  0  0  0  # atno 17395 bound_to 11000

$$$$
