AV-unprocessed.smi:1692|AV-procd|sdf|6782|dock2
  -GOLD-   22720 7543D 1   1.00000     0.00000
 Structure written by MMmdl.
 45 46  0  0  0  0  0  0  0  0  1 V2000
  143.2790  146.0003  154.3368 C   0  0  0  0  0  0  0  0  0  0  0  0
  144.1765  144.9887  155.0576 C   0  0  2  0  0  0  0  0  0  0  0  0
  144.9922  144.1326  154.0725 C   0  0  0  0  0  0  0  0  0  0  0  0
  145.7856  143.1187  154.7555 N   0  0  0  0  0  0  0  0  0  0  0  0
  146.5796  142.3485  153.7993 C   0  0  0  0  0  0  0  0  0  0  0  0
  147.2991  141.1208  154.3839 C   0  0  0  0  0  0  0  0  0  0  0  0
  148.8272  141.2433  154.2727 C   0  0  0  0  0  0  0  0  0  0  0  0
  149.3626  142.2007  155.2339 N   0  0  0  0  0  0  0  0  0  0  0  0
  150.1491  141.8897  156.2746 C   0  0  0  0  0  0  0  0  0  0  0  0
  150.5153  140.7418  156.5287 O   0  0  0  0  0  0  0  0  0  0  0  0
  150.4730  142.9855  156.9836 N   0  0  0  0  0  0  0  0  0  0  0  0
  151.2680  143.0692  158.1579 C   0  0  0  0  0  0  0  0  0  0  0  0
  151.4309  144.3732  158.6781 C   0  0  0  0  0  0  0  0  0  0  0  0
  152.2003  144.5639  159.8423 C   0  0  0  0  0  0  0  0  0  0  0  0
  152.7877  143.4441  160.4574 C   0  0  0  0  0  0  0  0  0  0  0  0
  152.5764  142.1807  159.8751 C   0  0  0  0  0  0  0  0  0  0  0  0
  151.8395  141.9957  158.7593 N   0  0  0  0  0  0  0  0  0  0  0  0
  144.8956  142.2772  155.5528 C   0  0  0  0  0  0  0  0  0  0  0  0
  144.0243  143.0889  156.5332 C   0  0  1  0  0  0  0  0  0  0  0  0
  144.8055  143.6184  157.7476 C   0  0  0  0  0  0  0  0  0  0  0  0
  143.3435  144.1383  155.8435 O   0  0  0  0  0  0  0  0  0  0  0  0
  143.8693  146.6822  153.7244 H   0  0  0  0  0  0  0  0  0  0  0  0
  142.7153  146.5998  155.0519 H   0  0  0  0  0  0  0  0  0  0  0  0
  142.5629  145.4989  153.6850 H   0  0  0  0  0  0  0  0  0  0  0  0
  144.8547  145.5380  155.7114 H   0  0  0  0  0  0  0  0  0  0  0  0
  144.3180  143.6546  153.3598 H   0  0  0  0  0  0  0  0  0  0  0  0
  145.6475  144.7829  153.4919 H   0  0  0  0  0  0  0  0  0  0  0  0
  145.9516  142.0392  152.9624 H   0  0  0  0  0  0  0  0  0  0  0  0
  147.3421  143.0029  153.3746 H   0  0  0  0  0  0  0  0  0  0  0  0
  147.0157  141.0018  155.4305 H   0  0  0  0  0  0  0  0  0  0  0  0
  146.9803  140.2145  153.8693 H   0  0  0  0  0  0  0  0  0  0  0  0
  149.2909  140.2761  154.4675 H   0  0  0  0  0  0  0  0  0  0  0  0
  149.1165  141.5264  153.2592 H   0  0  0  0  0  0  0  0  0  0  0  0
  149.1106  143.1688  155.0991 H   0  0  0  0  0  0  0  0  0  0  0  0
  150.1011  143.8618  156.6486 H   0  0  0  0  0  0  0  0  0  0  0  0
  150.9722  145.2229  158.1932 H   0  0  0  0  0  0  0  0  0  0  0  0
  152.3366  145.5525  160.2553 H   0  0  0  0  0  0  0  0  0  0  0  0
  153.3843  143.5497  161.3513 H   0  0  0  0  0  0  0  0  0  0  0  0
  153.0100  141.2952  160.3157 H   0  0  0  0  0  0  0  0  0  0  0  0
  144.2415  141.7122  154.8870 H   0  0  0  0  0  0  0  0  0  0  0  0
  145.4680  141.5425  156.1179 H   0  0  0  0  0  0  0  0  0  0  0  0
  143.2503  142.4253  156.9195 H   0  0  0  0  0  0  0  0  0  0  0  0
  145.2225  142.7958  158.3285 H   0  0  0  0  0  0  0  0  0  0  0  0
  144.1548  144.1924  158.4077 H   0  0  0  0  0  0  0  0  0  0  0  0
  145.6346  144.2613  157.4533 H   0  0  0  0  0  0  0  0  0  0  0  0
  1  2  1  0  0  0  0
  1 22  1  0  0  0  0
  1 23  1  0  0  0  0
  1 24  1  0  0  0  0
  2 21  1  0  0  0  0
  2  3  1  0  0  0  0
  2 25  1  0  0  0  0
  3  4  1  0  0  0  0
  3 26  1  0  0  0  0
  3 27  1  0  0  0  0
  4  5  1  0  0  0  0
  4 18  1  0  0  0  0
  5  6  1  0  0  0  0
  5 28  1  0  0  0  0
  5 29  1  0  0  0  0
  6  7  1  0  0  0  0
  6 30  1  0  0  0  0
  6 31  1  0  0  0  0
  7  8  1  0  0  0  0
  7 32  1  0  0  0  0
  7 33  1  0  0  0  0
  8  9  1  0  0  0  0
  8 34  1  0  0  0  0
  9 10  2  0  0  0  0
  9 11  1  0  0  0  0
 11 12  1  0  0  0  0
 11 35  1  0  0  0  0
 12 17  1  0  0  0  0
 12 13  2  0  0  0  0
 13 14  1  0  0  0  0
 13 36  1  0  0  0  0
 14 15  2  0  0  0  0
 14 37  1  0  0  0  0
 15 16  1  0  0  0  0
 15 38  1  0  0  0  0
 16 17  2  0  0  0  0
 16 39  1  0  0  0  0
 18 19  1  0  0  0  0
 18 40  1  0  0  0  0
 18 41  1  0  0  0  0
 19 20  1  0  0  0  0
 19 21  1  0  0  0  0
 19 42  1  0  0  0  0
 20 43  1  0  0  0  0
 20 44  1  0  0  0  0
 20 45  1  0  0  0  0
M  END
> <s_m_source_file>
AV-unprocessed.smi

> <i_m_source_file_index>
1692

> <i_lp_mmshare_version>
43012

> <i_f3d_flags>
0

> <s_epik_input>
W0NIM11bQ0BASF0xW0NIMl1OKFtDSDJdW0NASF0oTzEpW0NIM10pW0NIMl1bQ0gyXVtDSDJdW05IXUMoPU8pW05IXWMyW2NIXVtjSF1bY0hdW2NIXW4y

> <s_epik_cmdline>
J2VwaWtfcHl0aG9uJywgJy1waCcsICc3LjAnLCAnLXRuJywgJzgnLCAnLW1hJywgJzIwMCcsICctbWV0YWxfYmluZGluZycsICctaW1hZScsICc8aW5maWxlLm1hZT4nLCAnLW9tYWUnLCAnPG91dGZpbGUubWFlPic=

> <r_epik_Ionization_Penalty>
0.594711

> <r_epik_Ionization_Penalty_Charging>
0

> <r_epik_Ionization_Penalty_Neutral>
0.594711

> <r_epik_State_Penalty>
0.608529

> <r_epik_Charging_Adjusted_Penalty>
0.608529

> <i_epik_Tot_Q>
0

> <i_epik_Tot_abs_Q>
0

> <r_epik_Metal_State_Penalty>
0.608528

> <b_epik_Metal_Only>
0

> <s_lp_Force_Field>
OPLS_2005

> <r_lp_Energy>
25.8915

> <b_lp_Chiralities_Consistent>
1

> <s_lp_Variant>
AV-unprocessed.smi:1692-5

> <Gold.Version>
5.8.1

> <Gold.Id.Protein>
6NUR|6NUR_protein|mol2

> <Gold.PLP.Fitness>
48.0179

> <Gold.PLP.PLP>
-43.0114

> <Gold.PLP.part.hbond>
-2.0000

> <Gold.PLP.part.metal>
0.0000

> <Gold.PLP.part.buried>
-7.2227

> <Gold.PLP.part.nonpolar>
-33.5595

> <Gold.PLP.part.repulsive>
0.5483

> <Gold.PLP.ligand.clash>
0.0000

> <Gold.PLP.ligand.torsion>
0.4927

> <Gold.PLP.Chemscore.Hbond>
1.9760

> <Gold.PLP.Chemscore.CHOScore>
0.0000

> <Gold.PLP.Chemscore.Metal>
0.0000

> <Gold.Chemscore.Hbonds>
donor molecule, donor type, donor heavy atom, donor atom, acceptor molecule, acceptor atom, score
      L1  H     8    34       P1  8028  1.00
      L1  H    11    35       P1  8028  0.99

> <Gold.PLP.Chemscore.Internal.Correction>
0.0639

> <Gold.Rescore>
     Score         DG    S(hbond)    S(metal)    S(lipo)     H(rot)  DE(clash)    DE(int)     intcor
     17.34     -19.07       1.94        0.00      98.62       1.73       0.00       1.73       ----

> <Gold.Chemscore.Fitness>
17.3364

> <Gold.Chemscore.DG>
-19.0738

> <Gold.Chemscore.ZeroCoef>
-5.4800

> <Gold.Chemscore.Hbond>
1.9388

> <Gold.Chemscore.Metal>
0.0000

> <Gold.Chemscore.Lipo>
98.6181

> <Gold.Chemscore.Internal_Hbond>
0.0000

> <Gold.Chemscore.DEClash>
0.0048

> <Gold.Chemscore.DEInternal>
1.7326

> <Gold.Chemscore.Rot>
1.7266

> <Gold.Chemscore.Internal.Correction>
   9.000000E+99

> <Gold.Chemscore.Hbonds>
donor molecule, donor type, donor heavy atom, donor atom, acceptor molecule, acceptor atom, score
      L1  H     8    34       P1  8028  0.97
      L1  H    11    35       P1  8028  0.94

> <Gold.Chemscore.Hbond.Weighted>
-6.4755

> <Gold.Chemscore.Metal.Weighted>
-0.0000

> <Gold.Chemscore.Lipo.Weighted>
-11.5383

> <Gold.Chemscore.Internal_Hbond.Weighted>
0.0000

> <Gold.Chemscore.DEClash.Weighted>
0.0048

> <Gold.Chemscore.DEInternal.Weighted>
1.7326

> <Gold.Chemscore.Rot.Weighted>
4.4200

> <Gold.Chemscore.Internal.Correction.Weighted>
   9.000000E+99

> <Gold.Protein.RotatedTorsions>
[ 6907 6896 6895 6894 ] final  142.42 input  -60.11 | X-H torsion
[ 7974 7965 7964 7962 ] final   49.29 input  175.53 | X-H torsion
[ 8008 7997 7996 7995 ] final  159.69 input   59.86 | X-H torsion
[ 10167 10162 10161 10158 ] final   54.30 input  -65.29 | X-H torsion
[ 10718 10713 10712 10709 ] final  167.10 input   66.30 | X-H torsion
[ 10763 10752 10751 10750 ] final  152.91 input  -60.55 | X-H torsion
[ 11005 11000 10999 10996 ] final  -66.51 input  -57.11 | X-H torsion

> <Gold.Protein.ActiveResidues>
 VAL166  LYS551  ARG553  GLY616  TRP617  ASP618  TYR619  PRO620  LYS621  CYS622 
 ASP623  PHE694  ASN695  SER759  ASP760  ASP761  ALA762  ILE779  LEU786  VAL792 
 PHE793  MET794  SER795  GLU796  ALA797  LYS798  CYS799  TRP800  GLU811  SER814 

> <Gold.Protein.RotatedAtoms>
  152.2189  133.4968  159.5151 H   0  0  0  0  0  0  0  0  0  0  0  0  # atno 6907 bound_to 6896
  150.7008  134.1368  159.4099 H   0  0  0  0  0  0  0  0  0  0  0  0  # atno 6908 bound_to 6896
  151.9288  135.0265  160.0578 H   0  0  0  0  0  0  0  0  0  0  0  0  # atno 6909 bound_to 6896
  146.0123  139.4557  142.9948 H   0  0  0  0  0  0  0  0  0  0  0  0  # atno 7974 bound_to 7965
  156.2222  140.1824  156.7450 H   0  0  0  0  0  0  0  0  0  0  0  0  # atno 8008 bound_to 7997
  154.5883  140.0655  156.9231 H   0  0  0  0  0  0  0  0  0  0  0  0  # atno 8009 bound_to 7997
  155.2380  140.3320  155.4298 H   0  0  0  0  0  0  0  0  0  0  0  0  # atno 8010 bound_to 7997
  140.2316  144.3681  150.6412 H   0  0  0  0  0  0  0  0  0  0  0  0  # atno 10167 bound_to 10162
  157.0564  131.0328  151.2663 H   0  0  0  0  0  0  0  0  0  0  0  0  # atno 10718 bound_to 10713
  154.1277  135.2828  155.3193 H   0  0  0  0  0  0  0  0  0  0  0  0  # atno 10763 bound_to 10752
  154.6378  135.5413  153.7757 H   0  0  0  0  0  0  0  0  0  0  0  0  # atno 10764 bound_to 10752
  153.0292  135.6479  154.1428 H   0  0  0  0  0  0  0  0  0  0  0  0  # atno 10765 bound_to 10752
  141.1484  133.6701  156.6150 H   0  0  0  0  0  0  0  0  0  0  0  0  # atno 11005 bound_to 11000
  145.7323  141.0038  143.1345 LP  0  0  0  0  0  0  0  0  0  0  0  0  # atno 17320 bound_to 7965
  144.6957  139.8999  143.7458 LP  0  0  0  0  0  0  0  0  0  0  0  0  # atno 17321 bound_to 7965
  140.6181  143.2174  151.6750 LP  0  0  0  0  0  0  0  0  0  0  0  0  # atno 17342 bound_to 10162
  139.5108  144.3530  152.0634 LP  0  0  0  0  0  0  0  0  0  0  0  0  # atno 17343 bound_to 10162
  157.4990  130.7868  149.7585 LP  0  0  0  0  0  0  0  0  0  0  0  0  # atno 17370 bound_to 10713
  155.9992  130.3890  150.2674 LP  0  0  0  0  0  0  0  0  0  0  0  0  # atno 17371 bound_to 10713
  140.3585  134.7708  157.4517 LP  0  0  0  0  0  0  0  0  0  0  0  0  # atno 17394 bound_to 11000
  140.0804  134.5739  155.8547 LP  0  0  0  0  0  0  0  0  0  0  0  0  # atno 17395 bound_to 11000

$$$$
