AV-unprocessed.smi:670|AV-procd|sdf|3272|dock6
  -GOLD-   22720 0233D 1   1.00000     0.00000
 Structure written by MMmdl.
 45 46  0  0  0  0  0  0  0  0  1 V2000
  153.6147  141.0650  160.7681 C   0  0  0  0  0  0  0  0  0  0  0  0
  152.6107  142.0068  160.0828 C   0  0  1  0  0  0  0  0  0  0  0  0
  153.1768  143.4388  160.0005 C   0  0  0  0  0  0  0  0  0  0  0  0
  152.1989  144.4003  159.3082 C   0  0  0  0  0  0  0  0  0  0  0  0
  151.8198  143.8887  157.9114 C   0  0  0  0  0  0  0  0  0  0  0  0
  151.2410  142.4681  157.9836 C   0  0  0  0  0  0  0  0  0  0  0  0
  152.2150  141.4944  158.6795 C   0  0  2  0  0  0  0  0  0  0  0  0
  151.5901  140.2277  158.8437 O   0  0  0  0  0  0  0  0  0  0  0  0
  151.1789  139.6082  157.6337 C   0  0  0  0  0  0  0  0  0  0  0  0
  150.9039  138.1233  157.9112 C   0  0  0  0  0  0  0  0  0  0  0  0
  149.5542  137.9168  158.4250 N   0  0  0  0  0  0  0  0  0  0  0  0
  149.0084  136.7246  158.7071 C   0  0  0  0  0  0  0  0  0  0  0  0
  149.5892  135.6551  158.5156 O   0  0  0  0  0  0  0  0  0  0  0  0
  147.5839  136.7557  159.2798 C   0  0  0  0  0  0  0  0  0  0  0  0
  147.4063  135.8801  160.4472 N   0  0  0  0  0  0  0  0  0  0  0  0
  147.4957  134.5265  160.1594 N   0  0  0  0  0  0  0  0  0  0  0  0
  147.3717  133.6567  161.1042 C   0  0  0  0  0  0  0  0  0  0  0  0
  147.4696  132.3267  160.7757 O   0  0  0  0  0  0  0  0  0  0  0  0
  147.1350  134.0654  162.4716 C   0  0  0  0  0  0  0  0  0  0  0  0
  147.0432  135.3861  162.7411 C   0  0  0  0  0  0  0  0  0  0  0  0
  147.1781  136.3992  161.6928 C   0  0  0  0  0  0  0  0  0  0  0  0
  147.0948  137.6077  161.9095 O   0  0  0  0  0  0  0  0  0  0  0  0
  148.3682  132.0902  160.9468 H   0  0  0  0  0  0  0  0  0  0  0  0
  154.5370  140.9834  160.1920 H   0  0  0  0  0  0  0  0  0  0  0  0
  153.2062  140.0604  160.8828 H   0  0  0  0  0  0  0  0  0  0  0  0
  153.8752  141.4256  161.7632 H   0  0  0  0  0  0  0  0  0  0  0  0
  151.7107  142.0381  160.6990 H   0  0  0  0  0  0  0  0  0  0  0  0
  153.4020  143.8088  161.0013 H   0  0  0  0  0  0  0  0  0  0  0  0
  154.1220  143.4304  159.4560 H   0  0  0  0  0  0  0  0  0  0  0  0
  151.2998  144.5093  159.9159 H   0  0  0  0  0  0  0  0  0  0  0  0
  152.6439  145.3928  159.2326 H   0  0  0  0  0  0  0  0  0  0  0  0
  151.0966  144.5625  157.4512 H   0  0  0  0  0  0  0  0  0  0  0  0
  152.7005  143.8928  157.2681 H   0  0  0  0  0  0  0  0  0  0  0  0
  150.2952  142.4893  158.5267 H   0  0  0  0  0  0  0  0  0  0  0  0
  151.0098  142.1239  156.9757 H   0  0  0  0  0  0  0  0  0  0  0  0
  153.1236  141.3949  158.0822 H   0  0  0  0  0  0  0  0  0  0  0  0
  150.2757  140.0845  157.2525 H   0  0  0  0  0  0  0  0  0  0  0  0
  151.9489  139.7114  156.8677 H   0  0  0  0  0  0  0  0  0  0  0  0
  151.0158  137.5470  156.9926 H   0  0  0  0  0  0  0  0  0  0  0  0
  151.6360  137.7287  158.6176 H   0  0  0  0  0  0  0  0  0  0  0  0
  149.0072  138.7451  158.6100 H   0  0  0  0  0  0  0  0  0  0  0  0
  147.3184  137.7815  159.5436 H   0  0  0  0  0  0  0  0  0  0  0  0
  146.8937  136.4699  158.4840 H   0  0  0  0  0  0  0  0  0  0  0  0
  147.0343  133.3260  163.2525 H   0  0  0  0  0  0  0  0  0  0  0  0
  146.8660  135.7056  163.7575 H   0  0  0  0  0  0  0  0  0  0  0  0
  1  2  1  0  0  0  0
  1 24  1  0  0  0  0
  1 25  1  0  0  0  0
  1 26  1  0  0  0  0
  2  7  1  0  0  0  0
  2  3  1  0  0  0  0
  2 27  1  0  0  0  0
  3  4  1  0  0  0  0
  3 28  1  0  0  0  0
  3 29  1  0  0  0  0
  4  5  1  0  0  0  0
  4 30  1  0  0  0  0
  4 31  1  0  0  0  0
  5  6  1  0  0  0  0
  5 32  1  0  0  0  0
  5 33  1  0  0  0  0
  6  7  1  0  0  0  0
  6 34  1  0  0  0  0
  6 35  1  0  0  0  0
  7  8  1  0  0  0  0
  7 36  1  0  0  0  0
  8  9  1  0  0  0  0
  9 10  1  0  0  0  0
  9 37  1  0  0  0  0
  9 38  1  0  0  0  0
 10 11  1  0  0  0  0
 10 39  1  0  0  0  0
 10 40  1  0  0  0  0
 11 12  1  0  0  0  0
 11 41  1  0  0  0  0
 12 13  2  0  0  0  0
 12 14  1  0  0  0  0
 14 42  1  0  0  0  0
 14 43  1  0  0  0  0
 14 15  1  0  0  0  0
 15 16  1  0  0  0  0
 15 21  1  0  0  0  0
 16 17  2  0  0  0  0
 17 18  1  0  0  0  0
 17 19  1  0  0  0  0
 18 23  1  0  0  0  0
 19 44  1  0  0  0  0
 19 20  2  0  0  0  0
 20 45  1  0  0  0  0
 20 21  1  0  0  0  0
 21 22  2  0  0  0  0
M  END
> <s_m_source_file>
AV-unprocessed.smi

> <i_m_source_file_index>
670

> <i_lp_mmshare_version>
43012

> <i_f3d_flags>
0

> <s_epik_input>
W0NIM11bQ0BASF0xW0NIMl1bQ0gyXVtDSDJdW0NIMl1bQ0BIXTFPW0NIMl1bQ0gyXVtOSF1DKD1PKVtDSDJdbjJbbkhdYyg9TylbY0hdW2NIXWMyPU8=

> <s_epik_cmdline>
J2VwaWtfcHl0aG9uJywgJy1waCcsICc3LjAnLCAnLXRuJywgJzgnLCAnLW1hJywgJzIwMCcsICctbWV0YWxfYmluZGluZycsICctaW1hZScsICc8aW5maWxlLm1hZT4nLCAnLW9tYWUnLCAnPG91dGZpbGUubWFlPic=

> <r_lp_tautomer_probability>
0.9996

> <r_epik_Ionization_Penalty>
2.12726

> <r_epik_Ionization_Penalty_Charging>
3.83395e-08

> <r_epik_Ionization_Penalty_Neutral>
2.12726

> <r_epik_State_Penalty>
1.70432

> <r_epik_Charging_Adjusted_Penalty>
1.70432

> <i_epik_Tot_Q>
0

> <i_epik_Tot_abs_Q>
0

> <r_epik_Metal_State_Penalty>
1.70432

> <b_epik_Metal_Only>
0

> <s_lp_Force_Field>
OPLS_2005

> <r_lp_Energy>
20.1935

> <b_lp_Chiralities_Consistent>
1

> <s_lp_Variant>
AV-unprocessed.smi:670-8

> <Gold.Version>
5.8.1

> <Gold.Id.Protein>
6NUR|6NUR_protein|mol2

> <Gold.PLP.Fitness>
54.8601

> <Gold.PLP.PLP>
-48.2435

> <Gold.PLP.part.hbond>
-3.0000

> <Gold.PLP.part.metal>
0.0000

> <Gold.PLP.part.buried>
-6.0127

> <Gold.PLP.part.nonpolar>
-39.7001

> <Gold.PLP.part.repulsive>
0.1467

> <Gold.PLP.ligand.clash>
0.0000

> <Gold.PLP.ligand.torsion>
0.4168

> <Gold.PLP.Chemscore.Hbond>
2.4720

> <Gold.PLP.Chemscore.CHOScore>
0.0000

> <Gold.PLP.Chemscore.Metal>
0.0000

> <Gold.Chemscore.Hbonds>
donor molecule, donor type, donor heavy atom, donor atom, acceptor molecule, acceptor atom, score
      P1  H  6896  6907       L1    13  1.00
      P1  H  6931  6943       L1    22  0.62
      P1  H  6934  6947       L1    22  0.72

> <Gold.PLP.Chemscore.Internal.Correction>
0.0341

> <Gold.Rescore>
     Score         DG    S(hbond)    S(metal)    S(lipo)     H(rot)  DE(clash)    DE(int)     intcor
     16.57     -18.25       2.57        0.00     103.49       3.09       0.00       1.68       ----

> <Gold.Chemscore.Fitness>
16.5689

> <Gold.Chemscore.DG>
-18.2501

> <Gold.Chemscore.ZeroCoef>
-5.4800

> <Gold.Chemscore.Hbond>
2.5664

> <Gold.Chemscore.Metal>
0.0000

> <Gold.Chemscore.Lipo>
103.4942

> <Gold.Chemscore.Internal_Hbond>
0.0000

> <Gold.Chemscore.DEClash>
0.0009

> <Gold.Chemscore.DEInternal>
1.6804

> <Gold.Chemscore.Rot>
3.0901

> <Gold.Chemscore.Internal.Correction>
   9.000000E+99

> <Gold.Chemscore.Hbonds>
donor molecule, donor type, donor heavy atom, donor atom, acceptor molecule, acceptor atom, score
      P1  H  6896  6907       L1    13  0.98
      P1  H  6931  6943       L1    22  0.29
      P1  H  6934  6947       L1    22  0.72

> <Gold.Chemscore.Hbond.Weighted>
-8.5719

> <Gold.Chemscore.Metal.Weighted>
-0.0000

> <Gold.Chemscore.Lipo.Weighted>
-12.1088

> <Gold.Chemscore.Internal_Hbond.Weighted>
0.0000

> <Gold.Chemscore.DEClash.Weighted>
0.0009

> <Gold.Chemscore.DEInternal.Weighted>
1.6804

> <Gold.Chemscore.Rot.Weighted>
7.9106

> <Gold.Chemscore.Internal.Correction.Weighted>
   9.000000E+99

> <Gold.Protein.RotatedTorsions>
[ 6907 6896 6895 6894 ] final  -51.59 input  -60.11 | X-H torsion
[ 7974 7965 7964 7962 ] final   30.68 input  175.53 | X-H torsion
[ 8008 7997 7996 7995 ] final   -7.67 input   59.86 | X-H torsion
[ 10167 10162 10161 10158 ] final -153.22 input  -65.29 | X-H torsion
[ 10718 10713 10712 10709 ] final -117.93 input   66.30 | X-H torsion
[ 10763 10752 10751 10750 ] final  -64.94 input  -60.55 | X-H torsion
[ 11005 11000 10999 10996 ] final  -99.68 input  -57.11 | X-H torsion

> <Gold.Protein.ActiveResidues>
 VAL166  LYS551  ARG553  GLY616  TRP617  ASP618  TYR619  PRO620  LYS621  CYS622 
 ASP623  PHE694  ASN695  SER759  ASP760  ASP761  ALA762  ILE779  LEU786  VAL792 
 PHE793  MET794  SER795  GLU796  ALA797  LYS798  CYS799  TRP800  GLU811  SER814 

> <Gold.Protein.RotatedAtoms>
  150.8597  134.7946  159.7072 H   0  0  0  0  0  0  0  0  0  0  0  0  # atno 6907 bound_to 6896
  152.4638  134.5120  159.9766 H   0  0  0  0  0  0  0  0  0  0  0  0  # atno 6908 bound_to 6896
  151.5226  133.3425  159.2939 H   0  0  0  0  0  0  0  0  0  0  0  0  # atno 6909 bound_to 6896
  146.1597  139.6757  142.9042 H   0  0  0  0  0  0  0  0  0  0  0  0  # atno 7974 bound_to 7965
  154.5815  140.2401  155.8047 H   0  0  0  0  0  0  0  0  0  0  0  0  # atno 8008 bound_to 7997
  156.2182  140.3005  155.9846 H   0  0  0  0  0  0  0  0  0  0  0  0  # atno 8009 bound_to 7997
  155.2533  140.0411  157.2979 H   0  0  0  0  0  0  0  0  0  0  0  0  # atno 8010 bound_to 7997
  139.7115  143.9101  152.2470 H   0  0  0  0  0  0  0  0  0  0  0  0  # atno 10167 bound_to 10162
  156.1069  130.6218  150.9227 H   0  0  0  0  0  0  0  0  0  0  0  0  # atno 10718 bound_to 10713
  154.3376  135.6163  153.5581 H   0  0  0  0  0  0  0  0  0  0  0  0  # atno 10763 bound_to 10752
  152.9806  135.5762  154.4890 H   0  0  0  0  0  0  0  0  0  0  0  0  # atno 10764 bound_to 10752
  154.4588  135.2855  155.1705 H   0  0  0  0  0  0  0  0  0  0  0  0  # atno 10765 bound_to 10752
  141.1299  133.8340  157.1003 H   0  0  0  0  0  0  0  0  0  0  0  0  # atno 11005 bound_to 11000
  145.4619  141.0433  143.2747 LP  0  0  0  0  0  0  0  0  0  0  0  0  # atno 17320 bound_to 7965
  144.8010  139.6140  143.7071 LP  0  0  0  0  0  0  0  0  0  0  0  0  # atno 17321 bound_to 7965
  139.8971  144.6932  150.8705 LP  0  0  0  0  0  0  0  0  0  0  0  0  # atno 17342 bound_to 10162
  140.7734  143.3541  151.1955 LP  0  0  0  0  0  0  0  0  0  0  0  0  # atno 17343 bound_to 10162
  157.6247  131.0926  150.8556 LP  0  0  0  0  0  0  0  0  0  0  0  0  # atno 17370 bound_to 10713
  156.8674  130.5134  149.5299 LP  0  0  0  0  0  0  0  0  0  0  0  0  # atno 17371 bound_to 10713
  140.0337  134.9888  157.0830 LP  0  0  0  0  0  0  0  0  0  0  0  0  # atno 17394 bound_to 11000
  140.4244  134.1846  155.7165 LP  0  0  0  0  0  0  0  0  0  0  0  0  # atno 17395 bound_to 11000

$$$$
