AV-unprocessed.smi:3292|AV-procd|sdf|12621|dock1
  -GOLD-   2272018553D 1   1.00000     0.00000
 Structure written by MMmdl.
 39 40  0  0  0  0  0  0  0  0  2 V2000
  147.8928  131.6685  153.7210 C   0  0  0  0  0  0  0  0  0  0  0  0
  147.2310  132.9297  153.1495 C   0  0  2  0  0  0  0  0  0  0  0  0
  146.8759  132.7460  151.6576 C   0  0  0  0  0  0  0  0  0  0  0  0
  145.7705  133.6056  151.2194 N   0  0  0  0  0  0  0  0  0  0  0  0
  145.7464  134.9764  151.1900 C   0  0  0  0  0  0  0  0  0  0  0  0
  144.5183  135.3355  150.6973 C   0  0  0  0  0  0  0  0  0  0  0  0
  143.8413  134.1704  150.4567 N   0  3  0  0  0  0  0  0  0  0  0  0
  144.6020  133.1197  150.7806 C   0  0  0  0  0  0  0  0  0  0  0  0
  148.1326  134.0651  153.3440 N   0  0  0  0  0  0  0  0  0  0  0  0
  148.8084  134.3406  154.4691 C   0  0  0  0  0  0  0  0  0  0  0  0
  148.7441  133.6629  155.4950 O   0  0  0  0  0  0  0  0  0  0  0  0
  149.5399  135.4574  154.3510 N   0  0  0  0  0  0  0  0  0  0  0  0
  150.3350  136.0586  155.4174 C   0  0  0  0  0  0  0  0  0  0  0  0
  151.0867  137.3120  154.9298 C   0  0  2  0  0  0  0  0  0  0  0  0
  151.9253  137.9810  155.9990 C   0  0  0  0  0  0  0  0  0  0  0  0
  152.1560  139.3640  155.3969 C   0  0  0  0  0  0  0  0  0  0  0  0
  150.9915  139.6514  154.6282 O   0  0  0  0  0  0  0  0  0  0  0  0
  150.1985  138.4770  154.4875 C   0  0  0  0  0  0  0  0  0  0  0  0
  147.2344  130.8043  153.6294 H   0  0  0  0  0  0  0  0  0  0  0  0
  148.1258  131.7912  154.7794 H   0  0  0  0  0  0  0  0  0  0  0  0
  148.8219  131.4350  153.1998 H   0  0  0  0  0  0  0  0  0  0  0  0
  146.3112  133.0929  153.7145 H   0  0  0  0  0  0  0  0  0  0  0  0
  147.7438  132.9379  151.0245 H   0  0  0  0  0  0  0  0  0  0  0  0
  146.5694  131.7165  151.4672 H   0  0  0  0  0  0  0  0  0  0  0  0
  146.5869  135.5783  151.5037 H   0  0  0  0  0  0  0  0  0  0  0  0
  144.0873  136.3071  150.5050 H   0  0  0  0  0  0  0  0  0  0  0  0
  144.3290  132.0833  150.6913 H   0  0  0  0  0  0  0  0  0  0  0  0
  148.2544  134.6854  152.5564 H   0  0  0  0  0  0  0  0  0  0  0  0
  149.5315  135.9406  153.4645 H   0  0  0  0  0  0  0  0  0  0  0  0
  149.7123  136.2946  156.2823 H   0  0  0  0  0  0  0  0  0  0  0  0
  151.0541  135.3126  155.7565 H   0  0  0  0  0  0  0  0  0  0  0  0
  151.7421  137.0393  154.1006 H   0  0  0  0  0  0  0  0  0  0  0  0
  151.3608  138.0681  156.9287 H   0  0  0  0  0  0  0  0  0  0  0  0
  152.8540  137.4509  156.2115 H   0  0  0  0  0  0  0  0  0  0  0  0
  152.3319  140.1257  156.1566 H   0  0  0  0  0  0  0  0  0  0  0  0
  153.0173  139.3482  154.7276 H   0  0  0  0  0  0  0  0  0  0  0  0
  149.8441  138.3620  153.4636 H   0  0  0  0  0  0  0  0  0  0  0  0
  149.3285  138.5721  155.1386 H   0  0  0  0  0  0  0  0  0  0  0  0
  142.9016  134.1100  150.0847 H   0  0  0  0  0  0  0  0  0  0  0  0
  1  2  1  0  0  0  0
  1 19  1  0  0  0  0
  1 20  1  0  0  0  0
  1 21  1  0  0  0  0
  2  3  1  0  0  0  0
  2  9  1  0  0  0  0
  2 22  1  0  0  0  0
  3  4  1  0  0  0  0
  3 23  1  0  0  0  0
  3 24  1  0  0  0  0
  4  8  1  0  0  0  0
  4  5  1  0  0  0  0
  5  6  2  0  0  0  0
  5 25  1  0  0  0  0
  6  7  1  0  0  0  0
  6 26  1  0  0  0  0
  7  8  2  0  0  0  0
  7 39  1  0  0  0  0
  8 27  1  0  0  0  0
  9 10  1  0  0  0  0
  9 28  1  0  0  0  0
 10 11  2  0  0  0  0
 10 12  1  0  0  0  0
 12 13  1  0  0  0  0
 12 29  1  0  0  0  0
 13 14  1  0  0  0  0
 13 30  1  0  0  0  0
 13 31  1  0  0  0  0
 14 18  1  0  0  0  0
 14 15  1  0  0  0  0
 14 32  1  0  0  0  0
 15 16  1  0  0  0  0
 15 33  1  0  0  0  0
 15 34  1  0  0  0  0
 16 17  1  0  0  0  0
 16 35  1  0  0  0  0
 16 36  1  0  0  0  0
 17 18  1  0  0  0  0
 18 37  1  0  0  0  0
 18 38  1  0  0  0  0
M  CHG  1   7   1
M  END
> <s_m_source_file>
AV-unprocessed.smi

> <i_m_source_file_index>
3292

> <i_lp_mmshare_version>
43012

> <i_f3d_flags>
0

> <s_epik_input>
W2NIXTFuW2NIXVtjSF1uMVtDSDJdW0NAQEhdKFtDSDNdKVtOSF1DKD1PKVtOSF1bQ0gyXVtDQEBIXTJbQ0gyXVtDSDJdT1tDSDJdMg==

> <s_epik_cmdline>
J2VwaWtfcHl0aG9uJywgJy1waCcsICc3LjAnLCAnLXRuJywgJzgnLCAnLW1hJywgJzIwMCcsICctbWV0YWxfYmluZGluZycsICctaW1hZScsICc8aW5maWxlLm1hZT4nLCAnLW9tYWUnLCAnPG91dGZpbGUubWFlPic=

> <r_lp_tautomer_probability>
1

> <r_epik_Ionization_Penalty>
0.255703

> <r_epik_Ionization_Penalty_Charging>
0

> <r_epik_Ionization_Penalty_Neutral>
0.255703

> <r_epik_State_Penalty>
0.247169

> <r_epik_Charging_Adjusted_Penalty>
0.247169

> <i_epik_Tot_Q>
1

> <i_epik_Tot_abs_Q>
1

> <r_epik_Metal_State_Penalty>
0.536791

> <b_epik_Metal_Only>
0

> <s_lp_Force_Field>
OPLS_2005

> <r_lp_Energy>
18.5781

> <b_lp_Chiralities_Consistent>
1

> <s_lp_Variant>
AV-unprocessed.smi:3292-1

> <Gold.Version>
5.8.1

> <Gold.Id.Protein>
6NUR|6NUR_protein|mol2

> <Gold.PLP.Fitness>
50.4381

> <Gold.PLP.PLP>
-33.2743

> <Gold.PLP.part.hbond>
-4.3562

> <Gold.PLP.part.metal>
0.0000

> <Gold.PLP.part.buried>
-2.7370

> <Gold.PLP.part.nonpolar>
-26.2309

> <Gold.PLP.part.repulsive>
0.1708

> <Gold.PLP.ligand.clash>
0.0000

> <Gold.PLP.ligand.torsion>
0.4546

> <Gold.PLP.Chemscore.Hbond>
4.9920

> <Gold.PLP.Chemscore.CHOScore>
1.0000

> <Gold.PLP.Chemscore.Metal>
0.0000

> <Gold.Chemscore.Hbonds>
donor molecule, donor type, donor heavy atom, donor atom, acceptor molecule, acceptor atom, score
      L1  H     7    39       P1 10186  2.00
      L1  H     9    28       P1  7948  1.00
      L1  H    12    29       P1  7948  1.00
      P1  H  7989  7998       L1    17  1.00
      L1  C     5    25       P1  7948  1.00

> <Gold.PLP.Chemscore.Internal.Correction>
0.0971

> <Gold.Rescore>
     Score         DG    S(hbond)    S(metal)    S(lipo)     H(rot)  DE(clash)    DE(int)     intcor
     16.02     -18.16       3.55        0.00      56.08       2.24       0.09       2.06       ----

> <Gold.Chemscore.Fitness>
16.0156

> <Gold.Chemscore.DG>
-18.1649

> <Gold.Chemscore.ZeroCoef>
-5.4800

> <Gold.Chemscore.Hbond>
3.5477

> <Gold.Chemscore.Metal>
0.0000

> <Gold.Chemscore.Lipo>
56.0795

> <Gold.Chemscore.Internal_Hbond>
0.0000

> <Gold.Chemscore.DEClash>
0.0914

> <Gold.Chemscore.DEInternal>
2.0580

> <Gold.Chemscore.Rot>
2.2367

> <Gold.Chemscore.Internal.Correction>
   9.000000E+99

> <Gold.Chemscore.Hbonds>
donor molecule, donor type, donor heavy atom, donor atom, acceptor molecule, acceptor atom, score
      L1  H     7    39       P1 10186  0.95
      L1  H     9    28       P1  7948  0.37
      L1  H    12    29       P1  7948  0.29
      P1  H  7989  7998       L1    17  0.30

> <Gold.Chemscore.Hbond.Weighted>
-11.8495

> <Gold.Chemscore.Metal.Weighted>
-0.0000

> <Gold.Chemscore.Lipo.Weighted>
-6.5613

> <Gold.Chemscore.Internal_Hbond.Weighted>
0.0000

> <Gold.Chemscore.DEClash.Weighted>
0.0914

> <Gold.Chemscore.DEInternal.Weighted>
2.0580

> <Gold.Chemscore.Rot.Weighted>
5.7259

> <Gold.Chemscore.Internal.Correction.Weighted>
   9.000000E+99

> <Gold.Protein.RotatedTorsions>
[ 6907 6896 6895 6894 ] final   -3.56 input  -60.11 | X-H torsion
[ 7974 7965 7964 7962 ] final  -92.23 input  175.53 | X-H torsion
[ 8008 7997 7996 7995 ] final  104.04 input   59.86 | X-H torsion
[ 10167 10162 10161 10158 ] final  120.57 input  -65.29 | X-H torsion
[ 10718 10713 10712 10709 ] final   70.95 input   66.30 | X-H torsion
[ 10763 10752 10751 10750 ] final   26.45 input  -60.55 | X-H torsion
[ 11005 11000 10999 10996 ] final   71.71 input  -57.11 | X-H torsion

> <Gold.Protein.ActiveResidues>
 VAL166  LYS551  ARG553  GLY616  TRP617  ASP618  TYR619  PRO620  LYS621  CYS622 
 ASP623  PHE694  ASN695  SER759  ASP760  ASP761  ALA762  ILE779  LEU786  VAL792 
 PHE793  MET794  SER795  GLU796  ALA797  LYS798  CYS799  TRP800  GLU811  SER814 

> <Gold.Protein.RotatedAtoms>
  151.5119  135.1065  159.9855 H   0  0  0  0  0  0  0  0  0  0  0  0  # atno 6907 bound_to 6896
  152.4658  133.7916  159.6915 H   0  0  0  0  0  0  0  0  0  0  0  0  # atno 6908 bound_to 6896
  150.8641  133.7537  159.3008 H   0  0  0  0  0  0  0  0  0  0  0  0  # atno 6909 bound_to 6896
  145.4026  140.9538  143.2278 H   0  0  0  0  0  0  0  0  0  0  0  0  # atno 7974 bound_to 7965
  156.1537  140.3154  155.8691 H   0  0  0  0  0  0  0  0  0  0  0  0  # atno 8008 bound_to 7997
  155.3920  140.0494  157.3057 H   0  0  0  0  0  0  0  0  0  0  0  0  # atno 8009 bound_to 7997
  154.5082  140.2155  155.9220 H   0  0  0  0  0  0  0  0  0  0  0  0  # atno 8010 bound_to 7997
  139.5974  144.7046  151.3144 H   0  0  0  0  0  0  0  0  0  0  0  0  # atno 10167 bound_to 10162
  157.6426  130.9503  150.0721 H   0  0  0  0  0  0  0  0  0  0  0  0  # atno 10718 bound_to 10713
  153.0622  135.6560  154.0437 H   0  0  0  0  0  0  0  0  0  0  0  0  # atno 10763 bound_to 10752
  154.0102  135.2929  155.3394 H   0  0  0  0  0  0  0  0  0  0  0  0  # atno 10764 bound_to 10752
  154.6965  135.5262  153.8533 H   0  0  0  0  0  0  0  0  0  0  0  0  # atno 10765 bound_to 10752
  139.9529  134.7195  156.0820 H   0  0  0  0  0  0  0  0  0  0  0  0  # atno 11005 bound_to 11000
  144.8363  139.5544  143.6920 LP  0  0  0  0  0  0  0  0  0  0  0  0  # atno 17320 bound_to 7965
  146.2744  139.6716  142.9273 LP  0  0  0  0  0  0  0  0  0  0  0  0  # atno 17321 bound_to 7965
  140.7223  143.7102  150.7775 LP  0  0  0  0  0  0  0  0  0  0  0  0  # atno 17342 bound_to 10162
  140.0671  143.5097  152.2598 LP  0  0  0  0  0  0  0  0  0  0  0  0  # atno 17343 bound_to 10162
  156.1722  130.3647  149.9149 LP  0  0  0  0  0  0  0  0  0  0  0  0  # atno 17370 bound_to 10713
  156.7122  130.8974  151.3610 LP  0  0  0  0  0  0  0  0  0  0  0  0  # atno 17371 bound_to 10713
  141.1195  133.6617  156.3180 LP  0  0  0  0  0  0  0  0  0  0  0  0  # atno 17394 bound_to 11000
  140.5676  134.5872  157.5449 LP  0  0  0  0  0  0  0  0  0  0  0  0  # atno 17395 bound_to 11000

$$$$
