AV-unprocessed.smi:249|AV-procd|sdf|1905|dock1
  -GOLD-   2262020583D 1   1.00000     0.00000
 Structure written by MMmdl.
 64 67  0  0  0  0  0  0  0  0  2 V2000
  145.9119  133.5933  150.7517 C   0  0  0  0  0  0  0  0  0  0  0  0
  146.6537  132.6913  151.7496 C   0  0  0  0  0  0  0  0  0  0  0  0
  147.2476  133.4410  152.8892 N   0  3  1  0  0  0  0  0  0  0  0  0
  146.2141  134.1154  153.7203 C   0  0  0  0  0  0  0  0  0  0  0  0
  146.8514  135.0821  154.7310 C   0  0  0  0  0  0  0  0  0  0  0  0
  147.8843  134.3534  155.6136 C   0  0  2  0  0  0  0  0  0  0  0  0
  148.4877  135.2028  156.6494 N   0  0  0  0  0  0  0  0  0  0  0  0
  147.6844  135.5514  157.8147 C   0  0  0  0  0  0  0  0  0  0  0  0
  149.4301  136.1321  156.3517 C   0  0  0  0  0  0  0  0  0  0  0  0
  149.9191  136.2336  155.0880 N   0  0  0  0  0  0  0  0  0  0  0  0
  150.8356  137.1602  154.7919 C   0  0  0  0  0  0  0  0  0  0  0  0
  151.3900  138.0713  155.5936 N   0  0  0  0  0  0  0  0  0  0  0  0
  150.8988  137.9763  156.8620 C   0  0  0  0  0  0  0  0  0  0  0  0
  149.9235  137.0475  157.3217 C   0  0  0  0  0  0  0  0  0  0  0  0
  149.6761  137.2503  158.6742 N   0  0  0  0  0  0  0  0  0  0  0  0
  150.4601  138.2436  158.9959 C   0  0  0  0  0  0  0  0  0  0  0  0
  151.2262  138.7416  157.9662 N   0  0  0  0  0  0  0  0  0  0  0  0
  152.1800  139.8339  158.0366 C   0  0  0  0  0  0  0  0  0  0  0  0
  152.3622  140.3910  159.4699 C   0  0  1  0  0  0  0  0  0  0  0  0
  153.4485  139.6324  160.2705 C   0  0  0  0  0  0  0  0  0  0  0  0
  154.6868  139.6312  159.5898 O   0  0  0  0  0  0  0  0  0  0  0  0
  152.5959  141.9228  159.4575 C   0  0  2  0  0  0  0  0  0  0  0  0
  152.4466  142.6042  160.8062 C   0  0  0  0  0  0  0  0  0  0  0  0
  152.2602  144.0626  160.4064 C   0  0  0  0  0  0  0  0  0  0  0  0
  151.5365  144.0281  159.1824 O   0  0  0  0  0  0  0  0  0  0  0  0
  151.5775  142.7156  158.6295 C   0  0  0  0  0  0  0  0  0  0  0  0
  148.9201  133.6272  154.7279 C   0  0  0  0  0  0  0  0  0  0  0  0
  148.2517  132.6876  153.7038 C   0  0  1  0  0  0  0  0  0  0  0  0
  147.6878  131.4090  154.3606 C   0  0  0  0  0  0  0  0  0  0  0  0
  145.3800  132.9909  150.0151 H   0  0  0  0  0  0  0  0  0  0  0  0
  146.5929  134.2418  150.2012 H   0  0  0  0  0  0  0  0  0  0  0  0
  145.1772  134.2211  151.2570 H   0  0  0  0  0  0  0  0  0  0  0  0
  145.9302  131.9785  152.1472 H   0  0  0  0  0  0  0  0  0  0  0  0
  147.4113  132.0953  151.2411 H   0  0  0  0  0  0  0  0  0  0  0  0
  145.5392  134.6804  153.0764 H   0  0  0  0  0  0  0  0  0  0  0  0
  145.6005  133.3747  154.2338 H   0  0  0  0  0  0  0  0  0  0  0  0
  147.3141  135.9027  154.1847 H   0  0  0  0  0  0  0  0  0  0  0  0
  146.0706  135.5264  155.3491 H   0  0  0  0  0  0  0  0  0  0  0  0
  147.3453  133.5818  156.1640 H   0  0  0  0  0  0  0  0  0  0  0  0
  148.2679  135.4520  158.7300 H   0  0  0  0  0  0  0  0  0  0  0  0
  146.8163  134.8976  157.9026 H   0  0  0  0  0  0  0  0  0  0  0  0
  147.3250  136.5790  157.7452 H   0  0  0  0  0  0  0  0  0  0  0  0
  151.1709  137.1762  153.7653 H   0  0  0  0  0  0  0  0  0  0  0  0
  150.4983  138.6463  159.9979 H   0  0  0  0  0  0  0  0  0  0  0  0
  153.1349  139.4863  157.6402 H   0  0  0  0  0  0  0  0  0  0  0  0
  151.8338  140.6160  157.3607 H   0  0  0  0  0  0  0  0  0  0  0  0
  151.4223  140.2183  159.9964 H   0  0  0  0  0  0  0  0  0  0  0  0
  153.5903  140.0804  161.2536 H   0  0  0  0  0  0  0  0  0  0  0  0
  153.1495  138.6006  160.4557 H   0  0  0  0  0  0  0  0  0  0  0  0
  155.3648  139.8810  160.1992 H   0  0  0  0  0  0  0  0  0  0  0  0
  153.5942  142.1378  159.0721 H   0  0  0  0  0  0  0  0  0  0  0  0
  151.5569  142.2408  161.3225 H   0  0  0  0  0  0  0  0  0  0  0  0
  153.3066  142.4599  161.4607 H   0  0  0  0  0  0  0  0  0  0  0  0
  151.7362  144.6422  161.1664 H   0  0  0  0  0  0  0  0  0  0  0  0
  153.2274  144.5334  160.2259 H   0  0  0  0  0  0  0  0  0  0  0  0
  151.8372  142.7462  157.5711 H   0  0  0  0  0  0  0  0  0  0  0  0
  150.5814  142.2799  158.7184 H   0  0  0  0  0  0  0  0  0  0  0  0
  149.5239  134.3488  154.1780 H   0  0  0  0  0  0  0  0  0  0  0  0
  149.6170  133.0655  155.3512 H   0  0  0  0  0  0  0  0  0  0  0  0
  149.0504  132.3700  153.0345 H   0  0  0  0  0  0  0  0  0  0  0  0
  148.4558  130.9135  154.9552 H   0  0  0  0  0  0  0  0  0  0  0  0
  147.3543  130.6854  153.6175 H   0  0  0  0  0  0  0  0  0  0  0  0
  146.8491  131.6148  155.0246 H   0  0  0  0  0  0  0  0  0  0  0  0
  147.7674  134.1944  152.4620 H   0  0  0  0  0  0  0  0  0  0  0  0
  1  2  1  0  0  0  0
  1 30  1  0  0  0  0
  1 31  1  0  0  0  0
  1 32  1  0  0  0  0
  2  3  1  0  0  0  0
  2 33  1  0  0  0  0
  2 34  1  0  0  0  0
  3 28  1  0  0  0  0
  3  4  1  0  0  0  0
  3 64  1  0  0  0  0
  4  5  1  0  0  0  0
  4 35  1  0  0  0  0
  4 36  1  0  0  0  0
  5  6  1  0  0  0  0
  5 37  1  0  0  0  0
  5 38  1  0  0  0  0
  6  7  1  0  0  0  0
  6 27  1  0  0  0  0
  6 39  1  0  0  0  0
  7  8  1  0  0  0  0
  7  9  1  0  0  0  0
  8 40  1  0  0  0  0
  8 41  1  0  0  0  0
  8 42  1  0  0  0  0
  9 14  1  0  0  0  0
  9 10  2  0  0  0  0
 10 11  1  0  0  0  0
 11 12  2  0  0  0  0
 11 43  1  0  0  0  0
 12 13  1  0  0  0  0
 13 17  1  0  0  0  0
 13 14  2  0  0  0  0
 14 15  1  0  0  0  0
 15 16  2  0  0  0  0
 16 17  1  0  0  0  0
 16 44  1  0  0  0  0
 17 18  1  0  0  0  0
 18 19  1  0  0  0  0
 18 45  1  0  0  0  0
 18 46  1  0  0  0  0
 19 20  1  0  0  0  0
 19 22  1  0  0  0  0
 19 47  1  0  0  0  0
 20 21  1  0  0  0  0
 20 48  1  0  0  0  0
 20 49  1  0  0  0  0
 21 50  1  0  0  0  0
 22 26  1  0  0  0  0
 22 23  1  0  0  0  0
 22 51  1  0  0  0  0
 23 24  1  0  0  0  0
 23 52  1  0  0  0  0
 23 53  1  0  0  0  0
 24 25  1  0  0  0  0
 24 54  1  0  0  0  0
 24 55  1  0  0  0  0
 25 26  1  0  0  0  0
 26 56  1  0  0  0  0
 26 57  1  0  0  0  0
 27 28  1  0  0  0  0
 27 58  1  0  0  0  0
 27 59  1  0  0  0  0
 28 29  1  0  0  0  0
 28 60  1  0  0  0  0
 29 61  1  0  0  0  0
 29 62  1  0  0  0  0
 29 63  1  0  0  0  0
M  CHG  1   3   1
M  END
> <s_m_source_file>
AV-unprocessed.smi

> <i_m_source_file_index>
249

> <i_lp_mmshare_version>
43012

> <i_f3d_flags>
0

> <s_epik_input>
W0NIM11bQ0gyXU4xW0NIMl1bQ0gyXVtDQEhdKFtDSDJdW0NASF0xW0NIM10pTihbQ0gzXSljKG5bY0hdbjIpYyhjMjMpbltjSF1uM1tDSDJdW0NASF0oW0NIMl1bT0hdKVtDQEBIXTRbQ0gyXVtDSDJdT1tDSDJdNA==

> <s_epik_cmdline>
J2VwaWtfcHl0aG9uJywgJy1waCcsICc3LjAnLCAnLXRuJywgJzgnLCAnLW1hJywgJzIwMCcsICctbWV0YWxfYmluZGluZycsICctaW1hZScsICc8aW5maWxlLm1hZT4nLCAnLW9tYWUnLCAnPG91dGZpbGUubWFlPic=

> <r_lp_tautomer_probability>
1

> <r_epik_Ionization_Penalty>
0.00294688

> <r_epik_Ionization_Penalty_Charging>
0.00169971

> <r_epik_Ionization_Penalty_Neutral>
0.00124717

> <r_epik_State_Penalty>
-0

> <r_epik_Charging_Adjusted_Penalty>
0.00169971

> <i_epik_Tot_Q>
1

> <i_epik_Tot_abs_Q>
1

> <r_epik_Metal_State_Penalty>
-0

> <b_epik_Metal_Only>
0

> <s_lp_Force_Field>
OPLS_2005

> <r_lp_Energy>
52.9117

> <b_lp_Chiralities_Consistent>
1

> <s_lp_Variant>
AV-unprocessed.smi:249-8

> <Gold.Version>
5.8.1

> <Gold.Id.Protein>
6NUR|6NUR_protein|mol2

> <Gold.PLP.Fitness>
56.8174

> <Gold.PLP.PLP>
-45.3223

> <Gold.PLP.part.hbond>
-3.0000

> <Gold.PLP.part.metal>
0.0000

> <Gold.PLP.part.buried>
-6.7083

> <Gold.PLP.part.nonpolar>
-35.6941

> <Gold.PLP.part.repulsive>
0.2382

> <Gold.PLP.ligand.clash>
0.4459

> <Gold.PLP.ligand.torsion>
1.0910

> <Gold.PLP.Chemscore.Hbond>
3.9760

> <Gold.PLP.Chemscore.CHOScore>
0.2321

> <Gold.PLP.Chemscore.Metal>
0.0000

> <Gold.Chemscore.Hbonds>
donor molecule, donor type, donor heavy atom, donor atom, acceptor molecule, acceptor atom, score
      L1  H     3    64       P1  7948  0.23
      P1  H  7997  8008       L1    21  0.06
      L1  C    11    43       P1  7949  0.91

> <Gold.PLP.Chemscore.Internal.Correction>
1.4986

> <Gold.Rescore>
     Score         DG    S(hbond)    S(metal)    S(lipo)     H(rot)  DE(clash)    DE(int)     intcor
     10.16     -14.08       0.87        0.00     106.85       2.65       0.09       3.84       ----

> <Gold.Chemscore.Fitness>
10.1557

> <Gold.Chemscore.DG>
-14.0834

> <Gold.Chemscore.ZeroCoef>
-5.4800

> <Gold.Chemscore.Hbond>
0.8652

> <Gold.Chemscore.Metal>
0.0000

> <Gold.Chemscore.Lipo>
106.8507

> <Gold.Chemscore.Internal_Hbond>
0.0000

> <Gold.Chemscore.DEClash>
0.0901

> <Gold.Chemscore.DEInternal>
3.8376

> <Gold.Chemscore.Rot>
2.6515

> <Gold.Chemscore.Internal.Correction>
   9.000000E+99

> <Gold.Chemscore.Hbonds>
donor molecule, donor type, donor heavy atom, donor atom, acceptor molecule, acceptor atom, score
      L1  H     3    64       P1  7948  0.06
      P1  H  7997  8008       L1    21  0.06

> <Gold.Chemscore.Hbond.Weighted>
-2.8898

> <Gold.Chemscore.Metal.Weighted>
-0.0000

> <Gold.Chemscore.Lipo.Weighted>
-12.5015

> <Gold.Chemscore.Internal_Hbond.Weighted>
0.0000

> <Gold.Chemscore.DEClash.Weighted>
0.0901

> <Gold.Chemscore.DEInternal.Weighted>
3.8376

> <Gold.Chemscore.Rot.Weighted>
6.7880

> <Gold.Chemscore.Internal.Correction.Weighted>
   9.000000E+99

> <Gold.Protein.RotatedTorsions>
[ 6907 6896 6895 6894 ] final -153.33 input  -60.11 | X-H torsion
[ 7974 7965 7964 7962 ] final  143.36 input  175.53 | X-H torsion
[ 8008 7997 7996 7995 ] final -143.24 input   59.86 | X-H torsion
[ 10167 10162 10161 10158 ] final  -21.02 input  -65.29 | X-H torsion
[ 10718 10713 10712 10709 ] final   16.24 input   66.30 | X-H torsion
[ 10763 10752 10751 10750 ] final   27.16 input  -60.55 | X-H torsion
[ 11005 11000 10999 10996 ] final  -69.67 input  -57.11 | X-H torsion

> <Gold.Protein.ActiveResidues>
 VAL166  LYS551  ARG553  GLY616  TRP617  ASP618  TYR619  PRO620  LYS621  CYS622 
 ASP623  PHE694  ASN695  SER759  ASP760  ASP761  ALA762  ILE779  LEU786  VAL792 
 PHE793  MET794  SER795  GLU796  ALA797  LYS798  CYS799  TRP800  GLU811  SER814 

> <Gold.Protein.RotatedAtoms>
  151.2410  133.4399  159.2607 H   0  0  0  0  0  0  0  0  0  0  0  0  # atno 6907 bound_to 6896
  151.0705  134.9795  159.8316 H   0  0  0  0  0  0  0  0  0  0  0  0  # atno 6908 bound_to 6896
  152.5411  134.2355  159.8894 H   0  0  0  0  0  0  0  0  0  0  0  0  # atno 6909 bound_to 6896
  144.8927  139.5535  143.5791 H   0  0  0  0  0  0  0  0  0  0  0  0  # atno 7974 bound_to 7965
  155.5073  140.0580  157.2929 H   0  0  0  0  0  0  0  0  0  0  0  0  # atno 8008 bound_to 7997
  154.4565  140.1975  156.0315 H   0  0  0  0  0  0  0  0  0  0  0  0  # atno 8009 bound_to 7997
  156.0808  140.3247  155.7695 H   0  0  0  0  0  0  0  0  0  0  0  0  # atno 8010 bound_to 7997
  140.7279  143.4667  151.0303 H   0  0  0  0  0  0  0  0  0  0  0  0  # atno 10167 bound_to 10162
  157.0650  130.6324  149.5793 H   0  0  0  0  0  0  0  0  0  0  0  0  # atno 10718 bound_to 10713
  153.0574  135.6543  154.0544 H   0  0  0  0  0  0  0  0  0  0  0  0  # atno 10763 bound_to 10752
  154.0219  135.2919  155.3381 H   0  0  0  0  0  0  0  0  0  0  0  0  # atno 10764 bound_to 10752
  154.6896  135.5288  153.8442 H   0  0  0  0  0  0  0  0  0  0  0  0  # atno 10765 bound_to 10752
  141.1559  133.6770  156.6635 H   0  0  0  0  0  0  0  0  0  0  0  0  # atno 11005 bound_to 11000
  146.3063  139.7592  142.9053 LP  0  0  0  0  0  0  0  0  0  0  0  0  # atno 17320 bound_to 7965
  145.3754  141.0349  143.3207 LP  0  0  0  0  0  0  0  0  0  0  0  0  # atno 17321 bound_to 7965
  139.8356  143.7632  152.3180 LP  0  0  0  0  0  0  0  0  0  0  0  0  # atno 17342 bound_to 10162
  139.7763  144.7460  151.0152 LP  0  0  0  0  0  0  0  0  0  0  0  0  # atno 17343 bound_to 10162
  155.9967  130.5037  150.7507 LP  0  0  0  0  0  0  0  0  0  0  0  0  # atno 17370 bound_to 10713
  157.4924  131.0912  151.0411 LP  0  0  0  0  0  0  0  0  0  0  0  0  # atno 17371 bound_to 10713
  140.3229  134.7993  157.4266 LP  0  0  0  0  0  0  0  0  0  0  0  0  # atno 17394 bound_to 11000
  140.1082  134.5381  155.8290 LP  0  0  0  0  0  0  0  0  0  0  0  0  # atno 17395 bound_to 11000

$$$$
