AV-unprocessed.smi:2001|AV-procd|sdf|8109|dock7
  -GOLD-   2272010333D 1   1.00000     0.00000
 Structure written by MMmdl.
 50 51  0  0  0  0  0  0  0  0  3 V2000
  136.0408  142.9922  151.9267 C   0  0  0  0  0  0  0  0  0  0  0  0
  135.9406  142.3171  153.1681 O   0  0  0  0  0  0  0  0  0  0  0  0
  137.2079  141.9752  153.7037 C   0  0  0  0  0  0  0  0  0  0  0  0
  137.8808  140.9522  152.7762 C   0  0  0  0  0  0  0  0  0  0  0  0
  137.8297  139.5995  153.3397 N   0  0  0  0  0  0  0  0  0  0  0  0
  139.0644  138.9794  153.4313 N   0  0  0  0  0  0  0  0  0  0  0  0
  139.1636  137.7836  153.9159 C   0  0  0  0  0  0  0  0  0  0  0  0
  140.4992  137.1116  154.0153 C   0  0  0  0  0  0  0  0  0  0  0  0
  141.4689  137.8773  154.1030 O   0  0  0  0  0  0  0  0  0  0  0  0
  140.5592  135.7455  154.0019 N   0  5  0  0  0  0  0  0  0  0  0  0
  141.4294  134.9451  153.1423 C   0  0  0  0  0  0  0  0  0  0  0  0
  142.8982  135.1441  153.5635 C   0  0  0  0  0  0  0  0  0  0  0  0
  143.7791  134.0610  153.0506 N   0  3  1  0  0  0  0  0  0  0  0  0
  143.6258  133.8342  151.5933 C   0  0  0  0  0  0  0  0  0  0  0  0
  144.4894  132.6422  151.1395 C   0  0  1  0  0  0  0  0  0  0  0  0
  144.4188  132.4226  149.6243 C   0  0  0  0  0  0  0  0  0  0  0  0
  145.8472  132.8882  151.4905 O   0  0  0  0  0  0  0  0  0  0  0  0
  146.0331  133.0282  152.8951 C   0  0  1  0  0  0  0  0  0  0  0  0
  147.5322  133.1935  153.1670 C   0  0  0  0  0  0  0  0  0  0  0  0
  145.2157  134.2355  153.3903 C   0  0  0  0  0  0  0  0  0  0  0  0
  137.9756  137.0733  154.3745 C   0  0  0  0  0  0  0  0  0  0  0  0
  136.7792  137.6941  154.2843 C   0  0  0  0  0  0  0  0  0  0  0  0
  136.6469  139.0463  153.7423 C   0  0  0  0  0  0  0  0  0  0  0  0
  135.5695  139.6356  153.6591 O   0  0  0  0  0  0  0  0  0  0  0  0
  135.0434  143.2335  151.5593 H   0  0  0  0  0  0  0  0  0  0  0  0
  136.5337  142.3701  151.1785 H   0  0  0  0  0  0  0  0  0  0  0  0
  136.5967  143.9251  152.0284 H   0  0  0  0  0  0  0  0  0  0  0  0
  137.8297  142.8678  153.7906 H   0  0  0  0  0  0  0  0  0  0  0  0
  137.0865  141.5589  154.7050 H   0  0  0  0  0  0  0  0  0  0  0  0
  137.4098  140.9730  151.7917 H   0  0  0  0  0  0  0  0  0  0  0  0
  138.9186  141.2452  152.6062 H   0  0  0  0  0  0  0  0  0  0  0  0
  141.1944  133.8811  153.1873 H   0  0  0  0  0  0  0  0  0  0  0  0
  141.3204  135.2281  152.0949 H   0  0  0  0  0  0  0  0  0  0  0  0
  143.2336  136.1036  153.1660 H   0  0  0  0  0  0  0  0  0  0  0  0
  142.9895  135.2196  154.6485 H   0  0  0  0  0  0  0  0  0  0  0  0
  142.5786  133.6355  151.3608 H   0  0  0  0  0  0  0  0  0  0  0  0
  143.9103  134.7389  151.0531 H   0  0  0  0  0  0  0  0  0  0  0  0
  144.1502  131.7321  151.6375 H   0  0  0  0  0  0  0  0  0  0  0  0
  143.3973  132.2141  149.3052 H   0  0  0  0  0  0  0  0  0  0  0  0
  145.0394  131.5782  149.3234 H   0  0  0  0  0  0  0  0  0  0  0  0
  144.7665  133.3017  149.0807 H   0  0  0  0  0  0  0  0  0  0  0  0
  145.6884  132.1213  153.3954 H   0  0  0  0  0  0  0  0  0  0  0  0
  147.7287  133.2895  154.2352 H   0  0  0  0  0  0  0  0  0  0  0  0
  147.9288  134.0805  152.6723 H   0  0  0  0  0  0  0  0  0  0  0  0
  148.0911  132.3309  152.8037 H   0  0  0  0  0  0  0  0  0  0  0  0
  145.5883  135.1552  152.9357 H   0  0  0  0  0  0  0  0  0  0  0  0
  145.3392  134.3420  154.4687 H   0  0  0  0  0  0  0  0  0  0  0  0
  138.0314  136.0750  154.7824 H   0  0  0  0  0  0  0  0  0  0  0  0
  135.8926  137.1784  154.6229 H   0  0  0  0  0  0  0  0  0  0  0  0
  143.4664  133.2131  153.5018 H   0  0  0  0  0  0  0  0  0  0  0  0
  1  2  1  0  0  0  0
  1 25  1  0  0  0  0
  1 26  1  0  0  0  0
  1 27  1  0  0  0  0
  2  3  1  0  0  0  0
  3  4  1  0  0  0  0
  3 28  1  0  0  0  0
  3 29  1  0  0  0  0
  4  5  1  0  0  0  0
  4 30  1  0  0  0  0
  4 31  1  0  0  0  0
  5 23  1  0  0  0  0
  5  6  1  0  0  0  0
  6  7  2  0  0  0  0
  7  8  1  0  0  0  0
  7 21  1  0  0  0  0
  8  9  2  0  0  0  0
  8 10  1  0  0  0  0
 10 11  1  0  0  0  0
 11 12  1  0  0  0  0
 11 32  1  0  0  0  0
 11 33  1  0  0  0  0
 12 13  1  0  0  0  0
 12 34  1  0  0  0  0
 12 35  1  0  0  0  0
 13 20  1  0  0  0  0
 13 14  1  0  0  0  0
 13 50  1  0  0  0  0
 14 15  1  0  0  0  0
 14 36  1  0  0  0  0
 14 37  1  0  0  0  0
 15 16  1  0  0  0  0
 15 17  1  0  0  0  0
 15 38  1  0  0  0  0
 16 39  1  0  0  0  0
 16 40  1  0  0  0  0
 16 41  1  0  0  0  0
 17 18  1  0  0  0  0
 18 19  1  0  0  0  0
 18 20  1  0  0  0  0
 18 42  1  0  0  0  0
 19 43  1  0  0  0  0
 19 44  1  0  0  0  0
 19 45  1  0  0  0  0
 20 46  1  0  0  0  0
 20 47  1  0  0  0  0
 21 22  2  0  0  0  0
 21 48  1  0  0  0  0
 22 23  1  0  0  0  0
 22 49  1  0  0  0  0
 23 24  2  0  0  0  0
M  CHG  1  10  -1
M  CHG  1  13   1
M  END
> <s_m_source_file>
AV-unprocessed.smi

> <i_m_source_file_index>
2001

> <i_lp_mmshare_version>
43012

> <i_f3d_flags>
0

> <s_epik_input>
W0NIM11PW0NIMl1bQ0gyXW4xbmMoW2NIXVtjSF1jMT1PKUMoPU8pW05IXVtDSDJdW0NIMl1OMltDSDJdW0NAQEhdKFtDSDNdKU9bQ0BASF0oW0NIM10pW0NIMl0y

> <s_epik_cmdline>
J2VwaWtfcHl0aG9uJywgJy1waCcsICc3LjAnLCAnLXRuJywgJzgnLCAnLW1hJywgJzIwMCcsICctbWV0YWxfYmluZGluZycsICctaW1hZScsICc8aW5maWxlLm1hZT4nLCAnLW9tYWUnLCAnPG91dGZpbGUubWFlPic=

> <r_lp_tautomer_probability>
1

> <r_epik_Ionization_Penalty>
6.90846

> <r_epik_Ionization_Penalty_Charging>
6.90846

> <r_epik_Ionization_Penalty_Neutral>
1.08445e-11

> <r_epik_State_Penalty>
7.54671

> <r_epik_Charging_Adjusted_Penalty>
14.4552

> <i_epik_Tot_Q>
0

> <i_epik_Tot_abs_Q>
2

> <r_epik_Metal_State_Penalty>
3.46181

> <b_epik_Metal_Only>
1

> <s_lp_Force_Field>
OPLS_2005

> <r_lp_Energy>
40.5373

> <b_lp_Chiralities_Consistent>
1

> <s_lp_Variant>
AV-unprocessed.smi:2001-8

> <Gold.Version>
5.8.1

> <Gold.Id.Protein>
6NUR|6NUR_protein|mol2

> <Gold.PLP.Fitness>
48.9558

> <Gold.PLP.PLP>
-42.3076

> <Gold.PLP.part.hbond>
-2.0000

> <Gold.PLP.part.metal>
0.0000

> <Gold.PLP.part.buried>
-8.3276

> <Gold.PLP.part.nonpolar>
-33.0545

> <Gold.PLP.part.repulsive>
0.4035

> <Gold.PLP.ligand.clash>
0.0000

> <Gold.PLP.ligand.torsion>
1.2298

> <Gold.PLP.Chemscore.Hbond>
3.0000

> <Gold.PLP.Chemscore.CHOScore>
0.0000

> <Gold.PLP.Chemscore.Metal>
0.0000

> <Gold.Chemscore.Hbonds>
donor molecule, donor type, donor heavy atom, donor atom, acceptor molecule, acceptor atom, score
      L1  H    13    50       P1 10957  1.72
      P1  H 11000 11005       L1    10  0.50

> <Gold.PLP.Chemscore.Internal.Correction>
0.1077

> <Gold.Rescore>
     Score         DG    S(hbond)    S(metal)    S(lipo)     H(rot)  DE(clash)    DE(int)     intcor
     13.47     -16.07       1.64        0.00      87.73       2.02       0.03       2.57       ----

> <Gold.Chemscore.Fitness>
13.4748

> <Gold.Chemscore.DG>
-16.0706

> <Gold.Chemscore.ZeroCoef>
-5.4800

> <Gold.Chemscore.Hbond>
1.6443

> <Gold.Chemscore.Metal>
0.0000

> <Gold.Chemscore.Lipo>
87.7297

> <Gold.Chemscore.Internal_Hbond>
0.0000

> <Gold.Chemscore.DEClash>
0.0251

> <Gold.Chemscore.DEInternal>
2.5708

> <Gold.Chemscore.Rot>
2.0179

> <Gold.Chemscore.Internal.Correction>
   9.000000E+99

> <Gold.Chemscore.Hbonds>
donor molecule, donor type, donor heavy atom, donor atom, acceptor molecule, acceptor atom, score
      L1  H    13    50       P1 10957  0.80
      P1  H 11000 11005       L1    10  0.33

> <Gold.Chemscore.Hbond.Weighted>
-5.4921

> <Gold.Chemscore.Metal.Weighted>
-0.0000

> <Gold.Chemscore.Lipo.Weighted>
-10.2644

> <Gold.Chemscore.Internal_Hbond.Weighted>
0.0000

> <Gold.Chemscore.DEClash.Weighted>
0.0251

> <Gold.Chemscore.DEInternal.Weighted>
2.5708

> <Gold.Chemscore.Rot.Weighted>
5.1659

> <Gold.Chemscore.Internal.Correction.Weighted>
   9.000000E+99

> <Gold.Protein.RotatedTorsions>
[ 6907 6896 6895 6894 ] final -148.97 input  -60.11 | X-H torsion
[ 7974 7965 7964 7962 ] final   47.92 input  175.53 | X-H torsion
[ 8008 7997 7996 7995 ] final  127.83 input   59.86 | X-H torsion
[ 10167 10162 10161 10158 ] final -164.72 input  -65.29 | X-H torsion
[ 10718 10713 10712 10709 ] final  138.42 input   66.30 | X-H torsion
[ 10763 10752 10751 10750 ] final   46.30 input  -60.55 | X-H torsion
[ 11005 11000 10999 10996 ] final   53.36 input  -57.11 | X-H torsion

> <Gold.Protein.ActiveResidues>
 VAL166  LYS551  ARG553  GLY616  TRP617  ASP618  TYR619  PRO620  LYS621  CYS622 
 ASP623  PHE694  ASN695  SER759  ASP760  ASP761  ALA762  ILE779  LEU786  VAL792 
 PHE793  MET794  SER795  GLU796  ALA797  LYS798  CYS799  TRP800  GLU811  SER814 

> <Gold.Protein.RotatedAtoms>
  151.1775  133.4746  159.2593 H   0  0  0  0  0  0  0  0  0  0  0  0  # atno 6907 bound_to 6896
  151.1293  135.0121  159.8585 H   0  0  0  0  0  0  0  0  0  0  0  0  # atno 6908 bound_to 6896
  152.5459  134.1679  159.8638 H   0  0  0  0  0  0  0  0  0  0  0  0  # atno 6909 bound_to 6896
  146.0252  139.4698  142.9872 H   0  0  0  0  0  0  0  0  0  0  0  0  # atno 7974 bound_to 7965
  156.2900  140.2659  156.2337 H   0  0  0  0  0  0  0  0  0  0  0  0  # atno 8008 bound_to 7997
  155.0047  140.0387  157.2393 H   0  0  0  0  0  0  0  0  0  0  0  0  # atno 8009 bound_to 7997
  154.7570  140.2754  155.6250 H   0  0  0  0  0  0  0  0  0  0  0  0  # atno 8010 bound_to 7997
  139.6231  144.0585  152.1951 H   0  0  0  0  0  0  0  0  0  0  0  0  # atno 10167 bound_to 10162
  157.4255  131.1043  151.0307 H   0  0  0  0  0  0  0  0  0  0  0  0  # atno 10718 bound_to 10713
  152.9812  135.6012  154.3577 H   0  0  0  0  0  0  0  0  0  0  0  0  # atno 10763 bound_to 10752
  154.3261  135.2769  155.2497 H   0  0  0  0  0  0  0  0  0  0  0  0  # atno 10764 bound_to 10752
  154.4642  135.5958  153.6332 H   0  0  0  0  0  0  0  0  0  0  0  0  # atno 10765 bound_to 10752
  140.0774  134.5386  155.8982 H   0  0  0  0  0  0  0  0  0  0  0  0  # atno 11005 bound_to 11000
  145.7129  141.0100  143.1444 LP  0  0  0  0  0  0  0  0  0  0  0  0  # atno 17320 bound_to 7965
  144.7006  139.8778  143.7445 LP  0  0  0  0  0  0  0  0  0  0  0  0  # atno 17321 bound_to 7965
  140.0232  144.6137  150.7549 LP  0  0  0  0  0  0  0  0  0  0  0  0  # atno 17342 bound_to 10162
  140.7394  143.2791  151.3652 LP  0  0  0  0  0  0  0  0  0  0  0  0  # atno 17343 bound_to 10162
  157.1222  130.6066  149.5508 LP  0  0  0  0  0  0  0  0  0  0  0  0  # atno 17370 bound_to 10713
  155.9895  130.4943  150.7217 LP  0  0  0  0  0  0  0  0  0  0  0  0  # atno 17371 bound_to 10713
  141.2034  133.6632  156.6063 LP  0  0  0  0  0  0  0  0  0  0  0  0  # atno 17394 bound_to 11000
  140.3538  134.7746  157.4486 LP  0  0  0  0  0  0  0  0  0  0  0  0  # atno 17395 bound_to 11000

$$$$
