AV-unprocessed.smi:3187|AV-procd|sdf|12175|dock4
  -GOLD-   2272018 13D 1   1.00000     0.00000
 Structure written by MMmdl.
 41 42  0  0  0  0  0  0  0  0  2 V2000
  148.4423  140.5681  154.0915 C   0  0  0  0  0  0  0  0  0  0  0  0
  149.7281  140.0856  154.7430 C   0  0  0  0  0  0  0  0  0  0  0  0
  150.4854  139.1386  154.1546 C   0  0  0  0  0  0  0  0  0  0  0  0
  151.7531  138.5494  154.7482 C   0  0  0  0  0  0  0  0  0  0  0  0
  152.2144  139.2708  156.0251 C   0  0  0  0  0  0  0  0  0  0  0  0
  151.0183  139.7057  156.8893 C   0  0  1  0  0  0  0  0  0  0  0  0
  151.4592  140.2135  158.2730 C   0  0  0  0  0  0  0  0  0  0  0  0
  150.0933  140.6825  156.1090 C   0  0  1  0  0  0  0  0  0  0  0  0
  150.6879  142.1103  155.9861 C   0  0  0  0  0  0  0  0  0  0  0  0
  150.4827  142.9255  157.1994 N   0  3  0  0  0  0  0  0  0  0  0  0
  151.7051  143.5862  157.6955 C   0  0  0  0  0  0  0  0  0  0  0  0
  151.4203  144.3837  158.9752 C   0  0  0  0  0  0  0  0  0  0  0  0
  152.0406  143.7681  160.1307 N   0  0  0  0  0  0  0  0  0  0  0  0
  151.9604  144.1917  161.4507 C   0  0  0  0  0  0  0  0  0  0  0  0
  152.7113  143.3082  162.1931 C   0  0  0  0  0  0  0  0  0  0  0  0
  153.2589  142.3398  161.3551 N   0  0  0  0  0  0  0  0  0  0  0  0
  152.8172  142.6761  160.1505 C   0  0  0  0  0  0  0  0  0  0  0  0
  147.6215  140.5571  154.8091 H   0  0  0  0  0  0  0  0  0  0  0  0
  148.1600  139.9232  153.2585 H   0  0  0  0  0  0  0  0  0  0  0  0
  148.5480  141.5766  153.6956 H   0  0  0  0  0  0  0  0  0  0  0  0
  150.1801  138.7255  153.2041 H   0  0  0  0  0  0  0  0  0  0  0  0
  151.5511  137.5017  154.9728 H   0  0  0  0  0  0  0  0  0  0  0  0
  152.5466  138.5635  154.0006 H   0  0  0  0  0  0  0  0  0  0  0  0
  152.8766  138.6139  156.5906 H   0  0  0  0  0  0  0  0  0  0  0  0
  152.8129  140.1422  155.7583 H   0  0  0  0  0  0  0  0  0  0  0  0
  150.4284  138.8078  157.0823 H   0  0  0  0  0  0  0  0  0  0  0  0
  152.1837  141.0245  158.1998 H   0  0  0  0  0  0  0  0  0  0  0  0
  151.9322  139.4140  158.8439 H   0  0  0  0  0  0  0  0  0  0  0  0
  150.6074  140.5687  158.8533 H   0  0  0  0  0  0  0  0  0  0  0  0
  149.1683  140.7559  156.6833 H   0  0  0  0  0  0  0  0  0  0  0  0
  151.7625  142.0670  155.8149 H   0  0  0  0  0  0  0  0  0  0  0  0
  150.2502  142.6290  155.1326 H   0  0  0  0  0  0  0  0  0  0  0  0
  149.7958  143.6361  156.9916 H   0  0  0  0  0  0  0  0  0  0  0  0
  152.4684  142.8307  157.8870 H   0  0  0  0  0  0  0  0  0  0  0  0
  152.0936  144.2500  156.9219 H   0  0  0  0  0  0  0  0  0  0  0  0
  151.7955  145.4039  158.8823 H   0  0  0  0  0  0  0  0  0  0  0  0
  150.3462  144.4538  159.1537 H   0  0  0  0  0  0  0  0  0  0  0  0
  151.3928  145.0621  161.7459 H   0  0  0  0  0  0  0  0  0  0  0  0
  152.8994  143.2952  163.2565 H   0  0  0  0  0  0  0  0  0  0  0  0
  153.0675  142.1165  159.2610 H   0  0  0  0  0  0  0  0  0  0  0  0
  150.1196  142.3284  157.9288 H   0  0  0  0  0  0  0  0  0  0  0  0
  1  2  1  0  0  0  0
  1 18  1  0  0  0  0
  1 19  1  0  0  0  0
  1 20  1  0  0  0  0
  2  8  1  0  0  0  0
  2  3  2  0  0  0  0
  3  4  1  0  0  0  0
  3 21  1  0  0  0  0
  4  5  1  0  0  0  0
  4 22  1  0  0  0  0
  4 23  1  0  0  0  0
  5  6  1  0  0  0  0
  5 24  1  0  0  0  0
  5 25  1  0  0  0  0
  6  7  1  0  0  0  0
  6  8  1  0  0  0  0
  6 26  1  0  0  0  0
  7 27  1  0  0  0  0
  7 28  1  0  0  0  0
  7 29  1  0  0  0  0
  8  9  1  0  0  0  0
  8 30  1  0  0  0  0
  9 10  1  0  0  0  0
  9 31  1  0  0  0  0
  9 32  1  0  0  0  0
 10 11  1  0  0  0  0
 10 33  1  0  0  0  0
 10 41  1  0  0  0  0
 11 12  1  0  0  0  0
 11 34  1  0  0  0  0
 11 35  1  0  0  0  0
 12 13  1  0  0  0  0
 12 36  1  0  0  0  0
 12 37  1  0  0  0  0
 13 17  1  0  0  0  0
 13 14  1  0  0  0  0
 14 15  2  0  0  0  0
 14 38  1  0  0  0  0
 15 16  1  0  0  0  0
 15 39  1  0  0  0  0
 16 17  2  0  0  0  0
 17 40  1  0  0  0  0
M  CHG  1  10   1
M  END
> <s_m_source_file>
AV-unprocessed.smi

> <i_m_source_file_index>
3187

> <i_lp_mmshare_version>
43012

> <i_f3d_flags>
0

> <s_epik_input>
W0NIM11DMT1bQ0hdW0NIMl1bQ0gyXVtDQEBIXShbQ0gzXSlbQ0BIXTFbQ0gyXVtOSF1bQ0gyXVtDSDJdbjJbY0hdW2NIXW5bY0hdMg==

> <s_epik_cmdline>
J2VwaWtfcHl0aG9uJywgJy1waCcsICc3LjAnLCAnLXRuJywgJzgnLCAnLW1hJywgJzIwMCcsICctbWV0YWxfYmluZGluZycsICctaW1hZScsICc8aW5maWxlLm1hZT4nLCAnLW9tYWUnLCAnPG91dGZpbGUubWFlPic=

> <r_lp_tautomer_probability>
1

> <r_epik_Ionization_Penalty>
0.0501625

> <r_epik_Ionization_Penalty_Charging>
0.0501625

> <r_epik_Ionization_Penalty_Neutral>
0

> <r_epik_State_Penalty>
0.0972392

> <r_epik_Charging_Adjusted_Penalty>
0.147402

> <i_epik_Tot_Q>
1

> <i_epik_Tot_abs_Q>
1

> <r_epik_Metal_State_Penalty>
0.000104376

> <b_epik_Metal_Only>
0

> <s_lp_Force_Field>
OPLS_2005

> <r_lp_Energy>
16.942

> <b_lp_Chiralities_Consistent>
1

> <s_lp_Variant>
AV-unprocessed.smi:3187-1

> <Gold.Version>
5.8.1

> <Gold.Id.Protein>
6NUR|6NUR_protein|mol2

> <Gold.PLP.Fitness>
48.9621

> <Gold.PLP.PLP>
-44.8518

> <Gold.PLP.part.hbond>
-1.0000

> <Gold.PLP.part.metal>
0.0000

> <Gold.PLP.part.buried>
-4.2482

> <Gold.PLP.part.nonpolar>
-38.5537

> <Gold.PLP.part.repulsive>
0.0272

> <Gold.PLP.ligand.clash>
0.0000

> <Gold.PLP.ligand.torsion>
0.9556

> <Gold.PLP.Chemscore.Hbond>
2.0000

> <Gold.PLP.Chemscore.CHOScore>
0.0000

> <Gold.PLP.Chemscore.Metal>
0.0000

> <Gold.Chemscore.Hbonds>
donor molecule, donor type, donor heavy atom, donor atom, acceptor molecule, acceptor atom, score
      L1  H    10    33       P1  8028  1.98

> <Gold.PLP.Chemscore.Internal.Correction>
0.0216

> <Gold.Rescore>
     Score         DG    S(hbond)    S(metal)    S(lipo)     H(rot)  DE(clash)    DE(int)     intcor
     15.09     -16.18       0.99        0.00     104.55       1.89       0.03       1.06       ----

> <Gold.Chemscore.Fitness>
15.0856

> <Gold.Chemscore.DG>
-16.1819

> <Gold.Chemscore.ZeroCoef>
-5.4800

> <Gold.Chemscore.Hbond>
0.9868

> <Gold.Chemscore.Metal>
0.0000

> <Gold.Chemscore.Lipo>
104.5478

> <Gold.Chemscore.Internal_Hbond>
0.0000

> <Gold.Chemscore.DEClash>
0.0350

> <Gold.Chemscore.DEInternal>
1.0613

> <Gold.Chemscore.Rot>
1.8853

> <Gold.Chemscore.Internal.Correction>
   9.000000E+99

> <Gold.Chemscore.Hbonds>
donor molecule, donor type, donor heavy atom, donor atom, acceptor molecule, acceptor atom, score
      L1  H    10    33       P1  8028  0.90

> <Gold.Chemscore.Hbond.Weighted>
-3.2960

> <Gold.Chemscore.Metal.Weighted>
-0.0000

> <Gold.Chemscore.Lipo.Weighted>
-12.2321

> <Gold.Chemscore.Internal_Hbond.Weighted>
0.0000

> <Gold.Chemscore.DEClash.Weighted>
0.0350

> <Gold.Chemscore.DEInternal.Weighted>
1.0613

> <Gold.Chemscore.Rot.Weighted>
4.8263

> <Gold.Chemscore.Internal.Correction.Weighted>
   9.000000E+99

> <Gold.Protein.RotatedTorsions>
[ 6907 6896 6895 6894 ] final  -23.10 input  -60.11 | X-H torsion
[ 7974 7965 7964 7962 ] final -148.51 input  175.53 | X-H torsion
[ 8008 7997 7996 7995 ] final -144.20 input   59.86 | X-H torsion
[ 10167 10162 10161 10158 ] final   66.32 input  -65.29 | X-H torsion
[ 10718 10713 10712 10709 ] final   81.74 input   66.30 | X-H torsion
[ 10763 10752 10751 10750 ] final  -75.60 input  -60.55 | X-H torsion
[ 11005 11000 10999 10996 ] final -162.43 input  -57.11 | X-H torsion

> <Gold.Protein.ActiveResidues>
 VAL166  LYS551  ARG553  GLY616  TRP617  ASP618  TYR619  PRO620  LYS621  CYS622 
 ASP623  PHE694  ASN695  SER759  ASP760  ASP761  ALA762  ILE779  LEU786  VAL792 
 PHE793  MET794  SER795  GLU796  ALA797  LYS798  CYS799  TRP800  GLU811  SER814 

> <Gold.Protein.RotatedAtoms>
  151.2089  135.0473  159.8902 H   0  0  0  0  0  0  0  0  0  0  0  0  # atno 6907 bound_to 6896
  152.5426  134.0767  159.8228 H   0  0  0  0  0  0  0  0  0  0  0  0  # atno 6908 bound_to 6896
  151.0918  133.5262  159.2646 H   0  0  0  0  0  0  0  0  0  0  0  0  # atno 6909 bound_to 6896
  144.8025  140.5186  143.5698 H   0  0  0  0  0  0  0  0  0  0  0  0  # atno 7974 bound_to 7965
  155.5231  140.0593  157.2903 H   0  0  0  0  0  0  0  0  0  0  0  0  # atno 8008 bound_to 7997
  154.4510  140.1949  156.0464 H   0  0  0  0  0  0  0  0  0  0  0  0  # atno 8009 bound_to 7997
  156.0705  140.3260  155.7574 H   0  0  0  0  0  0  0  0  0  0  0  0  # atno 8010 bound_to 7997
  140.1016  144.4898  150.7033 H   0  0  0  0  0  0  0  0  0  0  0  0  # atno 10167 bound_to 10162
  157.6840  131.0017  150.2271 H   0  0  0  0  0  0  0  0  0  0  0  0  # atno 10718 bound_to 10713
  154.4887  135.5825  153.6443 H   0  0  0  0  0  0  0  0  0  0  0  0  # atno 10763 bound_to 10752
  152.9859  135.6107  154.3152 H   0  0  0  0  0  0  0  0  0  0  0  0  # atno 10764 bound_to 10752
  154.3050  135.2846  155.2572 H   0  0  0  0  0  0  0  0  0  0  0  0  # atno 10765 bound_to 10752
  140.6093  134.4865  157.5214 H   0  0  0  0  0  0  0  0  0  0  0  0  # atno 11005 bound_to 11000
  145.5519  139.1477  143.3389 LP  0  0  0  0  0  0  0  0  0  0  0  0  # atno 17320 bound_to 7965
  146.2309  140.5657  142.8976 LP  0  0  0  0  0  0  0  0  0  0  0  0  # atno 17321 bound_to 7965
  140.6974  143.2413  151.4961 LP  0  0  0  0  0  0  0  0  0  0  0  0  # atno 17342 bound_to 10162
  139.5668  144.2024  152.1777 LP  0  0  0  0  0  0  0  0  0  0  0  0  # atno 17343 bound_to 10162
  156.2911  130.3746  149.7841 LP  0  0  0  0  0  0  0  0  0  0  0  0  # atno 17370 bound_to 10713
  156.5500  130.8337  151.3296 LP  0  0  0  0  0  0  0  0  0  0  0  0  # atno 17371 bound_to 10713
  139.9199  134.8170  156.1246 LP  0  0  0  0  0  0  0  0  0  0  0  0  # atno 17394 bound_to 11000
  141.0819  133.6751  156.2353 LP  0  0  0  0  0  0  0  0  0  0  0  0  # atno 17395 bound_to 11000

$$$$
