AV-unprocessed.smi:1417|AV-procd|sdf|5770|dock3
  -GOLD-   22720 5413D 1   1.00000     0.00000
 Structure written by MMmdl.
 39 40  0  0  0  0  0  0  0  0  3 V2000
  146.2423  134.0526  162.0701 C   0  0  0  0  0  0  0  0  0  0  0  0
  147.0381  135.1048  161.3765 C   0  0  0  0  0  0  0  0  0  0  0  0
  147.9271  135.0635  160.3400 C   0  0  0  0  0  0  0  0  0  0  0  0
  148.3164  136.4226  160.1919 C   0  0  0  0  0  0  0  0  0  0  0  0
  149.1798  136.9011  159.2828 N   0  5  0  0  0  0  0  0  0  0  0  0
  149.5136  136.1573  158.2036 C   0  0  0  0  0  0  0  0  0  0  0  0
  149.9580  135.0072  158.2145 O   0  0  0  0  0  0  0  0  0  0  0  0
  149.3229  136.7906  157.0375 N   0  0  0  0  0  0  0  0  0  0  0  0
  149.5974  136.2540  155.7051 C   0  0  2  0  0  0  0  0  0  0  0  0
  150.4263  137.2368  154.8545 C   0  0  0  0  0  0  0  0  0  0  0  0
  149.6126  138.4823  154.4618 C   0  0  0  0  0  0  0  0  0  0  0  0
  148.3621  138.1016  153.7522 N   0  3  2  0  0  0  0  0  0  0  0  0
  147.6100  139.2707  153.2280 C   0  0  0  0  0  0  0  0  0  0  0  0
  146.7266  138.9242  152.0248 C   0  0  0  0  0  0  0  0  0  0  0  0
  145.4058  138.9833  152.2109 N   0  0  0  0  0  0  0  0  0  0  0  0
  147.2225  138.5910  150.9500 O   0  0  0  0  0  0  0  0  0  0  0  0
  147.5147  137.2056  154.5800 C   0  0  0  0  0  0  0  0  0  0  0  0
  148.2790  135.9304  154.9815 C   0  0  0  0  0  0  0  0  0  0  0  0
  147.7049  137.2209  161.0509 N   0  0  0  0  0  0  0  0  0  0  0  0
  146.8874  136.3826  161.8182 O   0  0  0  0  0  0  0  0  0  0  0  0
  145.4076  133.7288  161.4485 H   0  0  0  0  0  0  0  0  0  0  0  0
  145.8384  134.4226  163.0128 H   0  0  0  0  0  0  0  0  0  0  0  0
  146.8608  133.1819  162.2877 H   0  0  0  0  0  0  0  0  0  0  0  0
  148.2505  134.1993  159.7790 H   0  0  0  0  0  0  0  0  0  0  0  0
  148.9487  137.7267  157.0843 H   0  0  0  0  0  0  0  0  0  0  0  0
  150.1577  135.3248  155.8225 H   0  0  0  0  0  0  0  0  0  0  0  0
  151.3325  137.5341  155.3833 H   0  0  0  0  0  0  0  0  0  0  0  0
  150.7608  136.7304  153.9481 H   0  0  0  0  0  0  0  0  0  0  0  0
  149.3679  139.0687  155.3490 H   0  0  0  0  0  0  0  0  0  0  0  0
  150.2253  139.1207  153.8247 H   0  0  0  0  0  0  0  0  0  0  0  0
  146.9432  139.6557  154.0008 H   0  0  0  0  0  0  0  0  0  0  0  0
  148.2997  140.0792  152.9793 H   0  0  0  0  0  0  0  0  0  0  0  0
  144.7760  138.7684  151.4512 H   0  0  0  0  0  0  0  0  0  0  0  0
  145.0383  139.2472  153.1142 H   0  0  0  0  0  0  0  0  0  0  0  0
  147.1734  137.7421  155.4668 H   0  0  0  0  0  0  0  0  0  0  0  0
  146.6229  136.9218  154.0201 H   0  0  0  0  0  0  0  0  0  0  0  0
  148.4962  135.3479  154.0850 H   0  0  0  0  0  0  0  0  0  0  0  0
  147.6496  135.2973  155.6082 H   0  0  0  0  0  0  0  0  0  0  0  0
  148.6369  137.5619  152.9436 H   0  0  0  0  0  0  0  0  0  0  0  0
  1  2  1  0  0  0  0
  1 21  1  0  0  0  0
  1 22  1  0  0  0  0
  1 23  1  0  0  0  0
  2 20  1  0  0  0  0
  2  3  2  0  0  0  0
  3  4  1  0  0  0  0
  3 24  1  0  0  0  0
  4  5  1  0  0  0  0
  4 19  2  0  0  0  0
  5  6  1  0  0  0  0
  6  7  2  0  0  0  0
  6  8  1  0  0  0  0
  8  9  1  0  0  0  0
  8 25  1  0  0  0  0
  9 18  1  0  0  0  0
  9 10  1  0  0  0  0
  9 26  1  0  0  0  0
 10 11  1  0  0  0  0
 10 27  1  0  0  0  0
 10 28  1  0  0  0  0
 11 12  1  0  0  0  0
 11 29  1  0  0  0  0
 11 30  1  0  0  0  0
 12 13  1  0  0  0  0
 12 17  1  0  0  0  0
 12 39  1  0  0  0  0
 13 14  1  0  0  0  0
 13 31  1  0  0  0  0
 13 32  1  0  0  0  0
 14 15  1  0  0  0  0
 14 16  2  0  0  0  0
 15 33  1  0  0  0  0
 15 34  1  0  0  0  0
 17 18  1  0  0  0  0
 17 35  1  0  0  0  0
 17 36  1  0  0  0  0
 18 37  1  0  0  0  0
 18 38  1  0  0  0  0
 19 20  1  0  0  0  0
M  CHG  1   5  -1
M  CHG  1  12   1
M  END
> <s_m_source_file>
AV-unprocessed.smi

> <i_m_source_file_index>
1417

> <i_lp_mmshare_version>
43012

> <i_f3d_flags>
0

> <s_epik_input>
W0NIM11jMVtjSF1jKG5vMSlbTkhdQyg9TylbTkhdW0NIXTJbQ0gyXVtDSDJdTihbQ0gyXVtDSDJdMilbQ0gyXUMoPU8pW05IMl0=

> <s_epik_cmdline>
J2VwaWtfcHl0aG9uJywgJy1waCcsICc3LjAnLCAnLXRuJywgJzgnLCAnLW1hJywgJzIwMCcsICctbWV0YWxfYmluZGluZycsICctaW1hZScsICc8aW5maWxlLm1hZT4nLCAnLW9tYWUnLCAnPG91dGZpbGUubWFlPic=

> <r_epik_Ionization_Penalty>
7.07562

> <r_epik_Ionization_Penalty_Charging>
7.07548

> <r_epik_Ionization_Penalty_Neutral>
0.00013758

> <r_epik_State_Penalty>
7.16607

> <r_epik_Charging_Adjusted_Penalty>
14.2416

> <i_epik_Tot_Q>
0

> <i_epik_Tot_abs_Q>
2

> <r_epik_Metal_State_Penalty>
3.11438

> <b_epik_Metal_Only>
1

> <s_lp_Force_Field>
OPLS_2005

> <r_lp_Energy>
2.10932

> <b_lp_Chiralities_Consistent>
1

> <s_lp_Variant>
AV-unprocessed.smi:1417-6

> <Gold.Version>
5.8.1

> <Gold.Id.Protein>
6NUR|6NUR_protein|mol2

> <Gold.PLP.Fitness>
46.9531

> <Gold.PLP.PLP>
-28.6014

> <Gold.PLP.part.hbond>
-6.1737

> <Gold.PLP.part.metal>
0.0000

> <Gold.PLP.part.buried>
-3.1747

> <Gold.PLP.part.nonpolar>
-20.2519

> <Gold.PLP.part.repulsive>
2.0412

> <Gold.PLP.ligand.clash>
0.0000

> <Gold.PLP.ligand.torsion>
0.9506

> <Gold.PLP.Chemscore.Hbond>
6.7360

> <Gold.PLP.Chemscore.CHOScore>
0.0000

> <Gold.PLP.Chemscore.Metal>
0.0000

> <Gold.Chemscore.Hbonds>
donor molecule, donor type, donor heavy atom, donor atom, acceptor molecule, acceptor atom, score
      L1  H    12    39       P1  7948  2.00
      L1  H    15    33       P1 10171  1.00
      P1  H  6896  6908       L1     7  0.98
      P1  H  6931  6943       L1    19  0.90
      P1  H  6934  6947       L1    19  0.88
      P1  H  7954  7966       L1    16  0.96

> <Gold.PLP.Chemscore.Internal.Correction>
0.0449

> <Gold.Rescore>
     Score         DG    S(hbond)    S(metal)    S(lipo)     H(rot)  DE(clash)    DE(int)     intcor
     21.28     -23.53       5.43        0.00      43.57       2.02       0.19       2.06       ----

> <Gold.Chemscore.Fitness>
21.2787

> <Gold.Chemscore.DG>
-23.5296

> <Gold.Chemscore.ZeroCoef>
-5.4800

> <Gold.Chemscore.Hbond>
5.4278

> <Gold.Chemscore.Metal>
0.0000

> <Gold.Chemscore.Lipo>
43.5711

> <Gold.Chemscore.Internal_Hbond>
0.0000

> <Gold.Chemscore.DEClash>
0.1882

> <Gold.Chemscore.DEInternal>
2.0626

> <Gold.Chemscore.Rot>
2.0222

> <Gold.Chemscore.Internal.Correction>
   9.000000E+99

> <Gold.Chemscore.Hbonds>
donor molecule, donor type, donor heavy atom, donor atom, acceptor molecule, acceptor atom, score
      L1  H    12    39       P1  7948  1.00
      L1  H    15    33       P1 10171  1.00
      L1  H    15    34       P1 10175  0.03
      P1  H  6896  6908       L1     7  0.88
      P1  H  6931  6943       L1    19  0.56
      P1  H  6934  6947       L1    19  0.82
      P1  H  7954  7966       L1    16  0.90

> <Gold.Chemscore.Hbond.Weighted>
-18.1287

> <Gold.Chemscore.Metal.Weighted>
-0.0000

> <Gold.Chemscore.Lipo.Weighted>
-5.0978

> <Gold.Chemscore.Internal_Hbond.Weighted>
0.0000

> <Gold.Chemscore.DEClash.Weighted>
0.1882

> <Gold.Chemscore.DEInternal.Weighted>
2.0626

> <Gold.Chemscore.Rot.Weighted>
5.1769

> <Gold.Chemscore.Internal.Correction.Weighted>
   9.000000E+99

> <Gold.Protein.RotatedTorsions>
[ 6907 6896 6895 6894 ] final  155.77 input  -60.11 | X-H torsion
[ 7974 7965 7964 7962 ] final -136.25 input  175.53 | X-H torsion
[ 8008 7997 7996 7995 ] final  -40.31 input   59.86 | X-H torsion
[ 10167 10162 10161 10158 ] final   15.17 input  -65.29 | X-H torsion
[ 10718 10713 10712 10709 ] final   76.16 input   66.30 | X-H torsion
[ 10763 10752 10751 10750 ] final -115.10 input  -60.55 | X-H torsion
[ 11005 11000 10999 10996 ] final  -89.03 input  -57.11 | X-H torsion

> <Gold.Protein.ActiveResidues>
 VAL166  LYS551  ARG553  GLY616  TRP617  ASP618  TYR619  PRO620  LYS621  CYS622 
 ASP623  PHE694  ASN695  SER759  ASP760  ASP761  ALA762  ILE779  LEU786  VAL792 
 PHE793  MET794  SER795  GLU796  ALA797  LYS798  CYS799  TRP800  GLU811  SER814 

> <Gold.Protein.RotatedAtoms>
  152.0394  133.3971  159.4330 H   0  0  0  0  0  0  0  0  0  0  0  0  # atno 6907 bound_to 6896
  150.6876  134.3432  159.4886 H   0  0  0  0  0  0  0  0  0  0  0  0  # atno 6908 bound_to 6896
  152.1229  134.9192  160.0613 H   0  0  0  0  0  0  0  0  0  0  0  0  # atno 6909 bound_to 6896
  144.8943  140.6685  143.5125 H   0  0  0  0  0  0  0  0  0  0  0  0  # atno 7974 bound_to 7965
  154.4013  140.1528  156.3007 H   0  0  0  0  0  0  0  0  0  0  0  0  # atno 8008 bound_to 7997
  155.8703  140.3449  155.5795 H   0  0  0  0  0  0  0  0  0  0  0  0  # atno 8009 bound_to 7997
  155.7781  140.0839  157.2064 H   0  0  0  0  0  0  0  0  0  0  0  0  # atno 8010 bound_to 7997
  140.5885  143.8841  150.6852 H   0  0  0  0  0  0  0  0  0  0  0  0  # atno 10167 bound_to 10162
  157.6662  130.9761  150.1457 H   0  0  0  0  0  0  0  0  0  0  0  0  # atno 10718 bound_to 10713
  154.8467  135.4394  154.1609 H   0  0  0  0  0  0  0  0  0  0  0  0  # atno 10763 bound_to 10752
  153.2746  135.6948  153.7452 H   0  0  0  0  0  0  0  0  0  0  0  0  # atno 10764 bound_to 10752
  153.6679  135.3424  155.3120 H   0  0  0  0  0  0  0  0  0  0  0  0  # atno 10765 bound_to 10752
  141.1592  133.7605  156.9536 H   0  0  0  0  0  0  0  0  0  0  0  0  # atno 11005 bound_to 11000
  145.3727  139.1655  143.4323 LP  0  0  0  0  0  0  0  0  0  0  0  0  # atno 17320 bound_to 7965
  146.3072  140.3800  142.8683 LP  0  0  0  0  0  0  0  0  0  0  0  0  # atno 17321 bound_to 7965
  140.2358  143.3701  152.1527 LP  0  0  0  0  0  0  0  0  0  0  0  0  # atno 17342 bound_to 10162
  139.5213  144.7044  151.5399 LP  0  0  0  0  0  0  0  0  0  0  0  0  # atno 17343 bound_to 10162
  156.2268  130.3678  149.8491 LP  0  0  0  0  0  0  0  0  0  0  0  0  # atno 17370 bound_to 10713
  156.6328  130.8673  151.3499 LP  0  0  0  0  0  0  0  0  0  0  0  0  # atno 17371 bound_to 10713
  140.1241  134.9398  157.2244 LP  0  0  0  0  0  0  0  0  0  0  0  0  # atno 17394 bound_to 11000
  140.3035  134.3104  155.7284 LP  0  0  0  0  0  0  0  0  0  0  0  0  # atno 17395 bound_to 11000

$$$$
