AV-unprocessed.smi:1487|AV-procd|sdf|6011|dock3
  -GOLD-   22720 6113D 1   1.00000     0.00000
 Structure written by MMmdl.
 48 50  0  0  0  0  0  0  0  0  2 V2000
  152.5666  143.9810  161.6912 C   0  0  0  0  0  0  0  0  0  0  0  0
  152.4061  143.0670  160.4893 C   0  0  0  0  0  0  0  0  0  0  0  0
  152.7296  141.6978  160.6198 C   0  0  0  0  0  0  0  0  0  0  0  0
  152.5931  140.8142  159.5270 C   0  0  0  0  0  0  0  0  0  0  0  0
  152.8486  139.4570  159.4317 N   0  0  0  0  0  0  0  0  0  0  0  0
  152.5257  139.2114  158.1658 C   0  0  0  0  0  0  0  0  0  0  0  0
  152.0956  140.2513  157.4259 N   0  0  0  0  0  0  0  0  0  0  0  0
  151.6933  140.2208  156.0308 C   0  0  0  0  0  0  0  0  0  0  0  0
  152.0597  138.8918  155.3435 C   0  0  2  0  0  0  0  0  0  0  0  0
  153.4301  138.9096  154.9921 O   0  0  0  0  0  0  0  0  0  0  0  0
  151.2288  138.6602  154.0663 C   0  0  0  0  0  0  0  0  0  0  0  0
  150.1559  137.6528  154.2654 N   0  3  1  0  0  0  0  0  0  0  0  0
  150.6205  136.4327  154.9765 C   0  0  0  0  0  0  0  0  0  0  0  0
  149.5237  135.3572  154.9952 C   0  0  0  0  0  0  0  0  0  0  0  0
  148.2374  135.8956  155.6380 C   0  0  0  0  0  0  0  0  0  0  0  0
  147.7919  137.2071  154.9693 C   0  0  2  0  0  0  0  0  0  0  0  0
  147.2998  136.9560  153.6678 O   0  0  0  0  0  0  0  0  0  0  0  0
  148.9414  138.2317  154.8982 C   0  0  0  0  0  0  0  0  0  0  0  0
  152.1210  141.3418  158.2894 C   0  0  0  0  0  0  0  0  0  0  0  0
  151.7982  142.7029  158.1467 C   0  0  0  0  0  0  0  0  0  0  0  0
  151.9394  143.5718  159.2490 C   0  0  0  0  0  0  0  0  0  0  0  0
  151.5851  145.0392  159.0862 C   0  0  0  0  0  0  0  0  0  0  0  0
  152.8917  143.4271  162.5724 H   0  0  0  0  0  0  0  0  0  0  0  0
  151.6207  144.4662  161.9329 H   0  0  0  0  0  0  0  0  0  0  0  0
  153.3101  144.7518  161.4870 H   0  0  0  0  0  0  0  0  0  0  0  0
  153.0861  141.3134  161.5642 H   0  0  0  0  0  0  0  0  0  0  0  0
  152.6097  138.2177  157.7502 H   0  0  0  0  0  0  0  0  0  0  0  0
  150.6156  140.3838  155.9858 H   0  0  0  0  0  0  0  0  0  0  0  0
  152.1559  141.0620  155.5125 H   0  0  0  0  0  0  0  0  0  0  0  0
  151.9013  138.0801  156.0531 H   0  0  0  0  0  0  0  0  0  0  0  0
  153.7982  138.0567  155.1691 H   0  0  0  0  0  0  0  0  0  0  0  0
  150.7831  139.5946  153.7216 H   0  0  0  0  0  0  0  0  0  0  0  0
  151.9032  138.3369  153.2716 H   0  0  0  0  0  0  0  0  0  0  0  0
  151.5070  136.0242  154.4929 H   0  0  0  0  0  0  0  0  0  0  0  0
  150.9102  136.6912  155.9965 H   0  0  0  0  0  0  0  0  0  0  0  0
  149.3190  135.0252  153.9764 H   0  0  0  0  0  0  0  0  0  0  0  0
  149.8716  134.4796  155.5407 H   0  0  0  0  0  0  0  0  0  0  0  0
  147.4442  135.1486  155.5876 H   0  0  0  0  0  0  0  0  0  0  0  0
  148.4190  136.0790  156.6978 H   0  0  0  0  0  0  0  0  0  0  0  0
  146.9680  137.6366  155.5403 H   0  0  0  0  0  0  0  0  0  0  0  0
  147.9999  136.5954  153.1446 H   0  0  0  0  0  0  0  0  0  0  0  0
  149.1944  138.5732  155.9033 H   0  0  0  0  0  0  0  0  0  0  0  0
  148.6117  139.1110  154.3423 H   0  0  0  0  0  0  0  0  0  0  0  0
  151.4448  143.0759  157.1968 H   0  0  0  0  0  0  0  0  0  0  0  0
  151.2777  145.2631  158.0643 H   0  0  0  0  0  0  0  0  0  0  0  0
  152.4430  145.6691  159.3228 H   0  0  0  0  0  0  0  0  0  0  0  0
  150.7634  145.3090  159.7498 H   0  0  0  0  0  0  0  0  0  0  0  0
  149.8692  137.3647  153.3401 H   0  0  0  0  0  0  0  0  0  0  0  0
  1  2  1  0  0  0  0
  1 23  1  0  0  0  0
  1 24  1  0  0  0  0
  1 25  1  0  0  0  0
  2 21  1  0  0  0  0
  2  3  2  0  0  0  0
  3  4  1  0  0  0  0
  3 26  1  0  0  0  0
  4 19  2  0  0  0  0
  4  5  1  0  0  0  0
  5  6  2  0  0  0  0
  6  7  1  0  0  0  0
  6 27  1  0  0  0  0
  7  8  1  0  0  0  0
  7 19  1  0  0  0  0
  8  9  1  0  0  0  0
  8 28  1  0  0  0  0
  8 29  1  0  0  0  0
  9 10  1  0  0  0  0
  9 11  1  0  0  0  0
  9 30  1  0  0  0  0
 10 31  1  0  0  0  0
 11 12  1  0  0  0  0
 11 32  1  0  0  0  0
 11 33  1  0  0  0  0
 12 18  1  0  0  0  0
 12 13  1  0  0  0  0
 12 48  1  0  0  0  0
 13 14  1  0  0  0  0
 13 34  1  0  0  0  0
 13 35  1  0  0  0  0
 14 15  1  0  0  0  0
 14 36  1  0  0  0  0
 14 37  1  0  0  0  0
 15 16  1  0  0  0  0
 15 38  1  0  0  0  0
 15 39  1  0  0  0  0
 16 17  1  0  0  0  0
 16 18  1  0  0  0  0
 16 40  1  0  0  0  0
 17 41  1  0  0  0  0
 18 42  1  0  0  0  0
 18 43  1  0  0  0  0
 19 20  1  0  0  0  0
 20 21  2  0  0  0  0
 20 44  1  0  0  0  0
 21 22  1  0  0  0  0
 22 45  1  0  0  0  0
 22 46  1  0  0  0  0
 22 47  1  0  0  0  0
M  CHG  1  12   1
M  END
> <s_m_source_file>
AV-unprocessed.smi

> <i_m_source_file_index>
1487

> <i_lp_mmshare_version>
43012

> <i_f3d_flags>
0

> <s_epik_input>
W0NIM11jKFtjSF0xKWMoW0NIM10pW2NIXWMoYzEyKW4oW2NIXW4yKVtDSDJdW0NASF0oW09IXSlbQ0gyXU4zW0NIMl1bQ0gyXVtDSDJdW0NAQEhdKFtPSF0pW0NIMl0z

> <s_epik_cmdline>
J2VwaWtfcHl0aG9uJywgJy1waCcsICc3LjAnLCAnLXRuJywgJzgnLCAnLW1hJywgJzIwMCcsICctbWV0YWxfYmluZGluZycsICctaW1hZScsICc8aW5maWxlLm1hZT4nLCAnLW9tYWUnLCAnPG91dGZpbGUubWFlPic=

> <r_epik_Ionization_Penalty>
0.0940186

> <r_epik_Ionization_Penalty_Charging>
0.00679686

> <r_epik_Ionization_Penalty_Neutral>
0.0872218

> <r_epik_State_Penalty>
0.0799311

> <r_epik_Charging_Adjusted_Penalty>
0.086728

> <i_epik_Tot_Q>
1

> <i_epik_Tot_abs_Q>
1

> <r_epik_Metal_State_Penalty>
7.95545e-05

> <b_epik_Metal_Only>
0

> <s_lp_Force_Field>
OPLS_2005

> <r_lp_Energy>
22.5409

> <b_lp_Chiralities_Consistent>
1

> <s_lp_Variant>
AV-unprocessed.smi:1487-5

> <Gold.Version>
5.8.1

> <Gold.Id.Protein>
6NUR|6NUR_protein|mol2

> <Gold.PLP.Fitness>
54.4486

> <Gold.PLP.PLP>
-44.6108

> <Gold.PLP.part.hbond>
-2.9867

> <Gold.PLP.part.metal>
0.0000

> <Gold.PLP.part.buried>
-6.7255

> <Gold.PLP.part.nonpolar>
-34.8007

> <Gold.PLP.part.repulsive>
0.0512

> <Gold.PLP.ligand.clash>
0.0000

> <Gold.PLP.ligand.torsion>
1.0917

> <Gold.PLP.Chemscore.Hbond>
3.9920

> <Gold.PLP.Chemscore.CHOScore>
0.0000

> <Gold.PLP.Chemscore.Metal>
0.0000

> <Gold.Chemscore.Hbonds>
donor molecule, donor type, donor heavy atom, donor atom, acceptor molecule, acceptor atom, score
      L1  H    12    48       P1  7948  1.98
      L1  H    17    41       P1  7948  1.00
      P1  H  7997  8009       L1    10  0.99

> <Gold.PLP.Chemscore.Internal.Correction>
0.0451

> <Gold.Rescore>
     Score         DG    S(hbond)    S(metal)    S(lipo)     H(rot)  DE(clash)    DE(int)     intcor
     18.78     -20.40       2.32        0.00     119.81       2.67       0.26       1.36       ----

> <Gold.Chemscore.Fitness>
18.7779

> <Gold.Chemscore.DG>
-20.3967

> <Gold.Chemscore.ZeroCoef>
-5.4800

> <Gold.Chemscore.Hbond>
2.3167

> <Gold.Chemscore.Metal>
0.0000

> <Gold.Chemscore.Lipo>
119.8055

> <Gold.Chemscore.Internal_Hbond>
0.0000

> <Gold.Chemscore.DEClash>
0.2593

> <Gold.Chemscore.DEInternal>
1.3595

> <Gold.Chemscore.Rot>
2.6712

> <Gold.Chemscore.Internal.Correction>
   9.000000E+99

> <Gold.Chemscore.Hbonds>
donor molecule, donor type, donor heavy atom, donor atom, acceptor molecule, acceptor atom, score
      L1  H    12    48       P1  7948  0.46
      L1  H    17    41       P1  7948  0.99
      P1  H  7997  8009       L1    10  0.46

> <Gold.Chemscore.Hbond.Weighted>
-7.7378

> <Gold.Chemscore.Metal.Weighted>
-0.0000

> <Gold.Chemscore.Lipo.Weighted>
-14.0172

> <Gold.Chemscore.Internal_Hbond.Weighted>
0.0000

> <Gold.Chemscore.DEClash.Weighted>
0.2593

> <Gold.Chemscore.DEInternal.Weighted>
1.3595

> <Gold.Chemscore.Rot.Weighted>
6.8383

> <Gold.Chemscore.Internal.Correction.Weighted>
   9.000000E+99

> <Gold.Protein.RotatedTorsions>
[ 6907 6896 6895 6894 ] final  168.63 input  -60.11 | X-H torsion
[ 7974 7965 7964 7962 ] final  164.96 input  175.53 | X-H torsion
[ 8008 7997 7996 7995 ] final -145.75 input   59.86 | X-H torsion
[ 10167 10162 10161 10158 ] final -142.10 input  -65.29 | X-H torsion
[ 10718 10713 10712 10709 ] final  126.37 input   66.30 | X-H torsion
[ 10763 10752 10751 10750 ] final  -50.17 input  -60.55 | X-H torsion
[ 11005 11000 10999 10996 ] final -162.52 input  -57.11 | X-H torsion

> <Gold.Protein.ActiveResidues>
 VAL166  LYS551  ARG553  GLY616  TRP617  ASP618  TYR619  PRO620  LYS621  CYS622 
 ASP623  PHE694  ASN695  SER759  ASP760  ASP761  ALA762  ILE779  LEU786  VAL792 
 PHE793  MET794  SER795  GLU796  ALA797  LYS798  CYS799  TRP800  GLU811  SER814 

> <Gold.Protein.RotatedAtoms>
  151.8446  133.3429  159.3653 H   0  0  0  0  0  0  0  0  0  0  0  0  # atno 6907 bound_to 6896
  150.7224  134.5358  159.5732 H   0  0  0  0  0  0  0  0  0  0  0  0  # atno 6908 bound_to 6896
  152.2839  134.7799  160.0442 H   0  0  0  0  0  0  0  0  0  0  0  0  # atno 6909 bound_to 6896
  144.7523  139.8401  143.6362 H   0  0  0  0  0  0  0  0  0  0  0  0  # atno 7974 bound_to 7965
  155.5482  140.0614  157.2855 H   0  0  0  0  0  0  0  0  0  0  0  0  # atno 8008 bound_to 7997
  154.4429  140.1907  156.0704 H   0  0  0  0  0  0  0  0  0  0  0  0  # atno 8009 bound_to 7997
  156.0535  140.3281  155.7382 H   0  0  0  0  0  0  0  0  0  0  0  0  # atno 8010 bound_to 7997
  139.8121  143.7689  152.2664 H   0  0  0  0  0  0  0  0  0  0  0  0  # atno 10167 bound_to 10162
  157.5425  131.1096  150.8836 H   0  0  0  0  0  0  0  0  0  0  0  0  # atno 10718 bound_to 10713
  154.1060  135.6556  153.4876 H   0  0  0  0  0  0  0  0  0  0  0  0  # atno 10763 bound_to 10752
  153.0272  135.5236  154.7239 H   0  0  0  0  0  0  0  0  0  0  0  0  # atno 10764 bound_to 10752
  154.6405  135.2988  155.0078 H   0  0  0  0  0  0  0  0  0  0  0  0  # atno 10765 bound_to 10752
  140.6083  134.4875  157.5213 H   0  0  0  0  0  0  0  0  0  0  0  0  # atno 11005 bound_to 11000
  146.1488  139.4565  143.0062 LP  0  0  0  0  0  0  0  0  0  0  0  0  # atno 17320 bound_to 7965
  145.6902  141.0166  143.1559 LP  0  0  0  0  0  0  0  0  0  0  0  0  # atno 17321 bound_to 7965
  139.7841  144.7434  151.0047 LP  0  0  0  0  0  0  0  0  0  0  0  0  # atno 17342 bound_to 10162
  140.7817  143.4511  151.0412 LP  0  0  0  0  0  0  0  0  0  0  0  0  # atno 17343 bound_to 10162
  156.9385  130.5376  149.5280 LP  0  0  0  0  0  0  0  0  0  0  0  0  # atno 17370 bound_to 10713
  156.0508  130.5578  150.8984 LP  0  0  0  0  0  0  0  0  0  0  0  0  # atno 17371 bound_to 10713
  139.9203  134.8163  156.1234 LP  0  0  0  0  0  0  0  0  0  0  0  0  # atno 17394 bound_to 11000
  141.0825  133.6748  156.2366 LP  0  0  0  0  0  0  0  0  0  0  0  0  # atno 17395 bound_to 11000

$$$$
