AV-unprocessed.smi:1413|AV-procd|sdf|5758|dock6
  -GOLD-   22720 5393D 1   1.00000     0.00000
 Structure written by MMmdl.
 53 55  0  0  0  0  0  0  0  0  1 V2000
  152.7771  144.6677  158.0006 C   0  0  0  0  0  0  0  0  0  0  0  0
  151.6602  144.1373  158.9171 C   0  0  1  0  0  0  0  0  0  0  0  0
  150.8852  142.9494  158.3137 C   0  0  0  0  0  0  0  0  0  0  0  0
  151.6737  141.7220  158.3783 N   0  0  0  0  0  0  0  0  0  0  0  0
  151.1995  140.6476  157.5950 C   0  0  0  0  0  0  0  0  0  0  0  0
  151.0066  140.8127  156.2035 C   0  0  0  0  0  0  0  0  0  0  0  0
  150.5270  139.7293  155.4437 C   0  0  0  0  0  0  0  0  0  0  0  0
  150.2453  138.5074  156.0848 C   0  0  0  0  0  0  0  0  0  0  0  0
  149.7735  137.4307  155.2849 N   0  0  0  0  0  0  0  0  0  0  0  0
  149.6028  136.1412  155.6233 C   0  0  0  0  0  0  0  0  0  0  0  0
  149.8195  135.6601  156.7351 O   0  0  0  0  0  0  0  0  0  0  0  0
  149.1425  135.4275  154.5862 N   0  0  0  0  0  0  0  0  0  0  0  0
  148.8190  134.0030  154.6165 C   0  0  2  0  0  0  0  0  0  0  0  0
  150.1032  133.1870  154.8456 C   0  0  0  0  0  0  0  0  0  0  0  0
  148.1068  133.6172  153.3057 C   0  0  1  0  0  0  0  0  0  0  0  0
  147.7578  132.1327  153.1834 C   0  0  0  0  0  0  0  0  0  0  0  0
  146.6081  132.1663  152.2036 C   0  0  0  0  0  0  0  0  0  0  0  0
  145.8668  133.4269  152.6366 C   0  0  0  0  0  0  0  0  0  0  0  0
  146.8513  134.2880  153.2035 O   0  0  0  0  0  0  0  0  0  0  0  0
  150.4872  138.4288  157.4771 C   0  0  0  0  0  0  0  0  0  0  0  0
  150.9482  139.4654  158.2086 N   0  0  0  0  0  0  0  0  0  0  0  0
  152.1726  141.4304  159.7197 C   0  0  0  0  0  0  0  0  0  0  0  0
  152.9582  142.6326  160.2731 C   0  0  2  0  0  0  0  0  0  0  0  0
  153.3834  142.4166  161.7293 C   0  0  0  0  0  0  0  0  0  0  0  0
  152.1431  143.8029  160.2202 O   0  0  0  0  0  0  0  0  0  0  0  0
  152.3619  145.0416  157.0644 H   0  0  0  0  0  0  0  0  0  0  0  0
  153.5037  143.8969  157.7447 H   0  0  0  0  0  0  0  0  0  0  0  0
  153.3128  145.4898  158.4754 H   0  0  0  0  0  0  0  0  0  0  0  0
  150.9537  144.9558  159.0570 H   0  0  0  0  0  0  0  0  0  0  0  0
  149.9649  142.7903  158.8773 H   0  0  0  0  0  0  0  0  0  0  0  0
  150.5863  143.1939  157.2955 H   0  0  0  0  0  0  0  0  0  0  0  0
  151.2329  141.7465  155.7109 H   0  0  0  0  0  0  0  0  0  0  0  0
  150.3779  139.8399  154.3796 H   0  0  0  0  0  0  0  0  0  0  0  0
  149.4844  137.6826  154.3511 H   0  0  0  0  0  0  0  0  0  0  0  0
  148.9843  135.9071  153.7123 H   0  0  0  0  0  0  0  0  0  0  0  0
  148.1325  133.8118  155.4435 H   0  0  0  0  0  0  0  0  0  0  0  0
  149.8885  132.1211  154.9231 H   0  0  0  0  0  0  0  0  0  0  0  0
  150.5996  133.4825  155.7707 H   0  0  0  0  0  0  0  0  0  0  0  0
  150.8124  133.3256  154.0289 H   0  0  0  0  0  0  0  0  0  0  0  0
  148.7098  133.9135  152.4454 H   0  0  0  0  0  0  0  0  0  0  0  0
  148.5937  131.5244  152.8367 H   0  0  0  0  0  0  0  0  0  0  0  0
  147.4185  131.7353  154.1413 H   0  0  0  0  0  0  0  0  0  0  0  0
  146.9863  132.2820  151.1871 H   0  0  0  0  0  0  0  0  0  0  0  0
  145.9863  131.2714  152.2382 H   0  0  0  0  0  0  0  0  0  0  0  0
  145.3481  133.9073  151.8068 H   0  0  0  0  0  0  0  0  0  0  0  0
  145.1301  133.1923  153.4056 H   0  0  0  0  0  0  0  0  0  0  0  0
  150.3336  137.5208  158.0382 H   0  0  0  0  0  0  0  0  0  0  0  0
  151.3301  141.1962  160.3720 H   0  0  0  0  0  0  0  0  0  0  0  0
  152.8228  140.5547  159.6993 H   0  0  0  0  0  0  0  0  0  0  0  0
  153.8591  142.7848  159.6787 H   0  0  0  0  0  0  0  0  0  0  0  0
  154.0217  141.5380  161.8257 H   0  0  0  0  0  0  0  0  0  0  0  0
  152.5175  142.2747  162.3764 H   0  0  0  0  0  0  0  0  0  0  0  0
  153.9415  143.2752  162.1034 H   0  0  0  0  0  0  0  0  0  0  0  0
  1  2  1  0  0  0  0
  1 26  1  0  0  0  0
  1 27  1  0  0  0  0
  1 28  1  0  0  0  0
  2 25  1  0  0  0  0
  2  3  1  0  0  0  0
  2 29  1  0  0  0  0
  3  4  1  0  0  0  0
  3 30  1  0  0  0  0
  3 31  1  0  0  0  0
  4  5  1  0  0  0  0
  4 22  1  0  0  0  0
  5 21  1  0  0  0  0
  5  6  2  0  0  0  0
  6  7  1  0  0  0  0
  6 32  1  0  0  0  0
  7  8  2  0  0  0  0
  7 33  1  0  0  0  0
  8  9  1  0  0  0  0
  8 20  1  0  0  0  0
  9 10  1  0  0  0  0
  9 34  1  0  0  0  0
 10 11  2  0  0  0  0
 10 12  1  0  0  0  0
 12 13  1  0  0  0  0
 12 35  1  0  0  0  0
 13 14  1  0  0  0  0
 13 15  1  0  0  0  0
 13 36  1  0  0  0  0
 14 37  1  0  0  0  0
 14 38  1  0  0  0  0
 14 39  1  0  0  0  0
 15 19  1  0  0  0  0
 15 16  1  0  0  0  0
 15 40  1  0  0  0  0
 16 17  1  0  0  0  0
 16 41  1  0  0  0  0
 16 42  1  0  0  0  0
 17 18  1  0  0  0  0
 17 43  1  0  0  0  0
 17 44  1  0  0  0  0
 18 19  1  0  0  0  0
 18 45  1  0  0  0  0
 18 46  1  0  0  0  0
 20 21  2  0  0  0  0
 20 47  1  0  0  0  0
 22 23  1  0  0  0  0
 22 48  1  0  0  0  0
 22 49  1  0  0  0  0
 23 24  1  0  0  0  0
 23 25  1  0  0  0  0
 23 50  1  0  0  0  0
 24 51  1  0  0  0  0
 24 52  1  0  0  0  0
 24 53  1  0  0  0  0
M  END
> <s_m_source_file>
AV-unprocessed.smi

> <i_m_source_file_index>
1413

> <i_lp_mmshare_version>
43012

> <i_f3d_flags>
0

> <s_epik_input>
W0NIM11bQ0BASF0xW0NIMl1OKFtDSDJdW0NASF0oTzEpW0NIM10pYzJbY0hdW2NIXWMoW2NIXW4yKVtOSF1DKD1PKVtOSF1bQ0BIXShbQ0gzXSlbQ0BASF0zW0NIMl1bQ0gyXVtDSDJdTzM=

> <s_epik_cmdline>
J2VwaWtfcHl0aG9uJywgJy1waCcsICc3LjAnLCAnLXRuJywgJzgnLCAnLW1hJywgJzIwMCcsICctbWV0YWxfYmluZGluZycsICctaW1hZScsICc8aW5maWxlLm1hZT4nLCAnLW9tYWUnLCAnPG91dGZpbGUubWFlPic=

> <r_lp_tautomer_probability>
1

> <r_epik_Ionization_Penalty>
0.00271172

> <r_epik_Ionization_Penalty_Charging>
0

> <r_epik_Ionization_Penalty_Neutral>
0.00271172

> <r_epik_State_Penalty>
0.00186503

> <r_epik_Charging_Adjusted_Penalty>
0.00186503

> <i_epik_Tot_Q>
0

> <i_epik_Tot_abs_Q>
0

> <r_epik_Metal_State_Penalty>
-0

> <b_epik_Metal_Only>
0

> <s_lp_Force_Field>
OPLS_2005

> <r_lp_Energy>
37.0266

> <b_lp_Chiralities_Consistent>
1

> <s_lp_Variant>
AV-unprocessed.smi:1413-11

> <Gold.Version>
5.8.1

> <Gold.Id.Protein>
6NUR|6NUR_protein|mol2

> <Gold.PLP.Fitness>
46.6326

> <Gold.PLP.PLP>
-43.8753

> <Gold.PLP.part.hbond>
-1.0000

> <Gold.PLP.part.metal>
0.0000

> <Gold.PLP.part.buried>
-5.9032

> <Gold.PLP.part.nonpolar>
-37.4109

> <Gold.PLP.part.repulsive>
0.3376

> <Gold.PLP.ligand.clash>
0.0000

> <Gold.PLP.ligand.torsion>
0.2961

> <Gold.PLP.Chemscore.Hbond>
1.0000

> <Gold.PLP.Chemscore.CHOScore>
0.0000

> <Gold.PLP.Chemscore.Metal>
0.0000

> <Gold.Chemscore.Hbonds>
donor molecule, donor type, donor heavy atom, donor atom, acceptor molecule, acceptor atom, score
      L1  H    12    35       P1  7948  1.00

> <Gold.PLP.Chemscore.Internal.Correction>
0.3495

> <Gold.Rescore>
     Score         DG    S(hbond)    S(metal)    S(lipo)     H(rot)  DE(clash)    DE(int)     intcor
     17.56     -19.11       0.97        0.00     118.29       1.35       0.09       1.46       ----

> <Gold.Chemscore.Fitness>
17.5615

> <Gold.Chemscore.DG>
-19.1087

> <Gold.Chemscore.ZeroCoef>
-5.4800

> <Gold.Chemscore.Hbond>
0.9692

> <Gold.Chemscore.Metal>
0.0000

> <Gold.Chemscore.Lipo>
118.2903

> <Gold.Chemscore.Internal_Hbond>
0.0000

> <Gold.Chemscore.DEClash>
0.0918

> <Gold.Chemscore.DEInternal>
1.4554

> <Gold.Chemscore.Rot>
1.3471

> <Gold.Chemscore.Internal.Correction>
   9.000000E+99

> <Gold.Chemscore.Hbonds>
donor molecule, donor type, donor heavy atom, donor atom, acceptor molecule, acceptor atom, score
      L1  H    12    35       P1  7948  0.94

> <Gold.Chemscore.Hbond.Weighted>
-3.2373

> <Gold.Chemscore.Metal.Weighted>
-0.0000

> <Gold.Chemscore.Lipo.Weighted>
-13.8400

> <Gold.Chemscore.Internal_Hbond.Weighted>
0.0000

> <Gold.Chemscore.DEClash.Weighted>
0.0918

> <Gold.Chemscore.DEInternal.Weighted>
1.4554

> <Gold.Chemscore.Rot.Weighted>
3.4485

> <Gold.Chemscore.Internal.Correction.Weighted>
   9.000000E+99

> <Gold.Protein.RotatedTorsions>
[ 6907 6896 6895 6894 ] final  145.57 input  -60.11 | X-H torsion
[ 7974 7965 7964 7962 ] final -177.24 input  175.53 | X-H torsion
[ 8008 7997 7996 7995 ] final    8.86 input   59.86 | X-H torsion
[ 10167 10162 10161 10158 ] final -124.36 input  -65.29 | X-H torsion
[ 10718 10713 10712 10709 ] final  -38.70 input   66.30 | X-H torsion
[ 10763 10752 10751 10750 ] final  173.00 input  -60.55 | X-H torsion
[ 11005 11000 10999 10996 ] final  178.93 input  -57.11 | X-H torsion

> <Gold.Protein.ActiveResidues>
 VAL166  LYS551  ARG553  GLY616  TRP617  ASP618  TYR619  PRO620  LYS621  CYS622 
 ASP623  PHE694  ASN695  SER759  ASP760  ASP761  ALA762  ILE779  LEU786  VAL792 
 PHE793  MET794  SER795  GLU796  ALA797  LYS798  CYS799  TRP800  GLU811  SER814 

> <Gold.Protein.RotatedAtoms>
  152.1791  133.4695  159.4948 H   0  0  0  0  0  0  0  0  0  0  0  0  # atno 6907 bound_to 6896
  150.6931  134.1856  159.4274 H   0  0  0  0  0  0  0  0  0  0  0  0  # atno 6908 bound_to 6896
  151.9766  135.0049  160.0606 H   0  0  0  0  0  0  0  0  0  0  0  0  # atno 6909 bound_to 6896
  144.7127  140.1049  143.6414 H   0  0  0  0  0  0  0  0  0  0  0  0  # atno 7974 bound_to 7965
  154.7723  140.2804  155.6128 H   0  0  0  0  0  0  0  0  0  0  0  0  # atno 8008 bound_to 7997
  156.2936  140.2639  156.2457 H   0  0  0  0  0  0  0  0  0  0  0  0  # atno 8009 bound_to 7997
  154.9884  140.0374  157.2298 H   0  0  0  0  0  0  0  0  0  0  0  0  # atno 8010 bound_to 7997
  139.9937  143.5614  152.2332 H   0  0  0  0  0  0  0  0  0  0  0  0  # atno 10167 bound_to 10162
  156.3007  130.4240  149.8146 H   0  0  0  0  0  0  0  0  0  0  0  0  # atno 10718 bound_to 10713
  154.4340  135.2760  155.1893 H   0  0  0  0  0  0  0  0  0  0  0  0  # atno 10763 bound_to 10752
  154.3787  135.6092  153.5783 H   0  0  0  0  0  0  0  0  0  0  0  0  # atno 10764 bound_to 10752
  152.9837  135.5875  154.4656 H   0  0  0  0  0  0  0  0  0  0  0  0  # atno 10765 bound_to 10752
  140.4005  134.6781  157.4559 H   0  0  0  0  0  0  0  0  0  0  0  0  # atno 11005 bound_to 11000
  145.9505  139.2730  143.1215 LP  0  0  0  0  0  0  0  0  0  0  0  0  # atno 17320 bound_to 7965
  145.9328  140.9036  143.0348 LP  0  0  0  0  0  0  0  0  0  0  0  0  # atno 17321 bound_to 7965
  139.6322  144.7645  151.2513 LP  0  0  0  0  0  0  0  0  0  0  0  0  # atno 17342 bound_to 10162
  140.7445  143.6460  150.8291 LP  0  0  0  0  0  0  0  0  0  0  0  0  # atno 17343 bound_to 10162
  156.5525  130.8348  151.3304 LP  0  0  0  0  0  0  0  0  0  0  0  0  # atno 17370 bound_to 10713
  157.7367  130.9783  150.2152 LP  0  0  0  0  0  0  0  0  0  0  0  0  # atno 17371 bound_to 10713
  140.0340  134.6365  155.9069 LP  0  0  0  0  0  0  0  0  0  0  0  0  # atno 17394 bound_to 11000
  141.1858  133.6556  156.5214 LP  0  0  0  0  0  0  0  0  0  0  0  0  # atno 17395 bound_to 11000

$$$$
