AV-unprocessed.smi:155|AV-procd|sdf|1275|dock3
  -GOLD-   2262018533D 1   1.00000     0.00000
 Structure written by MMmdl.
 63 66  0  0  0  0  0  0  0  0  2 V2000
  146.9894  128.7995  152.3582 C   0  0  0  0  0  0  0  0  0  0  0  0
  146.8667  130.2633  152.1724 N   0  3  0  0  0  0  0  0  0  0  0  0
  145.5194  130.6364  151.6873 C   0  0  0  0  0  0  0  0  0  0  0  0
  147.2642  131.0497  153.3679 C   0  0  0  0  0  0  0  0  0  0  0  0
  148.7504  130.8601  153.7512 C   0  0  0  0  0  0  0  0  0  0  0  0
  149.2573  131.9333  154.6103 N   0  0  0  0  0  0  0  0  0  0  0  0
  150.3292  131.4471  155.4893 C   0  0  0  0  0  0  0  0  0  0  0  0
  151.1397  132.5243  156.2435 C   0  0  0  0  0  0  0  0  0  0  0  0
  150.3484  133.7513  156.7182 C   0  0  0  0  0  0  0  0  0  0  0  0
  150.1805  134.7207  155.6395 N   0  0  0  0  0  0  0  0  0  0  0  0
  150.0146  135.9844  156.0835 C   0  0  0  0  0  0  0  0  0  0  0  0
  149.0235  136.2663  156.9694 N   0  0  0  0  0  0  0  0  0  0  0  0
  148.8658  137.5174  157.4132 C   0  0  0  0  0  0  0  0  0  0  0  0
  149.5733  138.6083  157.1077 N   0  0  0  0  0  0  0  0  0  0  0  0
  150.5693  138.3212  156.2201 C   0  0  0  0  0  0  0  0  0  0  0  0
  150.8557  137.0455  155.6608 C   0  0  0  0  0  0  0  0  0  0  0  0
  151.9397  137.1328  154.7971 N   0  0  0  0  0  0  0  0  0  0  0  0
  152.2821  138.3915  154.8490 C   0  0  0  0  0  0  0  0  0  0  0  0
  151.5198  139.1744  155.6872 N   0  0  0  0  0  0  0  0  0  0  0  0
  151.6870  140.5949  155.9443 C   0  0  0  0  0  0  0  0  0  0  0  0
  150.5544  141.2199  156.7894 C   0  0  2  0  0  0  0  0  0  0  0  0
  149.5077  141.6873  155.9609 O   0  0  0  0  0  0  0  0  0  0  0  0
  151.0005  142.3312  157.7665 C   0  0  2  0  0  0  0  0  0  0  0  0
  151.4908  143.6309  157.1296 C   0  0  0  0  0  0  0  0  0  0  0  0
  152.2987  144.2724  158.2472 C   0  0  0  0  0  0  0  0  0  0  0  0
  152.5894  143.1200  159.2168 C   0  0  0  0  0  0  0  0  0  0  0  0
  152.0985  141.9488  158.5793 O   0  0  0  0  0  0  0  0  0  0  0  0
  149.2712  134.3739  154.5535 C   0  0  0  0  0  0  0  0  0  0  0  0
  149.6763  133.0870  153.8144 C   0  0  0  0  0  0  0  0  0  0  0  0
  146.3678  128.4548  153.1858 H   0  0  0  0  0  0  0  0  0  0  0  0
  148.0202  128.5111  152.5570 H   0  0  0  0  0  0  0  0  0  0  0  0
  146.6781  128.2703  151.4569 H   0  0  0  0  0  0  0  0  0  0  0  0
  144.7583  130.4111  152.4355 H   0  0  0  0  0  0  0  0  0  0  0  0
  145.2724  130.0934  150.7744 H   0  0  0  0  0  0  0  0  0  0  0  0
  145.4702  131.7015  151.4581 H   0  0  0  0  0  0  0  0  0  0  0  0
  147.1126  132.1099  153.1595 H   0  0  0  0  0  0  0  0  0  0  0  0
  146.5882  130.8219  154.1930 H   0  0  0  0  0  0  0  0  0  0  0  0
  148.9306  129.8930  154.2225 H   0  0  0  0  0  0  0  0  0  0  0  0
  149.3184  130.8435  152.8200 H   0  0  0  0  0  0  0  0  0  0  0  0
  149.8903  130.7725  156.2235 H   0  0  0  0  0  0  0  0  0  0  0  0
  151.0348  130.8540  154.9073 H   0  0  0  0  0  0  0  0  0  0  0  0
  151.5954  132.0463  157.1112 H   0  0  0  0  0  0  0  0  0  0  0  0
  151.9786  132.8553  155.6295 H   0  0  0  0  0  0  0  0  0  0  0  0
  149.3787  133.4555  157.1210 H   0  0  0  0  0  0  0  0  0  0  0  0
  150.8961  134.2235  157.5357 H   0  0  0  0  0  0  0  0  0  0  0  0
  148.0579  137.6659  158.1143 H   0  0  0  0  0  0  0  0  0  0  0  0
  153.1109  138.7857  154.2789 H   0  0  0  0  0  0  0  0  0  0  0  0
  152.6474  140.7399  156.4407 H   0  0  0  0  0  0  0  0  0  0  0  0
  151.7603  141.1118  154.9867 H   0  0  0  0  0  0  0  0  0  0  0  0
  150.1251  140.4154  157.3874 H   0  0  0  0  0  0  0  0  0  0  0  0
  149.4332  142.6221  156.0788 H   0  0  0  0  0  0  0  0  0  0  0  0
  150.1652  142.5633  158.4306 H   0  0  0  0  0  0  0  0  0  0  0  0
  152.1467  143.4272  156.2824 H   0  0  0  0  0  0  0  0  0  0  0  0
  150.6743  144.2625  156.7787 H   0  0  0  0  0  0  0  0  0  0  0  0
  153.2142  144.7239  157.8634 H   0  0  0  0  0  0  0  0  0  0  0  0
  151.7246  145.0528  158.7480 H   0  0  0  0  0  0  0  0  0  0  0  0
  153.6515  143.0202  159.4413 H   0  0  0  0  0  0  0  0  0  0  0  0
  152.0561  143.2659  160.1574 H   0  0  0  0  0  0  0  0  0  0  0  0
  148.2498  134.2940  154.9295 H   0  0  0  0  0  0  0  0  0  0  0  0
  149.2712  135.1956  153.8353 H   0  0  0  0  0  0  0  0  0  0  0  0
  150.7378  133.0591  153.5634 H   0  0  0  0  0  0  0  0  0  0  0  0
  149.1431  133.0948  152.8633 H   0  0  0  0  0  0  0  0  0  0  0  0
  147.5082  130.5186  151.4350 H   0  0  0  0  0  0  0  0  0  0  0  0
  1  2  1  0  0  0  0
  1 30  1  0  0  0  0
  1 31  1  0  0  0  0
  1 32  1  0  0  0  0
  2  3  1  0  0  0  0
  2  4  1  0  0  0  0
  2 63  1  0  0  0  0
  3 33  1  0  0  0  0
  3 34  1  0  0  0  0
  3 35  1  0  0  0  0
  4  5  1  0  0  0  0
  4 36  1  0  0  0  0
  4 37  1  0  0  0  0
  5  6  1  0  0  0  0
  5 38  1  0  0  0  0
  5 39  1  0  0  0  0
  6 29  1  0  0  0  0
  6  7  1  0  0  0  0
  7  8  1  0  0  0  0
  7 40  1  0  0  0  0
  7 41  1  0  0  0  0
  8  9  1  0  0  0  0
  8 42  1  0  0  0  0
  8 43  1  0  0  0  0
  9 10  1  0  0  0  0
  9 44  1  0  0  0  0
  9 45  1  0  0  0  0
 10 11  1  0  0  0  0
 10 28  1  0  0  0  0
 11 16  1  0  0  0  0
 11 12  2  0  0  0  0
 12 13  1  0  0  0  0
 13 14  2  0  0  0  0
 13 46  1  0  0  0  0
 14 15  1  0  0  0  0
 15 19  1  0  0  0  0
 15 16  2  0  0  0  0
 16 17  1  0  0  0  0
 17 18  2  0  0  0  0
 18 19  1  0  0  0  0
 18 47  1  0  0  0  0
 19 20  1  0  0  0  0
 20 21  1  0  0  0  0
 20 48  1  0  0  0  0
 20 49  1  0  0  0  0
 21 22  1  0  0  0  0
 21 23  1  0  0  0  0
 21 50  1  0  0  0  0
 22 51  1  0  0  0  0
 23 27  1  0  0  0  0
 23 24  1  0  0  0  0
 23 52  1  0  0  0  0
 24 25  1  0  0  0  0
 24 53  1  0  0  0  0
 24 54  1  0  0  0  0
 25 26  1  0  0  0  0
 25 55  1  0  0  0  0
 25 56  1  0  0  0  0
 26 27  1  0  0  0  0
 26 57  1  0  0  0  0
 26 58  1  0  0  0  0
 28 29  1  0  0  0  0
 28 59  1  0  0  0  0
 28 60  1  0  0  0  0
 29 61  1  0  0  0  0
 29 62  1  0  0  0  0
M  CHG  1   2   1
M  END
> <s_m_source_file>
AV-unprocessed.smi

> <i_m_source_file_index>
155

> <i_lp_mmshare_version>
43012

> <i_f3d_flags>
0

> <s_epik_input>
W0NIM11OKFtDSDNdKVtDSDJdW0NIMl1OMVtDSDJdW0NIMl1bQ0gyXU4oW0NIMl1bQ0gyXTEpYyhuW2NIXW4yKWMoYzIzKW5bY0hdbjNbQ0gyXVtDQEhdKFtPSF0pW0NAQEhdNFtDSDJdW0NIMl1bQ0gyXU80

> <s_epik_cmdline>
J2VwaWtfcHl0aG9uJywgJy1waCcsICc3LjAnLCAnLXRuJywgJzgnLCAnLW1hJywgJzIwMCcsICctbWV0YWxfYmluZGluZycsICctaW1hZScsICc8aW5maWxlLm1hZT4nLCAnLW9tYWUnLCAnPG91dGZpbGUubWFlPic=

> <r_lp_tautomer_probability>
1

> <r_epik_Ionization_Penalty>
0.0599493

> <r_epik_Ionization_Penalty_Charging>
0.00816363

> <r_epik_Ionization_Penalty_Neutral>
0.0517857

> <r_epik_State_Penalty>
0.460607

> <r_epik_Charging_Adjusted_Penalty>
0.468771

> <i_epik_Tot_Q>
1

> <i_epik_Tot_abs_Q>
1

> <r_epik_Metal_State_Penalty>
0.45965

> <b_epik_Metal_Only>
0

> <s_lp_Force_Field>
OPLS_2005

> <r_lp_Energy>
61.9788

> <b_lp_Chiralities_Consistent>
1

> <s_lp_Variant>
AV-unprocessed.smi:155-9

> <Gold.Version>
5.8.1

> <Gold.Id.Protein>
6NUR|6NUR_protein|mol2

> <Gold.PLP.Fitness>
55.9469

> <Gold.PLP.PLP>
-49.4436

> <Gold.PLP.part.hbond>
-3.0000

> <Gold.PLP.part.metal>
0.0000

> <Gold.PLP.part.buried>
-4.4374

> <Gold.PLP.part.nonpolar>
-41.0081

> <Gold.PLP.part.repulsive>
0.2618

> <Gold.PLP.ligand.clash>
0.0000

> <Gold.PLP.ligand.torsion>
1.2655

> <Gold.PLP.Chemscore.Hbond>
2.8870

> <Gold.PLP.Chemscore.CHOScore>
0.0000

> <Gold.PLP.Chemscore.Metal>
0.0000

> <Gold.Chemscore.Hbonds>
donor molecule, donor type, donor heavy atom, donor atom, acceptor molecule, acceptor atom, score
      L1  H     2    63       P1 10747  1.00
      L1  H    22    51       P1  8028  0.55
      P1  H 10752 10764       L1    17  0.93

> <Gold.PLP.Chemscore.Internal.Correction>
0.3733

> <Gold.Rescore>
     Score         DG    S(hbond)    S(metal)    S(lipo)     H(rot)  DE(clash)    DE(int)     intcor
     18.13     -20.89       2.75        0.00     118.50       2.99       0.10       2.66       ----

> <Gold.Chemscore.Fitness>
18.1292

> <Gold.Chemscore.DG>
-20.8881

> <Gold.Chemscore.ZeroCoef>
-5.4800

> <Gold.Chemscore.Hbond>
2.7508

> <Gold.Chemscore.Metal>
0.0000

> <Gold.Chemscore.Lipo>
118.5049

> <Gold.Chemscore.Internal_Hbond>
0.0000

> <Gold.Chemscore.DEClash>
0.0988

> <Gold.Chemscore.DEInternal>
2.6601

> <Gold.Chemscore.Rot>
2.9862

> <Gold.Chemscore.Internal.Correction>
   9.000000E+99

> <Gold.Chemscore.Hbonds>
donor molecule, donor type, donor heavy atom, donor atom, acceptor molecule, acceptor atom, score
      L1  H     2    63       P1 10747  1.00
      L1  H    22    51       P1  8028  0.56
      P1  H 10752 10764       L1    17  0.84

> <Gold.Chemscore.Hbond.Weighted>
-9.1878

> <Gold.Chemscore.Metal.Weighted>
-0.0000

> <Gold.Chemscore.Lipo.Weighted>
-13.8651

> <Gold.Chemscore.Internal_Hbond.Weighted>
0.0000

> <Gold.Chemscore.DEClash.Weighted>
0.0988

> <Gold.Chemscore.DEInternal.Weighted>
2.6601

> <Gold.Chemscore.Rot.Weighted>
7.6448

> <Gold.Chemscore.Internal.Correction.Weighted>
   9.000000E+99

> <Gold.Protein.RotatedTorsions>
[ 6907 6896 6895 6894 ] final -172.76 input  -60.11 | X-H torsion
[ 7974 7965 7964 7962 ] final  150.35 input  175.53 | X-H torsion
[ 8008 7997 7996 7995 ] final -166.65 input   59.86 | X-H torsion
[ 10167 10162 10161 10158 ] final   11.07 input  -65.29 | X-H torsion
[ 10718 10713 10712 10709 ] final   -2.34 input   66.30 | X-H torsion
[ 10763 10752 10751 10750 ] final  -58.05 input  -60.55 | X-H torsion
[ 11005 11000 10999 10996 ] final  108.49 input  -57.11 | X-H torsion

> <Gold.Protein.ActiveResidues>
 VAL166  LYS551  ARG553  GLY616  TRP617  ASP618  TYR619  PRO620  LYS621  CYS622 
 ASP623  PHE694  ASN695  SER759  ASP760  ASP761  ALA762  ILE779  LEU786  VAL792 
 PHE793  MET794  SER795  GLU796  ALA797  LYS798  CYS799  TRP800  GLU811  SER814 

> <Gold.Protein.RotatedAtoms>
  151.5451  133.3426  159.2942 H   0  0  0  0  0  0  0  0  0  0  0  0  # atno 6907 bound_to 6896
  150.8512  134.7840  159.7021 H   0  0  0  0  0  0  0  0  0  0  0  0  # atno 6908 bound_to 6896
  152.4557  134.5304  159.9861 H   0  0  0  0  0  0  0  0  0  0  0  0  # atno 6909 bound_to 6896
  144.8370  139.6398  143.6033 H   0  0  0  0  0  0  0  0  0  0  0  0  # atno 7974 bound_to 7965
  155.8668  140.0987  157.1576 H   0  0  0  0  0  0  0  0  0  0  0  0  # atno 8008 bound_to 7997
  154.3994  140.1354  156.4092 H   0  0  0  0  0  0  0  0  0  0  0  0  # atno 8009 bound_to 7997
  155.7795  140.3459  155.5292 H   0  0  0  0  0  0  0  0  0  0  0  0  # atno 8010 bound_to 7997
  140.6155  143.8318  150.7113 H   0  0  0  0  0  0  0  0  0  0  0  0  # atno 10167 bound_to 10162
  156.7923  130.5365  149.5734 H   0  0  0  0  0  0  0  0  0  0  0  0  # atno 10718 bound_to 10713
  154.2320  135.6359  153.5178 H   0  0  0  0  0  0  0  0  0  0  0  0  # atno 10763 bound_to 10752
  152.9947  135.5521  154.6002 H   0  0  0  0  0  0  0  0  0  0  0  0  # atno 10764 bound_to 10752
  154.5487  135.2900  155.1003 H   0  0  0  0  0  0  0  0  0  0  0  0  # atno 10765 bound_to 10752
  139.8845  134.9432  156.5981 H   0  0  0  0  0  0  0  0  0  0  0  0  # atno 11005 bound_to 11000
  146.2668  139.6538  142.9324 LP  0  0  0  0  0  0  0  0  0  0  0  0  # atno 17320 bound_to 7965
  145.4773  141.0437  143.2665 LP  0  0  0  0  0  0  0  0  0  0  0  0  # atno 17321 bound_to 7965
  140.1896  143.4047  152.1873 LP  0  0  0  0  0  0  0  0  0  0  0  0  # atno 17342 bound_to 10162
  139.5395  144.7242  151.4781 LP  0  0  0  0  0  0  0  0  0  0  0  0  # atno 17343 bound_to 10162
  156.1152  130.6069  151.0109 LP  0  0  0  0  0  0  0  0  0  0  0  0  # atno 17370 bound_to 10713
  157.6595  131.0883  150.7872 LP  0  0  0  0  0  0  0  0  0  0  0  0  # atno 17371 bound_to 10713
  140.7905  133.8586  155.8642 LP  0  0  0  0  0  0  0  0  0  0  0  0  # atno 17394 bound_to 11000
  140.9682  134.1566  157.4599 LP  0  0  0  0  0  0  0  0  0  0  0  0  # atno 17395 bound_to 11000

$$$$
