AV-unprocessed.smi:1431|AV-procd|sdf|5829|dock6
  -GOLD-   22720 5493D 1   1.00000     0.00000
 Structure written by MMmdl.
 33 34  0  0  0  0  0  0  0  0  1 V2000
  144.7671  137.2537  151.8618 O   0  0  0  0  0  0  0  0  0  0  0  0
  145.9575  136.9385  151.8666 C   0  0  0  0  0  0  0  0  0  0  0  0
  146.9498  137.8099  152.0983 N   0  0  0  0  0  0  0  0  0  0  0  0
  146.7646  139.2235  152.4100 C   0  0  0  0  0  0  0  0  0  0  0  0
  147.4301  139.6141  153.7446 C   0  0  2  0  0  0  0  0  0  0  0  0
  147.7552  141.1177  153.8269 C   0  0  0  0  0  0  0  0  0  0  0  0
  148.6384  141.3590  155.0555 C   0  0  0  0  0  0  0  0  0  0  0  0
  149.6787  139.8599  155.2179 S   0  0  0  0  0  0  0  0  0  0  0  0
  151.0120  140.1231  154.6563 O   0  0  0  0  0  0  0  0  0  0  0  0
  149.5227  139.3134  156.5743 O   0  0  0  0  0  0  0  0  0  0  0  0
  148.7265  138.8379  154.0320 C   0  0  0  0  0  0  0  0  0  0  0  0
  146.4363  135.7001  151.6540 N   0  0  0  0  0  0  0  0  0  0  0  0
  145.7052  134.5063  151.4140 C   0  0  0  0  0  0  0  0  0  0  0  0
  146.4942  133.3521  151.2070 C   0  0  0  0  0  0  0  0  0  0  0  0
  145.8639  132.1165  150.9639 C   0  0  0  0  0  0  0  0  0  0  0  0
  144.4590  132.0668  150.9328 C   0  0  0  0  0  0  0  0  0  0  0  0
  143.7484  133.2620  151.1481 C   0  0  0  0  0  0  0  0  0  0  0  0
  144.3504  134.4471  151.3820 N   0  0  0  0  0  0  0  0  0  0  0  0
  147.8997  137.4685  152.0789 H   0  0  0  0  0  0  0  0  0  0  0  0
  147.1921  139.8069  151.5939 H   0  0  0  0  0  0  0  0  0  0  0  0
  145.6997  139.4607  152.4329 H   0  0  0  0  0  0  0  0  0  0  0  0
  146.7351  139.3982  154.5574 H   0  0  0  0  0  0  0  0  0  0  0  0
  148.3049  141.4163  152.9335 H   0  0  0  0  0  0  0  0  0  0  0  0
  146.8507  141.7257  153.8627 H   0  0  0  0  0  0  0  0  0  0  0  0
  149.2638  142.2474  154.9667 H   0  0  0  0  0  0  0  0  0  0  0  0
  148.0308  141.4466  155.9564 H   0  0  0  0  0  0  0  0  0  0  0  0
  148.5459  137.8479  154.4511 H   0  0  0  0  0  0  0  0  0  0  0  0
  149.3285  138.7292  153.1294 H   0  0  0  0  0  0  0  0  0  0  0  0
  147.4393  135.5948  151.6866 H   0  0  0  0  0  0  0  0  0  0  0  0
  147.5729  133.4082  151.2350 H   0  0  0  0  0  0  0  0  0  0  0  0
  146.4487  131.2225  150.8047 H   0  0  0  0  0  0  0  0  0  0  0  0
  143.9394  131.1380  150.7492 H   0  0  0  0  0  0  0  0  0  0  0  0
  142.6686  133.2675  151.1323 H   0  0  0  0  0  0  0  0  0  0  0  0
  1  2  2  0  0  0  0
  2  3  1  0  0  0  0
  2 12  1  0  0  0  0
  3  4  1  0  0  0  0
  3 19  1  0  0  0  0
  4  5  1  0  0  0  0
  4 20  1  0  0  0  0
  4 21  1  0  0  0  0
  5 11  1  0  0  0  0
  5  6  1  0  0  0  0
  5 22  1  0  0  0  0
  6  7  1  0  0  0  0
  6 23  1  0  0  0  0
  6 24  1  0  0  0  0
  7  8  1  0  0  0  0
  7 25  1  0  0  0  0
  7 26  1  0  0  0  0
  8  9  2  0  0  0  0
  8 10  2  0  0  0  0
  8 11  1  0  0  0  0
 11 27  1  0  0  0  0
 11 28  1  0  0  0  0
 12 13  1  0  0  0  0
 12 29  1  0  0  0  0
 13 18  1  0  0  0  0
 13 14  2  0  0  0  0
 14 15  1  0  0  0  0
 14 30  1  0  0  0  0
 15 16  2  0  0  0  0
 15 31  1  0  0  0  0
 16 17  1  0  0  0  0
 16 32  1  0  0  0  0
 17 18  2  0  0  0  0
 17 33  1  0  0  0  0
M  END
> <s_m_source_file>
AV-unprocessed.smi

> <i_m_source_file_index>
1431

> <i_lp_mmshare_version>
43012

> <i_f3d_flags>
0

> <s_epik_input>
bjFbY0hdW2NIXVtjSF1bY0hdYzFbTkhdQyg9TylbTkhdW0NIMl1bQ0BASF0oW0NIMl0yKVtDSDJdW0NIMl1TMig9Tyk9Tw==

> <s_epik_cmdline>
J2VwaWtfcHl0aG9uJywgJy1waCcsICc3LjAnLCAnLXRuJywgJzgnLCAnLW1hJywgJzIwMCcsICctbWV0YWxfYmluZGluZycsICctaW1hZScsICc8aW5maWxlLm1hZT4nLCAnLW9tYWUnLCAnPG91dGZpbGUubWFlPic=

> <r_lp_tautomer_probability>
1

> <r_epik_Ionization_Penalty>
4.47006e-05

> <r_epik_Ionization_Penalty_Charging>
0

> <r_epik_Ionization_Penalty_Neutral>
4.47006e-05

> <r_epik_State_Penalty>
-0

> <r_epik_Charging_Adjusted_Penalty>
0

> <i_epik_Tot_Q>
0

> <i_epik_Tot_abs_Q>
0

> <r_epik_Metal_State_Penalty>
-0

> <b_epik_Metal_Only>
0

> <s_lp_Force_Field>
OPLS_2005

> <r_lp_Energy>
3.66515

> <b_lp_Chiralities_Consistent>
1

> <s_lp_Variant>
AV-unprocessed.smi:1431-1

> <Gold.Version>
5.8.1

> <Gold.Id.Protein>
6NUR|6NUR_protein|mol2

> <Gold.PLP.Fitness>
40.6528

> <Gold.PLP.PLP>
-29.2093

> <Gold.PLP.part.hbond>
-2.9440

> <Gold.PLP.part.metal>
0.0000

> <Gold.PLP.part.buried>
-4.9166

> <Gold.PLP.part.nonpolar>
-26.2602

> <Gold.PLP.part.repulsive>
4.0449

> <Gold.PLP.ligand.clash>
0.0000

> <Gold.PLP.ligand.torsion>
0.2798

> <Gold.PLP.Chemscore.Hbond>
3.0000

> <Gold.PLP.Chemscore.CHOScore>
1.0000

> <Gold.PLP.Chemscore.Metal>
0.0000

> <Gold.Chemscore.Hbonds>
donor molecule, donor type, donor heavy atom, donor atom, acceptor molecule, acceptor atom, score
      L1  H     3    19       P1  7948  0.99
      L1  H    12    29       P1  7948  1.00
      P1  H  7989  7998       L1     9  0.96
      L1  C    17    33       P1 10186  0.93

> <Gold.PLP.Chemscore.Internal.Correction>
0.0030

> <Gold.Rescore>
     Score         DG    S(hbond)    S(metal)    S(lipo)     H(rot)  DE(clash)    DE(int)     intcor
     16.52     -19.29       2.91        0.00      64.00       1.33       1.31       1.46       ----

> <Gold.Chemscore.Fitness>
16.5166

> <Gold.Chemscore.DG>
-19.2863

> <Gold.Chemscore.ZeroCoef>
-5.4800

> <Gold.Chemscore.Hbond>
2.9097

> <Gold.Chemscore.Metal>
0.0000

> <Gold.Chemscore.Lipo>
63.9962

> <Gold.Chemscore.Internal_Hbond>
0.0000

> <Gold.Chemscore.DEClash>
1.3137

> <Gold.Chemscore.DEInternal>
1.4560

> <Gold.Chemscore.Rot>
1.3280

> <Gold.Chemscore.Internal.Correction>
   9.000000E+99

> <Gold.Chemscore.Hbonds>
donor molecule, donor type, donor heavy atom, donor atom, acceptor molecule, acceptor atom, score
      L1  H     3    19       P1  7948  0.94
      L1  H    12    29       P1  7948  0.94
      P1  H  7989  7998       L1     9  0.90

> <Gold.Chemscore.Hbond.Weighted>
-9.7183

> <Gold.Chemscore.Metal.Weighted>
-0.0000

> <Gold.Chemscore.Lipo.Weighted>
-7.4876

> <Gold.Chemscore.Internal_Hbond.Weighted>
0.0000

> <Gold.Chemscore.DEClash.Weighted>
1.3137

> <Gold.Chemscore.DEInternal.Weighted>
1.4560

> <Gold.Chemscore.Rot.Weighted>
3.3996

> <Gold.Chemscore.Internal.Correction.Weighted>
   9.000000E+99

> <Gold.Protein.RotatedTorsions>
[ 6907 6896 6895 6894 ] final  164.81 input  -60.11 | X-H torsion
[ 7974 7965 7964 7962 ] final -122.74 input  175.53 | X-H torsion
[ 8008 7997 7996 7995 ] final -122.15 input   59.86 | X-H torsion
[ 10167 10162 10161 10158 ] final -106.15 input  -65.29 | X-H torsion
[ 10718 10713 10712 10709 ] final  166.40 input   66.30 | X-H torsion
[ 10763 10752 10751 10750 ] final   -0.46 input  -60.55 | X-H torsion
[ 11005 11000 10999 10996 ] final  137.34 input  -57.11 | X-H torsion

> <Gold.Protein.ActiveResidues>
 VAL166  LYS551  ARG553  GLY616  TRP617  ASP618  TYR619  PRO620  LYS621  CYS622 
 ASP623  PHE694  ASN695  SER759  ASP760  ASP761  ALA762  ILE779  LEU786  VAL792 
 PHE793  MET794  SER795  GLU796  ALA797  LYS798  CYS799  TRP800  GLU811  SER814 

> <Gold.Protein.RotatedAtoms>
  151.9041  133.3545  159.3840 H   0  0  0  0  0  0  0  0  0  0  0  0  # atno 6907 bound_to 6896
  150.7073  134.4798  159.5474 H   0  0  0  0  0  0  0  0  0  0  0  0  # atno 6908 bound_to 6896
  152.2392  134.8245  160.0513 H   0  0  0  0  0  0  0  0  0  0  0  0  # atno 6909 bound_to 6896
  145.0262  140.8030  143.4351 H   0  0  0  0  0  0  0  0  0  0  0  0  # atno 7974 bound_to 7965
  155.1595  140.0405  157.2839 H   0  0  0  0  0  0  0  0  0  0  0  0  # atno 8008 bound_to 7997
  154.6346  140.2532  155.7366 H   0  0  0  0  0  0  0  0  0  0  0  0  # atno 8009 bound_to 7997
  156.2502  140.2868  156.0713 H   0  0  0  0  0  0  0  0  0  0  0  0  # atno 8010 bound_to 7997
  140.1908  143.3893  152.1208 H   0  0  0  0  0  0  0  0  0  0  0  0  # atno 10167 bound_to 10162
  157.0664  131.0354  151.2628 H   0  0  0  0  0  0  0  0  0  0  0  0  # atno 10718 bound_to 10713
  153.3321  135.6975  153.6939 H   0  0  0  0  0  0  0  0  0  0  0  0  # atno 10763 bound_to 10752
  153.5737  135.3511  155.2848 H   0  0  0  0  0  0  0  0  0  0  0  0  # atno 10764 bound_to 10752
  154.8620  135.4278  154.2513 H   0  0  0  0  0  0  0  0  0  0  0  0  # atno 10765 bound_to 10752
  140.0107  134.9440  157.0271 H   0  0  0  0  0  0  0  0  0  0  0  0  # atno 11005 bound_to 11000
  145.1830  139.2341  143.5282 LP  0  0  0  0  0  0  0  0  0  0  0  0  # atno 17320 bound_to 7965
  146.3492  140.1608  142.8591 LP  0  0  0  0  0  0  0  0  0  0  0  0  # atno 17321 bound_to 7965
  139.5257  144.7098  151.5240 LP  0  0  0  0  0  0  0  0  0  0  0  0  # atno 17342 bound_to 10162
  140.6457  143.8800  150.6735 LP  0  0  0  0  0  0  0  0  0  0  0  0  # atno 17343 bound_to 10162
  157.4913  130.7824  149.7511 LP  0  0  0  0  0  0  0  0  0  0  0  0  # atno 17370 bound_to 10713
  155.9963  130.3906  150.2784 LP  0  0  0  0  0  0  0  0  0  0  0  0  # atno 17371 bound_to 10713
  140.4560  134.1534  155.7186 LP  0  0  0  0  0  0  0  0  0  0  0  0  # atno 17394 bound_to 11000
  141.1709  133.8611  157.1574 LP  0  0  0  0  0  0  0  0  0  0  0  0  # atno 17395 bound_to 11000

$$$$
