AV-unprocessed.smi:1990|AV-procd|sdf|8064|dock2
  -GOLD-   2272010273D 1   1.00000     0.00000
 Structure written by MMmdl.
 46 47  0  0  0  0  0  0  0  0  1 V2000
  153.7055  141.4849  160.9552 C   0  0  0  0  0  0  0  0  0  0  0  0
  153.2427  141.7248  159.5144 C   0  0  1  0  0  0  0  0  0  0  0  0
  152.4654  140.5216  158.9479 C   0  0  0  0  0  0  0  0  0  0  0  0
  151.9324  140.8290  157.6235 N   0  0  0  0  0  0  0  0  0  0  0  0
  151.4557  139.7694  156.8175 C   0  0  0  0  0  0  0  0  0  0  0  0
  151.2845  139.9017  155.4159 C   0  0  0  0  0  0  0  0  0  0  0  0
  150.7985  138.8089  154.6721 C   0  0  0  0  0  0  0  0  0  0  0  0
  150.4970  137.6011  155.3426 C   0  0  0  0  0  0  0  0  0  0  0  0
  149.9870  136.4309  154.7176 N   0  0  0  0  0  0  0  0  0  0  0  0
  149.7004  135.2329  155.2606 C   0  0  0  0  0  0  0  0  0  0  0  0
  149.8453  134.9516  156.4499 O   0  0  0  0  0  0  0  0  0  0  0  0
  149.1425  134.1827  154.2899 C   0  0  1  0  0  0  0  0  0  0  0  0
  149.9723  132.8887  154.3101 C   0  0  0  0  0  0  0  0  0  0  0  0
  147.3750  133.8056  154.7059 S   0  0  0  0  0  0  0  0  0  0  0  0
  146.4757  134.2574  153.1624 C   0  0  0  0  0  0  0  0  0  0  0  0
  147.2543  132.3524  154.8983 O   0  0  0  0  0  0  0  0  0  0  0  0
  146.9301  134.7128  155.7750 O   0  0  0  0  0  0  0  0  0  0  0  0
  150.6856  137.5689  156.7377 C   0  0  0  0  0  0  0  0  0  0  0  0
  151.1516  138.6124  157.4533 N   0  0  0  0  0  0  0  0  0  0  0  0
  151.1886  142.0872  157.5630 C   0  0  0  0  0  0  0  0  0  0  0  0
  152.0072  143.2364  158.1801 C   0  0  1  0  0  0  0  0  0  0  0  0
  151.2010  144.5372  158.2577 C   0  0  0  0  0  0  0  0  0  0  0  0
  152.4036  142.8755  159.4997 O   0  0  0  0  0  0  0  0  0  0  0  0
  154.3598  140.6150  161.0176 H   0  0  0  0  0  0  0  0  0  0  0  0
  152.8575  141.3151  161.6191 H   0  0  0  0  0  0  0  0  0  0  0  0
  154.2588  142.3445  161.3341 H   0  0  0  0  0  0  0  0  0  0  0  0
  154.1224  141.9155  158.8972 H   0  0  0  0  0  0  0  0  0  0  0  0
  153.1398  139.6665  158.8951 H   0  0  0  0  0  0  0  0  0  0  0  0
  151.6420  140.2540  159.6116 H   0  0  0  0  0  0  0  0  0  0  0  0
  151.5198  140.8146  154.8905 H   0  0  0  0  0  0  0  0  0  0  0  0
  150.6594  138.9289  153.6094 H   0  0  0  0  0  0  0  0  0  0  0  0
  149.7605  136.5341  153.7389 H   0  0  0  0  0  0  0  0  0  0  0  0
  149.1534  134.5852  153.2763 H   0  0  0  0  0  0  0  0  0  0  0  0
  151.0228  133.0881  154.0956 H   0  0  0  0  0  0  0  0  0  0  0  0
  149.6126  132.1857  153.5587 H   0  0  0  0  0  0  0  0  0  0  0  0
  149.9156  132.3905  155.2788 H   0  0  0  0  0  0  0  0  0  0  0  0
  145.4248  133.9887  153.2682 H   0  0  0  0  0  0  0  0  0  0  0  0
  146.9019  133.7172  152.3174 H   0  0  0  0  0  0  0  0  0  0  0  0
  146.5509  135.3304  152.9880 H   0  0  0  0  0  0  0  0  0  0  0  0
  150.4591  136.6754  157.3012 H   0  0  0  0  0  0  0  0  0  0  0  0
  150.9342  142.3555  156.5376 H   0  0  0  0  0  0  0  0  0  0  0  0
  150.2487  141.9614  158.1018 H   0  0  0  0  0  0  0  0  0  0  0  0
  152.8975  143.4180  157.5754 H   0  0  0  0  0  0  0  0  0  0  0  0
  150.8853  144.8621  157.2660 H   0  0  0  0  0  0  0  0  0  0  0  0
  151.7957  145.3390  158.6960 H   0  0  0  0  0  0  0  0  0  0  0  0
  150.3075  144.4121  158.8699 H   0  0  0  0  0  0  0  0  0  0  0  0
  1  2  1  0  0  0  0
  1 24  1  0  0  0  0
  1 25  1  0  0  0  0
  1 26  1  0  0  0  0
  2 23  1  0  0  0  0
  2  3  1  0  0  0  0
  2 27  1  0  0  0  0
  3  4  1  0  0  0  0
  3 28  1  0  0  0  0
  3 29  1  0  0  0  0
  4  5  1  0  0  0  0
  4 20  1  0  0  0  0
  5 19  1  0  0  0  0
  5  6  2  0  0  0  0
  6  7  1  0  0  0  0
  6 30  1  0  0  0  0
  7  8  2  0  0  0  0
  7 31  1  0  0  0  0
  8  9  1  0  0  0  0
  8 18  1  0  0  0  0
  9 10  1  0  0  0  0
  9 32  1  0  0  0  0
 10 11  2  0  0  0  0
 10 12  1  0  0  0  0
 12 13  1  0  0  0  0
 12 14  1  0  0  0  0
 12 33  1  0  0  0  0
 13 34  1  0  0  0  0
 13 35  1  0  0  0  0
 13 36  1  0  0  0  0
 14 15  1  0  0  0  0
 14 16  2  0  0  0  0
 14 17  2  0  0  0  0
 15 37  1  0  0  0  0
 15 38  1  0  0  0  0
 15 39  1  0  0  0  0
 18 19  2  0  0  0  0
 18 40  1  0  0  0  0
 20 21  1  0  0  0  0
 20 41  1  0  0  0  0
 20 42  1  0  0  0  0
 21 22  1  0  0  0  0
 21 23  1  0  0  0  0
 21 43  1  0  0  0  0
 22 44  1  0  0  0  0
 22 45  1  0  0  0  0
 22 46  1  0  0  0  0
M  END
> <s_m_source_file>
AV-unprocessed.smi

> <i_m_source_file_index>
1990

> <i_lp_mmshare_version>
43012

> <i_f3d_flags>
0

> <s_epik_input>
W0NIM11bQ0BASF0xW0NIMl1OKFtDSDJdW0NASF0oTzEpW0NIM10pYzJbY0hdW2NIXWMoW2NIXW4yKVtOSF1DKD1PKVtDQEhdKFtDSDNdKVMoPU8pKD1PKVtDSDNd

> <s_epik_cmdline>
J2VwaWtfcHl0aG9uJywgJy1waCcsICc3LjAnLCAnLXRuJywgJzgnLCAnLW1hJywgJzIwMCcsICctbWV0YWxfYmluZGluZycsICctaW1hZScsICc8aW5maWxlLm1hZT4nLCAnLW9tYWUnLCAnPG91dGZpbGUubWFlPic=

> <r_lp_tautomer_probability>
1

> <r_epik_Ionization_Penalty>
0.000334888

> <r_epik_Ionization_Penalty_Charging>
0

> <r_epik_Ionization_Penalty_Neutral>
0.000334888

> <r_epik_State_Penalty>
0.000200905

> <r_epik_Charging_Adjusted_Penalty>
0.000200905

> <i_epik_Tot_Q>
0

> <i_epik_Tot_abs_Q>
0

> <r_epik_Metal_State_Penalty>
-0

> <b_epik_Metal_Only>
0

> <s_lp_Force_Field>
OPLS_2005

> <r_lp_Energy>
18.0691

> <b_lp_Chiralities_Consistent>
1

> <s_lp_Variant>
AV-unprocessed.smi:1990-4

> <Gold.Version>
5.8.1

> <Gold.Id.Protein>
6NUR|6NUR_protein|mol2

> <Gold.PLP.Fitness>
38.9465

> <Gold.PLP.PLP>
-36.1822

> <Gold.PLP.part.hbond>
-1.0000

> <Gold.PLP.part.metal>
0.0000

> <Gold.PLP.part.buried>
-3.8952

> <Gold.PLP.part.nonpolar>
-31.0713

> <Gold.PLP.part.repulsive>
0.1151

> <Gold.PLP.ligand.clash>
0.0000

> <Gold.PLP.ligand.torsion>
0.4240

> <Gold.PLP.Chemscore.Hbond>
1.0000

> <Gold.PLP.Chemscore.CHOScore>
0.0000

> <Gold.PLP.Chemscore.Metal>
0.0000

> <Gold.Chemscore.Hbonds>
donor molecule, donor type, donor heavy atom, donor atom, acceptor molecule, acceptor atom, score
      L1  H     9    32       P1  7948  1.00

> <Gold.PLP.Chemscore.Internal.Correction>
0.6123

> <Gold.Rescore>
     Score         DG    S(hbond)    S(metal)    S(lipo)     H(rot)  DE(clash)    DE(int)     intcor
     12.54     -14.86       0.55        0.00      97.65       1.52       0.17       2.16       ----

> <Gold.Chemscore.Fitness>
12.5408

> <Gold.Chemscore.DG>
-14.8630

> <Gold.Chemscore.ZeroCoef>
-5.4800

> <Gold.Chemscore.Hbond>
0.5517

> <Gold.Chemscore.Metal>
0.0000

> <Gold.Chemscore.Lipo>
97.6548

> <Gold.Chemscore.Internal_Hbond>
0.0000

> <Gold.Chemscore.DEClash>
0.1658

> <Gold.Chemscore.DEInternal>
2.1564

> <Gold.Chemscore.Rot>
1.5177

> <Gold.Chemscore.Internal.Correction>
   9.000000E+99

> <Gold.Chemscore.Hbonds>
donor molecule, donor type, donor heavy atom, donor atom, acceptor molecule, acceptor atom, score
      L1  H     9    32       P1  7948  0.42

> <Gold.Chemscore.Hbond.Weighted>
-1.8427

> <Gold.Chemscore.Metal.Weighted>
-0.0000

> <Gold.Chemscore.Lipo.Weighted>
-11.4256

> <Gold.Chemscore.Internal_Hbond.Weighted>
0.0000

> <Gold.Chemscore.DEClash.Weighted>
0.1658

> <Gold.Chemscore.DEInternal.Weighted>
2.1564

> <Gold.Chemscore.Rot.Weighted>
3.8853

> <Gold.Chemscore.Internal.Correction.Weighted>
   9.000000E+99

> <Gold.Protein.RotatedTorsions>
[ 6907 6896 6895 6894 ] final  -50.53 input  -60.11 | X-H torsion
[ 7974 7965 7964 7962 ] final  -46.42 input  175.53 | X-H torsion
[ 8008 7997 7996 7995 ] final  144.73 input   59.86 | X-H torsion
[ 10167 10162 10161 10158 ] final  142.24 input  -65.29 | X-H torsion
[ 10718 10713 10712 10709 ] final  124.65 input   66.30 | X-H torsion
[ 10763 10752 10751 10750 ] final   83.93 input  -60.55 | X-H torsion
[ 11005 11000 10999 10996 ] final   71.33 input  -57.11 | X-H torsion

> <Gold.Protein.ActiveResidues>
 VAL166  LYS551  ARG553  GLY616  TRP617  ASP618  TYR619  PRO620  LYS621  CYS622 
 ASP623  PHE694  ASN695  SER759  ASP760  ASP761  ALA762  ILE779  LEU786  VAL792 
 PHE793  MET794  SER795  GLU796  ALA797  LYS798  CYS799  TRP800  GLU811  SER814 

> <Gold.Protein.RotatedAtoms>
  150.8698  134.8070  159.7146 H   0  0  0  0  0  0  0  0  0  0  0  0  # atno 6907 bound_to 6896
  152.4707  134.4964  159.9721 H   0  0  0  0  0  0  0  0  0  0  0  0  # atno 6908 bound_to 6896
  151.5055  133.3457  159.2911 H   0  0  0  0  0  0  0  0  0  0  0  0  # atno 6909 bound_to 6896
  145.9720  140.7373  142.9405 H   0  0  0  0  0  0  0  0  0  0  0  0  # atno 7974 bound_to 7965
  156.2901  140.2228  156.5100 H   0  0  0  0  0  0  0  0  0  0  0  0  # atno 8008 bound_to 7997
  154.7617  140.0473  157.1000 H   0  0  0  0  0  0  0  0  0  0  0  0  # atno 8009 bound_to 7997
  154.9983  140.3098  155.4881 H   0  0  0  0  0  0  0  0  0  0  0  0  # atno 8010 bound_to 7997
  139.4999  144.6119  151.6251 H   0  0  0  0  0  0  0  0  0  0  0  0  # atno 10167 bound_to 10162
  157.5567  131.1091  150.8609 H   0  0  0  0  0  0  0  0  0  0  0  0  # atno 10718 bound_to 10713
  153.1335  135.4673  154.9386 H   0  0  0  0  0  0  0  0  0  0  0  0  # atno 10763 bound_to 10752
  154.7685  135.3152  154.8239 H   0  0  0  0  0  0  0  0  0  0  0  0  # atno 10764 bound_to 10752
  153.8777  135.6897  153.4823 H   0  0  0  0  0  0  0  0  0  0  0  0  # atno 10765 bound_to 10752
  139.9549  134.7161  156.0775 H   0  0  0  0  0  0  0  0  0  0  0  0  # atno 11005 bound_to 11000
  144.6839  140.2765  143.7298 LP  0  0  0  0  0  0  0  0  0  0  0  0  # atno 17320 bound_to 7965
  145.7892  139.1920  143.2113 LP  0  0  0  0  0  0  0  0  0  0  0  0  # atno 17321 bound_to 7965
  140.5797  143.9968  150.6261 LP  0  0  0  0  0  0  0  0  0  0  0  0  # atno 17342 bound_to 10162
  140.3113  143.3196  152.0876 LP  0  0  0  0  0  0  0  0  0  0  0  0  # atno 17343 bound_to 10162
  156.9118  130.5283  149.5280 LP  0  0  0  0  0  0  0  0  0  0  0  0  # atno 17370 bound_to 10713
  156.0625  130.5675  150.9222 LP  0  0  0  0  0  0  0  0  0  0  0  0  # atno 17371 bound_to 10713
  141.1219  133.6610  156.3237 LP  0  0  0  0  0  0  0  0  0  0  0  0  # atno 17394 bound_to 11000
  140.5632  134.5914  157.5439 LP  0  0  0  0  0  0  0  0  0  0  0  0  # atno 17395 bound_to 11000

$$$$
