AV-unprocessed.smi:271|AV-procd|sdf|2049|dock1
  -GOLD-   2262021273D 1   1.00000     0.00000
 Structure written by MMmdl.
 58 60  0  0  0  0  0  0  0  0  1 V2000
  146.9652  135.0436  162.8873 C   0  0  0  0  0  0  0  0  0  0  0  0
  146.9970  134.1909  161.6097 C   0  0  0  0  0  0  0  0  0  0  0  0
  147.3049  132.7231  161.9522 C   0  0  0  0  0  0  0  0  0  0  0  0
  147.9937  134.7748  160.5894 C   0  0  0  0  0  0  0  0  0  0  0  0
  148.0367  134.0028  159.2534 C   0  0  0  0  0  0  0  0  0  0  0  0
  149.0602  134.4860  158.3263 N   0  0  0  0  0  0  0  0  0  0  0  0
  149.2403  135.9363  158.3165 C   0  0  0  0  0  0  0  0  0  0  0  0
  147.9886  136.7043  157.8619 C   0  0  0  0  0  0  0  0  0  0  0  0
  147.1999  137.2068  158.9962 C   0  0  0  0  0  0  0  0  0  0  0  0
  146.5792  137.6020  159.8890 N   0  0  0  0  0  0  0  0  0  0  0  0
  148.9567  133.9605  157.0842 C   0  0  0  0  0  0  0  0  0  0  0  0
  150.0381  133.3032  156.5981 N   0  0  0  0  0  0  0  0  0  0  0  0
  149.9923  132.7545  155.3808 C   0  0  0  0  0  0  0  0  0  0  0  0
  148.9838  132.7460  154.5067 N   0  0  0  0  0  0  0  0  0  0  0  0
  147.8934  133.4040  154.9944 C   0  0  0  0  0  0  0  0  0  0  0  0
  147.7978  134.0436  156.2620 C   0  0  0  0  0  0  0  0  0  0  0  0
  146.5441  134.6237  156.4081 N   0  0  0  0  0  0  0  0  0  0  0  0
  145.9324  134.3406  155.2911 C   0  0  0  0  0  0  0  0  0  0  0  0
  146.6600  133.5917  154.3926 N   0  0  0  0  0  0  0  0  0  0  0  0
  146.2123  133.1301  153.0861 C   0  0  0  0  0  0  0  0  0  0  0  0
  146.2326  134.2215  151.9795 C   0  0  2  0  0  0  0  0  0  0  0  0
  145.7100  135.5874  152.4861 C   0  0  0  0  0  0  0  0  0  0  0  0
  146.1994  136.6465  151.6895 O   0  0  0  0  0  0  0  0  0  0  0  0
  145.4807  133.7713  150.6993 C   0  0  2  0  0  0  0  0  0  0  0  0
  144.0589  133.2885  150.9364 C   0  0  0  0  0  0  0  0  0  0  0  0
  143.7583  132.5300  149.6489 C   0  0  0  0  0  0  0  0  0  0  0  0
  145.0012  131.9735  149.2362 O   0  0  0  0  0  0  0  0  0  0  0  0
  146.0620  132.5363  150.0018 C   0  0  0  0  0  0  0  0  0  0  0  0
  147.9378  135.0552  163.3807 H   0  0  0  0  0  0  0  0  0  0  0  0
  146.2354  134.6586  163.6001 H   0  0  0  0  0  0  0  0  0  0  0  0
  146.6921  136.0758  162.6661 H   0  0  0  0  0  0  0  0  0  0  0  0
  145.9996  134.2303  161.1698 H   0  0  0  0  0  0  0  0  0  0  0  0
  148.3103  132.6132  162.3597 H   0  0  0  0  0  0  0  0  0  0  0  0
  147.2280  132.0795  161.0763 H   0  0  0  0  0  0  0  0  0  0  0  0
  146.6033  132.3395  162.6934 H   0  0  0  0  0  0  0  0  0  0  0  0
  147.7208  135.8097  160.3773 H   0  0  0  0  0  0  0  0  0  0  0  0
  148.9846  134.8101  161.0440 H   0  0  0  0  0  0  0  0  0  0  0  0
  148.1903  132.9390  159.4327 H   0  0  0  0  0  0  0  0  0  0  0  0
  147.0657  134.0914  158.7649 H   0  0  0  0  0  0  0  0  0  0  0  0
  149.5463  136.2758  159.3067 H   0  0  0  0  0  0  0  0  0  0  0  0
  150.0639  136.1761  157.6430 H   0  0  0  0  0  0  0  0  0  0  0  0
  148.2678  137.5588  157.2452 H   0  0  0  0  0  0  0  0  0  0  0  0
  147.3303  136.0717  157.2659 H   0  0  0  0  0  0  0  0  0  0  0  0
  150.8912  132.2478  155.0616 H   0  0  0  0  0  0  0  0  0  0  0  0
  144.9204  134.6637  155.0951 H   0  0  0  0  0  0  0  0  0  0  0  0
  146.8503  132.2959  152.7927 H   0  0  0  0  0  0  0  0  0  0  0  0
  145.2145  132.7046  153.1922 H   0  0  0  0  0  0  0  0  0  0  0  0
  147.2774  134.3669  151.7000 H   0  0  0  0  0  0  0  0  0  0  0  0
  144.6224  135.6309  152.4352 H   0  0  0  0  0  0  0  0  0  0  0  0
  145.9799  135.7573  153.5283 H   0  0  0  0  0  0  0  0  0  0  0  0
  147.1275  136.5215  151.5609 H   0  0  0  0  0  0  0  0  0  0  0  0
  145.4623  134.5878  149.9759 H   0  0  0  0  0  0  0  0  0  0  0  0
  144.0253  132.6055  151.7864 H   0  0  0  0  0  0  0  0  0  0  0  0
  143.3437  134.0887  151.1209 H   0  0  0  0  0  0  0  0  0  0  0  0
  142.9994  131.7592  149.7851 H   0  0  0  0  0  0  0  0  0  0  0  0
  143.4107  133.2166  148.8759 H   0  0  0  0  0  0  0  0  0  0  0  0
  146.9138  132.7771  149.3654 H   0  0  0  0  0  0  0  0  0  0  0  0
  146.3858  131.7949  150.7338 H   0  0  0  0  0  0  0  0  0  0  0  0
  1  2  1  0  0  0  0
  1 29  1  0  0  0  0
  1 30  1  0  0  0  0
  1 31  1  0  0  0  0
  2  3  1  0  0  0  0
  2  4  1  0  0  0  0
  2 32  1  0  0  0  0
  3 33  1  0  0  0  0
  3 34  1  0  0  0  0
  3 35  1  0  0  0  0
  4  5  1  0  0  0  0
  4 36  1  0  0  0  0
  4 37  1  0  0  0  0
  5  6  1  0  0  0  0
  5 38  1  0  0  0  0
  5 39  1  0  0  0  0
  6  7  1  0  0  0  0
  6 11  1  0  0  0  0
  7  8  1  0  0  0  0
  7 40  1  0  0  0  0
  7 41  1  0  0  0  0
  8  9  1  0  0  0  0
  8 42  1  0  0  0  0
  8 43  1  0  0  0  0
  9 10  3  0  0  0  0
 11 16  1  0  0  0  0
 11 12  2  0  0  0  0
 12 13  1  0  0  0  0
 13 14  2  0  0  0  0
 13 44  1  0  0  0  0
 14 15  1  0  0  0  0
 15 19  1  0  0  0  0
 15 16  2  0  0  0  0
 16 17  1  0  0  0  0
 17 18  2  0  0  0  0
 18 19  1  0  0  0  0
 18 45  1  0  0  0  0
 19 20  1  0  0  0  0
 20 21  1  0  0  0  0
 20 46  1  0  0  0  0
 20 47  1  0  0  0  0
 21 22  1  0  0  0  0
 21 24  1  0  0  0  0
 21 48  1  0  0  0  0
 22 23  1  0  0  0  0
 22 49  1  0  0  0  0
 22 50  1  0  0  0  0
 23 51  1  0  0  0  0
 24 28  1  0  0  0  0
 24 25  1  0  0  0  0
 24 52  1  0  0  0  0
 25 26  1  0  0  0  0
 25 53  1  0  0  0  0
 25 54  1  0  0  0  0
 26 27  1  0  0  0  0
 26 55  1  0  0  0  0
 26 56  1  0  0  0  0
 27 28  1  0  0  0  0
 28 57  1  0  0  0  0
 28 58  1  0  0  0  0
M  END
> <s_m_source_file>
AV-unprocessed.smi

> <i_m_source_file_index>
271

> <i_lp_mmshare_version>
43012

> <i_f3d_flags>
0

> <s_epik_input>
W0NIM11bQ0hdKFtDSDNdKVtDSDJdW0NIMl1OKFtDSDJdW0NIMl1DI04pYyhuW2NIXW4xKWMoYzEyKW5bY0hdbjJbQ0gyXVtDQEhdKFtDSDJdW09IXSlbQ0BASF0zW0NIMl1bQ0gyXU9bQ0gyXTM=

> <s_epik_cmdline>
J2VwaWtfcHl0aG9uJywgJy1waCcsICc3LjAnLCAnLXRuJywgJzgnLCAnLW1hJywgJzIwMCcsICctbWV0YWxfYmluZGluZycsICctaW1hZScsICc8aW5maWxlLm1hZT4nLCAnLW9tYWUnLCAnPG91dGZpbGUubWFlPic=

> <r_lp_tautomer_probability>
1

> <r_epik_Ionization_Penalty>
0.000825874

> <r_epik_Ionization_Penalty_Charging>
0

> <r_epik_Ionization_Penalty_Neutral>
0.000825874

> <r_epik_State_Penalty>
0.000396768

> <r_epik_Charging_Adjusted_Penalty>
0.000396768

> <i_epik_Tot_Q>
0

> <i_epik_Tot_abs_Q>
0

> <r_epik_Metal_State_Penalty>
-0

> <b_epik_Metal_Only>
0

> <s_lp_Force_Field>
OPLS_2005

> <r_lp_Energy>
34.7872

> <b_lp_Chiralities_Consistent>
1

> <s_lp_Variant>
AV-unprocessed.smi:271-1

> <Gold.Version>
5.8.1

> <Gold.Id.Protein>
6NUR|6NUR_protein|mol2

> <Gold.PLP.Fitness>
44.4791

> <Gold.PLP.PLP>
-38.0491

> <Gold.PLP.part.hbond>
-3.6402

> <Gold.PLP.part.metal>
0.0000

> <Gold.PLP.part.buried>
-6.6320

> <Gold.PLP.part.nonpolar>
-29.4952

> <Gold.PLP.part.repulsive>
0.2412

> <Gold.PLP.ligand.clash>
0.0000

> <Gold.PLP.ligand.torsion>
1.2695

> <Gold.PLP.Chemscore.Hbond>
2.8000

> <Gold.PLP.Chemscore.CHOScore>
0.0000

> <Gold.PLP.Chemscore.Metal>
0.0000

> <Gold.Chemscore.Hbonds>
donor molecule, donor type, donor heavy atom, donor atom, acceptor molecule, acceptor atom, score
      L1  H    23    51       P1  7948  1.00
      P1  H  6896  6909       L1     6  0.65
      P1  H  6934  6947       L1    10  1.00

> <Gold.PLP.Chemscore.Internal.Correction>
0.5689

> <Gold.Rescore>
     Score         DG    S(hbond)    S(metal)    S(lipo)     H(rot)  DE(clash)    DE(int)     intcor
     10.46     -12.88       2.00        0.00      88.69       3.77       0.02       2.40       ----

> <Gold.Chemscore.Fitness>
10.4564

> <Gold.Chemscore.DG>
-12.8756

> <Gold.Chemscore.ZeroCoef>
-5.4800

> <Gold.Chemscore.Hbond>
1.9956

> <Gold.Chemscore.Metal>
0.0000

> <Gold.Chemscore.Lipo>
88.6941

> <Gold.Chemscore.Internal_Hbond>
0.0000

> <Gold.Chemscore.DEClash>
0.0158

> <Gold.Chemscore.DEInternal>
2.4035

> <Gold.Chemscore.Rot>
3.7683

> <Gold.Chemscore.Internal.Correction>
   9.000000E+99

> <Gold.Chemscore.Hbonds>
donor molecule, donor type, donor heavy atom, donor atom, acceptor molecule, acceptor atom, score
      L1  H    23    51       P1  7948  1.00
      P1  H  6896  6909       L1     6  0.01
      P1  H  6934  6947       L1    10  0.97

> <Gold.Chemscore.Hbond.Weighted>
-6.6652

> <Gold.Chemscore.Metal.Weighted>
-0.0000

> <Gold.Chemscore.Lipo.Weighted>
-10.3772

> <Gold.Chemscore.Internal_Hbond.Weighted>
0.0000

> <Gold.Chemscore.DEClash.Weighted>
0.0158

> <Gold.Chemscore.DEInternal.Weighted>
2.4035

> <Gold.Chemscore.Rot.Weighted>
9.6468

> <Gold.Chemscore.Internal.Correction.Weighted>
   9.000000E+99

> <Gold.Protein.RotatedTorsions>
[ 6907 6896 6895 6894 ] final   24.78 input  -60.11 | X-H torsion
[ 7974 7965 7964 7962 ] final -112.92 input  175.53 | X-H torsion
[ 8008 7997 7996 7995 ] final -131.09 input   59.86 | X-H torsion
[ 10167 10162 10161 10158 ] final  144.22 input  -65.29 | X-H torsion
[ 10718 10713 10712 10709 ] final -149.26 input   66.30 | X-H torsion
[ 10763 10752 10751 10750 ] final  176.35 input  -60.55 | X-H torsion
[ 11005 11000 10999 10996 ] final   -1.67 input  -57.11 | X-H torsion

> <Gold.Protein.ActiveResidues>
 VAL166  LYS551  ARG553  GLY616  TRP617  ASP618  TYR619  PRO620  LYS621  CYS622 
 ASP623  PHE694  ASN695  SER759  ASP760  ASP761  ALA762  ILE779  LEU786  VAL792 
 PHE793  MET794  SER795  GLU796  ALA797  LYS798  CYS799  TRP800  GLU811  SER814 

> <Gold.Protein.RotatedAtoms>
  151.9627  135.0115  160.0548 H   0  0  0  0  0  0  0  0  0  0  0  0  # atno 6907 bound_to 6896
  152.1854  133.4731  159.4988 H   0  0  0  0  0  0  0  0  0  0  0  0  # atno 6908 bound_to 6896
  150.6925  134.1697  159.4250 H   0  0  0  0  0  0  0  0  0  0  0  0  # atno 6909 bound_to 6896
  145.1382  140.8763  143.3718 H   0  0  0  0  0  0  0  0  0  0  0  0  # atno 7974 bound_to 7965
  155.3066  140.0455  157.3032 H   0  0  0  0  0  0  0  0  0  0  0  0  # atno 8008 bound_to 7997
  154.5457  140.2301  155.8534 H   0  0  0  0  0  0  0  0  0  0  0  0  # atno 8009 bound_to 7997
  156.1921  140.3048  155.9361 H   0  0  0  0  0  0  0  0  0  0  0  0  # atno 8010 bound_to 7997
  139.4952  144.5987  151.6528 H   0  0  0  0  0  0  0  0  0  0  0  0  # atno 10167 bound_to 10162
  156.4309  130.8075  151.2302 H   0  0  0  0  0  0  0  0  0  0  0  0  # atno 10718 bound_to 10713
  154.4800  135.2774  155.1578 H   0  0  0  0  0  0  0  0  0  0  0  0  # atno 10763 bound_to 10752
  154.3292  135.6193  153.5547 H   0  0  0  0  0  0  0  0  0  0  0  0  # atno 10764 bound_to 10752
  152.9874  135.5761  154.5198 H   0  0  0  0  0  0  0  0  0  0  0  0  # atno 10765 bound_to 10752
  140.6499  133.9413  155.8374 H   0  0  0  0  0  0  0  0  0  0  0  0  # atno 11005 bound_to 11000
  145.0561  139.3142  143.5904 LP  0  0  0  0  0  0  0  0  0  0  0  0  # atno 17320 bound_to 7965
  146.3507  139.9987  142.8678 LP  0  0  0  0  0  0  0  0  0  0  0  0  # atno 17321 bound_to 7965
  140.5631  144.0235  150.6179 LP  0  0  0  0  0  0  0  0  0  0  0  0  # atno 17342 bound_to 10162
  140.3327  143.3067  152.0670 LP  0  0  0  0  0  0  0  0  0  0  0  0  # atno 17343 bound_to 10162
  157.7508  131.0198  150.3684 LP  0  0  0  0  0  0  0  0  0  0  0  0  # atno 17370 bound_to 10713
  156.4021  130.3918  149.6952 LP  0  0  0  0  0  0  0  0  0  0  0  0  # atno 17371 bound_to 10713
  141.0544  134.0438  157.3741 LP  0  0  0  0  0  0  0  0  0  0  0  0  # atno 17394 bound_to 11000
  139.9049  135.0176  156.7442 LP  0  0  0  0  0  0  0  0  0  0  0  0  # atno 17395 bound_to 11000

$$$$
