AV-unprocessed.smi:2457|AV-procd|sdf|9706|dock2
  -GOLD-   2272013343D 1   1.00000     0.00000
 Structure written by MMmdl.
 40 41  0  0  0  0  0  0  0  0  1 V2000
  151.6984  143.9116  158.7834 C   0  0  0  0  0  0  0  0  0  0  0  0
  152.4584  143.2296  159.8768 C   0  0  0  0  0  0  0  0  0  0  0  0
  152.4322  143.5330  161.2151 C   0  0  0  0  0  0  0  0  0  0  0  0
  153.4742  142.4861  162.1387 S   0  0  0  0  0  0  0  0  0  0  0  0
  153.9173  141.6614  160.6475 C   0  0  0  0  0  0  0  0  0  0  0  0
  154.8658  140.5018  160.6040 C   0  0  2  0  0  0  0  0  0  0  0  0
  155.2710  140.0316  162.0081 C   0  0  0  0  0  0  0  0  0  0  0  0
  156.0783  140.7419  159.6763 C   0  0  0  0  0  0  0  0  0  0  0  0
  156.9662  139.5854  159.5875 N   0  0  0  0  0  0  0  0  0  0  0  0
  156.6609  138.4275  158.9868 C   0  0  0  0  0  0  0  0  0  0  0  0
  155.5701  138.1854  158.4704 O   0  0  0  0  0  0  0  0  0  0  0  0
  157.6951  137.5756  158.9958 N   0  0  0  0  0  0  0  0  0  0  0  0
  157.7019  136.2556  158.3724 C   0  0  1  0  0  0  0  0  0  0  0  0
  157.4101  136.3811  156.8623 C   0  0  0  0  0  0  0  0  0  0  0  0
  157.3470  135.0160  156.1585 C   0  0  0  0  0  0  0  0  0  0  0  0
  158.6699  134.2439  156.2606 C   0  0  0  0  0  0  0  0  0  0  0  0
  159.0868  133.8814  157.9878 S   0  0  0  0  0  0  0  0  0  0  0  0
  159.0553  135.5748  158.6382 C   0  0  0  0  0  0  0  0  0  0  0  0
  153.3031  142.1595  159.5698 N   0  0  0  0  0  0  0  0  0  0  0  0
  151.1133  144.7484  159.1657 H   0  0  0  0  0  0  0  0  0  0  0  0
  151.0088  143.2229  158.2950 H   0  0  0  0  0  0  0  0  0  0  0  0
  152.3720  144.3029  158.0205 H   0  0  0  0  0  0  0  0  0  0  0  0
  151.8663  144.3066  161.7125 H   0  0  0  0  0  0  0  0  0  0  0  0
  154.3029  139.6746  160.1701 H   0  0  0  0  0  0  0  0  0  0  0  0
  154.3945  139.7747  162.6036 H   0  0  0  0  0  0  0  0  0  0  0  0
  155.8223  140.8061  162.5421 H   0  0  0  0  0  0  0  0  0  0  0  0
  155.9063  139.1472  161.9571 H   0  0  0  0  0  0  0  0  0  0  0  0
  155.7264  140.9551  158.6665 H   0  0  0  0  0  0  0  0  0  0  0  0
  156.6405  141.6197  159.9987 H   0  0  0  0  0  0  0  0  0  0  0  0
  157.8898  139.6899  159.9813 H   0  0  0  0  0  0  0  0  0  0  0  0
  158.5495  137.8698  159.4456 H   0  0  0  0  0  0  0  0  0  0  0  0
  156.9224  135.6465  158.8345 H   0  0  0  0  0  0  0  0  0  0  0  0
  156.4602  136.8958  156.7125 H   0  0  0  0  0  0  0  0  0  0  0  0
  158.1700  137.0031  156.3872 H   0  0  0  0  0  0  0  0  0  0  0  0
  156.5380  134.4193  156.5818 H   0  0  0  0  0  0  0  0  0  0  0  0
  157.0985  135.1653  155.1073 H   0  0  0  0  0  0  0  0  0  0  0  0
  158.6007  133.3036  155.7134 H   0  0  0  0  0  0  0  0  0  0  0  0
  159.4812  134.8172  155.8109 H   0  0  0  0  0  0  0  0  0  0  0  0
  159.8676  136.1430  158.1832 H   0  0  0  0  0  0  0  0  0  0  0  0
  159.2553  135.5322  159.7094 H   0  0  0  0  0  0  0  0  0  0  0  0
  1  2  1  0  0  0  0
  1 20  1  0  0  0  0
  1 21  1  0  0  0  0
  1 22  1  0  0  0  0
  2 19  1  0  0  0  0
  2  3  2  0  0  0  0
  3  4  1  0  0  0  0
  3 23  1  0  0  0  0
  4  5  1  0  0  0  0
  5  6  1  0  0  0  0
  5 19  2  0  0  0  0
  6  7  1  0  0  0  0
  6  8  1  0  0  0  0
  6 24  1  0  0  0  0
  7 25  1  0  0  0  0
  7 26  1  0  0  0  0
  7 27  1  0  0  0  0
  8  9  1  0  0  0  0
  8 28  1  0  0  0  0
  8 29  1  0  0  0  0
  9 10  1  0  0  0  0
  9 30  1  0  0  0  0
 10 11  2  0  0  0  0
 10 12  1  0  0  0  0
 12 13  1  0  0  0  0
 12 31  1  0  0  0  0
 13 18  1  0  0  0  0
 13 14  1  0  0  0  0
 13 32  1  0  0  0  0
 14 15  1  0  0  0  0
 14 33  1  0  0  0  0
 14 34  1  0  0  0  0
 15 16  1  0  0  0  0
 15 35  1  0  0  0  0
 15 36  1  0  0  0  0
 16 17  1  0  0  0  0
 16 37  1  0  0  0  0
 16 38  1  0  0  0  0
 17 18  1  0  0  0  0
 18 39  1  0  0  0  0
 18 40  1  0  0  0  0
M  END
> <s_m_source_file>
AV-unprocessed.smi

> <i_m_source_file_index>
2457

> <i_lp_mmshare_version>
43012

> <i_f3d_flags>
0

> <s_epik_input>
W0NIM11jMVtjSF1zYyhuMSlbQ0BIXShbQ0gzXSlbQ0gyXVtOSF1DKD1PKVtOSF1bQ0BASF0yW0NIMl1bQ0gyXVtDSDJdU1tDSDJdMg==

> <s_epik_cmdline>
J2VwaWtfcHl0aG9uJywgJy1waCcsICc3LjAnLCAnLXRuJywgJzgnLCAnLW1hJywgJzIwMCcsICctbWV0YWxfYmluZGluZycsICctaW1hZScsICc8aW5maWxlLm1hZT4nLCAnLW9tYWUnLCAnPG91dGZpbGUubWFlPic=

> <r_epik_Ionization_Penalty>
0.00154805

> <r_epik_Ionization_Penalty_Charging>
0

> <r_epik_Ionization_Penalty_Neutral>
0.00154805

> <r_epik_State_Penalty>
0.00100357

> <r_epik_Charging_Adjusted_Penalty>
0.00100357

> <i_epik_Tot_Q>
0

> <i_epik_Tot_abs_Q>
0

> <r_epik_Metal_State_Penalty>
-0

> <b_epik_Metal_Only>
0

> <s_lp_Force_Field>
OPLS_2005

> <r_lp_Energy>
-7.39809

> <b_lp_Chiralities_Consistent>
1

> <s_lp_Variant>
AV-unprocessed.smi:2457-3

> <Gold.Version>
5.8.1

> <Gold.Id.Protein>
6NUR|6NUR_protein|mol2

> <Gold.PLP.Fitness>
38.3935

> <Gold.PLP.PLP>
-35.6340

> <Gold.PLP.part.hbond>
-2.0000

> <Gold.PLP.part.metal>
0.0000

> <Gold.PLP.part.buried>
-3.6147

> <Gold.PLP.part.nonpolar>
-29.8313

> <Gold.PLP.part.repulsive>
0.1292

> <Gold.PLP.ligand.clash>
0.0000

> <Gold.PLP.ligand.torsion>
0.1093

> <Gold.PLP.Chemscore.Hbond>
0.9440

> <Gold.PLP.Chemscore.CHOScore>
0.0000

> <Gold.PLP.Chemscore.Metal>
0.0000

> <Gold.Chemscore.Hbonds>
donor molecule, donor type, donor heavy atom, donor atom, acceptor molecule, acceptor atom, score
      P1  H  7997  8010       L1    11  0.49

> <Gold.PLP.Chemscore.Internal.Correction>
0.1461

> <Gold.Rescore>
     Score         DG    S(hbond)    S(metal)    S(lipo)     H(rot)  DE(clash)    DE(int)     intcor
     16.49     -16.74       0.93        0.00     101.77       1.46       0.13       0.12       ----

> <Gold.Chemscore.Fitness>
16.4874

> <Gold.Chemscore.DG>
-16.7420

> <Gold.Chemscore.ZeroCoef>
-5.4800

> <Gold.Chemscore.Hbond>
0.9270

> <Gold.Chemscore.Metal>
0.0000

> <Gold.Chemscore.Lipo>
101.7744

> <Gold.Chemscore.Internal_Hbond>
0.0000

> <Gold.Chemscore.DEClash>
0.1306

> <Gold.Chemscore.DEInternal>
0.1241

> <Gold.Chemscore.Rot>
1.4616

> <Gold.Chemscore.Internal.Correction>
   9.000000E+99

> <Gold.Chemscore.Hbonds>
donor molecule, donor type, donor heavy atom, donor atom, acceptor molecule, acceptor atom, score
      P1  H  7997  8010       L1    11  0.05

> <Gold.Chemscore.Hbond.Weighted>
-3.0960

> <Gold.Chemscore.Metal.Weighted>
-0.0000

> <Gold.Chemscore.Lipo.Weighted>
-11.9076

> <Gold.Chemscore.Internal_Hbond.Weighted>
0.0000

> <Gold.Chemscore.DEClash.Weighted>
0.1306

> <Gold.Chemscore.DEInternal.Weighted>
0.1241

> <Gold.Chemscore.Rot.Weighted>
3.7416

> <Gold.Chemscore.Internal.Correction.Weighted>
   9.000000E+99

> <Gold.Protein.RotatedTorsions>
[ 6907 6896 6895 6894 ] final    9.45 input  -60.11 | X-H torsion
[ 7974 7965 7964 7962 ] final  -23.42 input  175.53 | X-H torsion
[ 8008 7997 7996 7995 ] final  -23.83 input   59.86 | X-H torsion
[ 10167 10162 10161 10158 ] final -173.66 input  -65.29 | X-H torsion
[ 10718 10713 10712 10709 ] final  -28.06 input   66.30 | X-H torsion
[ 10763 10752 10751 10750 ] final  -48.64 input  -60.55 | X-H torsion
[ 11005 11000 10999 10996 ] final -100.57 input  -57.11 | X-H torsion

> <Gold.Protein.ActiveResidues>
 VAL166  LYS551  ARG553  GLY616  TRP617  ASP618  TYR619  PRO620  LYS621  CYS622 
 ASP623  PHE694  ASN695  SER759  ASP760  ASP761  ALA762  ILE779  LEU786  VAL792 
 PHE793  MET794  SER795  GLU796  ALA797  LYS798  CYS799  TRP800  GLU811  SER814 

> <Gold.Protein.RotatedAtoms>
  151.7224  135.0891  160.0286 H   0  0  0  0  0  0  0  0  0  0  0  0  # atno 6907 bound_to 6896
  152.3593  133.6272  159.6011 H   0  0  0  0  0  0  0  0  0  0  0  0  # atno 6908 bound_to 6896
  150.7593  133.9365  159.3484 H   0  0  0  0  0  0  0  0  0  0  0  0  # atno 6909 bound_to 6896
  146.1617  140.4614  142.8569 H   0  0  0  0  0  0  0  0  0  0  0  0  # atno 7974 bound_to 7965
  154.4563  140.1970  156.0370 H   0  0  0  0  0  0  0  0  0  0  0  0  # atno 8008 bound_to 7997
  156.0752  140.3279  155.7597 H   0  0  0  0  0  0  0  0  0  0  0  0  # atno 8009 bound_to 7997
  155.5199  140.0569  157.2899 H   0  0  0  0  0  0  0  0  0  0  0  0  # atno 8010 bound_to 7997
  139.5676  144.1718  152.1336 H   0  0  0  0  0  0  0  0  0  0  0  0  # atno 10167 bound_to 10162
  156.4301  130.4443  149.7123 H   0  0  0  0  0  0  0  0  0  0  0  0  # atno 10718 bound_to 10713
  154.0811  135.6591  153.4838 H   0  0  0  0  0  0  0  0  0  0  0  0  # atno 10763 bound_to 10752
  153.0355  135.5180  154.7473 H   0  0  0  0  0  0  0  0  0  0  0  0  # atno 10764 bound_to 10752
  154.6568  135.3009  154.9885 H   0  0  0  0  0  0  0  0  0  0  0  0  # atno 10765 bound_to 10752
  141.1265  133.8409  157.1119 H   0  0  0  0  0  0  0  0  0  0  0  0  # atno 11005 bound_to 11000
  144.8036  140.6258  143.6462 LP  0  0  0  0  0  0  0  0  0  0  0  0  # atno 17320 bound_to 7965
  145.4572  139.1517  143.3886 LP  0  0  0  0  0  0  0  0  0  0  0  0  # atno 17321 bound_to 7965
  140.1244  144.5344  150.6842 LP  0  0  0  0  0  0  0  0  0  0  0  0  # atno 17342 bound_to 10162
  140.6960  143.2404  151.5000 LP  0  0  0  0  0  0  0  0  0  0  0  0  # atno 17343 bound_to 10162
  156.4030  130.7684  151.2693 LP  0  0  0  0  0  0  0  0  0  0  0  0  # atno 17370 bound_to 10713
  157.7508  131.0234  150.3833 LP  0  0  0  0  0  0  0  0  0  0  0  0  # atno 17371 bound_to 10713
  140.0270  134.9919  157.0705 LP  0  0  0  0  0  0  0  0  0  0  0  0  # atno 17394 bound_to 11000
  140.4347  134.1743  155.7170 LP  0  0  0  0  0  0  0  0  0  0  0  0  # atno 17395 bound_to 11000

$$$$
