AV-unprocessed.smi:1783|AV-procd|sdf|7194|dock6
  -GOLD-   22720 8433D 1   1.00000     0.00000
 Structure written by MMmdl.
 29 30  0  0  0  0  0  0  0  0  2 V2000
  151.8135  140.1630  155.1688 O   0  0  0  0  0  0  0  0  0  0  0  0
  150.6647  140.4558  155.5010 C   0  0  0  0  0  0  0  0  0  0  0  0
  150.3209  141.1080  156.6288 N   0  0  0  0  0  0  0  0  0  0  0  0
  151.1333  141.6246  157.6535 C   0  0  0  0  0  0  0  0  0  0  0  0
  150.9504  142.8288  158.2633 C   0  0  0  0  0  0  0  0  0  0  0  0
  151.8232  143.3045  159.3293 C   0  0  0  0  0  0  0  0  0  0  0  0
  151.6021  144.6051  160.0814 C   0  0  0  0  0  0  0  0  0  0  0  0
  150.3044  144.8210  160.2975 F   0  0  0  0  0  0  0  0  0  0  0  0
  152.2172  144.5563  161.2621 F   0  0  0  0  0  0  0  0  0  0  0  0
  152.0926  145.6404  159.4000 F   0  0  0  0  0  0  0  0  0  0  0  0
  152.8068  142.3888  159.6494 C   0  0  0  0  0  0  0  0  0  0  0  0
  153.0615  141.1845  159.0928 N   0  5  0  0  0  0  0  0  0  0  0  0
  152.2440  140.7533  158.0911 C   0  0  0  0  0  0  0  0  0  0  0  0
  152.4127  139.6608  157.5479 O   0  0  0  0  0  0  0  0  0  0  0  0
  149.4946  140.0614  154.5922 C   0  0  2  0  0  0  0  0  0  0  0  0
  148.7039  141.2593  154.0325 C   0  0  0  0  0  0  0  0  0  0  0  0
  147.3567  141.1583  154.7218 C   0  0  0  0  0  0  0  0  0  0  0  0
  147.2455  139.6624  154.9774 C   0  0  0  0  0  0  0  0  0  0  0  0
  148.5625  139.3099  155.3677 O   0  0  0  0  0  0  0  0  0  0  0  0
  149.3308  141.2253  156.7892 H   0  0  0  0  0  0  0  0  0  0  0  0
  150.1346  143.4743  157.9848 H   0  0  0  0  0  0  0  0  0  0  0  0
  153.4899  142.6637  160.4813 H   0  0  0  0  0  0  0  0  0  0  0  0
  149.8475  139.4406  153.7665 H   0  0  0  0  0  0  0  0  0  0  0  0
  149.1776  142.2271  154.2038 H   0  0  0  0  0  0  0  0  0  0  0  0
  148.5813  141.1452  152.9547 H   0  0  0  0  0  0  0  0  0  0  0  0
  147.3794  141.6976  155.6698 H   0  0  0  0  0  0  0  0  0  0  0  0
  146.5366  141.5524  154.1213 H   0  0  0  0  0  0  0  0  0  0  0  0
  146.5173  139.4177  155.7508 H   0  0  0  0  0  0  0  0  0  0  0  0
  146.9777  139.1277  154.0648 H   0  0  0  0  0  0  0  0  0  0  0  0
  1  2  2  0  0  0  0
  2  3  1  0  0  0  0
  2 15  1  0  0  0  0
  3  4  1  0  0  0  0
  3 20  1  0  0  0  0
  4 13  1  0  0  0  0
  4  5  2  0  0  0  0
  5  6  1  0  0  0  0
  5 21  1  0  0  0  0
  6  7  1  0  0  0  0
  6 11  2  0  0  0  0
  7  8  1  0  0  0  0
  7  9  1  0  0  0  0
  7 10  1  0  0  0  0
 11 12  1  0  0  0  0
 11 22  1  0  0  0  0
 12 13  1  0  0  0  0
 13 14  2  0  0  0  0
 15 19  1  0  0  0  0
 15 16  1  0  0  0  0
 15 23  1  0  0  0  0
 16 17  1  0  0  0  0
 16 24  1  0  0  0  0
 16 25  1  0  0  0  0
 17 18  1  0  0  0  0
 17 26  1  0  0  0  0
 17 27  1  0  0  0  0
 18 19  1  0  0  0  0
 18 28  1  0  0  0  0
 18 29  1  0  0  0  0
M  CHG  1  12  -1
M  END
> <s_m_source_file>
AV-unprocessed.smi

> <i_m_source_file_index>
1783

> <i_lp_mmshare_version>
43012

> <i_f3d_flags>
0

> <s_epik_input>
TzFbQ0gyXVtDSDJdW0NIMl1bQ0BIXTFDKD1PKVtOSF1jMltjSF1jKEMoRikoRilGKVtjSF1bbkhdYzI9Tw==

> <s_epik_cmdline>
J2VwaWtfcHl0aG9uJywgJy1waCcsICc3LjAnLCAnLXRuJywgJzgnLCAnLW1hJywgJzIwMCcsICctbWV0YWxfYmluZGluZycsICctaW1hZScsICc8aW5maWxlLm1hZT4nLCAnLW9tYWUnLCAnPG91dGZpbGUubWFlPic=

> <r_epik_Ionization_Penalty>
2.55264

> <r_epik_Ionization_Penalty_Charging>
0.0580859

> <r_epik_Ionization_Penalty_Neutral>
2.49455

> <r_epik_State_Penalty>
2.65913

> <r_epik_Charging_Adjusted_Penalty>
2.71721

> <i_epik_Tot_Q>
-1

> <i_epik_Tot_abs_Q>
1

> <r_epik_Metal_State_Penalty>
0.516671

> <b_epik_Metal_Only>
0

> <s_lp_Force_Field>
OPLS_2005

> <r_lp_Energy>
34.3394

> <b_lp_Chiralities_Consistent>
1

> <s_lp_Variant>
AV-unprocessed.smi:1783-3

> <Gold.Version>
5.8.1

> <Gold.Id.Protein>
6NUR|6NUR_protein|mol2

> <Gold.PLP.Fitness>
41.4176

> <Gold.PLP.PLP>
-38.2716

> <Gold.PLP.part.hbond>
-2.0000

> <Gold.PLP.part.metal>
0.0000

> <Gold.PLP.part.buried>
-2.9029

> <Gold.PLP.part.nonpolar>
-32.1329

> <Gold.PLP.part.repulsive>
0.1320

> <Gold.PLP.ligand.clash>
0.0000

> <Gold.PLP.ligand.torsion>
1.1892

> <Gold.PLP.Chemscore.Hbond>
1.8228

> <Gold.PLP.Chemscore.CHOScore>
0.0000

> <Gold.PLP.Chemscore.Metal>
0.0000

> <Gold.Chemscore.Hbonds>
donor molecule, donor type, donor heavy atom, donor atom, acceptor molecule, acceptor atom, score
      P1  H  7989  7998       L1     1  0.66
      P1  H  7997  8008       L1    14  0.48

> <Gold.PLP.Chemscore.Internal.Correction>
0.0560

> <Gold.Rescore>
     Score         DG    S(hbond)    S(metal)    S(lipo)     H(rot)  DE(clash)    DE(int)     intcor
      9.65     -15.29       1.37        0.00      66.79       1.00       0.22       5.42       ----

> <Gold.Chemscore.Fitness>
9.6486

> <Gold.Chemscore.DG>
-15.2945

> <Gold.Chemscore.ZeroCoef>
-5.4800

> <Gold.Chemscore.Hbond>
1.3652

> <Gold.Chemscore.Metal>
0.0000

> <Gold.Chemscore.Lipo>
66.7928

> <Gold.Chemscore.Internal_Hbond>
0.0000

> <Gold.Chemscore.DEClash>
0.2228

> <Gold.Chemscore.DEInternal>
5.4231

> <Gold.Chemscore.Rot>
1.0000

> <Gold.Chemscore.Internal.Correction>
   9.000000E+99

> <Gold.Chemscore.Hbonds>
donor molecule, donor type, donor heavy atom, donor atom, acceptor molecule, acceptor atom, score
      P1  H  7989  7998       L1     1  0.08
      P1  H  7997  8008       L1    14  0.08

> <Gold.Chemscore.Hbond.Weighted>
-4.5597

> <Gold.Chemscore.Metal.Weighted>
-0.0000

> <Gold.Chemscore.Lipo.Weighted>
-7.8148

> <Gold.Chemscore.Internal_Hbond.Weighted>
0.0000

> <Gold.Chemscore.DEClash.Weighted>
0.2228

> <Gold.Chemscore.DEInternal.Weighted>
5.4231

> <Gold.Chemscore.Rot.Weighted>
2.5600

> <Gold.Chemscore.Internal.Correction.Weighted>
   9.000000E+99

> <Gold.Protein.RotatedTorsions>
[ 6907 6896 6895 6894 ] final -109.27 input  -60.11 | X-H torsion
[ 7974 7965 7964 7962 ] final  144.04 input  175.53 | X-H torsion
[ 8008 7997 7996 7995 ] final  -59.76 input   59.86 | X-H torsion
[ 10167 10162 10161 10158 ] final -115.05 input  -65.29 | X-H torsion
[ 10718 10713 10712 10709 ] final  -85.25 input   66.30 | X-H torsion
[ 10763 10752 10751 10750 ] final  149.23 input  -60.55 | X-H torsion
[ 11005 11000 10999 10996 ] final -158.34 input  -57.11 | X-H torsion

> <Gold.Protein.ActiveResidues>
 VAL166  LYS551  ARG553  GLY616  TRP617  ASP618  TYR619  PRO620  LYS621  CYS622 
 ASP623  PHE694  ASN695  SER759  ASP760  ASP761  ALA762  ILE779  LEU786  VAL792 
 PHE793  MET794  SER795  GLU796  ALA797  LYS798  CYS799  TRP800  GLU811  SER814 

> <Gold.Protein.RotatedAtoms>
  150.7552  133.9553  159.3498 H   0  0  0  0  0  0  0  0  0  0  0  0  # atno 6907 bound_to 6896
  151.7474  135.0838  160.0335 H   0  0  0  0  0  0  0  0  0  0  0  0  # atno 6908 bound_to 6896
  152.3488  133.6118  159.5966 H   0  0  0  0  0  0  0  0  0  0  0  0  # atno 6909 bound_to 6896
  144.8869  139.5615  143.5816 H   0  0  0  0  0  0  0  0  0  0  0  0  # atno 7974 bound_to 7965
  154.4367  140.1054  156.6167 H   0  0  0  0  0  0  0  0  0  0  0  0  # atno 8008 bound_to 7997
  155.5751  140.3490  155.4507 H   0  0  0  0  0  0  0  0  0  0  0  0  # atno 8009 bound_to 7997
  156.0360  140.1271  157.0196 H   0  0  0  0  0  0  0  0  0  0  0  0  # atno 8010 bound_to 7997
  140.0943  143.4670  152.1851 H   0  0  0  0  0  0  0  0  0  0  0  0  # atno 10167 bound_to 10162
  155.9998  130.4725  150.4534 H   0  0  0  0  0  0  0  0  0  0  0  0  # atno 10718 bound_to 10713
  154.0678  135.2869  155.3313 H   0  0  0  0  0  0  0  0  0  0  0  0  # atno 10763 bound_to 10752
  154.6766  135.5279  153.8211 H   0  0  0  0  0  0  0  0  0  0  0  0  # atno 10764 bound_to 10752
  153.0497  135.6571  154.0862 H   0  0  0  0  0  0  0  0  0  0  0  0  # atno 10765 bound_to 10752
  140.6546  134.4414  157.5235 H   0  0  0  0  0  0  0  0  0  0  0  0  # atno 11005 bound_to 11000
  146.3030  139.7488  142.9077 LP  0  0  0  0  0  0  0  0  0  0  0  0  # atno 17320 bound_to 7965
  145.3852  141.0364  143.3155 LP  0  0  0  0  0  0  0  0  0  0  0  0  # atno 17321 bound_to 7965
  139.5707  144.7461  151.3900 LP  0  0  0  0  0  0  0  0  0  0  0  0  # atno 17342 bound_to 10162
  140.7012  143.7628  150.7405 LP  0  0  0  0  0  0  0  0  0  0  0  0  # atno 17343 bound_to 10162
  157.2565  131.0557  151.2347 LP  0  0  0  0  0  0  0  0  0  0  0  0  # atno 17370 bound_to 10713
  157.3477  130.7066  149.6421 LP  0  0  0  0  0  0  0  0  0  0  0  0  # atno 17371 bound_to 10713
  139.9034  134.8504  156.1804 LP  0  0  0  0  0  0  0  0  0  0  0  0  # atno 17394 bound_to 11000
  141.0511  133.6888  156.1773 LP  0  0  0  0  0  0  0  0  0  0  0  0  # atno 17395 bound_to 11000

$$$$
