AV-unprocessed.smi:1396|AV-procd|sdf|5676|dock1
  -GOLD-   22720 5303D 1   1.00000     0.00000
 Structure written by MMmdl.
 47 48  0  0  0  0  0  0  0  0  2 V2000
  141.7548  137.4871  153.4495 C   0  0  0  0  0  0  0  0  0  0  0  0
  143.1543  137.6261  153.0760 N   0  0  0  0  0  0  0  0  0  0  0  0
  143.9669  136.5956  152.8038 C   0  0  0  0  0  0  0  0  0  0  0  0
  143.5994  135.4205  152.8321 O   0  0  0  0  0  0  0  0  0  0  0  0
  145.4092  136.9490  152.4268 C   0  0  0  0  0  0  0  0  0  0  0  0
  145.7082  138.3969  152.5726 N   0  3  2  0  0  0  0  0  0  0  0  0
  146.8090  138.8570  151.6841 C   0  0  0  0  0  0  0  0  0  0  0  0
  146.9843  140.3830  151.7656 C   0  0  0  0  0  0  0  0  0  0  0  0
  147.2237  140.8590  153.2128 C   0  0  2  0  0  0  0  0  0  0  0  0
  148.5381  140.4572  153.7141 N   0  0  0  0  0  0  0  0  0  0  0  0
  149.0350  140.7623  154.9216 C   0  0  0  0  0  0  0  0  0  0  0  0
  148.4293  141.4358  155.7544 O   0  0  0  0  0  0  0  0  0  0  0  0
  150.2529  140.2223  155.0968 N   0  0  0  0  0  0  0  0  0  0  0  0
  151.1173  140.3561  156.2158 C   0  0  0  0  0  0  0  0  0  0  0  0
  150.8264  141.3554  157.1660 C   0  0  0  0  0  0  0  0  0  0  0  0
  151.6567  141.4921  158.2943 C   0  0  0  0  0  0  0  0  0  0  0  0
  152.7491  140.6146  158.4436 C   0  0  0  0  0  0  0  0  0  0  0  0
  153.5593  140.7518  159.5520 O   0  0  0  0  0  0  0  0  0  0  0  0
  153.4691  141.9532  160.3099 C   0  0  0  0  0  0  0  0  0  0  0  0
  153.0283  139.6400  157.5432 N   0  0  0  0  0  0  0  0  0  0  0  0
  152.2304  139.5159  156.4616 C   0  0  0  0  0  0  0  0  0  0  0  0
  146.1120  140.3119  154.1250 C   0  0  0  0  0  0  0  0  0  0  0  0
  145.9469  138.7867  153.9857 C   0  0  0  0  0  0  0  0  0  0  0  0
  141.3215  138.4688  153.6414 H   0  0  0  0  0  0  0  0  0  0  0  0
  141.6515  136.8870  154.3545 H   0  0  0  0  0  0  0  0  0  0  0  0
  141.1841  137.0127  152.6501 H   0  0  0  0  0  0  0  0  0  0  0  0
  143.5260  138.5638  153.0237 H   0  0  0  0  0  0  0  0  0  0  0  0
  146.0537  136.3721  153.0915 H   0  0  0  0  0  0  0  0  0  0  0  0
  145.6332  136.6212  151.4101 H   0  0  0  0  0  0  0  0  0  0  0  0
  147.7374  138.3545  151.9596 H   0  0  0  0  0  0  0  0  0  0  0  0
  146.5996  138.5802  150.6506 H   0  0  0  0  0  0  0  0  0  0  0  0
  147.7979  140.7009  151.1128 H   0  0  0  0  0  0  0  0  0  0  0  0
  146.0857  140.8638  151.3768 H   0  0  0  0  0  0  0  0  0  0  0  0
  147.1778  141.9494  153.2373 H   0  0  0  0  0  0  0  0  0  0  0  0
  149.1047  139.8880  153.1027 H   0  0  0  0  0  0  0  0  0  0  0  0
  150.5799  139.6057  154.3676 H   0  0  0  0  0  0  0  0  0  0  0  0
  149.9810  142.0145  157.0326 H   0  0  0  0  0  0  0  0  0  0  0  0
  151.4585  142.2552  159.0324 H   0  0  0  0  0  0  0  0  0  0  0  0
  154.1703  141.9074  161.1427 H   0  0  0  0  0  0  0  0  0  0  0  0
  152.4698  142.0882  160.7259 H   0  0  0  0  0  0  0  0  0  0  0  0
  153.7275  142.8256  159.7080 H   0  0  0  0  0  0  0  0  0  0  0  0
  152.4895  138.7044  155.7994 H   0  0  0  0  0  0  0  0  0  0  0  0
  146.3112  140.5750  155.1647 H   0  0  0  0  0  0  0  0  0  0  0  0
  145.1687  140.7953  153.8673 H   0  0  0  0  0  0  0  0  0  0  0  0
  145.1078  138.4632  154.6028 H   0  0  0  0  0  0  0  0  0  0  0  0
  146.8317  138.2711  154.3619 H   0  0  0  0  0  0  0  0  0  0  0  0
  144.8723  138.8841  152.2808 H   0  0  0  0  0  0  0  0  0  0  0  0
  1  2  1  0  0  0  0
  1 24  1  0  0  0  0
  1 25  1  0  0  0  0
  1 26  1  0  0  0  0
  2  3  1  0  0  0  0
  2 27  1  0  0  0  0
  3  4  2  0  0  0  0
  3  5  1  0  0  0  0
  5  6  1  0  0  0  0
  5 28  1  0  0  0  0
  5 29  1  0  0  0  0
  6 23  1  0  0  0  0
  6  7  1  0  0  0  0
  6 47  1  0  0  0  0
  7  8  1  0  0  0  0
  7 30  1  0  0  0  0
  7 31  1  0  0  0  0
  8  9  1  0  0  0  0
  8 32  1  0  0  0  0
  8 33  1  0  0  0  0
  9 10  1  0  0  0  0
  9 22  1  0  0  0  0
  9 34  1  0  0  0  0
 10 11  1  0  0  0  0
 10 35  1  0  0  0  0
 11 12  2  0  0  0  0
 11 13  1  0  0  0  0
 13 14  1  0  0  0  0
 13 36  1  0  0  0  0
 14 21  1  0  0  0  0
 14 15  2  0  0  0  0
 15 16  1  0  0  0  0
 15 37  1  0  0  0  0
 16 17  2  0  0  0  0
 16 38  1  0  0  0  0
 17 18  1  0  0  0  0
 17 20  1  0  0  0  0
 18 19  1  0  0  0  0
 19 39  1  0  0  0  0
 19 40  1  0  0  0  0
 19 41  1  0  0  0  0
 20 21  2  0  0  0  0
 21 42  1  0  0  0  0
 22 23  1  0  0  0  0
 22 43  1  0  0  0  0
 22 44  1  0  0  0  0
 23 45  1  0  0  0  0
 23 46  1  0  0  0  0
M  CHG  1   6   1
M  END
> <s_m_source_file>
AV-unprocessed.smi

> <i_m_source_file_index>
1396

> <i_lp_mmshare_version>
43012

> <i_f3d_flags>
0

> <s_epik_input>
W0NIM11bTkhdQyg9TylbQ0gyXU4xW0NIMl1bQ0gyXVtDSF0oW0NIMl1bQ0gyXTEpW05IXUMoPU8pW05IXWMyW2NIXVtjSF1jKE9bQ0gzXSluW2NIXTI=

> <s_epik_cmdline>
J2VwaWtfcHl0aG9uJywgJy1waCcsICc3LjAnLCAnLXRuJywgJzgnLCAnLW1hJywgJzIwMCcsICctbWV0YWxfYmluZGluZycsICctaW1hZScsICc8aW5maWxlLm1hZT4nLCAnLW9tYWUnLCAnPG91dGZpbGUubWFlPic=

> <r_lp_tautomer_probability>
1

> <r_epik_Ionization_Penalty>
0.838943

> <r_epik_Ionization_Penalty_Charging>
0.838844

> <r_epik_Ionization_Penalty_Neutral>
9.87511e-05

> <r_epik_State_Penalty>
0.8734

> <r_epik_Charging_Adjusted_Penalty>
1.71224

> <i_epik_Tot_Q>
1

> <i_epik_Tot_abs_Q>
1

> <r_epik_Metal_State_Penalty>
0.877926

> <b_epik_Metal_Only>
0

> <s_lp_Force_Field>
OPLS_2005

> <r_lp_Energy>
16.6272

> <b_lp_Chiralities_Consistent>
1

> <s_lp_Variant>
AV-unprocessed.smi:1396-3

> <Gold.Version>
5.8.1

> <Gold.Id.Protein>
6NUR|6NUR_protein|mol2

> <Gold.PLP.Fitness>
46.1838

> <Gold.PLP.PLP>
-33.0992

> <Gold.PLP.part.hbond>
-4.1523

> <Gold.PLP.part.metal>
0.0000

> <Gold.PLP.part.buried>
1.3084

> <Gold.PLP.part.nonpolar>
-30.7409

> <Gold.PLP.part.repulsive>
0.5140

> <Gold.PLP.ligand.clash>
0.0156

> <Gold.PLP.ligand.torsion>
0.5057

> <Gold.PLP.Chemscore.Hbond>
4.6560

> <Gold.PLP.Chemscore.CHOScore>
0.0000

> <Gold.PLP.Chemscore.Metal>
0.0000

> <Gold.Chemscore.Hbonds>
donor molecule, donor type, donor heavy atom, donor atom, acceptor molecule, acceptor atom, score
      L1  H     2    27       P1 10175  1.00
      L1  H     6    47       P1 10175  1.98
      L1  H    10    35       P1  7957  0.66
      P1  H  7997  8009       L1    20  1.00

> <Gold.PLP.Chemscore.Internal.Correction>
0.1437

> <Gold.Rescore>
     Score         DG    S(hbond)    S(metal)    S(lipo)     H(rot)  DE(clash)    DE(int)     intcor
     13.93     -17.64       2.51        0.00      75.99       2.00       1.03       2.68       ----

> <Gold.Chemscore.Fitness>
13.9304

> <Gold.Chemscore.DG>
-17.6414

> <Gold.Chemscore.ZeroCoef>
-5.4800

> <Gold.Chemscore.Hbond>
2.5094

> <Gold.Chemscore.Metal>
0.0000

> <Gold.Chemscore.Lipo>
75.9868

> <Gold.Chemscore.Internal_Hbond>
0.0000

> <Gold.Chemscore.DEClash>
1.0293

> <Gold.Chemscore.DEInternal>
2.6816

> <Gold.Chemscore.Rot>
1.9963

> <Gold.Chemscore.Internal.Correction>
   9.000000E+99

> <Gold.Chemscore.Hbonds>
donor molecule, donor type, donor heavy atom, donor atom, acceptor molecule, acceptor atom, score
      L1  H     2    27       P1 10175  0.98
      L1  H     6    47       P1 10175  0.91
      L1  H    10    35       P1  7957  0.63
      P1  H  7997  8009       L1    20  0.25

> <Gold.Chemscore.Hbond.Weighted>
-8.3814

> <Gold.Chemscore.Metal.Weighted>
-0.0000

> <Gold.Chemscore.Lipo.Weighted>
-8.8905

> <Gold.Chemscore.Internal_Hbond.Weighted>
0.0000

> <Gold.Chemscore.DEClash.Weighted>
1.0293

> <Gold.Chemscore.DEInternal.Weighted>
2.6816

> <Gold.Chemscore.Rot.Weighted>
5.1105

> <Gold.Chemscore.Internal.Correction.Weighted>
   9.000000E+99

> <Gold.Protein.RotatedTorsions>
[ 6907 6896 6895 6894 ] final  -43.83 input  -60.11 | X-H torsion
[ 7974 7965 7964 7962 ] final  113.23 input  175.53 | X-H torsion
[ 8008 7997 7996 7995 ] final  161.54 input   59.86 | X-H torsion
[ 10167 10162 10161 10158 ] final -112.97 input  -65.29 | X-H torsion
[ 10718 10713 10712 10709 ] final  -16.63 input   66.30 | X-H torsion
[ 10763 10752 10751 10750 ] final  172.56 input  -60.55 | X-H torsion
[ 11005 11000 10999 10996 ] final  -21.88 input  -57.11 | X-H torsion

> <Gold.Protein.ActiveResidues>
 VAL166  LYS551  ARG553  GLY616  TRP617  ASP618  TYR619  PRO620  LYS621  CYS622 
 ASP623  PHE694  ASN695  SER759  ASP760  ASP761  ALA762  ILE779  LEU786  VAL792 
 PHE793  MET794  SER795  GLU796  ALA797  LYS798  CYS799  TRP800  GLU811  SER814 

> <Gold.Protein.RotatedAtoms>
  150.9395  134.8805  159.7602 H   0  0  0  0  0  0  0  0  0  0  0  0  # atno 6907 bound_to 6896
  152.5074  134.3962  159.9411 H   0  0  0  0  0  0  0  0  0  0  0  0  # atno 6908 bound_to 6896
  151.3984  133.3725  159.2764 H   0  0  0  0  0  0  0  0  0  0  0  0  # atno 6909 bound_to 6896
  145.2196  139.2868  143.4225 H   0  0  0  0  0  0  0  0  0  0  0  0  # atno 7974 bound_to 7965
  156.2096  140.1774  156.7725 H   0  0  0  0  0  0  0  0  0  0  0  0  # atno 8008 bound_to 7997
  154.5703  140.0683  156.8984 H   0  0  0  0  0  0  0  0  0  0  0  0  # atno 8009 bound_to 7997
  155.2685  140.3341  155.4269 H   0  0  0  0  0  0  0  0  0  0  0  0  # atno 8010 bound_to 7997
  140.1170  143.4477  152.1716 H   0  0  0  0  0  0  0  0  0  0  0  0  # atno 10167 bound_to 10162
  156.5850  130.4784  149.6304 H   0  0  0  0  0  0  0  0  0  0  0  0  # atno 10718 bound_to 10713
  154.4278  135.2759  155.1933 H   0  0  0  0  0  0  0  0  0  0  0  0  # atno 10763 bound_to 10752
  154.3852  135.6078  153.5816 H   0  0  0  0  0  0  0  0  0  0  0  0  # atno 10764 bound_to 10752
  152.9835  135.5890  154.4584 H   0  0  0  0  0  0  0  0  0  0  0  0  # atno 10765 bound_to 10752
  140.8603  133.7793  156.0067 H   0  0  0  0  0  0  0  0  0  0  0  0  # atno 11005 bound_to 11000
  146.3379  140.2498  142.8598 LP  0  0  0  0  0  0  0  0  0  0  0  0  # atno 17320 bound_to 7965
  144.9778  140.8430  143.5416 LP  0  0  0  0  0  0  0  0  0  0  0  0  # atno 17321 bound_to 7965
  139.5589  144.7392  151.4213 LP  0  0  0  0  0  0  0  0  0  0  0  0  # atno 17342 bound_to 10162
  140.6894  143.7898  150.7233 LP  0  0  0  0  0  0  0  0  0  0  0  0  # atno 17343 bound_to 10162
  156.2599  130.6956  151.1721 LP  0  0  0  0  0  0  0  0  0  0  0  0  # atno 17370 bound_to 10713
  157.7317  131.0605  150.5662 LP  0  0  0  0  0  0  0  0  0  0  0  0  # atno 17371 bound_to 10713
  140.8690  134.2749  157.5199 LP  0  0  0  0  0  0  0  0  0  0  0  0  # atno 17394 bound_to 11000
  139.8707  134.9557  156.4216 LP  0  0  0  0  0  0  0  0  0  0  0  0  # atno 17395 bound_to 11000

$$$$
