AV-unprocessed.smi:1046|AV-procd|sdf|4557|dock1
  -GOLD-   22720 2593D 1   1.00000     0.00000
 Structure written by MMmdl.
 54 56  0  0  0  0  0  0  0  0  3 V2000
  152.6874  143.1376  161.0836 C   0  0  0  0  0  0  0  0  0  0  0  0
  152.3389  142.4178  159.7927 C   0  0  0  0  0  0  0  0  0  0  0  0
  152.9733  141.1901  159.4974 C   0  0  0  0  0  0  0  0  0  0  0  0
  152.6767  140.4893  158.3083 C   0  0  0  0  0  0  0  0  0  0  0  0
  153.1747  139.2930  157.8215 N   0  0  0  0  0  0  0  0  0  0  0  0
  152.5128  139.1727  156.6749 C   0  0  0  0  0  0  0  0  0  0  0  0
  151.6514  140.1573  156.3544 N   0  0  0  0  0  0  0  0  0  0  0  0
  150.8380  140.2471  155.1557 C   0  0  0  0  0  0  0  0  0  0  0  0
  149.9535  139.0016  154.9523 C   0  0  1  0  0  0  0  0  0  0  0  0
  149.0075  139.3009  153.9460 O   0  0  0  0  0  0  0  0  0  0  0  0
  150.7433  137.7419  154.5323 C   0  0  0  0  0  0  0  0  0  0  0  0
  149.8893  136.5279  154.4771 N   0  3  2  0  0  0  0  0  0  0  0  0
  148.7683  136.5512  155.4524 C   0  0  0  0  0  0  0  0  0  0  0  0
  147.8694  135.3110  155.2920 C   0  0  0  0  0  0  0  0  0  0  0  0
  148.6421  134.0500  155.4166 N   0  3  2  0  0  0  0  0  0  0  0  0
  148.9939  133.7040  156.8205 C   0  0  0  0  0  0  0  0  0  0  0  0
  149.6017  132.2964  156.9445 C   0  0  0  0  0  0  0  0  0  0  0  0
  150.2514  132.1622  158.1908 O   0  0  0  0  0  0  0  0  0  0  0  0
  149.7826  134.0275  154.4637 C   0  0  0  0  0  0  0  0  0  0  0  0
  150.6790  135.2765  154.5949 C   0  0  0  0  0  0  0  0  0  0  0  0
  151.7198  141.0543  157.4154 C   0  0  0  0  0  0  0  0  0  0  0  0
  151.0814  142.2750  157.6981 C   0  0  0  0  0  0  0  0  0  0  0  0
  151.3899  142.9624  158.8905 C   0  0  0  0  0  0  0  0  0  0  0  0
  150.6943  144.2788  159.1884 C   0  0  0  0  0  0  0  0  0  0  0  0
  153.4214  142.5793  161.6655 H   0  0  0  0  0  0  0  0  0  0  0  0
  151.7986  143.2659  161.7017 H   0  0  0  0  0  0  0  0  0  0  0  0
  153.1072  144.1211  160.8715 H   0  0  0  0  0  0  0  0  0  0  0  0
  153.6956  140.7749  160.1850 H   0  0  0  0  0  0  0  0  0  0  0  0
  152.6687  138.3233  156.0257 H   0  0  0  0  0  0  0  0  0  0  0  0
  150.2190  141.1425  155.2320 H   0  0  0  0  0  0  0  0  0  0  0  0
  151.4954  140.3963  154.2981 H   0  0  0  0  0  0  0  0  0  0  0  0
  149.4081  138.8178  155.8774 H   0  0  0  0  0  0  0  0  0  0  0  0
  149.4671  139.5958  153.1741 H   0  0  0  0  0  0  0  0  0  0  0  0
  151.1923  137.9269  153.5550 H   0  0  0  0  0  0  0  0  0  0  0  0
  151.5730  137.5492  155.2131 H   0  0  0  0  0  0  0  0  0  0  0  0
  149.1659  136.6014  156.4672 H   0  0  0  0  0  0  0  0  0  0  0  0
  148.1620  137.4451  155.3113 H   0  0  0  0  0  0  0  0  0  0  0  0
  147.0522  135.3308  156.0140 H   0  0  0  0  0  0  0  0  0  0  0  0
  147.4013  135.3299  154.3069 H   0  0  0  0  0  0  0  0  0  0  0  0
  149.6781  134.4451  157.2333 H   0  0  0  0  0  0  0  0  0  0  0  0
  148.0993  133.7423  157.4440 H   0  0  0  0  0  0  0  0  0  0  0  0
  148.8542  131.5117  156.8321 H   0  0  0  0  0  0  0  0  0  0  0  0
  150.3396  132.1426  156.1566 H   0  0  0  0  0  0  0  0  0  0  0  0
  149.9102  131.3966  158.6293 H   0  0  0  0  0  0  0  0  0  0  0  0
  150.3744  133.1207  154.5828 H   0  0  0  0  0  0  0  0  0  0  0  0
  149.3740  133.9866  153.4530 H   0  0  0  0  0  0  0  0  0  0  0  0
  151.4391  135.2518  153.8130 H   0  0  0  0  0  0  0  0  0  0  0  0
  151.2118  135.2700  155.5466 H   0  0  0  0  0  0  0  0  0  0  0  0
  150.3588  142.6790  157.0047 H   0  0  0  0  0  0  0  0  0  0  0  0
  150.0145  144.5610  158.3840 H   0  0  0  0  0  0  0  0  0  0  0  0
  151.4241  145.0801  159.3059 H   0  0  0  0  0  0  0  0  0  0  0  0
  150.1120  144.2030  160.1072 H   0  0  0  0  0  0  0  0  0  0  0  0
  149.4791  136.5174  153.5533 H   0  0  0  0  0  0  0  0  0  0  0  0
  148.0109  133.3154  155.1269 H   0  0  0  0  0  0  0  0  0  0  0  0
  1  2  1  0  0  0  0
  1 25  1  0  0  0  0
  1 26  1  0  0  0  0
  1 27  1  0  0  0  0
  2 23  1  0  0  0  0
  2  3  2  0  0  0  0
  3  4  1  0  0  0  0
  3 28  1  0  0  0  0
  4 21  2  0  0  0  0
  4  5  1  0  0  0  0
  5  6  2  0  0  0  0
  6  7  1  0  0  0  0
  6 29  1  0  0  0  0
  7  8  1  0  0  0  0
  7 21  1  0  0  0  0
  8  9  1  0  0  0  0
  8 30  1  0  0  0  0
  8 31  1  0  0  0  0
  9 10  1  0  0  0  0
  9 11  1  0  0  0  0
  9 32  1  0  0  0  0
 10 33  1  0  0  0  0
 11 12  1  0  0  0  0
 11 34  1  0  0  0  0
 11 35  1  0  0  0  0
 12 20  1  0  0  0  0
 12 13  1  0  0  0  0
 12 53  1  0  0  0  0
 13 14  1  0  0  0  0
 13 36  1  0  0  0  0
 13 37  1  0  0  0  0
 14 15  1  0  0  0  0
 14 38  1  0  0  0  0
 14 39  1  0  0  0  0
 15 16  1  0  0  0  0
 15 19  1  0  0  0  0
 15 54  1  0  0  0  0
 16 17  1  0  0  0  0
 16 40  1  0  0  0  0
 16 41  1  0  0  0  0
 17 18  1  0  0  0  0
 17 42  1  0  0  0  0
 17 43  1  0  0  0  0
 18 44  1  0  0  0  0
 19 20  1  0  0  0  0
 19 45  1  0  0  0  0
 19 46  1  0  0  0  0
 20 47  1  0  0  0  0
 20 48  1  0  0  0  0
 21 22  1  0  0  0  0
 22 23  2  0  0  0  0
 22 49  1  0  0  0  0
 23 24  1  0  0  0  0
 24 50  1  0  0  0  0
 24 51  1  0  0  0  0
 24 52  1  0  0  0  0
M  CHG  1  12   1
M  CHG  1  15   1
M  END
> <s_m_source_file>
AV-unprocessed.smi

> <i_m_source_file_index>
1046

> <i_lp_mmshare_version>
43012

> <i_f3d_flags>
0

> <s_epik_input>
W0NIM11jKFtjSF0xKWMoW0NIM10pW2NIXWMoYzEyKW4oW2NIXW4yKVtDSDJdW0NASF0oW09IXSlbQ0gyXU4zW0NIMl1bQ0gyXU4oW0NIMl1bQ0gyXTMpW0NIMl1bQ0gyXVtPSF0=

> <s_epik_cmdline>
J2VwaWtfcHl0aG9uJywgJy1waCcsICc3LjAnLCAnLXRuJywgJzgnLCAnLW1hJywgJzIwMCcsICctbWV0YWxfYmluZGluZycsICctaW1hZScsICc8aW5maWxlLm1hZT4nLCAnLW9tYWUnLCAnPG91dGZpbGUubWFlPic=

> <r_epik_Ionization_Penalty>
3.17398

> <r_epik_Ionization_Penalty_Charging>
3.09061

> <r_epik_Ionization_Penalty_Neutral>
0.0833726

> <r_epik_State_Penalty>
2.17606

> <r_epik_Charging_Adjusted_Penalty>
5.26667

> <i_epik_Tot_Q>
2

> <i_epik_Tot_abs_Q>
2

> <r_epik_Metal_State_Penalty>
2.08587

> <b_epik_Metal_Only>
0

> <s_lp_Force_Field>
OPLS_2005

> <r_lp_Energy>
29.1343

> <b_lp_Chiralities_Consistent>
1

> <s_lp_Variant>
AV-unprocessed.smi:1046-10

> <Gold.Version>
5.8.1

> <Gold.Id.Protein>
6NUR|6NUR_protein|mol2

> <Gold.PLP.Fitness>
53.4328

> <Gold.PLP.PLP>
-39.9871

> <Gold.PLP.part.hbond>
-4.0000

> <Gold.PLP.part.metal>
0.0000

> <Gold.PLP.part.buried>
-2.2376

> <Gold.PLP.part.nonpolar>
-33.9195

> <Gold.PLP.part.repulsive>
0.0327

> <Gold.PLP.ligand.clash>
0.0000

> <Gold.PLP.ligand.torsion>
0.4849

> <Gold.PLP.Chemscore.Hbond>
4.7235

> <Gold.PLP.Chemscore.CHOScore>
0.0000

> <Gold.PLP.Chemscore.Metal>
0.0000

> <Gold.Chemscore.Hbonds>
donor molecule, donor type, donor heavy atom, donor atom, acceptor molecule, acceptor atom, score
      L1  H    10    33       P1  7957  0.91
      L1  H    12    53       P1  7948  2.00
      P1  H  6896  6909       L1    18  1.00
      P1  H  7997  8009       L1     5  0.73

> <Gold.PLP.Chemscore.Internal.Correction>
0.2450

> <Gold.Rescore>
     Score         DG    S(hbond)    S(metal)    S(lipo)     H(rot)  DE(clash)    DE(int)     intcor
     19.11     -20.10       2.75        0.00     118.42       3.28       0.49       0.50       ----

> <Gold.Chemscore.Fitness>
19.1107

> <Gold.Chemscore.DG>
-20.1006

> <Gold.Chemscore.ZeroCoef>
-5.4800

> <Gold.Chemscore.Hbond>
2.7454

> <Gold.Chemscore.Metal>
0.0000

> <Gold.Chemscore.Lipo>
118.4173

> <Gold.Chemscore.Internal_Hbond>
0.0000

> <Gold.Chemscore.DEClash>
0.4907

> <Gold.Chemscore.DEInternal>
0.4992

> <Gold.Chemscore.Rot>
3.2828

> <Gold.Chemscore.Internal.Correction>
   9.000000E+99

> <Gold.Chemscore.Hbonds>
donor molecule, donor type, donor heavy atom, donor atom, acceptor molecule, acceptor atom, score
      L1  H    10    33       P1  7957  0.85
      L1  H    12    53       P1  7948  0.74
      P1  H  6896  6909       L1    18  0.96
      P1  H  7997  8009       L1     5  0.03

> <Gold.Chemscore.Hbond.Weighted>
-9.1697

> <Gold.Chemscore.Metal.Weighted>
-0.0000

> <Gold.Chemscore.Lipo.Weighted>
-13.8548

> <Gold.Chemscore.Internal_Hbond.Weighted>
0.0000

> <Gold.Chemscore.DEClash.Weighted>
0.4907

> <Gold.Chemscore.DEInternal.Weighted>
0.4992

> <Gold.Chemscore.Rot.Weighted>
8.4039

> <Gold.Chemscore.Internal.Correction.Weighted>
   9.000000E+99

> <Gold.Protein.RotatedTorsions>
[ 6907 6896 6895 6894 ] final  -23.74 input  -60.11 | X-H torsion
[ 7974 7965 7964 7962 ] final  173.66 input  175.53 | X-H torsion
[ 8008 7997 7996 7995 ] final  136.95 input   59.86 | X-H torsion
[ 10167 10162 10161 10158 ] final  149.34 input  -65.29 | X-H torsion
[ 10718 10713 10712 10709 ] final  -56.12 input   66.30 | X-H torsion
[ 10763 10752 10751 10750 ] final  -27.60 input  -60.55 | X-H torsion
[ 11005 11000 10999 10996 ] final -129.91 input  -57.11 | X-H torsion

> <Gold.Protein.ActiveResidues>
 VAL166  LYS551  ARG553  GLY616  TRP617  ASP618  TYR619  PRO620  LYS621  CYS622 
 ASP623  PHE694  ASN695  SER759  ASP760  ASP761  ALA762  ILE779  LEU786  VAL792 
 PHE793  MET794  SER795  GLU796  ALA797  LYS798  CYS799  TRP800  GLU811  SER814 

> <Gold.Protein.RotatedAtoms>
  151.1997  135.0437  159.8866 H   0  0  0  0  0  0  0  0  0  0  0  0  # atno 6907 bound_to 6896
  152.5433  134.0864  159.8268 H   0  0  0  0  0  0  0  0  0  0  0  0  # atno 6908 bound_to 6896
  151.1003  133.5201  159.2642 H   0  0  0  0  0  0  0  0  0  0  0  0  # atno 6909 bound_to 6896
  144.7238  139.9681  143.6436 H   0  0  0  0  0  0  0  0  0  0  0  0  # atno 7974 bound_to 7965
  156.3003  140.2432  156.3830 H   0  0  0  0  0  0  0  0  0  0  0  0  # atno 8008 bound_to 7997
  154.8684  140.0417  157.1729 H   0  0  0  0  0  0  0  0  0  0  0  0  # atno 8009 bound_to 7997
  154.8822  140.2951  155.5422 H   0  0  0  0  0  0  0  0  0  0  0  0  # atno 8010 bound_to 7997
  139.4863  144.5609  151.7232 H   0  0  0  0  0  0  0  0  0  0  0  0  # atno 10167 bound_to 10162
  156.1313  130.4159  150.0263 H   0  0  0  0  0  0  0  0  0  0  0  0  # atno 10718 bound_to 10713
  153.7347  135.6936  153.4981 H   0  0  0  0  0  0  0  0  0  0  0  0  # atno 10763 bound_to 10752
  153.2111  135.4402  155.0379 H   0  0  0  0  0  0  0  0  0  0  0  0  # atno 10764 bound_to 10752
  154.8241  135.3437  154.6875 H   0  0  0  0  0  0  0  0  0  0  0  0  # atno 10765 bound_to 10752
  140.9391  134.1217  157.4167 H   0  0  0  0  0  0  0  0  0  0  0  0  # atno 11005 bound_to 11000
  146.0585  139.3580  143.0596 LP  0  0  0  0  0  0  0  0  0  0  0  0  # atno 17320 bound_to 7965
  145.8124  140.9719  143.0942 LP  0  0  0  0  0  0  0  0  0  0  0  0  # atno 17321 bound_to 7965
  140.5179  144.0924  150.6014 LP  0  0  0  0  0  0  0  0  0  0  0  0  # atno 17342 bound_to 10162
  140.3872  143.2771  152.0102 LP  0  0  0  0  0  0  0  0  0  0  0  0  # atno 17343 bound_to 10162
  156.8174  130.9346  151.3642 LP  0  0  0  0  0  0  0  0  0  0  0  0  # atno 17370 bound_to 10713
  157.6491  130.8869  149.9597 LP  0  0  0  0  0  0  0  0  0  0  0  0  # atno 17371 bound_to 10713
  139.8815  135.0030  156.6164 LP  0  0  0  0  0  0  0  0  0  0  0  0  # atno 17394 bound_to 11000
  140.7759  133.8700  155.8528 LP  0  0  0  0  0  0  0  0  0  0  0  0  # atno 17395 bound_to 11000

$$$$
