AV-unprocessed.smi:1770|AV-procd|sdf|7155|dock10
  -GOLD-   22720 8393D 1   1.00000     0.00000
 Structure written by MMmdl.
 37 38  0  0  0  0  0  0  0  0  1 V2000
  150.7731  138.7101  154.6412 C   0  0  0  0  0  0  0  0  0  0  0  0
  151.1688  140.0656  154.7518 O   0  0  0  0  0  0  0  0  0  0  0  0
  150.9578  140.5903  156.0563 C   0  0  0  0  0  0  0  0  0  0  0  0
  152.0305  140.0689  157.0180 C   0  0  0  0  0  0  0  0  0  0  0  0
  152.8766  139.2832  156.5945 O   0  0  0  0  0  0  0  0  0  0  0  0
  151.9838  140.5423  158.2772 N   0  0  0  0  0  0  0  0  0  0  0  0
  152.8301  140.2736  159.3923 C   0  0  0  0  0  0  0  0  0  0  0  0
  153.3566  138.9902  159.6805 C   0  0  0  0  0  0  0  0  0  0  0  0
  154.1903  138.8260  160.8013 C   0  0  0  0  0  0  0  0  0  0  0  0
  154.4665  139.9492  161.6001 C   0  0  0  0  0  0  0  0  0  0  0  0
  153.9620  141.1740  161.3497 N   0  0  0  0  0  0  0  0  0  0  0  0
  153.1543  141.3405  160.2742 C   0  0  0  0  0  0  0  0  0  0  0  0
  152.6237  142.6283  160.0594 N   0  0  0  0  0  0  0  0  0  0  0  0
  152.6156  143.4691  161.2551 C   0  0  0  0  0  0  0  0  0  0  0  0
  151.6987  144.6877  161.0557 C   0  0  0  0  0  0  0  0  0  0  0  0
  152.0870  145.4670  159.7886 C   0  0  0  0  0  0  0  0  0  0  0  0
  152.1118  144.5281  158.5709 C   0  0  0  0  0  0  0  0  0  0  0  0
  153.0197  143.3132  158.8296 C   0  0  0  0  0  0  0  0  0  0  0  0
  150.9540  138.3578  153.6257 H   0  0  0  0  0  0  0  0  0  0  0  0
  149.7104  138.5909  154.8555 H   0  0  0  0  0  0  0  0  0  0  0  0
  151.3414  138.0769  155.3236 H   0  0  0  0  0  0  0  0  0  0  0  0
  150.9943  141.6805  156.0342 H   0  0  0  0  0  0  0  0  0  0  0  0
  149.9763  140.2950  156.4299 H   0  0  0  0  0  0  0  0  0  0  0  0
  151.2669  141.2332  158.4475 H   0  0  0  0  0  0  0  0  0  0  0  0
  153.1337  138.1257  159.0761 H   0  0  0  0  0  0  0  0  0  0  0  0
  154.6070  137.8597  161.0433 H   0  0  0  0  0  0  0  0  0  0  0  0
  155.1034  139.8609  162.4679 H   0  0  0  0  0  0  0  0  0  0  0  0
  152.2890  142.9027  162.1276 H   0  0  0  0  0  0  0  0  0  0  0  0
  153.6348  143.7992  161.4594 H   0  0  0  0  0  0  0  0  0  0  0  0
  150.6627  144.3542  160.9779 H   0  0  0  0  0  0  0  0  0  0  0  0
  151.7496  145.3403  161.9276 H   0  0  0  0  0  0  0  0  0  0  0  0
  151.3868  146.2856  159.6199 H   0  0  0  0  0  0  0  0  0  0  0  0
  153.0704  145.9192  159.9231 H   0  0  0  0  0  0  0  0  0  0  0  0
  151.0991  144.1855  158.3544 H   0  0  0  0  0  0  0  0  0  0  0  0
  152.4521  145.0678  157.6868 H   0  0  0  0  0  0  0  0  0  0  0  0
  154.0577  143.6380  158.9126 H   0  0  0  0  0  0  0  0  0  0  0  0
  152.9633  142.6229  157.9867 H   0  0  0  0  0  0  0  0  0  0  0  0
  1  2  1  0  0  0  0
  1 19  1  0  0  0  0
  1 20  1  0  0  0  0
  1 21  1  0  0  0  0
  2  3  1  0  0  0  0
  3  4  1  0  0  0  0
  3 22  1  0  0  0  0
  3 23  1  0  0  0  0
  4  5  2  0  0  0  0
  4  6  1  0  0  0  0
  6  7  1  0  0  0  0
  6 24  1  0  0  0  0
  7 12  1  0  0  0  0
  7  8  2  0  0  0  0
  8  9  1  0  0  0  0
  8 25  1  0  0  0  0
  9 10  2  0  0  0  0
  9 26  1  0  0  0  0
 10 11  1  0  0  0  0
 10 27  1  0  0  0  0
 11 12  2  0  0  0  0
 12 13  1  0  0  0  0
 13 18  1  0  0  0  0
 13 14  1  0  0  0  0
 14 15  1  0  0  0  0
 14 28  1  0  0  0  0
 14 29  1  0  0  0  0
 15 16  1  0  0  0  0
 15 30  1  0  0  0  0
 15 31  1  0  0  0  0
 16 17  1  0  0  0  0
 16 32  1  0  0  0  0
 16 33  1  0  0  0  0
 17 18  1  0  0  0  0
 17 34  1  0  0  0  0
 17 35  1  0  0  0  0
 18 36  1  0  0  0  0
 18 37  1  0  0  0  0
M  END
> <s_m_source_file>
AV-unprocessed.smi

> <i_m_source_file_index>
1770

> <i_lp_mmshare_version>
43012

> <i_f3d_flags>
0

> <s_epik_input>
W0NIM11PW0NIMl1DKD1PKVtOSF1jMVtjSF1bY0hdW2NIXW5jMU4yW0NIMl1bQ0gyXVtDSDJdW0NIMl1bQ0gyXTI=

> <s_epik_cmdline>
J2VwaWtfcHl0aG9uJywgJy1waCcsICc3LjAnLCAnLXRuJywgJzgnLCAnLW1hJywgJzIwMCcsICctbWV0YWxfYmluZGluZycsICctaW1hZScsICc8aW5maWxlLm1hZT4nLCAnLW9tYWUnLCAnPG91dGZpbGUubWFlPic=

> <r_lp_tautomer_probability>
1

> <r_epik_Ionization_Penalty>
0.0272113

> <r_epik_Ionization_Penalty_Charging>
0

> <r_epik_Ionization_Penalty_Neutral>
0.0272113

> <r_epik_State_Penalty>
0.0213264

> <r_epik_Charging_Adjusted_Penalty>
0.0213264

> <i_epik_Tot_Q>
0

> <i_epik_Tot_abs_Q>
0

> <r_epik_Metal_State_Penalty>
0.0203232

> <b_epik_Metal_Only>
0

> <s_lp_Force_Field>
OPLS_2005

> <r_lp_Energy>
23.4593

> <b_lp_Chiralities_Consistent>
1

> <s_lp_Variant>
AV-unprocessed.smi:1770-1

> <Gold.Version>
5.8.1

> <Gold.Id.Protein>
6NUR|6NUR_protein|mol2

> <Gold.PLP.Fitness>
46.7153

> <Gold.PLP.PLP>
-41.7882

> <Gold.PLP.part.hbond>
-2.0000

> <Gold.PLP.part.metal>
0.0000

> <Gold.PLP.part.buried>
-5.2667

> <Gold.PLP.part.nonpolar>
-35.3550

> <Gold.PLP.part.repulsive>
0.1695

> <Gold.PLP.ligand.clash>
0.0000

> <Gold.PLP.ligand.torsion>
0.6755

> <Gold.PLP.Chemscore.Hbond>
1.9920

> <Gold.PLP.Chemscore.CHOScore>
0.0000

> <Gold.PLP.Chemscore.Metal>
0.0000

> <Gold.Chemscore.Hbonds>
donor molecule, donor type, donor heavy atom, donor atom, acceptor molecule, acceptor atom, score
      P1  H  7989  7998       L1     2  1.00
      P1  H  7997  8010       L1     5  1.00

> <Gold.PLP.Chemscore.Internal.Correction>
0.3021

> <Gold.Rescore>
     Score         DG    S(hbond)    S(metal)    S(lipo)     H(rot)  DE(clash)    DE(int)     intcor
     19.38     -20.36       1.94        0.00     102.20       1.39       0.00       0.98       ----

> <Gold.Chemscore.Fitness>
19.3791

> <Gold.Chemscore.DG>
-20.3613

> <Gold.Chemscore.ZeroCoef>
-5.4800

> <Gold.Chemscore.Hbond>
1.9435

> <Gold.Chemscore.Metal>
0.0000

> <Gold.Chemscore.Lipo>
102.2029

> <Gold.Chemscore.Internal_Hbond>
0.0000

> <Gold.Chemscore.DEClash>
0.0009

> <Gold.Chemscore.DEInternal>
0.9813

> <Gold.Chemscore.Rot>
1.3937

> <Gold.Chemscore.Internal.Correction>
   9.000000E+99

> <Gold.Chemscore.Hbonds>
donor molecule, donor type, donor heavy atom, donor atom, acceptor molecule, acceptor atom, score
      P1  H  7989  7998       L1     2  0.94
      P1  H  7997  8010       L1     5  0.73

> <Gold.Chemscore.Hbond.Weighted>
-6.4913

> <Gold.Chemscore.Metal.Weighted>
-0.0000

> <Gold.Chemscore.Lipo.Weighted>
-11.9577

> <Gold.Chemscore.Internal_Hbond.Weighted>
0.0000

> <Gold.Chemscore.DEClash.Weighted>
0.0009

> <Gold.Chemscore.DEInternal.Weighted>
0.9813

> <Gold.Chemscore.Rot.Weighted>
3.5678

> <Gold.Chemscore.Internal.Correction.Weighted>
   9.000000E+99

> <Gold.Protein.RotatedTorsions>
[ 6907 6896 6895 6894 ] final   70.96 input  -60.11 | X-H torsion
[ 7974 7965 7964 7962 ] final -171.25 input  175.53 | X-H torsion
[ 8008 7997 7996 7995 ] final   84.91 input   59.86 | X-H torsion
[ 10167 10162 10161 10158 ] final  163.75 input  -65.29 | X-H torsion
[ 10718 10713 10712 10709 ] final   35.70 input   66.30 | X-H torsion
[ 10763 10752 10751 10750 ] final  -63.04 input  -60.55 | X-H torsion
[ 11005 11000 10999 10996 ] final   79.80 input  -57.11 | X-H torsion

> <Gold.Protein.ActiveResidues>
 VAL166  LYS551  ARG553  GLY616  TRP617  ASP618  TYR619  PRO620  LYS621  CYS622 
 ASP623  PHE694  ASN695  SER759  ASP760  ASP761  ALA762  ILE779  LEU786  VAL792 
 PHE793  MET794  SER795  GLU796  ALA797  LYS798  CYS799  TRP800  GLU811  SER814 

> <Gold.Protein.RotatedAtoms>
  152.4781  134.4790  159.9659 H   0  0  0  0  0  0  0  0  0  0  0  0  # atno 6907 bound_to 6896
  151.4802  133.3542  159.2845 H   0  0  0  0  0  0  0  0  0  0  0  0  # atno 6908 bound_to 6896
  150.8834  134.8255  159.7303 H   0  0  0  0  0  0  0  0  0  0  0  0  # atno 6909 bound_to 6896
  144.7159  140.1950  143.6344 H   0  0  0  0  0  0  0  0  0  0  0  0  # atno 7974 bound_to 7965
  155.9432  140.3406  155.6345 H   0  0  0  0  0  0  0  0  0  0  0  0  # atno 8008 bound_to 7997
  155.7013  140.0760  157.2427 H   0  0  0  0  0  0  0  0  0  0  0  0  # atno 8009 bound_to 7997
  154.4107  140.1639  156.2182 H   0  0  0  0  0  0  0  0  0  0  0  0  # atno 8010 bound_to 7997
  139.4878  144.4305  151.9077 H   0  0  0  0  0  0  0  0  0  0  0  0  # atno 10167 bound_to 10162
  157.3259  130.7472  149.6815 H   0  0  0  0  0  0  0  0  0  0  0  0  # atno 10718 bound_to 10713
  154.3091  135.6219  153.5457 H   0  0  0  0  0  0  0  0  0  0  0  0  # atno 10763 bound_to 10752
  152.9831  135.5697  154.5198 H   0  0  0  0  0  0  0  0  0  0  0  0  # atno 10764 bound_to 10752
  154.4844  135.2864  155.1522 H   0  0  0  0  0  0  0  0  0  0  0  0  # atno 10765 bound_to 10752
  139.9158  134.7871  156.1827 H   0  0  0  0  0  0  0  0  0  0  0  0  # atno 11005 bound_to 11000
  145.8733  139.2283  143.1648 LP  0  0  0  0  0  0  0  0  0  0  0  0  # atno 17320 bound_to 7965
  146.0064  140.8474  142.9992 LP  0  0  0  0  0  0  0  0  0  0  0  0  # atno 17321 bound_to 7965
  140.3752  144.2805  150.5915 LP  0  0  0  0  0  0  0  0  0  0  0  0  # atno 17342 bound_to 10162
  140.5283  143.2249  151.8280 LP  0  0  0  0  0  0  0  0  0  0  0  0  # atno 17343 bound_to 10162
  155.9690  130.4209  150.4446 LP  0  0  0  0  0  0  0  0  0  0  0  0  # atno 17370 bound_to 10713
  157.2470  131.0538  151.2402 LP  0  0  0  0  0  0  0  0  0  0  0  0  # atno 17371 bound_to 10713
  141.0632  133.6831  156.1994 LP  0  0  0  0  0  0  0  0  0  0  0  0  # atno 17394 bound_to 11000
  140.6626  134.4951  157.5584 LP  0  0  0  0  0  0  0  0  0  0  0  0  # atno 17395 bound_to 11000

$$$$
