AV-unprocessed.smi:2233|AV-procd|sdf|9041|dock3
  -GOLD-   2272012253D 1   1.00000     0.00000
 Structure written by MMmdl.
 42 43  0  0  0  0  0  0  0  0  1 V2000
  147.3877  132.8425  161.8752 C   0  0  0  0  0  0  0  0  0  0  0  0
  147.1732  133.9983  162.2056 C   0  0  0  0  0  0  0  0  0  0  0  0
  146.9272  135.3986  162.5930 C   0  0  0  0  0  0  0  0  0  0  0  0
  147.0645  136.4170  161.4462 C   0  0  0  0  0  0  0  0  0  0  0  0
  148.3811  136.3072  160.6558 C   0  0  0  0  0  0  0  0  0  0  0  0
  148.3801  137.1879  159.3932 C   0  0  0  0  0  0  0  0  0  0  0  0
  149.6800  137.0982  158.5861 C   0  0  0  0  0  0  0  0  0  0  0  0
  150.5630  136.3078  158.9188 O   0  0  0  0  0  0  0  0  0  0  0  0
  149.7526  137.9155  157.5207 N   0  0  0  0  0  0  0  0  0  0  0  0
  150.8184  138.0707  156.5890 C   0  0  0  0  0  0  0  0  0  0  0  0
  152.0886  137.4653  156.7584 C   0  0  0  0  0  0  0  0  0  0  0  0
  153.1140  137.6269  155.8961 N   0  0  0  0  0  0  0  0  0  0  0  0
  152.9162  138.4127  154.8187 C   0  0  0  0  0  0  0  0  0  0  0  0
  151.7024  139.0759  154.5588 C   0  0  0  0  0  0  0  0  0  0  0  0
  150.6298  138.9102  155.4636 C   0  0  0  0  0  0  0  0  0  0  0  0
  149.3965  139.5479  155.2506 N   0  0  0  0  0  0  0  0  0  0  0  0
  149.4610  141.0036  155.2433 C   0  0  0  0  0  0  0  0  0  0  0  0
  148.0395  141.5859  155.1617 C   0  0  0  0  0  0  0  0  0  0  0  0
  147.3784  141.0670  154.0107 O   0  0  0  0  0  0  0  0  0  0  0  0
  147.2578  139.6473  154.0549 C   0  0  0  0  0  0  0  0  0  0  0  0
  148.6572  139.0101  154.1168 C   0  0  0  0  0  0  0  0  0  0  0  0
  147.5778  131.8342  161.5827 H   0  0  0  0  0  0  0  0  0  0  0  0
  145.9292  135.4527  163.0289 H   0  0  0  0  0  0  0  0  0  0  0  0
  147.6319  135.6418  163.3886 H   0  0  0  0  0  0  0  0  0  0  0  0
  146.2286  136.2776  160.7596 H   0  0  0  0  0  0  0  0  0  0  0  0
  146.9605  137.4280  161.8427 H   0  0  0  0  0  0  0  0  0  0  0  0
  149.2172  136.5931  161.2953 H   0  0  0  0  0  0  0  0  0  0  0  0
  148.5465  135.2658  160.3760 H   0  0  0  0  0  0  0  0  0  0  0  0
  147.5431  136.9040  158.7535 H   0  0  0  0  0  0  0  0  0  0  0  0
  148.2226  138.2311  159.6695 H   0  0  0  0  0  0  0  0  0  0  0  0
  148.9157  138.4388  157.3067 H   0  0  0  0  0  0  0  0  0  0  0  0
  152.3159  136.8504  157.6153 H   0  0  0  0  0  0  0  0  0  0  0  0
  153.7530  138.5210  154.1445 H   0  0  0  0  0  0  0  0  0  0  0  0
  151.6028  139.6950  153.6794 H   0  0  0  0  0  0  0  0  0  0  0  0
  149.9613  141.3567  156.1457 H   0  0  0  0  0  0  0  0  0  0  0  0
  150.0479  141.3474  154.3907 H   0  0  0  0  0  0  0  0  0  0  0  0
  147.4690  141.3468  156.0606 H   0  0  0  0  0  0  0  0  0  0  0  0
  148.0809  142.6727  155.0894 H   0  0  0  0  0  0  0  0  0  0  0  0
  146.6577  139.3500  154.9164 H   0  0  0  0  0  0  0  0  0  0  0  0
  146.7286  139.3074  153.1647 H   0  0  0  0  0  0  0  0  0  0  0  0
  149.2002  139.2154  153.1933 H   0  0  0  0  0  0  0  0  0  0  0  0
  148.5718  137.9265  154.2082 H   0  0  0  0  0  0  0  0  0  0  0  0
  1  2  3  0  0  0  0
  1 22  1  0  0  0  0
  2  3  1  0  0  0  0
  3  4  1  0  0  0  0
  3 23  1  0  0  0  0
  3 24  1  0  0  0  0
  4  5  1  0  0  0  0
  4 25  1  0  0  0  0
  4 26  1  0  0  0  0
  5  6  1  0  0  0  0
  5 27  1  0  0  0  0
  5 28  1  0  0  0  0
  6  7  1  0  0  0  0
  6 29  1  0  0  0  0
  6 30  1  0  0  0  0
  7  8  2  0  0  0  0
  7  9  1  0  0  0  0
  9 10  1  0  0  0  0
  9 31  1  0  0  0  0
 10 15  1  0  0  0  0
 10 11  2  0  0  0  0
 11 12  1  0  0  0  0
 11 32  1  0  0  0  0
 12 13  2  0  0  0  0
 13 14  1  0  0  0  0
 13 33  1  0  0  0  0
 14 15  2  0  0  0  0
 14 34  1  0  0  0  0
 15 16  1  0  0  0  0
 16 21  1  0  0  0  0
 16 17  1  0  0  0  0
 17 18  1  0  0  0  0
 17 35  1  0  0  0  0
 17 36  1  0  0  0  0
 18 19  1  0  0  0  0
 18 37  1  0  0  0  0
 18 38  1  0  0  0  0
 19 20  1  0  0  0  0
 20 21  1  0  0  0  0
 20 39  1  0  0  0  0
 20 40  1  0  0  0  0
 21 41  1  0  0  0  0
 21 42  1  0  0  0  0
M  END
> <s_m_source_file>
AV-unprocessed.smi

> <i_m_source_file_index>
2233

> <i_lp_mmshare_version>
43012

> <i_f3d_flags>
0

> <s_epik_input>
W0NIXSNDW0NIMl1bQ0gyXVtDSDJdW0NIMl1DKD1PKVtOSF1jMVtjSF1uW2NIXVtjSF1jMU4yW0NIMl1bQ0gyXU9bQ0gyXVtDSDJdMg==

> <s_epik_cmdline>
J2VwaWtfcHl0aG9uJywgJy1waCcsICc3LjAnLCAnLXRuJywgJzgnLCAnLW1hJywgJzIwMCcsICctbWV0YWxfYmluZGluZycsICctaW1hZScsICc8aW5maWxlLm1hZT4nLCAnLW9tYWUnLCAnPG91dGZpbGUubWFlPic=

> <r_lp_tautomer_probability>
1

> <r_epik_Ionization_Penalty>
0.8765

> <r_epik_Ionization_Penalty_Charging>
0

> <r_epik_Ionization_Penalty_Neutral>
0.8765

> <r_epik_State_Penalty>
0.914306

> <r_epik_Charging_Adjusted_Penalty>
0.914306

> <i_epik_Tot_Q>
0

> <i_epik_Tot_abs_Q>
0

> <r_epik_Metal_State_Penalty>
0.361009

> <b_epik_Metal_Only>
0

> <s_lp_Force_Field>
OPLS_2005

> <r_lp_Energy>
23.7364

> <b_lp_Chiralities_Consistent>
1

> <s_lp_Variant>
AV-unprocessed.smi:2233-2

> <Gold.Version>
5.8.1

> <Gold.Id.Protein>
6NUR|6NUR_protein|mol2

> <Gold.PLP.Fitness>
39.2344

> <Gold.PLP.PLP>
-35.6222

> <Gold.PLP.part.hbond>
-2.0000

> <Gold.PLP.part.metal>
0.0000

> <Gold.PLP.part.buried>
-4.0708

> <Gold.PLP.part.nonpolar>
-31.2975

> <Gold.PLP.part.repulsive>
0.2495

> <Gold.PLP.ligand.clash>
0.0000

> <Gold.PLP.ligand.torsion>
0.1648

> <Gold.PLP.Chemscore.Hbond>
1.2639

> <Gold.PLP.Chemscore.CHOScore>
0.0000

> <Gold.PLP.Chemscore.Metal>
0.0000

> <Gold.Chemscore.Hbonds>
donor molecule, donor type, donor heavy atom, donor atom, acceptor molecule, acceptor atom, score
      P1  H  6896  6908       L1     8  1.00
      P1  H 10752 10765       L1    12  0.17

> <Gold.PLP.Chemscore.Internal.Correction>
0.1502

> <Gold.Rescore>
     Score         DG    S(hbond)    S(metal)    S(lipo)     H(rot)  DE(clash)    DE(int)     intcor
     15.83     -17.47       1.16        0.00     102.00       1.49       0.23       1.41       ----

> <Gold.Chemscore.Fitness>
15.8313

> <Gold.Chemscore.DG>
-17.4675

> <Gold.Chemscore.ZeroCoef>
-5.4800

> <Gold.Chemscore.Hbond>
1.1565

> <Gold.Chemscore.Metal>
0.0000

> <Gold.Chemscore.Lipo>
102.0047

> <Gold.Chemscore.Internal_Hbond>
0.0000

> <Gold.Chemscore.DEClash>
0.2263

> <Gold.Chemscore.DEInternal>
1.4099

> <Gold.Chemscore.Rot>
1.4882

> <Gold.Chemscore.Internal.Correction>
   9.000000E+99

> <Gold.Chemscore.Hbonds>
donor molecule, donor type, donor heavy atom, donor atom, acceptor molecule, acceptor atom, score
      P1  H  6896  6908       L1     8  0.97
      P1  H 10752 10765       L1    12  0.02

> <Gold.Chemscore.Hbond.Weighted>
-3.8628

> <Gold.Chemscore.Metal.Weighted>
-0.0000

> <Gold.Chemscore.Lipo.Weighted>
-11.9346

> <Gold.Chemscore.Internal_Hbond.Weighted>
0.0000

> <Gold.Chemscore.DEClash.Weighted>
0.2263

> <Gold.Chemscore.DEInternal.Weighted>
1.4099

> <Gold.Chemscore.Rot.Weighted>
3.8099

> <Gold.Chemscore.Internal.Correction.Weighted>
   9.000000E+99

> <Gold.Protein.RotatedTorsions>
[ 6907 6896 6895 6894 ] final -160.32 input  -60.11 | X-H torsion
[ 7974 7965 7964 7962 ] final  -57.05 input  175.53 | X-H torsion
[ 8008 7997 7996 7995 ] final  -35.99 input   59.86 | X-H torsion
[ 10167 10162 10161 10158 ] final   49.51 input  -65.29 | X-H torsion
[ 10718 10713 10712 10709 ] final    4.69 input   66.30 | X-H torsion
[ 10763 10752 10751 10750 ] final -143.69 input  -60.55 | X-H torsion
[ 11005 11000 10999 10996 ] final   10.37 input  -57.11 | X-H torsion

> <Gold.Protein.ActiveResidues>
 VAL166  LYS551  ARG553  GLY616  TRP617  ASP618  TYR619  PRO620  LYS621  CYS622 
 ASP623  PHE694  ASN695  SER759  ASP760  ASP761  ALA762  ILE779  LEU786  VAL792 
 PHE793  MET794  SER795  GLU796  ALA797  LYS798  CYS799  TRP800  GLU811  SER814 

> <Gold.Protein.RotatedAtoms>
  151.3472  133.3939  159.2676 H   0  0  0  0  0  0  0  0  0  0  0  0  # atno 6907 bound_to 6896
  150.9830  134.9182  159.7866 H   0  0  0  0  0  0  0  0  0  0  0  0  # atno 6908 bound_to 6896
  152.5223  134.3436  159.9278 H   0  0  0  0  0  0  0  0  0  0  0  0  # atno 6909 bound_to 6896
  145.8556  140.8322  142.9963 H   0  0  0  0  0  0  0  0  0  0  0  0  # atno 7974 bound_to 7965
  154.4083  140.1642  156.2301 H   0  0  0  0  0  0  0  0  0  0  0  0  # atno 8008 bound_to 7997
  155.9290  140.3416  155.6210 H   0  0  0  0  0  0  0  0  0  0  0  0  # atno 8009 bound_to 7997
  155.7130  140.0759  157.2354 H   0  0  0  0  0  0  0  0  0  0  0  0  # atno 8010 bound_to 7997
  140.2822  144.3144  150.6261 H   0  0  0  0  0  0  0  0  0  0  0  0  # atno 10167 bound_to 10162
  156.8964  130.5706  149.5649 H   0  0  0  0  0  0  0  0  0  0  0  0  # atno 10718 bound_to 10713
  154.8459  135.3461  154.6227 H   0  0  0  0  0  0  0  0  0  0  0  0  # atno 10763 bound_to 10752
  153.6836  135.6979  153.5115 H   0  0  0  0  0  0  0  0  0  0  0  0  # atno 10764 bound_to 10752
  153.2649  135.4311  155.0886 H   0  0  0  0  0  0  0  0  0  0  0  0  # atno 10765 bound_to 10752
  140.5152  134.0613  155.7829 H   0  0  0  0  0  0  0  0  0  0  0  0  # atno 11005 bound_to 11000
  144.6728  140.1018  143.7460 LP  0  0  0  0  0  0  0  0  0  0  0  0  # atno 17320 bound_to 7965
  145.9308  139.2605  143.1326 LP  0  0  0  0  0  0  0  0  0  0  0  0  # atno 17321 bound_to 7965
  140.5802  143.2173  151.7441 LP  0  0  0  0  0  0  0  0  0  0  0  0  # atno 17342 bound_to 10162
  139.4960  144.4090  152.0100 LP  0  0  0  0  0  0  0  0  0  0  0  0  # atno 17343 bound_to 10162
  156.0603  130.5657  150.9179 LP  0  0  0  0  0  0  0  0  0  0  0  0  # atno 17370 bound_to 10713
  157.6053  131.0939  150.8890 LP  0  0  0  0  0  0  0  0  0  0  0  0  # atno 17371 bound_to 10713
  141.1364  133.9214  157.2424 LP  0  0  0  0  0  0  0  0  0  0  0  0  # atno 17394 bound_to 11000
  139.9636  135.0148  156.9328 LP  0  0  0  0  0  0  0  0  0  0  0  0  # atno 17395 bound_to 11000

$$$$
