AV-unprocessed.smi:2774|AV-procd|sdf|10681|dock6
  -GOLD-   2272015123D 1   1.00000     0.00000
 Structure written by MMmdl.
 35 36  0  0  0  0  0  0  0  0  2 V2000
  148.6498  142.9059  154.3910 O   0  0  0  0  0  0  0  0  0  0  0  0
  149.2996  141.6544  154.5008 C   0  0  1  0  0  0  0  0  0  0  0  0
  150.0547  141.6051  155.8404 C   0  0  0  0  0  0  0  0  0  0  0  0
  150.6045  142.9308  156.1986 N   0  3  0  0  0  0  0  0  0  0  0  0
  150.9891  143.0984  157.6178 C   0  0  2  0  0  0  0  0  0  0  0  0
  151.7599  144.4198  157.8348 C   0  0  0  0  0  0  0  0  0  0  0  0
  152.1341  144.6576  159.3074 C   0  0  0  0  0  0  0  0  0  0  0  0
  153.0411  143.5555  159.8713 C   0  0  0  0  0  0  0  0  0  0  0  0
  152.2105  141.9454  159.8316 S   0  0  0  0  0  0  0  0  0  0  0  0
  151.8282  141.8859  158.0600 C   0  0  0  0  0  0  0  0  0  0  0  0
  148.3187  140.4987  154.3796 C   0  0  0  0  0  0  0  0  0  0  0  0
  148.7844  139.1683  154.3211 C   0  0  0  0  0  0  0  0  0  0  0  0
  147.8398  138.1276  154.2145 C   0  0  0  0  0  0  0  0  0  0  0  0
  146.5071  138.3380  154.1671 N   0  0  0  0  0  0  0  0  0  0  0  0
  146.0660  139.6125  154.2251 C   0  0  0  0  0  0  0  0  0  0  0  0
  146.9257  140.7242  154.3329 C   0  0  0  0  0  0  0  0  0  0  0  0
  148.4160  143.1992  155.2592 H   0  0  0  0  0  0  0  0  0  0  0  0
  150.0158  141.5865  153.6804 H   0  0  0  0  0  0  0  0  0  0  0  0
  149.3935  141.2434  156.6280 H   0  0  0  0  0  0  0  0  0  0  0  0
  150.8805  140.8961  155.7664 H   0  0  0  0  0  0  0  0  0  0  0  0
  151.4332  143.0703  155.6385 H   0  0  0  0  0  0  0  0  0  0  0  0
  150.0757  143.1111  158.2150 H   0  0  0  0  0  0  0  0  0  0  0  0
  152.6639  144.4254  157.2241 H   0  0  0  0  0  0  0  0  0  0  0  0
  151.1617  145.2661  157.4981 H   0  0  0  0  0  0  0  0  0  0  0  0
  152.6411  145.6188  159.3978 H   0  0  0  0  0  0  0  0  0  0  0  0
  151.2287  144.7339  159.9109 H   0  0  0  0  0  0  0  0  0  0  0  0
  153.9677  143.4936  159.2995 H   0  0  0  0  0  0  0  0  0  0  0  0
  153.3153  143.7819  160.9020 H   0  0  0  0  0  0  0  0  0  0  0  0
  151.2902  140.9582  157.8620 H   0  0  0  0  0  0  0  0  0  0  0  0
  152.7624  141.8386  157.4987 H   0  0  0  0  0  0  0  0  0  0  0  0
  149.8403  138.9434  154.3565 H   0  0  0  0  0  0  0  0  0  0  0  0
  148.1643  137.0986  154.1675 H   0  0  0  0  0  0  0  0  0  0  0  0
  144.9957  139.7512  154.1861 H   0  0  0  0  0  0  0  0  0  0  0  0
  146.5194  141.7242  154.3787 H   0  0  0  0  0  0  0  0  0  0  0  0
  149.9315  143.6433  155.9538 H   0  0  0  0  0  0  0  0  0  0  0  0
  1  2  1  0  0  0  0
  1 17  1  0  0  0  0
  2  3  1  0  0  0  0
  2 11  1  0  0  0  0
  2 18  1  0  0  0  0
  3  4  1  0  0  0  0
  3 19  1  0  0  0  0
  3 20  1  0  0  0  0
  4  5  1  0  0  0  0
  4 21  1  0  0  0  0
  4 35  1  0  0  0  0
  5 10  1  0  0  0  0
  5  6  1  0  0  0  0
  5 22  1  0  0  0  0
  6  7  1  0  0  0  0
  6 23  1  0  0  0  0
  6 24  1  0  0  0  0
  7  8  1  0  0  0  0
  7 25  1  0  0  0  0
  7 26  1  0  0  0  0
  8  9  1  0  0  0  0
  8 27  1  0  0  0  0
  8 28  1  0  0  0  0
  9 10  1  0  0  0  0
 10 29  1  0  0  0  0
 10 30  1  0  0  0  0
 11 16  1  0  0  0  0
 11 12  2  0  0  0  0
 12 13  1  0  0  0  0
 12 31  1  0  0  0  0
 13 14  2  0  0  0  0
 13 32  1  0  0  0  0
 14 15  1  0  0  0  0
 15 16  2  0  0  0  0
 15 33  1  0  0  0  0
 16 34  1  0  0  0  0
M  CHG  1   4   1
M  END
> <s_m_source_file>
AV-unprocessed.smi

> <i_m_source_file_index>
2774

> <i_lp_mmshare_version>
43012

> <i_f3d_flags>
0

> <s_epik_input>
W2NIXTFbY0hdbltjSF1bY0hdYzFbQ0BIXShbT0hdKVtDSDJdW05IXVtDQEBIXTJbQ0gyXVtDSDJdW0NIMl1TW0NIMl0y

> <s_epik_cmdline>
J2VwaWtfcHl0aG9uJywgJy1waCcsICc3LjAnLCAnLXRuJywgJzgnLCAnLW1hJywgJzIwMCcsICctbWV0YWxfYmluZGluZycsICctaW1hZScsICc8aW5maWxlLm1hZT4nLCAnLW9tYWUnLCAnPG91dGZpbGUubWFlPic=

> <r_epik_Ionization_Penalty>
0.0205977

> <r_epik_Ionization_Penalty_Charging>
0.0185619

> <r_epik_Ionization_Penalty_Neutral>
0.00203589

> <r_epik_State_Penalty>
0.0147768

> <r_epik_Charging_Adjusted_Penalty>
0.0333386

> <i_epik_Tot_Q>
1

> <i_epik_Tot_abs_Q>
1

> <r_epik_Metal_State_Penalty>
0.0152254

> <b_epik_Metal_Only>
0

> <s_lp_Force_Field>
OPLS_2005

> <r_lp_Energy>
10.436

> <b_lp_Chiralities_Consistent>
1

> <s_lp_Variant>
AV-unprocessed.smi:2774-2

> <Gold.Version>
5.8.1

> <Gold.Id.Protein>
6NUR|6NUR_protein|mol2

> <Gold.PLP.Fitness>
46.3410

> <Gold.PLP.PLP>
-32.8644

> <Gold.PLP.part.hbond>
-2.8407

> <Gold.PLP.part.metal>
0.0000

> <Gold.PLP.part.buried>
1.1467

> <Gold.PLP.part.nonpolar>
-30.1655

> <Gold.PLP.part.repulsive>
0.2488

> <Gold.PLP.ligand.clash>
0.0000

> <Gold.PLP.ligand.torsion>
0.4537

> <Gold.PLP.Chemscore.Hbond>
3.0314

> <Gold.PLP.Chemscore.CHOScore>
1.7544

> <Gold.PLP.Chemscore.Metal>
0.0000

> <Gold.Chemscore.Hbonds>
donor molecule, donor type, donor heavy atom, donor atom, acceptor molecule, acceptor atom, score
      L1  H     1    17       P1  8028  0.32
      L1  H     4    35       P1  8028  1.98
      P1  H  8022  8030       L1     1  0.70
      L1  C    13    32       P1  7948  0.64
      L1  C    15    33       P1 10175  1.00

> <Gold.PLP.Chemscore.Internal.Correction>
0.0266

> <Gold.Rescore>
     Score         DG    S(hbond)    S(metal)    S(lipo)     H(rot)  DE(clash)    DE(int)     intcor
     17.66     -18.28       1.62        0.00     106.32       1.97       0.15       0.47       ----

> <Gold.Chemscore.Fitness>
17.6557

> <Gold.Chemscore.DG>
-18.2775

> <Gold.Chemscore.ZeroCoef>
-5.4800

> <Gold.Chemscore.Hbond>
1.6161

> <Gold.Chemscore.Metal>
0.0000

> <Gold.Chemscore.Lipo>
106.3201

> <Gold.Chemscore.Internal_Hbond>
0.0000

> <Gold.Chemscore.DEClash>
0.1521

> <Gold.Chemscore.DEInternal>
0.4697

> <Gold.Chemscore.Rot>
1.9686

> <Gold.Chemscore.Internal.Correction>
   9.000000E+99

> <Gold.Chemscore.Hbonds>
donor molecule, donor type, donor heavy atom, donor atom, acceptor molecule, acceptor atom, score
      L1  H     1    17       P1  8028  0.32
      L1  H     4    35       P1  8028  0.92
      P1  H  8022  8030       L1     1  0.07

> <Gold.Chemscore.Hbond.Weighted>
-5.3976

> <Gold.Chemscore.Metal.Weighted>
-0.0000

> <Gold.Chemscore.Lipo.Weighted>
-12.4394

> <Gold.Chemscore.Internal_Hbond.Weighted>
0.0000

> <Gold.Chemscore.DEClash.Weighted>
0.1521

> <Gold.Chemscore.DEInternal.Weighted>
0.4697

> <Gold.Chemscore.Rot.Weighted>
5.0396

> <Gold.Chemscore.Internal.Correction.Weighted>
   9.000000E+99

> <Gold.Protein.RotatedTorsions>
[ 6907 6896 6895 6894 ] final  110.10 input  -60.11 | X-H torsion
[ 7974 7965 7964 7962 ] final -162.41 input  175.53 | X-H torsion
[ 8008 7997 7996 7995 ] final -130.52 input   59.86 | X-H torsion
[ 10167 10162 10161 10158 ] final  155.20 input  -65.29 | X-H torsion
[ 10718 10713 10712 10709 ] final  172.08 input   66.30 | X-H torsion
[ 10763 10752 10751 10750 ] final  167.46 input  -60.55 | X-H torsion
[ 11005 11000 10999 10996 ] final -166.53 input  -57.11 | X-H torsion

> <Gold.Protein.ActiveResidues>
 VAL166  LYS551  ARG553  GLY616  TRP617  ASP618  TYR619  PRO620  LYS621  CYS622 
 ASP623  PHE694  ASN695  SER759  ASP760  ASP761  ALA762  ILE779  LEU786  VAL792 
 PHE793  MET794  SER795  GLU796  ALA797  LYS798  CYS799  TRP800  GLU811  SER814 

> <Gold.Protein.RotatedAtoms>
  152.5036  133.8849  159.7364 H   0  0  0  0  0  0  0  0  0  0  0  0  # atno 6907 bound_to 6896
  150.9302  133.6767  159.2819 H   0  0  0  0  0  0  0  0  0  0  0  0  # atno 6908 bound_to 6896
  151.4114  135.0990  159.9638 H   0  0  0  0  0  0  0  0  0  0  0  0  # atno 6909 bound_to 6896
  144.7358  140.3256  143.6162 H   0  0  0  0  0  0  0  0  0  0  0  0  # atno 7974 bound_to 7965
  155.2971  140.0451  157.3027 H   0  0  0  0  0  0  0  0  0  0  0  0  # atno 8008 bound_to 7997
  154.5508  140.2316  155.8456 H   0  0  0  0  0  0  0  0  0  0  0  0  # atno 8009 bound_to 7997
  156.1965  140.3037  155.9444 H   0  0  0  0  0  0  0  0  0  0  0  0  # atno 8010 bound_to 7997
  139.4821  144.5119  151.8011 H   0  0  0  0  0  0  0  0  0  0  0  0  # atno 10167 bound_to 10162
  156.9842  131.0128  151.2874 H   0  0  0  0  0  0  0  0  0  0  0  0  # atno 10718 bound_to 10713
  154.3542  135.2753  155.2355 H   0  0  0  0  0  0  0  0  0  0  0  0  # atno 10763 bound_to 10752
  154.4572  135.5916  153.6234 H   0  0  0  0  0  0  0  0  0  0  0  0  # atno 10764 bound_to 10752
  152.9848  135.6056  154.3755 H   0  0  0  0  0  0  0  0  0  0  0  0  # atno 10765 bound_to 10752
  140.5634  134.5310  157.5148 H   0  0  0  0  0  0  0  0  0  0  0  0  # atno 11005 bound_to 11000
  145.7524  139.1798  143.2314 LP  0  0  0  0  0  0  0  0  0  0  0  0  # atno 17320 bound_to 7965
  146.1050  140.7498  142.9530 LP  0  0  0  0  0  0  0  0  0  0  0  0  # atno 17321 bound_to 7965
  140.4623  144.1704  150.5908 LP  0  0  0  0  0  0  0  0  0  0  0  0  # atno 17342 bound_to 10162
  140.4471  143.2502  151.9397 LP  0  0  0  0  0  0  0  0  0  0  0  0  # atno 17343 bound_to 10162
  157.5505  130.8179  149.8139 LP  0  0  0  0  0  0  0  0  0  0  0  0  # atno 17370 bound_to 10713
  156.0232  130.3788  150.1899 LP  0  0  0  0  0  0  0  0  0  0  0  0  # atno 17371 bound_to 10713
  139.9396  134.7811  156.0712 LP  0  0  0  0  0  0  0  0  0  0  0  0  # atno 17394 bound_to 11000
  141.1100  133.6646  156.2956 LP  0  0  0  0  0  0  0  0  0  0  0  0  # atno 17395 bound_to 11000

$$$$
