AV-unprocessed.smi:1101|AV-procd|sdf|4765|dock3
  -GOLD-   22720 3303D 1   1.00000     0.00000
 Structure written by MMmdl.
 41 42  0  0  0  0  0  0  0  0  1 V2000
  145.7899  143.7663  153.2563 C   0  0  0  0  0  0  0  0  0  0  0  0
  145.7722  143.1517  154.6615 C   0  0  0  0  0  0  0  0  0  0  0  0
  146.8221  142.0446  154.8449 C   0  0  2  0  0  0  0  0  0  0  0  0
  148.1855  142.4319  154.2351 C   0  0  0  0  0  0  0  0  0  0  0  0
  149.1113  141.3050  154.4218 N   0  0  0  0  0  0  0  0  0  0  0  0
  150.1707  141.2564  155.2671 C   0  0  0  0  0  0  0  0  0  0  0  0
  151.0256  140.3702  155.2315 O   0  0  0  0  0  0  0  0  0  0  0  0
  150.2402  142.2783  156.1337 N   0  0  0  0  0  0  0  0  0  0  0  0
  151.3063  142.4810  157.1063 C   0  0  0  0  0  0  0  0  0  0  0  0
  151.2101  143.8714  157.7553 C   0  0  0  0  0  0  0  0  0  0  0  0
  151.7056  143.8791  159.1777 C   0  0  0  0  0  0  0  0  0  0  0  0
  151.7276  144.9730  160.0892 C   0  0  0  0  0  0  0  0  0  0  0  0
  152.2152  144.6455  161.2746 N   0  0  0  0  0  0  0  0  0  0  0  0
  152.5218  143.3369  161.1617 N   0  0  0  0  0  0  0  0  0  0  0  0
  153.0888  142.6374  162.2947 C   0  0  0  0  0  0  0  0  0  0  0  0
  152.2275  142.8480  159.9072 C   0  0  0  0  0  0  0  0  0  0  0  0
  148.6088  140.1211  153.7214 C   0  0  0  0  0  0  0  0  0  0  0  0
  147.2408  139.7525  154.3207 C   0  0  0  0  0  0  0  0  0  0  0  0
  146.3521  140.8609  154.1983 O   0  0  0  0  0  0  0  0  0  0  0  0
  145.0266  144.5388  153.1617 H   0  0  0  0  0  0  0  0  0  0  0  0
  145.5964  143.0119  152.4936 H   0  0  0  0  0  0  0  0  0  0  0  0
  146.7542  144.2253  153.0371 H   0  0  0  0  0  0  0  0  0  0  0  0
  145.9291  143.9347  155.4041 H   0  0  0  0  0  0  0  0  0  0  0  0
  144.7789  142.7434  154.8512 H   0  0  0  0  0  0  0  0  0  0  0  0
  146.9456  141.8467  155.9116 H   0  0  0  0  0  0  0  0  0  0  0  0
  148.0770  142.6319  153.1680 H   0  0  0  0  0  0  0  0  0  0  0  0
  148.5345  143.3672  154.6729 H   0  0  0  0  0  0  0  0  0  0  0  0
  149.5131  142.9780  156.1012 H   0  0  0  0  0  0  0  0  0  0  0  0
  151.2590  141.7055  157.8723 H   0  0  0  0  0  0  0  0  0  0  0  0
  152.2690  142.3760  156.6033 H   0  0  0  0  0  0  0  0  0  0  0  0
  151.7781  144.5808  157.1521 H   0  0  0  0  0  0  0  0  0  0  0  0
  150.1755  144.2126  157.7089 H   0  0  0  0  0  0  0  0  0  0  0  0
  151.3999  145.9891  159.9253 H   0  0  0  0  0  0  0  0  0  0  0  0
  153.2102  141.5796  162.0590 H   0  0  0  0  0  0  0  0  0  0  0  0
  152.4289  142.7345  163.1574 H   0  0  0  0  0  0  0  0  0  0  0  0
  154.0637  143.0610  162.5388 H   0  0  0  0  0  0  0  0  0  0  0  0
  152.4068  141.8167  159.6406 H   0  0  0  0  0  0  0  0  0  0  0  0
  148.5067  140.3440  152.6583 H   0  0  0  0  0  0  0  0  0  0  0  0
  149.2871  139.2693  153.7861 H   0  0  0  0  0  0  0  0  0  0  0  0
  146.8148  138.8982  153.7941 H   0  0  0  0  0  0  0  0  0  0  0  0
  147.3385  139.4667  155.3693 H   0  0  0  0  0  0  0  0  0  0  0  0
  1  2  1  0  0  0  0
  1 20  1  0  0  0  0
  1 21  1  0  0  0  0
  1 22  1  0  0  0  0
  2  3  1  0  0  0  0
  2 23  1  0  0  0  0
  2 24  1  0  0  0  0
  3 19  1  0  0  0  0
  3  4  1  0  0  0  0
  3 25  1  0  0  0  0
  4  5  1  0  0  0  0
  4 26  1  0  0  0  0
  4 27  1  0  0  0  0
  5  6  1  0  0  0  0
  5 17  1  0  0  0  0
  6  7  2  0  0  0  0
  6  8  1  0  0  0  0
  8  9  1  0  0  0  0
  8 28  1  0  0  0  0
  9 10  1  0  0  0  0
  9 29  1  0  0  0  0
  9 30  1  0  0  0  0
 10 11  1  0  0  0  0
 10 31  1  0  0  0  0
 10 32  1  0  0  0  0
 11 16  2  0  0  0  0
 11 12  1  0  0  0  0
 12 13  2  0  0  0  0
 12 33  1  0  0  0  0
 13 14  1  0  0  0  0
 14 15  1  0  0  0  0
 14 16  1  0  0  0  0
 15 34  1  0  0  0  0
 15 35  1  0  0  0  0
 15 36  1  0  0  0  0
 16 37  1  0  0  0  0
 17 18  1  0  0  0  0
 17 38  1  0  0  0  0
 17 39  1  0  0  0  0
 18 19  1  0  0  0  0
 18 40  1  0  0  0  0
 18 41  1  0  0  0  0
M  END
> <s_m_source_file>
AV-unprocessed.smi

> <i_m_source_file_index>
1101

> <i_lp_mmshare_version>
43012

> <i_f3d_flags>
0

> <s_epik_input>
W0NIM11bQ0gyXVtDQEBIXTFbQ0gyXU4oW0NIMl1bQ0gyXU8xKUMoPU8pW05IXVtDSDJdW0NIMl1jMltjSF1ubihbQ0gzXSlbY0hdMg==

> <s_epik_cmdline>
J2VwaWtfcHl0aG9uJywgJy1waCcsICc3LjAnLCAnLXRuJywgJzgnLCAnLW1hJywgJzIwMCcsICctbWV0YWxfYmluZGluZycsICctaW1hZScsICc8aW5maWxlLm1hZT4nLCAnLW9tYWUnLCAnPG91dGZpbGUubWFlPic=

> <r_lp_tautomer_probability>
1

> <r_epik_Ionization_Penalty>
0.000536373

> <r_epik_Ionization_Penalty_Charging>
0

> <r_epik_Ionization_Penalty_Neutral>
0.000536373

> <r_epik_State_Penalty>
-0

> <r_epik_Charging_Adjusted_Penalty>
0

> <i_epik_Tot_Q>
0

> <i_epik_Tot_abs_Q>
0

> <r_epik_Metal_State_Penalty>
-0

> <b_epik_Metal_Only>
0

> <s_lp_Force_Field>
OPLS_2005

> <r_lp_Energy>
25.5817

> <b_lp_Chiralities_Consistent>
1

> <s_lp_Variant>
AV-unprocessed.smi:1101-1

> <Gold.Version>
5.8.1

> <Gold.Id.Protein>
6NUR|6NUR_protein|mol2

> <Gold.PLP.Fitness>
49.1291

> <Gold.PLP.PLP>
-44.6496

> <Gold.PLP.part.hbond>
-2.0000

> <Gold.PLP.part.metal>
0.0000

> <Gold.PLP.part.buried>
0.5129

> <Gold.PLP.part.nonpolar>
-42.7965

> <Gold.PLP.part.repulsive>
0.4707

> <Gold.PLP.ligand.clash>
0.0000

> <Gold.PLP.ligand.torsion>
0.5147

> <Gold.PLP.Chemscore.Hbond>
1.8120

> <Gold.PLP.Chemscore.CHOScore>
0.0000

> <Gold.PLP.Chemscore.Metal>
0.0000

> <Gold.Chemscore.Hbonds>
donor molecule, donor type, donor heavy atom, donor atom, acceptor molecule, acceptor atom, score
      L1  H     8    28       P1  8028  1.00
      P1  H  7989  7998       L1     7  0.65

> <Gold.PLP.Chemscore.Internal.Correction>
0.0728

> <Gold.Rescore>
     Score         DG    S(hbond)    S(metal)    S(lipo)     H(rot)  DE(clash)    DE(int)     intcor
     13.78     -16.88       0.98        0.00     102.41       1.51       2.58       0.52       ----

> <Gold.Chemscore.Fitness>
13.7845

> <Gold.Chemscore.DG>
-16.8788

> <Gold.Chemscore.ZeroCoef>
-5.4800

> <Gold.Chemscore.Hbond>
0.9797

> <Gold.Chemscore.Metal>
0.0000

> <Gold.Chemscore.Lipo>
102.4145

> <Gold.Chemscore.Internal_Hbond>
0.0000

> <Gold.Chemscore.DEClash>
2.5760

> <Gold.Chemscore.DEInternal>
0.5183

> <Gold.Chemscore.Rot>
1.5062

> <Gold.Chemscore.Internal.Correction>
   9.000000E+99

> <Gold.Chemscore.Hbonds>
donor molecule, donor type, donor heavy atom, donor atom, acceptor molecule, acceptor atom, score
      L1  H     8    28       P1  8028  0.96
      P1  H  7989  7998       L1     7  0.05

> <Gold.Chemscore.Hbond.Weighted>
-3.2722

> <Gold.Chemscore.Metal.Weighted>
-0.0000

> <Gold.Chemscore.Lipo.Weighted>
-11.9825

> <Gold.Chemscore.Internal_Hbond.Weighted>
0.0000

> <Gold.Chemscore.DEClash.Weighted>
2.5760

> <Gold.Chemscore.DEInternal.Weighted>
0.5183

> <Gold.Chemscore.Rot.Weighted>
3.8558

> <Gold.Chemscore.Internal.Correction.Weighted>
   9.000000E+99

> <Gold.Protein.RotatedTorsions>
[ 6907 6896 6895 6894 ] final   41.08 input  -60.11 | X-H torsion
[ 7974 7965 7964 7962 ] final   86.95 input  175.53 | X-H torsion
[ 8008 7997 7996 7995 ] final -126.25 input   59.86 | X-H torsion
[ 10167 10162 10161 10158 ] final   87.50 input  -65.29 | X-H torsion
[ 10718 10713 10712 10709 ] final -110.69 input   66.30 | X-H torsion
[ 10763 10752 10751 10750 ] final -163.91 input  -60.55 | X-H torsion
[ 11005 11000 10999 10996 ] final  -20.57 input  -57.11 | X-H torsion

> <Gold.Protein.ActiveResidues>
 VAL166  LYS551  ARG553  GLY616  TRP617  ASP618  TYR619  PRO620  LYS621  CYS622 
 ASP623  PHE694  ASN695  SER759  ASP760  ASP761  ALA762  ILE779  LEU786  VAL792 
 PHE793  MET794  SER795  GLU796  ALA797  LYS798  CYS799  TRP800  GLU811  SER814 

> <Gold.Protein.RotatedAtoms>
  152.1907  134.8674  160.0517 H   0  0  0  0  0  0  0  0  0  0  0  0  # atno 6907 bound_to 6896
  151.9564  133.3677  159.4027 H   0  0  0  0  0  0  0  0  0  0  0  0  # atno 6908 bound_to 6896
  150.6934  134.4210  159.5249 H   0  0  0  0  0  0  0  0  0  0  0  0  # atno 6909 bound_to 6896
  145.5654  139.2308  143.2436 H   0  0  0  0  0  0  0  0  0  0  0  0  # atno 7974 bound_to 7965
  155.2266  140.0424  157.2956 H   0  0  0  0  0  0  0  0  0  0  0  0  # atno 8008 bound_to 7997
  154.5915  140.2428  155.7885 H   0  0  0  0  0  0  0  0  0  0  0  0  # atno 8009 bound_to 7997
  156.2262  140.2953  156.0082 H   0  0  0  0  0  0  0  0  0  0  0  0  # atno 8010 bound_to 7997
  139.8767  144.6462  150.8888 H   0  0  0  0  0  0  0  0  0  0  0  0  # atno 10167 bound_to 10162
  156.0604  130.5828  150.8271 H   0  0  0  0  0  0  0  0  0  0  0  0  # atno 10718 bound_to 10713
  154.7078  135.3000  154.9243 H   0  0  0  0  0  0  0  0  0  0  0  0  # atno 10763 bound_to 10752
  154.0155  135.6689  153.4772 H   0  0  0  0  0  0  0  0  0  0  0  0  # atno 10764 bound_to 10752
  153.0731  135.5050  154.8259 H   0  0  0  0  0  0  0  0  0  0  0  0  # atno 10765 bound_to 10752
  140.8477  133.7879  155.9931 H   0  0  0  0  0  0  0  0  0  0  0  0  # atno 11005 bound_to 11000
  146.1822  140.6480  142.9184 LP  0  0  0  0  0  0  0  0  0  0  0  0  # atno 17320 bound_to 7965
  144.7463  140.5076  143.6833 LP  0  0  0  0  0  0  0  0  0  0  0  0  # atno 17321 bound_to 7965
  140.7751  143.3619  151.1813 LP  0  0  0  0  0  0  0  0  0  0  0  0  # atno 17342 bound_to 10162
  139.7233  143.9188  152.2993 LP  0  0  0  0  0  0  0  0  0  0  0  0  # atno 17343 bound_to 10162
  157.5609  131.0946  150.9560 LP  0  0  0  0  0  0  0  0  0  0  0  0  # atno 17370 bound_to 10713
  156.9798  130.5523  149.5295 LP  0  0  0  0  0  0  0  0  0  0  0  0  # atno 17371 bound_to 10713
  140.8825  134.2594  157.5137 LP  0  0  0  0  0  0  0  0  0  0  0  0  # atno 17394 bound_to 11000
  139.8703  134.9622  156.4420 LP  0  0  0  0  0  0  0  0  0  0  0  0  # atno 17395 bound_to 11000

$$$$
