AV-unprocessed.smi:229|AV-procd|sdf|1756|dock5
  -GOLD-   2262020283D 1   1.00000     0.00000
 Structure written by MMmdl.
 58 62  0  0  0  0  0  0  0  0  1 V2000
  153.0209  131.2262  155.8986 C   0  0  0  0  0  0  0  0  0  0  0  0
  151.6784  131.0101  156.6082 C   0  0  0  0  0  0  0  0  0  0  0  0
  150.6721  132.1388  156.3390 C   0  0  1  0  0  0  0  0  0  0  0  0
  151.2442  133.5172  156.7110 C   0  0  0  0  0  0  0  0  0  0  0  0
  150.2972  134.5627  156.3402 N   0  0  0  0  0  0  0  0  0  0  0  0
  150.4652  135.8036  156.8633 C   0  0  0  0  0  0  0  0  0  0  0  0
  150.1409  136.0433  158.1625 N   0  0  0  0  0  0  0  0  0  0  0  0
  150.2999  137.2627  158.6855 C   0  0  0  0  0  0  0  0  0  0  0  0
  150.7543  138.3706  158.0968 N   0  0  0  0  0  0  0  0  0  0  0  0
  151.0758  138.1384  156.7924 C   0  0  0  0  0  0  0  0  0  0  0  0
  150.9661  136.8979  156.1026 C   0  0  0  0  0  0  0  0  0  0  0  0
  151.3759  137.0547  154.7828 N   0  0  0  0  0  0  0  0  0  0  0  0
  151.7161  138.3119  154.7003 C   0  0  0  0  0  0  0  0  0  0  0  0
  151.5592  139.0375  155.8595 N   0  0  0  0  0  0  0  0  0  0  0  0
  151.8370  140.4505  156.0501 C   0  0  0  0  0  0  0  0  0  0  0  0
  150.6198  141.2163  156.6126 C   0  0  2  0  0  0  0  0  0  0  0  0
  149.9971  141.8974  155.5400 O   0  0  0  0  0  0  0  0  0  0  0  0
  151.0010  142.2635  157.6780 C   0  0  2  0  0  0  0  0  0  0  0  0
  151.5604  143.5745  157.1196 C   0  0  0  0  0  0  0  0  0  0  0  0
  152.4253  144.1127  158.2487 C   0  0  0  0  0  0  0  0  0  0  0  0
  152.6219  142.9060  159.1685 C   0  0  0  0  0  0  0  0  0  0  0  0
  152.1089  141.8020  158.4375 O   0  0  0  0  0  0  0  0  0  0  0  0
  149.9319  134.5209  154.9293 C   0  0  0  0  0  0  0  0  0  0  0  0
  149.3972  133.1225  154.5448 C   0  0  2  0  0  0  0  0  0  0  0  0
  149.2124  133.0028  153.0354 C   0  0  0  0  0  0  0  0  0  0  0  0
  147.7405  133.3312  152.8367 C   0  0  0  0  0  0  0  0  0  0  0  0
  147.1337  132.6769  153.9348 O   0  0  0  0  0  0  0  0  0  0  0  0
  147.9685  132.8531  155.0737 C   0  0  0  0  0  0  0  0  0  0  0  0
  150.3404  132.1252  154.9488 O   0  0  0  0  0  0  0  0  0  0  0  0
  153.7056  130.4040  156.1066 H   0  0  0  0  0  0  0  0  0  0  0  0
  153.4996  132.1485  156.2288 H   0  0  0  0  0  0  0  0  0  0  0  0
  152.8904  131.2846  154.8178 H   0  0  0  0  0  0  0  0  0  0  0  0
  151.2555  130.0620  156.2740 H   0  0  0  0  0  0  0  0  0  0  0  0
  151.8436  130.9109  157.6817 H   0  0  0  0  0  0  0  0  0  0  0  0
  149.7798  131.9552  156.9382 H   0  0  0  0  0  0  0  0  0  0  0  0
  151.4451  133.5525  157.7828 H   0  0  0  0  0  0  0  0  0  0  0  0
  152.1904  133.6865  156.1946 H   0  0  0  0  0  0  0  0  0  0  0  0
  150.0216  137.3653  159.7238 H   0  0  0  0  0  0  0  0  0  0  0  0
  152.0814  138.7499  153.7827 H   0  0  0  0  0  0  0  0  0  0  0  0
  152.6902  140.5342  156.7235 H   0  0  0  0  0  0  0  0  0  0  0  0
  152.1501  140.8770  155.0962 H   0  0  0  0  0  0  0  0  0  0  0  0
  149.9093  140.5051  157.0362 H   0  0  0  0  0  0  0  0  0  0  0  0
  149.9320  142.8129  155.7653 H   0  0  0  0  0  0  0  0  0  0  0  0
  150.1592  142.4746  158.3412 H   0  0  0  0  0  0  0  0  0  0  0  0
  152.1861  143.3747  156.2484 H   0  0  0  0  0  0  0  0  0  0  0  0
  150.7787  144.2728  156.8191 H   0  0  0  0  0  0  0  0  0  0  0  0
  153.3744  144.4909  157.8670 H   0  0  0  0  0  0  0  0  0  0  0  0
  151.9290  144.9243  158.7819 H   0  0  0  0  0  0  0  0  0  0  0  0
  153.6667  142.7476  159.4370 H   0  0  0  0  0  0  0  0  0  0  0  0
  152.0477  143.0257  160.0884 H   0  0  0  0  0  0  0  0  0  0  0  0
  149.1965  135.2832  154.6755 H   0  0  0  0  0  0  0  0  0  0  0  0
  150.8253  134.7486  154.3459 H   0  0  0  0  0  0  0  0  0  0  0  0
  149.8746  133.6491  152.4584 H   0  0  0  0  0  0  0  0  0  0  0  0
  149.3922  131.9755  152.7144 H   0  0  0  0  0  0  0  0  0  0  0  0
  147.5631  134.4060  152.9004 H   0  0  0  0  0  0  0  0  0  0  0  0
  147.3502  132.9686  151.8856 H   0  0  0  0  0  0  0  0  0  0  0  0
  147.9051  131.9581  155.6922 H   0  0  0  0  0  0  0  0  0  0  0  0
  147.5976  133.6911  155.6655 H   0  0  0  0  0  0  0  0  0  0  0  0
  1  2  1  0  0  0  0
  1 30  1  0  0  0  0
  1 31  1  0  0  0  0
  1 32  1  0  0  0  0
  2  3  1  0  0  0  0
  2 33  1  0  0  0  0
  2 34  1  0  0  0  0
  3 29  1  0  0  0  0
  3  4  1  0  0  0  0
  3 35  1  0  0  0  0
  4  5  1  0  0  0  0
  4 36  1  0  0  0  0
  4 37  1  0  0  0  0
  5  6  1  0  0  0  0
  5 23  1  0  0  0  0
  6 11  1  0  0  0  0
  6  7  2  0  0  0  0
  7  8  1  0  0  0  0
  8  9  2  0  0  0  0
  8 38  1  0  0  0  0
  9 10  1  0  0  0  0
 10 14  1  0  0  0  0
 10 11  2  0  0  0  0
 11 12  1  0  0  0  0
 12 13  2  0  0  0  0
 13 14  1  0  0  0  0
 13 39  1  0  0  0  0
 14 15  1  0  0  0  0
 15 16  1  0  0  0  0
 15 40  1  0  0  0  0
 15 41  1  0  0  0  0
 16 17  1  0  0  0  0
 16 18  1  0  0  0  0
 16 42  1  0  0  0  0
 17 43  1  0  0  0  0
 18 22  1  0  0  0  0
 18 19  1  0  0  0  0
 18 44  1  0  0  0  0
 19 20  1  0  0  0  0
 19 45  1  0  0  0  0
 19 46  1  0  0  0  0
 20 21  1  0  0  0  0
 20 47  1  0  0  0  0
 20 48  1  0  0  0  0
 21 22  1  0  0  0  0
 21 49  1  0  0  0  0
 21 50  1  0  0  0  0
 23 24  1  0  0  0  0
 23 51  1  0  0  0  0
 23 52  1  0  0  0  0
 24 28  1  0  0  0  0
 24 25  1  0  0  0  0
 24 29  1  0  0  0  0
 25 26  1  0  0  0  0
 25 53  1  0  0  0  0
 25 54  1  0  0  0  0
 26 27  1  0  0  0  0
 26 55  1  0  0  0  0
 26 56  1  0  0  0  0
 27 28  1  0  0  0  0
 28 57  1  0  0  0  0
 28 58  1  0  0  0  0
M  END
> <s_m_source_file>
AV-unprocessed.smi

> <i_m_source_file_index>
229

> <i_lp_mmshare_version>
43012

> <i_f3d_flags>
0

> <s_epik_input>
W0NIMl0xT1tDSDJdW0NIMl1bQ0BdMTJbQ0gyXU4oW0NIMl1bQ0BIXShPMilbQ0gyXVtDSDNdKWMobltjSF1uMyljKGMzNCluW2NIXW40W0NIMl1bQ0BIXShbT0hdKVtDQEBIXTVbQ0gyXVtDSDJdW0NIMl1PNQ==

> <s_epik_cmdline>
J2VwaWtfcHl0aG9uJywgJy1waCcsICc3LjAnLCAnLXRuJywgJzgnLCAnLW1hJywgJzIwMCcsICctbWV0YWxfYmluZGluZycsICctaW1hZScsICc8aW5maWxlLm1hZT4nLCAnLW9tYWUnLCAnPG91dGZpbGUubWFlPic=

> <r_lp_tautomer_probability>
1

> <r_epik_Ionization_Penalty>
0.00318402

> <r_epik_Ionization_Penalty_Charging>
0

> <r_epik_Ionization_Penalty_Neutral>
0.00318402

> <r_epik_State_Penalty>
0.00215642

> <r_epik_Charging_Adjusted_Penalty>
0.00215642

> <i_epik_Tot_Q>
0

> <i_epik_Tot_abs_Q>
0

> <r_epik_Metal_State_Penalty>
-0

> <b_epik_Metal_Only>
0

> <s_lp_Force_Field>
OPLS_2005

> <r_lp_Energy>
55.2871

> <b_lp_Chiralities_Consistent>
1

> <s_lp_Variant>
AV-unprocessed.smi:229-10

> <Gold.Version>
5.8.1

> <Gold.Id.Protein>
6NUR|6NUR_protein|mol2

> <Gold.PLP.Fitness>
48.4021

> <Gold.PLP.PLP>
-44.3928

> <Gold.PLP.part.hbond>
-2.7019

> <Gold.PLP.part.metal>
0.0000

> <Gold.PLP.part.buried>
-5.5475

> <Gold.PLP.part.nonpolar>
-35.7707

> <Gold.PLP.part.repulsive>
0.2080

> <Gold.PLP.ligand.clash>
0.0000

> <Gold.PLP.ligand.torsion>
1.6312

> <Gold.PLP.Chemscore.Hbond>
2.2930

> <Gold.PLP.Chemscore.CHOScore>
0.0000

> <Gold.PLP.Chemscore.Metal>
0.0000

> <Gold.Chemscore.Hbonds>
donor molecule, donor type, donor heavy atom, donor atom, acceptor molecule, acceptor atom, score
      L1  H    17    43       P1  8028  0.63
      P1  H  6896  6909       L1     7  0.89
      P1  H 10752 10764       L1    12  0.75

> <Gold.PLP.Chemscore.Internal.Correction>
0.3927

> <Gold.Rescore>
     Score         DG    S(hbond)    S(metal)    S(lipo)     H(rot)  DE(clash)    DE(int)     intcor
     14.84     -18.19       1.83        0.00     110.11       2.46       0.45       2.90       ----

> <Gold.Chemscore.Fitness>
14.8422

> <Gold.Chemscore.DG>
-18.1899

> <Gold.Chemscore.ZeroCoef>
-5.4800

> <Gold.Chemscore.Hbond>
1.8332

> <Gold.Chemscore.Metal>
0.0000

> <Gold.Chemscore.Lipo>
110.1057

> <Gold.Chemscore.Internal_Hbond>
0.0000

> <Gold.Chemscore.DEClash>
0.4516

> <Gold.Chemscore.DEInternal>
2.8961

> <Gold.Chemscore.Rot>
2.4591

> <Gold.Chemscore.Internal.Correction>
   9.000000E+99

> <Gold.Chemscore.Hbonds>
donor molecule, donor type, donor heavy atom, donor atom, acceptor molecule, acceptor atom, score
      L1  H    17    43       P1  8028  0.59
      P1  H  6896  6909       L1     7  0.40
      P1  H 10752 10764       L1    12  0.42

> <Gold.Chemscore.Hbond.Weighted>
-6.1228

> <Gold.Chemscore.Metal.Weighted>
-0.0000

> <Gold.Chemscore.Lipo.Weighted>
-12.8824

> <Gold.Chemscore.Internal_Hbond.Weighted>
0.0000

> <Gold.Chemscore.DEClash.Weighted>
0.4516

> <Gold.Chemscore.DEInternal.Weighted>
2.8961

> <Gold.Chemscore.Rot.Weighted>
6.2953

> <Gold.Chemscore.Internal.Correction.Weighted>
   9.000000E+99

> <Gold.Protein.RotatedTorsions>
[ 6907 6896 6895 6894 ] final   62.44 input  -60.11 | X-H torsion
[ 7974 7965 7964 7962 ] final   -2.06 input  175.53 | X-H torsion
[ 8008 7997 7996 7995 ] final  -88.80 input   59.86 | X-H torsion
[ 10167 10162 10161 10158 ] final   58.48 input  -65.29 | X-H torsion
[ 10718 10713 10712 10709 ] final -168.63 input   66.30 | X-H torsion
[ 10763 10752 10751 10750 ] final  -69.63 input  -60.55 | X-H torsion
[ 11005 11000 10999 10996 ] final -170.28 input  -57.11 | X-H torsion

> <Gold.Protein.ActiveResidues>
 VAL166  LYS551  ARG553  GLY616  TRP617  ASP618  TYR619  PRO620  LYS621  CYS622 
 ASP623  PHE694  ASN695  SER759  ASP760  ASP761  ALA762  ILE779  LEU786  VAL792 
 PHE793  MET794  SER795  GLU796  ALA797  LYS798  CYS799  TRP800  GLU811  SER814 

> <Gold.Protein.RotatedAtoms>
  152.4172  134.6020  160.0002 H   0  0  0  0  0  0  0  0  0  0  0  0  # atno 6907 bound_to 6896
  151.6180  133.3336  159.3090 H   0  0  0  0  0  0  0  0  0  0  0  0  # atno 6908 bound_to 6896
  150.8060  134.7225  159.6711 H   0  0  0  0  0  0  0  0  0  0  0  0  # atno 6909 bound_to 6896
  146.2409  140.1513  142.8334 H   0  0  0  0  0  0  0  0  0  0  0  0  # atno 7974 bound_to 7965
  154.6791  140.0549  157.0247 H   0  0  0  0  0  0  0  0  0  0  0  0  # atno 8008 bound_to 7997
  155.0977  140.3226  155.4537 H   0  0  0  0  0  0  0  0  0  0  0  0  # atno 8009 bound_to 7997
  156.2687  140.2036  156.6104 H   0  0  0  0  0  0  0  0  0  0  0  0  # atno 8010 bound_to 7997
  140.1867  144.4127  150.6590 H   0  0  0  0  0  0  0  0  0  0  0  0  # atno 10167 bound_to 10162
  156.6998  130.9192  151.3078 H   0  0  0  0  0  0  0  0  0  0  0  0  # atno 10718 bound_to 10713
  154.4062  135.6019  153.5926 H   0  0  0  0  0  0  0  0  0  0  0  0  # atno 10763 bound_to 10752
  152.9789  135.5918  154.4125 H   0  0  0  0  0  0  0  0  0  0  0  0  # atno 10764 bound_to 10752
  154.3931  135.2842  155.2121 H   0  0  0  0  0  0  0  0  0  0  0  0  # atno 10765 bound_to 10752
  140.5213  134.5706  157.5048 H   0  0  0  0  0  0  0  0  0  0  0  0  # atno 11005 bound_to 11000
  145.0165  140.8758  143.5192 LP  0  0  0  0  0  0  0  0  0  0  0  0  # atno 17320 bound_to 7965
  145.1555  139.2489  143.5418 LP  0  0  0  0  0  0  0  0  0  0  0  0  # atno 17321 bound_to 7965
  140.6483  143.2218  151.6135 LP  0  0  0  0  0  0  0  0  0  0  0  0  # atno 17342 bound_to 10162
  139.5273  144.3021  152.1064 LP  0  0  0  0  0  0  0  0  0  0  0  0  # atno 17343 bound_to 10162
  157.6977  130.9300  150.0693 LP  0  0  0  0  0  0  0  0  0  0  0  0  # atno 17370 bound_to 10713
  156.1737  130.3647  149.9130 LP  0  0  0  0  0  0  0  0  0  0  0  0  # atno 17371 bound_to 10713
  139.9604  134.7462  156.0249 LP  0  0  0  0  0  0  0  0  0  0  0  0  # atno 17394 bound_to 11000
  141.1332  133.6581  156.3523 LP  0  0  0  0  0  0  0  0  0  0  0  0  # atno 17395 bound_to 11000

$$$$
