AV-unprocessed.smi:1760|AV-procd|sdf|7089|dock5
  -GOLD-   22720 8303D 1   1.00000     0.00000
 Structure written by MMmdl.
 44 46  0  0  0  0  0  0  0  0  2 V2000
  146.3933  137.5205  154.0129 O   0  0  0  0  0  0  0  0  0  0  0  0
  146.0822  138.0496  152.9463 C   0  0  0  0  0  0  0  0  0  0  0  0
  145.2363  137.5392  152.0324 N   0  0  0  0  0  0  0  0  0  0  0  0
  144.5616  136.3066  152.0388 C   0  0  0  0  0  0  0  0  0  0  0  0
  144.9606  135.2010  151.3573 C   0  0  0  0  0  0  0  0  0  0  0  0
  144.2073  133.9589  151.3938 C   0  0  0  0  0  0  0  0  0  0  0  0
  144.7053  132.7051  150.6921 C   0  0  0  0  0  0  0  0  0  0  0  0
  144.7354  131.6642  151.5254 F   0  0  0  0  0  0  0  0  0  0  0  0
  143.8951  132.4020  149.6788 F   0  0  0  0  0  0  0  0  0  0  0  0
  145.9324  132.8851  150.2029 F   0  0  0  0  0  0  0  0  0  0  0  0
  143.0926  133.9547  152.1477 C   0  0  0  0  0  0  0  0  0  0  0  0
  142.6639  135.0930  152.8341 N   0  0  0  0  0  0  0  0  0  0  0  0
  143.3206  136.2748  152.8303 C   0  0  0  0  0  0  0  0  0  0  0  0
  142.8774  137.2343  153.4609 O   0  0  0  0  0  0  0  0  0  0  0  0
  146.5418  139.2469  152.5542 N   0  0  0  0  0  0  0  0  0  0  0  0
  147.4539  140.1019  153.3101 C   0  0  2  0  0  0  0  0  0  0  0  0
  148.5486  139.2467  153.9698 C   0  0  0  0  0  0  0  0  0  0  0  0
  149.4581  140.1044  154.8650 C   0  0  0  0  0  0  0  0  0  0  0  0
  148.6659  140.8280  155.8903 N   0  3  1  0  0  0  0  0  0  0  0  0
  149.5267  141.5666  156.8392 C   0  0  0  0  0  0  0  0  0  0  0  0
  150.8015  142.0886  156.2186 C   0  0  0  0  0  0  0  0  0  0  0  0
  150.8416  140.8813  157.1291 C   0  0  0  0  0  0  0  0  0  0  0  0
  147.6338  141.6981  155.2736 C   0  0  0  0  0  0  0  0  0  0  0  0
  146.6794  140.8792  154.3878 C   0  0  0  0  0  0  0  0  0  0  0  0
  141.8090  135.0135  153.3656 H   0  0  0  0  0  0  0  0  0  0  0  0
  145.0187  138.1295  151.2426 H   0  0  0  0  0  0  0  0  0  0  0  0
  145.8458  135.2176  150.7430 H   0  0  0  0  0  0  0  0  0  0  0  0
  142.4556  133.0934  152.2861 H   0  0  0  0  0  0  0  0  0  0  0  0
  146.2265  139.5990  151.6619 H   0  0  0  0  0  0  0  0  0  0  0  0
  147.9371  140.8254  152.6507 H   0  0  0  0  0  0  0  0  0  0  0  0
  148.0934  138.4562  154.5687 H   0  0  0  0  0  0  0  0  0  0  0  0
  149.1471  138.7498  153.2051 H   0  0  0  0  0  0  0  0  0  0  0  0
  150.1947  139.4656  155.3539 H   0  0  0  0  0  0  0  0  0  0  0  0
  150.0139  140.8219  154.2593 H   0  0  0  0  0  0  0  0  0  0  0  0
  149.0165  142.1344  157.6154 H   0  0  0  0  0  0  0  0  0  0  0  0
  150.9645  141.9210  155.1555 H   0  0  0  0  0  0  0  0  0  0  0  0
  151.2046  143.0210  156.6087 H   0  0  0  0  0  0  0  0  0  0  0  0
  151.2706  141.0181  158.1195 H   0  0  0  0  0  0  0  0  0  0  0  0
  151.0306  139.9122  156.6706 H   0  0  0  0  0  0  0  0  0  0  0  0
  147.0628  142.2010  156.0552 H   0  0  0  0  0  0  0  0  0  0  0  0
  148.1182  142.4784  154.6843 H   0  0  0  0  0  0  0  0  0  0  0  0
  145.9506  141.5426  153.9200 H   0  0  0  0  0  0  0  0  0  0  0  0
  146.1122  140.1866  155.0116 H   0  0  0  0  0  0  0  0  0  0  0  0
  148.1753  140.1285  156.4290 H   0  0  0  0  0  0  0  0  0  0  0  0
  1  2  2  0  0  0  0
  2  3  1  0  0  0  0
  2 15  1  0  0  0  0
  3  4  1  0  0  0  0
  3 26  1  0  0  0  0
  4 13  1  0  0  0  0
  4  5  2  0  0  0  0
  5  6  1  0  0  0  0
  5 27  1  0  0  0  0
  6  7  1  0  0  0  0
  6 11  2  0  0  0  0
  7  8  1  0  0  0  0
  7  9  1  0  0  0  0
  7 10  1  0  0  0  0
 11 12  1  0  0  0  0
 11 28  1  0  0  0  0
 12 25  1  0  0  0  0
 12 13  1  0  0  0  0
 13 14  2  0  0  0  0
 15 16  1  0  0  0  0
 15 29  1  0  0  0  0
 16 24  1  0  0  0  0
 16 17  1  0  0  0  0
 16 30  1  0  0  0  0
 17 18  1  0  0  0  0
 17 31  1  0  0  0  0
 17 32  1  0  0  0  0
 18 19  1  0  0  0  0
 18 33  1  0  0  0  0
 18 34  1  0  0  0  0
 19 20  1  0  0  0  0
 19 23  1  0  0  0  0
 19 44  1  0  0  0  0
 20 22  1  0  0  0  0
 20 21  1  0  0  0  0
 20 35  1  0  0  0  0
 21 22  1  0  0  0  0
 21 36  1  0  0  0  0
 21 37  1  0  0  0  0
 22 38  1  0  0  0  0
 22 39  1  0  0  0  0
 23 24  1  0  0  0  0
 23 40  1  0  0  0  0
 23 41  1  0  0  0  0
 24 42  1  0  0  0  0
 24 43  1  0  0  0  0
M  CHG  1  19   1
M  END
> <s_m_source_file>
AV-unprocessed.smi

> <i_m_source_file_index>
1760

> <i_lp_mmshare_version>
43012

> <i_f3d_flags>
0

> <s_epik_input>
W0NIMl0xW0NIMl1bQ0hdMU4oW0NIMl1bQ0gyXTIpW0NIMl1bQ0gyXVtDSF0yW05IXUMoPU8pW05IXWMzW2NIXWMoQyhGKShGKUYpW2NIXVtuSF1jMz1P

> <s_epik_cmdline>
J2VwaWtfcHl0aG9uJywgJy1waCcsICc3LjAnLCAnLXRuJywgJzgnLCAnLW1hJywgJzIwMCcsICctbWV0YWxfYmluZGluZycsICctaW1hZScsICc8aW5maWxlLm1hZT4nLCAnLW9tYWUnLCAnPG91dGZpbGUubWFlPic=

> <r_lp_tautomer_probability>
0.999

> <r_epik_Ionization_Penalty>
0.131122

> <r_epik_Ionization_Penalty_Charging>
0.131104

> <r_epik_Ionization_Penalty_Neutral>
1.84439e-05

> <r_epik_State_Penalty>
0.116042

> <r_epik_Charging_Adjusted_Penalty>
0.247146

> <i_epik_Tot_Q>
1

> <i_epik_Tot_abs_Q>
1

> <r_epik_Metal_State_Penalty>
0.492282

> <b_epik_Metal_Only>
0

> <s_lp_Force_Field>
OPLS_2005

> <r_lp_Energy>
37.3321

> <b_lp_Chiralities_Consistent>
1

> <s_lp_Variant>
AV-unprocessed.smi:1760-1

> <Gold.Version>
5.8.1

> <Gold.Id.Protein>
6NUR|6NUR_protein|mol2

> <Gold.PLP.Fitness>
43.0942

> <Gold.PLP.PLP>
-41.9129

> <Gold.PLP.part.hbond>
-1.6919

> <Gold.PLP.part.metal>
0.0000

> <Gold.PLP.part.buried>
-5.5806

> <Gold.PLP.part.nonpolar>
-35.0020

> <Gold.PLP.part.repulsive>
0.3417

> <Gold.PLP.ligand.clash>
0.0000

> <Gold.PLP.ligand.torsion>
1.8834

> <Gold.PLP.Chemscore.Hbond>
1.0000

> <Gold.PLP.Chemscore.CHOScore>
0.2168

> <Gold.PLP.Chemscore.Metal>
0.0000

> <Gold.Chemscore.Hbonds>
donor molecule, donor type, donor heavy atom, donor atom, acceptor molecule, acceptor atom, score
      L1  H     3    26       P1 10171  1.00
      L1  C    11    28       P1 10957  0.20

> <Gold.PLP.Chemscore.Internal.Correction>
1.2977

> <Gold.Rescore>
     Score         DG    S(hbond)    S(metal)    S(lipo)     H(rot)  DE(clash)    DE(int)     intcor
     11.35     -14.52       0.96        0.00      78.04       1.29       0.16       3.01       ----

> <Gold.Chemscore.Fitness>
11.3465

> <Gold.Chemscore.DG>
-14.5199

> <Gold.Chemscore.ZeroCoef>
-5.4800

> <Gold.Chemscore.Hbond>
0.9597

> <Gold.Chemscore.Metal>
0.0000

> <Gold.Chemscore.Lipo>
78.0391

> <Gold.Chemscore.Internal_Hbond>
0.0000

> <Gold.Chemscore.DEClash>
0.1602

> <Gold.Chemscore.DEInternal>
3.0132

> <Gold.Chemscore.Rot>
1.2875

> <Gold.Chemscore.Internal.Correction>
   9.000000E+99

> <Gold.Chemscore.Hbonds>
donor molecule, donor type, donor heavy atom, donor atom, acceptor molecule, acceptor atom, score
      L1  H     3    26       P1 10171  0.94

> <Gold.Chemscore.Hbond.Weighted>
-3.2054

> <Gold.Chemscore.Metal.Weighted>
-0.0000

> <Gold.Chemscore.Lipo.Weighted>
-9.1306

> <Gold.Chemscore.Internal_Hbond.Weighted>
0.0000

> <Gold.Chemscore.DEClash.Weighted>
0.1602

> <Gold.Chemscore.DEInternal.Weighted>
3.0132

> <Gold.Chemscore.Rot.Weighted>
3.2960

> <Gold.Chemscore.Internal.Correction.Weighted>
   9.000000E+99

> <Gold.Protein.RotatedTorsions>
[ 6907 6896 6895 6894 ] final  157.71 input  -60.11 | X-H torsion
[ 7974 7965 7964 7962 ] final  -78.34 input  175.53 | X-H torsion
[ 8008 7997 7996 7995 ] final -151.12 input   59.86 | X-H torsion
[ 10167 10162 10161 10158 ] final   97.92 input  -65.29 | X-H torsion
[ 10718 10713 10712 10709 ] final    5.27 input   66.30 | X-H torsion
[ 10763 10752 10751 10750 ] final  139.49 input  -60.55 | X-H torsion
[ 11005 11000 10999 10996 ] final  -16.11 input  -57.11 | X-H torsion

> <Gold.Protein.ActiveResidues>
 VAL166  LYS551  ARG553  GLY616  TRP617  ASP618  TYR619  PRO620  LYS621  CYS622 
 ASP623  PHE694  ASN695  SER759  ASP760  ASP761  ALA762  ILE779  LEU786  VAL792 
 PHE793  MET794  SER795  GLU796  ALA797  LYS798  CYS799  TRP800  GLU811  SER814 

> <Gold.Protein.RotatedAtoms>
  152.0111  133.3861  159.4219 H   0  0  0  0  0  0  0  0  0  0  0  0  # atno 6907 bound_to 6896
  150.6899  134.3730  159.5009 H   0  0  0  0  0  0  0  0  0  0  0  0  # atno 6908 bound_to 6896
  152.1490  134.9002  160.0600 H   0  0  0  0  0  0  0  0  0  0  0  0  # atno 6909 bound_to 6896
  145.5878  140.9435  143.1309 H   0  0  0  0  0  0  0  0  0  0  0  0  # atno 7974 bound_to 7965
  155.6344  140.0695  157.2638 H   0  0  0  0  0  0  0  0  0  0  0  0  # atno 8008 bound_to 7997
  154.4198  140.1761  156.1556 H   0  0  0  0  0  0  0  0  0  0  0  0  # atno 8009 bound_to 7997
  155.9906  140.3345  155.6753 H   0  0  0  0  0  0  0  0  0  0  0  0  # atno 8010 bound_to 7997
  139.7757  144.6907  151.0093 H   0  0  0  0  0  0  0  0  0  0  0  0  # atno 10167 bound_to 10162
  156.9049  130.5735  149.5647 H   0  0  0  0  0  0  0  0  0  0  0  0  # atno 10718 bound_to 10713
  153.9070  135.3015  155.3448 H   0  0  0  0  0  0  0  0  0  0  0  0  # atno 10763 bound_to 10752
  154.7642  135.4919  153.9525 H   0  0  0  0  0  0  0  0  0  0  0  0  # atno 10764 bound_to 10752
  153.1213  135.6783  153.9431 H   0  0  0  0  0  0  0  0  0  0  0  0  # atno 10765 bound_to 10752
  140.8034  133.8196  155.9492 H   0  0  0  0  0  0  0  0  0  0  0  0  # atno 11005 bound_to 11000
  144.7365  139.7571  143.7327 LP  0  0  0  0  0  0  0  0  0  0  0  0  # atno 17320 bound_to 7965
  146.1669  139.4804  142.9952 LP  0  0  0  0  0  0  0  0  0  0  0  0  # atno 17321 bound_to 7965
  140.7816  143.4539  151.0373 LP  0  0  0  0  0  0  0  0  0  0  0  0  # atno 17342 bound_to 10162
  139.8221  143.7805  152.3177 LP  0  0  0  0  0  0  0  0  0  0  0  0  # atno 17343 bound_to 10162
  156.0564  130.5624  150.9100 LP  0  0  0  0  0  0  0  0  0  0  0  0  # atno 17370 bound_to 10713
  157.6003  131.0941  150.8971 LP  0  0  0  0  0  0  0  0  0  0  0  0  # atno 17371 bound_to 10713
  140.9271  134.2068  157.4888 LP  0  0  0  0  0  0  0  0  0  0  0  0  # atno 17394 bound_to 11000
  139.8720  134.9817  156.5127 LP  0  0  0  0  0  0  0  0  0  0  0  0  # atno 17395 bound_to 11000

$$$$
