AV-unprocessed.smi:242|AV-procd|sdf|1846|dock5
  -GOLD-   2262020463D 1   1.00000     0.00000
 Structure written by MMmdl.
 58 61  0  0  0  0  0  0  0  0  2 V2000
  145.7771  133.9453  151.7272 C   0  0  0  0  0  0  0  0  0  0  0  0
  146.0550  134.5883  153.0989 C   0  0  0  0  0  0  0  0  0  0  0  0
  145.4757  136.0161  153.1236 C   0  0  0  0  0  0  0  0  0  0  0  0
  147.5126  134.5740  153.4093 N   0  3  2  0  0  0  0  0  0  0  0  0
  148.1746  133.2513  153.2698 C   0  0  0  0  0  0  0  0  0  0  0  0
  149.1169  133.0900  154.4698 C   0  0  0  0  0  0  0  0  0  0  0  0
  149.2760  134.5073  155.0168 C   0  0  2  0  0  0  0  0  0  0  0  0
  149.6860  134.5565  156.4217 N   0  0  0  0  0  0  0  0  0  0  0  0
  150.7248  133.6181  156.8305 C   0  0  0  0  0  0  0  0  0  0  0  0
  149.9440  135.7999  156.8849 C   0  0  0  0  0  0  0  0  0  0  0  0
  149.9024  136.0482  158.2203 N   0  0  0  0  0  0  0  0  0  0  0  0
  150.1503  137.2808  158.6749 C   0  0  0  0  0  0  0  0  0  0  0  0
  150.4529  138.3812  157.9818 N   0  0  0  0  0  0  0  0  0  0  0  0
  150.4954  138.1295  156.6417 C   0  0  0  0  0  0  0  0  0  0  0  0
  150.2615  136.8745  156.0149 C   0  0  0  0  0  0  0  0  0  0  0  0
  150.4063  136.9902  154.6389 N   0  0  0  0  0  0  0  0  0  0  0  0
  150.7021  138.2491  154.4598 C   0  0  0  0  0  0  0  0  0  0  0  0
  150.7615  139.0092  155.6072 N   0  0  0  0  0  0  0  0  0  0  0  0
  151.0509  140.4322  155.6960 C   0  0  0  0  0  0  0  0  0  0  0  0
  149.7873  141.3281  155.7391 C   0  0  0  0  0  0  0  0  0  0  0  0
  150.1878  142.6233  156.1517 O   0  0  0  0  0  0  0  0  0  0  0  0
  149.1599  141.4391  154.3351 C   0  0  0  0  0  0  0  0  0  0  0  0
  147.8094  142.1767  154.3592 C   0  0  0  0  0  0  0  0  0  0  0  0
  146.9237  141.5396  155.2718 O   0  0  0  0  0  0  0  0  0  0  0  0
  147.3952  141.5784  156.6132 C   0  0  0  0  0  0  0  0  0  0  0  0
  148.7230  140.8095  156.7314 C   0  0  0  0  0  0  0  0  0  0  0  0
  147.8883  135.0947  154.7415 C   0  0  0  0  0  0  0  0  0  0  0  0
  144.7115  133.9628  151.4964 H   0  0  0  0  0  0  0  0  0  0  0  0
  146.0918  132.9027  151.6889 H   0  0  0  0  0  0  0  0  0  0  0  0
  146.2953  134.4782  150.9291 H   0  0  0  0  0  0  0  0  0  0  0  0
  145.5403  134.0042  153.8637 H   0  0  0  0  0  0  0  0  0  0  0  0
  144.4216  136.0131  152.8453 H   0  0  0  0  0  0  0  0  0  0  0  0
  145.9985  136.6700  152.4248 H   0  0  0  0  0  0  0  0  0  0  0  0
  145.5362  136.4662  154.1146 H   0  0  0  0  0  0  0  0  0  0  0  0
  147.4584  132.4289  153.2489 H   0  0  0  0  0  0  0  0  0  0  0  0
  148.7281  133.2341  152.3305 H   0  0  0  0  0  0  0  0  0  0  0  0
  148.6428  132.4523  155.2179 H   0  0  0  0  0  0  0  0  0  0  0  0
  150.0682  132.6318  154.1976 H   0  0  0  0  0  0  0  0  0  0  0  0
  150.0127  135.0360  154.4090 H   0  0  0  0  0  0  0  0  0  0  0  0
  151.0649  133.8173  157.8482 H   0  0  0  0  0  0  0  0  0  0  0  0
  151.5862  133.6778  156.1642 H   0  0  0  0  0  0  0  0  0  0  0  0
  150.3442  132.5971  156.8064 H   0  0  0  0  0  0  0  0  0  0  0  0
  150.0951  137.4046  159.7464 H   0  0  0  0  0  0  0  0  0  0  0  0
  150.8746  138.6644  153.4774 H   0  0  0  0  0  0  0  0  0  0  0  0
  151.6674  140.6027  156.5798 H   0  0  0  0  0  0  0  0  0  0  0  0
  151.6698  140.7015  154.8390 H   0  0  0  0  0  0  0  0  0  0  0  0
  149.6755  143.2619  155.6799 H   0  0  0  0  0  0  0  0  0  0  0  0
  149.8454  141.9362  153.6477 H   0  0  0  0  0  0  0  0  0  0  0  0
  148.9974  140.4384  153.9319 H   0  0  0  0  0  0  0  0  0  0  0  0
  147.9377  143.2259  154.6298 H   0  0  0  0  0  0  0  0  0  0  0  0
  147.3594  142.1610  153.3666 H   0  0  0  0  0  0  0  0  0  0  0  0
  147.5094  142.6125  156.9413 H   0  0  0  0  0  0  0  0  0  0  0  0
  146.6450  141.1247  157.2611 H   0  0  0  0  0  0  0  0  0  0  0  0
  148.5317  139.7541  156.5332 H   0  0  0  0  0  0  0  0  0  0  0  0
  149.0856  140.8685  157.7583 H   0  0  0  0  0  0  0  0  0  0  0  0
  147.8887  136.1853  154.7591 H   0  0  0  0  0  0  0  0  0  0  0  0
  147.1757  134.7397  155.4888 H   0  0  0  0  0  0  0  0  0  0  0  0
  147.9632  135.1820  152.7404 H   0  0  0  0  0  0  0  0  0  0  0  0
  1  2  1  0  0  0  0
  1 28  1  0  0  0  0
  1 29  1  0  0  0  0
  1 30  1  0  0  0  0
  2  3  1  0  0  0  0
  2  4  1  0  0  0  0
  2 31  1  0  0  0  0
  3 32  1  0  0  0  0
  3 33  1  0  0  0  0
  3 34  1  0  0  0  0
  4 27  1  0  0  0  0
  4  5  1  0  0  0  0
  4 58  1  0  0  0  0
  5  6  1  0  0  0  0
  5 35  1  0  0  0  0
  5 36  1  0  0  0  0
  6  7  1  0  0  0  0
  6 37  1  0  0  0  0
  6 38  1  0  0  0  0
  7  8  1  0  0  0  0
  7 27  1  0  0  0  0
  7 39  1  0  0  0  0
  8  9  1  0  0  0  0
  8 10  1  0  0  0  0
  9 40  1  0  0  0  0
  9 41  1  0  0  0  0
  9 42  1  0  0  0  0
 10 15  1  0  0  0  0
 10 11  2  0  0  0  0
 11 12  1  0  0  0  0
 12 13  2  0  0  0  0
 12 43  1  0  0  0  0
 13 14  1  0  0  0  0
 14 18  1  0  0  0  0
 14 15  2  0  0  0  0
 15 16  1  0  0  0  0
 16 17  2  0  0  0  0
 17 18  1  0  0  0  0
 17 44  1  0  0  0  0
 18 19  1  0  0  0  0
 19 20  1  0  0  0  0
 19 45  1  0  0  0  0
 19 46  1  0  0  0  0
 20 26  1  0  0  0  0
 20 21  1  0  0  0  0
 20 22  1  0  0  0  0
 21 47  1  0  0  0  0
 22 23  1  0  0  0  0
 22 48  1  0  0  0  0
 22 49  1  0  0  0  0
 23 24  1  0  0  0  0
 23 50  1  0  0  0  0
 23 51  1  0  0  0  0
 24 25  1  0  0  0  0
 25 26  1  0  0  0  0
 25 52  1  0  0  0  0
 25 53  1  0  0  0  0
 26 54  1  0  0  0  0
 26 55  1  0  0  0  0
 27 56  1  0  0  0  0
 27 57  1  0  0  0  0
M  CHG  1   4   1
M  END
> <s_m_source_file>
AV-unprocessed.smi

> <i_m_source_file_index>
242

> <i_lp_mmshare_version>
43012

> <i_f3d_flags>
0

> <s_epik_input>
W0NIM11bQ0hdKFtDSDNdKU4xW0NIMl1bQ0gyXVtDQEhdKFtDSDJdMSlOKFtDSDNdKWMobltjSF1uMiljKGMyMyluW2NIXW4zW0NIMl1DNChbT0hdKVtDSDJdW0NIMl1PW0NIMl1bQ0gyXTQ=

> <s_epik_cmdline>
J2VwaWtfcHl0aG9uJywgJy1waCcsICc3LjAnLCAnLXRuJywgJzgnLCAnLW1hJywgJzIwMCcsICctbWV0YWxfYmluZGluZycsICctaW1hZScsICc8aW5maWxlLm1hZT4nLCAnLW9tYWUnLCAnPG91dGZpbGUubWFlPic=

> <r_lp_tautomer_probability>
1

> <r_epik_Ionization_Penalty>
0.000825961

> <r_epik_Ionization_Penalty_Charging>
0.00034898

> <r_epik_Ionization_Penalty_Neutral>
0.000476981

> <r_epik_State_Penalty>
-0

> <r_epik_Charging_Adjusted_Penalty>
0.00034898

> <i_epik_Tot_Q>
1

> <i_epik_Tot_abs_Q>
1

> <r_epik_Metal_State_Penalty>
-0

> <b_epik_Metal_Only>
0

> <s_lp_Force_Field>
OPLS_2005

> <r_lp_Energy>
47.5475

> <b_lp_Chiralities_Consistent>
1

> <s_lp_Variant>
AV-unprocessed.smi:242-3

> <Gold.Version>
5.8.1

> <Gold.Id.Protein>
6NUR|6NUR_protein|mol2

> <Gold.PLP.Fitness>
50.1314

> <Gold.PLP.PLP>
-39.3063

> <Gold.PLP.part.hbond>
-2.7007

> <Gold.PLP.part.metal>
0.0000

> <Gold.PLP.part.buried>
-4.7440

> <Gold.PLP.part.nonpolar>
-32.0018

> <Gold.PLP.part.repulsive>
0.5291

> <Gold.PLP.ligand.clash>
0.0000

> <Gold.PLP.ligand.torsion>
1.1021

> <Gold.PLP.Chemscore.Hbond>
3.7120

> <Gold.PLP.Chemscore.CHOScore>
0.5135

> <Gold.PLP.Chemscore.Metal>
0.0000

> <Gold.Chemscore.Hbonds>
donor molecule, donor type, donor heavy atom, donor atom, acceptor molecule, acceptor atom, score
      L1  H     4    58       P1  7948  2.00
      L1  H    21    47       P1  8028  0.99
      P1  H  6896  6907       L1    11  0.84

> <Gold.PLP.Chemscore.Internal.Correction>
0.3527

> <Gold.Rescore>
     Score         DG    S(hbond)    S(metal)    S(lipo)     H(rot)  DE(clash)    DE(int)     intcor
     12.89     -15.27       2.62        0.00      63.50       2.50       0.02       2.36       ----

> <Gold.Chemscore.Fitness>
12.8852

> <Gold.Chemscore.DG>
-15.2732

> <Gold.Chemscore.ZeroCoef>
-5.4800

> <Gold.Chemscore.Hbond>
2.6234

> <Gold.Chemscore.Metal>
0.0000

> <Gold.Chemscore.Lipo>
63.5043

> <Gold.Chemscore.Internal_Hbond>
0.0000

> <Gold.Chemscore.DEClash>
0.0232

> <Gold.Chemscore.DEInternal>
2.3647

> <Gold.Chemscore.Rot>
2.4996

> <Gold.Chemscore.Internal.Correction>
   9.000000E+99

> <Gold.Chemscore.Hbonds>
donor molecule, donor type, donor heavy atom, donor atom, acceptor molecule, acceptor atom, score
      L1  H     4    58       P1  7948  0.99
      L1  H    21    47       P1  8028  0.94
      P1  H  6896  6907       L1    11  0.35

> <Gold.Chemscore.Hbond.Weighted>
-8.7621

> <Gold.Chemscore.Metal.Weighted>
-0.0000

> <Gold.Chemscore.Lipo.Weighted>
-7.4300

> <Gold.Chemscore.Internal_Hbond.Weighted>
0.0000

> <Gold.Chemscore.DEClash.Weighted>
0.0232

> <Gold.Chemscore.DEInternal.Weighted>
2.3647

> <Gold.Chemscore.Rot.Weighted>
6.3990

> <Gold.Chemscore.Internal.Correction.Weighted>
   9.000000E+99

> <Gold.Protein.RotatedTorsions>
[ 6907 6896 6895 6894 ] final  -53.84 input  -60.11 | X-H torsion
[ 7974 7965 7964 7962 ] final -161.17 input  175.53 | X-H torsion
[ 8008 7997 7996 7995 ] final   -4.35 input   59.86 | X-H torsion
[ 10167 10162 10161 10158 ] final -113.37 input  -65.29 | X-H torsion
[ 10718 10713 10712 10709 ] final   28.03 input   66.30 | X-H torsion
[ 10763 10752 10751 10750 ] final  130.67 input  -60.55 | X-H torsion
[ 11005 11000 10999 10996 ] final -165.72 input  -57.11 | X-H torsion

> <Gold.Protein.ActiveResidues>
 VAL166  LYS551  ARG553  GLY616  TRP617  ASP618  TYR619  PRO620  LYS621  CYS622 
 ASP623  PHE694  ASN695  SER759  ASP760  ASP761  ALA762  ILE779  LEU786  VAL792 
 PHE793  MET794  SER795  GLU796  ALA797  LYS798  CYS799  TRP800  GLU811  SER814 

> <Gold.Protein.RotatedAtoms>
  150.8390  134.7675  159.6916 H   0  0  0  0  0  0  0  0  0  0  0  0  # atno 6907 bound_to 6896
  152.4481  134.5448  159.9859 H   0  0  0  0  0  0  0  0  0  0  0  0  # atno 6908 bound_to 6896
  151.5592  133.3368  159.3003 H   0  0  0  0  0  0  0  0  0  0  0  0  # atno 6909 bound_to 6896
  144.7401  140.3437  143.6129 H   0  0  0  0  0  0  0  0  0  0  0  0  # atno 7974 bound_to 7965
  154.6152  140.2486  155.7618 H   0  0  0  0  0  0  0  0  0  0  0  0  # atno 8008 bound_to 7997
  156.2395  140.2938  156.0353 H   0  0  0  0  0  0  0  0  0  0  0  0  # atno 8009 bound_to 7997
  155.1986  140.0393  157.2903 H   0  0  0  0  0  0  0  0  0  0  0  0  # atno 8010 bound_to 7997
  140.1126  143.4514  152.1743 H   0  0  0  0  0  0  0  0  0  0  0  0  # atno 10167 bound_to 10162
  157.2280  130.7010  149.6300 H   0  0  0  0  0  0  0  0  0  0  0  0  # atno 10718 bound_to 10713
  153.7619  135.3194  155.3338 H   0  0  0  0  0  0  0  0  0  0  0  0  # atno 10763 bound_to 10752
  154.8227  135.4592  154.0829 H   0  0  0  0  0  0  0  0  0  0  0  0  # atno 10764 bound_to 10752
  153.2063  135.6929  153.8252 H   0  0  0  0  0  0  0  0  0  0  0  0  # atno 10765 bound_to 10752
  140.5725  134.5223  157.5164 H   0  0  0  0  0  0  0  0  0  0  0  0  # atno 11005 bound_to 11000
  145.7348  139.1747  143.2409 LP  0  0  0  0  0  0  0  0  0  0  0  0  # atno 17320 bound_to 7965
  146.1179  140.7347  142.9472 LP  0  0  0  0  0  0  0  0  0  0  0  0  # atno 17321 bound_to 7965
  139.5611  144.7406  151.4152 LP  0  0  0  0  0  0  0  0  0  0  0  0  # atno 17342 bound_to 10162
  140.6917  143.7845  150.7265 LP  0  0  0  0  0  0  0  0  0  0  0  0  # atno 17343 bound_to 10162
  155.9677  130.4498  150.5673 LP  0  0  0  0  0  0  0  0  0  0  0  0  # atno 17370 bound_to 10713
  157.3507  131.0733  151.1715 LP  0  0  0  0  0  0  0  0  0  0  0  0  # atno 17371 bound_to 10713
  139.9355  134.7884  156.0815 LP  0  0  0  0  0  0  0  0  0  0  0  0  # atno 17394 bound_to 11000
  141.1047  133.6664  156.2836 LP  0  0  0  0  0  0  0  0  0  0  0  0  # atno 17395 bound_to 11000

$$$$
