AV-unprocessed.smi:2605|AV-procd|sdf|10194|dock3
  -GOLD-   2272014203D 1   1.00000     0.00000
 Structure written by MMmdl.
 26 27  0  0  0  0  0  0  0  0  2 V2000
  152.4341  142.5759  159.6962 C   0  0  0  0  0  0  0  0  0  0  0  0
  151.9675  141.9104  158.5447 C   0  0  0  0  0  0  0  0  0  0  0  0
  151.5257  142.6838  157.4510 C   0  0  0  0  0  0  0  0  0  0  0  0
  151.0069  142.0069  156.1924 C   0  0  1  0  0  0  0  0  0  0  0  0
  151.2419  140.4799  156.2395 C   0  0  0  0  0  0  0  0  0  0  0  0
  150.7690  139.8442  154.9925 N   0  3  0  0  0  0  0  0  0  0  0  0
  149.3536  140.1726  154.7312 C   0  0  0  0  0  0  0  0  0  0  0  0
  149.1641  141.7001  154.7039 C   0  0  0  0  0  0  0  0  0  0  0  0
  149.5839  142.2716  155.9796 N   0  0  0  0  0  0  0  0  0  0  0  0
  151.5661  144.0907  157.5648 C   0  0  0  0  0  0  0  0  0  0  0  0
  152.0511  144.6565  158.7607 C   0  0  0  0  0  0  0  0  0  0  0  0
  152.4777  143.9206  159.8090 N   0  0  0  0  0  0  0  0  0  0  0  0
  152.7810  142.0123  160.5496 H   0  0  0  0  0  0  0  0  0  0  0  0
  151.9531  140.8310  158.5073 H   0  0  0  0  0  0  0  0  0  0  0  0
  151.5547  142.4256  155.3464 H   0  0  0  0  0  0  0  0  0  0  0  0
  152.3034  140.2619  156.3610 H   0  0  0  0  0  0  0  0  0  0  0  0
  150.7250  140.0326  157.0903 H   0  0  0  0  0  0  0  0  0  0  0  0
  151.3275  140.1843  154.2229 H   0  0  0  0  0  0  0  0  0  0  0  0
  149.0564  139.7358  153.7776 H   0  0  0  0  0  0  0  0  0  0  0  0
  148.7256  139.7211  155.5008 H   0  0  0  0  0  0  0  0  0  0  0  0
  149.7317  142.1498  153.8879 H   0  0  0  0  0  0  0  0  0  0  0  0
  148.1149  141.9441  154.5362 H   0  0  0  0  0  0  0  0  0  0  0  0
  149.4225  143.2695  155.9805 H   0  0  0  0  0  0  0  0  0  0  0  0
  151.2349  144.7261  156.7565 H   0  0  0  0  0  0  0  0  0  0  0  0
  152.0966  145.7291  158.8783 H   0  0  0  0  0  0  0  0  0  0  0  0
  150.8758  138.8424  155.0633 H   0  0  0  0  0  0  0  0  0  0  0  0
  1 12  1  0  0  0  0
  1  2  2  0  0  0  0
  1 13  1  0  0  0  0
  2  3  1  0  0  0  0
  2 14  1  0  0  0  0
  3  4  1  0  0  0  0
  3 10  2  0  0  0  0
  4  9  1  0  0  0  0
  4  5  1  0  0  0  0
  4 15  1  0  0  0  0
  5  6  1  0  0  0  0
  5 16  1  0  0  0  0
  5 17  1  0  0  0  0
  6  7  1  0  0  0  0
  6 18  1  0  0  0  0
  6 26  1  0  0  0  0
  7  8  1  0  0  0  0
  7 19  1  0  0  0  0
  7 20  1  0  0  0  0
  8  9  1  0  0  0  0
  8 21  1  0  0  0  0
  8 22  1  0  0  0  0
  9 23  1  0  0  0  0
 10 11  1  0  0  0  0
 10 24  1  0  0  0  0
 11 12  2  0  0  0  0
 11 25  1  0  0  0  0
M  CHG  1   6   1
M  END
> <s_m_source_file>
AV-unprocessed.smi

> <i_m_source_file_index>
2605

> <i_lp_mmshare_version>
43012

> <i_f3d_flags>
0

> <s_epik_input>
W2NIXTFbY0hdbltjSF1bY0hdYzFbQ0BASF0yW0NIMl1bTkhdW0NIMl1bQ0gyXVtOSF0y

> <s_epik_cmdline>
J2VwaWtfcHl0aG9uJywgJy1waCcsICc3LjAnLCAnLXRuJywgJzgnLCAnLW1hJywgJzIwMCcsICctbWV0YWxfYmluZGluZycsICctaW1hZScsICc8aW5maWxlLm1hZT4nLCAnLW9tYWUnLCAnPG91dGZpbGUubWFlPic=

> <r_epik_Ionization_Penalty>
0.0197506

> <r_epik_Ionization_Penalty_Charging>
0.010317

> <r_epik_Ionization_Penalty_Neutral>
0.00943359

> <r_epik_State_Penalty>
0.319455

> <r_epik_Charging_Adjusted_Penalty>
0.329772

> <i_epik_Tot_Q>
1

> <i_epik_Tot_abs_Q>
1

> <r_epik_Metal_State_Penalty>
0.318246

> <b_epik_Metal_Only>
0

> <s_lp_Force_Field>
OPLS_2005

> <r_lp_Energy>
9.79217

> <b_lp_Chiralities_Consistent>
1

> <s_lp_Variant>
AV-unprocessed.smi:2605-2

> <Gold.Version>
5.8.1

> <Gold.Id.Protein>
6NUR|6NUR_protein|mol2

> <Gold.PLP.Fitness>
32.2195

> <Gold.PLP.PLP>
-29.3929

> <Gold.PLP.part.hbond>
-1.0000

> <Gold.PLP.part.metal>
0.0000

> <Gold.PLP.part.buried>
-3.7122

> <Gold.PLP.part.nonpolar>
-23.8494

> <Gold.PLP.part.repulsive>
0.7402

> <Gold.PLP.ligand.clash>
0.0000

> <Gold.PLP.ligand.torsion>
0.0904

> <Gold.PLP.Chemscore.Hbond>
1.0000

> <Gold.PLP.Chemscore.CHOScore>
0.0000

> <Gold.PLP.Chemscore.Metal>
0.0000

> <Gold.Chemscore.Hbonds>
donor molecule, donor type, donor heavy atom, donor atom, acceptor molecule, acceptor atom, score
      L1  H     9    23       P1  8028  1.00

> <Gold.PLP.Chemscore.Internal.Correction>
0.0074

> <Gold.Rescore>
     Score         DG    S(hbond)    S(metal)    S(lipo)     H(rot)  DE(clash)    DE(int)     intcor
     16.24     -16.25       1.00        0.00      85.42       1.00       0.00       0.01       ----

> <Gold.Chemscore.Fitness>
16.2374

> <Gold.Chemscore.DG>
-16.2453

> <Gold.Chemscore.ZeroCoef>
-5.4800

> <Gold.Chemscore.Hbond>
0.9975

> <Gold.Chemscore.Metal>
0.0000

> <Gold.Chemscore.Lipo>
85.4162

> <Gold.Chemscore.Internal_Hbond>
0.0000

> <Gold.Chemscore.DEClash>
0.0009

> <Gold.Chemscore.DEInternal>
0.0069

> <Gold.Chemscore.Rot>
1.0000

> <Gold.Chemscore.Internal.Correction>
   9.000000E+99

> <Gold.Chemscore.Hbonds>
donor molecule, donor type, donor heavy atom, donor atom, acceptor molecule, acceptor atom, score
      L1  H     9    23       P1  8028  0.97

> <Gold.Chemscore.Hbond.Weighted>
-3.3316

> <Gold.Chemscore.Metal.Weighted>
-0.0000

> <Gold.Chemscore.Lipo.Weighted>
-9.9937

> <Gold.Chemscore.Internal_Hbond.Weighted>
0.0000

> <Gold.Chemscore.DEClash.Weighted>
0.0009

> <Gold.Chemscore.DEInternal.Weighted>
0.0069

> <Gold.Chemscore.Rot.Weighted>
2.5600

> <Gold.Chemscore.Internal.Correction.Weighted>
   9.000000E+99

> <Gold.Protein.RotatedTorsions>
[ 6907 6896 6895 6894 ] final  -59.75 input  -60.11 | X-H torsion
[ 7974 7965 7964 7962 ] final -173.22 input  175.53 | X-H torsion
[ 8008 7997 7996 7995 ] final  -35.23 input   59.86 | X-H torsion
[ 10167 10162 10161 10158 ] final  -31.08 input  -65.29 | X-H torsion
[ 10718 10713 10712 10709 ] final -156.85 input   66.30 | X-H torsion
[ 10763 10752 10751 10750 ] final  173.73 input  -60.55 | X-H torsion
[ 11005 11000 10999 10996 ] final    7.24 input  -57.11 | X-H torsion

> <Gold.Protein.ActiveResidues>
 VAL166  LYS551  ARG553  GLY616  TRP617  ASP618  TYR619  PRO620  LYS621  CYS622 
 ASP623  PHE694  ASN695  SER759  ASP760  ASP761  ALA762  ILE779  LEU786  VAL792 
 PHE793  MET794  SER795  GLU796  ALA797  LYS798  CYS799  TRP800  GLU811  SER814 

> <Gold.Protein.RotatedAtoms>
  150.7907  134.6928  159.6505 H   0  0  0  0  0  0  0  0  0  0  0  0  # atno 6907 bound_to 6896
  152.4012  134.6280  160.0078 H   0  0  0  0  0  0  0  0  0  0  0  0  # atno 6908 bound_to 6896
  151.6551  133.3282  159.3197 H   0  0  0  0  0  0  0  0  0  0  0  0  # atno 6909 bound_to 6896
  144.7139  140.1654  143.6372 H   0  0  0  0  0  0  0  0  0  0  0  0  # atno 7974 bound_to 7965
  154.4100  140.1662  156.2179 H   0  0  0  0  0  0  0  0  0  0  0  0  # atno 8008 bound_to 7997
  155.9389  140.3409  155.6287 H   0  0  0  0  0  0  0  0  0  0  0  0  # atno 8009 bound_to 7997
  155.7014  140.0745  157.2399 H   0  0  0  0  0  0  0  0  0  0  0  0  # atno 8010 bound_to 7997
  140.7241  143.3799  151.1621 H   0  0  0  0  0  0  0  0  0  0  0  0  # atno 10167 bound_to 10162
  156.5322  130.8526  151.2720 H   0  0  0  0  0  0  0  0  0  0  0  0  # atno 10718 bound_to 10713
  154.4441  135.2763  155.1827 H   0  0  0  0  0  0  0  0  0  0  0  0  # atno 10763 bound_to 10752
  154.3681  135.6114  153.5729 H   0  0  0  0  0  0  0  0  0  0  0  0  # atno 10764 bound_to 10752
  152.9842  135.5850  154.4774 H   0  0  0  0  0  0  0  0  0  0  0  0  # atno 10765 bound_to 10752
  140.5505  134.0288  155.7935 H   0  0  0  0  0  0  0  0  0  0  0  0  # atno 11005 bound_to 11000
  145.8992  139.2420  143.1503 LP  0  0  0  0  0  0  0  0  0  0  0  0  # atno 17320 bound_to 7965
  145.9827  140.8669  143.0106 LP  0  0  0  0  0  0  0  0  0  0  0  0  # atno 17321 bound_to 7965
  139.7386  143.8960  152.3042 LP  0  0  0  0  0  0  0  0  0  0  0  0  # atno 17342 bound_to 10162
  139.8774  144.7036  150.8917 LP  0  0  0  0  0  0  0  0  0  0  0  0  # atno 17343 bound_to 10162
  157.7420  130.9881  150.2483 LP  0  0  0  0  0  0  0  0  0  0  0  0  # atno 17370 bound_to 10713
  156.3049  130.3763  149.7715 LP  0  0  0  0  0  0  0  0  0  0  0  0  # atno 17371 bound_to 10713
  141.1174  133.9517  157.2795 LP  0  0  0  0  0  0  0  0  0  0  0  0  # atno 17394 bound_to 11000
  139.9458  135.0184  156.8846 LP  0  0  0  0  0  0  0  0  0  0  0  0  # atno 17395 bound_to 11000

$$$$
