AV-unprocessed.smi:793|AV-procd|sdf|3752|dock10
  -GOLD-   22720 1183D 1   1.00000     0.00000
 Structure written by MMmdl.
 39 40  0  0  0  0  0  0  0  0  1 V2000
  152.2103  145.3357  159.1129 C   0  0  0  0  0  0  0  0  0  0  0  0
  151.7469  144.3389  158.0434 C   0  0  0  0  0  0  0  0  0  0  0  0
  151.3337  142.9783  158.6356 C   0  0  2  0  0  0  0  0  0  0  0  0
  152.5153  142.3293  159.1043 O   0  0  0  0  0  0  0  0  0  0  0  0
  152.5456  141.9866  160.4874 C   0  0  0  0  0  0  0  0  0  0  0  0
  152.3807  143.1987  161.4103 C   0  0  0  0  0  0  0  0  0  0  0  0
  153.1044  142.8247  162.7114 C   0  0  0  0  0  0  0  0  0  0  0  0
  153.9888  141.6117  162.3840 C   0  0  0  0  0  0  0  0  0  0  0  0
  153.9217  141.4436  160.8648 C   0  0  0  0  0  0  0  0  0  0  0  0
  150.6341  142.1000  157.5852 C   0  0  0  0  0  0  0  0  0  0  0  0
  149.4240  142.2263  157.4000 O   0  0  0  0  0  0  0  0  0  0  0  0
  151.4383  141.2523  156.9140 N   0  0  0  0  0  0  0  0  0  0  0  0
  151.1155  140.3230  155.9123 C   0  0  0  0  0  0  0  0  0  0  0  0
  150.0283  140.3770  155.1007 C   0  0  0  0  0  0  0  0  0  0  0  0
  149.7420  139.4291  154.1286 N   0  0  0  0  0  0  0  0  0  0  0  0
  150.6005  138.3538  153.9675 C   0  0  0  0  0  0  0  0  0  0  0  0
  151.7116  138.1791  154.7097 C   0  0  0  0  0  0  0  0  0  0  0  0
  152.0494  139.1728  155.7537 C   0  0  0  0  0  0  0  0  0  0  0  0
  153.0564  139.0440  156.4499 O   0  0  0  0  0  0  0  0  0  0  0  0
  152.4894  146.2872  158.6600 H   0  0  0  0  0  0  0  0  0  0  0  0
  153.0781  144.9592  159.6549 H   0  0  0  0  0  0  0  0  0  0  0  0
  151.4201  145.5313  159.8382 H   0  0  0  0  0  0  0  0  0  0  0  0
  150.9066  144.7765  157.5023 H   0  0  0  0  0  0  0  0  0  0  0  0
  152.5441  144.2015  157.3115 H   0  0  0  0  0  0  0  0  0  0  0  0
  150.6511  143.1623  159.4670 H   0  0  0  0  0  0  0  0  0  0  0  0
  151.8008  141.2286  160.7335 H   0  0  0  0  0  0  0  0  0  0  0  0
  152.8681  144.0670  160.9641 H   0  0  0  0  0  0  0  0  0  0  0  0
  151.3349  143.4580  161.5777 H   0  0  0  0  0  0  0  0  0  0  0  0
  153.6980  143.6634  163.0763 H   0  0  0  0  0  0  0  0  0  0  0  0
  152.3886  142.5676  163.4932 H   0  0  0  0  0  0  0  0  0  0  0  0
  155.0129  141.7369  162.7364 H   0  0  0  0  0  0  0  0  0  0  0  0
  153.5823  140.7229  162.8684 H   0  0  0  0  0  0  0  0  0  0  0  0
  154.0677  140.4107  160.5477 H   0  0  0  0  0  0  0  0  0  0  0  0
  154.6994  142.0491  160.3967 H   0  0  0  0  0  0  0  0  0  0  0  0
  152.4214  141.2980  157.1411 H   0  0  0  0  0  0  0  0  0  0  0  0
  149.2811  141.1531  155.1425 H   0  0  0  0  0  0  0  0  0  0  0  0
  150.3032  137.6626  153.1927 H   0  0  0  0  0  0  0  0  0  0  0  0
  152.3620  137.3298  154.5605 H   0  0  0  0  0  0  0  0  0  0  0  0
  148.9162  139.5185  153.5532 H   0  0  0  0  0  0  0  0  0  0  0  0
  1  2  1  0  0  0  0
  1 20  1  0  0  0  0
  1 21  1  0  0  0  0
  1 22  1  0  0  0  0
  2  3  1  0  0  0  0
  2 23  1  0  0  0  0
  2 24  1  0  0  0  0
  3  4  1  0  0  0  0
  3 10  1  0  0  0  0
  3 25  1  0  0  0  0
  4  5  1  0  0  0  0
  5  9  1  0  0  0  0
  5  6  1  0  0  0  0
  5 26  1  0  0  0  0
  6  7  1  0  0  0  0
  6 27  1  0  0  0  0
  6 28  1  0  0  0  0
  7  8  1  0  0  0  0
  7 29  1  0  0  0  0
  7 30  1  0  0  0  0
  8  9  1  0  0  0  0
  8 31  1  0  0  0  0
  8 32  1  0  0  0  0
  9 33  1  0  0  0  0
  9 34  1  0  0  0  0
 10 11  2  0  0  0  0
 10 12  1  0  0  0  0
 12 35  1  0  0  0  0
 12 13  1  0  0  0  0
 13 18  1  0  0  0  0
 13 14  2  0  0  0  0
 14 36  1  0  0  0  0
 14 15  1  0  0  0  0
 15 39  1  0  0  0  0
 15 16  1  0  0  0  0
 16 37  1  0  0  0  0
 16 17  2  0  0  0  0
 17 18  1  0  0  0  0
 17 38  1  0  0  0  0
 18 19  2  0  0  0  0
M  END
> <s_m_source_file>
AV-unprocessed.smi

> <i_m_source_file_index>
793

> <i_lp_mmshare_version>
43012

> <i_f3d_flags>
0

> <s_epik_input>
W0NIMl0xW0NIMl1bQ0gyXVtDSDJdW0NIXTFPW0NAQEhdKFtDSDJdW0NIM10pQyg9TylbTkhdYzJbY0hdbltjSF1bY0hdYzJbT0hd

> <s_epik_cmdline>
J2VwaWtfcHl0aG9uJywgJy1waCcsICc3LjAnLCAnLXRuJywgJzgnLCAnLW1hJywgJzIwMCcsICctbWV0YWxfYmluZGluZycsICctaW1hZScsICc8aW5maWxlLm1hZT4nLCAnLW9tYWUnLCAnPG91dGZpbGUubWFlPic=

> <r_lp_tautomer_probability>
1

> <r_epik_Ionization_Penalty>
0.000234492

> <r_epik_Ionization_Penalty_Charging>
0.000234447

> <r_epik_Ionization_Penalty_Neutral>
4.48517e-08

> <r_epik_State_Penalty>
-0

> <r_epik_Charging_Adjusted_Penalty>
0.000234447

> <i_epik_Tot_Q>
0

> <i_epik_Tot_abs_Q>
0

> <r_epik_Metal_State_Penalty>
0.110344

> <b_epik_Metal_Only>
0

> <s_lp_Force_Field>
OPLS_2005

> <r_lp_Energy>
24.985

> <b_lp_Chiralities_Consistent>
1

> <s_lp_Variant>
AV-unprocessed.smi:793-1

> <Gold.Version>
5.8.1

> <Gold.Id.Protein>
6NUR|6NUR_protein|mol2

> <Gold.PLP.Fitness>
52.5163

> <Gold.PLP.PLP>
-49.4735

> <Gold.PLP.part.hbond>
-1.9995

> <Gold.PLP.part.metal>
0.0000

> <Gold.PLP.part.buried>
-4.6388

> <Gold.PLP.part.nonpolar>
-42.8071

> <Gold.PLP.part.repulsive>
0.8764

> <Gold.PLP.ligand.clash>
0.0000

> <Gold.PLP.ligand.torsion>
1.6463

> <Gold.PLP.Chemscore.Hbond>
1.0000

> <Gold.PLP.Chemscore.CHOScore>
1.0899

> <Gold.PLP.Chemscore.Metal>
0.0000

> <Gold.Chemscore.Hbonds>
donor molecule, donor type, donor heavy atom, donor atom, acceptor molecule, acceptor atom, score
      P1  H  7997  8010       L1    19  1.00
      L1  C    16    37       P1  7948  0.78
      L1  C    16    37       P1  7949  0.29

> <Gold.PLP.Chemscore.Internal.Correction>
0.0659

> <Gold.Rescore>
     Score         DG    S(hbond)    S(metal)    S(lipo)     H(rot)  DE(clash)    DE(int)     intcor
     16.55     -19.68       1.17        0.00     123.20       1.61       0.64       2.49       ----

> <Gold.Chemscore.Fitness>
16.5489

> <Gold.Chemscore.DG>
-19.6765

> <Gold.Chemscore.ZeroCoef>
-5.4800

> <Gold.Chemscore.Hbond>
1.1657

> <Gold.Chemscore.Metal>
0.0000

> <Gold.Chemscore.Lipo>
123.2020

> <Gold.Chemscore.Internal_Hbond>
0.0000

> <Gold.Chemscore.DEClash>
0.6415

> <Gold.Chemscore.DEInternal>
2.4860

> <Gold.Chemscore.Rot>
1.6061

> <Gold.Chemscore.Internal.Correction>
   9.000000E+99

> <Gold.Chemscore.Hbonds>
donor molecule, donor type, donor heavy atom, donor atom, acceptor molecule, acceptor atom, score
      P1  H  7997  8010       L1    19  1.00

> <Gold.Chemscore.Hbond.Weighted>
-3.8934

> <Gold.Chemscore.Metal.Weighted>
-0.0000

> <Gold.Chemscore.Lipo.Weighted>
-14.4146

> <Gold.Chemscore.Internal_Hbond.Weighted>
0.0000

> <Gold.Chemscore.DEClash.Weighted>
0.6415

> <Gold.Chemscore.DEInternal.Weighted>
2.4860

> <Gold.Chemscore.Rot.Weighted>
4.1116

> <Gold.Chemscore.Internal.Correction.Weighted>
   9.000000E+99

> <Gold.Protein.RotatedTorsions>
[ 6907 6896 6895 6894 ] final   92.18 input  -60.11 | X-H torsion
[ 7974 7965 7964 7962 ] final   24.29 input  175.53 | X-H torsion
[ 8008 7997 7996 7995 ] final   62.54 input   59.86 | X-H torsion
[ 10167 10162 10161 10158 ] final  175.04 input  -65.29 | X-H torsion
[ 10718 10713 10712 10709 ] final -118.89 input   66.30 | X-H torsion
[ 10763 10752 10751 10750 ] final -137.36 input  -60.55 | X-H torsion
[ 11005 11000 10999 10996 ] final  136.04 input  -57.11 | X-H torsion

> <Gold.Protein.ActiveResidues>
 VAL166  LYS551  ARG553  GLY616  TRP617  ASP618  TYR619  PRO620  LYS621  CYS622 
 ASP623  PHE694  ASN695  SER759  ASP760  ASP761  ALA762  ILE779  LEU786  VAL792 
 PHE793  MET794  SER795  GLU796  ALA797  LYS798  CYS799  TRP800  GLU811  SER814 

> <Gold.Protein.RotatedAtoms>
  152.5452  134.1543  159.8530 H   0  0  0  0  0  0  0  0  0  0  0  0  # atno 6907 bound_to 6896
  151.1567  133.4865  159.2602 H   0  0  0  0  0  0  0  0  0  0  0  0  # atno 6908 bound_to 6896
  151.1416  135.0193  159.8683 H   0  0  0  0  0  0  0  0  0  0  0  0  # atno 6909 bound_to 6896
  146.1944  139.7625  142.8808 H   0  0  0  0  0  0  0  0  0  0  0  0  # atno 7974 bound_to 7965
  155.6159  140.3495  155.4637 H   0  0  0  0  0  0  0  0  0  0  0  0  # atno 8008 bound_to 7997
  156.0117  140.1235  157.0471 H   0  0  0  0  0  0  0  0  0  0  0  0  # atno 8009 bound_to 7997
  154.4283  140.1080  156.5826 H   0  0  0  0  0  0  0  0  0  0  0  0  # atno 8010 bound_to 7997
  139.5163  144.3077  152.0321 H   0  0  0  0  0  0  0  0  0  0  0  0  # atno 10167 bound_to 10162
  156.1140  130.6271  150.9347 H   0  0  0  0  0  0  0  0  0  0  0  0  # atno 10718 bound_to 10713
  154.8663  135.3644  154.5210 H   0  0  0  0  0  0  0  0  0  0  0  0  # atno 10763 bound_to 10752
  153.5841  135.7017  153.5456 H   0  0  0  0  0  0  0  0  0  0  0  0  # atno 10764 bound_to 10752
  153.3431  135.4092  155.1550 H   0  0  0  0  0  0  0  0  0  0  0  0  # atno 10765 bound_to 10752
  140.0019  134.9475  157.0091 H   0  0  0  0  0  0  0  0  0  0  0  0  # atno 11005 bound_to 11000
  145.3690  141.0339  143.3242 LP  0  0  0  0  0  0  0  0  0  0  0  0  # atno 17320 bound_to 7965
  144.8551  139.5262  143.6838 LP  0  0  0  0  0  0  0  0  0  0  0  0  # atno 17321 bound_to 7965
  140.2522  144.4156  150.6217 LP  0  0  0  0  0  0  0  0  0  0  0  0  # atno 17342 bound_to 10162
  140.6216  143.2177  151.6682 LP  0  0  0  0  0  0  0  0  0  0  0  0  # atno 17343 bound_to 10162
  157.6322  131.0920  150.8419 LP  0  0  0  0  0  0  0  0  0  0  0  0  # atno 17370 bound_to 10713
  156.8525  130.5085  149.5310 LP  0  0  0  0  0  0  0  0  0  0  0  0  # atno 17371 bound_to 10713
  140.4712  134.1385  155.7203 LP  0  0  0  0  0  0  0  0  0  0  0  0  # atno 17394 bound_to 11000
  141.1648  133.8723  157.1745 LP  0  0  0  0  0  0  0  0  0  0  0  0  # atno 17395 bound_to 11000

$$$$
