AV-unprocessed.smi:1026|AV-procd|sdf|4468|dock6
  -GOLD-   22720 2443D 1   1.00000     0.00000
 Structure written by MMmdl.
 40 41  0  0  0  0  0  0  0  0  1 V2000
  144.0629  145.5480  155.4135 C   0  0  0  0  0  0  0  0  0  0  0  0
  144.4144  144.7967  154.1249 C   0  0  0  0  0  0  0  0  0  0  0  0
  145.1383  143.5184  154.3864 C   0  0  0  0  0  0  0  0  0  0  0  0
  146.2835  143.1855  153.7853 N   0  0  0  0  0  0  0  0  0  0  0  0
  146.7481  141.9238  154.1698 C   0  0  0  0  0  0  0  0  0  0  0  0
  148.0279  141.3940  153.5977 C   0  0  0  0  0  0  0  0  0  0  0  0
  149.0094  140.9369  154.6896 C   0  0  0  0  0  0  0  0  0  0  0  0
  149.4272  142.0503  155.5335 N   0  0  0  0  0  0  0  0  0  0  0  0
  150.4109  141.9973  156.4476 C   0  0  0  0  0  0  0  0  0  0  0  0
  151.0816  140.9894  156.6618 O   0  0  0  0  0  0  0  0  0  0  0  0
  150.6187  143.1419  157.1235 N   0  0  0  0  0  0  0  0  0  0  0  0
  151.6012  143.4184  158.1740 C   0  0  0  0  0  0  0  0  0  0  0  0
  151.7445  142.2011  159.1124 C   0  0  0  0  0  0  0  0  0  0  0  0
  152.8052  142.4198  160.2011 C   0  0  0  0  0  0  0  0  0  0  0  0
  152.3630  143.8053  161.2846 S   0  0  0  0  0  0  0  0  0  0  0  0
  152.1898  145.0916  160.0185 C   0  0  0  0  0  0  0  0  0  0  0  0
  151.1718  144.6820  158.9441 C   0  0  0  0  0  0  0  0  0  0  0  0
  145.9255  141.2965  155.0720 C   0  0  0  0  0  0  0  0  0  0  0  0
  144.5334  142.2674  155.4666 S   0  0  0  0  0  0  0  0  0  0  0  0
  143.5329  146.4741  155.1907 H   0  0  0  0  0  0  0  0  0  0  0  0
  144.9607  145.8043  155.9766 H   0  0  0  0  0  0  0  0  0  0  0  0
  143.4230  144.9446  156.0580 H   0  0  0  0  0  0  0  0  0  0  0  0
  143.5062  144.5787  153.5615 H   0  0  0  0  0  0  0  0  0  0  0  0
  145.0351  145.4249  153.4855 H   0  0  0  0  0  0  0  0  0  0  0  0
  147.8176  140.5595  152.9278 H   0  0  0  0  0  0  0  0  0  0  0  0
  148.4965  142.1606  152.9794 H   0  0  0  0  0  0  0  0  0  0  0  0
  148.5642  140.1506  155.3019 H   0  0  0  0  0  0  0  0  0  0  0  0
  149.8999  140.5059  154.2313 H   0  0  0  0  0  0  0  0  0  0  0  0
  148.9306  142.9218  155.4200 H   0  0  0  0  0  0  0  0  0  0  0  0
  150.0306  143.9212  156.8650 H   0  0  0  0  0  0  0  0  0  0  0  0
  152.5683  143.6291  157.7139 H   0  0  0  0  0  0  0  0  0  0  0  0
  150.7844  141.9735  159.5776 H   0  0  0  0  0  0  0  0  0  0  0  0
  152.0173  141.3181  158.5335 H   0  0  0  0  0  0  0  0  0  0  0  0
  152.9101  141.5223  160.8106 H   0  0  0  0  0  0  0  0  0  0  0  0
  153.7785  142.6163  159.7506 H   0  0  0  0  0  0  0  0  0  0  0  0
  151.8751  146.0165  160.5024 H   0  0  0  0  0  0  0  0  0  0  0  0
  153.1646  145.2820  159.5683 H   0  0  0  0  0  0  0  0  0  0  0  0
  151.0499  145.5094  158.2439 H   0  0  0  0  0  0  0  0  0  0  0  0
  150.1955  144.5269  159.4056 H   0  0  0  0  0  0  0  0  0  0  0  0
  146.0514  140.3239  155.5243 H   0  0  0  0  0  0  0  0  0  0  0  0
  1  2  1  0  0  0  0
  1 20  1  0  0  0  0
  1 21  1  0  0  0  0
  1 22  1  0  0  0  0
  2  3  1  0  0  0  0
  2 23  1  0  0  0  0
  2 24  1  0  0  0  0
  3 19  1  0  0  0  0
  3  4  2  0  0  0  0
  4  5  1  0  0  0  0
  5  6  1  0  0  0  0
  5 18  2  0  0  0  0
  6  7  1  0  0  0  0
  6 25  1  0  0  0  0
  6 26  1  0  0  0  0
  7  8  1  0  0  0  0
  7 27  1  0  0  0  0
  7 28  1  0  0  0  0
  8  9  1  0  0  0  0
  8 29  1  0  0  0  0
  9 10  2  0  0  0  0
  9 11  1  0  0  0  0
 11 12  1  0  0  0  0
 11 30  1  0  0  0  0
 12 17  1  0  0  0  0
 12 13  1  0  0  0  0
 12 31  1  0  0  0  0
 13 14  1  0  0  0  0
 13 32  1  0  0  0  0
 13 33  1  0  0  0  0
 14 15  1  0  0  0  0
 14 34  1  0  0  0  0
 14 35  1  0  0  0  0
 15 16  1  0  0  0  0
 16 17  1  0  0  0  0
 16 36  1  0  0  0  0
 16 37  1  0  0  0  0
 17 38  1  0  0  0  0
 17 39  1  0  0  0  0
 18 19  1  0  0  0  0
 18 40  1  0  0  0  0
M  END
> <s_m_source_file>
AV-unprocessed.smi

> <i_m_source_file_index>
1026

> <i_lp_mmshare_version>
43012

> <i_f3d_flags>
0

> <s_epik_input>
W0NIM11bQ0gyXWMxbmMoW2NIXXMxKVtDSDJdW0NIMl1bTkhdQyg9TylbTkhdW0NIXTJbQ0gyXVtDSDJdU1tDSDJdW0NIMl0y

> <s_epik_cmdline>
J2VwaWtfcHl0aG9uJywgJy1waCcsICc3LjAnLCAnLXRuJywgJzgnLCAnLW1hJywgJzIwMCcsICctbWV0YWxfYmluZGluZycsICctaW1hZScsICc8aW5maWxlLm1hZT4nLCAnLW9tYWUnLCAnPG91dGZpbGUubWFlPic=

> <r_epik_Ionization_Penalty>
0.00199316

> <r_epik_Ionization_Penalty_Charging>
0

> <r_epik_Ionization_Penalty_Neutral>
0.00199316

> <r_epik_State_Penalty>
0.00132065

> <r_epik_Charging_Adjusted_Penalty>
0.00132065

> <i_epik_Tot_Q>
0

> <i_epik_Tot_abs_Q>
0

> <r_epik_Metal_State_Penalty>
-0

> <b_epik_Metal_Only>
0

> <s_lp_Force_Field>
OPLS_2005

> <r_lp_Energy>
4.0728

> <b_lp_Chiralities_Consistent>
1

> <s_lp_Variant>
AV-unprocessed.smi:1026-1

> <Gold.Version>
5.8.1

> <Gold.Id.Protein>
6NUR|6NUR_protein|mol2

> <Gold.PLP.Fitness>
49.0867

> <Gold.PLP.PLP>
-43.9363

> <Gold.PLP.part.hbond>
-2.2094

> <Gold.PLP.part.metal>
0.0000

> <Gold.PLP.part.buried>
-6.2342

> <Gold.PLP.part.nonpolar>
-35.0307

> <Gold.PLP.part.repulsive>
0.4078

> <Gold.PLP.ligand.clash>
0.0000

> <Gold.PLP.ligand.torsion>
0.4293

> <Gold.PLP.Chemscore.Hbond>
1.9920

> <Gold.PLP.Chemscore.CHOScore>
0.0000

> <Gold.PLP.Chemscore.Metal>
0.0000

> <Gold.Chemscore.Hbonds>
donor molecule, donor type, donor heavy atom, donor atom, acceptor molecule, acceptor atom, score
      L1  H     8    29       P1  8028  0.99
      L1  H    11    30       P1  8028  1.00

> <Gold.PLP.Chemscore.Internal.Correction>
0.0331

> <Gold.Rescore>
     Score         DG    S(hbond)    S(metal)    S(lipo)     H(rot)  DE(clash)    DE(int)     intcor
     19.54     -21.44       1.91        0.00     116.38       1.58       0.16       1.74       ----

> <Gold.Chemscore.Fitness>
19.5381

> <Gold.Chemscore.DG>
-21.4352

> <Gold.Chemscore.ZeroCoef>
-5.4800

> <Gold.Chemscore.Hbond>
1.9088

> <Gold.Chemscore.Metal>
0.0000

> <Gold.Chemscore.Lipo>
116.3812

> <Gold.Chemscore.Internal_Hbond>
0.0000

> <Gold.Chemscore.DEClash>
0.1576

> <Gold.Chemscore.DEInternal>
1.7395

> <Gold.Chemscore.Rot>
1.5768

> <Gold.Chemscore.Internal.Correction>
   9.000000E+99

> <Gold.Chemscore.Hbonds>
donor molecule, donor type, donor heavy atom, donor atom, acceptor molecule, acceptor atom, score
      L1  H     8    29       P1  8028  0.93
      L1  H    11    30       P1  8028  0.94

> <Gold.Chemscore.Hbond.Weighted>
-6.3753

> <Gold.Chemscore.Metal.Weighted>
-0.0000

> <Gold.Chemscore.Lipo.Weighted>
-13.6166

> <Gold.Chemscore.Internal_Hbond.Weighted>
0.0000

> <Gold.Chemscore.DEClash.Weighted>
0.1576

> <Gold.Chemscore.DEInternal.Weighted>
1.7395

> <Gold.Chemscore.Rot.Weighted>
4.0367

> <Gold.Chemscore.Internal.Correction.Weighted>
   9.000000E+99

> <Gold.Protein.RotatedTorsions>
[ 6907 6896 6895 6894 ] final   -7.51 input  -60.11 | X-H torsion
[ 7974 7965 7964 7962 ] final  156.34 input  175.53 | X-H torsion
[ 8008 7997 7996 7995 ] final   42.20 input   59.86 | X-H torsion
[ 10167 10162 10161 10158 ] final   46.10 input  -65.29 | X-H torsion
[ 10718 10713 10712 10709 ] final   82.30 input   66.30 | X-H torsion
[ 10763 10752 10751 10750 ] final  -66.62 input  -60.55 | X-H torsion
[ 11005 11000 10999 10996 ] final  -17.33 input  -57.11 | X-H torsion

> <Gold.Protein.ActiveResidues>
 VAL166  LYS551  ARG553  GLY616  TRP617  ASP618  TYR619  PRO620  LYS621  CYS622 
 ASP623  PHE694  ASN695  SER759  ASP760  ASP761  ALA762  ILE779  LEU786  VAL792 
 PHE793  MET794  SER795  GLU796  ALA797  LYS798  CYS799  TRP800  GLU811  SER814 

> <Gold.Protein.RotatedAtoms>
  151.4485  135.1027  159.9690 H   0  0  0  0  0  0  0  0  0  0  0  0  # atno 6907 bound_to 6896
  152.4897  133.8462  159.7189 H   0  0  0  0  0  0  0  0  0  0  0  0  # atno 6908 bound_to 6896
  150.9038  133.7024  159.2899 H   0  0  0  0  0  0  0  0  0  0  0  0  # atno 6909 bound_to 6896
  144.7969  139.7191  143.6198 H   0  0  0  0  0  0  0  0  0  0  0  0  # atno 7974 bound_to 7965
  155.2822  140.3373  155.4257 H   0  0  0  0  0  0  0  0  0  0  0  0  # atno 8008 bound_to 7997
  156.2084  140.1760  156.7789 H   0  0  0  0  0  0  0  0  0  0  0  0  # atno 8009 bound_to 7997
  154.5653  140.0680  156.8866 H   0  0  0  0  0  0  0  0  0  0  0  0  # atno 8010 bound_to 7997
  140.3174  144.2747  150.6189 H   0  0  0  0  0  0  0  0  0  0  0  0  # atno 10167 bound_to 10162
  157.6854  131.0042  150.2355 H   0  0  0  0  0  0  0  0  0  0  0  0  # atno 10718 bound_to 10713
  154.3625  135.6113  153.5698 H   0  0  0  0  0  0  0  0  0  0  0  0  # atno 10763 bound_to 10752
  152.9793  135.5818  154.4616 H   0  0  0  0  0  0  0  0  0  0  0  0  # atno 10764 bound_to 10752
  154.4356  135.2849  155.1860 H   0  0  0  0  0  0  0  0  0  0  0  0  # atno 10765 bound_to 10752
  140.8158  133.8106  155.9609 H   0  0  0  0  0  0  0  0  0  0  0  0  # atno 11005 bound_to 11000
  146.2240  139.5687  142.9600 LP  0  0  0  0  0  0  0  0  0  0  0  0  # atno 17320 bound_to 7965
  145.5651  141.0400  143.2205 LP  0  0  0  0  0  0  0  0  0  0  0  0  # atno 17321 bound_to 7965
  140.5514  143.2206  151.7920 LP  0  0  0  0  0  0  0  0  0  0  0  0  # atno 17342 bound_to 10162
  139.4881  144.4471  151.9698 LP  0  0  0  0  0  0  0  0  0  0  0  0  # atno 17343 bound_to 10162
  156.2979  130.3754  149.7778 LP  0  0  0  0  0  0  0  0  0  0  0  0  # atno 17370 bound_to 10713
  156.5417  130.8303  151.3271 LP  0  0  0  0  0  0  0  0  0  0  0  0  # atno 17371 bound_to 10713
  140.9151  134.2212  157.4962 LP  0  0  0  0  0  0  0  0  0  0  0  0  # atno 17394 bound_to 11000
  139.8711  134.9767  156.4932 LP  0  0  0  0  0  0  0  0  0  0  0  0  # atno 17395 bound_to 11000

$$$$
