AV-unprocessed.smi:3119|AV-procd|sdf|11891|dock3
  -GOLD-   2272017283D 1   1.00000     0.00000
 Structure written by MMmdl.
 32 33  0  0  0  0  0  0  0  0  2 V2000
  148.9846  141.5767  153.7134 O   0  0  0  0  0  0  0  0  0  0  0  0
  148.1434  141.7099  154.6030 C   0  0  0  0  0  0  0  0  0  0  0  0
  148.4569  141.7325  155.9061 N   0  0  0  0  0  0  0  0  0  0  0  0
  149.8104  141.5903  156.4252 C   0  0  0  0  0  0  0  0  0  0  0  0
  149.8277  141.7436  157.9519 C   0  0  0  0  0  0  0  0  0  0  0  0
  150.8281  142.7874  158.4098 C   0  0  0  0  0  0  0  0  0  0  0  0
  151.9283  142.4624  159.2326 C   0  0  0  0  0  0  0  0  0  0  0  0
  152.8279  143.4798  159.6141 C   0  0  0  0  0  0  0  0  0  0  0  0
  152.6096  144.7986  159.1646 C   0  0  0  0  0  0  0  0  0  0  0  0
  151.4954  145.0672  158.3435 C   0  0  0  0  0  0  0  0  0  0  0  0
  150.6563  144.0651  157.9995 N   0  3  0  0  0  0  0  0  0  0  0  0
  146.6549  141.8654  154.2633 C   0  0  0  0  0  0  0  0  0  0  0  0
  146.2491  143.2895  153.8460 C   0  0  0  0  0  0  0  0  0  0  0  0
  145.0078  143.1525  154.7322 C   0  0  0  0  0  0  0  0  0  0  0  0
  145.7223  142.0221  155.4784 C   0  0  0  0  0  0  0  0  0  0  0  0
  147.7109  141.8505  156.5765 H   0  0  0  0  0  0  0  0  0  0  0  0
  150.2063  140.6118  156.1475 H   0  0  0  0  0  0  0  0  0  0  0  0
  150.4515  142.3418  155.9615 H   0  0  0  0  0  0  0  0  0  0  0  0
  148.8360  142.0206  158.3130 H   0  0  0  0  0  0  0  0  0  0  0  0
  150.0705  140.7884  158.4201 H   0  0  0  0  0  0  0  0  0  0  0  0
  152.0847  141.4466  159.5660 H   0  0  0  0  0  0  0  0  0  0  0  0
  153.6758  143.2507  160.2431 H   0  0  0  0  0  0  0  0  0  0  0  0
  153.2873  145.5919  159.4449 H   0  0  0  0  0  0  0  0  0  0  0  0
  151.2525  146.0449  157.9533 H   0  0  0  0  0  0  0  0  0  0  0  0
  146.2868  141.1136  153.5621 H   0  0  0  0  0  0  0  0  0  0  0  0
  146.9305  144.0684  154.1932 H   0  0  0  0  0  0  0  0  0  0  0  0
  146.0261  143.4013  152.7846 H   0  0  0  0  0  0  0  0  0  0  0  0
  144.7834  144.0293  155.3402 H   0  0  0  0  0  0  0  0  0  0  0  0
  144.1323  142.8064  154.1807 H   0  0  0  0  0  0  0  0  0  0  0  0
  145.0914  141.1552  155.6757 H   0  0  0  0  0  0  0  0  0  0  0  0
  146.2160  142.3677  156.3884 H   0  0  0  0  0  0  0  0  0  0  0  0
  149.8578  144.2819  157.4025 H   0  0  0  0  0  0  0  0  0  0  0  0
  1  2  2  0  0  0  0
  2  3  1  0  0  0  0
  2 12  1  0  0  0  0
  3  4  1  0  0  0  0
  3 16  1  0  0  0  0
  4  5  1  0  0  0  0
  4 17  1  0  0  0  0
  4 18  1  0  0  0  0
  5  6  1  0  0  0  0
  5 19  1  0  0  0  0
  5 20  1  0  0  0  0
  6 11  1  0  0  0  0
  6  7  2  0  0  0  0
  7  8  1  0  0  0  0
  7 21  1  0  0  0  0
  8  9  2  0  0  0  0
  8 22  1  0  0  0  0
  9 10  1  0  0  0  0
  9 23  1  0  0  0  0
 10 11  2  0  0  0  0
 10 24  1  0  0  0  0
 11 32  1  0  0  0  0
 12 15  1  0  0  0  0
 12 13  1  0  0  0  0
 12 25  1  0  0  0  0
 13 14  1  0  0  0  0
 13 26  1  0  0  0  0
 13 27  1  0  0  0  0
 14 15  1  0  0  0  0
 14 28  1  0  0  0  0
 14 29  1  0  0  0  0
 15 30  1  0  0  0  0
 15 31  1  0  0  0  0
M  CHG  1  11   1
M  END
> <s_m_source_file>
AV-unprocessed.smi

> <i_m_source_file_index>
3119

> <i_lp_mmshare_version>
43012

> <i_f3d_flags>
0

> <s_epik_input>
W0NIMl0xW0NIMl1bQ0gyXVtDSF0xQyg9TylbTkhdW0NIMl1bQ0gyXWMyW2NIXVtjSF1bY0hdW2NIXW4y

> <s_epik_cmdline>
J2VwaWtfcHl0aG9uJywgJy1waCcsICc3LjAnLCAnLXRuJywgJzgnLCAnLW1hJywgJzIwMCcsICctbWV0YWxfYmluZGluZycsICctaW1hZScsICc8aW5maWxlLm1hZT4nLCAnLW9tYWUnLCAnPG91dGZpbGUubWFlPic=

> <r_epik_Ionization_Penalty>
1.82741

> <r_epik_Ionization_Penalty_Charging>
1.82741

> <r_epik_Ionization_Penalty_Neutral>
1.62845e-08

> <r_epik_State_Penalty>
1.94311

> <r_epik_Charging_Adjusted_Penalty>
3.77052

> <i_epik_Tot_Q>
1

> <i_epik_Tot_abs_Q>
1

> <r_epik_Metal_State_Penalty>
1.96982

> <b_epik_Metal_Only>
0

> <s_lp_Force_Field>
OPLS_2005

> <r_lp_Energy>
15.9357

> <b_lp_Chiralities_Consistent>
1

> <s_lp_Variant>
AV-unprocessed.smi:3119-2

> <Gold.Version>
5.8.1

> <Gold.Id.Protein>
6NUR|6NUR_protein|mol2

> <Gold.PLP.Fitness>
42.9306

> <Gold.PLP.PLP>
-35.6473

> <Gold.PLP.part.hbond>
-3.5780

> <Gold.PLP.part.metal>
0.0000

> <Gold.PLP.part.buried>
-6.1656

> <Gold.PLP.part.nonpolar>
-26.9008

> <Gold.PLP.part.repulsive>
0.9844

> <Gold.PLP.ligand.clash>
0.0000

> <Gold.PLP.ligand.torsion>
0.6686

> <Gold.PLP.Chemscore.Hbond>
2.7360

> <Gold.PLP.Chemscore.CHOScore>
0.0000

> <Gold.PLP.Chemscore.Metal>
0.0000

> <Gold.Chemscore.Hbonds>
donor molecule, donor type, donor heavy atom, donor atom, acceptor molecule, acceptor atom, score
      L1  H    11    32       P1  8028  2.00
      P1  H  8011  8017       L1     1  0.72

> <Gold.PLP.Chemscore.Internal.Correction>
0.4125

> <Gold.Rescore>
     Score         DG    S(hbond)    S(metal)    S(lipo)     H(rot)  DE(clash)    DE(int)     intcor
     16.16     -18.49       1.82        0.00      92.83       1.53       1.75       0.59       ----

> <Gold.Chemscore.Fitness>
16.1581

> <Gold.Chemscore.DG>
-18.4928

> <Gold.Chemscore.ZeroCoef>
-5.4800

> <Gold.Chemscore.Hbond>
1.8152

> <Gold.Chemscore.Metal>
0.0000

> <Gold.Chemscore.Lipo>
92.8298

> <Gold.Chemscore.Internal_Hbond>
0.0000

> <Gold.Chemscore.DEClash>
1.7468

> <Gold.Chemscore.DEInternal>
0.5879

> <Gold.Chemscore.Rot>
1.5278

> <Gold.Chemscore.Internal.Correction>
   9.000000E+99

> <Gold.Chemscore.Hbonds>
donor molecule, donor type, donor heavy atom, donor atom, acceptor molecule, acceptor atom, score
      L1  H    11    32       P1  8028  0.33
      P1  H  8011  8017       L1     1  0.72

> <Gold.Chemscore.Hbond.Weighted>
-6.0628

> <Gold.Chemscore.Metal.Weighted>
-0.0000

> <Gold.Chemscore.Lipo.Weighted>
-10.8611

> <Gold.Chemscore.Internal_Hbond.Weighted>
0.0000

> <Gold.Chemscore.DEClash.Weighted>
1.7468

> <Gold.Chemscore.DEInternal.Weighted>
0.5879

> <Gold.Chemscore.Rot.Weighted>
3.9111

> <Gold.Chemscore.Internal.Correction.Weighted>
   9.000000E+99

> <Gold.Protein.RotatedTorsions>
[ 6907 6896 6895 6894 ] final -153.78 input  -60.11 | X-H torsion
[ 7974 7965 7964 7962 ] final  -73.73 input  175.53 | X-H torsion
[ 8008 7997 7996 7995 ] final  -83.13 input   59.86 | X-H torsion
[ 10167 10162 10161 10158 ] final  -17.60 input  -65.29 | X-H torsion
[ 10718 10713 10712 10709 ] final  130.96 input   66.30 | X-H torsion
[ 10763 10752 10751 10750 ] final  -20.86 input  -60.55 | X-H torsion
[ 11005 11000 10999 10996 ] final -148.45 input  -57.11 | X-H torsion

> <Gold.Protein.ActiveResidues>
 VAL166  LYS551  ARG553  GLY616  TRP617  ASP618  TYR619  PRO620  LYS621  CYS622 
 ASP623  PHE694  ASN695  SER759  ASP760  ASP761  ALA762  ILE779  LEU786  VAL792 
 PHE793  MET794  SER795  GLU796  ALA797  LYS798  CYS799  TRP800  GLU811  SER814 

> <Gold.Protein.RotatedAtoms>
  151.2476  133.4367  159.2609 H   0  0  0  0  0  0  0  0  0  0  0  0  # atno 6907 bound_to 6896
  151.0647  134.9760  159.8288 H   0  0  0  0  0  0  0  0  0  0  0  0  # atno 6908 bound_to 6896
  152.5403  134.2425  159.8920 H   0  0  0  0  0  0  0  0  0  0  0  0  # atno 6909 bound_to 6896
  145.6483  140.9290  143.0998 H   0  0  0  0  0  0  0  0  0  0  0  0  # atno 7974 bound_to 7965
  154.6158  140.0623  156.9553 H   0  0  0  0  0  0  0  0  0  0  0  0  # atno 8008 bound_to 7997
  155.1897  140.3306  155.4342 H   0  0  0  0  0  0  0  0  0  0  0  0  # atno 8009 bound_to 7997
  156.2403  140.1883  156.6988 H   0  0  0  0  0  0  0  0  0  0  0  0  # atno 8010 bound_to 7997
  140.7249  143.5000  150.9882 H   0  0  0  0  0  0  0  0  0  0  0  0  # atno 10167 bound_to 10162
  157.5013  131.1094  150.9423 H   0  0  0  0  0  0  0  0  0  0  0  0  # atno 10718 bound_to 10713
  153.6270  135.6990  153.5289 H   0  0  0  0  0  0  0  0  0  0  0  0  # atno 10763 bound_to 10752
  153.2891  135.4162  155.1149 H   0  0  0  0  0  0  0  0  0  0  0  0  # atno 10764 bound_to 10752
  154.8530  135.3621  154.5812 H   0  0  0  0  0  0  0  0  0  0  0  0  # atno 10765 bound_to 10752
  140.7611  134.3297  157.5101 H   0  0  0  0  0  0  0  0  0  0  0  0  # atno 11005 bound_to 11000
  144.7132  139.8293  143.7407 LP  0  0  0  0  0  0  0  0  0  0  0  0  # atno 17320 bound_to 7965
  146.1225  139.4245  143.0219 LP  0  0  0  0  0  0  0  0  0  0  0  0  # atno 17321 bound_to 7965
  139.8708  143.7194  152.3166 LP  0  0  0  0  0  0  0  0  0  0  0  0  # atno 17342 bound_to 10162
  139.7442  144.7551  151.0605 LP  0  0  0  0  0  0  0  0  0  0  0  0  # atno 17343 bound_to 10162
  157.0093  130.5630  149.5319 LP  0  0  0  0  0  0  0  0  0  0  0  0  # atno 17370 bound_to 10713
  156.0231  130.5325  150.8331 LP  0  0  0  0  0  0  0  0  0  0  0  0  # atno 17371 bound_to 10713
  139.8770  134.9203  156.3247 LP  0  0  0  0  0  0  0  0  0  0  0  0  # atno 17394 bound_to 11000
  140.9662  133.7356  156.0470 LP  0  0  0  0  0  0  0  0  0  0  0  0  # atno 17395 bound_to 11000

$$$$
