AV-unprocessed.smi:1171|AV-procd|sdf|4942|dock3
  -GOLD-   22720 3523D 1   1.00000     0.00000
 Structure written by MMmdl.
 32 33  0  0  0  0  0  0  0  0  1 V2000
  148.6425  141.3952  154.1354 C   0  0  0  0  0  0  0  0  0  0  0  0
  149.7913  141.0478  155.0352 C   0  0  0  0  0  0  0  0  0  0  0  0
  150.2181  141.7237  156.2153 C   0  0  0  0  0  0  0  0  0  0  0  0
  151.2927  140.9784  156.6164 C   0  0  0  0  0  0  0  0  0  0  0  0
  152.0892  141.1442  157.7052 N   0  0  0  0  0  0  0  0  0  0  0  0
  152.0936  142.1454  158.6072 C   0  0  0  0  0  0  0  0  0  0  0  0
  151.3896  143.1512  158.5400 O   0  0  0  0  0  0  0  0  0  0  0  0
  152.9862  141.9895  159.6020 N   0  0  0  0  0  0  0  0  0  0  0  0
  153.2394  142.8651  160.7079 C   0  0  0  0  0  0  0  0  0  0  0  0
  152.5248  142.5606  162.0069 C   0  0  0  0  0  0  0  0  0  0  0  0
  152.1078  143.7495  161.1857 C   0  0  0  0  0  0  0  0  0  0  0  0
  151.4730  139.9420  155.7274 N   0  0  0  0  0  0  0  0  0  0  0  0
  152.4618  138.8803  155.7321 C   0  0  0  0  0  0  0  0  0  0  0  0
  151.7968  137.5032  155.8217 C   0  0  0  0  0  0  0  0  0  0  0  0
  151.5822  137.0706  157.2101 C   0  0  0  0  0  0  0  0  0  0  0  0
  151.4128  136.7295  158.3025 N   0  0  0  0  0  0  0  0  0  0  0  0
  150.5396  139.9873  154.7526 N   0  0  0  0  0  0  0  0  0  0  0  0
  148.0856  142.2502  154.5192 H   0  0  0  0  0  0  0  0  0  0  0  0
  147.9472  140.5602  154.0455 H   0  0  0  0  0  0  0  0  0  0  0  0
  148.9919  141.6493  153.1343 H   0  0  0  0  0  0  0  0  0  0  0  0
  149.7899  142.6016  156.6756 H   0  0  0  0  0  0  0  0  0  0  0  0
  152.7635  140.4096  157.8610 H   0  0  0  0  0  0  0  0  0  0  0  0
  153.6015  141.1920  159.5284 H   0  0  0  0  0  0  0  0  0  0  0  0
  154.2475  143.2607  160.8244 H   0  0  0  0  0  0  0  0  0  0  0  0
  151.8503  141.7065  162.0314 H   0  0  0  0  0  0  0  0  0  0  0  0
  153.0627  142.7550  162.9327 H   0  0  0  0  0  0  0  0  0  0  0  0
  152.3682  144.7367  161.5623 H   0  0  0  0  0  0  0  0  0  0  0  0
  151.1565  143.6883  160.6601 H   0  0  0  0  0  0  0  0  0  0  0  0
  153.0662  138.9518  154.8266 H   0  0  0  0  0  0  0  0  0  0  0  0
  153.1375  139.0340  156.5743 H   0  0  0  0  0  0  0  0  0  0  0  0
  150.8274  137.5131  155.3226 H   0  0  0  0  0  0  0  0  0  0  0  0
  152.4099  136.7504  155.3257 H   0  0  0  0  0  0  0  0  0  0  0  0
  1  2  1  0  0  0  0
  1 18  1  0  0  0  0
  1 19  1  0  0  0  0
  1 20  1  0  0  0  0
  2 17  2  0  0  0  0
  2  3  1  0  0  0  0
  3  4  2  0  0  0  0
  3 21  1  0  0  0  0
  4  5  1  0  0  0  0
  4 12  1  0  0  0  0
  5  6  1  0  0  0  0
  5 22  1  0  0  0  0
  6  7  2  0  0  0  0
  6  8  1  0  0  0  0
  8  9  1  0  0  0  0
  8 23  1  0  0  0  0
  9 11  1  0  0  0  0
  9 10  1  0  0  0  0
  9 24  1  0  0  0  0
 10 11  1  0  0  0  0
 10 25  1  0  0  0  0
 10 26  1  0  0  0  0
 11 27  1  0  0  0  0
 11 28  1  0  0  0  0
 12 13  1  0  0  0  0
 12 17  1  0  0  0  0
 13 14  1  0  0  0  0
 13 29  1  0  0  0  0
 13 30  1  0  0  0  0
 14 15  1  0  0  0  0
 14 31  1  0  0  0  0
 14 32  1  0  0  0  0
 15 16  3  0  0  0  0
M  END
> <s_m_source_file>
AV-unprocessed.smi

> <i_m_source_file_index>
1171

> <i_lp_mmshare_version>
43012

> <i_f3d_flags>
0

> <s_epik_input>
TiNDW0NIMl1bQ0gyXW4objEpYyhbY0hdYzFbQ0gzXSlbTkhdQyg9TylbTkhdW0NIXTJbQ0gyXVtDSDJdMg==

> <s_epik_cmdline>
J2VwaWtfcHl0aG9uJywgJy1waCcsICc3LjAnLCAnLXRuJywgJzgnLCAnLW1hJywgJzIwMCcsICctbWV0YWxfYmluZGluZycsICctaW1hZScsICc8aW5maWxlLm1hZT4nLCAnLW9tYWUnLCAnPG91dGZpbGUubWFlPic=

> <r_lp_tautomer_probability>
1

> <r_epik_Ionization_Penalty>
3.70036e-05

> <r_epik_Ionization_Penalty_Charging>
0

> <r_epik_Ionization_Penalty_Neutral>
3.70036e-05

> <r_epik_State_Penalty>
-0

> <r_epik_Charging_Adjusted_Penalty>
0

> <i_epik_Tot_Q>
0

> <i_epik_Tot_abs_Q>
0

> <r_epik_Metal_State_Penalty>
-0

> <b_epik_Metal_Only>
0

> <s_lp_Force_Field>
OPLS_2005

> <r_lp_Energy>
27.1595

> <b_lp_Chiralities_Consistent>
1

> <s_lp_Variant>
AV-unprocessed.smi:1171-1

> <Gold.Version>
5.8.1

> <Gold.Id.Protein>
6NUR|6NUR_protein|mol2

> <Gold.PLP.Fitness>
36.6763

> <Gold.PLP.PLP>
-35.0213

> <Gold.PLP.part.hbond>
-1.9396

> <Gold.PLP.part.metal>
0.0000

> <Gold.PLP.part.buried>
-3.3879

> <Gold.PLP.part.nonpolar>
-29.1900

> <Gold.PLP.part.repulsive>
0.2881

> <Gold.PLP.ligand.clash>
0.0000

> <Gold.PLP.ligand.torsion>
0.5393

> <Gold.PLP.Chemscore.Hbond>
0.8958

> <Gold.PLP.Chemscore.CHOScore>
0.0000

> <Gold.PLP.Chemscore.Metal>
0.0000

> <Gold.Chemscore.Hbonds>
donor molecule, donor type, donor heavy atom, donor atom, acceptor molecule, acceptor atom, score
      P1  H  6896  6907       L1    16  0.26
      P1  H  7989  7998       L1    17  0.60

> <Gold.PLP.Chemscore.Internal.Correction>
0.0461

> <Gold.Rescore>
     Score         DG    S(hbond)    S(metal)    S(lipo)     H(rot)  DE(clash)    DE(int)     intcor
      9.71     -12.71       0.95        0.00      69.80       1.61       0.02       2.98       ----

> <Gold.Chemscore.Fitness>
9.7098

> <Gold.Chemscore.DG>
-12.7132

> <Gold.Chemscore.ZeroCoef>
-5.4800

> <Gold.Chemscore.Hbond>
0.9511

> <Gold.Chemscore.Metal>
0.0000

> <Gold.Chemscore.Lipo>
69.8028

> <Gold.Chemscore.Internal_Hbond>
0.0000

> <Gold.Chemscore.DEClash>
0.0194

> <Gold.Chemscore.DEInternal>
2.9839

> <Gold.Chemscore.Rot>
1.6056

> <Gold.Chemscore.Internal.Correction>
   9.000000E+99

> <Gold.Chemscore.Hbonds>
donor molecule, donor type, donor heavy atom, donor atom, acceptor molecule, acceptor atom, score
      P1  H  6896  6907       L1    16  0.26
      P1  H  7989  7998       L1    17  0.01

> <Gold.Chemscore.Hbond.Weighted>
-3.1765

> <Gold.Chemscore.Metal.Weighted>
-0.0000

> <Gold.Chemscore.Lipo.Weighted>
-8.1669

> <Gold.Chemscore.Internal_Hbond.Weighted>
0.0000

> <Gold.Chemscore.DEClash.Weighted>
0.0194

> <Gold.Chemscore.DEInternal.Weighted>
2.9839

> <Gold.Chemscore.Rot.Weighted>
4.1102

> <Gold.Chemscore.Internal.Correction.Weighted>
   9.000000E+99

> <Gold.Protein.RotatedTorsions>
[ 6907 6896 6895 6894 ] final  -31.14 input  -60.11 | X-H torsion
[ 7974 7965 7964 7962 ] final   33.01 input  175.53 | X-H torsion
[ 8008 7997 7996 7995 ] final   39.91 input   59.86 | X-H torsion
[ 10167 10162 10161 10158 ] final   23.00 input  -65.29 | X-H torsion
[ 10718 10713 10712 10709 ] final -156.73 input   66.30 | X-H torsion
[ 10763 10752 10751 10750 ] final  115.62 input  -60.55 | X-H torsion
[ 11005 11000 10999 10996 ] final    3.61 input  -57.11 | X-H torsion

> <Gold.Protein.ActiveResidues>
 VAL166  LYS551  ARG553  GLY616  TRP617  ASP618  TYR619  PRO620  LYS621  CYS622 
 ASP623  PHE694  ASN695  SER759  ASP760  ASP761  ALA762  ILE779  LEU786  VAL792 
 PHE793  MET794  SER795  GLU796  ALA797  LYS798  CYS799  TRP800  GLU811  SER814 

> <Gold.Protein.RotatedAtoms>
  151.0961  134.9945  159.8425 H   0  0  0  0  0  0  0  0  0  0  0  0  # atno 6907 bound_to 6896
  152.5433  134.2007  159.8721 H   0  0  0  0  0  0  0  0  0  0  0  0  # atno 6908 bound_to 6896
  151.2046  133.4547  159.2630 H   0  0  0  0  0  0  0  0  0  0  0  0  # atno 6909 bound_to 6896
  146.1449  139.6451  142.9138 H   0  0  0  0  0  0  0  0  0  0  0  0  # atno 7974 bound_to 7965
  155.2444  140.3348  155.4289 H   0  0  0  0  0  0  0  0  0  0  0  0  # atno 8008 bound_to 7997
  156.2242  140.1822  156.7448 H   0  0  0  0  0  0  0  0  0  0  0  0  # atno 8009 bound_to 7997
  154.5873  140.0644  156.9174 H   0  0  0  0  0  0  0  0  0  0  0  0  # atno 8010 bound_to 7997
  140.5304  143.9852  150.6462 H   0  0  0  0  0  0  0  0  0  0  0  0  # atno 10167 bound_to 10162
  156.5305  130.8519  151.2714 H   0  0  0  0  0  0  0  0  0  0  0  0  # atno 10718 bound_to 10713
  153.5249  135.3590  155.2649 H   0  0  0  0  0  0  0  0  0  0  0  0  # atno 10763 bound_to 10752
  154.8732  135.4054  154.3218 H   0  0  0  0  0  0  0  0  0  0  0  0  # atno 10764 bound_to 10752
  153.3895  135.7071  153.6572 H   0  0  0  0  0  0  0  0  0  0  0  0  # atno 10765 bound_to 10752
  140.5912  133.9922  155.8089 H   0  0  0  0  0  0  0  0  0  0  0  0  # atno 11005 bound_to 11000
  145.4962  141.0438  143.2566 LP  0  0  0  0  0  0  0  0  0  0  0  0  # atno 17320 bound_to 7965
  144.7834  139.6477  143.7144 LP  0  0  0  0  0  0  0  0  0  0  0  0  # atno 17321 bound_to 7965
  140.3225  143.3128  152.0770 LP  0  0  0  0  0  0  0  0  0  0  0  0  # atno 17342 bound_to 10162
  139.4952  144.6564  151.6563 LP  0  0  0  0  0  0  0  0  0  0  0  0  # atno 17343 bound_to 10162
  157.7422  130.9886  150.2502 LP  0  0  0  0  0  0  0  0  0  0  0  0  # atno 17370 bound_to 10713
  156.3064  130.3765  149.7702 LP  0  0  0  0  0  0  0  0  0  0  0  0  # atno 17371 bound_to 10713
  141.0934  133.9882  157.3200 LP  0  0  0  0  0  0  0  0  0  0  0  0  # atno 17394 bound_to 11000
  139.9273  135.0201  156.8280 LP  0  0  0  0  0  0  0  0  0  0  0  0  # atno 17395 bound_to 11000

$$$$
