AV-unprocessed.smi:2463|AV-procd|sdf|9720|dock2
  -GOLD-   2272013363D 1   1.00000     0.00000
 Structure written by MMmdl.
 47 48  0  0  0  0  0  0  0  0  1 V2000
  145.9001  143.2256  153.5068 C   0  0  0  0  0  0  0  0  0  0  0  0
  145.2229  142.9903  154.8613 C   0  0  0  0  0  0  0  0  0  0  0  0
  145.8773  141.8485  155.6533 C   0  0  0  0  0  0  0  0  0  0  0  0
  146.5035  140.8769  154.7778 N   0  0  0  0  0  0  0  0  0  0  0  0
  145.9582  139.7183  154.2616 C   0  0  0  0  0  0  0  0  0  0  0  0
  146.9433  139.1532  153.5021 C   0  0  0  0  0  0  0  0  0  0  0  0
  146.9195  137.9552  152.7446 N   0  0  0  0  0  0  0  0  0  0  0  0
  145.8424  137.2331  152.3957 C   0  0  0  0  0  0  0  0  0  0  0  0
  144.6808  137.5013  152.7025 O   0  0  0  0  0  0  0  0  0  0  0  0
  146.1898  136.1645  151.6657 N   0  0  0  0  0  0  0  0  0  0  0  0
  145.2611  135.1621  151.1473 C   0  0  1  0  0  0  0  0  0  0  0  0
  145.9921  133.9462  150.6135 C   0  0  0  0  0  0  0  0  0  0  0  0
  144.9315  132.8411  150.6923 C   0  0  0  0  0  0  0  0  0  0  0  0
  144.1002  132.7488  149.4010 C   0  0  0  0  0  0  0  0  0  0  0  0
  145.5370  131.4766  151.0551 C   0  0  0  0  0  0  0  0  0  0  0  0
  144.0466  133.2377  151.7393 O   0  0  0  0  0  0  0  0  0  0  0  0
  144.3378  134.5487  152.2221 C   0  0  0  0  0  0  0  0  0  0  0  0
  145.0015  134.3690  153.6036 C   0  0  0  0  0  0  0  0  0  0  0  0
  143.0090  135.3094  152.3533 C   0  0  0  0  0  0  0  0  0  0  0  0
  148.0588  140.0242  153.6041 C   0  0  0  0  0  0  0  0  0  0  0  0
  147.7859  141.0634  154.3785 N   0  0  0  0  0  0  0  0  0  0  0  0
  145.4152  144.0390  152.9662 H   0  0  0  0  0  0  0  0  0  0  0  0
  145.8507  142.3338  152.8811 H   0  0  0  0  0  0  0  0  0  0  0  0
  146.9504  143.4900  153.6332 H   0  0  0  0  0  0  0  0  0  0  0  0
  145.2588  143.9112  155.4448 H   0  0  0  0  0  0  0  0  0  0  0  0
  144.1672  142.7670  154.7015 H   0  0  0  0  0  0  0  0  0  0  0  0
  146.6363  142.2431  156.3302 H   0  0  0  0  0  0  0  0  0  0  0  0
  145.1368  141.3379  156.2710 H   0  0  0  0  0  0  0  0  0  0  0  0
  144.9448  139.4152  154.4790 H   0  0  0  0  0  0  0  0  0  0  0  0
  147.8172  137.6133  152.4343 H   0  0  0  0  0  0  0  0  0  0  0  0
  147.1686  136.0237  151.4632 H   0  0  0  0  0  0  0  0  0  0  0  0
  144.6647  135.5805  150.3341 H   0  0  0  0  0  0  0  0  0  0  0  0
  146.3831  134.0952  149.6062 H   0  0  0  0  0  0  0  0  0  0  0  0
  146.8380  133.7064  151.2597 H   0  0  0  0  0  0  0  0  0  0  0  0
  144.7215  132.4649  148.5512 H   0  0  0  0  0  0  0  0  0  0  0  0
  143.6257  133.7007  149.1607 H   0  0  0  0  0  0  0  0  0  0  0  0
  143.3090  132.0046  149.4955 H   0  0  0  0  0  0  0  0  0  0  0  0
  146.2398  131.1414  150.2918 H   0  0  0  0  0  0  0  0  0  0  0  0
  144.7622  130.7154  151.1517 H   0  0  0  0  0  0  0  0  0  0  0  0
  146.0723  131.5206  152.0041 H   0  0  0  0  0  0  0  0  0  0  0  0
  145.2215  135.3288  154.0719 H   0  0  0  0  0  0  0  0  0  0  0  0
  145.9351  133.8106  153.5328 H   0  0  0  0  0  0  0  0  0  0  0  0
  144.3463  133.8210  154.2813 H   0  0  0  0  0  0  0  0  0  0  0  0
  143.1675  136.3224  152.7232 H   0  0  0  0  0  0  0  0  0  0  0  0
  142.3344  134.8059  153.0463 H   0  0  0  0  0  0  0  0  0  0  0  0
  142.4978  135.3816  151.3929 H   0  0  0  0  0  0  0  0  0  0  0  0
  149.0362  139.9396  153.1527 H   0  0  0  0  0  0  0  0  0  0  0  0
  1  2  1  0  0  0  0
  1 22  1  0  0  0  0
  1 23  1  0  0  0  0
  1 24  1  0  0  0  0
  2  3  1  0  0  0  0
  2 25  1  0  0  0  0
  2 26  1  0  0  0  0
  3  4  1  0  0  0  0
  3 27  1  0  0  0  0
  3 28  1  0  0  0  0
  4 21  1  0  0  0  0
  4  5  1  0  0  0  0
  5  6  2  0  0  0  0
  5 29  1  0  0  0  0
  6  7  1  0  0  0  0
  6 20  1  0  0  0  0
  7  8  1  0  0  0  0
  7 30  1  0  0  0  0
  8  9  2  0  0  0  0
  8 10  1  0  0  0  0
 10 11  1  0  0  0  0
 10 31  1  0  0  0  0
 11 17  1  0  0  0  0
 11 12  1  0  0  0  0
 11 32  1  0  0  0  0
 12 13  1  0  0  0  0
 12 33  1  0  0  0  0
 12 34  1  0  0  0  0
 13 14  1  0  0  0  0
 13 15  1  0  0  0  0
 13 16  1  0  0  0  0
 14 35  1  0  0  0  0
 14 36  1  0  0  0  0
 14 37  1  0  0  0  0
 15 38  1  0  0  0  0
 15 39  1  0  0  0  0
 15 40  1  0  0  0  0
 16 17  1  0  0  0  0
 17 18  1  0  0  0  0
 17 19  1  0  0  0  0
 18 41  1  0  0  0  0
 18 42  1  0  0  0  0
 18 43  1  0  0  0  0
 19 44  1  0  0  0  0
 19 45  1  0  0  0  0
 19 46  1  0  0  0  0
 20 21  2  0  0  0  0
 20 47  1  0  0  0  0
M  END
> <s_m_source_file>
AV-unprocessed.smi

> <i_m_source_file_index>
2463

> <i_lp_mmshare_version>
43012

> <i_f3d_flags>
0

> <s_epik_input>
W0NIM11bQ0gyXVtDSDJdbjFbY0hdYyhbY0hdbjEpW05IXUMoPU8pW05IXVtDQEBIXShDKE8yKShbQ0gzXSlbQ0gzXSlbQ0gyXUMyKFtDSDNdKVtDSDNd

> <s_epik_cmdline>
J2VwaWtfcHl0aG9uJywgJy1waCcsICc3LjAnLCAnLXRuJywgJzgnLCAnLW1hJywgJzIwMCcsICctbWV0YWxfYmluZGluZycsICctaW1hZScsICc8aW5maWxlLm1hZT4nLCAnLW9tYWUnLCAnPG91dGZpbGUubWFlPic=

> <r_lp_tautomer_probability>
1

> <r_epik_Ionization_Penalty>
3.69628e-05

> <r_epik_Ionization_Penalty_Charging>
0

> <r_epik_Ionization_Penalty_Neutral>
3.69628e-05

> <r_epik_State_Penalty>
-0

> <r_epik_Charging_Adjusted_Penalty>
0

> <i_epik_Tot_Q>
0

> <i_epik_Tot_abs_Q>
0

> <r_epik_Metal_State_Penalty>
-0

> <b_epik_Metal_Only>
0

> <s_lp_Force_Field>
OPLS_2005

> <r_lp_Energy>
21.7925

> <b_lp_Chiralities_Consistent>
1

> <s_lp_Variant>
AV-unprocessed.smi:2463-2

> <Gold.Version>
5.8.1

> <Gold.Id.Protein>
6NUR|6NUR_protein|mol2

> <Gold.PLP.Fitness>
41.0148

> <Gold.PLP.PLP>
-32.2905

> <Gold.PLP.part.hbond>
-2.0000

> <Gold.PLP.part.metal>
0.0000

> <Gold.PLP.part.buried>
-3.2421

> <Gold.PLP.part.nonpolar>
-27.3007

> <Gold.PLP.part.repulsive>
0.6875

> <Gold.PLP.ligand.clash>
0.0000

> <Gold.PLP.ligand.torsion>
0.7122

> <Gold.PLP.Chemscore.Hbond>
2.0000

> <Gold.PLP.Chemscore.CHOScore>
1.3754

> <Gold.PLP.Chemscore.Metal>
0.0000

> <Gold.Chemscore.Hbonds>
donor molecule, donor type, donor heavy atom, donor atom, acceptor molecule, acceptor atom, score
      L1  H     7    30       P1  7948  1.00
      L1  H    10    31       P1  7948  1.00
      L1  C     5    29       P1 10175  0.36
      L1  C    20    47       P1  7957  1.00

> <Gold.PLP.Chemscore.Internal.Correction>
0.0226

> <Gold.Rescore>
     Score         DG    S(hbond)    S(metal)    S(lipo)     H(rot)  DE(clash)    DE(int)     intcor
     13.92     -18.09       1.96        0.00      79.99       1.29       0.08       4.10       ----

> <Gold.Chemscore.Fitness>
13.9155

> <Gold.Chemscore.DG>
-18.0943

> <Gold.Chemscore.ZeroCoef>
-5.4800

> <Gold.Chemscore.Hbond>
1.9604

> <Gold.Chemscore.Metal>
0.0000

> <Gold.Chemscore.Lipo>
79.9873

> <Gold.Chemscore.Internal_Hbond>
0.0000

> <Gold.Chemscore.DEClash>
0.0787

> <Gold.Chemscore.DEInternal>
4.1001

> <Gold.Chemscore.Rot>
1.2859

> <Gold.Chemscore.Internal.Correction>
   9.000000E+99

> <Gold.Chemscore.Hbonds>
donor molecule, donor type, donor heavy atom, donor atom, acceptor molecule, acceptor atom, score
      L1  H     7    30       P1  7948  0.96
      L1  H    10    31       P1  7948  0.98

> <Gold.Chemscore.Hbond.Weighted>
-6.5478

> <Gold.Chemscore.Metal.Weighted>
-0.0000

> <Gold.Chemscore.Lipo.Weighted>
-9.3585

> <Gold.Chemscore.Internal_Hbond.Weighted>
0.0000

> <Gold.Chemscore.DEClash.Weighted>
0.0787

> <Gold.Chemscore.DEInternal.Weighted>
4.1001

> <Gold.Chemscore.Rot.Weighted>
3.2919

> <Gold.Chemscore.Internal.Correction.Weighted>
   9.000000E+99

> <Gold.Protein.RotatedTorsions>
[ 6907 6896 6895 6894 ] final  118.87 input  -60.11 | X-H torsion
[ 7974 7965 7964 7962 ] final   35.32 input  175.53 | X-H torsion
[ 8008 7997 7996 7995 ] final   32.56 input   59.86 | X-H torsion
[ 10167 10162 10161 10158 ] final -144.07 input  -65.29 | X-H torsion
[ 10718 10713 10712 10709 ] final  -25.18 input   66.30 | X-H torsion
[ 10763 10752 10751 10750 ] final  -84.99 input  -60.55 | X-H torsion
[ 11005 11000 10999 10996 ] final   78.65 input  -57.11 | X-H torsion

> <Gold.Protein.ActiveResidues>
 VAL166  LYS551  ARG553  GLY616  TRP617  ASP618  TYR619  PRO620  LYS621  CYS622 
 ASP623  PHE694  ASN695  SER759  ASP760  ASP761  ALA762  ILE779  LEU786  VAL792 
 PHE793  MET794  SER795  GLU796  ALA797  LYS798  CYS799  TRP800  GLU811  SER814 

> <Gold.Protein.RotatedAtoms>
  152.4512  133.7633  159.6758 H   0  0  0  0  0  0  0  0  0  0  0  0  # atno 6907 bound_to 6896
  150.8425  133.7904  159.3062 H   0  0  0  0  0  0  0  0  0  0  0  0  # atno 6908 bound_to 6896
  151.5524  135.1070  160.0005 H   0  0  0  0  0  0  0  0  0  0  0  0  # atno 6909 bound_to 6896
  146.1291  139.6158  142.9238 H   0  0  0  0  0  0  0  0  0  0  0  0  # atno 7974 bound_to 7965
  155.1245  140.3251  155.4489 H   0  0  0  0  0  0  0  0  0  0  0  0  # atno 8008 bound_to 7997
  156.2653  140.2021  156.6314 H   0  0  0  0  0  0  0  0  0  0  0  0  # atno 8009 bound_to 7997
  154.6659  140.0542  157.0100 H   0  0  0  0  0  0  0  0  0  0  0  0  # atno 8010 bound_to 7997
  139.7934  143.7935  152.2652 H   0  0  0  0  0  0  0  0  0  0  0  0  # atno 10167 bound_to 10162
  156.4678  130.4517  149.6888 H   0  0  0  0  0  0  0  0  0  0  0  0  # atno 10718 bound_to 10713
  154.6060  135.5501  153.7423 H   0  0  0  0  0  0  0  0  0  0  0  0  # atno 10763 bound_to 10752
  153.0174  135.6378  154.1647 H   0  0  0  0  0  0  0  0  0  0  0  0  # atno 10764 bound_to 10752
  154.1586  135.2898  155.3095 H   0  0  0  0  0  0  0  0  0  0  0  0  # atno 10765 bound_to 10752
  139.9204  134.7780  156.1676 H   0  0  0  0  0  0  0  0  0  0  0  0  # atno 11005 bound_to 11000
  145.5299  141.0427  143.2388 LP  0  0  0  0  0  0  0  0  0  0  0  0  # atno 17320 bound_to 7965
  144.7672  139.6817  143.7210 LP  0  0  0  0  0  0  0  0  0  0  0  0  # atno 17321 bound_to 7965
  139.8033  144.7365  150.9796 LP  0  0  0  0  0  0  0  0  0  0  0  0  # atno 17342 bound_to 10162
  140.7820  143.4323  151.0675 LP  0  0  0  0  0  0  0  0  0  0  0  0  # atno 17343 bound_to 10162
  156.3650  130.7501  151.2478 LP  0  0  0  0  0  0  0  0  0  0  0  0  # atno 17370 bound_to 10713
  157.7493  131.0339  150.4294 LP  0  0  0  0  0  0  0  0  0  0  0  0  # atno 17371 bound_to 10713
  141.0720  133.6793  156.2159 LP  0  0  0  0  0  0  0  0  0  0  0  0  # atno 17394 bound_to 11000
  140.6492  134.5085  157.5576 LP  0  0  0  0  0  0  0  0  0  0  0  0  # atno 17395 bound_to 11000

$$$$
