AV-unprocessed.smi:1672|AV-procd|sdf|6703|dock9
  -GOLD-   22720 7443D 1   1.00000     0.00000
 Structure written by MMmdl.
 48 50  0  0  0  0  0  0  0  0  2 V2000
  146.8386  138.5606  156.3900 C   0  0  0  0  0  0  0  0  0  0  0  0
  147.0294  137.9000  155.0134 C   0  0  2  0  0  0  0  0  0  0  0  0
  147.8694  136.6115  155.0827 C   0  0  0  0  0  0  0  0  0  0  0  0
  149.3656  136.9020  155.2977 C   0  0  0  0  0  0  0  0  0  0  0  0
  149.8927  137.8120  154.2488 N   0  3  2  0  0  0  0  0  0  0  0  0
  151.3645  137.9907  154.3461 C   0  0  0  0  0  0  0  0  0  0  0  0
  151.7627  139.1107  155.3269 C   0  0  2  0  0  0  0  0  0  0  0  0
  153.1657  139.0776  155.5015 O   0  0  0  0  0  0  0  0  0  0  0  0
  151.0660  138.9455  156.6928 C   0  0  0  0  0  0  0  0  0  0  0  0
  151.7354  139.6774  157.7615 N   0  0  0  0  0  0  0  0  0  0  0  0
  152.4396  139.1799  158.8110 C   0  0  0  0  0  0  0  0  0  0  0  0
  152.6558  137.7105  159.0165 C   0  0  0  0  0  0  0  0  0  0  0  0
  151.8420  137.1659  160.0331 O   0  0  0  0  0  0  0  0  0  0  0  0
  152.9424  140.0842  159.6517 N   0  0  0  0  0  0  0  0  0  0  0  0
  152.5386  141.2802  159.0922 C   0  0  0  0  0  0  0  0  0  0  0  0
  152.7596  142.6114  159.5122 C   0  0  0  0  0  0  0  0  0  0  0  0
  152.2431  143.6905  158.7654 C   0  0  0  0  0  0  0  0  0  0  0  0
  151.5010  143.4543  157.5901 C   0  0  0  0  0  0  0  0  0  0  0  0
  151.2696  142.1357  157.1540 C   0  0  0  0  0  0  0  0  0  0  0  0
  151.7853  141.0616  157.9044 C   0  0  0  0  0  0  0  0  0  0  0  0
  149.1428  139.0960  154.2123 C   0  0  0  0  0  0  0  0  0  0  0  0
  147.6415  138.8553  153.9726 C   0  0  0  0  0  0  0  0  0  0  0  0
  147.7839  138.8713  156.8335 H   0  0  0  0  0  0  0  0  0  0  0  0
  146.3576  137.8744  157.0877 H   0  0  0  0  0  0  0  0  0  0  0  0
  146.2042  139.4442  156.3135 H   0  0  0  0  0  0  0  0  0  0  0  0
  146.0334  137.6256  154.6629 H   0  0  0  0  0  0  0  0  0  0  0  0
  147.4973  135.9582  155.8729 H   0  0  0  0  0  0  0  0  0  0  0  0
  147.7487  136.0565  154.1512 H   0  0  0  0  0  0  0  0  0  0  0  0
  149.5361  137.3389  156.2825 H   0  0  0  0  0  0  0  0  0  0  0  0
  149.9134  135.9591  155.2740 H   0  0  0  0  0  0  0  0  0  0  0  0
  151.8218  137.0437  154.6365 H   0  0  0  0  0  0  0  0  0  0  0  0
  151.7728  138.2349  153.3638 H   0  0  0  0  0  0  0  0  0  0  0  0
  151.5017  140.0838  154.9159 H   0  0  0  0  0  0  0  0  0  0  0  0
  153.4880  138.2489  155.1792 H   0  0  0  0  0  0  0  0  0  0  0  0
  150.0303  139.2783  156.6293 H   0  0  0  0  0  0  0  0  0  0  0  0
  151.0227  137.8914  156.9706 H   0  0  0  0  0  0  0  0  0  0  0  0
  152.4817  137.1778  158.0817 H   0  0  0  0  0  0  0  0  0  0  0  0
  153.6990  137.5352  159.2824 H   0  0  0  0  0  0  0  0  0  0  0  0
  151.0399  137.6644  160.0716 H   0  0  0  0  0  0  0  0  0  0  0  0
  153.3283  142.8032  160.4100 H   0  0  0  0  0  0  0  0  0  0  0  0
  152.4184  144.7040  159.0950 H   0  0  0  0  0  0  0  0  0  0  0  0
  151.1097  144.2867  157.0234 H   0  0  0  0  0  0  0  0  0  0  0  0
  150.7010  141.9536  156.2542 H   0  0  0  0  0  0  0  0  0  0  0  0
  149.2974  139.6380  155.1460 H   0  0  0  0  0  0  0  0  0  0  0  0
  149.5225  139.7362  153.4172 H   0  0  0  0  0  0  0  0  0  0  0  0
  147.5073  138.4310  152.9765 H   0  0  0  0  0  0  0  0  0  0  0  0
  147.1055  139.8052  153.9698 H   0  0  0  0  0  0  0  0  0  0  0  0
  149.7265  137.3476  153.3669 H   0  0  0  0  0  0  0  0  0  0  0  0
  1  2  1  0  0  0  0
  1 23  1  0  0  0  0
  1 24  1  0  0  0  0
  1 25  1  0  0  0  0
  2 22  1  0  0  0  0
  2  3  1  0  0  0  0
  2 26  1  0  0  0  0
  3  4  1  0  0  0  0
  3 27  1  0  0  0  0
  3 28  1  0  0  0  0
  4  5  1  0  0  0  0
  4 29  1  0  0  0  0
  4 30  1  0  0  0  0
  5  6  1  0  0  0  0
  5 21  1  0  0  0  0
  5 48  1  0  0  0  0
  6  7  1  0  0  0  0
  6 31  1  0  0  0  0
  6 32  1  0  0  0  0
  7  8  1  0  0  0  0
  7  9  1  0  0  0  0
  7 33  1  0  0  0  0
  8 34  1  0  0  0  0
  9 10  1  0  0  0  0
  9 35  1  0  0  0  0
  9 36  1  0  0  0  0
 10 20  1  0  0  0  0
 10 11  1  0  0  0  0
 11 12  1  0  0  0  0
 11 14  2  0  0  0  0
 12 13  1  0  0  0  0
 12 37  1  0  0  0  0
 12 38  1  0  0  0  0
 13 39  1  0  0  0  0
 14 15  1  0  0  0  0
 15 20  2  0  0  0  0
 15 16  1  0  0  0  0
 16 17  2  0  0  0  0
 16 40  1  0  0  0  0
 17 18  1  0  0  0  0
 17 41  1  0  0  0  0
 18 19  2  0  0  0  0
 18 42  1  0  0  0  0
 19 20  1  0  0  0  0
 19 43  1  0  0  0  0
 21 22  1  0  0  0  0
 21 44  1  0  0  0  0
 21 45  1  0  0  0  0
 22 46  1  0  0  0  0
 22 47  1  0  0  0  0
M  CHG  1   5   1
M  END
> <s_m_source_file>
AV-unprocessed.smi

> <i_m_source_file_index>
1672

> <i_lp_mmshare_version>
43012

> <i_f3d_flags>
0

> <s_epik_input>
W0NIM11bQ0hdMVtDSDJdW0NIMl1OKFtDSDJdW0NIMl0xKVtDSDJdW0NASF0oW09IXSlbQ0gyXW4oYyhuMilbQ0gyXVtPSF0pYyhjMjMpW2NIXVtjSF1bY0hdW2NIXTM=

> <s_epik_cmdline>
J2VwaWtfcHl0aG9uJywgJy1waCcsICc3LjAnLCAnLXRuJywgJzgnLCAnLW1hJywgJzIwMCcsICctbWV0YWxfYmluZGluZycsICctaW1hZScsICc8aW5maWxlLm1hZT4nLCAnLW9tYWUnLCAnPG91dGZpbGUubWFlPic=

> <r_epik_Ionization_Penalty>
0.0498263

> <r_epik_Ionization_Penalty_Charging>
0.00181365

> <r_epik_Ionization_Penalty_Neutral>
0.0480127

> <r_epik_State_Penalty>
0.0408546

> <r_epik_Charging_Adjusted_Penalty>
0.0426682

> <i_epik_Tot_Q>
1

> <i_epik_Tot_abs_Q>
1

> <r_epik_Metal_State_Penalty>
4.22946e-05

> <b_epik_Metal_Only>
0

> <s_lp_Force_Field>
OPLS_2005

> <r_lp_Energy>
23.4925

> <b_lp_Chiralities_Consistent>
1

> <s_lp_Variant>
AV-unprocessed.smi:1672-3

> <Gold.Version>
5.8.1

> <Gold.Id.Protein>
6NUR|6NUR_protein|mol2

> <Gold.PLP.Fitness>
48.0615

> <Gold.PLP.PLP>
-37.5346

> <Gold.PLP.part.hbond>
-2.9767

> <Gold.PLP.part.metal>
0.0000

> <Gold.PLP.part.buried>
-5.7539

> <Gold.PLP.part.nonpolar>
-28.8912

> <Gold.PLP.part.repulsive>
0.0511

> <Gold.PLP.ligand.clash>
0.0000

> <Gold.PLP.ligand.torsion>
0.7541

> <Gold.PLP.Chemscore.Hbond>
4.0000

> <Gold.PLP.Chemscore.CHOScore>
0.0000

> <Gold.PLP.Chemscore.Metal>
0.0000

> <Gold.Chemscore.Hbonds>
donor molecule, donor type, donor heavy atom, donor atom, acceptor molecule, acceptor atom, score
      L1  H     5    48       P1  7948  2.00
      P1  H  6896  6908       L1    13  1.00
      P1  H  7997  8009       L1     8  0.93

> <Gold.PLP.Chemscore.Internal.Correction>
0.0351

> <Gold.Rescore>
     Score         DG    S(hbond)    S(metal)    S(lipo)     H(rot)  DE(clash)    DE(int)     intcor
     18.58     -19.43       2.79        0.00     102.64       2.88       0.13       0.72       ----

> <Gold.Chemscore.Fitness>
18.5796

> <Gold.Chemscore.DG>
-19.4329

> <Gold.Chemscore.ZeroCoef>
-5.4800

> <Gold.Chemscore.Hbond>
2.7878

> <Gold.Chemscore.Metal>
0.0000

> <Gold.Chemscore.Lipo>
102.6375

> <Gold.Chemscore.Internal_Hbond>
0.0000

> <Gold.Chemscore.DEClash>
0.1302

> <Gold.Chemscore.DEInternal>
0.7231

> <Gold.Chemscore.Rot>
2.8778

> <Gold.Chemscore.Internal.Correction>
   9.000000E+99

> <Gold.Chemscore.Hbonds>
donor molecule, donor type, donor heavy atom, donor atom, acceptor molecule, acceptor atom, score
      L1  H     5    48       P1  7948  0.68
      P1  H  6896  6908       L1    13  0.82
      P1  H  7997  8009       L1     8  0.67

> <Gold.Chemscore.Hbond.Weighted>
-9.3114

> <Gold.Chemscore.Metal.Weighted>
-0.0000

> <Gold.Chemscore.Lipo.Weighted>
-12.0086

> <Gold.Chemscore.Internal_Hbond.Weighted>
0.0000

> <Gold.Chemscore.DEClash.Weighted>
0.1302

> <Gold.Chemscore.DEInternal.Weighted>
0.7231

> <Gold.Chemscore.Rot.Weighted>
7.3671

> <Gold.Chemscore.Internal.Correction.Weighted>
   9.000000E+99

> <Gold.Protein.RotatedTorsions>
[ 6907 6896 6895 6894 ] final -114.15 input  -60.11 | X-H torsion
[ 7974 7965 7964 7962 ] final   25.14 input  175.53 | X-H torsion
[ 8008 7997 7996 7995 ] final -126.25 input   59.86 | X-H torsion
[ 10167 10162 10161 10158 ] final -136.79 input  -65.29 | X-H torsion
[ 10718 10713 10712 10709 ] final  117.67 input   66.30 | X-H torsion
[ 10763 10752 10751 10750 ] final  165.02 input  -60.55 | X-H torsion
[ 11005 11000 10999 10996 ] final -103.12 input  -57.11 | X-H torsion

> <Gold.Protein.ActiveResidues>
 VAL166  LYS551  ARG553  GLY616  TRP617  ASP618  TYR619  PRO620  LYS621  CYS622 
 ASP623  PHE694  ASN695  SER759  ASP760  ASP761  ALA762  ILE779  LEU786  VAL792 
 PHE793  MET794  SER795  GLU796  ALA797  LYS798  CYS799  TRP800  GLU811  SER814 

> <Gold.Protein.RotatedAtoms>
  150.7881  133.8843  159.3294 H   0  0  0  0  0  0  0  0  0  0  0  0  # atno 6907 bound_to 6896
  151.6688  135.0977  160.0203 H   0  0  0  0  0  0  0  0  0  0  0  0  # atno 6908 bound_to 6896
  152.3949  133.6693  159.6303 H   0  0  0  0  0  0  0  0  0  0  0  0  # atno 6909 bound_to 6896
  146.1903  139.7507  142.8836 H   0  0  0  0  0  0  0  0  0  0  0  0  # atno 7974 bound_to 7965
  155.2266  140.0424  157.2956 H   0  0  0  0  0  0  0  0  0  0  0  0  # atno 8008 bound_to 7997
  154.5915  140.2428  155.7885 H   0  0  0  0  0  0  0  0  0  0  0  0  # atno 8009 bound_to 7997
  156.2262  140.2953  156.0082 H   0  0  0  0  0  0  0  0  0  0  0  0  # atno 8010 bound_to 7997
  139.8642  143.7038  152.2647 H   0  0  0  0  0  0  0  0  0  0  0  0  # atno 10167 bound_to 10162
  157.6081  131.1040  150.7648 H   0  0  0  0  0  0  0  0  0  0  0  0  # atno 10718 bound_to 10713
  154.3178  135.2756  155.2534 H   0  0  0  0  0  0  0  0  0  0  0  0  # atno 10763 bound_to 10752
  154.4901  135.5835  153.6456 H   0  0  0  0  0  0  0  0  0  0  0  0  # atno 10764 bound_to 10752
  152.9880  135.6132  154.3360 H   0  0  0  0  0  0  0  0  0  0  0  0  # atno 10765 bound_to 10752
  141.1159  133.8614  157.1446 H   0  0  0  0  0  0  0  0  0  0  0  0  # atno 11005 bound_to 11000
  145.3812  141.0358  143.3176 LP  0  0  0  0  0  0  0  0  0  0  0  0  # atno 17320 bound_to 7965
  144.8474  139.5375  143.6872 LP  0  0  0  0  0  0  0  0  0  0  0  0  # atno 17321 bound_to 7965
  139.7345  144.7574  151.0750 LP  0  0  0  0  0  0  0  0  0  0  0  0  # atno 17342 bound_to 10162
  140.7770  143.5048  150.9726 LP  0  0  0  0  0  0  0  0  0  0  0  0  # atno 17343 bound_to 10162
  156.8031  130.4928  149.5367 LP  0  0  0  0  0  0  0  0  0  0  0  0  # atno 17370 bound_to 10713
  156.1174  130.6085  151.0142 LP  0  0  0  0  0  0  0  0  0  0  0  0  # atno 17371 bound_to 10713
  140.0082  134.9999  157.0338 LP  0  0  0  0  0  0  0  0  0  0  0  0  # atno 17394 bound_to 11000
  140.4646  134.1449  155.7195 LP  0  0  0  0  0  0  0  0  0  0  0  0  # atno 17395 bound_to 11000

$$$$
