AV-unprocessed.smi:1893|AV-procd|sdf|7678|dock8
  -GOLD-   22720 9423D 1   1.00000     0.00000
 Structure written by MMmdl.
 43 44  0  0  0  0  0  0  0  0  2 V2000
  152.6488  140.6448  159.7345 C   0  0  0  0  0  0  0  0  0  0  0  0
  152.0425  142.0640  159.6990 C   0  0  1  0  0  0  0  0  0  0  0  0
  152.9618  143.0051  160.5105 C   0  0  0  0  0  0  0  0  0  0  0  0
  152.4437  144.4447  160.5301 C   0  0  0  0  0  0  0  0  0  0  0  0
  152.2663  144.9346  159.0939 C   0  0  0  0  0  0  0  0  0  0  0  0
  151.3351  143.9935  158.3184 C   0  0  0  0  0  0  0  0  0  0  0  0
  151.8371  142.5881  158.3075 N   0  3  2  0  0  0  0  0  0  0  0  0
  150.9936  141.7146  157.4406 C   0  0  0  0  0  0  0  0  0  0  0  0
  151.1391  142.0376  155.9424 C   0  0  0  0  0  0  0  0  0  0  0  0
  149.8303  142.1521  155.3146 N   0  0  0  0  0  0  0  0  0  0  0  0
  149.2863  141.2165  154.5216 C   0  0  0  0  0  0  0  0  0  0  0  0
  149.8601  140.1649  154.2360 O   0  0  0  0  0  0  0  0  0  0  0  0
  147.8804  141.5198  153.9807 C   0  0  1  0  0  0  0  0  0  0  0  0
  147.2834  140.3530  153.1720 C   0  0  0  0  0  0  0  0  0  0  0  0
  146.9961  141.9070  155.0713 N   0  0  0  0  0  0  0  0  0  0  0  0
  145.6767  142.1164  155.0976 C   0  0  0  0  0  0  0  0  0  0  0  0
  145.2098  142.4485  156.2930 N   0  0  0  0  0  0  0  0  0  0  0  0
  146.3740  142.4250  157.0072 C   0  0  0  0  0  0  0  0  0  0  0  0
  147.4723  142.1012  156.3244 N   0  0  0  0  0  0  0  0  0  0  0  0
  152.9551  140.3783  160.7466 H   0  0  0  0  0  0  0  0  0  0  0  0
  153.5304  140.5711  159.0968 H   0  0  0  0  0  0  0  0  0  0  0  0
  151.9383  139.8780  159.4287 H   0  0  0  0  0  0  0  0  0  0  0  0
  151.0694  142.0296  160.1920 H   0  0  0  0  0  0  0  0  0  0  0  0
  153.0544  142.6460  161.5363 H   0  0  0  0  0  0  0  0  0  0  0  0
  153.9683  142.9898  160.0891 H   0  0  0  0  0  0  0  0  0  0  0  0
  151.4929  144.4934  161.0626 H   0  0  0  0  0  0  0  0  0  0  0  0
  153.1392  145.0904  161.0671 H   0  0  0  0  0  0  0  0  0  0  0  0
  151.8592  145.9462  159.0936 H   0  0  0  0  0  0  0  0  0  0  0  0
  153.2359  144.9898  158.5966 H   0  0  0  0  0  0  0  0  0  0  0  0
  150.3350  144.0186  158.7543 H   0  0  0  0  0  0  0  0  0  0  0  0
  151.2429  144.3807  157.3057 H   0  0  0  0  0  0  0  0  0  0  0  0
  151.2742  140.6700  157.5512 H   0  0  0  0  0  0  0  0  0  0  0  0
  149.9503  141.7846  157.7529 H   0  0  0  0  0  0  0  0  0  0  0  0
  151.6661  142.9773  155.7806 H   0  0  0  0  0  0  0  0  0  0  0  0
  151.7147  141.2524  155.4492 H   0  0  0  0  0  0  0  0  0  0  0  0
  149.2959  142.9886  155.5010 H   0  0  0  0  0  0  0  0  0  0  0  0
  147.9731  142.3708  153.3030 H   0  0  0  0  0  0  0  0  0  0  0  0
  147.9330  140.0743  152.3414 H   0  0  0  0  0  0  0  0  0  0  0  0
  146.3162  140.6287  152.7510 H   0  0  0  0  0  0  0  0  0  0  0  0
  147.1325  139.4660  153.7889 H   0  0  0  0  0  0  0  0  0  0  0  0
  145.0456  142.0211  154.2259 H   0  0  0  0  0  0  0  0  0  0  0  0
  146.4130  142.6485  158.0633 H   0  0  0  0  0  0  0  0  0  0  0  0
  152.7531  142.6090  157.8825 H   0  0  0  0  0  0  0  0  0  0  0  0
  1  2  1  0  0  0  0
  1 20  1  0  0  0  0
  1 21  1  0  0  0  0
  1 22  1  0  0  0  0
  2  7  1  0  0  0  0
  2  3  1  0  0  0  0
  2 23  1  0  0  0  0
  3  4  1  0  0  0  0
  3 24  1  0  0  0  0
  3 25  1  0  0  0  0
  4  5  1  0  0  0  0
  4 26  1  0  0  0  0
  4 27  1  0  0  0  0
  5  6  1  0  0  0  0
  5 28  1  0  0  0  0
  5 29  1  0  0  0  0
  6  7  1  0  0  0  0
  6 30  1  0  0  0  0
  6 31  1  0  0  0  0
  7  8  1  0  0  0  0
  7 43  1  0  0  0  0
  8  9  1  0  0  0  0
  8 32  1  0  0  0  0
  8 33  1  0  0  0  0
  9 10  1  0  0  0  0
  9 34  1  0  0  0  0
  9 35  1  0  0  0  0
 10 11  1  0  0  0  0
 10 36  1  0  0  0  0
 11 12  2  0  0  0  0
 11 13  1  0  0  0  0
 13 14  1  0  0  0  0
 13 15  1  0  0  0  0
 13 37  1  0  0  0  0
 14 38  1  0  0  0  0
 14 39  1  0  0  0  0
 14 40  1  0  0  0  0
 15 19  1  0  0  0  0
 15 16  1  0  0  0  0
 16 17  2  0  0  0  0
 16 41  1  0  0  0  0
 17 18  1  0  0  0  0
 18 19  2  0  0  0  0
 18 42  1  0  0  0  0
M  CHG  1   7   1
M  END
> <s_m_source_file>
AV-unprocessed.smi

> <i_m_source_file_index>
1893

> <i_lp_mmshare_version>
43012

> <i_f3d_flags>
0

> <s_epik_input>
W0NIM11bQ0BASF0xW0NIMl1bQ0gyXVtDSDJdW0NIMl1OMVtDSDJdW0NIMl1bTkhdQyg9TylbQ0BIXShbQ0gzXSluMltjSF1uW2NIXW4y

> <s_epik_cmdline>
J2VwaWtfcHl0aG9uJywgJy1waCcsICc3LjAnLCAnLXRuJywgJzgnLCAnLW1hJywgJzIwMCcsICctbWV0YWxfYmluZGluZycsICctaW1hZScsICc8aW5maWxlLm1hZT4nLCAnLW9tYWUnLCAnPG91dGZpbGUubWFlPic=

> <r_lp_tautomer_probability>
1

> <r_epik_Ionization_Penalty>
0.00266409

> <r_epik_Ionization_Penalty_Charging>
0.00265606

> <r_epik_Ionization_Penalty_Neutral>
8.02794e-06

> <r_epik_State_Penalty>
0.00184955

> <r_epik_Charging_Adjusted_Penalty>
0.00450561

> <i_epik_Tot_Q>
1

> <i_epik_Tot_abs_Q>
1

> <r_epik_Metal_State_Penalty>
-0

> <b_epik_Metal_Only>
0

> <s_lp_Force_Field>
OPLS_2005

> <r_lp_Energy>
26.1161

> <b_lp_Chiralities_Consistent>
1

> <s_lp_Variant>
AV-unprocessed.smi:1893-8

> <Gold.Version>
5.8.1

> <Gold.Id.Protein>
6NUR|6NUR_protein|mol2

> <Gold.PLP.Fitness>
45.6471

> <Gold.PLP.PLP>
-38.7556

> <Gold.PLP.part.hbond>
-2.0000

> <Gold.PLP.part.metal>
0.0000

> <Gold.PLP.part.buried>
-6.5961

> <Gold.PLP.part.nonpolar>
-31.4008

> <Gold.PLP.part.repulsive>
0.6641

> <Gold.PLP.ligand.clash>
0.0000

> <Gold.PLP.ligand.torsion>
0.8423

> <Gold.PLP.Chemscore.Hbond>
1.8643

> <Gold.PLP.Chemscore.CHOScore>
0.9550

> <Gold.PLP.Chemscore.Metal>
0.0000

> <Gold.Chemscore.Hbonds>
donor molecule, donor type, donor heavy atom, donor atom, acceptor molecule, acceptor atom, score
      L1  H    10    36       P1  8028  1.00
      P1  H  7989  7998       L1    12  0.89
      L1  C    16    41       P1 10175  0.45

> <Gold.PLP.Chemscore.Internal.Correction>
0.1182

> <Gold.Rescore>
     Score         DG    S(hbond)    S(metal)    S(lipo)     H(rot)  DE(clash)    DE(int)     intcor
     11.90     -15.86       1.62        0.00      98.16       2.54       1.25       2.72       ----

> <Gold.Chemscore.Fitness>
11.8952

> <Gold.Chemscore.DG>
-15.8637

> <Gold.Chemscore.ZeroCoef>
-5.4800

> <Gold.Chemscore.Hbond>
1.6155

> <Gold.Chemscore.Metal>
0.0000

> <Gold.Chemscore.Lipo>
98.1576

> <Gold.Chemscore.Internal_Hbond>
0.0000

> <Gold.Chemscore.DEClash>
1.2488

> <Gold.Chemscore.DEInternal>
2.7196

> <Gold.Chemscore.Rot>
2.5377

> <Gold.Chemscore.Internal.Correction>
   9.000000E+99

> <Gold.Chemscore.Hbonds>
donor molecule, donor type, donor heavy atom, donor atom, acceptor molecule, acceptor atom, score
      L1  H    10    36       P1  8028  1.00
      P1  H  7989  7998       L1    12  0.24

> <Gold.Chemscore.Hbond.Weighted>
-5.3958

> <Gold.Chemscore.Metal.Weighted>
-0.0000

> <Gold.Chemscore.Lipo.Weighted>
-11.4844

> <Gold.Chemscore.Internal_Hbond.Weighted>
0.0000

> <Gold.Chemscore.DEClash.Weighted>
1.2488

> <Gold.Chemscore.DEInternal.Weighted>
2.7196

> <Gold.Chemscore.Rot.Weighted>
6.4966

> <Gold.Chemscore.Internal.Correction.Weighted>
   9.000000E+99

> <Gold.Protein.RotatedTorsions>
[ 6907 6896 6895 6894 ] final  105.81 input  -60.11 | X-H torsion
[ 7974 7965 7964 7962 ] final -171.02 input  175.53 | X-H torsion
[ 8008 7997 7996 7995 ] final  -57.08 input   59.86 | X-H torsion
[ 10167 10162 10161 10158 ] final   -9.71 input  -65.29 | X-H torsion
[ 10718 10713 10712 10709 ] final -120.22 input   66.30 | X-H torsion
[ 10763 10752 10751 10750 ] final  138.29 input  -60.55 | X-H torsion
[ 11005 11000 10999 10996 ] final   12.34 input  -57.11 | X-H torsion

> <Gold.Protein.ActiveResidues>
 VAL166  LYS551  ARG553  GLY616  TRP617  ASP618  TYR619  PRO620  LYS621  CYS622 
 ASP623  PHE694  ASN695  SER759  ASP760  ASP761  ALA762  ILE779  LEU786  VAL792 
 PHE793  MET794  SER795  GLU796  ALA797  LYS798  CYS799  TRP800  GLU811  SER814 

> <Gold.Protein.RotatedAtoms>
  152.5217  133.9473  159.7654 H   0  0  0  0  0  0  0  0  0  0  0  0  # atno 6907 bound_to 6896
  150.9790  133.6256  159.2732 H   0  0  0  0  0  0  0  0  0  0  0  0  # atno 6908 bound_to 6896
  151.3441  135.0876  159.9434 H   0  0  0  0  0  0  0  0  0  0  0  0  # atno 6909 bound_to 6896
  144.7162  140.1984  143.6341 H   0  0  0  0  0  0  0  0  0  0  0  0  # atno 7974 bound_to 7965
  154.4254  140.1115  156.5740 H   0  0  0  0  0  0  0  0  0  0  0  0  # atno 8008 bound_to 7997
  155.6182  140.3495  155.4624 H   0  0  0  0  0  0  0  0  0  0  0  0  # atno 8009 bound_to 7997
  156.0045  140.1206  157.0504 H   0  0  0  0  0  0  0  0  0  0  0  0  # atno 8010 bound_to 7997
  140.7095  143.5827  150.8975 H   0  0  0  0  0  0  0  0  0  0  0  0  # atno 10167 bound_to 10162
  156.1241  130.6346  150.9513 H   0  0  0  0  0  0  0  0  0  0  0  0  # atno 10718 bound_to 10713
  153.8871  135.3037  155.3446 H   0  0  0  0  0  0  0  0  0  0  0  0  # atno 10763 bound_to 10752
  154.7734  135.4874  153.9698 H   0  0  0  0  0  0  0  0  0  0  0  0  # atno 10764 bound_to 10752
  153.1318  135.6805  153.9263 H   0  0  0  0  0  0  0  0  0  0  0  0  # atno 10765 bound_to 10752
  140.4931  134.0820  155.7776 H   0  0  0  0  0  0  0  0  0  0  0  0  # atno 11005 bound_to 11000
  145.8703  139.2268  143.1665 LP  0  0  0  0  0  0  0  0  0  0  0  0  # atno 17320 bound_to 7965
  146.0091  140.8452  142.9980 LP  0  0  0  0  0  0  0  0  0  0  0  0  # atno 17321 bound_to 7965
  139.9553  143.6225  152.3017 LP  0  0  0  0  0  0  0  0  0  0  0  0  # atno 17342 bound_to 10162
  139.6758  144.7658  151.1698 LP  0  0  0  0  0  0  0  0  0  0  0  0  # atno 17343 bound_to 10162
  157.6424  131.0908  150.8225 LP  0  0  0  0  0  0  0  0  0  0  0  0  # atno 17370 bound_to 10713
  156.8317  130.5018  149.5331 LP  0  0  0  0  0  0  0  0  0  0  0  0  # atno 17371 bound_to 10713
  141.1474  133.9031  157.2183 LP  0  0  0  0  0  0  0  0  0  0  0  0  # atno 17394 bound_to 11000
  139.9757  135.0114  156.9625 LP  0  0  0  0  0  0  0  0  0  0  0  0  # atno 17395 bound_to 11000

$$$$
