AV-unprocessed.smi:87|AV-procd|sdf|822|dock8
  -GOLD-   2262017233D 1   1.00000     0.00000
 Structure written by MMmdl.
 58 60  0  0  0  0  0  0  0  0  1 V2000
  150.7704  142.7910  158.2286 C   0  0  0  0  0  0  0  0  0  0  0  0
  150.8553  142.1829  156.8205 C   0  0  0  0  0  0  0  0  0  0  0  0
  150.1230  140.8299  156.6719 C   0  0  0  0  0  0  0  0  0  0  0  0
  150.8275  139.7145  157.4797 C   0  0  0  0  0  0  0  0  0  0  0  0
  152.2501  139.3899  157.0009 C   0  0  0  0  0  0  0  0  0  0  0  0
  150.0043  140.4298  155.1779 C   0  0  0  0  0  0  0  0  0  0  0  0
  148.6327  140.4073  154.6659 N   0  0  0  0  0  0  0  0  0  0  0  0
  147.7934  141.5706  154.9382 C   0  0  0  0  0  0  0  0  0  0  0  0
  146.5807  141.6590  153.9997 C   0  0  0  0  0  0  0  0  0  0  0  0
  145.6039  142.6660  154.4394 C   0  0  0  0  0  0  0  0  0  0  0  0
  144.8352  143.4586  154.7852 N   0  0  0  0  0  0  0  0  0  0  0  0
  147.9530  139.2339  154.6588 C   0  0  0  0  0  0  0  0  0  0  0  0
  148.0378  138.4668  155.7750 N   0  0  0  0  0  0  0  0  0  0  0  0
  147.3832  137.3042  155.8450 C   0  0  0  0  0  0  0  0  0  0  0  0
  146.6052  136.7283  154.9267 N   0  0  0  0  0  0  0  0  0  0  0  0
  146.5283  137.4873  153.7966 C   0  0  0  0  0  0  0  0  0  0  0  0
  147.1667  138.7410  153.5760 C   0  0  0  0  0  0  0  0  0  0  0  0
  146.8625  139.2023  152.2998 N   0  0  0  0  0  0  0  0  0  0  0  0
  146.0785  138.2859  151.8031 C   0  0  0  0  0  0  0  0  0  0  0  0
  145.8242  137.2210  152.6357 N   0  0  0  0  0  0  0  0  0  0  0  0
  144.9907  136.0692  152.3386 C   0  0  0  0  0  0  0  0  0  0  0  0
  145.4173  135.3523  151.0425 C   0  0  2  0  0  0  0  0  0  0  0  0
  144.6048  135.7950  149.9709 O   0  0  0  0  0  0  0  0  0  0  0  0
  145.3345  133.8179  151.1788 C   0  0  1  0  0  0  0  0  0  0  0  0
  143.9284  133.2040  151.3100 C   0  0  0  0  0  0  0  0  0  0  0  0
  143.8935  132.1412  150.2240 C   0  0  0  0  0  0  0  0  0  0  0  0
  145.3685  131.8965  149.9290 C   0  0  0  0  0  0  0  0  0  0  0  0
  145.9387  133.1885  150.0549 O   0  0  0  0  0  0  0  0  0  0  0  0
  151.3850  143.6888  158.2961 H   0  0  0  0  0  0  0  0  0  0  0  0
  151.1277  142.0894  158.9829 H   0  0  0  0  0  0  0  0  0  0  0  0
  149.7523  143.0772  158.4903 H   0  0  0  0  0  0  0  0  0  0  0  0
  150.4728  142.8959  156.0892 H   0  0  0  0  0  0  0  0  0  0  0  0
  151.9122  142.0577  156.5897 H   0  0  0  0  0  0  0  0  0  0  0  0
  149.1241  140.9585  157.0885 H   0  0  0  0  0  0  0  0  0  0  0  0
  150.9034  140.0123  158.5257 H   0  0  0  0  0  0  0  0  0  0  0  0
  150.2196  138.8091  157.4728 H   0  0  0  0  0  0  0  0  0  0  0  0
  152.7204  138.6639  157.6645 H   0  0  0  0  0  0  0  0  0  0  0  0
  152.8760  140.2828  156.9937 H   0  0  0  0  0  0  0  0  0  0  0  0
  152.2587  138.9634  155.9987 H   0  0  0  0  0  0  0  0  0  0  0  0
  150.5937  141.0915  154.5470 H   0  0  0  0  0  0  0  0  0  0  0  0
  150.4384  139.4383  155.0441 H   0  0  0  0  0  0  0  0  0  0  0  0
  147.4512  141.5159  155.9721 H   0  0  0  0  0  0  0  0  0  0  0  0
  148.3848  142.4844  154.8667 H   0  0  0  0  0  0  0  0  0  0  0  0
  146.8919  141.9208  152.9880 H   0  0  0  0  0  0  0  0  0  0  0  0
  146.0635  140.7012  153.9432 H   0  0  0  0  0  0  0  0  0  0  0  0
  147.4976  136.7584  156.7698 H   0  0  0  0  0  0  0  0  0  0  0  0
  145.6609  138.3621  150.8096 H   0  0  0  0  0  0  0  0  0  0  0  0
  145.0487  135.3837  153.1850 H   0  0  0  0  0  0  0  0  0  0  0  0
  143.9514  136.3944  152.2748 H   0  0  0  0  0  0  0  0  0  0  0  0
  146.4489  135.6270  150.8179 H   0  0  0  0  0  0  0  0  0  0  0  0
  144.6131  136.7398  149.9579 H   0  0  0  0  0  0  0  0  0  0  0  0
  145.9250  133.5110  152.0441 H   0  0  0  0  0  0  0  0  0  0  0  0
  143.8102  132.7530  152.2961 H   0  0  0  0  0  0  0  0  0  0  0  0
  143.1201  133.9244  151.1834 H   0  0  0  0  0  0  0  0  0  0  0  0
  143.3649  131.2369  150.5268 H   0  0  0  0  0  0  0  0  0  0  0  0
  143.4029  132.5393  149.3347 H   0  0  0  0  0  0  0  0  0  0  0  0
  145.8096  131.2268  150.6693 H   0  0  0  0  0  0  0  0  0  0  0  0
  145.5362  131.4759  148.9372 H   0  0  0  0  0  0  0  0  0  0  0  0
  1  2  1  0  0  0  0
  1 29  1  0  0  0  0
  1 30  1  0  0  0  0
  1 31  1  0  0  0  0
  2  3  1  0  0  0  0
  2 32  1  0  0  0  0
  2 33  1  0  0  0  0
  3  4  1  0  0  0  0
  3  6  1  0  0  0  0
  3 34  1  0  0  0  0
  4  5  1  0  0  0  0
  4 35  1  0  0  0  0
  4 36  1  0  0  0  0
  5 37  1  0  0  0  0
  5 38  1  0  0  0  0
  5 39  1  0  0  0  0
  6  7  1  0  0  0  0
  6 40  1  0  0  0  0
  6 41  1  0  0  0  0
  7  8  1  0  0  0  0
  7 12  1  0  0  0  0
  8  9  1  0  0  0  0
  8 42  1  0  0  0  0
  8 43  1  0  0  0  0
  9 10  1  0  0  0  0
  9 44  1  0  0  0  0
  9 45  1  0  0  0  0
 10 11  3  0  0  0  0
 12 17  1  0  0  0  0
 12 13  2  0  0  0  0
 13 14  1  0  0  0  0
 14 15  2  0  0  0  0
 14 46  1  0  0  0  0
 15 16  1  0  0  0  0
 16 20  1  0  0  0  0
 16 17  2  0  0  0  0
 17 18  1  0  0  0  0
 18 19  2  0  0  0  0
 19 20  1  0  0  0  0
 19 47  1  0  0  0  0
 20 21  1  0  0  0  0
 21 22  1  0  0  0  0
 21 48  1  0  0  0  0
 21 49  1  0  0  0  0
 22 23  1  0  0  0  0
 22 24  1  0  0  0  0
 22 50  1  0  0  0  0
 23 51  1  0  0  0  0
 24 28  1  0  0  0  0
 24 25  1  0  0  0  0
 24 52  1  0  0  0  0
 25 26  1  0  0  0  0
 25 53  1  0  0  0  0
 25 54  1  0  0  0  0
 26 27  1  0  0  0  0
 26 55  1  0  0  0  0
 26 56  1  0  0  0  0
 27 28  1  0  0  0  0
 27 57  1  0  0  0  0
 27 58  1  0  0  0  0
M  END
> <s_m_source_file>
AV-unprocessed.smi

> <i_m_source_file_index>
87

> <i_lp_mmshare_version>
43012

> <i_f3d_flags>
0

> <s_epik_input>
W0NIM11bQ0gyXVtDSF0oW0NIMl1bQ0gzXSlbQ0gyXU4oW0NIMl1bQ0gyXUMjTiljKG5bY0hdbjEpYyhjMTIpbltjSF1uMltDSDJdW0NASF0oW09IXSlbQ0BASF0zW0NIMl1bQ0gyXVtDSDJdTzM=

> <s_epik_cmdline>
J2VwaWtfcHl0aG9uJywgJy1waCcsICc3LjAnLCAnLXRuJywgJzgnLCAnLW1hJywgJzIwMCcsICctbWV0YWxfYmluZGluZycsICctaW1hZScsICc8aW5maWxlLm1hZT4nLCAnLW9tYWUnLCAnPG91dGZpbGUubWFlPic=

> <r_lp_tautomer_probability>
1

> <r_epik_Ionization_Penalty>
0.000348566

> <r_epik_Ionization_Penalty_Charging>
0

> <r_epik_Ionization_Penalty_Neutral>
0.000348566

> <r_epik_State_Penalty>
-0

> <r_epik_Charging_Adjusted_Penalty>
0

> <i_epik_Tot_Q>
0

> <i_epik_Tot_abs_Q>
0

> <r_epik_Metal_State_Penalty>
-0

> <b_epik_Metal_Only>
0

> <s_lp_Force_Field>
OPLS_2005

> <r_lp_Energy>
36.8585

> <b_lp_Chiralities_Consistent>
1

> <s_lp_Variant>
AV-unprocessed.smi:87-3

> <Gold.Version>
5.8.1

> <Gold.Id.Protein>
6NUR|6NUR_protein|mol2

> <Gold.PLP.Fitness>
50.5977

> <Gold.PLP.PLP>
-49.1165

> <Gold.PLP.part.hbond>
-2.0000

> <Gold.PLP.part.metal>
0.0000

> <Gold.PLP.part.buried>
-7.6109

> <Gold.PLP.part.nonpolar>
-43.1535

> <Gold.PLP.part.repulsive>
2.7344

> <Gold.PLP.ligand.clash>
0.0000

> <Gold.PLP.ligand.torsion>
2.9329

> <Gold.PLP.Chemscore.Hbond>
1.0000

> <Gold.PLP.Chemscore.CHOScore>
1.0000

> <Gold.PLP.Chemscore.Metal>
0.0000

> <Gold.Chemscore.Hbonds>
donor molecule, donor type, donor heavy atom, donor atom, acceptor molecule, acceptor atom, score
      L1  H    23    51       P1 10171  1.00
      L1  C    19    47       P1 10171  1.00

> <Gold.PLP.Chemscore.Internal.Correction>
1.3470

> <Gold.Rescore>
     Score         DG    S(hbond)    S(metal)    S(lipo)     H(rot)  DE(clash)    DE(int)     intcor
      7.19     -10.90       0.95        0.00      92.80       3.37       0.36       3.35       ----

> <Gold.Chemscore.Fitness>
7.1902

> <Gold.Chemscore.DG>
-10.8996

> <Gold.Chemscore.ZeroCoef>
-5.4800

> <Gold.Chemscore.Hbond>
0.9526

> <Gold.Chemscore.Metal>
0.0000

> <Gold.Chemscore.Lipo>
92.8032

> <Gold.Chemscore.Internal_Hbond>
0.0000

> <Gold.Chemscore.DEClash>
0.3585

> <Gold.Chemscore.DEInternal>
3.3509

> <Gold.Chemscore.Rot>
3.3672

> <Gold.Chemscore.Internal.Correction>
   9.000000E+99

> <Gold.Chemscore.Hbonds>
donor molecule, donor type, donor heavy atom, donor atom, acceptor molecule, acceptor atom, score
      L1  H    23    51       P1 10171  0.97

> <Gold.Chemscore.Hbond.Weighted>
-3.1817

> <Gold.Chemscore.Metal.Weighted>
-0.0000

> <Gold.Chemscore.Lipo.Weighted>
-10.8580

> <Gold.Chemscore.Internal_Hbond.Weighted>
0.0000

> <Gold.Chemscore.DEClash.Weighted>
0.3585

> <Gold.Chemscore.DEInternal.Weighted>
3.3509

> <Gold.Chemscore.Rot.Weighted>
8.6201

> <Gold.Chemscore.Internal.Correction.Weighted>
   9.000000E+99

> <Gold.Protein.RotatedTorsions>
[ 6907 6896 6895 6894 ] final   -2.77 input  -60.11 | X-H torsion
[ 7974 7965 7964 7962 ] final  130.29 input  175.53 | X-H torsion
[ 8008 7997 7996 7995 ] final  -50.01 input   59.86 | X-H torsion
[ 10167 10162 10161 10158 ] final -112.36 input  -65.29 | X-H torsion
[ 10718 10713 10712 10709 ] final   56.48 input   66.30 | X-H torsion
[ 10763 10752 10751 10750 ] final   70.42 input  -60.55 | X-H torsion
[ 11005 11000 10999 10996 ] final  -43.96 input  -57.11 | X-H torsion

> <Gold.Protein.ActiveResidues>
 VAL166  LYS551  ARG553  GLY616  TRP617  ASP618  TYR619  PRO620  LYS621  CYS622 
 ASP623  PHE694  ASN695  SER759  ASP760  ASP761  ALA762  ILE779  LEU786  VAL792 
 PHE793  MET794  SER795  GLU796  ALA797  LYS798  CYS799  TRP800  GLU811  SER814 

> <Gold.Protein.RotatedAtoms>
  151.5245  135.1067  159.9886 H   0  0  0  0  0  0  0  0  0  0  0  0  # atno 6907 bound_to 6896
  152.4606  133.7810  159.6861 H   0  0  0  0  0  0  0  0  0  0  0  0  # atno 6908 bound_to 6896
  150.8567  133.7640  159.3031 H   0  0  0  0  0  0  0  0  0  0  0  0  # atno 6909 bound_to 6896
  145.0195  139.4145  143.5205 H   0  0  0  0  0  0  0  0  0  0  0  0  # atno 7974 bound_to 7965
  154.4054  140.1283  156.4596 H   0  0  0  0  0  0  0  0  0  0  0  0  # atno 8008 bound_to 7997
  155.7286  140.3491  155.5029 H   0  0  0  0  0  0  0  0  0  0  0  0  # atno 8009 bound_to 7997
  155.9148  140.1042  157.1242 H   0  0  0  0  0  0  0  0  0  0  0  0  # atno 8010 bound_to 7997
  140.1236  143.4422  152.1674 H   0  0  0  0  0  0  0  0  0  0  0  0  # atno 10167 bound_to 10162
  157.5434  130.8713  149.8855 H   0  0  0  0  0  0  0  0  0  0  0  0  # atno 10718 bound_to 10713
  153.0341  135.5174  154.7438 H   0  0  0  0  0  0  0  0  0  0  0  0  # atno 10763 bound_to 10752
  154.6429  135.2915  155.0083 H   0  0  0  0  0  0  0  0  0  0  0  0  # atno 10764 bound_to 10752
  154.0994  135.6638  153.4918 H   0  0  0  0  0  0  0  0  0  0  0  0  # atno 10765 bound_to 10752
  141.0418  133.6777  156.2805 H   0  0  0  0  0  0  0  0  0  0  0  0  # atno 11005 bound_to 11000
  146.3483  139.9684  142.8709 LP  0  0  0  0  0  0  0  0  0  0  0  0  # atno 17320 bound_to 7965
  145.1915  140.9814  143.4208 LP  0  0  0  0  0  0  0  0  0  0  0  0  # atno 17321 bound_to 7965
  139.5556  144.7370  151.4305 LP  0  0  0  0  0  0  0  0  0  0  0  0  # atno 17342 bound_to 10162
  140.6858  143.7978  150.7184 LP  0  0  0  0  0  0  0  0  0  0  0  0  # atno 17343 bound_to 10162
  156.0515  130.3716  150.1190 LP  0  0  0  0  0  0  0  0  0  0  0  0  # atno 17370 bound_to 10713
  156.9368  130.9731  151.3523 LP  0  0  0  0  0  0  0  0  0  0  0  0  # atno 17371 bound_to 10713
  140.6219  134.5352  157.5548 LP  0  0  0  0  0  0  0  0  0  0  0  0  # atno 17394 bound_to 11000
  139.9282  134.8015  156.1008 LP  0  0  0  0  0  0  0  0  0  0  0  0  # atno 17395 bound_to 11000

$$$$
