AV-unprocessed.smi:1802|AV-procd|sdf|7275|dock6
  -GOLD-   22720 8533D 1   1.00000     0.00000
 Structure written by MMmdl.
 40 41  0  0  0  0  0  0  0  0  3 V2000
  144.2509  132.4619  149.2203 C   0  0  0  0  0  0  0  0  0  0  0  0
  145.3606  131.8921  150.1153 C   0  0  2  0  0  0  0  0  0  0  0  0
  144.8367  130.7481  150.9997 C   0  0  0  0  0  0  0  0  0  0  0  0
  145.9584  130.2169  151.9005 C   0  0  0  0  0  0  0  0  0  0  0  0
  146.5854  131.3521  152.7253 C   0  0  0  0  0  0  0  0  0  0  0  0
  147.0861  132.4400  151.8460 N   0  3  2  0  0  0  0  0  0  0  0  0
  147.8182  133.4837  152.6075 C   0  0  0  0  0  0  0  0  0  0  0  0
  148.6745  132.8916  153.7394 C   0  0  0  0  0  0  0  0  0  0  0  0
  148.9413  133.9060  154.8586 C   0  0  0  0  0  0  0  0  0  0  0  0
  149.9601  134.8617  154.4469 N   0  0  0  0  0  0  0  0  0  0  0  0
  150.5806  135.7272  155.2592 C   0  0  0  0  0  0  0  0  0  0  0  0
  150.2926  135.7585  156.4576 O   0  0  0  0  0  0  0  0  0  0  0  0
  151.4974  136.4984  154.6326 N   0  5  0  0  0  0  0  0  0  0  0  0
  151.5484  137.8175  154.8818 C   0  0  0  0  0  0  0  0  0  0  0  0
  150.9143  138.7195  154.1154 N   0  0  0  0  0  0  0  0  0  0  0  0
  151.1014  140.0271  154.5431 N   0  0  0  0  0  0  0  0  0  0  0  0
  151.8827  140.0782  155.6216 C   0  0  0  0  0  0  0  0  0  0  0  0
  152.4623  138.5349  156.2116 S   0  0  0  0  0  0  0  0  0  0  0  0
  146.0030  132.9902  150.9870 C   0  0  0  0  0  0  0  0  0  0  0  0
  143.4420  132.8887  149.8142 H   0  0  0  0  0  0  0  0  0  0  0  0
  143.8228  131.6869  148.5840 H   0  0  0  0  0  0  0  0  0  0  0  0
  144.6351  133.2467  148.5683 H   0  0  0  0  0  0  0  0  0  0  0  0
  146.1337  131.4865  149.4605 H   0  0  0  0  0  0  0  0  0  0  0  0
  144.0083  131.1013  151.6156 H   0  0  0  0  0  0  0  0  0  0  0  0
  144.4438  129.9399  150.3817 H   0  0  0  0  0  0  0  0  0  0  0  0
  145.5684  129.4449  152.5645 H   0  0  0  0  0  0  0  0  0  0  0  0
  146.7255  129.7404  151.2889 H   0  0  0  0  0  0  0  0  0  0  0  0
  145.8552  131.7569  153.4279 H   0  0  0  0  0  0  0  0  0  0  0  0
  147.4069  130.9480  153.3181 H   0  0  0  0  0  0  0  0  0  0  0  0
  148.4284  134.0830  151.9301 H   0  0  0  0  0  0  0  0  0  0  0  0
  147.0970  134.1674  153.0575 H   0  0  0  0  0  0  0  0  0  0  0  0
  148.1687  132.0201  154.1577 H   0  0  0  0  0  0  0  0  0  0  0  0
  149.6297  132.5390  153.3506 H   0  0  0  0  0  0  0  0  0  0  0  0
  148.0260  134.4447  155.1084 H   0  0  0  0  0  0  0  0  0  0  0  0
  149.2698  133.3880  155.7611 H   0  0  0  0  0  0  0  0  0  0  0  0
  150.2211  134.8693  153.4718 H   0  0  0  0  0  0  0  0  0  0  0  0
  152.1216  141.0305  156.0708 H   0  0  0  0  0  0  0  0  0  0  0  0
  146.4011  133.7676  150.3360 H   0  0  0  0  0  0  0  0  0  0  0  0
  145.2472  133.4640  151.6158 H   0  0  0  0  0  0  0  0  0  0  0  0
  147.7624  132.0119  151.2300 H   0  0  0  0  0  0  0  0  0  0  0  0
  1  2  1  0  0  0  0
  1 20  1  0  0  0  0
  1 21  1  0  0  0  0
  1 22  1  0  0  0  0
  2 19  1  0  0  0  0
  2  3  1  0  0  0  0
  2 23  1  0  0  0  0
  3  4  1  0  0  0  0
  3 24  1  0  0  0  0
  3 25  1  0  0  0  0
  4  5  1  0  0  0  0
  4 26  1  0  0  0  0
  4 27  1  0  0  0  0
  5  6  1  0  0  0  0
  5 28  1  0  0  0  0
  5 29  1  0  0  0  0
  6  7  1  0  0  0  0
  6 19  1  0  0  0  0
  6 40  1  0  0  0  0
  7  8  1  0  0  0  0
  7 30  1  0  0  0  0
  7 31  1  0  0  0  0
  8  9  1  0  0  0  0
  8 32  1  0  0  0  0
  8 33  1  0  0  0  0
  9 10  1  0  0  0  0
  9 34  1  0  0  0  0
  9 35  1  0  0  0  0
 10 11  1  0  0  0  0
 10 36  1  0  0  0  0
 11 12  2  0  0  0  0
 11 13  1  0  0  0  0
 13 14  1  0  0  0  0
 14 18  1  0  0  0  0
 14 15  2  0  0  0  0
 15 16  1  0  0  0  0
 16 17  2  0  0  0  0
 17 18  1  0  0  0  0
 17 37  1  0  0  0  0
 19 38  1  0  0  0  0
 19 39  1  0  0  0  0
M  CHG  1   6   1
M  CHG  1  13  -1
M  END
> <s_m_source_file>
AV-unprocessed.smi

> <i_m_source_file_index>
1802

> <i_lp_mmshare_version>
43012

> <i_f3d_flags>
0

> <s_epik_input>
W0NIM11bQ0BASF0xW0NIMl1bQ0gyXVtDSDJdTihbQ0gyXTEpW0NIMl1bQ0gyXVtDSDJdW05IXUMoPU8pW05IXWMybm5bY0hdczI=

> <s_epik_cmdline>
J2VwaWtfcHl0aG9uJywgJy1waCcsICc3LjAnLCAnLXRuJywgJzgnLCAnLW1hJywgJzIwMCcsICctbWV0YWxfYmluZGluZycsICctaW1hZScsICc8aW5maWxlLm1hZT4nLCAnLW9tYWUnLCAnPG91dGZpbGUubWFlPic=

> <r_lp_tautomer_probability>
1

> <r_epik_Ionization_Penalty>
3.29702

> <r_epik_Ionization_Penalty_Charging>
3.26059

> <r_epik_Ionization_Penalty_Neutral>
0.0364294

> <r_epik_State_Penalty>
3.25788

> <r_epik_Charging_Adjusted_Penalty>
6.51847

> <i_epik_Tot_Q>
0

> <i_epik_Tot_abs_Q>
2

> <r_epik_Metal_State_Penalty>
0.477639

> <b_epik_Metal_Only>
1

> <s_lp_Force_Field>
OPLS_2005

> <r_lp_Energy>
10.8961

> <b_lp_Chiralities_Consistent>
1

> <s_lp_Variant>
AV-unprocessed.smi:1802-5

> <Gold.Version>
5.8.1

> <Gold.Id.Protein>
6NUR|6NUR_protein|mol2

> <Gold.PLP.Fitness>
46.9744

> <Gold.PLP.PLP>
-37.9919

> <Gold.PLP.part.hbond>
-4.5661

> <Gold.PLP.part.metal>
0.0000

> <Gold.PLP.part.buried>
-2.9695

> <Gold.PLP.part.nonpolar>
-30.1392

> <Gold.PLP.part.repulsive>
1.1085

> <Gold.PLP.ligand.clash>
0.0000

> <Gold.PLP.ligand.torsion>
1.5406

> <Gold.PLP.Chemscore.Hbond>
4.0000

> <Gold.PLP.Chemscore.CHOScore>
0.0000

> <Gold.PLP.Chemscore.Metal>
0.0000

> <Gold.Chemscore.Hbonds>
donor molecule, donor type, donor heavy atom, donor atom, acceptor molecule, acceptor atom, score
      L1  H     6    40       P1 10747  1.00
      P1  H  7989  7998       L1    16  0.78
      P1  H 10752 10763       L1    13  1.82

> <Gold.PLP.Chemscore.Internal.Correction>
0.0636

> <Gold.Rescore>
     Score         DG    S(hbond)    S(metal)    S(lipo)     H(rot)  DE(clash)    DE(int)     intcor
     17.06     -18.66       2.33        0.00      88.40       1.94       0.20       1.40       ----

> <Gold.Chemscore.Fitness>
17.0578

> <Gold.Chemscore.DG>
-18.6575

> <Gold.Chemscore.ZeroCoef>
-5.4800

> <Gold.Chemscore.Hbond>
2.3343

> <Gold.Chemscore.Metal>
0.0000

> <Gold.Chemscore.Lipo>
88.4019

> <Gold.Chemscore.Internal_Hbond>
0.0000

> <Gold.Chemscore.DEClash>
0.1951

> <Gold.Chemscore.DEInternal>
1.4046

> <Gold.Chemscore.Rot>
1.9383

> <Gold.Chemscore.Internal.Correction>
   9.000000E+99

> <Gold.Chemscore.Hbonds>
donor molecule, donor type, donor heavy atom, donor atom, acceptor molecule, acceptor atom, score
      L1  H     6    40       P1 10747  1.00
      P1  H  7989  7998       L1    16  0.47
      P1  H 10752 10763       L1    13  0.81

> <Gold.Chemscore.Hbond.Weighted>
-7.7966

> <Gold.Chemscore.Metal.Weighted>
-0.0000

> <Gold.Chemscore.Lipo.Weighted>
-10.3430

> <Gold.Chemscore.Internal_Hbond.Weighted>
0.0000

> <Gold.Chemscore.DEClash.Weighted>
0.1951

> <Gold.Chemscore.DEInternal.Weighted>
1.4046

> <Gold.Chemscore.Rot.Weighted>
4.9620

> <Gold.Chemscore.Internal.Correction.Weighted>
   9.000000E+99

> <Gold.Protein.RotatedTorsions>
[ 6907 6896 6895 6894 ] final -126.26 input  -60.11 | X-H torsion
[ 7974 7965 7964 7962 ] final   43.24 input  175.53 | X-H torsion
[ 8008 7997 7996 7995 ] final   94.05 input   59.86 | X-H torsion
[ 10167 10162 10161 10158 ] final -108.46 input  -65.29 | X-H torsion
[ 10718 10713 10712 10709 ] final    0.59 input   66.30 | X-H torsion
[ 10763 10752 10751 10750 ] final   27.54 input  -60.55 | X-H torsion
[ 11005 11000 10999 10996 ] final  157.18 input  -57.11 | X-H torsion

> <Gold.Protein.ActiveResidues>
 VAL166  LYS551  ARG553  GLY616  TRP617  ASP618  TYR619  PRO620  LYS621  CYS622 
 ASP623  PHE694  ASN695  SER759  ASP760  ASP761  ALA762  ILE779  LEU786  VAL792 
 PHE793  MET794  SER795  GLU796  ALA797  LYS798  CYS799  TRP800  GLU811  SER814 

> <Gold.Protein.RotatedAtoms>
  150.8951  133.7192  159.2893 H   0  0  0  0  0  0  0  0  0  0  0  0  # atno 6907 bound_to 6896
  151.4729  135.1045  159.9766 H   0  0  0  0  0  0  0  0  0  0  0  0  # atno 6908 bound_to 6896
  152.4844  133.8287  159.7147 H   0  0  0  0  0  0  0  0  0  0  0  0  # atno 6909 bound_to 6896
  146.0672  139.5209  142.9621 H   0  0  0  0  0  0  0  0  0  0  0  0  # atno 7974 bound_to 7965
  156.0536  140.3305  155.7379 H   0  0  0  0  0  0  0  0  0  0  0  0  # atno 8008 bound_to 7997
  155.5563  140.0615  157.2856 H   0  0  0  0  0  0  0  0  0  0  0  0  # atno 8009 bound_to 7997
  154.4447  140.1885  156.0726 H   0  0  0  0  0  0  0  0  0  0  0  0  # atno 8010 bound_to 7997
  140.1659  143.4082  152.1391 H   0  0  0  0  0  0  0  0  0  0  0  0  # atno 10167 bound_to 10162
  156.8357  130.5504  149.5682 H   0  0  0  0  0  0  0  0  0  0  0  0  # atno 10718 bound_to 10713
  153.0549  135.6534  154.0601 H   0  0  0  0  0  0  0  0  0  0  0  0  # atno 10763 bound_to 10752
  154.0281  135.2914  155.3373 H   0  0  0  0  0  0  0  0  0  0  0  0  # atno 10764 bound_to 10752
  154.6859  135.5302  153.8393 H   0  0  0  0  0  0  0  0  0  0  0  0  # atno 10765 bound_to 10752
  140.1745  134.8519  157.2730 H   0  0  0  0  0  0  0  0  0  0  0  0  # atno 11005 bound_to 11000
  145.6456  141.0274  143.1788 LP  0  0  0  0  0  0  0  0  0  0  0  0  # atno 17320 bound_to 7965
  144.7209  139.8032  143.7382 LP  0  0  0  0  0  0  0  0  0  0  0  0  # atno 17321 bound_to 7965
  139.5360  144.7210  151.4892 LP  0  0  0  0  0  0  0  0  0  0  0  0  # atno 17342 bound_to 10162
  140.6613  143.8491  150.6891 LP  0  0  0  0  0  0  0  0  0  0  0  0  # atno 17343 bound_to 10162
  156.0909  130.5895  150.9730 LP  0  0  0  0  0  0  0  0  0  0  0  0  # atno 17370 bound_to 10713
  157.6383  131.0913  150.8304 LP  0  0  0  0  0  0  0  0  0  0  0  0  # atno 17371 bound_to 10713
  140.2338  134.3877  155.7510 LP  0  0  0  0  0  0  0  0  0  0  0  0  # atno 17394 bound_to 11000
  141.2219  133.7229  156.8682 LP  0  0  0  0  0  0  0  0  0  0  0  0  # atno 17395 bound_to 11000

$$$$
