AV-unprocessed.smi:2159|AV-procd|sdf|8796|dock1
  -GOLD-   2272011573D 1   1.00000     0.00000
 Structure written by MMmdl.
 48 50  0  0  0  0  0  0  0  0  2 V2000
  149.1847  136.3654  156.4617 O   0  0  0  0  0  0  0  0  0  0  0  0
  149.3226  136.5166  155.2472 C   0  0  0  0  0  0  0  0  0  0  0  0
  149.8621  137.8336  154.6821 C   0  0  0  0  0  0  0  0  0  0  0  0
  151.2865  138.1594  155.1741 C   0  0  0  0  0  0  0  0  0  0  0  0
  151.2936  139.3385  156.0434 N   0  0  0  0  0  0  0  0  0  0  0  0
  151.8722  139.3831  157.2586 C   0  0  0  0  0  0  0  0  0  0  0  0
  152.3834  138.4488  157.8750 O   0  0  0  0  0  0  0  0  0  0  0  0
  151.8932  140.8261  157.7411 C   0  0  2  0  0  0  0  0  0  0  0  0
  151.7301  141.2057  159.2135 C   0  0  0  0  0  0  0  0  0  0  0  0
  151.8238  142.7531  159.2902 C   0  0  0  0  0  0  0  0  0  0  0  0
  150.8889  143.4950  158.2894 C   0  0  0  0  0  0  0  0  0  0  0  0
  150.9511  142.9424  156.8406 C   0  0  0  0  0  0  0  0  0  0  0  0
  150.7578  141.4283  156.9367 C   0  0  1  0  0  0  0  0  0  0  0  0
  150.7466  140.5242  155.7135 C   0  0  0  0  0  0  0  0  0  0  0  0
  150.2527  140.8408  154.6317 O   0  0  0  0  0  0  0  0  0  0  0  0
  149.0075  135.5681  154.3515 N   0  0  0  0  0  0  0  0  0  0  0  0
  148.4715  134.2535  154.6850 C   0  0  0  0  0  0  0  0  0  0  0  0
  148.8149  133.2127  153.6055 C   0  0  0  0  0  0  0  0  0  0  0  0
  147.6156  132.8558  152.7494 C   0  0  0  0  0  0  0  0  0  0  0  0
  146.9619  131.6084  152.8496 C   0  0  0  0  0  0  0  0  0  0  0  0
  145.8494  131.3457  152.0228 C   0  0  0  0  0  0  0  0  0  0  0  0
  145.4149  132.3342  151.1152 C   0  0  0  0  0  0  0  0  0  0  0  0
  146.1040  133.5628  151.0579 C   0  0  0  0  0  0  0  0  0  0  0  0
  147.1648  133.7769  151.8669 N   0  3  0  0  0  0  0  0  0  0  0  0
  149.8521  137.7905  153.5918 H   0  0  0  0  0  0  0  0  0  0  0  0
  149.1759  138.6310  154.9700 H   0  0  0  0  0  0  0  0  0  0  0  0
  151.7076  137.3092  155.7144 H   0  0  0  0  0  0  0  0  0  0  0  0
  151.9483  138.3239  154.3217 H   0  0  0  0  0  0  0  0  0  0  0  0
  152.8498  141.2256  157.3961 H   0  0  0  0  0  0  0  0  0  0  0  0
  150.7719  140.8570  159.6014 H   0  0  0  0  0  0  0  0  0  0  0  0
  152.5096  140.7459  159.8220 H   0  0  0  0  0  0  0  0  0  0  0  0
  151.6152  143.0861  160.3073 H   0  0  0  0  0  0  0  0  0  0  0  0
  152.8531  143.0500  159.0843 H   0  0  0  0  0  0  0  0  0  0  0  0
  149.8625  143.4124  158.6495 H   0  0  0  0  0  0  0  0  0  0  0  0
  151.1199  144.5606  158.2884 H   0  0  0  0  0  0  0  0  0  0  0  0
  150.1725  143.3955  156.2262 H   0  0  0  0  0  0  0  0  0  0  0  0
  151.9082  143.1834  156.3757 H   0  0  0  0  0  0  0  0  0  0  0  0
  149.8040  141.2424  157.4364 H   0  0  0  0  0  0  0  0  0  0  0  0
  149.1509  135.7717  153.3728 H   0  0  0  0  0  0  0  0  0  0  0  0
  148.8906  133.9466  155.6438 H   0  0  0  0  0  0  0  0  0  0  0  0
  147.3912  134.3203  154.8266 H   0  0  0  0  0  0  0  0  0  0  0  0
  149.6051  133.5876  152.9535 H   0  0  0  0  0  0  0  0  0  0  0  0
  149.2059  132.3072  154.0716 H   0  0  0  0  0  0  0  0  0  0  0  0
  147.3064  130.8612  153.5498 H   0  0  0  0  0  0  0  0  0  0  0  0
  145.3357  130.3975  152.0835 H   0  0  0  0  0  0  0  0  0  0  0  0
  144.5655  132.1521  150.4730 H   0  0  0  0  0  0  0  0  0  0  0  0
  145.8416  134.3742  150.3944 H   0  0  0  0  0  0  0  0  0  0  0  0
  147.6496  134.6732  151.8084 H   0  0  0  0  0  0  0  0  0  0  0  0
  1  2  2  0  0  0  0
  2  3  1  0  0  0  0
  2 16  1  0  0  0  0
  3  4  1  0  0  0  0
  3 25  1  0  0  0  0
  3 26  1  0  0  0  0
  4  5  1  0  0  0  0
  4 27  1  0  0  0  0
  4 28  1  0  0  0  0
  5 14  1  0  0  0  0
  5  6  1  0  0  0  0
  6  7  2  0  0  0  0
  6  8  1  0  0  0  0
  8 13  1  0  0  0  0
  8  9  1  0  0  0  0
  8 29  1  0  0  0  0
  9 10  1  0  0  0  0
  9 30  1  0  0  0  0
  9 31  1  0  0  0  0
 10 11  1  0  0  0  0
 10 32  1  0  0  0  0
 10 33  1  0  0  0  0
 11 12  1  0  0  0  0
 11 34  1  0  0  0  0
 11 35  1  0  0  0  0
 12 13  1  0  0  0  0
 12 36  1  0  0  0  0
 12 37  1  0  0  0  0
 13 14  1  0  0  0  0
 13 38  1  0  0  0  0
 14 15  2  0  0  0  0
 16 17  1  0  0  0  0
 16 39  1  0  0  0  0
 17 18  1  0  0  0  0
 17 40  1  0  0  0  0
 17 41  1  0  0  0  0
 18 19  1  0  0  0  0
 18 42  1  0  0  0  0
 18 43  1  0  0  0  0
 19 24  1  0  0  0  0
 19 20  2  0  0  0  0
 20 21  1  0  0  0  0
 20 44  1  0  0  0  0
 21 22  2  0  0  0  0
 21 45  1  0  0  0  0
 22 23  1  0  0  0  0
 22 46  1  0  0  0  0
 23 24  2  0  0  0  0
 23 47  1  0  0  0  0
 24 48  1  0  0  0  0
M  CHG  1  24   1
M  END
> <s_m_source_file>
AV-unprocessed.smi

> <i_m_source_file_index>
2159

> <i_lp_mmshare_version>
43012

> <i_f3d_flags>
0

> <s_epik_input>
bjFbY0hdW2NIXVtjSF1bY0hdYzFbQ0gyXVtDSDJdW05IXUMoPU8pW0NIMl1bQ0gyXU4oQzI9TylDKD1PKVtDQEhdKFtDQEBIXTIzKVtDSDJdW0NIMl1bQ0gyXVtDSDJdMw==

> <s_epik_cmdline>
J2VwaWtfcHl0aG9uJywgJy1waCcsICc3LjAnLCAnLXRuJywgJzgnLCAnLW1hJywgJzIwMCcsICctbWV0YWxfYmluZGluZycsICctaW1hZScsICc8aW5maWxlLm1hZT4nLCAnLW9tYWUnLCAnPG91dGZpbGUubWFlPic=

> <r_lp_tautomer_probability>
1

> <r_epik_Ionization_Penalty>
1.85146

> <r_epik_Ionization_Penalty_Charging>
1.85146

> <r_epik_Ionization_Penalty_Neutral>
2.95922e-08

> <r_epik_State_Penalty>
1.96899

> <r_epik_Charging_Adjusted_Penalty>
3.82044

> <i_epik_Tot_Q>
1

> <i_epik_Tot_abs_Q>
1

> <r_epik_Metal_State_Penalty>
1.99467

> <b_epik_Metal_Only>
0

> <s_lp_Force_Field>
OPLS_2005

> <r_lp_Energy>
35.9889

> <b_lp_Chiralities_Consistent>
1

> <s_lp_Variant>
AV-unprocessed.smi:2159-6

> <Gold.Version>
5.8.1

> <Gold.Id.Protein>
6NUR|6NUR_protein|mol2

> <Gold.PLP.Fitness>
53.1620

> <Gold.PLP.PLP>
-43.7248

> <Gold.PLP.part.hbond>
-3.0000

> <Gold.PLP.part.metal>
0.0000

> <Gold.PLP.part.buried>
-2.5647

> <Gold.PLP.part.nonpolar>
-37.2354

> <Gold.PLP.part.repulsive>
0.1751

> <Gold.PLP.ligand.clash>
0.0000

> <Gold.PLP.ligand.torsion>
1.0648

> <Gold.PLP.Chemscore.Hbond>
3.7680

> <Gold.PLP.Chemscore.CHOScore>
0.0000

> <Gold.PLP.Chemscore.Metal>
0.0000

> <Gold.Chemscore.Hbonds>
donor molecule, donor type, donor heavy atom, donor atom, acceptor molecule, acceptor atom, score
      L1  H    16    39       P1  7948  1.00
      L1  H    24    48       P1  7948  2.00
      P1  H  7989  7998       L1    15  0.75

> <Gold.PLP.Chemscore.Internal.Correction>
0.2628

> <Gold.Rescore>
     Score         DG    S(hbond)    S(metal)    S(lipo)     H(rot)  DE(clash)    DE(int)     intcor
     19.03     -20.78       2.67        0.00     100.48       2.10       0.02       1.74       ----

> <Gold.Chemscore.Fitness>
19.0254

> <Gold.Chemscore.DG>
-20.7811

> <Gold.Chemscore.ZeroCoef>
-5.4800

> <Gold.Chemscore.Hbond>
2.6679

> <Gold.Chemscore.Metal>
0.0000

> <Gold.Chemscore.Lipo>
100.4768

> <Gold.Chemscore.Internal_Hbond>
0.0000

> <Gold.Chemscore.DEClash>
0.0186

> <Gold.Chemscore.DEInternal>
1.7371

> <Gold.Chemscore.Rot>
2.0959

> <Gold.Chemscore.Internal.Correction>
   9.000000E+99

> <Gold.Chemscore.Hbonds>
donor molecule, donor type, donor heavy atom, donor atom, acceptor molecule, acceptor atom, score
      L1  H    16    39       P1  7948  0.67
      L1  H    24    48       P1  7948  0.44
      P1  H  7989  7998       L1    15  0.38

> <Gold.Chemscore.Hbond.Weighted>
-8.9108

> <Gold.Chemscore.Metal.Weighted>
-0.0000

> <Gold.Chemscore.Lipo.Weighted>
-11.7558

> <Gold.Chemscore.Internal_Hbond.Weighted>
0.0000

> <Gold.Chemscore.DEClash.Weighted>
0.0186

> <Gold.Chemscore.DEInternal.Weighted>
1.7371

> <Gold.Chemscore.Rot.Weighted>
5.3655

> <Gold.Chemscore.Internal.Correction.Weighted>
   9.000000E+99

> <Gold.Protein.RotatedTorsions>
[ 6907 6896 6895 6894 ] final  118.86 input  -60.11 | X-H torsion
[ 7974 7965 7964 7962 ] final  -88.19 input  175.53 | X-H torsion
[ 8008 7997 7996 7995 ] final  177.35 input   59.86 | X-H torsion
[ 10167 10162 10161 10158 ] final  -90.80 input  -65.29 | X-H torsion
[ 10718 10713 10712 10709 ] final  -16.08 input   66.30 | X-H torsion
[ 10763 10752 10751 10750 ] final   27.57 input  -60.55 | X-H torsion
[ 11005 11000 10999 10996 ] final  -46.22 input  -57.11 | X-H torsion

> <Gold.Protein.ActiveResidues>
 VAL166  LYS551  ARG553  GLY616  TRP617  ASP618  TYR619  PRO620  LYS621  CYS622 
 ASP623  PHE694  ASN695  SER759  ASP760  ASP761  ALA762  ILE779  LEU786  VAL792 
 PHE793  MET794  SER795  GLU796  ALA797  LYS798  CYS799  TRP800  GLU811  SER814 

> <Gold.Protein.RotatedAtoms>
  152.4513  133.7635  159.6759 H   0  0  0  0  0  0  0  0  0  0  0  0  # atno 6907 bound_to 6896
  150.8426  133.7902  159.3061 H   0  0  0  0  0  0  0  0  0  0  0  0  # atno 6908 bound_to 6896
  151.5522  135.1070  160.0004 H   0  0  0  0  0  0  0  0  0  0  0  0  # atno 6909 bound_to 6896
  145.4564  140.9561  143.1993 H   0  0  0  0  0  0  0  0  0  0  0  0  # atno 7974 bound_to 7965
  156.0666  140.1360  156.9879 H   0  0  0  0  0  0  0  0  0  0  0  0  # atno 8008 bound_to 7997
  154.4509  140.0980  156.6667 H   0  0  0  0  0  0  0  0  0  0  0  0  # atno 8009 bound_to 7997
  155.5295  140.3458  155.4425 H   0  0  0  0  0  0  0  0  0  0  0  0  # atno 8010 bound_to 7997
  140.3513  143.2890  151.9723 H   0  0  0  0  0  0  0  0  0  0  0  0  # atno 10167 bound_to 10162
  156.5927  130.4803  149.6272 H   0  0  0  0  0  0  0  0  0  0  0  0  # atno 10718 bound_to 10713
  153.0547  135.6534  154.0607 H   0  0  0  0  0  0  0  0  0  0  0  0  # atno 10763 bound_to 10752
  154.0287  135.2913  155.3373 H   0  0  0  0  0  0  0  0  0  0  0  0  # atno 10764 bound_to 10752
  154.6855  135.5303  153.8388 H   0  0  0  0  0  0  0  0  0  0  0  0  # atno 10765 bound_to 10752
  141.0565  133.6724  156.3123 H   0  0  0  0  0  0  0  0  0  0  0  0  # atno 11005 bound_to 11000
  144.8029  139.6106  143.7063 LP  0  0  0  0  0  0  0  0  0  0  0  0  # atno 17320 bound_to 7965
  146.2475  139.6130  142.9449 LP  0  0  0  0  0  0  0  0  0  0  0  0  # atno 17321 bound_to 7965
  139.4826  144.6073  151.7497 LP  0  0  0  0  0  0  0  0  0  0  0  0  # atno 17342 bound_to 10162
  140.5216  144.0870  150.6024 LP  0  0  0  0  0  0  0  0  0  0  0  0  # atno 17343 bound_to 10162
  156.2536  130.6921  151.1667 LP  0  0  0  0  0  0  0  0  0  0  0  0  # atno 17370 bound_to 10713
  157.7299  131.0620  150.5750 LP  0  0  0  0  0  0  0  0  0  0  0  0  # atno 17371 bound_to 10713
  140.5954  134.5609  157.5507 LP  0  0  0  0  0  0  0  0  0  0  0  0  # atno 17394 bound_to 11000
  139.9394  134.7814  156.0716 LP  0  0  0  0  0  0  0  0  0  0  0  0  # atno 17395 bound_to 11000

$$$$
