AV-unprocessed.smi:276|AV-procd|sdf|2084|dock6
  -GOLD-   2262021353D 1   1.00000     0.00000
 Structure written by MMmdl.
 57 61  0  0  0  0  0  0  0  0  1 V2000
  151.5117  144.9558  159.2085 C   0  0  0  0  0  0  0  0  0  0  0  0
  152.5609  144.0038  159.1920 O   0  0  0  0  0  0  0  0  0  0  0  0
  152.1357  142.7161  159.6088 C   0  0  2  0  0  0  0  0  0  0  0  0
  153.2204  141.6350  159.5362 C   0  0  0  0  0  0  0  0  0  0  0  0
  152.1163  140.6770  159.0691 C   0  0  2  0  0  0  0  0  0  0  0  0
  152.5787  139.7025  158.0777 N   0  0  0  0  0  0  0  0  0  0  0  0
  153.6009  138.7658  158.5272 C   0  0  0  0  0  0  0  0  0  0  0  0
  151.6139  139.0437  157.3961 C   0  0  0  0  0  0  0  0  0  0  0  0
  151.5614  139.2476  156.0558 N   0  0  0  0  0  0  0  0  0  0  0  0
  150.6269  138.6377  155.3209 C   0  0  0  0  0  0  0  0  0  0  0  0
  149.6722  137.7932  155.7170 N   0  0  0  0  0  0  0  0  0  0  0  0
  149.7374  137.5681  157.0607 C   0  0  0  0  0  0  0  0  0  0  0  0
  150.6718  138.1410  157.9691 C   0  0  0  0  0  0  0  0  0  0  0  0
  150.4365  137.6587  159.2519 N   0  0  0  0  0  0  0  0  0  0  0  0
  149.4139  136.8601  159.1120 C   0  0  0  0  0  0  0  0  0  0  0  0
  148.9307  136.7489  157.8287 N   0  0  0  0  0  0  0  0  0  0  0  0
  147.8120  135.9362  157.3864 C   0  0  0  0  0  0  0  0  0  0  0  0
  147.9603  134.4589  157.7972 C   0  0  1  0  0  0  0  0  0  0  0  0
  149.1376  133.9036  157.2410 O   0  0  0  0  0  0  0  0  0  0  0  0
  147.9266  134.2631  159.3269 C   0  0  1  0  0  0  0  0  0  0  0  0
  146.9216  135.1126  160.1110 C   0  0  0  0  0  0  0  0  0  0  0  0
  146.6401  134.2754  161.3524 C   0  0  0  0  0  0  0  0  0  0  0  0
  147.3411  132.9393  161.0857 C   0  0  0  0  0  0  0  0  0  0  0  0
  147.6025  132.9308  159.6902 O   0  0  0  0  0  0  0  0  0  0  0  0
  151.3764  141.9281  158.5237 C   0  0  0  0  0  0  0  0  0  0  0  0
  149.8458  141.9938  158.4414 C   0  0  0  0  0  0  0  0  0  0  0  0
  149.9513  142.0073  156.9128 C   0  0  0  0  0  0  0  0  0  0  0  0
  151.4355  142.3646  157.0454 C   0  0  0  0  0  0  0  0  0  0  0  0
  151.8880  145.9209  158.8696 H   0  0  0  0  0  0  0  0  0  0  0  0
  151.1094  145.0864  160.2139 H   0  0  0  0  0  0  0  0  0  0  0  0
  150.7002  144.6584  158.5429 H   0  0  0  0  0  0  0  0  0  0  0  0
  151.5995  142.7193  160.5608 H   0  0  0  0  0  0  0  0  0  0  0  0
  153.9731  141.8406  158.7723 H   0  0  0  0  0  0  0  0  0  0  0  0
  153.6738  141.3792  160.4941 H   0  0  0  0  0  0  0  0  0  0  0  0
  151.6048  140.2365  159.9261 H   0  0  0  0  0  0  0  0  0  0  0  0
  153.2075  138.1082  159.3035 H   0  0  0  0  0  0  0  0  0  0  0  0
  154.4603  139.2974  158.9358 H   0  0  0  0  0  0  0  0  0  0  0  0
  153.9590  138.1480  157.7023 H   0  0  0  0  0  0  0  0  0  0  0  0
  150.6459  138.8597  154.2641 H   0  0  0  0  0  0  0  0  0  0  0  0
  148.9845  136.3225  159.9450 H   0  0  0  0  0  0  0  0  0  0  0  0
  146.8928  136.3582  157.7953 H   0  0  0  0  0  0  0  0  0  0  0  0
  147.7382  136.0202  156.3016 H   0  0  0  0  0  0  0  0  0  0  0  0
  147.1254  133.8985  157.3744 H   0  0  0  0  0  0  0  0  0  0  0  0
  148.8985  133.1476  156.7271 H   0  0  0  0  0  0  0  0  0  0  0  0
  148.9255  134.4652  159.7187 H   0  0  0  0  0  0  0  0  0  0  0  0
  147.3178  136.0999  160.3497 H   0  0  0  0  0  0  0  0  0  0  0  0
  145.9932  135.2527  159.5571 H   0  0  0  0  0  0  0  0  0  0  0  0
  147.0239  134.7451  162.2586 H   0  0  0  0  0  0  0  0  0  0  0  0
  145.5660  134.1348  161.4790 H   0  0  0  0  0  0  0  0  0  0  0  0
  148.2878  132.8896  161.6258 H   0  0  0  0  0  0  0  0  0  0  0  0
  146.7367  132.0816  161.3813 H   0  0  0  0  0  0  0  0  0  0  0  0
  149.3272  141.1268  158.8501 H   0  0  0  0  0  0  0  0  0  0  0  0
  149.4447  142.9262  158.8408 H   0  0  0  0  0  0  0  0  0  0  0  0
  149.7848  141.0269  156.4667 H   0  0  0  0  0  0  0  0  0  0  0  0
  149.3466  142.7733  156.4271 H   0  0  0  0  0  0  0  0  0  0  0  0
  151.6063  143.4338  156.9167 H   0  0  0  0  0  0  0  0  0  0  0  0
  152.1013  141.7840  156.4076 H   0  0  0  0  0  0  0  0  0  0  0  0
  1  2  1  0  0  0  0
  1 29  1  0  0  0  0
  1 30  1  0  0  0  0
  1 31  1  0  0  0  0
  2  3  1  0  0  0  0
  3 25  1  0  0  0  0
  3  4  1  0  0  0  0
  3 32  1  0  0  0  0
  4  5  1  0  0  0  0
  4 33  1  0  0  0  0
  4 34  1  0  0  0  0
  5  6  1  0  0  0  0
  5 25  1  0  0  0  0
  5 35  1  0  0  0  0
  6  7  1  0  0  0  0
  6  8  1  0  0  0  0
  7 36  1  0  0  0  0
  7 37  1  0  0  0  0
  7 38  1  0  0  0  0
  8 13  1  0  0  0  0
  8  9  2  0  0  0  0
  9 10  1  0  0  0  0
 10 11  2  0  0  0  0
 10 39  1  0  0  0  0
 11 12  1  0  0  0  0
 12 16  1  0  0  0  0
 12 13  2  0  0  0  0
 13 14  1  0  0  0  0
 14 15  2  0  0  0  0
 15 16  1  0  0  0  0
 15 40  1  0  0  0  0
 16 17  1  0  0  0  0
 17 18  1  0  0  0  0
 17 41  1  0  0  0  0
 17 42  1  0  0  0  0
 18 19  1  0  0  0  0
 18 20  1  0  0  0  0
 18 43  1  0  0  0  0
 19 44  1  0  0  0  0
 20 24  1  0  0  0  0
 20 21  1  0  0  0  0
 20 45  1  0  0  0  0
 21 22  1  0  0  0  0
 21 46  1  0  0  0  0
 21 47  1  0  0  0  0
 22 23  1  0  0  0  0
 22 48  1  0  0  0  0
 22 49  1  0  0  0  0
 23 24  1  0  0  0  0
 23 50  1  0  0  0  0
 23 51  1  0  0  0  0
 25 28  1  0  0  0  0
 25 26  1  0  0  0  0
 26 27  1  0  0  0  0
 26 52  1  0  0  0  0
 26 53  1  0  0  0  0
 27 28  1  0  0  0  0
 27 54  1  0  0  0  0
 27 55  1  0  0  0  0
 28 56  1  0  0  0  0
 28 57  1  0  0  0  0
M  END
> <s_m_source_file>
AV-unprocessed.smi

> <i_m_source_file_index>
276

> <i_lp_mmshare_version>
43012

> <i_f3d_flags>
0

> <s_epik_input>
W0NIMl0xW0NIMl1bQ0gyXUMxMltDQEhdKE9bQ0gzXSlbQ0gyXVtDQEhdMk4oW0NIM10pYyhuW2NIXW4zKWMoYzM0KW5bY0hdbjRbQ0gyXVtDQEhdKFtPSF0pW0NAQEhdNVtDSDJdW0NIMl1bQ0gyXU81

> <s_epik_cmdline>
J2VwaWtfcHl0aG9uJywgJy1waCcsICc3LjAnLCAnLXRuJywgJzgnLCAnLW1hJywgJzIwMCcsICctbWV0YWxfYmluZGluZycsICctaW1hZScsICc8aW5maWxlLm1hZT4nLCAnLW9tYWUnLCAnPG91dGZpbGUubWFlPic=

> <r_lp_tautomer_probability>
1

> <r_epik_Ionization_Penalty>
0.00204117

> <r_epik_Ionization_Penalty_Charging>
0

> <r_epik_Ionization_Penalty_Neutral>
0.00204117

> <r_epik_State_Penalty>
0.00127401

> <r_epik_Charging_Adjusted_Penalty>
0.00127401

> <i_epik_Tot_Q>
0

> <i_epik_Tot_abs_Q>
0

> <r_epik_Metal_State_Penalty>
-0

> <b_epik_Metal_Only>
0

> <s_lp_Force_Field>
OPLS_2005

> <r_lp_Energy>
58.0628

> <b_lp_Chiralities_Consistent>
1

> <s_lp_Variant>
AV-unprocessed.smi:276-15

> <Gold.Version>
5.8.1

> <Gold.Id.Protein>
6NUR|6NUR_protein|mol2

> <Gold.PLP.Fitness>
43.1875

> <Gold.PLP.PLP>
-40.8839

> <Gold.PLP.part.hbond>
-2.0000

> <Gold.PLP.part.metal>
0.0000

> <Gold.PLP.part.buried>
-7.4970

> <Gold.PLP.part.nonpolar>
-31.7143

> <Gold.PLP.part.repulsive>
0.0370

> <Gold.PLP.ligand.clash>
0.0000

> <Gold.PLP.ligand.torsion>
0.6993

> <Gold.PLP.Chemscore.Hbond>
1.0000

> <Gold.PLP.Chemscore.CHOScore>
0.0000

> <Gold.PLP.Chemscore.Metal>
0.0000

> <Gold.PLP.Chemscore.Internal.Correction>
0.7021

> <Gold.Rescore>
     Score         DG    S(hbond)    S(metal)    S(lipo)     H(rot)  DE(clash)    DE(int)     intcor
     13.60     -14.48       0.97        0.00     108.74       2.72       0.37       0.52       ----

> <Gold.Chemscore.Fitness>
13.5954

> <Gold.Chemscore.DG>
-14.4846

> <Gold.Chemscore.ZeroCoef>
-5.4800

> <Gold.Chemscore.Hbond>
0.9696

> <Gold.Chemscore.Metal>
0.0000

> <Gold.Chemscore.Lipo>
108.7351

> <Gold.Chemscore.Internal_Hbond>
0.0000

> <Gold.Chemscore.DEClash>
0.3687

> <Gold.Chemscore.DEInternal>
0.5205

> <Gold.Chemscore.Rot>
2.7172

> <Gold.Chemscore.Internal.Correction>
   9.000000E+99

> <Gold.Chemscore.Hbond.Weighted>
-3.2385

> <Gold.Chemscore.Metal.Weighted>
-0.0000

> <Gold.Chemscore.Lipo.Weighted>
-12.7220

> <Gold.Chemscore.Internal_Hbond.Weighted>
0.0000

> <Gold.Chemscore.DEClash.Weighted>
0.3687

> <Gold.Chemscore.DEInternal.Weighted>
0.5205

> <Gold.Chemscore.Rot.Weighted>
6.9560

> <Gold.Chemscore.Internal.Correction.Weighted>
   9.000000E+99

> <Gold.Protein.RotatedTorsions>
[ 6907 6896 6895 6894 ] final   12.48 input  -60.11 | X-H torsion
[ 7974 7965 7964 7962 ] final  161.18 input  175.53 | X-H torsion
[ 8008 7997 7996 7995 ] final  103.69 input   59.86 | X-H torsion
[ 10167 10162 10161 10158 ] final  -40.32 input  -65.29 | X-H torsion
[ 10718 10713 10712 10709 ] final   75.73 input   66.30 | X-H torsion
[ 10763 10752 10751 10750 ] final    9.06 input  -60.55 | X-H torsion
[ 11005 11000 10999 10996 ] final  -42.55 input  -57.11 | X-H torsion

> <Gold.Protein.ActiveResidues>
 VAL166  LYS551  ARG553  GLY616  TRP617  ASP618  TYR619  PRO620  LYS621  CYS622 
 ASP623  PHE694  ASN695  SER759  ASP760  ASP761  ALA762  ILE779  LEU786  VAL792 
 PHE793  MET794  SER795  GLU796  ALA797  LYS798  CYS799  TRP800  GLU811  SER814 

> <Gold.Protein.RotatedAtoms>
  151.7710  135.0786  160.0359 H   0  0  0  0  0  0  0  0  0  0  0  0  # atno 6907 bound_to 6896
  152.3288  133.5931  159.5804 H   0  0  0  0  0  0  0  0  0  0  0  0  # atno 6908 bound_to 6896
  150.7411  133.9815  159.3619 H   0  0  0  0  0  0  0  0  0  0  0  0  # atno 6909 bound_to 6896
  144.7699  139.7862  143.6301 H   0  0  0  0  0  0  0  0  0  0  0  0  # atno 7974 bound_to 7965
  156.1506  140.3160  155.8642 H   0  0  0  0  0  0  0  0  0  0  0  0  # atno 8008 bound_to 7997
  155.3978  140.0498  157.3055 H   0  0  0  0  0  0  0  0  0  0  0  0  # atno 8009 bound_to 7997
  154.5055  140.2145  155.9271 H   0  0  0  0  0  0  0  0  0  0  0  0  # atno 8010 bound_to 7997
  140.7038  143.3160  151.2908 H   0  0  0  0  0  0  0  0  0  0  0  0  # atno 10167 bound_to 10162
  157.6646  130.9740  150.1396 H   0  0  0  0  0  0  0  0  0  0  0  0  # atno 10718 bound_to 10713
  153.2181  135.6877  153.8032 H   0  0  0  0  0  0  0  0  0  0  0  0  # atno 10763 bound_to 10752
  153.7241  135.3263  155.3273 H   0  0  0  0  0  0  0  0  0  0  0  0  # atno 10764 bound_to 10752
  154.8256  135.4620  154.1017 H   0  0  0  0  0  0  0  0  0  0  0  0  # atno 10765 bound_to 10752
  141.0323  133.6814  156.2610 H   0  0  0  0  0  0  0  0  0  0  0  0  # atno 11005 bound_to 11000
  146.1837  139.5041  142.9850 LP  0  0  0  0  0  0  0  0  0  0  0  0  # atno 17320 bound_to 7965
  145.6356  141.0295  143.1839 LP  0  0  0  0  0  0  0  0  0  0  0  0  # atno 17321 bound_to 7965
  139.6599  144.0208  152.2685 LP  0  0  0  0  0  0  0  0  0  0  0  0  # atno 17342 bound_to 10162
  139.9772  144.6453  150.7934 LP  0  0  0  0  0  0  0  0  0  0  0  0  # atno 17343 bound_to 10162
  156.2222  130.3675  149.8542 LP  0  0  0  0  0  0  0  0  0  0  0  0  # atno 17370 bound_to 10713
  156.6392  130.8698  151.3510 LP  0  0  0  0  0  0  0  0  0  0  0  0  # atno 17371 bound_to 10713
  140.6384  134.5191  157.5567 LP  0  0  0  0  0  0  0  0  0  0  0  0  # atno 17394 bound_to 11000
  139.9216  134.8137  156.1193 LP  0  0  0  0  0  0  0  0  0  0  0  0  # atno 17395 bound_to 11000

$$$$
