AV-unprocessed.smi:1405|AV-procd|sdf|5707|dock2
  -GOLD-   22720 5343D 1   1.00000     0.00000
 Structure written by MMmdl.
 49 52  0  0  0  0  0  0  0  0  1 V2000
  146.7288  137.5640  159.7350 O   0  0  0  0  0  0  0  0  0  0  0  0
  147.4777  136.8185  160.3656 C   0  0  0  0  0  0  0  0  0  0  0  0
  147.1217  136.4567  161.8183 C   0  0  0  0  0  0  0  0  0  0  0  0
  145.7526  135.9505  162.0129 N   0  0  0  0  0  0  0  0  0  0  0  0
  145.5412  134.6250  162.3655 C   0  0  0  0  0  0  0  0  0  0  0  0
  144.3119  134.0935  162.5657 C   0  0  0  0  0  0  0  0  0  0  0  0
  143.1174  134.9174  162.4147 C   0  0  0  0  0  0  0  0  0  0  0  0
  141.9626  134.5285  162.5746 O   0  0  0  0  0  0  0  0  0  0  0  0
  143.3711  136.2451  162.0607 N   0  0  0  0  0  0  0  0  0  0  0  0
  144.6351  136.7996  161.8537 C   0  0  0  0  0  0  0  0  0  0  0  0
  144.7475  137.9869  161.5514 O   0  0  0  0  0  0  0  0  0  0  0  0
  148.6030  136.3056  159.8393 N   0  0  0  0  0  0  0  0  0  0  0  0
  149.1009  136.5673  158.4950 C   0  0  0  0  0  0  0  0  0  0  0  0
  150.2431  137.6043  158.5186 C   0  0  0  0  0  0  0  0  0  0  0  0
  150.5955  138.2697  157.1636 C   0  0  0  0  0  0  0  0  0  0  0  0
  149.3487  138.9158  156.5002 C   0  0  0  0  0  0  0  0  0  0  0  0
  149.7422  139.6166  155.1814 C   0  0  2  0  0  0  0  0  0  0  0  0
  150.3498  138.5833  154.2092 C   0  0  0  0  0  0  0  0  0  0  0  0
  151.6072  137.9585  154.8505 C   0  0  1  0  0  0  0  0  0  0  0  0
  152.6444  139.0630  155.1386 C   0  0  0  0  0  0  0  0  0  0  0  0
  152.0295  140.0931  156.1079 C   0  0  1  0  0  0  0  0  0  0  0  0
  150.7752  140.7249  155.4704 C   0  0  0  0  0  0  0  0  0  0  0  0
  151.6384  139.3904  157.4247 C   0  0  0  0  0  0  0  0  0  0  0  0
  151.2187  137.2534  156.1685 C   0  0  0  0  0  0  0  0  0  0  0  0
  142.5740  136.8543  161.9459 H   0  0  0  0  0  0  0  0  0  0  0  0
  147.8489  135.7292  162.1844 H   0  0  0  0  0  0  0  0  0  0  0  0
  147.2794  137.3444  162.4324 H   0  0  0  0  0  0  0  0  0  0  0  0
  146.3979  133.9780  162.4918 H   0  0  0  0  0  0  0  0  0  0  0  0
  144.2117  133.0532  162.8398 H   0  0  0  0  0  0  0  0  0  0  0  0
  149.1635  135.7021  160.4234 H   0  0  0  0  0  0  0  0  0  0  0  0
  149.4519  135.6184  158.0912 H   0  0  0  0  0  0  0  0  0  0  0  0
  148.2780  136.8938  157.8590 H   0  0  0  0  0  0  0  0  0  0  0  0
  149.9892  138.3874  159.2348 H   0  0  0  0  0  0  0  0  0  0  0  0
  151.1367  137.1219  158.9178 H   0  0  0  0  0  0  0  0  0  0  0  0
  148.5898  138.1633  156.2866 H   0  0  0  0  0  0  0  0  0  0  0  0
  148.8861  139.6329  157.1800 H   0  0  0  0  0  0  0  0  0  0  0  0
  148.8543  140.0593  154.7291 H   0  0  0  0  0  0  0  0  0  0  0  0
  149.6190  137.8080  153.9759 H   0  0  0  0  0  0  0  0  0  0  0  0
  150.6056  139.0603  153.2621 H   0  0  0  0  0  0  0  0  0  0  0  0
  152.0385  137.2289  154.1645 H   0  0  0  0  0  0  0  0  0  0  0  0
  153.5482  138.6299  155.5692 H   0  0  0  0  0  0  0  0  0  0  0  0
  152.9471  139.5500  154.2108 H   0  0  0  0  0  0  0  0  0  0  0  0
  152.7613  140.8740  156.3176 H   0  0  0  0  0  0  0  0  0  0  0  0
  151.0399  141.2457  154.5492 H   0  0  0  0  0  0  0  0  0  0  0  0
  150.3485  141.4750  156.1374 H   0  0  0  0  0  0  0  0  0  0  0  0
  151.2388  140.1237  158.1267 H   0  0  0  0  0  0  0  0  0  0  0  0
  152.5299  138.9745  157.8967 H   0  0  0  0  0  0  0  0  0  0  0  0
  152.0963  136.7798  156.6106 H   0  0  0  0  0  0  0  0  0  0  0  0
  150.5164  136.4502  155.9448 H   0  0  0  0  0  0  0  0  0  0  0  0
  1  2  2  0  0  0  0
  2  3  1  0  0  0  0
  2 12  1  0  0  0  0
  3  4  1  0  0  0  0
  3 26  1  0  0  0  0
  3 27  1  0  0  0  0
  4 10  1  0  0  0  0
  4  5  1  0  0  0  0
  5  6  2  0  0  0  0
  5 28  1  0  0  0  0
  6  7  1  0  0  0  0
  6 29  1  0  0  0  0
  7  8  2  0  0  0  0
  7  9  1  0  0  0  0
  9 25  1  0  0  0  0
  9 10  1  0  0  0  0
 10 11  2  0  0  0  0
 12 13  1  0  0  0  0
 12 30  1  0  0  0  0
 13 14  1  0  0  0  0
 13 31  1  0  0  0  0
 13 32  1  0  0  0  0
 14 15  1  0  0  0  0
 14 33  1  0  0  0  0
 14 34  1  0  0  0  0
 15 23  1  0  0  0  0
 15 24  1  0  0  0  0
 15 16  1  0  0  0  0
 16 17  1  0  0  0  0
 16 35  1  0  0  0  0
 16 36  1  0  0  0  0
 17 22  1  0  0  0  0
 17 18  1  0  0  0  0
 17 37  1  0  0  0  0
 18 19  1  0  0  0  0
 18 38  1  0  0  0  0
 18 39  1  0  0  0  0
 19 20  1  0  0  0  0
 19 24  1  0  0  0  0
 19 40  1  0  0  0  0
 20 21  1  0  0  0  0
 20 41  1  0  0  0  0
 20 42  1  0  0  0  0
 21 22  1  0  0  0  0
 21 23  1  0  0  0  0
 21 43  1  0  0  0  0
 22 44  1  0  0  0  0
 22 45  1  0  0  0  0
 23 46  1  0  0  0  0
 23 47  1  0  0  0  0
 24 48  1  0  0  0  0
 24 49  1  0  0  0  0
M  END
> <s_m_source_file>
AV-unprocessed.smi

> <i_m_source_file_index>
1405

> <i_lp_mmshare_version>
43012

> <i_f3d_flags>
0

> <s_epik_input>
Tz1jMVtuSF1jKD1PKVtjSF1bY0hdbjFbQ0gyXUMoPU8pW05IXVtDSDJdW0NIMl1DMjNbQ0gyXVtDQEBIXTRbQ0gyXVtDQEhdKFtDSDJdMylbQ0gyXVtDQEBIXShbQ0gyXTQpW0NIMl0y

> <s_epik_cmdline>
J2VwaWtfcHl0aG9uJywgJy1waCcsICc3LjAnLCAnLXRuJywgJzgnLCAnLW1hJywgJzIwMCcsICctbWV0YWxfYmluZGluZycsICctaW1hZScsICc8aW5maWxlLm1hZT4nLCAnLW9tYWUnLCAnPG91dGZpbGUubWFlPic=

> <r_lp_tautomer_probability>
0.999537

> <r_epik_Ionization_Penalty>
0.00301971

> <r_epik_Ionization_Penalty_Charging>
0.00301969

> <r_epik_Ionization_Penalty_Neutral>
2.18059e-08

> <r_epik_State_Penalty>
0.00212114

> <r_epik_Charging_Adjusted_Penalty>
0.00514083

> <i_epik_Tot_Q>
0

> <i_epik_Tot_abs_Q>
0

> <r_epik_Metal_State_Penalty>
0.361473

> <b_epik_Metal_Only>
0

> <s_lp_Force_Field>
OPLS_2005

> <r_lp_Energy>
33.2851

> <b_lp_Chiralities_Consistent>
1

> <s_lp_Variant>
AV-unprocessed.smi:1405-1

> <Gold.Version>
5.8.1

> <Gold.Id.Protein>
6NUR|6NUR_protein|mol2

> <Gold.PLP.Fitness>
45.2520

> <Gold.PLP.PLP>
-42.9410

> <Gold.PLP.part.hbond>
-1.8224

> <Gold.PLP.part.metal>
0.0000

> <Gold.PLP.part.buried>
-5.7231

> <Gold.PLP.part.nonpolar>
-36.3170

> <Gold.PLP.part.repulsive>
0.4408

> <Gold.PLP.ligand.clash>
0.0000

> <Gold.PLP.ligand.torsion>
0.3740

> <Gold.PLP.Chemscore.Hbond>
1.0000

> <Gold.PLP.Chemscore.CHOScore>
0.0000

> <Gold.PLP.Chemscore.Metal>
0.0000

> <Gold.Chemscore.Hbonds>
donor molecule, donor type, donor heavy atom, donor atom, acceptor molecule, acceptor atom, score
      P1  H  6934  6947       L1     1  0.55

> <Gold.PLP.Chemscore.Internal.Correction>
0.0590

> <Gold.Rescore>
     Score         DG    S(hbond)    S(metal)    S(lipo)     H(rot)  DE(clash)    DE(int)     intcor
     10.87     -12.80       0.99        0.00      82.06       2.18       0.02       1.91       ----

> <Gold.Chemscore.Fitness>
10.8655

> <Gold.Chemscore.DG>
-12.8030

> <Gold.Chemscore.ZeroCoef>
-5.4800

> <Gold.Chemscore.Hbond>
0.9886

> <Gold.Chemscore.Metal>
0.0000

> <Gold.Chemscore.Lipo>
82.0599

> <Gold.Chemscore.Internal_Hbond>
0.0000

> <Gold.Chemscore.DEClash>
0.0234

> <Gold.Chemscore.DEInternal>
1.9141

> <Gold.Chemscore.Rot>
2.1797

> <Gold.Chemscore.Internal.Correction>
   9.000000E+99

> <Gold.Chemscore.Hbonds>
donor molecule, donor type, donor heavy atom, donor atom, acceptor molecule, acceptor atom, score
      P1  H  6934  6947       L1     1  0.03

> <Gold.Chemscore.Hbond.Weighted>
-3.3020

> <Gold.Chemscore.Metal.Weighted>
-0.0000

> <Gold.Chemscore.Lipo.Weighted>
-9.6010

> <Gold.Chemscore.Internal_Hbond.Weighted>
0.0000

> <Gold.Chemscore.DEClash.Weighted>
0.0234

> <Gold.Chemscore.DEInternal.Weighted>
1.9141

> <Gold.Chemscore.Rot.Weighted>
5.5799

> <Gold.Chemscore.Internal.Correction.Weighted>
   9.000000E+99

> <Gold.Protein.RotatedTorsions>
[ 6907 6896 6895 6894 ] final   98.74 input  -60.11 | X-H torsion
[ 7974 7965 7964 7962 ] final  -26.78 input  175.53 | X-H torsion
[ 8008 7997 7996 7995 ] final   47.98 input   59.86 | X-H torsion
[ 10167 10162 10161 10158 ] final   80.91 input  -65.29 | X-H torsion
[ 10718 10713 10712 10709 ] final -166.42 input   66.30 | X-H torsion
[ 10763 10752 10751 10750 ] final  134.25 input  -60.55 | X-H torsion
[ 11005 11000 10999 10996 ] final  -99.98 input  -57.11 | X-H torsion

> <Gold.Protein.ActiveResidues>
 VAL166  LYS551  ARG553  GLY616  TRP617  ASP618  TYR619  PRO620  LYS621  CYS622 
 ASP623  PHE694  ASN695  SER759  ASP760  ASP761  ALA762  ILE779  LEU786  VAL792 
 PHE793  MET794  SER795  GLU796  ALA797  LYS798  CYS799  TRP800  GLU811  SER814 

> <Gold.Protein.RotatedAtoms>
  152.5404  134.0535  159.8120 H   0  0  0  0  0  0  0  0  0  0  0  0  # atno 6907 bound_to 6896
  151.0673  133.5487  159.2637 H   0  0  0  0  0  0  0  0  0  0  0  0  # atno 6908 bound_to 6896
  151.2364  135.0581  159.9061 H   0  0  0  0  0  0  0  0  0  0  0  0  # atno 6909 bound_to 6896
  146.1403  140.5064  142.8655 H   0  0  0  0  0  0  0  0  0  0  0  0  # atno 7974 bound_to 7965
  155.3780  140.3427  155.4245 H   0  0  0  0  0  0  0  0  0  0  0  0  # atno 8008 bound_to 7997
  156.1626  140.1605  156.8620 H   0  0  0  0  0  0  0  0  0  0  0  0  # atno 8009 bound_to 7997
  154.5154  140.0780  156.8053 H   0  0  0  0  0  0  0  0  0  0  0  0  # atno 8010 bound_to 7997
  139.9448  144.6066  150.8217 H   0  0  0  0  0  0  0  0  0  0  0  0  # atno 10167 bound_to 10162
  156.6676  130.9071  151.3039 H   0  0  0  0  0  0  0  0  0  0  0  0  # atno 10718 bound_to 10713
  153.8205  135.3117  155.3410 H   0  0  0  0  0  0  0  0  0  0  0  0  # atno 10763 bound_to 10752
  154.8014  135.4724  154.0289 H   0  0  0  0  0  0  0  0  0  0  0  0  # atno 10764 bound_to 10752
  153.1696  135.6875  153.8716 H   0  0  0  0  0  0  0  0  0  0  0  0  # atno 10765 bound_to 10752
  141.1288  133.8363  157.1042 H   0  0  0  0  0  0  0  0  0  0  0  0  # atno 11005 bound_to 11000
  144.7784  140.5789  143.6622 LP  0  0  0  0  0  0  0  0  0  0  0  0  # atno 17320 bound_to 7965
  145.5063  139.1481  143.3629 LP  0  0  0  0  0  0  0  0  0  0  0  0  # atno 17321 bound_to 7965
  140.7600  143.3142  151.2772 LP  0  0  0  0  0  0  0  0  0  0  0  0  # atno 17342 bound_to 10162
  139.6675  144.0078  152.2732 LP  0  0  0  0  0  0  0  0  0  0  0  0  # atno 17343 bound_to 10162
  157.7088  130.9416  150.1020 LP  0  0  0  0  0  0  0  0  0  0  0  0  # atno 17370 bound_to 10713
  156.1963  130.3657  149.8844 LP  0  0  0  0  0  0  0  0  0  0  0  0  # atno 17371 bound_to 10713
  140.0315  134.9899  157.0788 LP  0  0  0  0  0  0  0  0  0  0  0  0  # atno 17394 bound_to 11000
  140.4278  134.1812  155.7167 LP  0  0  0  0  0  0  0  0  0  0  0  0  # atno 17395 bound_to 11000

$$$$
