AV-unprocessed.smi:1413|AV-procd|sdf|5759|dock5
  -GOLD-   22720 5393D 1   1.00000     0.00000
 Structure written by MMmdl.
 53 55  0  0  0  0  0  0  0  0  1 V2000
  151.8828  144.3064  157.4022 C   0  0  0  0  0  0  0  0  0  0  0  0
  151.1123  143.5243  158.4810 C   0  0  1  0  0  0  0  0  0  0  0  0
  150.4382  142.2452  157.9464 C   0  0  0  0  0  0  0  0  0  0  0  0
  151.4205  141.1875  157.7278 N   0  0  0  0  0  0  0  0  0  0  0  0
  150.9669  140.0858  156.9722 C   0  0  0  0  0  0  0  0  0  0  0  0
  150.3268  139.0018  157.6165 C   0  0  0  0  0  0  0  0  0  0  0  0
  149.8822  137.9113  156.8457 C   0  0  0  0  0  0  0  0  0  0  0  0
  150.0926  137.9209  155.4534 C   0  0  0  0  0  0  0  0  0  0  0  0
  149.6153  136.8171  154.6968 N   0  0  0  0  0  0  0  0  0  0  0  0
  149.3546  135.5676  155.1166 C   0  0  0  0  0  0  0  0  0  0  0  0
  149.4523  135.1736  156.2785 O   0  0  0  0  0  0  0  0  0  0  0  0
  148.9504  134.7931  154.0993 N   0  0  0  0  0  0  0  0  0  0  0  0
  148.5584  133.3877  154.1925 C   0  0  1  0  0  0  0  0  0  0  0  0
  147.7811  133.0088  152.9235 C   0  0  0  0  0  0  0  0  0  0  0  0
  149.7979  132.4910  154.3910 C   0  0  1  0  0  0  0  0  0  0  0  0
  150.5150  132.6574  155.7311 C   0  0  0  0  0  0  0  0  0  0  0  0
  151.2557  131.3413  155.8961 C   0  0  0  0  0  0  0  0  0  0  0  0
  150.5269  130.3842  154.9479 C   0  0  0  0  0  0  0  0  0  0  0  0
  149.4264  131.1219  154.4324 O   0  0  0  0  0  0  0  0  0  0  0  0
  150.7273  139.0549  154.8938 C   0  0  0  0  0  0  0  0  0  0  0  0
  151.1517  140.1042  155.6294 N   0  0  0  0  0  0  0  0  0  0  0  0
  152.2496  140.9230  158.9001 C   0  0  0  0  0  0  0  0  0  0  0  0
  152.9221  142.2201  159.3837 C   0  0  2  0  0  0  0  0  0  0  0  0
  153.6959  142.0097  160.6895 C   0  0  0  0  0  0  0  0  0  0  0  0
  151.9281  143.2180  159.6143 O   0  0  0  0  0  0  0  0  0  0  0  0
  151.2092  144.6382  156.6120 H   0  0  0  0  0  0  0  0  0  0  0  0
  152.6608  143.7061  156.9311 H   0  0  0  0  0  0  0  0  0  0  0  0
  152.3538  145.1932  157.8266 H   0  0  0  0  0  0  0  0  0  0  0  0
  150.3247  144.1849  158.8447 H   0  0  0  0  0  0  0  0  0  0  0  0
  149.7104  141.8858  158.6749 H   0  0  0  0  0  0  0  0  0  0  0  0
  149.8808  142.4797  157.0402 H   0  0  0  0  0  0  0  0  0  0  0  0
  150.1599  139.0034  158.6834 H   0  0  0  0  0  0  0  0  0  0  0  0
  149.3866  137.0783  157.3225 H   0  0  0  0  0  0  0  0  0  0  0  0
  149.4016  137.0146  153.7303 H   0  0  0  0  0  0  0  0  0  0  0  0
  148.9027  135.2111  153.1818 H   0  0  0  0  0  0  0  0  0  0  0  0
  147.8882  133.2461  155.0424 H   0  0  0  0  0  0  0  0  0  0  0  0
  147.4385  131.9747  152.9647 H   0  0  0  0  0  0  0  0  0  0  0  0
  148.3985  133.1184  152.0312 H   0  0  0  0  0  0  0  0  0  0  0  0
  146.9005  133.6399  152.8000 H   0  0  0  0  0  0  0  0  0  0  0  0
  150.5071  132.6377  153.5735 H   0  0  0  0  0  0  0  0  0  0  0  0
  151.1774  133.5231  155.7552 H   0  0  0  0  0  0  0  0  0  0  0  0
  149.7859  132.7684  156.5352 H   0  0  0  0  0  0  0  0  0  0  0  0
  152.3012  131.4406  155.6023 H   0  0  0  0  0  0  0  0  0  0  0  0
  151.2280  130.9968  156.9303 H   0  0  0  0  0  0  0  0  0  0  0  0
  151.1799  130.0880  154.1260 H   0  0  0  0  0  0  0  0  0  0  0  0
  150.1827  129.4803  155.4509 H   0  0  0  0  0  0  0  0  0  0  0  0
  150.8881  139.1545  153.8318 H   0  0  0  0  0  0  0  0  0  0  0  0
  151.6275  140.5014  159.6911 H   0  0  0  0  0  0  0  0  0  0  0  0
  153.0170  140.1861  158.6599 H   0  0  0  0  0  0  0  0  0  0  0  0
  153.6254  142.5705  158.6281 H   0  0  0  0  0  0  0  0  0  0  0  0
  154.4769  141.2591  160.5659 H   0  0  0  0  0  0  0  0  0  0  0  0
  153.0357  141.6767  161.4908 H   0  0  0  0  0  0  0  0  0  0  0  0
  154.1727  142.9351  161.0132 H   0  0  0  0  0  0  0  0  0  0  0  0
  1  2  1  0  0  0  0
  1 26  1  0  0  0  0
  1 27  1  0  0  0  0
  1 28  1  0  0  0  0
  2 25  1  0  0  0  0
  2  3  1  0  0  0  0
  2 29  1  0  0  0  0
  3  4  1  0  0  0  0
  3 30  1  0  0  0  0
  3 31  1  0  0  0  0
  4  5  1  0  0  0  0
  4 22  1  0  0  0  0
  5 21  1  0  0  0  0
  5  6  2  0  0  0  0
  6  7  1  0  0  0  0
  6 32  1  0  0  0  0
  7  8  2  0  0  0  0
  7 33  1  0  0  0  0
  8  9  1  0  0  0  0
  8 20  1  0  0  0  0
  9 10  1  0  0  0  0
  9 34  1  0  0  0  0
 10 11  2  0  0  0  0
 10 12  1  0  0  0  0
 12 13  1  0  0  0  0
 12 35  1  0  0  0  0
 13 14  1  0  0  0  0
 13 15  1  0  0  0  0
 13 36  1  0  0  0  0
 14 37  1  0  0  0  0
 14 38  1  0  0  0  0
 14 39  1  0  0  0  0
 15 19  1  0  0  0  0
 15 16  1  0  0  0  0
 15 40  1  0  0  0  0
 16 17  1  0  0  0  0
 16 41  1  0  0  0  0
 16 42  1  0  0  0  0
 17 18  1  0  0  0  0
 17 43  1  0  0  0  0
 17 44  1  0  0  0  0
 18 19  1  0  0  0  0
 18 45  1  0  0  0  0
 18 46  1  0  0  0  0
 20 21  2  0  0  0  0
 20 47  1  0  0  0  0
 22 23  1  0  0  0  0
 22 48  1  0  0  0  0
 22 49  1  0  0  0  0
 23 24  1  0  0  0  0
 23 25  1  0  0  0  0
 23 50  1  0  0  0  0
 24 51  1  0  0  0  0
 24 52  1  0  0  0  0
 24 53  1  0  0  0  0
M  END
> <s_m_source_file>
AV-unprocessed.smi

> <i_m_source_file_index>
1413

> <i_lp_mmshare_version>
43012

> <i_f3d_flags>
0

> <s_epik_input>
W0NIM11bQ0BASF0xW0NIMl1OKFtDSDJdW0NASF0oTzEpW0NIM10pYzJbY0hdW2NIXWMoW2NIXW4yKVtOSF1DKD1PKVtOSF1bQ0BIXShbQ0gzXSlbQ0BASF0zW0NIMl1bQ0gyXVtDSDJdTzM=

> <s_epik_cmdline>
J2VwaWtfcHl0aG9uJywgJy1waCcsICc3LjAnLCAnLXRuJywgJzgnLCAnLW1hJywgJzIwMCcsICctbWV0YWxfYmluZGluZycsICctaW1hZScsICc8aW5maWxlLm1hZT4nLCAnLW9tYWUnLCAnPG91dGZpbGUubWFlPic=

> <r_lp_tautomer_probability>
1

> <r_epik_Ionization_Penalty>
0.00271172

> <r_epik_Ionization_Penalty_Charging>
0

> <r_epik_Ionization_Penalty_Neutral>
0.00271172

> <r_epik_State_Penalty>
0.00186503

> <r_epik_Charging_Adjusted_Penalty>
0.00186503

> <i_epik_Tot_Q>
0

> <i_epik_Tot_abs_Q>
0

> <r_epik_Metal_State_Penalty>
-0

> <b_epik_Metal_Only>
0

> <s_lp_Force_Field>
OPLS_2005

> <r_lp_Energy>
37.0854

> <b_lp_Chiralities_Consistent>
1

> <s_lp_Variant>
AV-unprocessed.smi:1413-12

> <Gold.Version>
5.8.1

> <Gold.Id.Protein>
6NUR|6NUR_protein|mol2

> <Gold.PLP.Fitness>
47.9078

> <Gold.PLP.PLP>
-43.3752

> <Gold.PLP.part.hbond>
-2.3196

> <Gold.PLP.part.metal>
0.0000

> <Gold.PLP.part.buried>
-7.4615

> <Gold.PLP.part.nonpolar>
-33.9766

> <Gold.PLP.part.repulsive>
0.1115

> <Gold.PLP.ligand.clash>
0.0000

> <Gold.PLP.ligand.torsion>
0.7898

> <Gold.PLP.Chemscore.Hbond>
1.9204

> <Gold.PLP.Chemscore.CHOScore>
0.0000

> <Gold.PLP.Chemscore.Metal>
0.0000

> <Gold.Chemscore.Hbonds>
donor molecule, donor type, donor heavy atom, donor atom, acceptor molecule, acceptor atom, score
      L1  H     9    34       P1  7948  0.87
      L1  H    12    35       P1  7948  1.00

> <Gold.PLP.Chemscore.Internal.Correction>
0.3509

> <Gold.Rescore>
     Score         DG    S(hbond)    S(metal)    S(lipo)     H(rot)  DE(clash)    DE(int)     intcor
     16.54     -20.12       1.62        0.00     108.22       1.35       0.05       3.53       ----

> <Gold.Chemscore.Fitness>
16.5367

> <Gold.Chemscore.DG>
-20.1156

> <Gold.Chemscore.ZeroCoef>
-5.4800

> <Gold.Chemscore.Hbond>
1.6235

> <Gold.Chemscore.Metal>
0.0000

> <Gold.Chemscore.Lipo>
108.2185

> <Gold.Chemscore.Internal_Hbond>
0.0000

> <Gold.Chemscore.DEClash>
0.0502

> <Gold.Chemscore.DEInternal>
3.5287

> <Gold.Chemscore.Rot>
1.3471

> <Gold.Chemscore.Internal.Correction>
   9.000000E+99

> <Gold.Chemscore.Hbonds>
donor molecule, donor type, donor heavy atom, donor atom, acceptor molecule, acceptor atom, score
      L1  H     9    34       P1  7948  0.77
      L1  H    12    35       P1  7948  0.45

> <Gold.Chemscore.Hbond.Weighted>
-5.4226

> <Gold.Chemscore.Metal.Weighted>
-0.0000

> <Gold.Chemscore.Lipo.Weighted>
-12.6616

> <Gold.Chemscore.Internal_Hbond.Weighted>
0.0000

> <Gold.Chemscore.DEClash.Weighted>
0.0502

> <Gold.Chemscore.DEInternal.Weighted>
3.5287

> <Gold.Chemscore.Rot.Weighted>
3.4485

> <Gold.Chemscore.Internal.Correction.Weighted>
   9.000000E+99

> <Gold.Protein.RotatedTorsions>
[ 6907 6896 6895 6894 ] final    1.20 input  -60.11 | X-H torsion
[ 7974 7965 7964 7962 ] final   -4.26 input  175.53 | X-H torsion
[ 8008 7997 7996 7995 ] final  -43.80 input   59.86 | X-H torsion
[ 10167 10162 10161 10158 ] final  120.57 input  -65.29 | X-H torsion
[ 10718 10713 10712 10709 ] final -103.57 input   66.30 | X-H torsion
[ 10763 10752 10751 10750 ] final -178.59 input  -60.55 | X-H torsion
[ 11005 11000 10999 10996 ] final   95.96 input  -57.11 | X-H torsion

> <Gold.Protein.ActiveResidues>
 VAL166  LYS551  ARG553  GLY616  TRP617  ASP618  TYR619  PRO620  LYS621  CYS622 
 ASP623  PHE694  ASN695  SER759  ASP760  ASP761  ALA762  ILE779  LEU786  VAL792 
 PHE793  MET794  SER795  GLU796  ALA797  LYS798  CYS799  TRP800  GLU811  SER814 

> <Gold.Protein.RotatedAtoms>
  151.5888  135.1054  160.0033 H   0  0  0  0  0  0  0  0  0  0  0  0  # atno 6907 bound_to 6896
  152.4317  133.7285  159.6584 H   0  0  0  0  0  0  0  0  0  0  0  0  # atno 6908 bound_to 6896
  150.8210  133.8182  159.3162 H   0  0  0  0  0  0  0  0  0  0  0  0  # atno 6909 bound_to 6896
  146.2375  140.1845  142.8332 H   0  0  0  0  0  0  0  0  0  0  0  0  # atno 7974 bound_to 7965
  154.3997  140.1438  156.3579 H   0  0  0  0  0  0  0  0  0  0  0  0  # atno 8008 bound_to 7997
  155.8209  140.3469  155.5492 H   0  0  0  0  0  0  0  0  0  0  0  0  # atno 8009 bound_to 7997
  155.8289  140.0909  157.1795 H   0  0  0  0  0  0  0  0  0  0  0  0  # atno 8010 bound_to 7997
  139.5974  144.7046  151.3144 H   0  0  0  0  0  0  0  0  0  0  0  0  # atno 10167 bound_to 10162
  156.0270  130.5473  150.7272 H   0  0  0  0  0  0  0  0  0  0  0  0  # atno 10718 bound_to 10713
  154.5458  135.2809  155.1054 H   0  0  0  0  0  0  0  0  0  0  0  0  # atno 10763 bound_to 10752
  154.2519  135.6338  153.5247 H   0  0  0  0  0  0  0  0  0  0  0  0  # atno 10764 bound_to 10752
  152.9990  135.5585  154.6010 H   0  0  0  0  0  0  0  0  0  0  0  0  # atno 10765 bound_to 10752
  139.8785  134.8926  156.4088 H   0  0  0  0  0  0  0  0  0  0  0  0  # atno 11005 bound_to 11000
  144.9908  140.8545  143.5341 LP  0  0  0  0  0  0  0  0  0  0  0  0  # atno 17320 bound_to 7965
  145.1850  139.2331  143.5272 LP  0  0  0  0  0  0  0  0  0  0  0  0  # atno 17321 bound_to 7965
  140.7223  143.7102  150.7775 LP  0  0  0  0  0  0  0  0  0  0  0  0  # atno 17342 bound_to 10162
  140.0671  143.5097  152.2598 LP  0  0  0  0  0  0  0  0  0  0  0  0  # atno 17343 bound_to 10162
  157.4873  131.0908  151.0467 LP  0  0  0  0  0  0  0  0  0  0  0  0  # atno 17370 bound_to 10713
  157.0884  130.5932  149.5434 LP  0  0  0  0  0  0  0  0  0  0  0  0  # atno 17371 bound_to 10713
  140.9215  133.7642  155.9912 LP  0  0  0  0  0  0  0  0  0  0  0  0  # atno 17394 bound_to 11000
  140.8434  134.3039  157.5304 LP  0  0  0  0  0  0  0  0  0  0  0  0  # atno 17395 bound_to 11000

$$$$
