AV-unprocessed.smi:1265|AV-procd|sdf|5320|dock3
  -GOLD-   22720 4443D 1   1.00000     0.00000
 Structure written by MMmdl.
 45 47  0  0  0  0  0  0  0  0  2 V2000
  144.4658  136.5862  152.0439 O   0  0  0  0  0  0  0  0  0  0  0  0
  145.6846  136.4542  151.9470 C   0  0  0  0  0  0  0  0  0  0  0  0
  146.5576  137.3906  152.3467 N   0  0  0  0  0  0  0  0  0  0  0  0
  146.2053  138.6929  152.9142 C   0  0  0  0  0  0  0  0  0  0  0  0
  146.4061  138.7778  154.4620 C   0  0  2  0  0  0  0  0  0  0  0  0
  147.7640  139.3767  154.7417 N   0  3  0  0  0  0  0  0  0  0  0  0
  148.9098  138.4911  154.3887 C   0  0  0  0  0  0  0  0  0  0  0  0
  150.2381  139.0908  154.8732 C   0  0  0  0  0  0  0  0  0  0  0  0
  150.4122  140.3719  154.2872 O   0  0  0  0  0  0  0  0  0  0  0  0
  149.3915  141.2715  154.6922 C   0  0  0  0  0  0  0  0  0  0  0  0
  148.0142  140.7561  154.2372 C   0  0  0  0  0  0  0  0  0  0  0  0
  146.2055  137.3750  155.1023 C   0  0  0  0  0  0  0  0  0  0  0  0
  144.7216  137.0062  155.0148 C   0  0  0  0  0  0  0  0  0  0  0  0
  143.7858  138.5427  155.2070 S   0  0  0  0  0  0  0  0  0  0  0  0
  145.2563  139.5993  155.0914 C   0  0  0  0  0  0  0  0  0  0  0  0
  146.3224  135.3819  151.4442 N   0  0  0  0  0  0  0  0  0  0  0  0
  145.7919  134.1685  150.9215 C   0  0  0  0  0  0  0  0  0  0  0  0
  144.3902  134.0844  150.7850 C   0  0  0  0  0  0  0  0  0  0  0  0
  143.8236  132.9002  150.2726 C   0  0  0  0  0  0  0  0  0  0  0  0
  144.5553  131.8296  149.9008 N   0  0  0  0  0  0  0  0  0  0  0  0
  145.8960  131.9088  150.0320 C   0  0  0  0  0  0  0  0  0  0  0  0
  146.5628  133.0451  150.5331 C   0  0  0  0  0  0  0  0  0  0  0  0
  147.5408  137.2039  152.2147 H   0  0  0  0  0  0  0  0  0  0  0  0
  146.8326  139.4288  152.4128 H   0  0  0  0  0  0  0  0  0  0  0  0
  145.1938  138.9704  152.6179 H   0  0  0  0  0  0  0  0  0  0  0  0
  148.7943  137.5040  154.8326 H   0  0  0  0  0  0  0  0  0  0  0  0
  148.9587  138.3509  153.3082 H   0  0  0  0  0  0  0  0  0  0  0  0
  150.2642  139.1609  155.9620 H   0  0  0  0  0  0  0  0  0  0  0  0
  151.0694  138.4520  154.5747 H   0  0  0  0  0  0  0  0  0  0  0  0
  149.4175  141.4027  155.7754 H   0  0  0  0  0  0  0  0  0  0  0  0
  149.5886  142.2489  154.2515 H   0  0  0  0  0  0  0  0  0  0  0  0
  147.9465  140.7741  153.1489 H   0  0  0  0  0  0  0  0  0  0  0  0
  147.2776  141.4558  154.6290 H   0  0  0  0  0  0  0  0  0  0  0  0
  146.8450  136.6079  154.6673 H   0  0  0  0  0  0  0  0  0  0  0  0
  146.4253  137.3970  156.1689 H   0  0  0  0  0  0  0  0  0  0  0  0
  144.4847  136.5647  154.0468 H   0  0  0  0  0  0  0  0  0  0  0  0
  144.4373  136.2833  155.7799 H   0  0  0  0  0  0  0  0  0  0  0  0
  145.5119  139.8994  156.1080 H   0  0  0  0  0  0  0  0  0  0  0  0
  145.0261  140.5076  154.5336 H   0  0  0  0  0  0  0  0  0  0  0  0
  147.3302  135.4376  151.4368 H   0  0  0  0  0  0  0  0  0  0  0  0
  143.7535  134.9104  151.0663 H   0  0  0  0  0  0  0  0  0  0  0  0
  142.7534  132.8122  150.1578 H   0  0  0  0  0  0  0  0  0  0  0  0
  146.4576  131.0381  149.7280 H   0  0  0  0  0  0  0  0  0  0  0  0
  147.6379  133.0189  150.6051 H   0  0  0  0  0  0  0  0  0  0  0  0
  147.7931  139.4706  155.7468 H   0  0  0  0  0  0  0  0  0  0  0  0
  1  2  2  0  0  0  0
  2  3  1  0  0  0  0
  2 16  1  0  0  0  0
  3  4  1  0  0  0  0
  3 23  1  0  0  0  0
  4  5  1  0  0  0  0
  4 24  1  0  0  0  0
  4 25  1  0  0  0  0
  5 15  1  0  0  0  0
  5  6  1  0  0  0  0
  5 12  1  0  0  0  0
  6 11  1  0  0  0  0
  6  7  1  0  0  0  0
  6 45  1  0  0  0  0
  7  8  1  0  0  0  0
  7 26  1  0  0  0  0
  7 27  1  0  0  0  0
  8  9  1  0  0  0  0
  8 28  1  0  0  0  0
  8 29  1  0  0  0  0
  9 10  1  0  0  0  0
 10 11  1  0  0  0  0
 10 30  1  0  0  0  0
 10 31  1  0  0  0  0
 11 32  1  0  0  0  0
 11 33  1  0  0  0  0
 12 13  1  0  0  0  0
 12 34  1  0  0  0  0
 12 35  1  0  0  0  0
 13 14  1  0  0  0  0
 13 36  1  0  0  0  0
 13 37  1  0  0  0  0
 14 15  1  0  0  0  0
 15 38  1  0  0  0  0
 15 39  1  0  0  0  0
 16 17  1  0  0  0  0
 16 40  1  0  0  0  0
 17 22  1  0  0  0  0
 17 18  2  0  0  0  0
 18 19  1  0  0  0  0
 18 41  1  0  0  0  0
 19 20  2  0  0  0  0
 19 42  1  0  0  0  0
 20 21  1  0  0  0  0
 21 22  2  0  0  0  0
 21 43  1  0  0  0  0
 22 44  1  0  0  0  0
M  CHG  1   6   1
M  END
> <s_m_source_file>
AV-unprocessed.smi

> <i_m_source_file_index>
1265

> <i_lp_mmshare_version>
43012

> <i_f3d_flags>
0

> <s_epik_input>
W2NIXTFbY0hdbltjSF1bY0hdYzFbTkhdQyg9TylbTkhdW0NIMl1bQ0BdMihbQ0gyXVtDSDJdU1tDSDJdMilOM1tDSDJdW0NIMl1PW0NIMl1bQ0gyXTM=

> <s_epik_cmdline>
J2VwaWtfcHl0aG9uJywgJy1waCcsICc3LjAnLCAnLXRuJywgJzgnLCAnLW1hJywgJzIwMCcsICctbWV0YWxfYmluZGluZycsICctaW1hZScsICc8aW5maWxlLm1hZT4nLCAnLW9tYWUnLCAnPG91dGZpbGUubWFlPic=

> <r_epik_Ionization_Penalty>
2.1318

> <r_epik_Ionization_Penalty_Charging>
2.03219

> <r_epik_Ionization_Penalty_Neutral>
0.0996087

> <r_epik_State_Penalty>
2.24194

> <r_epik_Charging_Adjusted_Penalty>
4.27413

> <i_epik_Tot_Q>
1

> <i_epik_Tot_abs_Q>
1

> <r_epik_Metal_State_Penalty>
2.2363

> <b_epik_Metal_Only>
0

> <s_lp_Force_Field>
OPLS_2005

> <r_lp_Energy>
49.924

> <b_lp_Chiralities_Consistent>
1

> <s_lp_Variant>
AV-unprocessed.smi:1265-6

> <Gold.Version>
5.8.1

> <Gold.Id.Protein>
6NUR|6NUR_protein|mol2

> <Gold.PLP.Fitness>
44.3190

> <Gold.PLP.PLP>
-31.5648

> <Gold.PLP.part.hbond>
-3.3207

> <Gold.PLP.part.metal>
0.0000

> <Gold.PLP.part.buried>
-3.7203

> <Gold.PLP.part.nonpolar>
-25.8167

> <Gold.PLP.part.repulsive>
0.7167

> <Gold.PLP.ligand.clash>
0.0000

> <Gold.PLP.ligand.torsion>
0.8830

> <Gold.PLP.Chemscore.Hbond>
2.9920

> <Gold.PLP.Chemscore.CHOScore>
1.8045

> <Gold.PLP.Chemscore.Metal>
0.0000

> <Gold.Chemscore.Hbonds>
donor molecule, donor type, donor heavy atom, donor atom, acceptor molecule, acceptor atom, score
      L1  H     3    23       P1  7948  1.00
      L1  H    16    40       P1  7948  1.00
      P1  H  7989  7998       L1     9  0.99
      L1  C    19    42       P1 10186  1.00
      L1  C    21    43       P1 10747  0.76

> <Gold.PLP.Chemscore.Internal.Correction>
0.1306

> <Gold.Rescore>
     Score         DG    S(hbond)    S(metal)    S(lipo)     H(rot)  DE(clash)    DE(int)     intcor
     17.77     -20.02       2.89        0.00      74.32       1.49       0.05       2.21       ----

> <Gold.Chemscore.Fitness>
17.7652

> <Gold.Chemscore.DG>
-20.0246

> <Gold.Chemscore.ZeroCoef>
-5.4800

> <Gold.Chemscore.Hbond>
2.8901

> <Gold.Chemscore.Metal>
0.0000

> <Gold.Chemscore.Lipo>
74.3248

> <Gold.Chemscore.Internal_Hbond>
0.0000

> <Gold.Chemscore.DEClash>
0.0530

> <Gold.Chemscore.DEInternal>
2.2064

> <Gold.Chemscore.Rot>
1.4860

> <Gold.Chemscore.Internal.Correction>
   9.000000E+99

> <Gold.Chemscore.Hbonds>
donor molecule, donor type, donor heavy atom, donor atom, acceptor molecule, acceptor atom, score
      L1  H     3    23       P1  7948  0.99
      L1  H    16    40       P1  7948  0.91
      P1  H  7989  7998       L1     9  0.86
      P1  H 10785 10796       L1    20  0.03

> <Gold.Chemscore.Hbond.Weighted>
-9.6528

> <Gold.Chemscore.Metal.Weighted>
-0.0000

> <Gold.Chemscore.Lipo.Weighted>
-8.6960

> <Gold.Chemscore.Internal_Hbond.Weighted>
0.0000

> <Gold.Chemscore.DEClash.Weighted>
0.0530

> <Gold.Chemscore.DEInternal.Weighted>
2.2064

> <Gold.Chemscore.Rot.Weighted>
3.8042

> <Gold.Chemscore.Internal.Correction.Weighted>
   9.000000E+99

> <Gold.Protein.RotatedTorsions>
[ 6907 6896 6895 6894 ] final -125.34 input  -60.11 | X-H torsion
[ 7974 7965 7964 7962 ] final  -71.75 input  175.53 | X-H torsion
[ 8008 7997 7996 7995 ] final  -84.51 input   59.86 | X-H torsion
[ 10167 10162 10161 10158 ] final  122.09 input  -65.29 | X-H torsion
[ 10718 10713 10712 10709 ] final  143.29 input   66.30 | X-H torsion
[ 10763 10752 10751 10750 ] final  103.75 input  -60.55 | X-H torsion
[ 11005 11000 10999 10996 ] final  131.70 input  -57.11 | X-H torsion

> <Gold.Protein.ActiveResidues>
 VAL166  LYS551  ARG553  GLY616  TRP617  ASP618  TYR619  PRO620  LYS621  CYS622 
 ASP623  PHE694  ASN695  SER759  ASP760  ASP761  ALA762  ILE779  LEU786  VAL792 
 PHE793  MET794  SER795  GLU796  ALA797  LYS798  CYS799  TRP800  GLU811  SER814 

> <Gold.Protein.RotatedAtoms>
  150.8857  133.7311  159.2918 H   0  0  0  0  0  0  0  0  0  0  0  0  # atno 6907 bound_to 6896
  151.4877  135.1054  159.9804 H   0  0  0  0  0  0  0  0  0  0  0  0  # atno 6908 bound_to 6896
  152.4788  133.8158  159.7083 H   0  0  0  0  0  0  0  0  0  0  0  0  # atno 6909 bound_to 6896
  145.6741  140.9211  143.0867 H   0  0  0  0  0  0  0  0  0  0  0  0  # atno 7974 bound_to 7965
  154.6306  140.0604  156.9728 H   0  0  0  0  0  0  0  0  0  0  0  0  # atno 8008 bound_to 7997
  155.1671  140.3287  155.4381 H   0  0  0  0  0  0  0  0  0  0  0  0  # atno 8009 bound_to 7997
  156.2481  140.1920  156.6775 H   0  0  0  0  0  0  0  0  0  0  0  0  # atno 8010 bound_to 7997
  139.5879  144.7014  151.3362 H   0  0  0  0  0  0  0  0  0  0  0  0  # atno 10167 bound_to 10162
  157.3707  131.0978  151.0831 H   0  0  0  0  0  0  0  0  0  0  0  0  # atno 10718 bound_to 10713
  153.3567  135.3966  155.1688 H   0  0  0  0  0  0  0  0  0  0  0  0  # atno 10763 bound_to 10752
  154.8672  135.3669  154.5151 H   0  0  0  0  0  0  0  0  0  0  0  0  # atno 10764 bound_to 10752
  153.5608  135.7081  153.5608 H   0  0  0  0  0  0  0  0  0  0  0  0  # atno 10765 bound_to 10752
  139.9745  134.9567  156.9475 H   0  0  0  0  0  0  0  0  0  0  0  0  # atno 11005 bound_to 11000
  144.7047  139.8610  143.7433 LP  0  0  0  0  0  0  0  0  0  0  0  0  # atno 17320 bound_to 7965
  146.1021  139.4017  143.0340 LP  0  0  0  0  0  0  0  0  0  0  0  0  # atno 17321 bound_to 7965
  140.7148  143.7296  150.7634 LP  0  0  0  0  0  0  0  0  0  0  0  0  # atno 17342 bound_to 10162
  140.0845  143.4937  152.2512 LP  0  0  0  0  0  0  0  0  0  0  0  0  # atno 17343 bound_to 10162
  157.1936  130.6363  149.5713 LP  0  0  0  0  0  0  0  0  0  0  0  0  # atno 17370 bound_to 10713
  155.9755  130.4714  150.6463 LP  0  0  0  0  0  0  0  0  0  0  0  0  # atno 17371 bound_to 10713
  140.5223  134.0896  155.7295 LP  0  0  0  0  0  0  0  0  0  0  0  0  # atno 17394 bound_to 11000
  141.1423  133.9116  157.2296 LP  0  0  0  0  0  0  0  0  0  0  0  0  # atno 17395 bound_to 11000

$$$$
