AV-unprocessed.smi:1002|AV-procd|sdf|4358|dock3
  -GOLD-   22720 2263D 1   1.00000     0.00000
 Structure written by MMmdl.
 36 37  0  0  0  0  0  0  0  0  2 V2000
  146.2797  137.4081  154.8339 O   0  0  0  0  0  0  0  0  0  0  0  0
  146.7188  137.8433  153.7697 C   0  0  0  0  0  0  0  0  0  0  0  0
  145.8150  137.8888  152.5342 C   0  0  0  0  0  0  0  0  0  0  0  0
  145.1696  136.5387  152.2669 C   0  0  0  0  0  0  0  0  0  0  0  0
  144.4075  135.8924  153.2629 C   0  0  0  0  0  0  0  0  0  0  0  0
  143.8310  134.6418  152.9631 C   0  0  0  0  0  0  0  0  0  0  0  0
  143.9718  134.0271  151.7689 N   0  0  0  0  0  0  0  0  0  0  0  0
  144.7046  134.6497  150.8209 C   0  0  0  0  0  0  0  0  0  0  0  0
  145.3230  135.9006  151.0178 C   0  0  0  0  0  0  0  0  0  0  0  0
  147.9801  138.2759  153.6107 N   0  0  0  0  0  0  0  0  0  0  0  0
  149.0085  138.3031  154.6456 C   0  0  2  0  0  0  0  0  0  0  0  0
  150.1940  139.1607  154.1641 C   0  0  0  0  0  0  0  0  0  0  0  0
  151.3481  139.1512  155.1794 C   0  0  0  0  0  0  0  0  0  0  0  0
  151.8076  137.7103  155.4823 C   0  0  1  0  0  0  0  0  0  0  0  0
  152.9503  137.7165  156.5076 C   0  0  0  0  0  0  0  0  0  0  0  0
  153.4306  136.6136  156.8524 O   0  0  0  0  0  0  0  0  0  0  0  0
  153.3230  138.8315  156.9337 O   0  5  0  0  0  0  0  0  0  0  0  0
  150.6224  136.8632  155.9913 C   0  0  0  0  0  0  0  0  0  0  0  0
  149.4634  136.8683  154.9816 C   0  0  0  0  0  0  0  0  0  0  0  0
  145.0465  138.6490  152.6792 H   0  0  0  0  0  0  0  0  0  0  0  0
  146.3955  138.1909  151.6612 H   0  0  0  0  0  0  0  0  0  0  0  0
  144.2645  136.3444  154.2334 H   0  0  0  0  0  0  0  0  0  0  0  0
  143.2409  134.1216  153.7029 H   0  0  0  0  0  0  0  0  0  0  0  0
  144.8011  134.1360  149.8757 H   0  0  0  0  0  0  0  0  0  0  0  0
  145.8991  136.3573  150.2263 H   0  0  0  0  0  0  0  0  0  0  0  0
  148.2499  138.6144  152.6983 H   0  0  0  0  0  0  0  0  0  0  0  0
  148.6047  138.7649  155.5489 H   0  0  0  0  0  0  0  0  0  0  0  0
  150.5569  138.7874  153.2053 H   0  0  0  0  0  0  0  0  0  0  0  0
  149.8668  140.1868  153.9917 H   0  0  0  0  0  0  0  0  0  0  0  0
  152.1811  139.7385  154.7908 H   0  0  0  0  0  0  0  0  0  0  0  0
  151.0225  139.6456  156.0962 H   0  0  0  0  0  0  0  0  0  0  0  0
  152.1820  137.2637  154.5593 H   0  0  0  0  0  0  0  0  0  0  0  0
  150.9443  135.8368  156.1720 H   0  0  0  0  0  0  0  0  0  0  0  0
  150.2634  137.2473  156.9476 H   0  0  0  0  0  0  0  0  0  0  0  0
  148.6275  136.2939  155.3826 H   0  0  0  0  0  0  0  0  0  0  0  0
  149.7791  136.3583  154.0704 H   0  0  0  0  0  0  0  0  0  0  0  0
  1  2  2  0  0  0  0
  2  3  1  0  0  0  0
  2 10  1  0  0  0  0
  3  4  1  0  0  0  0
  3 20  1  0  0  0  0
  3 21  1  0  0  0  0
  4  9  1  0  0  0  0
  4  5  2  0  0  0  0
  5  6  1  0  0  0  0
  5 22  1  0  0  0  0
  6  7  2  0  0  0  0
  6 23  1  0  0  0  0
  7  8  1  0  0  0  0
  8  9  2  0  0  0  0
  8 24  1  0  0  0  0
  9 25  1  0  0  0  0
 10 11  1  0  0  0  0
 10 26  1  0  0  0  0
 11 19  1  0  0  0  0
 11 12  1  0  0  0  0
 11 27  1  0  0  0  0
 12 13  1  0  0  0  0
 12 28  1  0  0  0  0
 12 29  1  0  0  0  0
 13 14  1  0  0  0  0
 13 30  1  0  0  0  0
 13 31  1  0  0  0  0
 14 15  1  0  0  0  0
 14 18  1  0  0  0  0
 14 32  1  0  0  0  0
 15 16  2  0  0  0  0
 15 17  1  0  0  0  0
 18 19  1  0  0  0  0
 18 33  1  0  0  0  0
 18 34  1  0  0  0  0
 19 35  1  0  0  0  0
 19 36  1  0  0  0  0
M  CHG  1  17  -1
M  END
> <s_m_source_file>
AV-unprocessed.smi

> <i_m_source_file_index>
1002

> <i_lp_mmshare_version>
43012

> <i_f3d_flags>
0

> <s_epik_input>
Tz1DKFtPSF0pW0NAQEhdKFtDSDJdW0NIMl0xKVtDSDJdW0NIMl1bQ0BIXTFbTkhdQyg9TylbQ0gyXWMyW2NIXVtjSF1uW2NIXVtjSF0y

> <s_epik_cmdline>
J2VwaWtfcHl0aG9uJywgJy1waCcsICc3LjAnLCAnLXRuJywgJzgnLCAnLW1hJywgJzIwMCcsICctbWV0YWxfYmluZGluZycsICctaW1hZScsICc8aW5maWxlLm1hZT4nLCAnLW9tYWUnLCAnPG91dGZpbGUubWFlPic=

> <r_lp_tautomer_probability>
1

> <r_epik_Ionization_Penalty>
0.0065671

> <r_epik_Ionization_Penalty_Charging>
0.00222897

> <r_epik_Ionization_Penalty_Neutral>
0.00433813

> <r_epik_State_Penalty>
-0

> <r_epik_Charging_Adjusted_Penalty>
0.00222897

> <i_epik_Tot_Q>
-1

> <i_epik_Tot_abs_Q>
1

> <r_epik_Metal_State_Penalty>
-0

> <b_epik_Metal_Only>
0

> <s_lp_Force_Field>
OPLS_2005

> <r_lp_Energy>
12.3295

> <b_lp_Chiralities_Consistent>
1

> <s_lp_Variant>
AV-unprocessed.smi:1002-1

> <Gold.Version>
5.8.1

> <Gold.Id.Protein>
6NUR|6NUR_protein|mol2

> <Gold.PLP.Fitness>
43.2129

> <Gold.PLP.PLP>
-25.9064

> <Gold.PLP.part.hbond>
-3.0000

> <Gold.PLP.part.metal>
0.0000

> <Gold.PLP.part.buried>
-4.4277

> <Gold.PLP.part.nonpolar>
-20.5741

> <Gold.PLP.part.repulsive>
0.1985

> <Gold.PLP.ligand.clash>
0.0000

> <Gold.PLP.ligand.torsion>
0.2091

> <Gold.PLP.Chemscore.Hbond>
3.9840

> <Gold.PLP.Chemscore.CHOScore>
1.9184

> <Gold.PLP.Chemscore.Metal>
0.0000

> <Gold.Chemscore.Hbonds>
donor molecule, donor type, donor heavy atom, donor atom, acceptor molecule, acceptor atom, score
      P1  H  7997  8008       L1    17  2.00
      P1  H 10752 10764       L1    16  1.98
      L1  C     6    23       P1 10957  0.69
      L1  C     8    24       P1  7921  0.59

> <Gold.PLP.Chemscore.Internal.Correction>
0.0174

> <Gold.Rescore>
     Score         DG    S(hbond)    S(metal)    S(lipo)     H(rot)  DE(clash)    DE(int)     intcor
     15.40     -17.45       2.55        0.00      70.73       1.88       0.41       1.64       ----

> <Gold.Chemscore.Fitness>
15.4046

> <Gold.Chemscore.DG>
-17.4496

> <Gold.Chemscore.ZeroCoef>
-5.4800

> <Gold.Chemscore.Hbond>
2.5490

> <Gold.Chemscore.Metal>
0.0000

> <Gold.Chemscore.Lipo>
70.7349

> <Gold.Chemscore.Internal_Hbond>
0.0000

> <Gold.Chemscore.DEClash>
0.4098

> <Gold.Chemscore.DEInternal>
1.6352

> <Gold.Chemscore.Rot>
1.8828

> <Gold.Chemscore.Internal.Correction>
   9.000000E+99

> <Gold.Chemscore.Hbonds>
donor molecule, donor type, donor heavy atom, donor atom, acceptor molecule, acceptor atom, score
      L1  H    10    26       P1  7957  0.03
      P1  H  7997  8008       L1    17  0.98
      P1  H 10752 10764       L1    16  0.83

> <Gold.Chemscore.Hbond.Weighted>
-8.5135

> <Gold.Chemscore.Metal.Weighted>
-0.0000

> <Gold.Chemscore.Lipo.Weighted>
-8.2760

> <Gold.Chemscore.Internal_Hbond.Weighted>
0.0000

> <Gold.Chemscore.DEClash.Weighted>
0.4098

> <Gold.Chemscore.DEInternal.Weighted>
1.6352

> <Gold.Chemscore.Rot.Weighted>
4.8199

> <Gold.Chemscore.Internal.Correction.Weighted>
   9.000000E+99

> <Gold.Protein.RotatedTorsions>
[ 6907 6896 6895 6894 ] final   18.08 input  -60.11 | X-H torsion
[ 7974 7965 7964 7962 ] final  162.72 input  175.53 | X-H torsion
[ 8008 7997 7996 7995 ] final  -55.61 input   59.86 | X-H torsion
[ 10167 10162 10161 10158 ] final  173.93 input  -65.29 | X-H torsion
[ 10718 10713 10712 10709 ] final  -60.70 input   66.30 | X-H torsion
[ 10763 10752 10751 10750 ] final    6.88 input  -60.55 | X-H torsion
[ 11005 11000 10999 10996 ] final   28.68 input  -57.11 | X-H torsion

> <Gold.Protein.ActiveResidues>
 VAL166  LYS551  ARG553  GLY616  TRP617  ASP618  TYR619  PRO620  LYS621  CYS622 
 ASP623  PHE694  ASN695  SER759  ASP760  ASP761  ALA762  ILE779  LEU786  VAL792 
 PHE793  MET794  SER795  GLU796  ALA797  LYS798  CYS799  TRP800  GLU811  SER814 

> <Gold.Protein.RotatedAtoms>
  151.8596  135.0529  160.0467 H   0  0  0  0  0  0  0  0  0  0  0  0  # atno 6907 bound_to 6896
  152.2673  133.5346  159.5426 H   0  0  0  0  0  0  0  0  0  0  0  0  # atno 6908 bound_to 6896
  150.7138  134.0663  159.3891 H   0  0  0  0  0  0  0  0  0  0  0  0  # atno 6909 bound_to 6896
  144.7623  139.8080  143.6328 H   0  0  0  0  0  0  0  0  0  0  0  0  # atno 7974 bound_to 7965
  154.4201  140.1149  156.5504 H   0  0  0  0  0  0  0  0  0  0  0  0  # atno 8008 bound_to 7997
  155.6415  140.3496  155.4697 H   0  0  0  0  0  0  0  0  0  0  0  0  # atno 8009 bound_to 7997
  155.9866  140.1171  157.0667 H   0  0  0  0  0  0  0  0  0  0  0  0  # atno 8010 bound_to 7997
  139.5125  144.3204  152.0208 H   0  0  0  0  0  0  0  0  0  0  0  0  # atno 10167 bound_to 10162
  156.0972  130.4191  150.0890 H   0  0  0  0  0  0  0  0  0  0  0  0  # atno 10718 bound_to 10713
  153.2427  135.6905  153.7766 H   0  0  0  0  0  0  0  0  0  0  0  0  # atno 10763 bound_to 10752
  153.6889  135.3316  155.3198 H   0  0  0  0  0  0  0  0  0  0  0  0  # atno 10764 bound_to 10752
  154.8362  135.4540  154.1354 H   0  0  0  0  0  0  0  0  0  0  0  0  # atno 10765 bound_to 10752
  140.3130  134.2628  155.7730 H   0  0  0  0  0  0  0  0  0  0  0  0  # atno 11005 bound_to 11000
  146.1698  139.4845  142.9934 LP  0  0  0  0  0  0  0  0  0  0  0  0  # atno 17320 bound_to 7965
  145.6579  141.0247  143.1725 LP  0  0  0  0  0  0  0  0  0  0  0  0  # atno 17321 bound_to 7965
  140.2646  144.4030  150.6173 LP  0  0  0  0  0  0  0  0  0  0  0  0  # atno 17342 bound_to 10162
  140.6132  143.2171  151.6843 LP  0  0  0  0  0  0  0  0  0  0  0  0  # atno 17343 bound_to 10162
  156.8886  130.9581  151.3591 LP  0  0  0  0  0  0  0  0  0  0  0  0  # atno 17370 bound_to 10713
  157.6136  130.8601  149.8991 LP  0  0  0  0  0  0  0  0  0  0  0  0  # atno 17371 bound_to 10713
  141.2104  133.7721  156.9935 LP  0  0  0  0  0  0  0  0  0  0  0  0  # atno 17394 bound_to 11000
  140.1008  134.9536  157.1920 LP  0  0  0  0  0  0  0  0  0  0  0  0  # atno 17395 bound_to 11000

$$$$
