AV-unprocessed.smi:2079|AV-procd|sdf|8479|dock4
  -GOLD-   2272011183D 1   1.00000     0.00000
 Structure written by MMmdl.
 41 42  0  0  0  0  0  0  0  0  3 V2000
  146.9104  134.8407  162.8790 C   0  0  0  0  0  0  0  0  0  0  0  0
  147.5323  134.9846  161.5322 C   0  0  0  0  0  0  0  0  0  0  0  0
  148.0254  134.0791  160.6364 C   0  0  0  0  0  0  0  0  0  0  0  0
  148.4622  134.8946  159.5570 C   0  0  0  0  0  0  0  0  0  0  0  0
  149.0398  134.4615  158.4257 N   0  5  0  0  0  0  0  0  0  0  0  0
  148.7651  135.0656  157.2471 C   0  0  0  0  0  0  0  0  0  0  0  0
  148.3438  136.2142  157.0918 O   0  0  0  0  0  0  0  0  0  0  0  0
  148.9915  134.2901  156.1789 N   0  0  0  0  0  0  0  0  0  0  0  0
  148.7866  134.6944  154.7950 C   0  0  0  0  0  0  0  0  0  0  0  0
  147.2962  134.9665  154.5294 C   0  0  0  0  0  0  0  0  0  0  0  0
  146.9805  135.0239  153.0735 N   0  3  2  0  0  0  0  0  0  0  0  0
  145.7926  135.8882  152.8137 C   0  0  0  0  0  0  0  0  0  0  0  0
  145.5388  136.0842  151.3132 C   0  0  0  0  0  0  0  0  0  0  0  0
  145.3467  134.7330  150.6253 C   0  0  0  0  0  0  0  0  0  0  0  0
  146.5667  133.8496  150.8975 C   0  0  0  0  0  0  0  0  0  0  0  0
  146.8470  133.6849  152.4091 C   0  0  1  0  0  0  0  0  0  0  0  0
  148.0973  132.7942  152.5732 C   0  0  0  0  0  0  0  0  0  0  0  0
  148.2679  136.1827  159.7854 N   0  0  0  0  0  0  0  0  0  0  0  0
  147.6655  136.2487  161.0475 O   0  0  0  0  0  0  0  0  0  0  0  0
  147.6756  134.7145  163.6448 H   0  0  0  0  0  0  0  0  0  0  0  0
  146.2535  133.9714  162.9099 H   0  0  0  0  0  0  0  0  0  0  0  0
  146.3180  135.7198  163.1333 H   0  0  0  0  0  0  0  0  0  0  0  0
  148.0644  133.0045  160.7350 H   0  0  0  0  0  0  0  0  0  0  0  0
  149.3360  133.3556  156.3453 H   0  0  0  0  0  0  0  0  0  0  0  0
  149.3956  135.5776  154.6044 H   0  0  0  0  0  0  0  0  0  0  0  0
  149.1454  133.9039  154.1338 H   0  0  0  0  0  0  0  0  0  0  0  0
  146.7489  134.1676  155.0227 H   0  0  0  0  0  0  0  0  0  0  0  0
  146.9787  135.8917  155.0131 H   0  0  0  0  0  0  0  0  0  0  0  0
  144.9128  135.4453  153.2832 H   0  0  0  0  0  0  0  0  0  0  0  0
  145.9226  136.8703  153.2647 H   0  0  0  0  0  0  0  0  0  0  0  0
  144.6565  136.7071  151.1624 H   0  0  0  0  0  0  0  0  0  0  0  0
  146.3772  136.6170  150.8622 H   0  0  0  0  0  0  0  0  0  0  0  0
  144.4434  134.2484  150.9979 H   0  0  0  0  0  0  0  0  0  0  0  0
  145.2109  134.8704  149.5521 H   0  0  0  0  0  0  0  0  0  0  0  0
  146.4099  132.8735  150.4366 H   0  0  0  0  0  0  0  0  0  0  0  0
  147.4403  134.2821  150.4069 H   0  0  0  0  0  0  0  0  0  0  0  0
  145.9984  133.1678  152.8601 H   0  0  0  0  0  0  0  0  0  0  0  0
  148.0399  131.9204  151.9234 H   0  0  0  0  0  0  0  0  0  0  0  0
  148.2056  132.4035  153.5840 H   0  0  0  0  0  0  0  0  0  0  0  0
  149.0088  133.3339  152.3138 H   0  0  0  0  0  0  0  0  0  0  0  0
  147.7711  135.4725  152.6332 H   0  0  0  0  0  0  0  0  0  0  0  0
  1  2  1  0  0  0  0
  1 20  1  0  0  0  0
  1 21  1  0  0  0  0
  1 22  1  0  0  0  0
  2 19  1  0  0  0  0
  2  3  2  0  0  0  0
  3  4  1  0  0  0  0
  3 23  1  0  0  0  0
  4  5  1  0  0  0  0
  4 18  2  0  0  0  0
  5  6  1  0  0  0  0
  6  7  2  0  0  0  0
  6  8  1  0  0  0  0
  8  9  1  0  0  0  0
  8 24  1  0  0  0  0
  9 10  1  0  0  0  0
  9 25  1  0  0  0  0
  9 26  1  0  0  0  0
 10 11  1  0  0  0  0
 10 27  1  0  0  0  0
 10 28  1  0  0  0  0
 11 16  1  0  0  0  0
 11 12  1  0  0  0  0
 11 41  1  0  0  0  0
 12 13  1  0  0  0  0
 12 29  1  0  0  0  0
 12 30  1  0  0  0  0
 13 14  1  0  0  0  0
 13 31  1  0  0  0  0
 13 32  1  0  0  0  0
 14 15  1  0  0  0  0
 14 33  1  0  0  0  0
 14 34  1  0  0  0  0
 15 16  1  0  0  0  0
 15 35  1  0  0  0  0
 15 36  1  0  0  0  0
 16 17  1  0  0  0  0
 16 37  1  0  0  0  0
 17 38  1  0  0  0  0
 17 39  1  0  0  0  0
 17 40  1  0  0  0  0
 18 19  1  0  0  0  0
M  CHG  1   5  -1
M  CHG  1  11   1
M  END
> <s_m_source_file>
AV-unprocessed.smi

> <i_m_source_file_index>
2079

> <i_lp_mmshare_version>
43012

> <i_f3d_flags>
0

> <s_epik_input>
W0NIM11jMVtjSF1jKG5vMSlbTkhdQyg9TylbTkhdW0NIMl1bQ0gyXU4yW0NIMl1bQ0gyXVtDSDJdW0NIMl1bQ0BIXTJbQ0gzXQ==

> <s_epik_cmdline>
J2VwaWtfcHl0aG9uJywgJy1waCcsICc3LjAnLCAnLXRuJywgJzgnLCAnLW1hJywgJzIwMCcsICctbWV0YWxfYmluZGluZycsICctaW1hZScsICc8aW5maWxlLm1hZT4nLCAnLW9tYWUnLCAnPG91dGZpbGUubWFlPic=

> <r_epik_Ionization_Penalty>
6.22371

> <r_epik_Ionization_Penalty_Charging>
6.22362

> <r_epik_Ionization_Penalty_Neutral>
9.40454e-05

> <r_epik_State_Penalty>
6.22363

> <r_epik_Charging_Adjusted_Penalty>
12.4472

> <i_epik_Tot_Q>
0

> <i_epik_Tot_abs_Q>
2

> <r_epik_Metal_State_Penalty>
2.16675

> <b_epik_Metal_Only>
1

> <s_lp_Force_Field>
OPLS_2005

> <r_lp_Energy>
9.22117

> <b_lp_Chiralities_Consistent>
1

> <s_lp_Variant>
AV-unprocessed.smi:2079-5

> <Gold.Version>
5.8.1

> <Gold.Id.Protein>
6NUR|6NUR_protein|mol2

> <Gold.PLP.Fitness>
45.0502

> <Gold.PLP.PLP>
-29.0514

> <Gold.PLP.part.hbond>
-4.0158

> <Gold.PLP.part.metal>
0.0000

> <Gold.PLP.part.buried>
-3.9280

> <Gold.PLP.part.nonpolar>
-21.4165

> <Gold.PLP.part.repulsive>
0.0305

> <Gold.PLP.ligand.clash>
0.0000

> <Gold.PLP.ligand.torsion>
0.7085

> <Gold.PLP.Chemscore.Hbond>
5.7920

> <Gold.PLP.Chemscore.CHOScore>
0.0000

> <Gold.PLP.Chemscore.Metal>
0.0000

> <Gold.Chemscore.Hbonds>
donor molecule, donor type, donor heavy atom, donor atom, acceptor molecule, acceptor atom, score
      L1  H    11    41       P1  7948  2.00
      P1  H  6896  6907       L1     5  0.80

> <Gold.PLP.Chemscore.Internal.Correction>
0.0398

> <Gold.Rescore>
     Score         DG    S(hbond)    S(metal)    S(lipo)     H(rot)  DE(clash)    DE(int)     intcor
     14.35     -16.85       2.38        0.00      63.06       1.54       0.12       2.38       ----

> <Gold.Chemscore.Fitness>
14.3506

> <Gold.Chemscore.DG>
-16.8487

> <Gold.Chemscore.ZeroCoef>
-5.4800

> <Gold.Chemscore.Hbond>
2.3759

> <Gold.Chemscore.Metal>
0.0000

> <Gold.Chemscore.Lipo>
63.0574

> <Gold.Chemscore.Internal_Hbond>
0.0000

> <Gold.Chemscore.DEClash>
0.1191

> <Gold.Chemscore.DEInternal>
2.3790

> <Gold.Chemscore.Rot>
1.5409

> <Gold.Chemscore.Internal.Correction>
   9.000000E+99

> <Gold.Chemscore.Hbonds>
donor molecule, donor type, donor heavy atom, donor atom, acceptor molecule, acceptor atom, score
      L1  H    11    41       P1  7948  0.98
      P1  H  6896  6907       L1     5  0.01

> <Gold.Chemscore.Hbond.Weighted>
-7.9356

> <Gold.Chemscore.Metal.Weighted>
-0.0000

> <Gold.Chemscore.Lipo.Weighted>
-7.3777

> <Gold.Chemscore.Internal_Hbond.Weighted>
0.0000

> <Gold.Chemscore.DEClash.Weighted>
0.1191

> <Gold.Chemscore.DEInternal.Weighted>
2.3790

> <Gold.Chemscore.Rot.Weighted>
3.9446

> <Gold.Chemscore.Internal.Correction.Weighted>
   9.000000E+99

> <Gold.Protein.RotatedTorsions>
[ 6907 6896 6895 6894 ] final  -92.92 input  -60.11 | X-H torsion
[ 7974 7965 7964 7962 ] final   67.69 input  175.53 | X-H torsion
[ 8008 7997 7996 7995 ] final  131.09 input   59.86 | X-H torsion
[ 10167 10162 10161 10158 ] final  139.87 input  -65.29 | X-H torsion
[ 10718 10713 10712 10709 ] final  140.95 input   66.30 | X-H torsion
[ 10763 10752 10751 10750 ] final   27.39 input  -60.55 | X-H torsion
[ 11005 11000 10999 10996 ] final -116.05 input  -57.11 | X-H torsion

> <Gold.Protein.ActiveResidues>
 VAL166  LYS551  ARG553  GLY616  TRP617  ASP618  TYR619  PRO620  LYS621  CYS622 
 ASP623  PHE694  ASN695  SER759  ASP760  ASP761  ALA762  ILE779  LEU786  VAL792 
 PHE793  MET794  SER795  GLU796  ALA797  LYS798  CYS799  TRP800  GLU811  SER814 

> <Gold.Protein.RotatedAtoms>
  150.6914  134.2047  159.4335 H   0  0  0  0  0  0  0  0  0  0  0  0  # atno 6907 bound_to 6896
  152.0012  134.9925  160.0574 H   0  0  0  0  0  0  0  0  0  0  0  0  # atno 6908 bound_to 6896
  152.1577  133.4527  159.4882 H   0  0  0  0  0  0  0  0  0  0  0  0  # atno 6909 bound_to 6896
  145.8116  139.3035  143.1096 H   0  0  0  0  0  0  0  0  0  0  0  0  # atno 7974 bound_to 7965
  156.2965  140.2580  156.2869 H   0  0  0  0  0  0  0  0  0  0  0  0  # atno 8008 bound_to 7997
  154.9547  140.0393  157.2180 H   0  0  0  0  0  0  0  0  0  0  0  0  # atno 8009 bound_to 7997
  154.8002  140.2827  155.5931 H   0  0  0  0  0  0  0  0  0  0  0  0  # atno 8010 bound_to 7997
  139.5066  144.6269  151.5915 H   0  0  0  0  0  0  0  0  0  0  0  0  # atno 10167 bound_to 10162
  157.3975  131.1012  151.0585 H   0  0  0  0  0  0  0  0  0  0  0  0  # atno 10718 bound_to 10713
  153.0559  135.6538  154.0579 H   0  0  0  0  0  0  0  0  0  0  0  0  # atno 10763 bound_to 10752
  154.0257  135.2916  155.3376 H   0  0  0  0  0  0  0  0  0  0  0  0  # atno 10764 bound_to 10752
  154.6874  135.5296  153.8412 H   0  0  0  0  0  0  0  0  0  0  0  0  # atno 10765 bound_to 10752
  141.0447  133.9781  157.2937 H   0  0  0  0  0  0  0  0  0  0  0  0  # atno 11005 bound_to 11000
  145.9771  140.8713  143.0133 LP  0  0  0  0  0  0  0  0  0  0  0  0  # atno 17320 bound_to 7965
  144.6757  140.2028  143.7385 LP  0  0  0  0  0  0  0  0  0  0  0  0  # atno 17321 bound_to 7965
  140.5989  143.9646  150.6372 LP  0  0  0  0  0  0  0  0  0  0  0  0  # atno 17342 bound_to 10162
  140.2851  143.3362  152.1115 LP  0  0  0  0  0  0  0  0  0  0  0  0  # atno 17343 bound_to 10162
  157.1596  130.6220  149.5607 LP  0  0  0  0  0  0  0  0  0  0  0  0  # atno 17370 bound_to 10713
  155.9814  130.4821  150.6827 LP  0  0  0  0  0  0  0  0  0  0  0  0  # atno 17371 bound_to 10713
  139.9303  135.0200  156.8376 LP  0  0  0  0  0  0  0  0  0  0  0  0  # atno 17394 bound_to 11000
  140.6168  134.0031  155.7601 LP  0  0  0  0  0  0  0  0  0  0  0  0  # atno 17395 bound_to 11000

$$$$
