AV-unprocessed.smi:104|AV-procd|sdf|1000|dock10
  -GOLD-   2262017583D 1   1.00000     0.00000
 Structure written by MMmdl.
 47 49  0  0  0  0  0  0  0  0  1 V2000
  148.4385  131.0566  161.3855 C   0  0  0  0  0  0  0  0  0  0  0  0
  147.7926  132.0807  160.4611 C   0  0  0  0  0  0  0  0  0  0  0  0
  147.2021  131.7377  159.4370 O   0  0  0  0  0  0  0  0  0  0  0  0
  147.9462  133.3388  160.8997 O   0  0  0  0  0  0  0  0  0  0  0  0
  147.4322  134.4198  160.1380 C   0  0  0  0  0  0  0  0  0  0  0  0
  148.5197  135.4955  159.9514 C   0  0  1  0  0  0  0  0  0  0  0  0
  149.3109  135.1289  158.8304 O   0  0  0  0  0  0  0  0  0  0  0  0
  148.7385  135.6404  157.6657 C   0  0  2  0  0  0  0  0  0  0  0  0
  149.8515  136.0991  156.7733 N   0  0  0  0  0  0  0  0  0  0  0  0
  150.1924  135.6589  155.5149 C   0  0  0  0  0  0  0  0  0  0  0  0
  149.2242  134.2857  154.6184 Br  0  0  0  0  0  0  0  0  0  0  0  0
  151.2080  136.2365  154.9364 N   0  0  0  0  0  0  0  0  0  0  0  0
  151.6054  137.1740  155.8818 C   0  0  0  0  0  0  0  0  0  0  0  0
  152.6297  138.1527  155.9279 C   0  0  0  0  0  0  0  0  0  0  0  0
  153.4986  138.3492  154.9269 N   0  0  0  0  0  0  0  0  0  0  0  0
  152.7345  138.9287  157.0319 N   0  0  0  0  0  0  0  0  0  0  0  0
  151.8774  138.7557  158.0432 C   0  0  0  0  0  0  0  0  0  0  0  0
  150.8709  137.8837  158.1459 N   0  0  0  0  0  0  0  0  0  0  0  0
  150.7677  137.0992  157.0328 C   0  0  0  0  0  0  0  0  0  0  0  0
  147.7844  136.7872  158.0679 C   0  0  2  0  0  0  0  0  0  0  0  0
  148.1027  138.0127  157.4144 O   0  0  0  0  0  0  0  0  0  0  0  0
  147.4047  139.1273  157.6790 C   0  0  0  0  0  0  0  0  0  0  0  0
  147.8584  140.3065  156.8292 C   0  0  0  0  0  0  0  0  0  0  0  0
  146.4973  139.2378  158.5033 O   0  0  0  0  0  0  0  0  0  0  0  0
  148.0068  136.8912  159.5700 C   0  0  1  0  0  0  0  0  0  0  0  0
  146.7979  137.2516  160.2271 O   0  0  0  0  0  0  0  0  0  0  0  0
  146.6800  137.0984  161.5566 C   0  0  0  0  0  0  0  0  0  0  0  0
  145.2654  137.3733  162.0480 C   0  0  0  0  0  0  0  0  0  0  0  0
  147.5769  136.7654  162.3310 O   0  0  0  0  0  0  0  0  0  0  0  0
  148.7177  131.5118  162.3364 H   0  0  0  0  0  0  0  0  0  0  0  0
  149.3346  130.6436  160.9227 H   0  0  0  0  0  0  0  0  0  0  0  0
  147.7447  130.2403  161.5864 H   0  0  0  0  0  0  0  0  0  0  0  0
  147.1252  134.0324  159.1657 H   0  0  0  0  0  0  0  0  0  0  0  0
  146.5468  134.8495  160.6090 H   0  0  0  0  0  0  0  0  0  0  0  0
  149.1533  135.5357  160.8380 H   0  0  0  0  0  0  0  0  0  0  0  0
  148.2342  134.8458  157.1167 H   0  0  0  0  0  0  0  0  0  0  0  0
  153.4393  137.7851  154.0915 H   0  0  0  0  0  0  0  0  0  0  0  0
  154.2111  139.0598  155.0098 H   0  0  0  0  0  0  0  0  0  0  0  0
  152.0175  139.4097  158.8912 H   0  0  0  0  0  0  0  0  0  0  0  0
  146.7687  136.4564  157.8438 H   0  0  0  0  0  0  0  0  0  0  0  0
  147.8547  140.0366  155.7731 H   0  0  0  0  0  0  0  0  0  0  0  0
  148.8693  140.6050  157.1070 H   0  0  0  0  0  0  0  0  0  0  0  0
  147.1943  141.1595  156.9703 H   0  0  0  0  0  0  0  0  0  0  0  0
  148.7938  137.6245  159.7554 H   0  0  0  0  0  0  0  0  0  0  0  0
  145.0077  138.4206  161.8903 H   0  0  0  0  0  0  0  0  0  0  0  0
  145.1798  137.1519  163.1121 H   0  0  0  0  0  0  0  0  0  0  0  0
  144.5491  136.7536  161.5084 H   0  0  0  0  0  0  0  0  0  0  0  0
  1  2  1  0  0  0  0
  1 30  1  0  0  0  0
  1 31  1  0  0  0  0
  1 32  1  0  0  0  0
  2  3  2  0  0  0  0
  2  4  1  0  0  0  0
  4  5  1  0  0  0  0
  5  6  1  0  0  0  0
  5 33  1  0  0  0  0
  5 34  1  0  0  0  0
  6 25  1  0  0  0  0
  6  7  1  0  0  0  0
  6 35  1  0  0  0  0
  7  8  1  0  0  0  0
  8  9  1  0  0  0  0
  8 20  1  0  0  0  0
  8 36  1  0  0  0  0
  9 19  1  0  0  0  0
  9 10  1  0  0  0  0
 10 11  1  0  0  0  0
 10 12  2  0  0  0  0
 12 13  1  0  0  0  0
 13 19  2  0  0  0  0
 13 14  1  0  0  0  0
 14 15  1  0  0  0  0
 14 16  2  0  0  0  0
 15 37  1  0  0  0  0
 15 38  1  0  0  0  0
 16 17  1  0  0  0  0
 17 18  2  0  0  0  0
 17 39  1  0  0  0  0
 18 19  1  0  0  0  0
 20 21  1  0  0  0  0
 20 25  1  0  0  0  0
 20 40  1  0  0  0  0
 21 22  1  0  0  0  0
 22 23  1  0  0  0  0
 22 24  2  0  0  0  0
 23 41  1  0  0  0  0
 23 42  1  0  0  0  0
 23 43  1  0  0  0  0
 25 26  1  0  0  0  0
 25 44  1  0  0  0  0
 26 27  1  0  0  0  0
 27 28  1  0  0  0  0
 27 29  2  0  0  0  0
 28 45  1  0  0  0  0
 28 46  1  0  0  0  0
 28 47  1  0  0  0  0
M  END
> <s_m_source_file>
AV-unprocessed.smi

> <i_m_source_file_index>
104

> <i_lp_mmshare_version>
43012

> <i_f3d_flags>
0

> <s_epik_input>
W0NIM11DKD1PKU9bQ0gyXVtDQEBIXTFPW0NASF0oW0NAQEhdKE9DKD1PKVtDSDNdKVtDQEhdMU9DKD1PKVtDSDNdKW4oYyhCciluMiljKGMyMyluW2NIXW5jM1tOSDJd

> <s_epik_cmdline>
J2VwaWtfcHl0aG9uJywgJy1waCcsICc3LjAnLCAnLXRuJywgJzgnLCAnLW1hJywgJzIwMCcsICctbWV0YWxfYmluZGluZycsICctaW1hZScsICc8aW5maWxlLm1hZT4nLCAnLW9tYWUnLCAnPG91dGZpbGUubWFlPic=

> <r_lp_tautomer_probability>
1

> <r_epik_Ionization_Penalty>
7.36622e-05

> <r_epik_Ionization_Penalty_Charging>
0

> <r_epik_Ionization_Penalty_Neutral>
7.36622e-05

> <r_epik_State_Penalty>
-0

> <r_epik_Charging_Adjusted_Penalty>
0

> <i_epik_Tot_Q>
0

> <i_epik_Tot_abs_Q>
0

> <r_epik_Metal_State_Penalty>
-0

> <b_epik_Metal_Only>
0

> <s_epik_Chemistry_Notes>
This compound has an ester and may undergo hydrolysis at high or low pH. This compound contains an acetal/aminal-like group ( X-CH(R)-Y where X, Y are N, S, or O) that may be acid/base labile, releasing an aldehyde.

> <s_lp_Force_Field>
OPLS_2005

> <r_lp_Energy>
18.9649

> <b_lp_Chiralities_Consistent>
1

> <s_lp_Variant>
AV-unprocessed.smi:104-8

> <Gold.Version>
5.8.1

> <Gold.Id.Protein>
6NUR|6NUR_protein|mol2

> <Gold.PLP.Fitness>
38.5429

> <Gold.PLP.PLP>
-28.0013

> <Gold.PLP.part.hbond>
-6.3349

> <Gold.PLP.part.metal>
0.0000

> <Gold.PLP.part.buried>
-2.9945

> <Gold.PLP.part.nonpolar>
-19.6183

> <Gold.PLP.part.repulsive>
0.3922

> <Gold.PLP.ligand.clash>
0.0000

> <Gold.PLP.ligand.torsion>
0.7429

> <Gold.PLP.Chemscore.Hbond>
3.9600

> <Gold.PLP.Chemscore.CHOScore>
0.0000

> <Gold.PLP.Chemscore.Metal>
0.0000

> <Gold.Chemscore.Hbonds>
donor molecule, donor type, donor heavy atom, donor atom, acceptor molecule, acceptor atom, score
      P1  H  6896  6907       L1     7  1.00
      P1  H  6931  6943       L1    29  0.80
      P1  H  7997  8010       L1    16  0.91
      P1  H 10752 10763       L1    12  1.00

> <Gold.PLP.Chemscore.Internal.Correction>
0.1475

> <Gold.Rescore>
     Score         DG    S(hbond)    S(metal)    S(lipo)     H(rot)  DE(clash)    DE(int)     intcor
      1.04      -6.69       2.44        0.00      34.90       4.31       0.69       4.96       ----

> <Gold.Chemscore.Fitness>
1.0421

> <Gold.Chemscore.DG>
-6.6880

> <Gold.Chemscore.ZeroCoef>
-5.4800

> <Gold.Chemscore.Hbond>
2.4401

> <Gold.Chemscore.Metal>
0.0000

> <Gold.Chemscore.Lipo>
34.9042

> <Gold.Chemscore.Internal_Hbond>
0.0000

> <Gold.Chemscore.DEClash>
0.6850

> <Gold.Chemscore.DEInternal>
4.9608

> <Gold.Chemscore.Rot>
4.3070

> <Gold.Chemscore.Internal.Correction>
   9.000000E+99

> <Gold.Chemscore.Hbonds>
donor molecule, donor type, donor heavy atom, donor atom, acceptor molecule, acceptor atom, score
      P1  H  6896  6907       L1     7  0.60
      P1  H  6931  6943       L1    29  0.23
      P1  H  7997  8010       L1    16  0.53
      P1  H 10752 10763       L1    12  0.25

> <Gold.Chemscore.Hbond.Weighted>
-8.1500

> <Gold.Chemscore.Metal.Weighted>
-0.0000

> <Gold.Chemscore.Lipo.Weighted>
-4.0838

> <Gold.Chemscore.Internal_Hbond.Weighted>
0.0000

> <Gold.Chemscore.DEClash.Weighted>
0.6850

> <Gold.Chemscore.DEInternal.Weighted>
4.9608

> <Gold.Chemscore.Rot.Weighted>
11.0259

> <Gold.Chemscore.Internal.Correction.Weighted>
   9.000000E+99

> <Gold.Protein.RotatedTorsions>
[ 6907 6896 6895 6894 ] final  -89.21 input  -60.11 | X-H torsion
[ 7974 7965 7964 7962 ] final -148.14 input  175.53 | X-H torsion
[ 8008 7997 7996 7995 ] final   47.62 input   59.86 | X-H torsion
[ 10167 10162 10161 10158 ] final    0.38 input  -65.29 | X-H torsion
[ 10718 10713 10712 10709 ] final -105.60 input   66.30 | X-H torsion
[ 10763 10752 10751 10750 ] final   42.40 input  -60.55 | X-H torsion
[ 11005 11000 10999 10996 ] final -118.53 input  -57.11 | X-H torsion

> <Gold.Protein.ActiveResidues>
 VAL166  LYS551  ARG553  GLY616  TRP617  ASP618  TYR619  PRO620  LYS621  CYS622 
 ASP623  PHE694  ASN695  SER759  ASP760  ASP761  ALA762  ILE779  LEU786  VAL792 
 PHE793  MET794  SER795  GLU796  ALA797  LYS798  CYS799  TRP800  GLU811  SER814 

> <Gold.Protein.RotatedAtoms>
  150.6872  134.2623  159.4553 H   0  0  0  0  0  0  0  0  0  0  0  0  # atno 6907 bound_to 6896
  152.0552  134.9626  160.0584 H   0  0  0  0  0  0  0  0  0  0  0  0  # atno 6908 bound_to 6896
  152.1075  133.4248  159.4652 H   0  0  0  0  0  0  0  0  0  0  0  0  # atno 6909 bound_to 6896
  144.8048  140.5235  143.5682 H   0  0  0  0  0  0  0  0  0  0  0  0  # atno 7974 bound_to 7965
  155.3721  140.3424  155.4243 H   0  0  0  0  0  0  0  0  0  0  0  0  # atno 8008 bound_to 7997
  156.1657  140.1615  156.8570 H   0  0  0  0  0  0  0  0  0  0  0  0  # atno 8009 bound_to 7997
  154.5183  140.0773  156.8105 H   0  0  0  0  0  0  0  0  0  0  0  0  # atno 8010 bound_to 7997
  140.6731  143.6992  150.7965 H   0  0  0  0  0  0  0  0  0  0  0  0  # atno 10167 bound_to 10162
  156.0353  130.5572  150.7563 H   0  0  0  0  0  0  0  0  0  0  0  0  # atno 10718 bound_to 10713
  152.9884  135.6133  154.2943 H   0  0  0  0  0  0  0  0  0  0  0  0  # atno 10763 bound_to 10752
  154.2667  135.2780  155.2757 H   0  0  0  0  0  0  0  0  0  0  0  0  # atno 10764 bound_to 10752
  154.5158  135.5828  153.6698 H   0  0  0  0  0  0  0  0  0  0  0  0  # atno 10765 bound_to 10752
  141.0279  134.0025  157.3187 H   0  0  0  0  0  0  0  0  0  0  0  0  # atno 11005 bound_to 11000
  145.5464  139.1476  143.3418 LP  0  0  0  0  0  0  0  0  0  0  0  0  # atno 17320 bound_to 7965
  146.2337  140.5603  142.8964 LP  0  0  0  0  0  0  0  0  0  0  0  0  # atno 17321 bound_to 7965
  140.0681  143.5088  152.2594 LP  0  0  0  0  0  0  0  0  0  0  0  0  # atno 17342 bound_to 10162
  139.6009  144.7582  151.3174 LP  0  0  0  0  0  0  0  0  0  0  0  0  # atno 17343 bound_to 10162
  157.5094  131.0924  151.0217 LP  0  0  0  0  0  0  0  0  0  0  0  0  # atno 17370 bound_to 10713
  157.0577  130.5812  149.5380 LP  0  0  0  0  0  0  0  0  0  0  0  0  # atno 17371 bound_to 10713
  139.9188  135.0199  156.7986 LP  0  0  0  0  0  0  0  0  0  0  0  0  # atno 17394 bound_to 11000
  140.6458  133.9776  155.7730 LP  0  0  0  0  0  0  0  0  0  0  0  0  # atno 17395 bound_to 11000

$$$$
