AV-unprocessed.smi:1055|AV-procd|sdf|4628|dock10
  -GOLD-   22720 3133D 1   1.00000     0.00000
 Structure written by MMmdl.
 51 52  0  0  0  0  0  0  0  0  2 V2000
  152.1830  142.7973  158.3697 C   0  0  0  0  0  0  0  0  0  0  0  0
  151.6000  141.7705  157.7294 C   0  0  0  0  0  0  0  0  0  0  0  0
  150.5500  141.9847  156.6552 C   0  0  0  0  0  0  0  0  0  0  0  0
  151.9721  140.3243  158.0234 C   0  0  0  0  0  0  0  0  0  0  0  0
  151.2529  139.3556  157.1956 N   0  0  0  0  0  0  0  0  0  0  0  0
  151.3505  137.9991  157.7468 C   0  0  0  0  0  0  0  0  0  0  0  0
  150.5351  137.0123  156.8935 C   0  0  0  0  0  0  0  0  0  0  0  0
  151.0128  137.0171  155.4316 C   0  0  0  0  0  0  0  0  0  0  0  0
  150.1519  136.1827  154.5982 N   0  0  0  0  0  0  0  0  0  0  0  0
  150.0154  134.8546  154.7196 C   0  0  0  0  0  0  0  0  0  0  0  0
  150.6206  134.1838  155.5555 O   0  0  0  0  0  0  0  0  0  0  0  0
  149.1547  134.3676  153.8090 N   0  0  0  0  0  0  0  0  0  0  0  0
  148.7158  133.0268  153.6355 C   0  0  0  0  0  0  0  0  0  0  0  0
  149.3916  132.0141  154.3476 C   0  0  0  0  0  0  0  0  0  0  0  0
  149.0010  130.6676  154.1950 C   0  0  0  0  0  0  0  0  0  0  0  0
  147.9371  130.3373  153.3197 C   0  0  0  0  0  0  0  0  0  0  0  0
  147.4884  129.0150  153.1120 N   0  0  0  0  0  0  0  0  0  0  0  0
  146.3120  128.7690  152.2882 C   0  0  0  0  0  0  0  0  0  0  0  0
  148.1944  127.9030  153.7391 C   0  0  0  0  0  0  0  0  0  0  0  0
  147.3270  131.3440  152.6478 N   0  3  0  0  0  0  0  0  0  0  0  0
  147.6673  132.6454  152.7650 C   0  0  0  0  0  0  0  0  0  0  0  0
  151.0098  138.4608  154.9092 C   0  0  0  0  0  0  0  0  0  0  0  0
  151.8107  139.3856  155.8421 C   0  0  0  0  0  0  0  0  0  0  0  0
  151.9174  143.8204  158.1475 H   0  0  0  0  0  0  0  0  0  0  0  0
  152.9349  142.6303  159.1270 H   0  0  0  0  0  0  0  0  0  0  0  0
  150.8769  141.5409  155.7147 H   0  0  0  0  0  0  0  0  0  0  0  0
  150.3665  143.0461  156.4842 H   0  0  0  0  0  0  0  0  0  0  0  0
  149.6057  141.5221  156.9433 H   0  0  0  0  0  0  0  0  0  0  0  0
  153.0444  140.2170  157.8537 H   0  0  0  0  0  0  0  0  0  0  0  0
  151.7962  140.1082  159.0786 H   0  0  0  0  0  0  0  0  0  0  0  0
  152.3953  137.6879  157.7914 H   0  0  0  0  0  0  0  0  0  0  0  0
  150.9671  137.9739  158.7668 H   0  0  0  0  0  0  0  0  0  0  0  0
  150.6202  136.0101  157.3149 H   0  0  0  0  0  0  0  0  0  0  0  0
  149.4783  137.2797  156.9431 H   0  0  0  0  0  0  0  0  0  0  0  0
  152.0360  136.6388  155.3882 H   0  0  0  0  0  0  0  0  0  0  0  0
  149.6187  136.6551  153.8829 H   0  0  0  0  0  0  0  0  0  0  0  0
  148.7975  135.0319  153.1378 H   0  0  0  0  0  0  0  0  0  0  0  0
  150.2048  132.2636  155.0136 H   0  0  0  0  0  0  0  0  0  0  0  0
  149.5283  129.9088  154.7534 H   0  0  0  0  0  0  0  0  0  0  0  0
  145.4351  129.2505  152.7216 H   0  0  0  0  0  0  0  0  0  0  0  0
  146.1005  127.7026  152.2068 H   0  0  0  0  0  0  0  0  0  0  0  0
  146.4618  129.1556  151.2797 H   0  0  0  0  0  0  0  0  0  0  0  0
  148.1968  128.0129  154.8240 H   0  0  0  0  0  0  0  0  0  0  0  0
  149.2273  127.8609  153.3921 H   0  0  0  0  0  0  0  0  0  0  0  0
  147.7237  126.9487  153.5023 H   0  0  0  0  0  0  0  0  0  0  0  0
  147.0932  133.3192  152.1471 H   0  0  0  0  0  0  0  0  0  0  0  0
  151.4331  138.4961  153.9047 H   0  0  0  0  0  0  0  0  0  0  0  0
  149.9858  138.8290  154.8274 H   0  0  0  0  0  0  0  0  0  0  0  0
  151.7739  140.4044  155.4541 H   0  0  0  0  0  0  0  0  0  0  0  0
  152.8605  139.0882  155.8609 H   0  0  0  0  0  0  0  0  0  0  0  0
  146.5658  131.1054  152.0118 H   0  0  0  0  0  0  0  0  0  0  0  0
  1  2  2  0  0  0  0
  1 24  1  0  0  0  0
  1 25  1  0  0  0  0
  2  3  1  0  0  0  0
  2  4  1  0  0  0  0
  3 26  1  0  0  0  0
  3 27  1  0  0  0  0
  3 28  1  0  0  0  0
  4  5  1  0  0  0  0
  4 29  1  0  0  0  0
  4 30  1  0  0  0  0
  5 23  1  0  0  0  0
  5  6  1  0  0  0  0
  6  7  1  0  0  0  0
  6 31  1  0  0  0  0
  6 32  1  0  0  0  0
  7  8  1  0  0  0  0
  7 33  1  0  0  0  0
  7 34  1  0  0  0  0
  8  9  1  0  0  0  0
  8 22  1  0  0  0  0
  8 35  1  0  0  0  0
  9 10  1  0  0  0  0
  9 36  1  0  0  0  0
 10 11  2  0  0  0  0
 10 12  1  0  0  0  0
 12 13  1  0  0  0  0
 12 37  1  0  0  0  0
 13 21  1  0  0  0  0
 13 14  2  0  0  0  0
 14 15  1  0  0  0  0
 14 38  1  0  0  0  0
 15 16  2  0  0  0  0
 15 39  1  0  0  0  0
 16 17  1  0  0  0  0
 16 20  1  0  0  0  0
 17 18  1  0  0  0  0
 17 19  1  0  0  0  0
 18 40  1  0  0  0  0
 18 41  1  0  0  0  0
 18 42  1  0  0  0  0
 19 43  1  0  0  0  0
 19 44  1  0  0  0  0
 19 45  1  0  0  0  0
 20 21  2  0  0  0  0
 20 51  1  0  0  0  0
 21 46  1  0  0  0  0
 22 23  1  0  0  0  0
 22 47  1  0  0  0  0
 22 48  1  0  0  0  0
 23 49  1  0  0  0  0
 23 50  1  0  0  0  0
M  CHG  1  20   1
M  END
> <s_m_source_file>
AV-unprocessed.smi

> <i_m_source_file_index>
1055

> <i_lp_mmshare_version>
43012

> <i_f3d_flags>
0

> <s_epik_input>
W0NIMl09QyhbQ0gzXSlbQ0gyXU4xW0NIMl1bQ0gyXVtDSF0oW0NIMl1bQ0gyXTEpW05IXUMoPU8pW05IXWMyW2NIXVtjSF1jKE4oW0NIM10pW0NIM10pbltjSF0y

> <s_epik_cmdline>
J2VwaWtfcHl0aG9uJywgJy1waCcsICc3LjAnLCAnLXRuJywgJzgnLCAnLW1hJywgJzIwMCcsICctbWV0YWxfYmluZGluZycsICctaW1hZScsICc8aW5maWxlLm1hZT4nLCAnLW9tYWUnLCAnPG91dGZpbGUubWFlPic=

> <r_epik_Ionization_Penalty>
2.2313

> <r_epik_Ionization_Penalty_Charging>
0.252156

> <r_epik_Ionization_Penalty_Neutral>
1.97915

> <r_epik_State_Penalty>
2.37644

> <r_epik_Charging_Adjusted_Penalty>
2.62859

> <i_epik_Tot_Q>
1

> <i_epik_Tot_abs_Q>
1

> <r_epik_Metal_State_Penalty>
2.63815

> <b_epik_Metal_Only>
0

> <s_lp_Force_Field>
OPLS_2005

> <r_lp_Energy>
24.1414

> <b_lp_Chiralities_Consistent>
1

> <s_lp_Variant>
AV-unprocessed.smi:1055-5

> <Gold.Version>
5.8.1

> <Gold.Id.Protein>
6NUR|6NUR_protein|mol2

> <Gold.PLP.Fitness>
43.2847

> <Gold.PLP.PLP>
-38.7705

> <Gold.PLP.part.hbond>
-3.3724

> <Gold.PLP.part.metal>
0.0000

> <Gold.PLP.part.buried>
-2.9864

> <Gold.PLP.part.nonpolar>
-32.3280

> <Gold.PLP.part.repulsive>
0.1284

> <Gold.PLP.ligand.clash>
0.0000

> <Gold.PLP.ligand.torsion>
0.1761

> <Gold.PLP.Chemscore.Hbond>
1.6115

> <Gold.PLP.Chemscore.CHOScore>
0.0000

> <Gold.PLP.Chemscore.Metal>
0.0000

> <Gold.Chemscore.Hbonds>
donor molecule, donor type, donor heavy atom, donor atom, acceptor molecule, acceptor atom, score
      L1  H     9    36       P1  7948  0.53
      L1  H    12    37       P1  7948  1.00

> <Gold.PLP.Chemscore.Internal.Correction>
0.0318

> <Gold.Rescore>
     Score         DG    S(hbond)    S(metal)    S(lipo)     H(rot)  DE(clash)    DE(int)     intcor
     13.10     -15.66       0.74        0.00      94.96       1.32       0.05       2.51       ----

> <Gold.Chemscore.Fitness>
13.1004

> <Gold.Chemscore.DG>
-15.6594

> <Gold.Chemscore.ZeroCoef>
-5.4800

> <Gold.Chemscore.Hbond>
0.7353

> <Gold.Chemscore.Metal>
0.0000

> <Gold.Chemscore.Lipo>
94.9620

> <Gold.Chemscore.Internal_Hbond>
0.0000

> <Gold.Chemscore.DEClash>
0.0494

> <Gold.Chemscore.DEInternal>
2.5096

> <Gold.Chemscore.Rot>
1.3231

> <Gold.Chemscore.Internal.Correction>
   9.000000E+99

> <Gold.Chemscore.Hbonds>
donor molecule, donor type, donor heavy atom, donor atom, acceptor molecule, acceptor atom, score
      L1  H     9    36       P1  7948  0.39
      L1  H    12    37       P1  7948  0.38

> <Gold.Chemscore.Hbond.Weighted>
-2.4560

> <Gold.Chemscore.Metal.Weighted>
-0.0000

> <Gold.Chemscore.Lipo.Weighted>
-11.1106

> <Gold.Chemscore.Internal_Hbond.Weighted>
0.0000

> <Gold.Chemscore.DEClash.Weighted>
0.0494

> <Gold.Chemscore.DEInternal.Weighted>
2.5096

> <Gold.Chemscore.Rot.Weighted>
3.3871

> <Gold.Chemscore.Internal.Correction.Weighted>
   9.000000E+99

> <Gold.Protein.RotatedTorsions>
[ 6907 6896 6895 6894 ] final  -23.30 input  -60.11 | X-H torsion
[ 7974 7965 7964 7962 ] final -128.00 input  175.53 | X-H torsion
[ 8008 7997 7996 7995 ] final  -34.04 input   59.86 | X-H torsion
[ 10167 10162 10161 10158 ] final  178.47 input  -65.29 | X-H torsion
[ 10718 10713 10712 10709 ] final  -76.20 input   66.30 | X-H torsion
[ 10763 10752 10751 10750 ] final   37.06 input  -60.55 | X-H torsion
[ 11005 11000 10999 10996 ] final -125.71 input  -57.11 | X-H torsion

> <Gold.Protein.ActiveResidues>
 VAL166  LYS551  ARG553  GLY616  TRP617  ASP618  TYR619  PRO620  LYS621  CYS622 
 ASP623  PHE694  ASN695  SER759  ASP760  ASP761  ALA762  ILE779  LEU786  VAL792 
 PHE793  MET794  SER795  GLU796  ALA797  LYS798  CYS799  TRP800  GLU811  SER814 

> <Gold.Protein.RotatedAtoms>
  151.2060  135.0462  159.8891 H   0  0  0  0  0  0  0  0  0  0  0  0  # atno 6907 bound_to 6896
  152.5429  134.0797  159.8240 H   0  0  0  0  0  0  0  0  0  0  0  0  # atno 6908 bound_to 6896
  151.0944  133.5243  159.2645 H   0  0  0  0  0  0  0  0  0  0  0  0  # atno 6909 bound_to 6896
  144.9715  140.7550  143.4668 H   0  0  0  0  0  0  0  0  0  0  0  0  # atno 7974 bound_to 7965
  154.4132  140.1694  156.1985 H   0  0  0  0  0  0  0  0  0  0  0  0  # atno 8008 bound_to 7997
  155.9544  140.3398  155.6412 H   0  0  0  0  0  0  0  0  0  0  0  0  # atno 8009 bound_to 7997
  155.6829  140.0724  157.2468 H   0  0  0  0  0  0  0  0  0  0  0  0  # atno 8010 bound_to 7997
  139.5295  144.2677  152.0654 H   0  0  0  0  0  0  0  0  0  0  0  0  # atno 10167 bound_to 10162
  156.0183  130.4459  150.3157 H   0  0  0  0  0  0  0  0  0  0  0  0  # atno 10718 bound_to 10713
  153.0052  135.6288  154.2084 H   0  0  0  0  0  0  0  0  0  0  0  0  # atno 10763 bound_to 10752
  154.1828  135.2812  155.3048 H   0  0  0  0  0  0  0  0  0  0  0  0  # atno 10764 bound_to 10752
  154.5821  135.5644  153.7255 H   0  0  0  0  0  0  0  0  0  0  0  0  # atno 10765 bound_to 10752
  140.9740  134.0766  157.3838 H   0  0  0  0  0  0  0  0  0  0  0  0  # atno 11005 bound_to 11000
  145.2552  139.2015  143.4921 LP  0  0  0  0  0  0  0  0  0  0  0  0  # atno 17320 bound_to 7965
  146.3383  140.2473  142.8597 LP  0  0  0  0  0  0  0  0  0  0  0  0  # atno 17321 bound_to 7965
  140.2138  144.4536  150.6373 LP  0  0  0  0  0  0  0  0  0  0  0  0  # atno 17342 bound_to 10162
  140.6463  143.2214  151.6178 LP  0  0  0  0  0  0  0  0  0  0  0  0  # atno 17343 bound_to 10162
  157.1258  131.0259  151.2990 LP  0  0  0  0  0  0  0  0  0  0  0  0  # atno 17370 bound_to 10713
  157.4591  130.7642  149.7219 LP  0  0  0  0  0  0  0  0  0  0  0  0  # atno 17371 bound_to 10713
  139.8923  135.0124  156.6840 LP  0  0  0  0  0  0  0  0  0  0  0  0  # atno 17394 bound_to 11000
  140.7286  133.9078  155.8196 LP  0  0  0  0  0  0  0  0  0  0  0  0  # atno 17395 bound_to 11000

$$$$
