AV-unprocessed.smi:314|AV-procd|sdf|2314|dock10
  -GOLD-   2262022213D 1   1.00000     0.00000
 Structure written by MMmdl.
 48 49  0  0  0  0  0  0  0  0  1 V2000
  144.2088  132.8422  148.7658 C   0  0  0  0  0  0  0  0  0  0  0  0
  144.3047  131.7772  149.7053 O   0  0  0  0  0  0  0  0  0  0  0  0
  145.2198  131.8899  150.7320 C   0  0  0  0  0  0  0  0  0  0  0  0
  145.3806  130.8027  151.6139 C   0  0  0  0  0  0  0  0  0  0  0  0
  146.3171  130.9069  152.6600 C   0  0  0  0  0  0  0  0  0  0  0  0
  147.0701  132.0980  152.7866 C   0  0  0  0  0  0  0  0  0  0  0  0
  148.0277  132.3270  153.8100 N   0  0  0  0  0  0  0  0  0  0  0  0
  148.3535  133.4924  154.3939 C   0  0  0  0  0  0  0  0  0  0  0  0
  147.8359  134.5813  154.1446 O   0  0  0  0  0  0  0  0  0  0  0  0
  149.3091  133.3218  155.3186 N   0  0  0  0  0  0  0  0  0  0  0  0
  149.8583  134.3820  156.1561 C   0  0  0  0  0  0  0  0  0  0  0  0
  150.5525  135.4646  155.3053 C   0  0  0  0  0  0  0  0  0  0  0  0
  149.7201  136.7454  155.1256 C   0  0  0  0  0  0  0  0  0  0  0  0
  148.5407  136.7476  155.4817 O   0  0  0  0  0  0  0  0  0  0  0  0
  150.3124  137.8383  154.5870 N   0  0  0  0  0  0  0  0  0  0  0  0
  151.7143  137.9479  154.1719 C   0  0  0  0  0  0  0  0  0  0  0  0
  152.4332  138.9696  155.0780 C   0  0  2  0  0  0  0  0  0  0  0  0
  152.6674  138.4721  156.5158 C   0  0  0  0  0  0  0  0  0  0  0  0
  151.7252  140.2134  155.0623 O   0  0  0  0  0  0  0  0  0  0  0  0
  150.3344  140.1393  155.3863 C   0  0  1  0  0  0  0  0  0  0  0  0
  149.7434  141.5477  155.2600 C   0  0  0  0  0  0  0  0  0  0  0  0
  149.6407  139.1318  154.4489 C   0  0  0  0  0  0  0  0  0  0  0  0
  146.8203  133.1351  151.8645 C   0  0  0  0  0  0  0  0  0  0  0  0
  145.9267  133.0404  150.8576 N   0  0  0  0  0  0  0  0  0  0  0  0
  143.4533  132.5980  148.0192 H   0  0  0  0  0  0  0  0  0  0  0  0
  145.1530  132.9977  148.2417 H   0  0  0  0  0  0  0  0  0  0  0  0
  143.9087  133.7738  149.2477 H   0  0  0  0  0  0  0  0  0  0  0  0
  144.7932  129.9045  151.4924 H   0  0  0  0  0  0  0  0  0  0  0  0
  146.4293  130.0834  153.3482 H   0  0  0  0  0  0  0  0  0  0  0  0
  148.4677  131.5002  154.1865 H   0  0  0  0  0  0  0  0  0  0  0  0
  149.6769  132.3924  155.4599 H   0  0  0  0  0  0  0  0  0  0  0  0
  149.0365  134.8196  156.7239 H   0  0  0  0  0  0  0  0  0  0  0  0
  150.5498  133.9553  156.8854 H   0  0  0  0  0  0  0  0  0  0  0  0
  151.4996  135.7351  155.7736 H   0  0  0  0  0  0  0  0  0  0  0  0
  150.7826  135.0535  154.3216 H   0  0  0  0  0  0  0  0  0  0  0  0
  152.2544  137.0024  154.1768 H   0  0  0  0  0  0  0  0  0  0  0  0
  151.7451  138.2917  153.1370 H   0  0  0  0  0  0  0  0  0  0  0  0
  153.4134  139.1701  154.6448 H   0  0  0  0  0  0  0  0  0  0  0  0
  153.2923  137.5787  156.5184 H   0  0  0  0  0  0  0  0  0  0  0  0
  151.7382  138.2184  157.0251 H   0  0  0  0  0  0  0  0  0  0  0  0
  153.1762  139.2312  157.1101 H   0  0  0  0  0  0  0  0  0  0  0  0
  150.2185  139.8150  156.4210 H   0  0  0  0  0  0  0  0  0  0  0  0
  148.6829  141.5527  155.5127 H   0  0  0  0  0  0  0  0  0  0  0  0
  149.8481  141.9305  154.2444 H   0  0  0  0  0  0  0  0  0  0  0  0
  150.2476  142.2428  155.9318 H   0  0  0  0  0  0  0  0  0  0  0  0
  149.7082  139.4657  153.4124 H   0  0  0  0  0  0  0  0  0  0  0  0
  148.5759  139.0813  154.6799 H   0  0  0  0  0  0  0  0  0  0  0  0
  147.3591  134.0691  151.9300 H   0  0  0  0  0  0  0  0  0  0  0  0
  1  2  1  0  0  0  0
  1 25  1  0  0  0  0
  1 26  1  0  0  0  0
  1 27  1  0  0  0  0
  2  3  1  0  0  0  0
  3 24  1  0  0  0  0
  3  4  2  0  0  0  0
  4  5  1  0  0  0  0
  4 28  1  0  0  0  0
  5  6  2  0  0  0  0
  5 29  1  0  0  0  0
  6  7  1  0  0  0  0
  6 23  1  0  0  0  0
  7  8  1  0  0  0  0
  7 30  1  0  0  0  0
  8  9  2  0  0  0  0
  8 10  1  0  0  0  0
 10 11  1  0  0  0  0
 10 31  1  0  0  0  0
 11 12  1  0  0  0  0
 11 32  1  0  0  0  0
 11 33  1  0  0  0  0
 12 13  1  0  0  0  0
 12 34  1  0  0  0  0
 12 35  1  0  0  0  0
 13 14  2  0  0  0  0
 13 15  1  0  0  0  0
 15 22  1  0  0  0  0
 15 16  1  0  0  0  0
 16 17  1  0  0  0  0
 16 36  1  0  0  0  0
 16 37  1  0  0  0  0
 17 18  1  0  0  0  0
 17 19  1  0  0  0  0
 17 38  1  0  0  0  0
 18 39  1  0  0  0  0
 18 40  1  0  0  0  0
 18 41  1  0  0  0  0
 19 20  1  0  0  0  0
 20 21  1  0  0  0  0
 20 22  1  0  0  0  0
 20 42  1  0  0  0  0
 21 43  1  0  0  0  0
 21 44  1  0  0  0  0
 21 45  1  0  0  0  0
 22 46  1  0  0  0  0
 22 47  1  0  0  0  0
 23 24  2  0  0  0  0
 23 48  1  0  0  0  0
M  END
> <s_m_source_file>
AV-unprocessed.smi

> <i_m_source_file_index>
314

> <i_lp_mmshare_version>
43012

> <i_f3d_flags>
0

> <s_epik_input>
W0NIM11PYzFbY0hdW2NIXWMoW2NIXW4xKVtOSF1DKD1PKVtOSF1bQ0gyXVtDSDJdQyg9TylOMltDSDJdW0NAQEhdKFtDSDNdKU9bQ0BASF0oW0NIM10pW0NIMl0y

> <s_epik_cmdline>
J2VwaWtfcHl0aG9uJywgJy1waCcsICc3LjAnLCAnLXRuJywgJzgnLCAnLW1hJywgJzIwMCcsICctbWV0YWxfYmluZGluZycsICctaW1hZScsICc8aW5maWxlLm1hZT4nLCAnLW9tYWUnLCAnPG91dGZpbGUubWFlPic=

> <r_lp_tautomer_probability>
1

> <r_epik_Ionization_Penalty>
8.55977e-05

> <r_epik_Ionization_Penalty_Charging>
0

> <r_epik_Ionization_Penalty_Neutral>
8.55977e-05

> <r_epik_State_Penalty>
-0

> <r_epik_Charging_Adjusted_Penalty>
0

> <i_epik_Tot_Q>
0

> <i_epik_Tot_abs_Q>
0

> <r_epik_Metal_State_Penalty>
-0

> <b_epik_Metal_Only>
0

> <s_lp_Force_Field>
OPLS_2005

> <r_lp_Energy>
25.8744

> <b_lp_Chiralities_Consistent>
1

> <s_lp_Variant>
AV-unprocessed.smi:314-2

> <Gold.Version>
5.8.1

> <Gold.Id.Protein>
6NUR|6NUR_protein|mol2

> <Gold.PLP.Fitness>
47.2309

> <Gold.PLP.PLP>
-42.5078

> <Gold.PLP.part.hbond>
-2.0000

> <Gold.PLP.part.metal>
0.0000

> <Gold.PLP.part.buried>
-6.4011

> <Gold.PLP.part.nonpolar>
-34.7893

> <Gold.PLP.part.repulsive>
1.2600

> <Gold.PLP.ligand.clash>
0.0000

> <Gold.PLP.ligand.torsion>
0.6288

> <Gold.PLP.Chemscore.Hbond>
1.3064

> <Gold.PLP.Chemscore.CHOScore>
0.6787

> <Gold.PLP.Chemscore.Metal>
0.0000

> <Gold.Chemscore.Hbonds>
donor molecule, donor type, donor heavy atom, donor atom, acceptor molecule, acceptor atom, score
      P1  H  7989  7998       L1    19  0.91
      P1  H 10785 10796       L1     2  0.37
      L1  C    23    48       P1  7948  0.74

> <Gold.PLP.Chemscore.Internal.Correction>
0.0254

> <Gold.Rescore>
     Score         DG    S(hbond)    S(metal)    S(lipo)     H(rot)  DE(clash)    DE(int)     intcor
     13.15     -16.82       1.34        0.00      98.24       1.81       0.28       3.39       ----

> <Gold.Chemscore.Fitness>
13.1512

> <Gold.Chemscore.DG>
-16.8190

> <Gold.Chemscore.ZeroCoef>
-5.4800

> <Gold.Chemscore.Hbond>
1.3385

> <Gold.Chemscore.Metal>
0.0000

> <Gold.Chemscore.Lipo>
98.2357

> <Gold.Chemscore.Internal_Hbond>
0.0000

> <Gold.Chemscore.DEClash>
0.2790

> <Gold.Chemscore.DEInternal>
3.3888

> <Gold.Chemscore.Rot>
1.8067

> <Gold.Chemscore.Internal.Correction>
   9.000000E+99

> <Gold.Chemscore.Hbonds>
donor molecule, donor type, donor heavy atom, donor atom, acceptor molecule, acceptor atom, score
      P1  H  7989  7998       L1    19  0.22
      P1  H 10785 10796       L1     2  0.16

> <Gold.Chemscore.Hbond.Weighted>
-4.4706

> <Gold.Chemscore.Metal.Weighted>
-0.0000

> <Gold.Chemscore.Lipo.Weighted>
-11.4936

> <Gold.Chemscore.Internal_Hbond.Weighted>
0.0000

> <Gold.Chemscore.DEClash.Weighted>
0.2790

> <Gold.Chemscore.DEInternal.Weighted>
3.3888

> <Gold.Chemscore.Rot.Weighted>
4.6252

> <Gold.Chemscore.Internal.Correction.Weighted>
   9.000000E+99

> <Gold.Protein.RotatedTorsions>
[ 6907 6896 6895 6894 ] final  -14.71 input  -60.11 | X-H torsion
[ 7974 7965 7964 7962 ] final  166.65 input  175.53 | X-H torsion
[ 8008 7997 7996 7995 ] final   79.32 input   59.86 | X-H torsion
[ 10167 10162 10161 10158 ] final  125.01 input  -65.29 | X-H torsion
[ 10718 10713 10712 10709 ] final  -18.96 input   66.30 | X-H torsion
[ 10763 10752 10751 10750 ] final  -42.41 input  -60.55 | X-H torsion
[ 11005 11000 10999 10996 ] final   85.06 input  -57.11 | X-H torsion

> <Gold.Protein.ActiveResidues>
 VAL166  LYS551  ARG553  GLY616  TRP617  ASP618  TYR619  PRO620  LYS621  CYS622 
 ASP623  PHE694  ASN695  SER759  ASP760  ASP761  ALA762  ILE779  LEU786  VAL792 
 PHE793  MET794  SER795  GLU796  ALA797  LYS798  CYS799  TRP800  GLU811  SER814 

> <Gold.Protein.RotatedAtoms>
  151.3351  135.0851  159.9351 H   0  0  0  0  0  0  0  0  0  0  0  0  # atno 6907 bound_to 6896
  152.5225  133.9503  159.7679 H   0  0  0  0  0  0  0  0  0  0  0  0  # atno 6908 bound_to 6896
  150.9849  133.6154  159.2746 H   0  0  0  0  0  0  0  0  0  0  0  0  # atno 6909 bound_to 6896
  144.7454  139.8646  143.6384 H   0  0  0  0  0  0  0  0  0  0  0  0  # atno 7974 bound_to 7965
  155.8680  140.3450  155.5801 H   0  0  0  0  0  0  0  0  0  0  0  0  # atno 8008 bound_to 7997
  155.7859  140.0865  157.2054 H   0  0  0  0  0  0  0  0  0  0  0  0  # atno 8009 bound_to 7997
  154.4015  140.1492  156.3094 H   0  0  0  0  0  0  0  0  0  0  0  0  # atno 8010 bound_to 7997
  139.5709  144.6938  151.3780 H   0  0  0  0  0  0  0  0  0  0  0  0  # atno 10167 bound_to 10162
  156.5523  130.4705  149.6446 H   0  0  0  0  0  0  0  0  0  0  0  0  # atno 10718 bound_to 10713
  153.9785  135.6720  153.4749 H   0  0  0  0  0  0  0  0  0  0  0  0  # atno 10763 bound_to 10752
  153.0759  135.4949  154.8400 H   0  0  0  0  0  0  0  0  0  0  0  0  # atno 10764 bound_to 10752
  154.7178  135.3110  154.9057 H   0  0  0  0  0  0  0  0  0  0  0  0  # atno 10765 bound_to 10752
  139.8982  134.8260  156.2530 H   0  0  0  0  0  0  0  0  0  0  0  0  # atno 11005 bound_to 11000
  146.1323  139.4361  143.0160 LP  0  0  0  0  0  0  0  0  0  0  0  0  # atno 17320 bound_to 7965
  145.7144  141.0096  143.1436 LP  0  0  0  0  0  0  0  0  0  0  0  0  # atno 17321 bound_to 7965
  140.6994  143.7670  150.7378 LP  0  0  0  0  0  0  0  0  0  0  0  0  # atno 17342 bound_to 10162
  140.1176  143.4642  152.2333 LP  0  0  0  0  0  0  0  0  0  0  0  0  # atno 17343 bound_to 10162
  156.2873  130.7104  151.1944 LP  0  0  0  0  0  0  0  0  0  0  0  0  # atno 17370 bound_to 10713
  157.7385  131.0540  150.5291 LP  0  0  0  0  0  0  0  0  0  0  0  0  # atno 17371 bound_to 10713
  141.0212  133.7040  156.1271 LP  0  0  0  0  0  0  0  0  0  0  0  0  # atno 17394 bound_to 11000
  140.7231  134.4336  157.5573 LP  0  0  0  0  0  0  0  0  0  0  0  0  # atno 17395 bound_to 11000

$$$$
