AV-unprocessed.smi:240|AV-procd|sdf|1838|dock1
  -GOLD-   2262020443D 1   1.00000     0.00000
 Structure written by MMmdl.
 55 59  0  0  0  0  0  0  0  0  1 V2000
  149.8006  140.8011  153.3873 O   0  0  0  0  0  0  0  0  0  0  0  0
  148.8723  140.3179  154.3411 C   0  0  2  0  0  0  0  0  0  0  0  0
  147.4600  140.4699  153.7658 C   0  0  0  0  0  0  0  0  0  0  0  0
  146.9652  141.8513  154.2101 C   0  0  0  0  0  0  0  0  0  0  0  0
  148.0301  142.3994  155.1672 C   0  0  0  0  0  0  0  0  0  0  0  0
  148.8701  141.1898  155.6172 C   0  0  2  0  0  0  0  0  0  0  0  0
  150.2554  141.5399  156.2600 C   0  0  1  0  0  0  0  0  0  0  0  0
  150.0930  142.6390  157.3436 C   0  0  0  0  0  0  0  0  0  0  0  0
  151.3352  142.9403  157.9676 O   0  0  0  0  0  0  0  0  0  0  0  0
  151.8729  141.8128  158.6404 C   0  0  0  0  0  0  0  0  0  0  0  0
  152.1467  140.7182  157.6046 C   0  0  0  0  0  0  0  0  0  0  0  0
  150.9229  140.3834  156.8827 N   0  0  0  0  0  0  0  0  0  0  0  0
  151.1179  139.2903  156.1148 C   0  0  0  0  0  0  0  0  0  0  0  0
  151.8458  139.4534  154.9830 N   0  0  0  0  0  0  0  0  0  0  0  0
  152.0827  138.4066  154.1866 C   0  0  0  0  0  0  0  0  0  0  0  0
  151.6883  137.1398  154.3329 N   0  0  0  0  0  0  0  0  0  0  0  0
  150.9410  136.9777  155.4627 C   0  0  0  0  0  0  0  0  0  0  0  0
  150.6094  137.9925  156.4034 C   0  0  0  0  0  0  0  0  0  0  0  0
  149.8467  137.4555  157.4329 N   0  0  0  0  0  0  0  0  0  0  0  0
  149.7373  136.1932  157.1206 C   0  0  0  0  0  0  0  0  0  0  0  0
  150.3526  135.8217  155.9459 N   0  0  0  0  0  0  0  0  0  0  0  0
  150.3899  134.4879  155.3643 C   0  0  0  0  0  0  0  0  0  0  0  0
  149.0355  134.0073  154.7818 C   0  0  2  0  0  0  0  0  0  0  0  0
  148.3832  135.0961  154.1547 O   0  0  0  0  0  0  0  0  0  0  0  0
  148.0902  133.3871  155.8143 C   0  0  0  0  0  0  0  0  0  0  0  0
  148.2811  131.8922  155.6031 C   0  0  0  0  0  0  0  0  0  0  0  0
  148.3993  131.8001  154.1952 O   0  0  0  0  0  0  0  0  0  0  0  0
  149.2314  132.8681  153.7604 C   0  0  0  0  0  0  0  0  0  0  0  0
  149.8971  140.1533  152.7055 H   0  0  0  0  0  0  0  0  0  0  0  0
  149.0835  139.2687  154.5397 H   0  0  0  0  0  0  0  0  0  0  0  0
  147.4279  140.3414  152.6830 H   0  0  0  0  0  0  0  0  0  0  0  0
  146.8120  139.7055  154.1963 H   0  0  0  0  0  0  0  0  0  0  0  0
  146.8273  142.5203  153.3600 H   0  0  0  0  0  0  0  0  0  0  0  0
  146.0022  141.7602  154.7138 H   0  0  0  0  0  0  0  0  0  0  0  0
  148.6614  143.1088  154.6301 H   0  0  0  0  0  0  0  0  0  0  0  0
  147.5784  142.9306  156.0056 H   0  0  0  0  0  0  0  0  0  0  0  0
  148.2789  140.6674  156.3718 H   0  0  0  0  0  0  0  0  0  0  0  0
  150.9160  141.9429  155.4920 H   0  0  0  0  0  0  0  0  0  0  0  0
  149.7289  143.5676  156.9051 H   0  0  0  0  0  0  0  0  0  0  0  0
  149.3646  142.3376  158.0987 H   0  0  0  0  0  0  0  0  0  0  0  0
  152.7980  142.1012  159.1392 H   0  0  0  0  0  0  0  0  0  0  0  0
  151.1852  141.4633  159.4123 H   0  0  0  0  0  0  0  0  0  0  0  0
  152.9095  141.0623  156.9053 H   0  0  0  0  0  0  0  0  0  0  0  0
  152.5425  139.8320  158.1034 H   0  0  0  0  0  0  0  0  0  0  0  0
  152.6749  138.6129  153.3072 H   0  0  0  0  0  0  0  0  0  0  0  0
  149.1966  135.4940  157.7418 H   0  0  0  0  0  0  0  0  0  0  0  0
  151.1544  134.4802  154.5860 H   0  0  0  0  0  0  0  0  0  0  0  0
  150.7337  133.7947  156.1331 H   0  0  0  0  0  0  0  0  0  0  0  0
  148.7557  135.2135  153.2941 H   0  0  0  0  0  0  0  0  0  0  0  0
  148.2795  133.6898  156.8426 H   0  0  0  0  0  0  0  0  0  0  0  0
  147.0524  133.6396  155.5895 H   0  0  0  0  0  0  0  0  0  0  0  0
  149.1984  131.5406  156.0786 H   0  0  0  0  0  0  0  0  0  0  0  0
  147.4453  131.3014  155.9783 H   0  0  0  0  0  0  0  0  0  0  0  0
  148.9798  133.1545  152.7383 H   0  0  0  0  0  0  0  0  0  0  0  0
  150.2640  132.5160  153.7542 H   0  0  0  0  0  0  0  0  0  0  0  0
  1  2  1  0  0  0  0
  1 29  1  0  0  0  0
  2  6  1  0  0  0  0
  2  3  1  0  0  0  0
  2 30  1  0  0  0  0
  3  4  1  0  0  0  0
  3 31  1  0  0  0  0
  3 32  1  0  0  0  0
  4  5  1  0  0  0  0
  4 33  1  0  0  0  0
  4 34  1  0  0  0  0
  5  6  1  0  0  0  0
  5 35  1  0  0  0  0
  5 36  1  0  0  0  0
  6  7  1  0  0  0  0
  6 37  1  0  0  0  0
  7 12  1  0  0  0  0
  7  8  1  0  0  0  0
  7 38  1  0  0  0  0
  8  9  1  0  0  0  0
  8 39  1  0  0  0  0
  8 40  1  0  0  0  0
  9 10  1  0  0  0  0
 10 11  1  0  0  0  0
 10 41  1  0  0  0  0
 10 42  1  0  0  0  0
 11 12  1  0  0  0  0
 11 43  1  0  0  0  0
 11 44  1  0  0  0  0
 12 13  1  0  0  0  0
 13 18  1  0  0  0  0
 13 14  2  0  0  0  0
 14 15  1  0  0  0  0
 15 16  2  0  0  0  0
 15 45  1  0  0  0  0
 16 17  1  0  0  0  0
 17 21  1  0  0  0  0
 17 18  2  0  0  0  0
 18 19  1  0  0  0  0
 19 20  2  0  0  0  0
 20 21  1  0  0  0  0
 20 46  1  0  0  0  0
 21 22  1  0  0  0  0
 22 23  1  0  0  0  0
 22 47  1  0  0  0  0
 22 48  1  0  0  0  0
 23 28  1  0  0  0  0
 23 24  1  0  0  0  0
 23 25  1  0  0  0  0
 24 49  1  0  0  0  0
 25 26  1  0  0  0  0
 25 50  1  0  0  0  0
 25 51  1  0  0  0  0
 26 27  1  0  0  0  0
 26 52  1  0  0  0  0
 26 53  1  0  0  0  0
 27 28  1  0  0  0  0
 28 54  1  0  0  0  0
 28 55  1  0  0  0  0
M  END
> <s_m_source_file>
AV-unprocessed.smi

> <i_m_source_file_index>
240

> <i_lp_mmshare_version>
43012

> <i_f3d_flags>
0

> <s_epik_input>
W09IXVtDQEBIXTFbQ0gyXVtDSDJdW0NIMl1bQ0BIXTFbQ0BASF0yW0NIMl1PW0NIMl1bQ0gyXU4yYyhuW2NIXW4zKWMoYzM0KW5bY0hdbjRbQ0gyXVtDQEBdNShbT0hdKVtDSDJdW0NIMl1PW0NIMl01

> <s_epik_cmdline>
J2VwaWtfcHl0aG9uJywgJy1waCcsICc3LjAnLCAnLXRuJywgJzgnLCAnLW1hJywgJzIwMCcsICctbWV0YWxfYmluZGluZycsICctaW1hZScsICc8aW5maWxlLm1hZT4nLCAnLW9tYWUnLCAnPG91dGZpbGUubWFlPic=

> <r_lp_tautomer_probability>
1

> <r_epik_Ionization_Penalty>
0.000130618

> <r_epik_Ionization_Penalty_Charging>
0

> <r_epik_Ionization_Penalty_Neutral>
0.000130618

> <r_epik_State_Penalty>
-0

> <r_epik_Charging_Adjusted_Penalty>
0

> <i_epik_Tot_Q>
0

> <i_epik_Tot_abs_Q>
0

> <r_epik_Metal_State_Penalty>
-0

> <b_epik_Metal_Only>
0

> <s_lp_Force_Field>
OPLS_2005

> <r_lp_Energy>
64.4166

> <b_lp_Chiralities_Consistent>
1

> <s_lp_Variant>
AV-unprocessed.smi:240-15

> <Gold.Version>
5.8.1

> <Gold.Id.Protein>
6NUR|6NUR_protein|mol2

> <Gold.PLP.Fitness>
48.4160

> <Gold.PLP.PLP>
-35.7095

> <Gold.PLP.part.hbond>
-5.0538

> <Gold.PLP.part.metal>
0.0000

> <Gold.PLP.part.buried>
-0.9663

> <Gold.PLP.part.nonpolar>
-29.5021

> <Gold.PLP.part.repulsive>
0.4992

> <Gold.PLP.ligand.clash>
0.0000

> <Gold.PLP.ligand.torsion>
0.7344

> <Gold.PLP.Chemscore.Hbond>
4.5968

> <Gold.PLP.Chemscore.CHOScore>
0.0000

> <Gold.PLP.Chemscore.Metal>
0.0000

> <Gold.Chemscore.Hbonds>
donor molecule, donor type, donor heavy atom, donor atom, acceptor molecule, acceptor atom, score
      L1  H     1    29       P1  7957  0.75
      L1  H    24    49       P1  7948  1.00
      P1  H  7989  7998       L1    14  0.80
      P1  H  8011  8017       L1     1  1.00
      P1  H 10752 10765       L1    16  1.00

> <Gold.PLP.Chemscore.Internal.Correction>
0.3851

> <Gold.Rescore>
     Score         DG    S(hbond)    S(metal)    S(lipo)     H(rot)  DE(clash)    DE(int)     intcor
     13.27     -18.46       3.15        0.00      86.78       3.00       3.62       1.57       ----

> <Gold.Chemscore.Fitness>
13.2658

> <Gold.Chemscore.DG>
-18.4589

> <Gold.Chemscore.ZeroCoef>
-5.4800

> <Gold.Chemscore.Hbond>
3.1484

> <Gold.Chemscore.Metal>
0.0000

> <Gold.Chemscore.Lipo>
86.7791

> <Gold.Chemscore.Internal_Hbond>
0.0000

> <Gold.Chemscore.DEClash>
3.6213

> <Gold.Chemscore.DEInternal>
1.5717

> <Gold.Chemscore.Rot>
3.0039

> <Gold.Chemscore.Internal.Correction>
   9.000000E+99

> <Gold.Chemscore.Hbonds>
donor molecule, donor type, donor heavy atom, donor atom, acceptor molecule, acceptor atom, score
      L1  H     1    29       P1  7957  0.73
      L1  H    24    49       P1  7948  0.66
      P1  H  7989  7998       L1    14  0.13
      P1  H  8011  8017       L1     1  0.25
      P1  H 10752 10765       L1    16  0.74

> <Gold.Chemscore.Hbond.Weighted>
-10.5156

> <Gold.Chemscore.Metal.Weighted>
-0.0000

> <Gold.Chemscore.Lipo.Weighted>
-10.1532

> <Gold.Chemscore.Internal_Hbond.Weighted>
0.0000

> <Gold.Chemscore.DEClash.Weighted>
3.6213

> <Gold.Chemscore.DEInternal.Weighted>
1.5717

> <Gold.Chemscore.Rot.Weighted>
7.6899

> <Gold.Chemscore.Internal.Correction.Weighted>
   9.000000E+99

> <Gold.Protein.RotatedTorsions>
[ 6907 6896 6895 6894 ] final   13.64 input  -60.11 | X-H torsion
[ 7974 7965 7964 7962 ] final  -93.36 input  175.53 | X-H torsion
[ 8008 7997 7996 7995 ] final   24.97 input   59.86 | X-H torsion
[ 10167 10162 10161 10158 ] final  -14.36 input  -65.29 | X-H torsion
[ 10718 10713 10712 10709 ] final  163.68 input   66.30 | X-H torsion
[ 10763 10752 10751 10750 ] final  152.39 input  -60.55 | X-H torsion
[ 11005 11000 10999 10996 ] final -122.72 input  -57.11 | X-H torsion

> <Gold.Protein.ActiveResidues>
 VAL166  LYS551  ARG553  GLY616  TRP617  ASP618  TYR619  PRO620  LYS621  CYS622 
 ASP623  PHE694  ASN695  SER759  ASP760  ASP761  ALA762  ILE779  LEU786  VAL792 
 PHE793  MET794  SER795  GLU796  ALA797  LYS798  CYS799  TRP800  GLU811  SER814 

> <Gold.Protein.RotatedAtoms>
  151.7896  135.0739  160.0385 H   0  0  0  0  0  0  0  0  0  0  0  0  # atno 6907 bound_to 6896
  152.3166  133.5804  159.5724 H   0  0  0  0  0  0  0  0  0  0  0  0  # atno 6908 bound_to 6896
  150.7347  133.9990  159.3674 H   0  0  0  0  0  0  0  0  0  0  0  0  # atno 6909 bound_to 6896
  145.3875  140.9524  143.2359 H   0  0  0  0  0  0  0  0  0  0  0  0  # atno 7974 bound_to 7965
  155.0045  140.3129  155.4854 H   0  0  0  0  0  0  0  0  0  0  0  0  # atno 8008 bound_to 7997
  156.2919  140.2226  156.5097 H   0  0  0  0  0  0  0  0  0  0  0  0  # atno 8009 bound_to 7997
  154.7589  140.0460  157.0945 H   0  0  0  0  0  0  0  0  0  0  0  0  # atno 8010 bound_to 7997
  140.7200  143.5329  150.9498 H   0  0  0  0  0  0  0  0  0  0  0  0  # atno 10167 bound_to 10162
  157.1051  131.0453  151.2481 H   0  0  0  0  0  0  0  0  0  0  0  0  # atno 10718 bound_to 10713
  154.1193  135.2834  155.3212 H   0  0  0  0  0  0  0  0  0  0  0  0  # atno 10763 bound_to 10752
  154.6434  135.5394  153.7820 H   0  0  0  0  0  0  0  0  0  0  0  0  # atno 10764 bound_to 10752
  153.0318  135.6492  154.1348 H   0  0  0  0  0  0  0  0  0  0  0  0  # atno 10765 bound_to 10752
  140.9973  134.0453  157.3581 H   0  0  0  0  0  0  0  0  0  0  0  0  # atno 11005 bound_to 11000
  144.8463  139.5391  143.6877 LP  0  0  0  0  0  0  0  0  0  0  0  0  # atno 17320 bound_to 7965
  146.2813  139.6885  142.9227 LP  0  0  0  0  0  0  0  0  0  0  0  0  # atno 17321 bound_to 7965
  139.9050  143.6790  152.3125 LP  0  0  0  0  0  0  0  0  0  0  0  0  # atno 17342 bound_to 10162
  139.7152  144.7613  151.1045 LP  0  0  0  0  0  0  0  0  0  0  0  0  # atno 17343 bound_to 10162
  157.4607  130.7652  149.7234 LP  0  0  0  0  0  0  0  0  0  0  0  0  # atno 17370 bound_to 10713
  155.9864  130.3975  150.3215 LP  0  0  0  0  0  0  0  0  0  0  0  0  # atno 17371 bound_to 10713
  139.9021  135.0168  156.7318 LP  0  0  0  0  0  0  0  0  0  0  0  0  # atno 17394 bound_to 11000
  140.6945  133.9361  155.7986 LP  0  0  0  0  0  0  0  0  0  0  0  0  # atno 17395 bound_to 11000

$$$$
