AV-unprocessed.smi:1817|AV-procd|sdf|7374|dock1
  -GOLD-   22720 9 43D 1   1.00000     0.00000
 Structure written by MMmdl.
 42 43  0  0  0  0  0  0  0  0  3 V2000
  146.5996  128.8529  151.5774 C   0  0  0  0  0  0  0  0  0  0  0  0
  146.1591  130.2268  152.1027 C   0  0  0  0  0  0  0  0  0  0  0  0
  147.3078  131.0922  152.4673 N   0  3  0  0  0  0  0  0  0  0  0  0
  148.0075  130.6169  153.6856 C   0  0  0  0  0  0  0  0  0  0  0  0
  149.2200  131.5187  153.9943 C   0  0  0  0  0  0  0  0  0  0  0  0
  148.8134  132.9119  154.2261 N   0  0  0  0  0  0  0  0  0  0  0  0
  148.0051  133.1564  155.4424 C   0  0  2  0  0  0  0  0  0  0  0  0
  147.5284  134.6284  155.4775 C   0  0  0  0  0  0  0  0  0  0  0  0
  148.7913  132.8096  156.7328 C   0  0  0  0  0  0  0  0  0  0  0  0
  147.9946  133.0439  157.9315 N   0  0  0  0  0  0  0  0  0  0  0  0
  148.2283  133.9982  158.8415 C   0  0  0  0  0  0  0  0  0  0  0  0
  149.1769  134.7715  158.6902 O   0  0  0  0  0  0  0  0  0  0  0  0
  147.3504  133.9951  159.8696 N   0  5  0  0  0  0  0  0  0  0  0  0
  147.3705  134.9894  160.7726 C   0  0  0  0  0  0  0  0  0  0  0  0
  147.6537  136.2581  160.4361 N   0  0  0  0  0  0  0  0  0  0  0  0
  147.6263  137.1291  161.5170 N   0  0  0  0  0  0  0  0  0  0  0  0
  147.3290  136.4902  162.6482 C   0  0  0  0  0  0  0  0  0  0  0  0
  147.0600  134.7666  162.4970 S   0  0  0  0  0  0  0  0  0  0  0  0
  148.1963  133.3670  152.9714 C   0  0  0  0  0  0  0  0  0  0  0  0
  146.9534  132.5289  152.5977 C   0  0  0  0  0  0  0  0  0  0  0  0
  145.7334  128.2133  151.4058 H   0  0  0  0  0  0  0  0  0  0  0  0
  147.2460  128.3458  152.2945 H   0  0  0  0  0  0  0  0  0  0  0  0
  147.1366  128.9286  150.6323 H   0  0  0  0  0  0  0  0  0  0  0  0
  145.5249  130.7331  151.3735 H   0  0  0  0  0  0  0  0  0  0  0  0
  145.5424  130.0641  152.9877 H   0  0  0  0  0  0  0  0  0  0  0  0
  147.3173  130.5779  154.5294 H   0  0  0  0  0  0  0  0  0  0  0  0
  148.3563  129.5965  153.5232 H   0  0  0  0  0  0  0  0  0  0  0  0
  149.7960  131.1257  154.8298 H   0  0  0  0  0  0  0  0  0  0  0  0
  149.9100  131.4932  153.1495 H   0  0  0  0  0  0  0  0  0  0  0  0
  147.1208  132.5209  155.4263 H   0  0  0  0  0  0  0  0  0  0  0  0
  147.0067  134.8667  156.4040 H   0  0  0  0  0  0  0  0  0  0  0  0
  146.8194  134.8544  154.6826 H   0  0  0  0  0  0  0  0  0  0  0  0
  148.3682  135.3189  155.3911 H   0  0  0  0  0  0  0  0  0  0  0  0
  149.0669  131.7558  156.7539 H   0  0  0  0  0  0  0  0  0  0  0  0
  149.7124  133.3919  156.7890 H   0  0  0  0  0  0  0  0  0  0  0  0
  147.2062  132.4334  158.0880 H   0  0  0  0  0  0  0  0  0  0  0  0
  147.2721  137.0362  163.5778 H   0  0  0  0  0  0  0  0  0  0  0  0
  147.9456  134.4253  153.0115 H   0  0  0  0  0  0  0  0  0  0  0  0
  148.9351  133.2859  152.1728 H   0  0  0  0  0  0  0  0  0  0  0  0
  146.5621  132.8968  151.6498 H   0  0  0  0  0  0  0  0  0  0  0  0
  146.1556  132.6580  153.3297 H   0  0  0  0  0  0  0  0  0  0  0  0
  147.9785  131.0222  151.7156 H   0  0  0  0  0  0  0  0  0  0  0  0
  1  2  1  0  0  0  0
  1 21  1  0  0  0  0
  1 22  1  0  0  0  0
  1 23  1  0  0  0  0
  2  3  1  0  0  0  0
  2 24  1  0  0  0  0
  2 25  1  0  0  0  0
  3 20  1  0  0  0  0
  3  4  1  0  0  0  0
  3 42  1  0  0  0  0
  4  5  1  0  0  0  0
  4 26  1  0  0  0  0
  4 27  1  0  0  0  0
  5  6  1  0  0  0  0
  5 28  1  0  0  0  0
  5 29  1  0  0  0  0
  6  7  1  0  0  0  0
  6 19  1  0  0  0  0
  7  8  1  0  0  0  0
  7  9  1  0  0  0  0
  7 30  1  0  0  0  0
  8 31  1  0  0  0  0
  8 32  1  0  0  0  0
  8 33  1  0  0  0  0
  9 10  1  0  0  0  0
  9 34  1  0  0  0  0
  9 35  1  0  0  0  0
 10 11  1  0  0  0  0
 10 36  1  0  0  0  0
 11 12  2  0  0  0  0
 11 13  1  0  0  0  0
 13 14  1  0  0  0  0
 14 18  1  0  0  0  0
 14 15  2  0  0  0  0
 15 16  1  0  0  0  0
 16 17  2  0  0  0  0
 17 18  1  0  0  0  0
 17 37  1  0  0  0  0
 19 20  1  0  0  0  0
 19 38  1  0  0  0  0
 19 39  1  0  0  0  0
 20 40  1  0  0  0  0
 20 41  1  0  0  0  0
M  CHG  1   3   1
M  CHG  1  13  -1
M  END
> <s_m_source_file>
AV-unprocessed.smi

> <i_m_source_file_index>
1817

> <i_lp_mmshare_version>
43012

> <i_f3d_flags>
0

> <s_epik_input>
W0NIM11bQ0gyXU4xW0NIMl1bQ0gyXU4oW0NIMl1bQ0gyXTEpW0NASF0oW0NIM10pW0NIMl1bTkhdQyg9TylbTkhdYzJubltjSF1zMg==

> <s_epik_cmdline>
J2VwaWtfcHl0aG9uJywgJy1waCcsICc3LjAnLCAnLXRuJywgJzgnLCAnLW1hJywgJzIwMCcsICctbWV0YWxfYmluZGluZycsICctaW1hZScsICc8aW5maWxlLm1hZT4nLCAnLW9tYWUnLCAnPG91dGZpbGUubWFlPic=

> <r_lp_tautomer_probability>
1

> <r_epik_Ionization_Penalty>
3.58527

> <r_epik_Ionization_Penalty_Charging>
3.54445

> <r_epik_Ionization_Penalty_Neutral>
0.0408199

> <r_epik_State_Penalty>
3.6633

> <r_epik_Charging_Adjusted_Penalty>
7.20774

> <i_epik_Tot_Q>
0

> <i_epik_Tot_abs_Q>
2

> <r_epik_Metal_State_Penalty>
0.683711

> <b_epik_Metal_Only>
1

> <s_lp_Force_Field>
OPLS_2005

> <r_lp_Energy>
15.1911

> <b_lp_Chiralities_Consistent>
1

> <s_lp_Variant>
AV-unprocessed.smi:1817-7

> <Gold.Version>
5.8.1

> <Gold.Id.Protein>
6NUR|6NUR_protein|mol2

> <Gold.PLP.Fitness>
43.5822

> <Gold.PLP.PLP>
-32.8170

> <Gold.PLP.part.hbond>
-4.0000

> <Gold.PLP.part.metal>
0.0000

> <Gold.PLP.part.buried>
-3.9740

> <Gold.PLP.part.nonpolar>
-24.4902

> <Gold.PLP.part.repulsive>
0.1411

> <Gold.PLP.ligand.clash>
0.0000

> <Gold.PLP.ligand.torsion>
0.4491

> <Gold.PLP.Chemscore.Hbond>
3.8240

> <Gold.PLP.Chemscore.CHOScore>
0.0000

> <Gold.PLP.Chemscore.Metal>
0.0000

> <Gold.Chemscore.Hbonds>
donor molecule, donor type, donor heavy atom, donor atom, acceptor molecule, acceptor atom, score
      L1  H     3    42       P1 10747  1.00
      P1  H  6896  6908       L1    12  1.00
      P1  H  6931  6943       L1    16  1.00
      P1  H  6934  6947       L1    16  0.82

> <Gold.PLP.Chemscore.Internal.Correction>
0.1915

> <Gold.Rescore>
     Score         DG    S(hbond)    S(metal)    S(lipo)     H(rot)  DE(clash)    DE(int)     intcor
     18.48     -20.38       3.50        0.00      68.64       1.88       0.05       1.86       ----

> <Gold.Chemscore.Fitness>
18.4755

> <Gold.Chemscore.DG>
-20.3848

> <Gold.Chemscore.ZeroCoef>
-5.4800

> <Gold.Chemscore.Hbond>
3.5008

> <Gold.Chemscore.Metal>
0.0000

> <Gold.Chemscore.Lipo>
68.6431

> <Gold.Chemscore.Internal_Hbond>
0.0000

> <Gold.Chemscore.DEClash>
0.0466

> <Gold.Chemscore.DEInternal>
1.8627

> <Gold.Chemscore.Rot>
1.8825

> <Gold.Chemscore.Internal.Correction>
   9.000000E+99

> <Gold.Chemscore.Hbonds>
donor molecule, donor type, donor heavy atom, donor atom, acceptor molecule, acceptor atom, score
      L1  H     3    42       P1 10747  1.00
      P1  H  6896  6908       L1    12  0.96
      P1  H  6931  6943       L1    16  0.52
      P1  H  6934  6947       L1    16  0.61

> <Gold.Chemscore.Hbond.Weighted>
-11.6927

> <Gold.Chemscore.Metal.Weighted>
-0.0000

> <Gold.Chemscore.Lipo.Weighted>
-8.0312

> <Gold.Chemscore.Internal_Hbond.Weighted>
0.0000

> <Gold.Chemscore.DEClash.Weighted>
0.0466

> <Gold.Chemscore.DEInternal.Weighted>
1.8627

> <Gold.Chemscore.Rot.Weighted>
4.8191

> <Gold.Chemscore.Internal.Correction.Weighted>
   9.000000E+99

> <Gold.Protein.RotatedTorsions>
[ 6907 6896 6895 6894 ] final  158.19 input  -60.11 | X-H torsion
[ 7974 7965 7964 7962 ] final   80.38 input  175.53 | X-H torsion
[ 8008 7997 7996 7995 ] final  -97.56 input   59.86 | X-H torsion
[ 10167 10162 10161 10158 ] final  120.47 input  -65.29 | X-H torsion
[ 10718 10713 10712 10709 ] final  148.01 input   66.30 | X-H torsion
[ 10763 10752 10751 10750 ] final  -67.76 input  -60.55 | X-H torsion
[ 11005 11000 10999 10996 ] final  -98.20 input  -57.11 | X-H torsion

> <Gold.Protein.ActiveResidues>
 VAL166  LYS551  ARG553  GLY616  TRP617  ASP618  TYR619  PRO620  LYS621  CYS622 
 ASP623  PHE694  ASN695  SER759  ASP760  ASP761  ALA762  ILE779  LEU786  VAL792 
 PHE793  MET794  SER795  GLU796  ALA797  LYS798  CYS799  TRP800  GLU811  SER814 

> <Gold.Protein.RotatedAtoms>
  152.0041  133.3836  159.4193 H   0  0  0  0  0  0  0  0  0  0  0  0  # atno 6907 bound_to 6896
  150.6906  134.3802  159.5040 H   0  0  0  0  0  0  0  0  0  0  0  0  # atno 6908 bound_to 6896
  152.1553  134.8955  160.0596 H   0  0  0  0  0  0  0  0  0  0  0  0  # atno 6909 bound_to 6896
  145.6519  139.2450  143.1971 H   0  0  0  0  0  0  0  0  0  0  0  0  # atno 7974 bound_to 7965
  154.7894  140.0462  157.1189 H   0  0  0  0  0  0  0  0  0  0  0  0  # atno 8008 bound_to 7997
  154.9609  140.3077  155.5011 H   0  0  0  0  0  0  0  0  0  0  0  0  # atno 8009 bound_to 7997
  156.2948  140.2271  156.4695 H   0  0  0  0  0  0  0  0  0  0  0  0  # atno 8010 bound_to 7997
  139.5980  144.7048  151.3130 H   0  0  0  0  0  0  0  0  0  0  0  0  # atno 10167 bound_to 10162
  157.3139  131.0892  151.1295 H   0  0  0  0  0  0  0  0  0  0  0  0  # atno 10718 bound_to 10713
  154.3792  135.6078  153.5781 H   0  0  0  0  0  0  0  0  0  0  0  0  # atno 10763 bound_to 10752
  152.9788  135.5856  154.4431 H   0  0  0  0  0  0  0  0  0  0  0  0  # atno 10764 bound_to 10752
  154.4197  135.2845  155.1961 H   0  0  0  0  0  0  0  0  0  0  0  0  # atno 10765 bound_to 10752
  141.1353  133.8228  157.0808 H   0  0  0  0  0  0  0  0  0  0  0  0  # atno 11005 bound_to 11000
  146.1196  140.7325  142.9464 LP  0  0  0  0  0  0  0  0  0  0  0  0  # atno 17320 bound_to 7965
  144.7119  140.4071  143.7074 LP  0  0  0  0  0  0  0  0  0  0  0  0  # atno 17321 bound_to 7965
  140.7227  143.7090  150.7784 LP  0  0  0  0  0  0  0  0  0  0  0  0  # atno 17342 bound_to 10162
  140.0661  143.5107  152.2603 LP  0  0  0  0  0  0  0  0  0  0  0  0  # atno 17343 bound_to 10162
  157.2606  130.6657  149.5973 LP  0  0  0  0  0  0  0  0  0  0  0  0  # atno 17370 bound_to 10713
  155.9680  130.4510  150.5718 LP  0  0  0  0  0  0  0  0  0  0  0  0  # atno 17371 bound_to 10713
  140.0453  134.9834  157.1037 LP  0  0  0  0  0  0  0  0  0  0  0  0  # atno 17394 bound_to 11000
  140.4073  134.2019  155.7163 LP  0  0  0  0  0  0  0  0  0  0  0  0  # atno 17395 bound_to 11000

$$$$
