AV-unprocessed.smi:199|AV-procd|sdf|1564|dock1
  -GOLD-   2262019433D 1   1.00000     0.00000
 Structure written by MMmdl.
 51 55  0  0  0  0  0  0  0  0  1 V2000
  153.7733  133.5125  157.2514 C   0  0  0  0  0  0  0  0  0  0  0  0
  152.6680  132.4503  157.3591 C   0  0  2  0  0  0  0  0  0  0  0  0
  153.1069  131.2947  156.6496 O   0  0  0  0  0  0  0  0  0  0  0  0
  151.9750  130.6196  156.1304 C   0  0  0  0  0  0  0  0  0  0  0  0
  151.0983  131.7693  155.6588 C   0  0  0  0  0  0  0  0  0  0  0  0
  151.2815  132.8151  156.7556 C   0  0  1  0  0  0  0  0  0  0  0  0
  150.3034  132.5720  157.7536 O   0  0  0  0  0  0  0  0  0  0  0  0
  151.1059  134.2744  156.2578 C   0  0  0  0  0  0  0  0  0  0  0  0
  149.7468  134.5830  155.8378 N   0  0  0  0  0  0  0  0  0  0  0  0
  148.8838  135.4726  156.4348 C   0  0  0  0  0  0  0  0  0  0  0  0
  147.7105  135.5699  155.8735 N   0  0  0  0  0  0  0  0  0  0  0  0
  147.7674  134.6921  154.7968 C   0  0  0  0  0  0  0  0  0  0  0  0
  146.8524  134.3029  153.7747 C   0  0  0  0  0  0  0  0  0  0  0  0
  145.5868  134.7914  153.6551 N   0  0  0  0  0  0  0  0  0  0  0  0
  145.3440  136.2243  153.5688 C   0  0  2  0  0  0  0  0  0  0  0  0
  143.8109  136.3029  153.6683 C   0  0  0  0  0  0  0  0  0  0  0  0
  143.3955  135.0224  152.9289 C   0  0  0  0  0  0  0  0  0  0  0  0
  144.7649  134.4646  152.4967 C   0  0  1  0  0  0  0  0  0  0  0  0
  145.3930  135.3151  151.3616 C   0  0  1  0  0  0  0  0  0  0  0  0
  144.5237  135.5302  150.1089 C   0  0  0  0  0  0  0  0  0  0  0  0
  145.0919  136.5333  149.2942 O   0  0  0  0  0  0  0  0  0  0  0  0
  145.7692  136.5945  152.1329 C   0  0  0  0  0  0  0  0  0  0  0  0
  147.2757  133.3600  152.8905 N   0  0  0  0  0  0  0  0  0  0  0  0
  148.5097  132.8560  152.9719 C   0  0  0  0  0  0  0  0  0  0  0  0
  149.4678  133.1372  153.8553 N   0  0  0  0  0  0  0  0  0  0  0  0
  149.0459  134.0627  154.7632 C   0  0  0  0  0  0  0  0  0  0  0  0
  153.5041  134.4246  157.7839 H   0  0  0  0  0  0  0  0  0  0  0  0
  153.9817  133.7707  156.2129 H   0  0  0  0  0  0  0  0  0  0  0  0
  154.7021  133.1441  157.6871 H   0  0  0  0  0  0  0  0  0  0  0  0
  152.5633  132.1703  158.4091 H   0  0  0  0  0  0  0  0  0  0  0  0
  152.2474  129.9370  155.3253 H   0  0  0  0  0  0  0  0  0  0  0  0
  151.4872  130.0483  156.9218 H   0  0  0  0  0  0  0  0  0  0  0  0
  151.4961  132.1425  154.7145 H   0  0  0  0  0  0  0  0  0  0  0  0
  150.0597  131.4799  155.4910 H   0  0  0  0  0  0  0  0  0  0  0  0
  149.5706  133.1491  157.6019 H   0  0  0  0  0  0  0  0  0  0  0  0
  151.3862  134.9798  157.0410 H   0  0  0  0  0  0  0  0  0  0  0  0
  151.7659  134.4727  155.4131 H   0  0  0  0  0  0  0  0  0  0  0  0
  149.1504  136.0457  157.3108 H   0  0  0  0  0  0  0  0  0  0  0  0
  145.8264  136.8358  154.3288 H   0  0  0  0  0  0  0  0  0  0  0  0
  143.4835  136.2678  154.7082 H   0  0  0  0  0  0  0  0  0  0  0  0
  143.4043  137.2075  153.2146 H   0  0  0  0  0  0  0  0  0  0  0  0
  142.9065  134.3327  153.6182 H   0  0  0  0  0  0  0  0  0  0  0  0
  142.7069  135.2017  152.1046 H   0  0  0  0  0  0  0  0  0  0  0  0
  144.7191  133.4009  152.2604 H   0  0  0  0  0  0  0  0  0  0  0  0
  146.3120  134.8197  151.0434 H   0  0  0  0  0  0  0  0  0  0  0  0
  144.4597  134.6084  149.5303 H   0  0  0  0  0  0  0  0  0  0  0  0
  143.5076  135.8278  150.3677 H   0  0  0  0  0  0  0  0  0  0  0  0
  144.7462  137.3708  149.5626 H   0  0  0  0  0  0  0  0  0  0  0  0
  145.2617  137.4878  151.7667 H   0  0  0  0  0  0  0  0  0  0  0  0
  146.8437  136.7730  152.0754 H   0  0  0  0  0  0  0  0  0  0  0  0
  148.7649  132.1214  152.2224 H   0  0  0  0  0  0  0  0  0  0  0  0
  1  2  1  0  0  0  0
  1 27  1  0  0  0  0
  1 28  1  0  0  0  0
  1 29  1  0  0  0  0
  2  6  1  0  0  0  0
  2  3  1  0  0  0  0
  2 30  1  0  0  0  0
  3  4  1  0  0  0  0
  4  5  1  0  0  0  0
  4 31  1  0  0  0  0
  4 32  1  0  0  0  0
  5  6  1  0  0  0  0
  5 33  1  0  0  0  0
  5 34  1  0  0  0  0
  6  7  1  0  0  0  0
  6  8  1  0  0  0  0
  7 35  1  0  0  0  0
  8  9  1  0  0  0  0
  8 36  1  0  0  0  0
  8 37  1  0  0  0  0
  9 26  1  0  0  0  0
  9 10  1  0  0  0  0
 10 11  2  0  0  0  0
 10 38  1  0  0  0  0
 11 12  1  0  0  0  0
 12 26  2  0  0  0  0
 12 13  1  0  0  0  0
 13 14  1  0  0  0  0
 13 23  2  0  0  0  0
 14 18  1  0  0  0  0
 14 15  1  0  0  0  0
 15 22  1  0  0  0  0
 15 16  1  0  0  0  0
 15 39  1  0  0  0  0
 16 17  1  0  0  0  0
 16 40  1  0  0  0  0
 16 41  1  0  0  0  0
 17 18  1  0  0  0  0
 17 42  1  0  0  0  0
 17 43  1  0  0  0  0
 18 19  1  0  0  0  0
 18 44  1  0  0  0  0
 19 20  1  0  0  0  0
 19 22  1  0  0  0  0
 19 45  1  0  0  0  0
 20 21  1  0  0  0  0
 20 46  1  0  0  0  0
 20 47  1  0  0  0  0
 21 48  1  0  0  0  0
 22 49  1  0  0  0  0
 22 50  1  0  0  0  0
 23 24  1  0  0  0  0
 24 25  2  0  0  0  0
 24 51  1  0  0  0  0
 25 26  1  0  0  0  0
M  END
> <s_m_source_file>
AV-unprocessed.smi

> <i_m_source_file_index>
199

> <i_lp_mmshare_version>
43012

> <i_f3d_flags>
0

> <s_epik_input>
W0NIMl0xW0NIMl1PW0NAQEhdKFtDSDNdKVtDQEBdMShbT0hdKVtDSDJdbihbY0hdbjIpYyhjMjMpbltjSF1uYzNOKFtDQEBIXTQ1KVtDQEhdKFtDSDJdW0NIMl00KVtDQEhdKFtDSDJdNSlbQ0gyXVtPSF0=

> <s_epik_cmdline>
J2VwaWtfcHl0aG9uJywgJy1waCcsICc3LjAnLCAnLXRuJywgJzgnLCAnLW1hJywgJzIwMCcsICctbWV0YWxfYmluZGluZycsICctaW1hZScsICc8aW5maWxlLm1hZT4nLCAnLW9tYWUnLCAnPG91dGZpbGUubWFlPic=

> <r_lp_tautomer_probability>
1

> <r_epik_Ionization_Penalty>
0.00583903

> <r_epik_Ionization_Penalty_Charging>
0

> <r_epik_Ionization_Penalty_Neutral>
0.00583903

> <r_epik_State_Penalty>
-0

> <r_epik_Charging_Adjusted_Penalty>
0

> <i_epik_Tot_Q>
0

> <i_epik_Tot_abs_Q>
0

> <r_epik_Metal_State_Penalty>
-0

> <b_epik_Metal_Only>
0

> <s_lp_Force_Field>
OPLS_2005

> <r_lp_Energy>
84.0593

> <b_lp_Chiralities_Consistent>
1

> <s_lp_Variant>
AV-unprocessed.smi:199-5

> <Gold.Version>
5.8.1

> <Gold.Id.Protein>
6NUR|6NUR_protein|mol2

> <Gold.PLP.Fitness>
39.6071

> <Gold.PLP.PLP>
-31.0171

> <Gold.PLP.part.hbond>
-2.5646

> <Gold.PLP.part.metal>
0.0000

> <Gold.PLP.part.buried>
-3.9273

> <Gold.PLP.part.nonpolar>
-24.6849

> <Gold.PLP.part.repulsive>
0.4058

> <Gold.PLP.ligand.clash>
0.0000

> <Gold.PLP.ligand.torsion>
0.2287

> <Gold.PLP.Chemscore.Hbond>
1.9913

> <Gold.PLP.Chemscore.CHOScore>
1.0000

> <Gold.PLP.Chemscore.Metal>
0.0000

> <Gold.Chemscore.Hbonds>
donor molecule, donor type, donor heavy atom, donor atom, acceptor molecule, acceptor atom, score
      L1  H    21    48       P1 10171  0.89
      P1  H  6896  6908       L1     7  0.95
      L1  C    24    51       P1 10747  1.00

> <Gold.PLP.Chemscore.Internal.Correction>
0.0735

> <Gold.Rescore>
     Score         DG    S(hbond)    S(metal)    S(lipo)     H(rot)  DE(clash)    DE(int)     intcor
      6.78      -9.90       1.48        0.00      62.81       3.07       1.47       1.64       ----

> <Gold.Chemscore.Fitness>
6.7826

> <Gold.Chemscore.DG>
-9.8981

> <Gold.Chemscore.ZeroCoef>
-5.4800

> <Gold.Chemscore.Hbond>
1.4777

> <Gold.Chemscore.Metal>
0.0000

> <Gold.Chemscore.Lipo>
62.8135

> <Gold.Chemscore.Internal_Hbond>
0.0000

> <Gold.Chemscore.DEClash>
1.4718

> <Gold.Chemscore.DEInternal>
1.6437

> <Gold.Chemscore.Rot>
3.0729

> <Gold.Chemscore.Internal.Correction>
   9.000000E+99

> <Gold.Chemscore.Hbonds>
donor molecule, donor type, donor heavy atom, donor atom, acceptor molecule, acceptor atom, score
      L1  H    21    48       P1 10171  0.87
      P1  H  6896  6908       L1     7  0.06

> <Gold.Chemscore.Hbond.Weighted>
-4.9356

> <Gold.Chemscore.Metal.Weighted>
-0.0000

> <Gold.Chemscore.Lipo.Weighted>
-7.3492

> <Gold.Chemscore.Internal_Hbond.Weighted>
0.0000

> <Gold.Chemscore.DEClash.Weighted>
1.4718

> <Gold.Chemscore.DEInternal.Weighted>
1.6437

> <Gold.Chemscore.Rot.Weighted>
7.8667

> <Gold.Chemscore.Internal.Correction.Weighted>
   9.000000E+99

> <Gold.Protein.RotatedTorsions>
[ 6907 6896 6895 6894 ] final   94.95 input  -60.11 | X-H torsion
[ 7974 7965 7964 7962 ] final  111.11 input  175.53 | X-H torsion
[ 8008 7997 7996 7995 ] final   14.61 input   59.86 | X-H torsion
[ 10167 10162 10161 10158 ] final -179.18 input  -65.29 | X-H torsion
[ 10718 10713 10712 10709 ] final  143.05 input   66.30 | X-H torsion
[ 10763 10752 10751 10750 ] final  129.83 input  -60.55 | X-H torsion
[ 11005 11000 10999 10996 ] final -134.32 input  -57.11 | X-H torsion

> <Gold.Protein.ActiveResidues>
 VAL166  LYS551  ARG553  GLY616  TRP617  ASP618  TYR619  PRO620  LYS621  CYS622 
 ASP623  PHE694  ASN695  SER759  ASP760  ASP761  ALA762  ILE779  LEU786  VAL792 
 PHE793  MET794  SER795  GLU796  ALA797  LYS798  CYS799  TRP800  GLU811  SER814 

> <Gold.Protein.RotatedAtoms>
  152.5447  134.1115  159.8360 H   0  0  0  0  0  0  0  0  0  0  0  0  # atno 6907 bound_to 6896
  151.1181  133.5117  159.2610 H   0  0  0  0  0  0  0  0  0  0  0  0  # atno 6908 bound_to 6896
  151.1809  135.0370  159.8846 H   0  0  0  0  0  0  0  0  0  0  0  0  # atno 6909 bound_to 6896
  145.2464  139.2758  143.4091 H   0  0  0  0  0  0  0  0  0  0  0  0  # atno 7974 bound_to 7965
  154.8509  140.2929  155.5599 H   0  0  0  0  0  0  0  0  0  0  0  0  # atno 8008 bound_to 7997
  156.3016  140.2496  156.3400 H   0  0  0  0  0  0  0  0  0  0  0  0  # atno 8009 bound_to 7997
  154.9022  140.0391  157.1889 H   0  0  0  0  0  0  0  0  0  0  0  0  # atno 8010 bound_to 7997
  139.5398  144.2395  152.0871 H   0  0  0  0  0  0  0  0  0  0  0  0  # atno 10167 bound_to 10162
  157.3735  131.0982  151.0806 H   0  0  0  0  0  0  0  0  0  0  0  0  # atno 10718 bound_to 10713
  153.7481  135.3214  155.3316 H   0  0  0  0  0  0  0  0  0  0  0  0  # atno 10763 bound_to 10752
  154.8272  135.4561  154.0959 H   0  0  0  0  0  0  0  0  0  0  0  0  # atno 10764 bound_to 10752
  153.2154  135.6941  153.8146 H   0  0  0  0  0  0  0  0  0  0  0  0  # atno 10765 bound_to 10752
  140.9000  134.1702  157.4467 H   0  0  0  0  0  0  0  0  0  0  0  0  # atno 11005 bound_to 11000
  146.3315  140.2842  142.8612 LP  0  0  0  0  0  0  0  0  0  0  0  0  # atno 17320 bound_to 7965
  144.9543  140.8210  143.5553 LP  0  0  0  0  0  0  0  0  0  0  0  0  # atno 17321 bound_to 7965
  140.1872  144.4787  150.6498 LP  0  0  0  0  0  0  0  0  0  0  0  0  # atno 17342 bound_to 10162
  140.6622  143.2256  151.5828 LP  0  0  0  0  0  0  0  0  0  0  0  0  # atno 17343 bound_to 10162
  157.1901  130.6348  149.5701 LP  0  0  0  0  0  0  0  0  0  0  0  0  # atno 17370 bound_to 10713
  155.9760  130.4725  150.6501 LP  0  0  0  0  0  0  0  0  0  0  0  0  # atno 17371 bound_to 10713
  139.8741  134.9894  156.5456 LP  0  0  0  0  0  0  0  0  0  0  0  0  # atno 17394 bound_to 11000
  140.8241  133.8330  155.8923 LP  0  0  0  0  0  0  0  0  0  0  0  0  # atno 17395 bound_to 11000

$$$$
