AV-unprocessed.smi:477|AV-procd|sdf|2670|dock4
  -GOLD-   2262023 83D 1   1.00000     0.00000
 Structure written by MMmdl.
 45 46  0  0  0  0  0  0  0  0  1 V2000
  150.5314  143.1779  158.3851 C   0  0  0  0  0  0  0  0  0  0  0  0
  151.1289  141.8224  158.6519 C   0  0  0  0  0  0  0  0  0  0  0  0
  150.4778  140.8021  158.1987 N   0  0  0  0  0  0  0  0  0  0  0  0
  150.9379  139.5130  158.3869 N   0  0  0  0  0  0  0  0  0  0  0  0
  150.0837  138.4823  157.7793 C   0  0  0  0  0  0  0  0  0  0  0  0
  149.8629  137.2642  158.6880 C   0  0  0  0  0  0  0  0  0  0  0  0
  150.6334  136.3033  158.6650 O   0  0  0  0  0  0  0  0  0  0  0  0
  148.7867  137.3214  159.4864 N   0  0  0  0  0  0  0  0  0  0  0  0
  148.3579  136.2626  160.3932 C   0  0  0  0  0  0  0  0  0  0  0  0
  147.4657  136.7729  161.5436 C   0  0  0  0  0  0  0  0  0  0  0  0
  146.3422  135.8196  161.9240 C   0  0  0  0  0  0  0  0  0  0  0  0
  145.0513  136.2036  161.8963 C   0  0  0  0  0  0  0  0  0  0  0  0
  143.8871  135.3162  162.3005 C   0  0  0  0  0  0  0  0  0  0  0  0
  144.3422  134.0725  163.0821 C   0  0  0  0  0  0  0  0  0  0  0  0
  145.5804  133.4362  162.4387 C   0  0  0  0  0  0  0  0  0  0  0  0
  146.7574  134.4263  162.3876 C   0  0  0  0  0  0  0  0  0  0  0  0
  152.0829  139.1868  159.0531 C   0  0  0  0  0  0  0  0  0  0  0  0
  152.4566  138.0220  159.1991 O   0  0  0  0  0  0  0  0  0  0  0  0
  152.8149  140.3476  159.5647 C   0  0  0  0  0  0  0  0  0  0  0  0
  154.0201  140.0503  160.2693 C   0  0  0  0  0  0  0  0  0  0  0  0
  154.9918  139.8217  160.8557 N   0  0  0  0  0  0  0  0  0  0  0  0
  152.3773  141.6183  159.3798 C   0  0  0  0  0  0  0  0  0  0  0  0
  153.1024  142.8566  159.8893 C   0  0  0  0  0  0  0  0  0  0  0  0
  150.4030  143.7357  159.3129 H   0  0  0  0  0  0  0  0  0  0  0  0
  149.5522  143.1043  157.9093 H   0  0  0  0  0  0  0  0  0  0  0  0
  151.1757  143.7603  157.7261 H   0  0  0  0  0  0  0  0  0  0  0  0
  149.1119  138.8924  157.4998 H   0  0  0  0  0  0  0  0  0  0  0  0
  150.5345  138.1444  156.8439 H   0  0  0  0  0  0  0  0  0  0  0  0
  148.2080  138.1480  159.4450 H   0  0  0  0  0  0  0  0  0  0  0  0
  147.8367  135.4844  159.8334 H   0  0  0  0  0  0  0  0  0  0  0  0
  149.2517  135.7928  160.8045 H   0  0  0  0  0  0  0  0  0  0  0  0
  148.0650  136.9924  162.4280 H   0  0  0  0  0  0  0  0  0  0  0  0
  147.0233  137.7234  161.2427 H   0  0  0  0  0  0  0  0  0  0  0  0
  144.7962  137.1978  161.5586 H   0  0  0  0  0  0  0  0  0  0  0  0
  143.1851  135.8947  162.9013 H   0  0  0  0  0  0  0  0  0  0  0  0
  143.3592  135.0191  161.3939 H   0  0  0  0  0  0  0  0  0  0  0  0
  144.5783  134.3541  164.1092 H   0  0  0  0  0  0  0  0  0  0  0  0
  143.5284  133.3494  163.1396 H   0  0  0  0  0  0  0  0  0  0  0  0
  145.8732  132.5390  162.9846 H   0  0  0  0  0  0  0  0  0  0  0  0
  145.3326  133.1142  161.4264 H   0  0  0  0  0  0  0  0  0  0  0  0
  147.5345  134.0234  161.7402 H   0  0  0  0  0  0  0  0  0  0  0  0
  147.2015  134.5247  163.3786 H   0  0  0  0  0  0  0  0  0  0  0  0
  154.0669  142.6149  160.3350 H   0  0  0  0  0  0  0  0  0  0  0  0
  152.5045  143.3611  160.6490 H   0  0  0  0  0  0  0  0  0  0  0  0
  153.2882  143.5578  159.0751 H   0  0  0  0  0  0  0  0  0  0  0  0
  1  2  1  0  0  0  0
  1 24  1  0  0  0  0
  1 25  1  0  0  0  0
  1 26  1  0  0  0  0
  2 22  1  0  0  0  0
  2  3  2  0  0  0  0
  3  4  1  0  0  0  0
  4  5  1  0  0  0  0
  4 17  1  0  0  0  0
  5  6  1  0  0  0  0
  5 27  1  0  0  0  0
  5 28  1  0  0  0  0
  6  7  2  0  0  0  0
  6  8  1  0  0  0  0
  8  9  1  0  0  0  0
  8 29  1  0  0  0  0
  9 10  1  0  0  0  0
  9 30  1  0  0  0  0
  9 31  1  0  0  0  0
 10 11  1  0  0  0  0
 10 32  1  0  0  0  0
 10 33  1  0  0  0  0
 11 16  1  0  0  0  0
 11 12  2  0  0  0  0
 12 13  1  0  0  0  0
 12 34  1  0  0  0  0
 13 14  1  0  0  0  0
 13 35  1  0  0  0  0
 13 36  1  0  0  0  0
 14 15  1  0  0  0  0
 14 37  1  0  0  0  0
 14 38  1  0  0  0  0
 15 16  1  0  0  0  0
 15 39  1  0  0  0  0
 15 40  1  0  0  0  0
 16 41  1  0  0  0  0
 16 42  1  0  0  0  0
 17 18  2  0  0  0  0
 17 19  1  0  0  0  0
 19 20  1  0  0  0  0
 19 22  2  0  0  0  0
 20 21  3  0  0  0  0
 22 23  1  0  0  0  0
 23 43  1  0  0  0  0
 23 44  1  0  0  0  0
 23 45  1  0  0  0  0
M  END
> <s_m_source_file>
AV-unprocessed.smi

> <i_m_source_file_index>
477

> <i_lp_mmshare_version>
43012

> <i_f3d_flags>
0

> <s_epik_input>
TiNDYyhjMVtDSDNdKWMoPU8pbihuYzFbQ0gzXSlbQ0gyXUMoPU8pW05IXVtDSDJdW0NIMl1DMj1bQ0hdW0NIMl1bQ0gyXVtDSDJdW0NIMl0y

> <s_epik_cmdline>
J2VwaWtfcHl0aG9uJywgJy1waCcsICc3LjAnLCAnLXRuJywgJzgnLCAnLW1hJywgJzIwMCcsICctbWV0YWxfYmluZGluZycsICctaW1hZScsICc8aW5maWxlLm1hZT4nLCAnLW9tYWUnLCAnPG91dGZpbGUubWFlPic=

> <r_lp_tautomer_probability>
1

> <r_epik_Ionization_Penalty>
1.81256e-08

> <r_epik_Ionization_Penalty_Charging>
2.1856e-11

> <r_epik_Ionization_Penalty_Neutral>
1.81037e-08

> <r_epik_State_Penalty>
-0

> <r_epik_Charging_Adjusted_Penalty>
2.1856e-11

> <i_epik_Tot_Q>
0

> <i_epik_Tot_abs_Q>
0

> <r_epik_Metal_State_Penalty>
-0

> <b_epik_Metal_Only>
0

> <s_lp_Force_Field>
OPLS_2005

> <r_lp_Energy>
23.5318

> <b_lp_Chiralities_Consistent>
1

> <s_lp_Variant>
AV-unprocessed.smi:477-1

> <Gold.Version>
5.8.1

> <Gold.Id.Protein>
6NUR|6NUR_protein|mol2

> <Gold.PLP.Fitness>
42.2408

> <Gold.PLP.PLP>
-41.3648

> <Gold.PLP.part.hbond>
-1.0000

> <Gold.PLP.part.metal>
0.0000

> <Gold.PLP.part.buried>
-5.2110

> <Gold.PLP.part.nonpolar>
-35.1705

> <Gold.PLP.part.repulsive>
0.2372

> <Gold.PLP.ligand.clash>
0.0000

> <Gold.PLP.ligand.torsion>
1.0097

> <Gold.PLP.Chemscore.Hbond>
0.9440

> <Gold.PLP.Chemscore.CHOScore>
0.0000

> <Gold.PLP.Chemscore.Metal>
0.0000

> <Gold.Chemscore.Hbonds>
donor molecule, donor type, donor heavy atom, donor atom, acceptor molecule, acceptor atom, score
      P1  H  6896  6908       L1     7  0.93

> <Gold.PLP.Chemscore.Internal.Correction>
0.0634

> <Gold.Rescore>
     Score         DG    S(hbond)    S(metal)    S(lipo)     H(rot)  DE(clash)    DE(int)     intcor
     11.98     -16.03       0.95        0.00     103.03       1.83       0.19       3.87       ----

> <Gold.Chemscore.Fitness>
11.9755

> <Gold.Chemscore.DG>
-16.0284

> <Gold.Chemscore.ZeroCoef>
-5.4800

> <Gold.Chemscore.Hbond>
0.9521

> <Gold.Chemscore.Metal>
0.0000

> <Gold.Chemscore.Lipo>
103.0293

> <Gold.Chemscore.Internal_Hbond>
0.0000

> <Gold.Chemscore.DEClash>
0.1867

> <Gold.Chemscore.DEInternal>
3.8662

> <Gold.Chemscore.Rot>
1.8305

> <Gold.Chemscore.Internal.Correction>
   9.000000E+99

> <Gold.Chemscore.Hbonds>
donor molecule, donor type, donor heavy atom, donor atom, acceptor molecule, acceptor atom, score
      P1  H  6896  6908       L1     7  0.91

> <Gold.Chemscore.Hbond.Weighted>
-3.1799

> <Gold.Chemscore.Metal.Weighted>
-0.0000

> <Gold.Chemscore.Lipo.Weighted>
-12.0544

> <Gold.Chemscore.Internal_Hbond.Weighted>
0.0000

> <Gold.Chemscore.DEClash.Weighted>
0.1867

> <Gold.Chemscore.DEInternal.Weighted>
3.8662

> <Gold.Chemscore.Rot.Weighted>
4.6860

> <Gold.Chemscore.Internal.Correction.Weighted>
   9.000000E+99

> <Gold.Protein.RotatedTorsions>
[ 6907 6896 6895 6894 ] final -160.66 input  -60.11 | X-H torsion
[ 7974 7965 7964 7962 ] final -142.20 input  175.53 | X-H torsion
[ 8008 7997 7996 7995 ] final  156.41 input   59.86 | X-H torsion
[ 10167 10162 10161 10158 ] final -158.38 input  -65.29 | X-H torsion
[ 10718 10713 10712 10709 ] final -106.61 input   66.30 | X-H torsion
[ 10763 10752 10751 10750 ] final -125.83 input  -60.55 | X-H torsion
[ 11005 11000 10999 10996 ] final    2.45 input  -57.11 | X-H torsion

> <Gold.Protein.ActiveResidues>
 VAL166  LYS551  ARG553  GLY616  TRP617  ASP618  TYR619  PRO620  LYS621  CYS622 
 ASP623  PHE694  ASN695  SER759  ASP760  ASP761  ALA762  ILE779  LEU786  VAL792 
 PHE793  MET794  SER795  GLU796  ALA797  LYS798  CYS799  TRP800  GLU811  SER814 

> <Gold.Protein.RotatedAtoms>
  151.3526  133.3919  159.2681 H   0  0  0  0  0  0  0  0  0  0  0  0  # atno 6907 bound_to 6896
  150.9789  134.9149  159.7843 H   0  0  0  0  0  0  0  0  0  0  0  0  # atno 6908 bound_to 6896
  152.5210  134.3489  159.9296 H   0  0  0  0  0  0  0  0  0  0  0  0  # atno 6909 bound_to 6896
  144.8462  140.5987  143.5420 H   0  0  0  0  0  0  0  0  0  0  0  0  # atno 7974 bound_to 7965
  156.2424  140.1913  156.6951 H   0  0  0  0  0  0  0  0  0  0  0  0  # atno 8008 bound_to 7997
  154.6223  140.0607  156.9656 H   0  0  0  0  0  0  0  0  0  0  0  0  # atno 8009 bound_to 7997
  155.1842  140.3279  155.4372 H   0  0  0  0  0  0  0  0  0  0  0  0  # atno 8010 bound_to 7997
  139.6696  143.9768  152.2276 H   0  0  0  0  0  0  0  0  0  0  0  0  # atno 10167 bound_to 10162
  156.0398  130.5621  150.7706 H   0  0  0  0  0  0  0  0  0  0  0  0  # atno 10718 bound_to 10713
  154.8740  135.4016  154.3332 H   0  0  0  0  0  0  0  0  0  0  0  0  # atno 10763 bound_to 10752
  153.4142  135.7021  153.6343 H   0  0  0  0  0  0  0  0  0  0  0  0  # atno 10764 bound_to 10752
  153.5033  135.3723  155.2521 H   0  0  0  0  0  0  0  0  0  0  0  0  # atno 10765 bound_to 10752
  140.6042  133.9808  155.8146 H   0  0  0  0  0  0  0  0  0  0  0  0  # atno 11005 bound_to 11000
  145.4593  139.1514  143.3875 LP  0  0  0  0  0  0  0  0  0  0  0  0  # atno 17320 bound_to 7965
  146.2746  140.4722  142.8801 LP  0  0  0  0  0  0  0  0  0  0  0  0  # atno 17321 bound_to 7965
  139.9529  144.6609  150.8155 LP  0  0  0  0  0  0  0  0  0  0  0  0  # atno 17342 bound_to 10162
  140.7613  143.3171  151.2708 LP  0  0  0  0  0  0  0  0  0  0  0  0  # atno 17343 bound_to 10162
  157.5200  131.0931  151.0090 LP  0  0  0  0  0  0  0  0  0  0  0  0  # atno 17370 bound_to 10713
  157.0423  130.5754  149.5358 LP  0  0  0  0  0  0  0  0  0  0  0  0  # atno 17371 bound_to 10713
  141.0852  134.0001  157.3324 LP  0  0  0  0  0  0  0  0  0  0  0  0  # atno 17394 bound_to 11000
  139.9219  135.0200  156.8097 LP  0  0  0  0  0  0  0  0  0  0  0  0  # atno 17395 bound_to 11000

$$$$
