AV-unprocessed.smi:2541|AV-procd|sdf|9989|dock5
  -GOLD-   2272014 43D 1   1.00000     0.00000
 Structure written by MMmdl.
 38 39  0  0  0  0  0  0  0  0  1 V2000
  150.7525  140.4032  154.7857 O   0  0  0  0  0  0  0  0  0  0  0  0
  149.7204  140.6948  155.3924 C   0  0  0  0  0  0  0  0  0  0  0  0
  148.3482  140.2046  154.9113 C   0  0  0  0  0  0  0  0  0  0  0  0
  147.3523  141.3286  154.7793 C   0  0  0  0  0  0  0  0  0  0  0  0
  147.3144  142.3643  153.8043 C   0  0  0  0  0  0  0  0  0  0  0  0
  146.2153  143.0934  154.1554 C   0  0  0  0  0  0  0  0  0  0  0  0
  145.6166  142.5547  155.2475 O   0  0  0  0  0  0  0  0  0  0  0  0
  146.3477  141.4265  155.6371 N   0  0  0  0  0  0  0  0  0  0  0  0
  149.7118  141.4466  156.5042 N   0  0  0  0  0  0  0  0  0  0  0  0
  150.8887  142.0388  157.1340 C   0  0  0  0  0  0  0  0  0  0  0  0
  150.5489  142.6470  158.5139 C   0  0  2  0  0  0  0  0  0  0  0  0
  149.9343  143.8996  158.2712 O   0  0  0  0  0  0  0  0  0  0  0  0
  151.7799  142.8868  159.4316 C   0  0  0  0  0  0  0  0  0  0  0  0
  152.5085  141.5753  159.8163 C   0  0  0  0  0  0  0  0  0  0  0  0
  153.7076  141.8235  160.7463 C   0  0  0  0  0  0  0  0  0  0  0  0
  153.2888  142.5809  162.0125 C   0  0  0  0  0  0  0  0  0  0  0  0
  152.5843  143.8939  161.6494 C   0  0  0  0  0  0  0  0  0  0  0  0
  151.3823  143.6421  160.7255 C   0  0  0  0  0  0  0  0  0  0  0  0
  148.4766  139.7066  153.9497 H   0  0  0  0  0  0  0  0  0  0  0  0
  147.9781  139.4475  155.6045 H   0  0  0  0  0  0  0  0  0  0  0  0
  147.9905  142.5456  152.9821 H   0  0  0  0  0  0  0  0  0  0  0  0
  145.7504  143.9785  153.7468 H   0  0  0  0  0  0  0  0  0  0  0  0
  148.8206  141.6383  156.9381 H   0  0  0  0  0  0  0  0  0  0  0  0
  151.5945  141.2174  157.2390 H   0  0  0  0  0  0  0  0  0  0  0  0
  151.3738  142.7739  156.4891 H   0  0  0  0  0  0  0  0  0  0  0  0
  149.8350  142.0049  159.0319 H   0  0  0  0  0  0  0  0  0  0  0  0
  149.6820  143.9401  157.3613 H   0  0  0  0  0  0  0  0  0  0  0  0
  152.4901  143.5098  158.8852 H   0  0  0  0  0  0  0  0  0  0  0  0
  151.8080  140.8924  160.2991 H   0  0  0  0  0  0  0  0  0  0  0  0
  152.8803  141.0631  158.9307 H   0  0  0  0  0  0  0  0  0  0  0  0
  154.1688  140.8736  161.0186 H   0  0  0  0  0  0  0  0  0  0  0  0
  154.4695  142.3947  160.2143 H   0  0  0  0  0  0  0  0  0  0  0  0
  152.6215  141.9581  162.6097 H   0  0  0  0  0  0  0  0  0  0  0  0
  154.1624  142.7843  162.6325 H   0  0  0  0  0  0  0  0  0  0  0  0
  152.2549  144.4006  162.5569 H   0  0  0  0  0  0  0  0  0  0  0  0
  153.2891  144.5657  161.1580 H   0  0  0  0  0  0  0  0  0  0  0  0
  150.9256  144.6026  160.4867 H   0  0  0  0  0  0  0  0  0  0  0  0
  150.6257  143.0711  161.2653 H   0  0  0  0  0  0  0  0  0  0  0  0
  1  2  2  0  0  0  0
  2  3  1  0  0  0  0
  2  9  1  0  0  0  0
  3  4  1  0  0  0  0
  3 19  1  0  0  0  0
  3 20  1  0  0  0  0
  4  8  2  0  0  0  0
  4  5  1  0  0  0  0
  5  6  2  0  0  0  0
  5 21  1  0  0  0  0
  6  7  1  0  0  0  0
  6 22  1  0  0  0  0
  7  8  1  0  0  0  0
  9 10  1  0  0  0  0
  9 23  1  0  0  0  0
 10 11  1  0  0  0  0
 10 24  1  0  0  0  0
 10 25  1  0  0  0  0
 11 12  1  0  0  0  0
 11 13  1  0  0  0  0
 11 26  1  0  0  0  0
 12 27  1  0  0  0  0
 13 18  1  0  0  0  0
 13 14  1  0  0  0  0
 13 28  1  0  0  0  0
 14 15  1  0  0  0  0
 14 29  1  0  0  0  0
 14 30  1  0  0  0  0
 15 16  1  0  0  0  0
 15 31  1  0  0  0  0
 15 32  1  0  0  0  0
 16 17  1  0  0  0  0
 16 33  1  0  0  0  0
 16 34  1  0  0  0  0
 17 18  1  0  0  0  0
 17 35  1  0  0  0  0
 17 36  1  0  0  0  0
 18 37  1  0  0  0  0
 18 38  1  0  0  0  0
M  END
> <s_m_source_file>
AV-unprocessed.smi

> <i_m_source_file_index>
2541

> <i_lp_mmshare_version>
43012

> <i_f3d_flags>
0

> <s_epik_input>
bjFvW2NIXVtjSF1jMVtDSDJdQyg9TylbTkhdW0NIMl1bQ0BIXShbT0hdKVtDSF0yW0NIMl1bQ0gyXVtDSDJdW0NIMl1bQ0gyXTI=

> <s_epik_cmdline>
J2VwaWtfcHl0aG9uJywgJy1waCcsICc3LjAnLCAnLXRuJywgJzgnLCAnLW1hJywgJzIwMCcsICctbWV0YWxfYmluZGluZycsICctaW1hZScsICc8aW5maWxlLm1hZT4nLCAnLW9tYWUnLCAnPG91dGZpbGUubWFlPic=

> <r_lp_tautomer_probability>
1

> <r_epik_Ionization_Penalty>
2.3322e-07

> <r_epik_Ionization_Penalty_Charging>
0

> <r_epik_Ionization_Penalty_Neutral>
2.3322e-07

> <r_epik_State_Penalty>
-0

> <r_epik_Charging_Adjusted_Penalty>
0

> <i_epik_Tot_Q>
0

> <i_epik_Tot_abs_Q>
0

> <r_epik_Metal_State_Penalty>
-0

> <b_epik_Metal_Only>
0

> <s_lp_Force_Field>
OPLS_2005

> <r_lp_Energy>
14.1188

> <b_lp_Chiralities_Consistent>
1

> <s_lp_Variant>
AV-unprocessed.smi:2541-1

> <Gold.Version>
5.8.1

> <Gold.Id.Protein>
6NUR|6NUR_protein|mol2

> <Gold.PLP.Fitness>
42.7598

> <Gold.PLP.PLP>
-37.5375

> <Gold.PLP.part.hbond>
-2.9850

> <Gold.PLP.part.metal>
0.0000

> <Gold.PLP.part.buried>
-5.4735

> <Gold.PLP.part.nonpolar>
-29.6933

> <Gold.PLP.part.repulsive>
0.3702

> <Gold.PLP.ligand.clash>
0.0000

> <Gold.PLP.ligand.torsion>
0.4065

> <Gold.PLP.Chemscore.Hbond>
2.0000

> <Gold.PLP.Chemscore.CHOScore>
0.0000

> <Gold.PLP.Chemscore.Metal>
0.0000

> <Gold.Chemscore.Hbonds>
donor molecule, donor type, donor heavy atom, donor atom, acceptor molecule, acceptor atom, score
      L1  H    12    27       P1  8028  1.00
      P1  H  7989  7998       L1     1  1.00

> <Gold.PLP.Chemscore.Internal.Correction>
0.0354

> <Gold.Rescore>
     Score         DG    S(hbond)    S(metal)    S(lipo)     H(rot)  DE(clash)    DE(int)     intcor
     16.40     -16.85       1.66        0.00     102.70       2.42       0.04       0.42       ----

> <Gold.Chemscore.Fitness>
16.4014

> <Gold.Chemscore.DG>
-16.8545

> <Gold.Chemscore.ZeroCoef>
-5.4800

> <Gold.Chemscore.Hbond>
1.6606

> <Gold.Chemscore.Metal>
0.0000

> <Gold.Chemscore.Lipo>
102.7028

> <Gold.Chemscore.Internal_Hbond>
0.0000

> <Gold.Chemscore.DEClash>
0.0368

> <Gold.Chemscore.DEInternal>
0.4163

> <Gold.Chemscore.Rot>
2.4172

> <Gold.Chemscore.Internal.Correction>
   9.000000E+99

> <Gold.Chemscore.Hbonds>
donor molecule, donor type, donor heavy atom, donor atom, acceptor molecule, acceptor atom, score
      L1  H    12    27       P1  8028  0.52
      P1  H  7989  7998       L1     1  0.98

> <Gold.Chemscore.Hbond.Weighted>
-5.5463

> <Gold.Chemscore.Metal.Weighted>
-0.0000

> <Gold.Chemscore.Lipo.Weighted>
-12.0162

> <Gold.Chemscore.Internal_Hbond.Weighted>
0.0000

> <Gold.Chemscore.DEClash.Weighted>
0.0368

> <Gold.Chemscore.DEInternal.Weighted>
0.4163

> <Gold.Chemscore.Rot.Weighted>
6.1880

> <Gold.Chemscore.Internal.Correction.Weighted>
   9.000000E+99

> <Gold.Protein.RotatedTorsions>
[ 6907 6896 6895 6894 ] final   64.94 input  -60.11 | X-H torsion
[ 7974 7965 7964 7962 ] final -127.64 input  175.53 | X-H torsion
[ 8008 7997 7996 7995 ] final  -47.52 input   59.86 | X-H torsion
[ 10167 10162 10161 10158 ] final  -44.68 input  -65.29 | X-H torsion
[ 10718 10713 10712 10709 ] final  -33.65 input   66.30 | X-H torsion
[ 10763 10752 10751 10750 ] final  -52.71 input  -60.55 | X-H torsion
[ 11005 11000 10999 10996 ] final -178.05 input  -57.11 | X-H torsion

> <Gold.Protein.ActiveResidues>
 VAL166  LYS551  ARG553  GLY616  TRP617  ASP618  TYR619  PRO620  LYS621  CYS622 
 ASP623  PHE694  ASN695  SER759  ASP760  ASP761  ALA762  ILE779  LEU786  VAL792 
 PHE793  MET794  SER795  GLU796  ALA797  LYS798  CYS799  TRP800  GLU811  SER814 

> <Gold.Protein.RotatedAtoms>
  152.4370  134.5667  159.9909 H   0  0  0  0  0  0  0  0  0  0  0  0  # atno 6907 bound_to 6896
  151.5775  133.3376  159.3009 H   0  0  0  0  0  0  0  0  0  0  0  0  # atno 6908 bound_to 6896
  150.8270  134.7540  159.6885 H   0  0  0  0  0  0  0  0  0  0  0  0  # atno 6909 bound_to 6896
  144.9750  140.7584  143.4647 H   0  0  0  0  0  0  0  0  0  0  0  0  # atno 7974 bound_to 7965
  154.4018  140.1344  156.4189 H   0  0  0  0  0  0  0  0  0  0  0  0  # atno 8008 bound_to 7997
  155.7661  140.3485  155.5203 H   0  0  0  0  0  0  0  0  0  0  0  0  # atno 8009 bound_to 7997
  155.8812  140.0987  157.1474 H   0  0  0  0  0  0  0  0  0  0  0  0  # atno 8010 bound_to 7997
  140.6887  143.2918  151.3530 H   0  0  0  0  0  0  0  0  0  0  0  0  # atno 10167 bound_to 10162
  156.3601  130.4322  149.7631 H   0  0  0  0  0  0  0  0  0  0  0  0  # atno 10718 bound_to 10713
  154.1471  135.6496  153.4955 H   0  0  0  0  0  0  0  0  0  0  0  0  # atno 10763 bound_to 10752
  153.0149  135.5329  154.6846 H   0  0  0  0  0  0  0  0  0  0  0  0  # atno 10764 bound_to 10752
  154.6124  135.2955  155.0389 H   0  0  0  0  0  0  0  0  0  0  0  0  # atno 10765 bound_to 10752
  140.4340  134.6492  157.4726 H   0  0  0  0  0  0  0  0  0  0  0  0  # atno 11005 bound_to 11000
  145.2503  139.2034  143.4946 LP  0  0  0  0  0  0  0  0  0  0  0  0  # atno 17320 bound_to 7965
  146.3393  140.2414  142.8596 LP  0  0  0  0  0  0  0  0  0  0  0  0  # atno 17321 bound_to 7965
  139.6270  144.0795  152.2443 LP  0  0  0  0  0  0  0  0  0  0  0  0  # atno 17342 bound_to 10162
  140.0258  144.6119  150.7529 LP  0  0  0  0  0  0  0  0  0  0  0  0  # atno 17343 bound_to 10162
  156.4798  130.8036  151.3050 LP  0  0  0  0  0  0  0  0  0  0  0  0  # atno 17370 bound_to 10713
  157.7472  131.0009  150.2944 LP  0  0  0  0  0  0  0  0  0  0  0  0  # atno 17371 bound_to 10713
  140.0114  134.6684  155.9374 LP  0  0  0  0  0  0  0  0  0  0  0  0  # atno 17394 bound_to 11000
  141.1733  133.6538  156.4734 LP  0  0  0  0  0  0  0  0  0  0  0  0  # atno 17395 bound_to 11000

$$$$
