AV-unprocessed.smi:191|AV-procd|sdf|1493|dock3
  -GOLD-   2262019313D 1   1.00000     0.00000
 Structure written by MMmdl.
 46 48  0  0  0  0  0  0  0  0  1 V2000
  144.3232  138.3306  160.5383 C   0  0  0  0  0  0  0  0  0  0  0  0
  145.0093  137.1807  159.7896 C   0  0  0  0  0  0  0  0  0  0  0  0
  146.3827  136.9642  160.2377 N   0  0  0  0  0  0  0  0  0  0  0  0
  146.5626  136.3158  161.5372 C   0  0  0  0  0  0  0  0  0  0  0  0
  146.0377  134.8670  161.5849 C   0  0  2  0  0  0  0  0  0  0  0  0
  144.9450  134.7099  162.6485 C   0  0  0  0  0  0  0  0  0  0  0  0
  147.1271  133.9029  161.8129 C   0  0  0  0  0  0  0  0  0  0  0  0
  147.9831  133.1457  161.9922 N   0  0  0  0  0  0  0  0  0  0  0  0
  147.1604  136.4497  159.2605 C   0  0  0  0  0  0  0  0  0  0  0  0
  146.9017  135.1803  158.8627 N   0  0  0  0  0  0  0  0  0  0  0  0
  147.6387  134.6214  157.8981 C   0  0  0  0  0  0  0  0  0  0  0  0
  148.6596  135.1468  157.2167 N   0  0  0  0  0  0  0  0  0  0  0  0
  148.9205  136.4248  157.6156 C   0  0  0  0  0  0  0  0  0  0  0  0
  148.2258  137.1474  158.6258 C   0  0  0  0  0  0  0  0  0  0  0  0
  148.7726  138.4169  158.7650 N   0  0  0  0  0  0  0  0  0  0  0  0
  149.7402  138.4417  157.8897 C   0  0  0  0  0  0  0  0  0  0  0  0
  149.8932  137.2913  157.1478 N   0  0  0  0  0  0  0  0  0  0  0  0
  150.8876  137.0546  156.1119 C   0  0  0  0  0  0  0  0  0  0  0  0
  151.1172  138.2529  155.1669 C   0  0  0  0  0  0  0  0  0  0  0  0
  149.8412  138.5771  154.3703 C   0  0  0  0  0  0  0  0  0  0  0  0
  149.9925  139.7594  153.6105 O   0  0  0  0  0  0  0  0  0  0  0  0
  151.8118  139.4705  155.7926 C   0  0  0  0  0  0  0  0  0  0  0  0
  152.7863  139.5312  154.7295 O   0  0  0  0  0  0  0  0  0  0  0  0
  152.3953  138.2046  154.3169 C   0  0  0  0  0  0  0  0  0  0  0  0
  143.3208  138.4990  160.1448 H   0  0  0  0  0  0  0  0  0  0  0  0
  144.8827  139.2600  160.4268 H   0  0  0  0  0  0  0  0  0  0  0  0
  144.2246  138.1223  161.6033 H   0  0  0  0  0  0  0  0  0  0  0  0
  144.4371  136.2618  159.9236 H   0  0  0  0  0  0  0  0  0  0  0  0
  144.9962  137.4025  158.7208 H   0  0  0  0  0  0  0  0  0  0  0  0
  147.6223  136.3127  161.7902 H   0  0  0  0  0  0  0  0  0  0  0  0
  146.0703  136.9129  162.3056 H   0  0  0  0  0  0  0  0  0  0  0  0
  145.5976  134.6068  160.6221 H   0  0  0  0  0  0  0  0  0  0  0  0
  144.5576  133.6908  162.6621 H   0  0  0  0  0  0  0  0  0  0  0  0
  144.1073  135.3801  162.4532 H   0  0  0  0  0  0  0  0  0  0  0  0
  145.3282  134.9339  163.6445 H   0  0  0  0  0  0  0  0  0  0  0  0
  147.3725  133.6083  157.6347 H   0  0  0  0  0  0  0  0  0  0  0  0
  150.3698  139.3094  157.7551 H   0  0  0  0  0  0  0  0  0  0  0  0
  151.8216  136.7688  156.5971 H   0  0  0  0  0  0  0  0  0  0  0  0
  150.5754  136.1758  155.5465 H   0  0  0  0  0  0  0  0  0  0  0  0
  149.6058  137.7664  153.6797 H   0  0  0  0  0  0  0  0  0  0  0  0
  148.9729  138.6767  155.0216 H   0  0  0  0  0  0  0  0  0  0  0  0
  149.6516  139.6047  152.7424 H   0  0  0  0  0  0  0  0  0  0  0  0
  151.1886  140.3641  155.8435 H   0  0  0  0  0  0  0  0  0  0  0  0
  152.2789  139.2667  156.7578 H   0  0  0  0  0  0  0  0  0  0  0  0
  153.1218  137.4579  154.6405 H   0  0  0  0  0  0  0  0  0  0  0  0
  152.2145  138.1321  153.2437 H   0  0  0  0  0  0  0  0  0  0  0  0
  1  2  1  0  0  0  0
  1 25  1  0  0  0  0
  1 26  1  0  0  0  0
  1 27  1  0  0  0  0
  2  3  1  0  0  0  0
  2 28  1  0  0  0  0
  2 29  1  0  0  0  0
  3  4  1  0  0  0  0
  3  9  1  0  0  0  0
  4  5  1  0  0  0  0
  4 30  1  0  0  0  0
  4 31  1  0  0  0  0
  5  6  1  0  0  0  0
  5  7  1  0  0  0  0
  5 32  1  0  0  0  0
  6 33  1  0  0  0  0
  6 34  1  0  0  0  0
  6 35  1  0  0  0  0
  7  8  3  0  0  0  0
  9 14  1  0  0  0  0
  9 10  2  0  0  0  0
 10 11  1  0  0  0  0
 11 12  2  0  0  0  0
 11 36  1  0  0  0  0
 12 13  1  0  0  0  0
 13 17  1  0  0  0  0
 13 14  2  0  0  0  0
 14 15  1  0  0  0  0
 15 16  2  0  0  0  0
 16 17  1  0  0  0  0
 16 37  1  0  0  0  0
 17 18  1  0  0  0  0
 18 19  1  0  0  0  0
 18 38  1  0  0  0  0
 18 39  1  0  0  0  0
 19 24  1  0  0  0  0
 19 20  1  0  0  0  0
 19 22  1  0  0  0  0
 20 21  1  0  0  0  0
 20 40  1  0  0  0  0
 20 41  1  0  0  0  0
 21 42  1  0  0  0  0
 22 23  1  0  0  0  0
 22 43  1  0  0  0  0
 22 44  1  0  0  0  0
 23 24  1  0  0  0  0
 24 45  1  0  0  0  0
 24 46  1  0  0  0  0
M  END
> <s_m_source_file>
AV-unprocessed.smi

> <i_m_source_file_index>
191

> <i_lp_mmshare_version>
43012

> <i_f3d_flags>
0

> <s_epik_input>
TiNDW0NAQEhdKFtDSDNdKVtDSDJdTihbQ0gyXVtDSDNdKWMobltjSF1uMSljKGMxMiluW2NIXW4yW0NIMl1DMyhbQ0gyXVtPSF0pW0NIMl1PW0NIMl0z

> <s_epik_cmdline>
J2VwaWtfcHl0aG9uJywgJy1waCcsICc3LjAnLCAnLXRuJywgJzgnLCAnLW1hJywgJzIwMCcsICctbWV0YWxfYmluZGluZycsICctaW1hZScsICc8aW5maWxlLm1hZT4nLCAnLW9tYWUnLCAnPG91dGZpbGUubWFlPic=

> <r_lp_tautomer_probability>
1

> <r_epik_Ionization_Penalty>
0.000569684

> <r_epik_Ionization_Penalty_Charging>
0

> <r_epik_Ionization_Penalty_Neutral>
0.000569684

> <r_epik_State_Penalty>
0.000286009

> <r_epik_Charging_Adjusted_Penalty>
0.000286009

> <i_epik_Tot_Q>
0

> <i_epik_Tot_abs_Q>
0

> <r_epik_Metal_State_Penalty>
-0

> <b_epik_Metal_Only>
0

> <s_lp_Force_Field>
OPLS_2005

> <r_lp_Energy>
28.3961

> <b_lp_Chiralities_Consistent>
1

> <s_lp_Variant>
AV-unprocessed.smi:191-1

> <Gold.Version>
5.8.1

> <Gold.Id.Protein>
6NUR|6NUR_protein|mol2

> <Gold.PLP.Fitness>
42.2484

> <Gold.PLP.PLP>
-33.1792

> <Gold.PLP.part.hbond>
-6.7403

> <Gold.PLP.part.metal>
0.0000

> <Gold.PLP.part.buried>
-4.1465

> <Gold.PLP.part.nonpolar>
-21.9118

> <Gold.PLP.part.repulsive>
0.0219

> <Gold.PLP.ligand.clash>
0.0000

> <Gold.PLP.ligand.torsion>
1.5771

> <Gold.PLP.Chemscore.Hbond>
3.7561

> <Gold.PLP.Chemscore.CHOScore>
0.0000

> <Gold.PLP.Chemscore.Metal>
0.0000

> <Gold.Chemscore.Hbonds>
donor molecule, donor type, donor heavy atom, donor atom, acceptor molecule, acceptor atom, score
      L1  H    21    42       P1  7957  0.98
      P1  H  6934  6947       L1     3  0.23
      P1  H  7989  7998       L1    21  0.78
      P1  H  7997  8008       L1    23  0.62

> <Gold.PLP.Chemscore.Internal.Correction>
0.9551

> <Gold.Rescore>
     Score         DG    S(hbond)    S(metal)    S(lipo)     H(rot)  DE(clash)    DE(int)     intcor
      7.36     -11.24       2.38        0.00      56.24       3.43       0.05       3.83       ----

> <Gold.Chemscore.Fitness>
7.3635

> <Gold.Chemscore.DG>
-11.2382

> <Gold.Chemscore.ZeroCoef>
-5.4800

> <Gold.Chemscore.Hbond>
2.3833

> <Gold.Chemscore.Metal>
0.0000

> <Gold.Chemscore.Lipo>
56.2359

> <Gold.Chemscore.Internal_Hbond>
0.0000

> <Gold.Chemscore.DEClash>
0.0484

> <Gold.Chemscore.DEInternal>
3.8262

> <Gold.Chemscore.Rot>
3.4303

> <Gold.Chemscore.Internal.Correction>
   9.000000E+99

> <Gold.Chemscore.Hbonds>
donor molecule, donor type, donor heavy atom, donor atom, acceptor molecule, acceptor atom, score
      L1  H    21    42       P1  7957  0.92
      P1  H  6934  6947       L1     3  0.01
      P1  H  7989  7998       L1    21  0.50
      P1  H  7997  8008       L1    23  0.34

> <Gold.Chemscore.Hbond.Weighted>
-7.9602

> <Gold.Chemscore.Metal.Weighted>
-0.0000

> <Gold.Chemscore.Lipo.Weighted>
-6.5796

> <Gold.Chemscore.Internal_Hbond.Weighted>
0.0000

> <Gold.Chemscore.DEClash.Weighted>
0.0484

> <Gold.Chemscore.DEInternal.Weighted>
3.8262

> <Gold.Chemscore.Rot.Weighted>
8.7817

> <Gold.Chemscore.Internal.Correction.Weighted>
   9.000000E+99

> <Gold.Protein.RotatedTorsions>
[ 6907 6896 6895 6894 ] final   20.11 input  -60.11 | X-H torsion
[ 7974 7965 7964 7962 ] final  160.49 input  175.53 | X-H torsion
[ 8008 7997 7996 7995 ] final    2.00 input   59.86 | X-H torsion
[ 10167 10162 10161 10158 ] final -121.55 input  -65.29 | X-H torsion
[ 10718 10713 10712 10709 ] final   38.76 input   66.30 | X-H torsion
[ 10763 10752 10751 10750 ] final  -83.79 input  -60.55 | X-H torsion
[ 11005 11000 10999 10996 ] final   71.33 input  -57.11 | X-H torsion

> <Gold.Protein.ActiveResidues>
 VAL166  LYS551  ARG553  GLY616  TRP617  ASP618  TYR619  PRO620  LYS621  CYS622 
 ASP623  PHE694  ASN695  SER759  ASP760  ASP761  ALA762  ILE779  LEU786  VAL792 
 PHE793  MET794  SER795  GLU796  ALA797  LYS798  CYS799  TRP800  GLU811  SER814 

> <Gold.Protein.RotatedAtoms>
  151.8912  135.0415  160.0497 H   0  0  0  0  0  0  0  0  0  0  0  0  # atno 6907 bound_to 6896
  152.2434  133.5150  159.5291 H   0  0  0  0  0  0  0  0  0  0  0  0  # atno 6908 bound_to 6896
  150.7060  134.0974  159.3996 H   0  0  0  0  0  0  0  0  0  0  0  0  # atno 6909 bound_to 6896
  144.7734  139.7765  143.6288 H   0  0  0  0  0  0  0  0  0  0  0  0  # atno 7974 bound_to 7965
  154.6863  140.2643  155.6857 H   0  0  0  0  0  0  0  0  0  0  0  0  # atno 8008 bound_to 7997
  156.2716  140.2800  156.1349 H   0  0  0  0  0  0  0  0  0  0  0  0  # atno 8009 bound_to 7997
  155.0959  140.0374  157.2672 H   0  0  0  0  0  0  0  0  0  0  0  0  # atno 8010 bound_to 7997
  140.0239  143.5317  152.2208 H   0  0  0  0  0  0  0  0  0  0  0  0  # atno 10167 bound_to 10162
  157.3626  130.7658  149.7059 H   0  0  0  0  0  0  0  0  0  0  0  0  # atno 10718 bound_to 10713
  154.5919  135.5543  153.7287 H   0  0  0  0  0  0  0  0  0  0  0  0  # atno 10763 bound_to 10752
  153.0120  135.6345  154.1836 H   0  0  0  0  0  0  0  0  0  0  0  0  # atno 10764 bound_to 10752
  154.1777  135.2889  155.3041 H   0  0  0  0  0  0  0  0  0  0  0  0  # atno 10765 bound_to 10752
  139.9549  134.7161  156.0776 H   0  0  0  0  0  0  0  0  0  0  0  0  # atno 11005 bound_to 11000
  146.1897  139.5131  142.9813 LP  0  0  0  0  0  0  0  0  0  0  0  0  # atno 17320 bound_to 7965
  145.6256  141.0314  143.1891 LP  0  0  0  0  0  0  0  0  0  0  0  0  # atno 17321 bound_to 7965
  139.6121  144.7611  151.2928 LP  0  0  0  0  0  0  0  0  0  0  0  0  # atno 17342 bound_to 10162
  140.7331  143.6804  150.8005 LP  0  0  0  0  0  0  0  0  0  0  0  0  # atno 17343 bound_to 10162
  155.9740  130.4109  150.3956 LP  0  0  0  0  0  0  0  0  0  0  0  0  # atno 17370 bound_to 10713
  157.2036  131.0444  151.2637 LP  0  0  0  0  0  0  0  0  0  0  0  0  # atno 17371 bound_to 10713
  141.1219  133.6610  156.3236 LP  0  0  0  0  0  0  0  0  0  0  0  0  # atno 17394 bound_to 11000
  140.5632  134.5913  157.5439 LP  0  0  0  0  0  0  0  0  0  0  0  0  # atno 17395 bound_to 11000

$$$$
