AV-unprocessed.smi:1474|AV-procd|sdf|5975|dock8
  -GOLD-   22720 6 63D 1   1.00000     0.00000
 Structure written by MMmdl.
 43 44  0  0  0  0  0  0  0  0  1 V2000
  151.1115  144.9137  160.1441 C   0  0  0  0  0  0  0  0  0  0  0  0
  152.1952  144.0741  159.7866 O   0  0  0  0  0  0  0  0  0  0  0  0
  152.3613  143.9710  158.3822 C   0  0  0  0  0  0  0  0  0  0  0  0
  151.3467  142.9675  157.8265 C   0  0  0  0  0  0  0  0  0  0  0  0
  151.8312  141.6490  158.0628 O   0  0  0  0  0  0  0  0  0  0  0  0
  151.7293  140.7175  157.0503 C   0  0  0  0  0  0  0  0  0  0  0  0
  150.6876  140.8561  156.1114 C   0  0  0  0  0  0  0  0  0  0  0  0
  150.5745  139.9070  155.0779 C   0  0  0  0  0  0  0  0  0  0  0  0
  151.5038  138.8458  155.0187 C   0  0  0  0  0  0  0  0  0  0  0  0
  151.4485  137.7863  153.9272 C   0  0  0  0  0  0  0  0  0  0  0  0
  150.4180  136.7722  154.1273 N   0  0  0  0  0  0  0  0  0  0  0  0
  150.4596  135.8091  155.0615 C   0  0  0  0  0  0  0  0  0  0  0  0
  151.3928  135.6885  155.8557 O   0  0  0  0  0  0  0  0  0  0  0  0
  149.2519  134.8539  155.1122 C   0  0  1  0  0  0  0  0  0  0  0  0
  149.6108  133.4294  154.6496 C   0  0  0  0  0  0  0  0  0  0  0  0
  150.5045  132.6726  155.6505 C   0  0  0  0  0  0  0  0  0  0  0  0
  150.0818  132.8524  157.1165 C   0  0  0  0  0  0  0  0  0  0  0  0
  150.5180  132.0822  157.9689 O   0  0  0  0  0  0  0  0  0  0  0  0
  149.2748  133.8771  157.4433 N   0  0  0  0  0  0  0  0  0  0  0  0
  148.6021  134.7861  156.5128 C   0  0  0  0  0  0  0  0  0  0  0  0
  152.5144  138.7985  156.0015 C   0  0  0  0  0  0  0  0  0  0  0  0
  152.6302  139.7052  156.9949 N   0  0  0  0  0  0  0  0  0  0  0  0
  151.0282  144.9626  161.2299 H   0  0  0  0  0  0  0  0  0  0  0  0
  150.1687  144.5310  159.7510 H   0  0  0  0  0  0  0  0  0  0  0  0
  151.2600  145.9284  159.7724 H   0  0  0  0  0  0  0  0  0  0  0  0
  152.1920  144.9487  157.9287 H   0  0  0  0  0  0  0  0  0  0  0  0
  153.3773  143.6639  158.1292 H   0  0  0  0  0  0  0  0  0  0  0  0
  150.3704  143.1196  158.2901 H   0  0  0  0  0  0  0  0  0  0  0  0
  151.2381  143.1296  156.7529 H   0  0  0  0  0  0  0  0  0  0  0  0
  149.9892  141.6769  156.1825 H   0  0  0  0  0  0  0  0  0  0  0  0
  149.7856  139.9987  154.3462 H   0  0  0  0  0  0  0  0  0  0  0  0
  151.2536  138.2854  152.9780 H   0  0  0  0  0  0  0  0  0  0  0  0
  152.4228  137.3047  153.8269 H   0  0  0  0  0  0  0  0  0  0  0  0
  149.6173  136.8061  153.5132 H   0  0  0  0  0  0  0  0  0  0  0  0
  148.5028  135.2522  154.4256 H   0  0  0  0  0  0  0  0  0  0  0  0
  148.6900  132.8642  154.4993 H   0  0  0  0  0  0  0  0  0  0  0  0
  150.0997  133.4617  153.6750 H   0  0  0  0  0  0  0  0  0  0  0  0
  150.5166  131.6101  155.4055 H   0  0  0  0  0  0  0  0  0  0  0  0
  151.5344  133.0189  155.5596 H   0  0  0  0  0  0  0  0  0  0  0  0
  149.0528  133.9939  158.4215 H   0  0  0  0  0  0  0  0  0  0  0  0
  148.5542  135.7776  156.9653 H   0  0  0  0  0  0  0  0  0  0  0  0
  147.5694  134.4494  156.4151 H   0  0  0  0  0  0  0  0  0  0  0  0
  153.2519  138.0095  155.9935 H   0  0  0  0  0  0  0  0  0  0  0  0
  1  2  1  0  0  0  0
  1 23  1  0  0  0  0
  1 24  1  0  0  0  0
  1 25  1  0  0  0  0
  2  3  1  0  0  0  0
  3  4  1  0  0  0  0
  3 26  1  0  0  0  0
  3 27  1  0  0  0  0
  4  5  1  0  0  0  0
  4 28  1  0  0  0  0
  4 29  1  0  0  0  0
  5  6  1  0  0  0  0
  6 22  1  0  0  0  0
  6  7  2  0  0  0  0
  7  8  1  0  0  0  0
  7 30  1  0  0  0  0
  8  9  2  0  0  0  0
  8 31  1  0  0  0  0
  9 10  1  0  0  0  0
  9 21  1  0  0  0  0
 10 11  1  0  0  0  0
 10 32  1  0  0  0  0
 10 33  1  0  0  0  0
 11 12  1  0  0  0  0
 11 34  1  0  0  0  0
 12 13  2  0  0  0  0
 12 14  1  0  0  0  0
 14 20  1  0  0  0  0
 14 15  1  0  0  0  0
 14 35  1  0  0  0  0
 15 16  1  0  0  0  0
 15 36  1  0  0  0  0
 15 37  1  0  0  0  0
 16 17  1  0  0  0  0
 16 38  1  0  0  0  0
 16 39  1  0  0  0  0
 17 18  2  0  0  0  0
 17 19  1  0  0  0  0
 19 20  1  0  0  0  0
 19 40  1  0  0  0  0
 20 41  1  0  0  0  0
 20 42  1  0  0  0  0
 21 22  2  0  0  0  0
 21 43  1  0  0  0  0
M  END
> <s_m_source_file>
AV-unprocessed.smi

> <i_m_source_file_index>
1474

> <i_lp_mmshare_version>
43012

> <i_f3d_flags>
0

> <s_epik_input>
W0NIM11PW0NIMl1bQ0gyXU9jMVtjSF1bY0hdYyhbY0hdbjEpW0NIMl1bTkhdQyg9TylbQ0BASF0yW0NIMl1bQ0gyXUMoPU8pW05IXVtDSDJdMg==

> <s_epik_cmdline>
J2VwaWtfcHl0aG9uJywgJy1waCcsICc3LjAnLCAnLXRuJywgJzgnLCAnLW1hJywgJzIwMCcsICctbWV0YWxfYmluZGluZycsICctaW1hZScsICc8aW5maWxlLm1hZT4nLCAnLW9tYWUnLCAnPG91dGZpbGUubWFlPic=

> <r_lp_tautomer_probability>
1

> <r_epik_Ionization_Penalty>
6.19599e-05

> <r_epik_Ionization_Penalty_Charging>
0

> <r_epik_Ionization_Penalty_Neutral>
6.19599e-05

> <r_epik_State_Penalty>
-0

> <r_epik_Charging_Adjusted_Penalty>
0

> <i_epik_Tot_Q>
0

> <i_epik_Tot_abs_Q>
0

> <r_epik_Metal_State_Penalty>
-0

> <b_epik_Metal_Only>
0

> <s_lp_Force_Field>
OPLS_2005

> <r_lp_Energy>
8.64292

> <b_lp_Chiralities_Consistent>
1

> <s_lp_Variant>
AV-unprocessed.smi:1474-2

> <Gold.Version>
5.8.1

> <Gold.Id.Protein>
6NUR|6NUR_protein|mol2

> <Gold.PLP.Fitness>
47.0751

> <Gold.PLP.PLP>
-38.8026

> <Gold.PLP.part.hbond>
-5.0000

> <Gold.PLP.part.metal>
0.0000

> <Gold.PLP.part.buried>
-2.0146

> <Gold.PLP.part.nonpolar>
-31.7462

> <Gold.PLP.part.repulsive>
0.2356

> <Gold.PLP.ligand.clash>
0.0000

> <Gold.PLP.ligand.torsion>
1.2773

> <Gold.PLP.Chemscore.Hbond>
3.5700

> <Gold.PLP.Chemscore.CHOScore>
0.0000

> <Gold.PLP.Chemscore.Metal>
0.0000

> <Gold.Chemscore.Hbonds>
donor molecule, donor type, donor heavy atom, donor atom, acceptor molecule, acceptor atom, score
      L1  H    11    34       P1  7948  0.85
      P1  H  6896  6909       L1    18  1.00
      P1  H  7997  8010       L1    22  0.70
      P1  H 10752 10765       L1    13  1.00

> <Gold.PLP.Chemscore.Internal.Correction>
0.1171

> <Gold.Rescore>
     Score         DG    S(hbond)    S(metal)    S(lipo)     H(rot)  DE(clash)    DE(int)     intcor
     17.04     -19.10       2.82        0.00      91.14       2.52       0.98       1.09       ----

> <Gold.Chemscore.Fitness>
17.0382

> <Gold.Chemscore.DG>
-19.1042

> <Gold.Chemscore.ZeroCoef>
-5.4800

> <Gold.Chemscore.Hbond>
2.8180

> <Gold.Chemscore.Metal>
0.0000

> <Gold.Chemscore.Lipo>
91.1401

> <Gold.Chemscore.Internal_Hbond>
0.0000

> <Gold.Chemscore.DEClash>
0.9757

> <Gold.Chemscore.DEInternal>
1.0904

> <Gold.Chemscore.Rot>
2.5201

> <Gold.Chemscore.Internal.Correction>
   9.000000E+99

> <Gold.Chemscore.Hbonds>
donor molecule, donor type, donor heavy atom, donor atom, acceptor molecule, acceptor atom, score
      L1  H    11    34       P1  7948  0.58
      P1  H  6896  6909       L1    18  0.30
      P1  H  7997  8010       L1    22  0.07
      P1  H 10752 10765       L1    13  0.85

> <Gold.Chemscore.Hbond.Weighted>
-9.4122

> <Gold.Chemscore.Metal.Weighted>
-0.0000

> <Gold.Chemscore.Lipo.Weighted>
-10.6634

> <Gold.Chemscore.Internal_Hbond.Weighted>
0.0000

> <Gold.Chemscore.DEClash.Weighted>
0.9757

> <Gold.Chemscore.DEInternal.Weighted>
1.0904

> <Gold.Chemscore.Rot.Weighted>
6.4514

> <Gold.Chemscore.Internal.Correction.Weighted>
   9.000000E+99

> <Gold.Protein.RotatedTorsions>
[ 6907 6896 6895 6894 ] final  -41.55 input  -60.11 | X-H torsion
[ 7974 7965 7964 7962 ] final -134.14 input  175.53 | X-H torsion
[ 8008 7997 7996 7995 ] final   62.77 input   59.86 | X-H torsion
[ 10167 10162 10161 10158 ] final  125.38 input  -65.29 | X-H torsion
[ 10718 10713 10712 10709 ] final  144.38 input   66.30 | X-H torsion
[ 10763 10752 10751 10750 ] final -154.06 input  -60.55 | X-H torsion
[ 11005 11000 10999 10996 ] final -116.68 input  -57.11 | X-H torsion

> <Gold.Protein.ActiveResidues>
 VAL166  LYS551  ARG553  GLY616  TRP617  ASP618  TYR619  PRO620  LYS621  CYS622 
 ASP623  PHE694  ASN695  SER759  ASP760  ASP761  ALA762  ILE779  LEU786  VAL792 
 PHE793  MET794  SER795  GLU796  ALA797  LYS798  CYS799  TRP800  GLU811  SER814 

> <Gold.Protein.RotatedAtoms>
  150.9654  134.9035  159.7755 H   0  0  0  0  0  0  0  0  0  0  0  0  # atno 6907 bound_to 6896
  152.5171  134.3615  159.9296 H   0  0  0  0  0  0  0  0  0  0  0  0  # atno 6908 bound_to 6896
  151.3625  133.3843  159.2726 H   0  0  0  0  0  0  0  0  0  0  0  0  # atno 6909 bound_to 6896
  144.9129  140.6918  143.5013 H   0  0  0  0  0  0  0  0  0  0  0  0  # atno 7974 bound_to 7965
  155.6197  140.3495  155.4648 H   0  0  0  0  0  0  0  0  0  0  0  0  # atno 8008 bound_to 7997
  156.0089  140.1229  157.0497 H   0  0  0  0  0  0  0  0  0  0  0  0  # atno 8009 bound_to 7997
  154.4274  140.1085  156.5788 H   0  0  0  0  0  0  0  0  0  0  0  0  # atno 8010 bound_to 7997
  139.5688  144.6927  151.3835 H   0  0  0  0  0  0  0  0  0  0  0  0  # atno 10167 bound_to 10162
  157.3579  131.0960  151.0942 H   0  0  0  0  0  0  0  0  0  0  0  0  # atno 10718 bound_to 10713
  154.7885  135.3198  154.7831 H   0  0  0  0  0  0  0  0  0  0  0  0  # atno 10763 bound_to 10752
  153.8526  135.6861  153.4795 H   0  0  0  0  0  0  0  0  0  0  0  0  # atno 10764 bound_to 10752
  153.1546  135.4685  154.9625 H   0  0  0  0  0  0  0  0  0  0  0  0  # atno 10765 bound_to 10752
  141.0406  133.9842  157.3001 H   0  0  0  0  0  0  0  0  0  0  0  0  # atno 11005 bound_to 11000
  145.3423  139.1729  143.4479 LP  0  0  0  0  0  0  0  0  0  0  0  0  # atno 17320 bound_to 7965
  146.3168  140.3466  142.8652 LP  0  0  0  0  0  0  0  0  0  0  0  0  # atno 17321 bound_to 7965
  140.6973  143.7719  150.7346 LP  0  0  0  0  0  0  0  0  0  0  0  0  # atno 17342 bound_to 10162
  140.1219  143.4604  152.2308 LP  0  0  0  0  0  0  0  0  0  0  0  0  # atno 17343 bound_to 10162
  157.2093  130.6430  149.5768 LP  0  0  0  0  0  0  0  0  0  0  0  0  # atno 17370 bound_to 10713
  155.9732  130.4665  150.6292 LP  0  0  0  0  0  0  0  0  0  0  0  0  # atno 17371 bound_to 10713
  139.9273  135.0201  156.8278 LP  0  0  0  0  0  0  0  0  0  0  0  0  # atno 17394 bound_to 11000
  140.6242  133.9966  155.7632 LP  0  0  0  0  0  0  0  0  0  0  0  0  # atno 17395 bound_to 11000

$$$$
