AV-unprocessed.smi:2237|AV-procd|sdf|9053|dock5
  -GOLD-   2272012263D 1   1.00000     0.00000
 Structure written by MMmdl.
 54 56  0  0  0  0  0  0  0  0  2 V2000
  153.2478  141.7273  161.2114 C   0  0  0  0  0  0  0  0  0  0  0  0
  152.3861  142.7735  160.5365 C   0  0  0  0  0  0  0  0  0  0  0  0
  152.1693  144.0304  161.1344 C   0  0  0  0  0  0  0  0  0  0  0  0
  151.3614  144.9578  160.4525 C   0  0  0  0  0  0  0  0  0  0  0  0
  150.8079  144.5933  159.2098 C   0  0  0  0  0  0  0  0  0  0  0  0
  151.0705  143.3092  158.6820 C   0  0  0  0  0  0  0  0  0  0  0  0
  150.4729  143.0402  157.4217 N   0  0  0  0  0  0  0  0  0  0  0  0
  150.3619  141.8562  156.7938 C   0  0  0  0  0  0  0  0  0  0  0  0
  150.7131  140.7700  157.2556 O   0  0  0  0  0  0  0  0  0  0  0  0
  149.7965  141.9957  155.5854 N   0  0  0  0  0  0  0  0  0  0  0  0
  149.5099  140.9014  154.6619 C   0  0  2  0  0  0  0  0  0  0  0  0
  148.1964  140.2057  155.0596 C   0  0  0  0  0  0  0  0  0  0  0  0
  147.9459  138.9691  154.1762 C   0  0  0  0  0  0  0  0  0  0  0  0
  149.0687  137.9919  154.2656 N   0  3  2  0  0  0  0  0  0  0  0  0
  149.1790  137.2455  155.5647 C   0  0  0  0  0  0  0  0  0  0  0  0
  150.0825  135.9962  155.4337 C   0  0  0  0  0  0  0  0  0  0  0  0
  150.1152  135.1645  156.7273 C   0  0  0  0  0  0  0  0  0  0  0  0
  148.7655  134.7348  157.0809 N   0  0  0  0  0  0  0  0  0  0  0  0
  148.8226  133.8894  158.2651 C   0  0  0  0  0  0  0  0  0  0  0  0
  147.9414  135.9059  157.3643 C   0  0  0  0  0  0  0  0  0  0  0  0
  147.8058  136.7744  156.1025 C   0  0  0  0  0  0  0  0  0  0  0  0
  150.3281  138.6466  153.8068 C   0  0  0  0  0  0  0  0  0  0  0  0
  150.6741  139.8916  154.6481 C   0  0  0  0  0  0  0  0  0  0  0  0
  151.8513  142.4217  159.3473 N   0  0  0  0  0  0  0  0  0  0  0  0
  153.7873  142.1475  162.0607 H   0  0  0  0  0  0  0  0  0  0  0  0
  153.9801  141.3259  160.5101 H   0  0  0  0  0  0  0  0  0  0  0  0
  152.6296  140.9046  161.5712 H   0  0  0  0  0  0  0  0  0  0  0  0
  152.6096  144.2800  162.0889 H   0  0  0  0  0  0  0  0  0  0  0  0
  151.1690  145.9332  160.8743 H   0  0  0  0  0  0  0  0  0  0  0  0
  150.1862  145.2952  158.6731 H   0  0  0  0  0  0  0  0  0  0  0  0
  150.0934  143.8430  156.9420 H   0  0  0  0  0  0  0  0  0  0  0  0
  149.5382  142.9250  155.2868 H   0  0  0  0  0  0  0  0  0  0  0  0
  149.3808  141.2966  153.6523 H   0  0  0  0  0  0  0  0  0  0  0  0
  148.2224  139.9151  156.1104 H   0  0  0  0  0  0  0  0  0  0  0  0
  147.3641  140.9030  154.9567 H   0  0  0  0  0  0  0  0  0  0  0  0
  146.9834  138.5131  154.3991 H   0  0  0  0  0  0  0  0  0  0  0  0
  147.8591  139.2905  153.1372 H   0  0  0  0  0  0  0  0  0  0  0  0
  149.6161  137.9042  156.3152 H   0  0  0  0  0  0  0  0  0  0  0  0
  149.7374  135.3716  154.6083 H   0  0  0  0  0  0  0  0  0  0  0  0
  151.1095  136.2754  155.2051 H   0  0  0  0  0  0  0  0  0  0  0  0
  150.7479  134.2884  156.5780 H   0  0  0  0  0  0  0  0  0  0  0  0
  150.5561  135.7425  157.5413 H   0  0  0  0  0  0  0  0  0  0  0  0
  147.8240  133.5469  158.5385 H   0  0  0  0  0  0  0  0  0  0  0  0
  149.2465  134.4228  159.1174 H   0  0  0  0  0  0  0  0  0  0  0  0
  149.4343  133.0065  158.0758 H   0  0  0  0  0  0  0  0  0  0  0  0
  146.9514  135.5838  157.6901 H   0  0  0  0  0  0  0  0  0  0  0  0
  148.3737  136.4863  158.1813 H   0  0  0  0  0  0  0  0  0  0  0  0
  147.1795  137.6254  156.3677 H   0  0  0  0  0  0  0  0  0  0  0  0
  147.2724  136.2161  155.3317 H   0  0  0  0  0  0  0  0  0  0  0  0
  151.1666  137.9540  153.7831 H   0  0  0  0  0  0  0  0  0  0  0  0
  150.1913  138.9514  152.7683 H   0  0  0  0  0  0  0  0  0  0  0  0
  151.5686  140.3666  154.2430 H   0  0  0  0  0  0  0  0  0  0  0  0
  150.9275  139.5948  155.6663 H   0  0  0  0  0  0  0  0  0  0  0  0
  148.8613  137.2818  153.5775 H   0  0  0  0  0  0  0  0  0  0  0  0
  1  2  1  0  0  0  0
  1 25  1  0  0  0  0
  1 26  1  0  0  0  0
  1 27  1  0  0  0  0
  2 24  1  0  0  0  0
  2  3  2  0  0  0  0
  3  4  1  0  0  0  0
  3 28  1  0  0  0  0
  4  5  2  0  0  0  0
  4 29  1  0  0  0  0
  5  6  1  0  0  0  0
  5 30  1  0  0  0  0
  6  7  1  0  0  0  0
  6 24  2  0  0  0  0
  7  8  1  0  0  0  0
  7 31  1  0  0  0  0
  8  9  2  0  0  0  0
  8 10  1  0  0  0  0
 10 11  1  0  0  0  0
 10 32  1  0  0  0  0
 11 23  1  0  0  0  0
 11 12  1  0  0  0  0
 11 33  1  0  0  0  0
 12 13  1  0  0  0  0
 12 34  1  0  0  0  0
 12 35  1  0  0  0  0
 13 14  1  0  0  0  0
 13 36  1  0  0  0  0
 13 37  1  0  0  0  0
 14 15  1  0  0  0  0
 14 22  1  0  0  0  0
 14 54  1  0  0  0  0
 15 21  1  0  0  0  0
 15 16  1  0  0  0  0
 15 38  1  0  0  0  0
 16 17  1  0  0  0  0
 16 39  1  0  0  0  0
 16 40  1  0  0  0  0
 17 18  1  0  0  0  0
 17 41  1  0  0  0  0
 17 42  1  0  0  0  0
 18 19  1  0  0  0  0
 18 20  1  0  0  0  0
 19 43  1  0  0  0  0
 19 44  1  0  0  0  0
 19 45  1  0  0  0  0
 20 21  1  0  0  0  0
 20 46  1  0  0  0  0
 20 47  1  0  0  0  0
 21 48  1  0  0  0  0
 21 49  1  0  0  0  0
 22 23  1  0  0  0  0
 22 50  1  0  0  0  0
 22 51  1  0  0  0  0
 23 52  1  0  0  0  0
 23 53  1  0  0  0  0
M  CHG  1  14   1
M  END
> <s_m_source_file>
AV-unprocessed.smi

> <i_m_source_file_index>
2237

> <i_lp_mmshare_version>
43012

> <i_f3d_flags>
0

> <s_epik_input>
W0NIM11jMVtjSF1bY0hdW2NIXWMobjEpW05IXUMoPU8pW05IXVtDSF0yW0NIMl1bQ0gyXU4oW0NIMl1bQ0gyXTIpW0NIXTNbQ0gyXVtDSDJdTihbQ0gzXSlbQ0gyXVtDSDJdMw==

> <s_epik_cmdline>
J2VwaWtfcHl0aG9uJywgJy1waCcsICc3LjAnLCAnLXRuJywgJzgnLCAnLW1hJywgJzIwMCcsICctbWV0YWxfYmluZGluZycsICctaW1hZScsICc8aW5maWxlLm1hZT4nLCAnLW9tYWUnLCAnPG91dGZpbGUubWFlPic=

> <r_epik_Ionization_Penalty>
1.37251

> <r_epik_Ionization_Penalty_Charging>
0.00081195

> <r_epik_Ionization_Penalty_Neutral>
1.3717

> <r_epik_State_Penalty>
1.55149

> <r_epik_Charging_Adjusted_Penalty>
1.5523

> <i_epik_Tot_Q>
1

> <i_epik_Tot_abs_Q>
1

> <r_epik_Metal_State_Penalty>
1.55149

> <b_epik_Metal_Only>
0

> <s_lp_Force_Field>
OPLS_2005

> <r_lp_Energy>
34.5276

> <b_lp_Chiralities_Consistent>
1

> <s_lp_Variant>
AV-unprocessed.smi:2237-8

> <Gold.Version>
5.8.1

> <Gold.Id.Protein>
6NUR|6NUR_protein|mol2

> <Gold.PLP.Fitness>
49.4989

> <Gold.PLP.PLP>
-38.5604

> <Gold.PLP.part.hbond>
-3.0000

> <Gold.PLP.part.metal>
0.0000

> <Gold.PLP.part.buried>
-1.7745

> <Gold.PLP.part.nonpolar>
-33.8587

> <Gold.PLP.part.repulsive>
0.1958

> <Gold.PLP.ligand.clash>
0.0000

> <Gold.PLP.ligand.torsion>
0.4933

> <Gold.PLP.Chemscore.Hbond>
3.9600

> <Gold.PLP.Chemscore.CHOScore>
0.0000

> <Gold.PLP.Chemscore.Metal>
0.0000

> <Gold.Chemscore.Hbonds>
donor molecule, donor type, donor heavy atom, donor atom, acceptor molecule, acceptor atom, score
      L1  H     7    31       P1  8028  1.00
      L1  H    10    32       P1  8028  1.00
      L1  H    14    54       P1  7948  2.00

> <Gold.PLP.Chemscore.Internal.Correction>
0.0450

> <Gold.Rescore>
     Score         DG    S(hbond)    S(metal)    S(lipo)     H(rot)  DE(clash)    DE(int)     intcor
     19.04     -23.91       2.87        0.00     102.01       1.21       1.62       3.25       ----

> <Gold.Chemscore.Fitness>
19.0429

> <Gold.Chemscore.DG>
-23.9136

> <Gold.Chemscore.ZeroCoef>
-5.4800

> <Gold.Chemscore.Hbond>
2.8741

> <Gold.Chemscore.Metal>
0.0000

> <Gold.Chemscore.Lipo>
102.0072

> <Gold.Chemscore.Internal_Hbond>
0.0000

> <Gold.Chemscore.DEClash>
1.6195

> <Gold.Chemscore.DEInternal>
3.2512

> <Gold.Chemscore.Rot>
1.2113

> <Gold.Chemscore.Internal.Correction>
   9.000000E+99

> <Gold.Chemscore.Hbonds>
donor molecule, donor type, donor heavy atom, donor atom, acceptor molecule, acceptor atom, score
      L1  H     7    31       P1  8028  0.95
      L1  H    10    32       P1  8028  0.95
      L1  H    14    54       P1  7948  0.95

> <Gold.Chemscore.Hbond.Weighted>
-9.5996

> <Gold.Chemscore.Metal.Weighted>
-0.0000

> <Gold.Chemscore.Lipo.Weighted>
-11.9348

> <Gold.Chemscore.Internal_Hbond.Weighted>
0.0000

> <Gold.Chemscore.DEClash.Weighted>
1.6195

> <Gold.Chemscore.DEInternal.Weighted>
3.2512

> <Gold.Chemscore.Rot.Weighted>
3.1009

> <Gold.Chemscore.Internal.Correction.Weighted>
   9.000000E+99

> <Gold.Protein.RotatedTorsions>
[ 6907 6896 6895 6894 ] final -124.49 input  -60.11 | X-H torsion
[ 7974 7965 7964 7962 ] final  -72.94 input  175.53 | X-H torsion
[ 8008 7997 7996 7995 ] final  -89.99 input   59.86 | X-H torsion
[ 10167 10162 10161 10158 ] final   33.13 input  -65.29 | X-H torsion
[ 10718 10713 10712 10709 ] final   71.11 input   66.30 | X-H torsion
[ 10763 10752 10751 10750 ] final   55.07 input  -60.55 | X-H torsion
[ 11005 11000 10999 10996 ] final  -21.59 input  -57.11 | X-H torsion

> <Gold.Protein.ActiveResidues>
 VAL166  LYS551  ARG553  GLY616  TRP617  ASP618  TYR619  PRO620  LYS621  CYS622 
 ASP623  PHE694  ASN695  SER759  ASP760  ASP761  ALA762  ILE779  LEU786  VAL792 
 PHE793  MET794  SER795  GLU796  ALA797  LYS798  CYS799  TRP800  GLU811  SER814 

> <Gold.Protein.RotatedAtoms>
  150.8773  133.7421  159.2942 H   0  0  0  0  0  0  0  0  0  0  0  0  # atno 6907 bound_to 6896
  151.5014  135.1060  159.9839 H   0  0  0  0  0  0  0  0  0  0  0  0  # atno 6908 bound_to 6896
  152.4736  133.8041  159.7024 H   0  0  0  0  0  0  0  0  0  0  0  0  # atno 6909 bound_to 6896
  145.6586  140.9260  143.0946 H   0  0  0  0  0  0  0  0  0  0  0  0  # atno 7974 bound_to 7965
  154.6932  140.0535  157.0384 H   0  0  0  0  0  0  0  0  0  0  0  0  # atno 8008 bound_to 7997
  155.0788  140.3207  155.4589 H   0  0  0  0  0  0  0  0  0  0  0  0  # atno 8009 bound_to 7997
  156.2735  140.2068  156.5915 H   0  0  0  0  0  0  0  0  0  0  0  0  # atno 8010 bound_to 7997
  140.4435  144.1152  150.6178 H   0  0  0  0  0  0  0  0  0  0  0  0  # atno 10167 bound_to 10162
  157.6435  130.9511  150.0743 H   0  0  0  0  0  0  0  0  0  0  0  0  # atno 10718 bound_to 10713
  152.9812  135.5723  154.5006 H   0  0  0  0  0  0  0  0  0  0  0  0  # atno 10763 bound_to 10752
  154.4526  135.2779  155.1772 H   0  0  0  0  0  0  0  0  0  0  0  0  # atno 10764 bound_to 10752
  154.3393  135.6233  153.5642 H   0  0  0  0  0  0  0  0  0  0  0  0  # atno 10765 bound_to 10752
  140.8576  133.7811  156.0037 H   0  0  0  0  0  0  0  0  0  0  0  0  # atno 11005 bound_to 11000
  144.7097  139.8419  143.7418 LP  0  0  0  0  0  0  0  0  0  0  0  0  # atno 17320 bound_to 7965
  146.1144  139.4153  143.0267 LP  0  0  0  0  0  0  0  0  0  0  0  0  # atno 17321 bound_to 7965
  140.4290  143.2576  151.9619 LP  0  0  0  0  0  0  0  0  0  0  0  0  # atno 17342 bound_to 10162
  139.4791  144.5761  151.8009 LP  0  0  0  0  0  0  0  0  0  0  0  0  # atno 17343 bound_to 10162
  156.1738  130.3647  149.9128 LP  0  0  0  0  0  0  0  0  0  0  0  0  # atno 17370 bound_to 10713
  156.7097  130.8965  151.3608 LP  0  0  0  0  0  0  0  0  0  0  0  0  # atno 17371 bound_to 10713
  140.8719  134.2716  157.5186 LP  0  0  0  0  0  0  0  0  0  0  0  0  # atno 17394 bound_to 11000
  139.8706  134.9572  156.4260 LP  0  0  0  0  0  0  0  0  0  0  0  0  # atno 17395 bound_to 11000

$$$$
