AV-unprocessed.smi:2958|AV-procd|sdf|11308|dock4
  -GOLD-   2272016203D 1   1.00000     0.00000
 Structure written by MMmdl.
 40 42  0  0  0  0  0  0  0  0  2 V2000
  152.7759  142.1828  161.9347 C   0  0  0  0  0  0  0  0  0  0  0  0
  152.0584  142.9156  160.8199 C   0  0  0  0  0  0  0  0  0  0  0  0
  151.8599  144.3088  160.8951 C   0  0  0  0  0  0  0  0  0  0  0  0
  151.1925  144.9800  159.8544 C   0  0  0  0  0  0  0  0  0  0  0  0
  150.7239  144.2608  158.7386 C   0  0  0  0  0  0  0  0  0  0  0  0
  150.9152  142.8671  158.6465 C   0  0  0  0  0  0  0  0  0  0  0  0
  150.4270  142.2429  157.5186 O   0  0  0  0  0  0  0  0  0  0  0  0
  150.5875  140.8365  157.4062 C   0  0  0  0  0  0  0  0  0  0  0  0
  151.2804  140.5312  156.0731 C   0  0  0  0  0  0  0  0  0  0  0  0
  150.3711  139.8801  155.1216 N   0  0  0  0  0  0  0  0  0  0  0  0
  150.5030  138.7078  154.4373 C   0  0  0  0  0  0  0  0  0  0  0  0
  151.6577  137.7634  154.4937 C   0  0  0  0  0  0  0  0  0  0  0  0
  151.2486  136.4139  154.4701 O   0  0  0  0  0  0  0  0  0  0  0  0
  149.3797  138.5541  153.6806 N   0  3  0  0  0  0  0  0  0  0  0  0
  148.5195  139.6336  153.8876 C   0  0  0  0  0  0  0  0  0  0  0  0
  147.2692  139.9200  153.3479 C   0  0  0  0  0  0  0  0  0  0  0  0
  146.6531  141.1138  153.7776 C   0  0  0  0  0  0  0  0  0  0  0  0
  147.2779  141.9691  154.7086 C   0  0  0  0  0  0  0  0  0  0  0  0
  148.5460  141.6686  155.2483 C   0  0  0  0  0  0  0  0  0  0  0  0
  149.1489  140.4879  154.8160 C   0  0  0  0  0  0  0  0  0  0  0  0
  151.5880  142.1982  159.7007 C   0  0  0  0  0  0  0  0  0  0  0  0
  153.0952  142.8677  162.7207 H   0  0  0  0  0  0  0  0  0  0  0  0
  153.6589  141.6756  161.5453 H   0  0  0  0  0  0  0  0  0  0  0  0
  152.1185  141.4360  162.3808 H   0  0  0  0  0  0  0  0  0  0  0  0
  152.2174  144.8672  161.7479 H   0  0  0  0  0  0  0  0  0  0  0  0
  151.0399  146.0476  159.9109 H   0  0  0  0  0  0  0  0  0  0  0  0
  150.2129  144.7847  157.9441 H   0  0  0  0  0  0  0  0  0  0  0  0
  151.1958  140.4580  158.2295 H   0  0  0  0  0  0  0  0  0  0  0  0
  149.6151  140.3428  157.4436 H   0  0  0  0  0  0  0  0  0  0  0  0
  151.6816  141.4377  155.6192 H   0  0  0  0  0  0  0  0  0  0  0  0
  152.1284  139.8644  156.2337 H   0  0  0  0  0  0  0  0  0  0  0  0
  152.3223  137.9520  153.6501 H   0  0  0  0  0  0  0  0  0  0  0  0
  152.2324  137.9450  155.4022 H   0  0  0  0  0  0  0  0  0  0  0  0
  151.0885  136.1634  153.5728 H   0  0  0  0  0  0  0  0  0  0  0  0
  146.7879  139.2658  152.6356 H   0  0  0  0  0  0  0  0  0  0  0  0
  145.6813  141.3784  153.3861 H   0  0  0  0  0  0  0  0  0  0  0  0
  146.7746  142.8745  155.0151 H   0  0  0  0  0  0  0  0  0  0  0  0
  149.0159  142.3292  155.9618 H   0  0  0  0  0  0  0  0  0  0  0  0
  151.7561  141.1322  159.6731 H   0  0  0  0  0  0  0  0  0  0  0  0
  149.2173  137.7665  153.0664 H   0  0  0  0  0  0  0  0  0  0  0  0
  1  2  1  0  0  0  0
  1 22  1  0  0  0  0
  1 23  1  0  0  0  0
  1 24  1  0  0  0  0
  2 21  1  0  0  0  0
  2  3  2  0  0  0  0
  3  4  1  0  0  0  0
  3 25  1  0  0  0  0
  4  5  2  0  0  0  0
  4 26  1  0  0  0  0
  5  6  1  0  0  0  0
  5 27  1  0  0  0  0
  6  7  1  0  0  0  0
  6 21  2  0  0  0  0
  7  8  1  0  0  0  0
  8  9  1  0  0  0  0
  8 28  1  0  0  0  0
  8 29  1  0  0  0  0
  9 10  1  0  0  0  0
  9 30  1  0  0  0  0
  9 31  1  0  0  0  0
 10 20  1  0  0  0  0
 10 11  1  0  0  0  0
 11 12  1  0  0  0  0
 11 14  2  0  0  0  0
 12 13  1  0  0  0  0
 12 32  1  0  0  0  0
 12 33  1  0  0  0  0
 13 34  1  0  0  0  0
 14 15  1  0  0  0  0
 14 40  1  0  0  0  0
 15 20  2  0  0  0  0
 15 16  1  0  0  0  0
 16 17  2  0  0  0  0
 16 35  1  0  0  0  0
 17 18  1  0  0  0  0
 17 36  1  0  0  0  0
 18 19  2  0  0  0  0
 18 37  1  0  0  0  0
 19 20  1  0  0  0  0
 19 38  1  0  0  0  0
 21 39  1  0  0  0  0
M  CHG  1  14   1
M  END
> <s_m_source_file>
AV-unprocessed.smi

> <i_m_source_file_index>
2958

> <i_lp_mmshare_version>
43012

> <i_f3d_flags>
0

> <s_epik_input>
W0NIM11jMVtjSF1bY0hdW2NIXWMoW2NIXTEpT1tDSDJdW0NIMl1uKGMobjIpW0NIMl1bT0hdKWMoYzIzKVtjSF1bY0hdW2NIXVtjSF0z

> <s_epik_cmdline>
J2VwaWtfcHl0aG9uJywgJy1waCcsICc3LjAnLCAnLXRuJywgJzgnLCAnLW1hJywgJzIwMCcsICctbWV0YWxfYmluZGluZycsICctaW1hZScsICc8aW5maWxlLm1hZT4nLCAnLW9tYWUnLCAnPG91dGZpbGUubWFlPic=

> <r_lp_tautomer_probability>
1

> <r_epik_Ionization_Penalty>
1.51131

> <r_epik_Ionization_Penalty_Charging>
1.51045

> <r_epik_Ionization_Penalty_Neutral>
0.000855784

> <r_epik_State_Penalty>
1.60143

> <r_epik_Charging_Adjusted_Penalty>
3.11188

> <i_epik_Tot_Q>
1

> <i_epik_Tot_abs_Q>
1

> <r_epik_Metal_State_Penalty>
5.65313

> <b_epik_Metal_Only>
0

> <s_lp_Force_Field>
OPLS_2005

> <r_lp_Energy>
18.3571

> <b_lp_Chiralities_Consistent>
1

> <s_lp_Variant>
AV-unprocessed.smi:2958-2

> <Gold.Version>
5.8.1

> <Gold.Id.Protein>
6NUR|6NUR_protein|mol2

> <Gold.PLP.Fitness>
62.8440

> <Gold.PLP.PLP>
-52.8843

> <Gold.PLP.part.hbond>
-4.0000

> <Gold.PLP.part.metal>
0.0000

> <Gold.PLP.part.buried>
-2.5504

> <Gold.PLP.part.nonpolar>
-47.5777

> <Gold.PLP.part.repulsive>
0.1754

> <Gold.PLP.ligand.clash>
0.0000

> <Gold.PLP.ligand.torsion>
1.0430

> <Gold.PLP.Chemscore.Hbond>
4.0000

> <Gold.PLP.Chemscore.CHOScore>
0.0000

> <Gold.PLP.Chemscore.Metal>
0.0000

> <Gold.Chemscore.Hbonds>
donor molecule, donor type, donor heavy atom, donor atom, acceptor molecule, acceptor atom, score
      L1  H    13    34       P1  7949  0.86
      L1  H    14    40       P1  7948  2.00
      P1  H 10752 10765       L1    13  0.86

> <Gold.PLP.Chemscore.Internal.Correction>
0.0458

> <Gold.Rescore>
     Score         DG    S(hbond)    S(metal)    S(lipo)     H(rot)  DE(clash)    DE(int)     intcor
     21.18     -22.85       2.34        0.00     130.43       2.23       0.33       1.34       ----

> <Gold.Chemscore.Fitness>
21.1841

> <Gold.Chemscore.DG>
-22.8531

> <Gold.Chemscore.ZeroCoef>
-5.4800

> <Gold.Chemscore.Hbond>
2.3386

> <Gold.Chemscore.Metal>
0.0000

> <Gold.Chemscore.Lipo>
130.4297

> <Gold.Chemscore.Internal_Hbond>
0.0000

> <Gold.Chemscore.DEClash>
0.3283

> <Gold.Chemscore.DEInternal>
1.3408

> <Gold.Chemscore.Rot>
2.2258

> <Gold.Chemscore.Internal.Correction>
   9.000000E+99

> <Gold.Chemscore.Hbonds>
donor molecule, donor type, donor heavy atom, donor atom, acceptor molecule, acceptor atom, score
      L1  H    13    34       P1  7949  0.25
      L1  H    14    40       P1  7948  0.98
      P1  H 10752 10765       L1    13  0.04

> <Gold.Chemscore.Hbond.Weighted>
-7.8110

> <Gold.Chemscore.Metal.Weighted>
-0.0000

> <Gold.Chemscore.Lipo.Weighted>
-15.2603

> <Gold.Chemscore.Internal_Hbond.Weighted>
0.0000

> <Gold.Chemscore.DEClash.Weighted>
0.3283

> <Gold.Chemscore.DEInternal.Weighted>
1.3408

> <Gold.Chemscore.Rot.Weighted>
5.6982

> <Gold.Chemscore.Internal.Correction.Weighted>
   9.000000E+99

> <Gold.Protein.RotatedTorsions>
[ 6907 6896 6895 6894 ] final   67.93 input  -60.11 | X-H torsion
[ 7974 7965 7964 7962 ] final  -52.63 input  175.53 | X-H torsion
[ 8008 7997 7996 7995 ] final  135.55 input   59.86 | X-H torsion
[ 10167 10162 10161 10158 ] final   -4.99 input  -65.29 | X-H torsion
[ 10718 10713 10712 10709 ] final -178.83 input   66.30 | X-H torsion
[ 10763 10752 10751 10750 ] final -173.70 input  -60.55 | X-H torsion
[ 11005 11000 10999 10996 ] final   23.89 input  -57.11 | X-H torsion

> <Gold.Protein.ActiveResidues>
 VAL166  LYS551  ARG553  GLY616  TRP617  ASP618  TYR619  PRO620  LYS621  CYS622 
 ASP623  PHE694  ASN695  SER759  ASP760  ASP761  ALA762  ILE779  LEU786  VAL792 
 PHE793  MET794  SER795  GLU796  ALA797  LYS798  CYS799  TRP800  GLU811  SER814 

> <Gold.Protein.RotatedAtoms>
  152.4586  134.5236  159.9789 H   0  0  0  0  0  0  0  0  0  0  0  0  # atno 6907 bound_to 6896
  151.5290  133.3446  159.2922 H   0  0  0  0  0  0  0  0  0  0  0  0  # atno 6908 bound_to 6896
  150.8540  134.7903  159.7093 H   0  0  0  0  0  0  0  0  0  0  0  0  # atno 6909 bound_to 6896
  145.9058  140.7956  142.9720 H   0  0  0  0  0  0  0  0  0  0  0  0  # atno 7974 bound_to 7965
  156.3003  140.2468  156.3599 H   0  0  0  0  0  0  0  0  0  0  0  0  # atno 8008 bound_to 7997
  154.8886  140.0410  157.1844 H   0  0  0  0  0  0  0  0  0  0  0  0  # atno 8009 bound_to 7997
  154.8621  140.2922  155.5537 H   0  0  0  0  0  0  0  0  0  0  0  0  # atno 8010 bound_to 7997
  140.6947  143.6360  150.8479 H   0  0  0  0  0  0  0  0  0  0  0  0  # atno 10167 bound_to 10162
  156.8501  130.9716  151.3093 H   0  0  0  0  0  0  0  0  0  0  0  0  # atno 10718 bound_to 10713
  154.6049  135.2858  155.0496 H   0  0  0  0  0  0  0  0  0  0  0  0  # atno 10763 bound_to 10752
  154.1747  135.6466  153.5022 H   0  0  0  0  0  0  0  0  0  0  0  0  # atno 10764 bound_to 10752
  153.0171  135.5409  154.6781 H   0  0  0  0  0  0  0  0  0  0  0  0  # atno 10765 bound_to 10752
  140.3646  134.2088  155.7670 H   0  0  0  0  0  0  0  0  0  0  0  0  # atno 11005 bound_to 11000
  144.6739  140.1748  143.7411 LP  0  0  0  0  0  0  0  0  0  0  0  0  # atno 17320 bound_to 7965
  145.8734  139.2284  143.1648 LP  0  0  0  0  0  0  0  0  0  0  0  0  # atno 17321 bound_to 7965
  140.0077  143.5676  152.2851 LP  0  0  0  0  0  0  0  0  0  0  0  0  # atno 17342 bound_to 10162
  139.6389  144.7653  151.2381 LP  0  0  0  0  0  0  0  0  0  0  0  0  # atno 17343 bound_to 10162
  157.6308  130.8728  149.9270 LP  0  0  0  0  0  0  0  0  0  0  0  0  # atno 17370 bound_to 10713
  156.0833  130.3671  150.0538 LP  0  0  0  0  0  0  0  0  0  0  0  0  # atno 17371 bound_to 10713
  141.1973  133.8061  157.0632 LP  0  0  0  0  0  0  0  0  0  0  0  0  # atno 17394 bound_to 11000
  140.0599  134.9760  157.1287 LP  0  0  0  0  0  0  0  0  0  0  0  0  # atno 17395 bound_to 11000

$$$$
