AV-unprocessed.smi:2569|AV-procd|sdf|10103|dock8
  -GOLD-   2272014123D 1   1.00000     0.00000
 Structure written by MMmdl.
 39 41  0  0  0  0  0  0  0  0  1 V2000
  151.3419  145.1062  159.4447 C   0  0  0  0  0  0  0  0  0  0  0  0
  151.9270  143.7195  159.6468 C   0  0  0  0  0  0  0  0  0  0  0  0
  152.6967  143.4601  160.8034 C   0  0  0  0  0  0  0  0  0  0  0  0
  153.2588  142.1843  161.0280 C   0  0  0  0  0  0  0  0  0  0  0  0
  154.0313  141.7142  162.0762 N   0  0  0  0  0  0  0  0  0  0  0  0
  154.2419  140.4534  161.7096 C   0  0  0  0  0  0  0  0  0  0  0  0
  153.6951  140.0499  160.5468 N   0  0  0  0  0  0  0  0  0  0  0  0
  153.7915  138.7300  159.9495 C   0  0  0  0  0  0  0  0  0  0  0  0
  153.5430  137.5991  160.9702 C   0  0  1  0  0  0  0  0  0  0  0  0
  153.4631  136.3543  160.3041 O   0  0  0  0  0  0  0  0  0  0  0  0
  154.6358  137.4895  162.0514 C   0  0  0  0  0  0  0  0  0  0  0  0
  154.4537  136.3391  162.9209 N   0  0  0  0  0  0  0  0  0  0  0  0
  154.3745  135.0840  162.4131 N   0  0  0  0  0  0  0  0  0  0  0  0
  154.2226  134.2797  163.4257 N   0  0  0  0  0  0  0  0  0  0  0  0
  154.1937  134.9750  164.6202 N   0  0  0  0  0  0  0  0  0  0  0  0
  154.3373  136.2411  164.2516 C   0  0  0  0  0  0  0  0  0  0  0  0
  154.3743  137.4123  165.1772 C   0  0  0  0  0  0  0  0  0  0  0  0
  153.0303  141.1679  160.0549 C   0  0  0  0  0  0  0  0  0  0  0  0
  152.2664  141.4136  158.9005 C   0  0  0  0  0  0  0  0  0  0  0  0
  151.7094  142.6929  158.6930 C   0  0  0  0  0  0  0  0  0  0  0  0
  150.8819  142.9466  157.4453 C   0  0  0  0  0  0  0  0  0  0  0  0
  151.5970  145.7709  160.2705 H   0  0  0  0  0  0  0  0  0  0  0  0
  150.2548  145.0569  159.3793 H   0  0  0  0  0  0  0  0  0  0  0  0
  151.7250  145.5517  158.5264 H   0  0  0  0  0  0  0  0  0  0  0  0
  152.8618  144.2412  161.5308 H   0  0  0  0  0  0  0  0  0  0  0  0
  154.8274  139.7829  162.3218 H   0  0  0  0  0  0  0  0  0  0  0  0
  153.0788  138.6658  159.1263 H   0  0  0  0  0  0  0  0  0  0  0  0
  154.7843  138.6370  159.5079 H   0  0  0  0  0  0  0  0  0  0  0  0
  152.5810  137.7686  161.4548 H   0  0  0  0  0  0  0  0  0  0  0  0
  154.1512  135.7942  160.6301 H   0  0  0  0  0  0  0  0  0  0  0  0
  155.6212  137.4175  161.5897 H   0  0  0  0  0  0  0  0  0  0  0  0
  154.6491  138.3919  162.6651 H   0  0  0  0  0  0  0  0  0  0  0  0
  154.0465  137.1178  166.1747 H   0  0  0  0  0  0  0  0  0  0  0  0
  153.7158  138.2030  164.8174 H   0  0  0  0  0  0  0  0  0  0  0  0
  155.3898  137.8020  165.2469 H   0  0  0  0  0  0  0  0  0  0  0  0
  152.1081  140.6221  158.1828 H   0  0  0  0  0  0  0  0  0  0  0  0
  150.8235  142.0560  156.8188 H   0  0  0  0  0  0  0  0  0  0  0  0
  151.3227  143.7463  156.8498 H   0  0  0  0  0  0  0  0  0  0  0  0
  149.8648  143.2335  157.7136 H   0  0  0  0  0  0  0  0  0  0  0  0
  1  2  1  0  0  0  0
  1 22  1  0  0  0  0
  1 23  1  0  0  0  0
  1 24  1  0  0  0  0
  2 20  1  0  0  0  0
  2  3  2  0  0  0  0
  3  4  1  0  0  0  0
  3 25  1  0  0  0  0
  4 18  2  0  0  0  0
  4  5  1  0  0  0  0
  5  6  2  0  0  0  0
  6  7  1  0  0  0  0
  6 26  1  0  0  0  0
  7  8  1  0  0  0  0
  7 18  1  0  0  0  0
  8  9  1  0  0  0  0
  8 27  1  0  0  0  0
  8 28  1  0  0  0  0
  9 10  1  0  0  0  0
  9 11  1  0  0  0  0
  9 29  1  0  0  0  0
 10 30  1  0  0  0  0
 11 12  1  0  0  0  0
 11 31  1  0  0  0  0
 11 32  1  0  0  0  0
 12 16  1  0  0  0  0
 12 13  1  0  0  0  0
 13 14  2  0  0  0  0
 14 15  1  0  0  0  0
 15 16  2  0  0  0  0
 16 17  1  0  0  0  0
 17 33  1  0  0  0  0
 17 34  1  0  0  0  0
 17 35  1  0  0  0  0
 18 19  1  0  0  0  0
 19 20  2  0  0  0  0
 19 36  1  0  0  0  0
 20 21  1  0  0  0  0
 21 37  1  0  0  0  0
 21 38  1  0  0  0  0
 21 39  1  0  0  0  0
M  END
> <s_m_source_file>
AV-unprocessed.smi

> <i_m_source_file_index>
2569

> <i_lp_mmshare_version>
43012

> <i_f3d_flags>
0

> <s_epik_input>
W0NIM11jKFtjSF0xKWMoW0NIM10pW2NIXWMoYzEyKW4oW2NIXW4yKVtDSDJdW0NASF0oW09IXSlbQ0gyXW4zbm5uYzNbQ0gzXQ==

> <s_epik_cmdline>
J2VwaWtfcHl0aG9uJywgJy1waCcsICc3LjAnLCAnLXRuJywgJzgnLCAnLW1hJywgJzIwMCcsICctbWV0YWxfYmluZGluZycsICctaW1hZScsICc8aW5maWxlLm1hZT4nLCAnLW9tYWUnLCAnPG91dGZpbGUubWFlPic=

> <r_lp_tautomer_probability>
1

> <r_epik_Ionization_Penalty>
0.0946713

> <r_epik_Ionization_Penalty_Charging>
0

> <r_epik_Ionization_Penalty_Neutral>
0.0946713

> <r_epik_State_Penalty>
0.0848712

> <r_epik_Charging_Adjusted_Penalty>
0.0848712

> <i_epik_Tot_Q>
0

> <i_epik_Tot_abs_Q>
0

> <r_epik_Metal_State_Penalty>
0.0730911

> <b_epik_Metal_Only>
0

> <s_lp_Force_Field>
OPLS_2005

> <r_lp_Energy>
9.51249

> <b_lp_Chiralities_Consistent>
1

> <s_lp_Variant>
AV-unprocessed.smi:2569-2

> <Gold.Version>
5.8.1

> <Gold.Id.Protein>
6NUR|6NUR_protein|mol2

> <Gold.PLP.Fitness>
48.1760

> <Gold.PLP.PLP>
-45.6622

> <Gold.PLP.part.hbond>
-2.0000

> <Gold.PLP.part.metal>
0.0000

> <Gold.PLP.part.buried>
-4.6815

> <Gold.PLP.part.nonpolar>
-39.3098

> <Gold.PLP.part.repulsive>
0.1129

> <Gold.PLP.ligand.clash>
0.0000

> <Gold.PLP.ligand.torsion>
0.2455

> <Gold.PLP.Chemscore.Hbond>
1.0000

> <Gold.PLP.Chemscore.CHOScore>
0.0000

> <Gold.PLP.Chemscore.Metal>
0.0000

> <Gold.Chemscore.Hbonds>
donor molecule, donor type, donor heavy atom, donor atom, acceptor molecule, acceptor atom, score
      P1  H  6896  6909       L1    10  0.80

> <Gold.PLP.Chemscore.Internal.Correction>
0.0047

> <Gold.Rescore>
     Score         DG    S(hbond)    S(metal)    S(lipo)     H(rot)  DE(clash)    DE(int)     intcor
     10.93     -14.07       0.92        0.00     102.40       2.53       0.01       3.13       ----

> <Gold.Chemscore.Fitness>
10.9275

> <Gold.Chemscore.DG>
-14.0710

> <Gold.Chemscore.ZeroCoef>
-5.4800

> <Gold.Chemscore.Hbond>
0.9219

> <Gold.Chemscore.Metal>
0.0000

> <Gold.Chemscore.Lipo>
102.4016

> <Gold.Chemscore.Internal_Hbond>
0.0000

> <Gold.Chemscore.DEClash>
0.0098

> <Gold.Chemscore.DEInternal>
3.1337

> <Gold.Chemscore.Rot>
2.5270

> <Gold.Chemscore.Internal.Correction>
   9.000000E+99

> <Gold.Chemscore.Hbonds>
donor molecule, donor type, donor heavy atom, donor atom, acceptor molecule, acceptor atom, score
      P1  H  6896  6909       L1    10  0.12

> <Gold.Chemscore.Hbond.Weighted>
-3.0792

> <Gold.Chemscore.Metal.Weighted>
-0.0000

> <Gold.Chemscore.Lipo.Weighted>
-11.9810

> <Gold.Chemscore.Internal_Hbond.Weighted>
0.0000

> <Gold.Chemscore.DEClash.Weighted>
0.0098

> <Gold.Chemscore.DEInternal.Weighted>
3.1337

> <Gold.Chemscore.Rot.Weighted>
6.4691

> <Gold.Chemscore.Internal.Correction.Weighted>
   9.000000E+99

> <Gold.Protein.RotatedTorsions>
[ 6907 6896 6895 6894 ] final  155.46 input  -60.11 | X-H torsion
[ 7974 7965 7964 7962 ] final  107.11 input  175.53 | X-H torsion
[ 8008 7997 7996 7995 ] final  102.83 input   59.86 | X-H torsion
[ 10167 10162 10161 10158 ] final  -74.50 input  -65.29 | X-H torsion
[ 10718 10713 10712 10709 ] final  -49.87 input   66.30 | X-H torsion
[ 10763 10752 10751 10750 ] final  -17.29 input  -60.55 | X-H torsion
[ 11005 11000 10999 10996 ] final -167.07 input  -57.11 | X-H torsion

> <Gold.Protein.ActiveResidues>
 VAL166  LYS551  ARG553  GLY616  TRP617  ASP618  TYR619  PRO620  LYS621  CYS622 
 ASP623  PHE694  ASN695  SER759  ASP760  ASP761  ALA762  ILE779  LEU786  VAL792 
 PHE793  MET794  SER795  GLU796  ALA797  LYS798  CYS799  TRP800  GLU811  SER814 

> <Gold.Protein.RotatedAtoms>
  152.0438  133.3989  159.4347 H   0  0  0  0  0  0  0  0  0  0  0  0  # atno 6907 bound_to 6896
  150.6874  134.3384  159.4866 H   0  0  0  0  0  0  0  0  0  0  0  0  # atno 6908 bound_to 6896
  152.1186  134.9222  160.0614 H   0  0  0  0  0  0  0  0  0  0  0  0  # atno 6909 bound_to 6896
  145.2979  139.2579  143.3830 H   0  0  0  0  0  0  0  0  0  0  0  0  # atno 7974 bound_to 7965
  156.1429  140.3175  155.8523 H   0  0  0  0  0  0  0  0  0  0  0  0  # atno 8008 bound_to 7997
  155.4120  140.0506  157.3048 H   0  0  0  0  0  0  0  0  0  0  0  0  # atno 8009 bound_to 7997
  154.4991  140.2122  155.9396 H   0  0  0  0  0  0  0  0  0  0  0  0  # atno 8010 bound_to 7997
  140.5022  143.2359  151.7734 H   0  0  0  0  0  0  0  0  0  0  0  0  # atno 10167 bound_to 10162
  156.1853  130.4151  149.9448 H   0  0  0  0  0  0  0  0  0  0  0  0  # atno 10718 bound_to 10713
  153.5716  135.7007  153.5502 H   0  0  0  0  0  0  0  0  0  0  0  0  # atno 10763 bound_to 10752
  153.3339  135.4039  155.1517 H   0  0  0  0  0  0  0  0  0  0  0  0  # atno 10764 bound_to 10752
  154.8632  135.3725  154.5239 H   0  0  0  0  0  0  0  0  0  0  0  0  # atno 10765 bound_to 10752
  140.5574  134.5367  157.5136 H   0  0  0  0  0  0  0  0  0  0  0  0  # atno 11005 bound_to 11000
  146.3162  140.3486  142.8654 LP  0  0  0  0  0  0  0  0  0  0  0  0  # atno 17320 bound_to 7965
  144.9118  140.7766  143.5803 LP  0  0  0  0  0  0  0  0  0  0  0  0  # atno 17321 bound_to 7965
  139.4875  144.4507  151.9658 LP  0  0  0  0  0  0  0  0  0  0  0  0  # atno 17342 bound_to 10162
  140.3596  144.2989  150.5935 LP  0  0  0  0  0  0  0  0  0  0  0  0  # atno 17343 bound_to 10162
  156.7205  130.9005  151.3618 LP  0  0  0  0  0  0  0  0  0  0  0  0  # atno 17370 bound_to 10713
  157.6895  130.9219  150.0475 LP  0  0  0  0  0  0  0  0  0  0  0  0  # atno 17371 bound_to 10713
  139.9425  134.7762  156.0644 LP  0  0  0  0  0  0  0  0  0  0  0  0  # atno 17394 bound_to 11000
  141.1135  133.6635  156.3036 LP  0  0  0  0  0  0  0  0  0  0  0  0  # atno 17395 bound_to 11000

$$$$
