AV-unprocessed.smi:1376|AV-procd|sdf|5590|dock5
  -GOLD-   22720 5193D 1   1.00000     0.00000
 Structure written by MMmdl.
 42 43  0  0  0  0  0  0  0  0  1 V2000
  151.6404  139.4849  159.2843 O   0  0  0  0  0  0  0  0  0  0  0  0
  152.3606  140.2974  158.7025 C   0  0  0  0  0  0  0  0  0  0  0  0
  153.6566  140.8045  159.3509 C   0  0  0  0  0  0  0  0  0  0  0  0
  153.4224  141.7032  160.4936 N   0  0  0  0  0  0  0  0  0  0  0  0
  152.5715  142.8060  160.2796 C   0  0  0  0  0  0  0  0  0  0  0  0
  152.2904  143.6856  161.2538 C   0  0  0  0  0  0  0  0  0  0  0  0
  152.8860  143.4790  162.5525 C   0  0  0  0  0  0  0  0  0  0  0  0
  153.7051  142.4302  162.7668 C   0  0  0  0  0  0  0  0  0  0  0  0
  154.0188  141.4686  161.7034 C   0  0  0  0  0  0  0  0  0  0  0  0
  154.7700  140.5107  161.8890 O   0  0  0  0  0  0  0  0  0  0  0  0
  152.0912  140.7743  157.4777 N   0  0  0  0  0  0  0  0  0  0  0  0
  150.9245  140.4256  156.6723 C   0  0  2  0  0  0  0  0  0  0  0  0
  151.3562  139.7099  155.3765 C   0  0  0  0  0  0  0  0  0  0  0  0
  150.1490  139.4046  154.4768 C   0  0  0  0  0  0  0  0  0  0  0  0
  149.3459  140.6783  154.1637 C   0  0  0  0  0  0  0  0  0  0  0  0
  148.9040  141.4061  155.4460 C   0  0  1  0  0  0  0  0  0  0  0  0
  147.9478  140.5815  156.1031 O   0  0  0  0  0  0  0  0  0  0  0  0
  147.1560  141.2441  157.0795 C   0  0  0  0  0  0  0  0  0  0  0  0
  145.8560  141.7319  156.4286 C   0  0  0  0  0  0  0  0  0  0  0  0
  145.1829  140.6855  155.9517 F   0  0  0  0  0  0  0  0  0  0  0  0
  145.0957  142.3551  157.3284 F   0  0  0  0  0  0  0  0  0  0  0  0
  146.1283  142.5608  155.4211 F   0  0  0  0  0  0  0  0  0  0  0  0
  150.1209  141.7001  156.3503 C   0  0  0  0  0  0  0  0  0  0  0  0
  154.2411  139.9375  159.6614 H   0  0  0  0  0  0  0  0  0  0  0  0
  154.2688  141.3059  158.5988 H   0  0  0  0  0  0  0  0  0  0  0  0
  152.1736  142.8928  159.2789 H   0  0  0  0  0  0  0  0  0  0  0  0
  151.6395  144.5276  161.0701 H   0  0  0  0  0  0  0  0  0  0  0  0
  152.6747  144.1693  163.3559 H   0  0  0  0  0  0  0  0  0  0  0  0
  154.1422  142.2918  163.7448 H   0  0  0  0  0  0  0  0  0  0  0  0
  152.7421  141.4319  157.0733 H   0  0  0  0  0  0  0  0  0  0  0  0
  150.2817  139.7569  157.2487 H   0  0  0  0  0  0  0  0  0  0  0  0
  152.0658  140.3321  154.8291 H   0  0  0  0  0  0  0  0  0  0  0  0
  151.8782  138.7819  155.6135 H   0  0  0  0  0  0  0  0  0  0  0  0
  150.4853  138.9409  153.5492 H   0  0  0  0  0  0  0  0  0  0  0  0
  149.5039  138.6755  154.9690 H   0  0  0  0  0  0  0  0  0  0  0  0
  149.9582  141.3494  153.5600 H   0  0  0  0  0  0  0  0  0  0  0  0
  148.4747  140.4297  153.5568 H   0  0  0  0  0  0  0  0  0  0  0  0
  148.4301  142.3448  155.1547 H   0  0  0  0  0  0  0  0  0  0  0  0
  146.9209  140.5750  157.9071 H   0  0  0  0  0  0  0  0  0  0  0  0
  147.7026  142.0940  157.4906 H   0  0  0  0  0  0  0  0  0  0  0  0
  149.8100  142.1907  157.2722 H   0  0  0  0  0  0  0  0  0  0  0  0
  150.7700  142.4136  155.8403 H   0  0  0  0  0  0  0  0  0  0  0  0
  1  2  2  0  0  0  0
  2  3  1  0  0  0  0
  2 11  1  0  0  0  0
  3  4  1  0  0  0  0
  3 24  1  0  0  0  0
  3 25  1  0  0  0  0
  4  9  1  0  0  0  0
  4  5  1  0  0  0  0
  5  6  2  0  0  0  0
  5 26  1  0  0  0  0
  6  7  1  0  0  0  0
  6 27  1  0  0  0  0
  7  8  2  0  0  0  0
  7 28  1  0  0  0  0
  8  9  1  0  0  0  0
  8 29  1  0  0  0  0
  9 10  2  0  0  0  0
 11 12  1  0  0  0  0
 11 30  1  0  0  0  0
 12 23  1  0  0  0  0
 12 13  1  0  0  0  0
 12 31  1  0  0  0  0
 13 14  1  0  0  0  0
 13 32  1  0  0  0  0
 13 33  1  0  0  0  0
 14 15  1  0  0  0  0
 14 34  1  0  0  0  0
 14 35  1  0  0  0  0
 15 16  1  0  0  0  0
 15 36  1  0  0  0  0
 15 37  1  0  0  0  0
 16 17  1  0  0  0  0
 16 23  1  0  0  0  0
 16 38  1  0  0  0  0
 17 18  1  0  0  0  0
 18 19  1  0  0  0  0
 18 39  1  0  0  0  0
 18 40  1  0  0  0  0
 19 20  1  0  0  0  0
 19 21  1  0  0  0  0
 19 22  1  0  0  0  0
 23 41  1  0  0  0  0
 23 42  1  0  0  0  0
M  END
> <s_m_source_file>
AV-unprocessed.smi

> <i_m_source_file_index>
1376

> <i_lp_mmshare_version>
43012

> <i_f3d_flags>
0

> <s_epik_input>
Tz1jMVtjSF1bY0hdW2NIXVtjSF1uMVtDSDJdQyg9TylbTkhdW0NAQEhdMltDSDJdW0NIMl1bQ0gyXVtDQEhdKFtDSDJdMilPW0NIMl1DKEYpKEYpRg==

> <s_epik_cmdline>
J2VwaWtfcHl0aG9uJywgJy1waCcsICc3LjAnLCAnLXRuJywgJzgnLCAnLW1hJywgJzIwMCcsICctbWV0YWxfYmluZGluZycsICctaW1hZScsICc8aW5maWxlLm1hZT4nLCAnLW9tYWUnLCAnPG91dGZpbGUubWFlPic=

> <r_lp_tautomer_probability>
1

> <r_epik_Ionization_Penalty>
4.08567e-07

> <r_epik_Ionization_Penalty_Charging>
3.90028e-07

> <r_epik_Ionization_Penalty_Neutral>
1.85393e-08

> <r_epik_State_Penalty>
-0

> <r_epik_Charging_Adjusted_Penalty>
3.90028e-07

> <i_epik_Tot_Q>
0

> <i_epik_Tot_abs_Q>
0

> <r_epik_Metal_State_Penalty>
-0

> <b_epik_Metal_Only>
0

> <s_lp_Force_Field>
OPLS_2005

> <r_lp_Energy>
21.1399

> <b_lp_Chiralities_Consistent>
1

> <s_lp_Variant>
AV-unprocessed.smi:1376-1

> <Gold.Version>
5.8.1

> <Gold.Id.Protein>
6NUR|6NUR_protein|mol2

> <Gold.PLP.Fitness>
44.1008

> <Gold.PLP.PLP>
-45.0680

> <Gold.PLP.part.hbond>
-0.0757

> <Gold.PLP.part.metal>
0.0000

> <Gold.PLP.part.buried>
-0.9027

> <Gold.PLP.part.nonpolar>
-43.1299

> <Gold.PLP.part.repulsive>
0.1375

> <Gold.PLP.ligand.clash>
0.0000

> <Gold.PLP.ligand.torsion>
0.5118

> <Gold.PLP.Chemscore.Hbond>
0.0000

> <Gold.PLP.Chemscore.CHOScore>
0.0000

> <Gold.PLP.Chemscore.Metal>
0.0000

> <Gold.PLP.Chemscore.Internal.Correction>
0.0564

> <Gold.Rescore>
     Score         DG    S(hbond)    S(metal)    S(lipo)     H(rot)  DE(clash)    DE(int)     intcor
     11.08     -11.76       0.00        0.00     101.35       2.18       0.36       0.32       ----

> <Gold.Chemscore.Fitness>
11.0765

> <Gold.Chemscore.DG>
-11.7574

> <Gold.Chemscore.ZeroCoef>
-5.4800

> <Gold.Chemscore.Hbond>
0.0000

> <Gold.Chemscore.Metal>
0.0000

> <Gold.Chemscore.Lipo>
101.3469

> <Gold.Chemscore.Internal_Hbond>
0.0000

> <Gold.Chemscore.DEClash>
0.3563

> <Gold.Chemscore.DEInternal>
0.3246

> <Gold.Chemscore.Rot>
2.1797

> <Gold.Chemscore.Internal.Correction>
   9.000000E+99

> <Gold.Chemscore.Hbond.Weighted>
-0.0000

> <Gold.Chemscore.Metal.Weighted>
-0.0000

> <Gold.Chemscore.Lipo.Weighted>
-11.8576

> <Gold.Chemscore.Internal_Hbond.Weighted>
0.0000

> <Gold.Chemscore.DEClash.Weighted>
0.3563

> <Gold.Chemscore.DEInternal.Weighted>
0.3246

> <Gold.Chemscore.Rot.Weighted>
5.5802

> <Gold.Chemscore.Internal.Correction.Weighted>
   9.000000E+99

> <Gold.Protein.RotatedTorsions>
[ 6907 6896 6895 6894 ] final   49.74 input  -60.11 | X-H torsion
[ 7974 7965 7964 7962 ] final -155.73 input  175.53 | X-H torsion
[ 8008 7997 7996 7995 ] final  -58.33 input   59.86 | X-H torsion
[ 10167 10162 10161 10158 ] final  175.92 input  -65.29 | X-H torsion
[ 10718 10713 10712 10709 ] final  118.38 input   66.30 | X-H torsion
[ 10763 10752 10751 10750 ] final -138.65 input  -60.55 | X-H torsion
[ 11005 11000 10999 10996 ] final  -63.58 input  -57.11 | X-H torsion

> <Gold.Protein.ActiveResidues>
 VAL166  LYS551  ARG553  GLY616  TRP617  ASP618  TYR619  PRO620  LYS621  CYS622 
 ASP623  PHE694  ASN695  SER759  ASP760  ASP761  ALA762  ILE779  LEU786  VAL792 
 PHE793  MET794  SER795  GLU796  ALA797  LYS798  CYS799  TRP800  GLU811  SER814 

> <Gold.Protein.RotatedAtoms>
  152.2942  134.7687  160.0371 H   0  0  0  0  0  0  0  0  0  0  0  0  # atno 6907 bound_to 6896
  151.8222  133.3391  159.3596 H   0  0  0  0  0  0  0  0  0  0  0  0  # atno 6908 bound_to 6896
  150.7244  134.5492  159.5830 H   0  0  0  0  0  0  0  0  0  0  0  0  # atno 6909 bound_to 6896
  144.7626  140.4209  143.5965 H   0  0  0  0  0  0  0  0  0  0  0  0  # atno 7974 bound_to 7965
  154.4304  140.1086  156.5940 H   0  0  0  0  0  0  0  0  0  0  0  0  # atno 8008 bound_to 7997
  155.5982  140.3493  155.4567 H   0  0  0  0  0  0  0  0  0  0  0  0  # atno 8009 bound_to 7997
  156.0194  140.1236  157.0362 H   0  0  0  0  0  0  0  0  0  0  0  0  # atno 8010 bound_to 7997
  139.5195  144.2975  152.0408 H   0  0  0  0  0  0  0  0  0  0  0  0  # atno 10167 bound_to 10162
  157.6034  131.1047  150.7748 H   0  0  0  0  0  0  0  0  0  0  0  0  # atno 10718 bound_to 10713
  154.8631  135.3606  154.5419 H   0  0  0  0  0  0  0  0  0  0  0  0  # atno 10763 bound_to 10752
  153.6041  135.7011  153.5377 H   0  0  0  0  0  0  0  0  0  0  0  0  # atno 10764 bound_to 10752
  153.3266  135.4136  155.1422 H   0  0  0  0  0  0  0  0  0  0  0  0  # atno 10765 bound_to 10752
  141.1398  133.6654  156.5702 H   0  0  0  0  0  0  0  0  0  0  0  0  # atno 11005 bound_to 11000
  145.6570  139.1574  143.2830 LP  0  0  0  0  0  0  0  0  0  0  0  0  # atno 17320 bound_to 7965
  146.1704  140.6654  142.9236 LP  0  0  0  0  0  0  0  0  0  0  0  0  # atno 17321 bound_to 7965
  140.2424  144.4255  150.6254 LP  0  0  0  0  0  0  0  0  0  0  0  0  # atno 17342 bound_to 10162
  140.6281  143.2184  151.6553 LP  0  0  0  0  0  0  0  0  0  0  0  0  # atno 17343 bound_to 10162
  156.8142  130.4962  149.5351 LP  0  0  0  0  0  0  0  0  0  0  0  0  # atno 17370 bound_to 10713
  156.1113  130.6042  151.0051 LP  0  0  0  0  0  0  0  0  0  0  0  0  # atno 17371 bound_to 10713
  140.3919  134.7433  157.4726 LP  0  0  0  0  0  0  0  0  0  0  0  0  # atno 17394 bound_to 11000
  140.0560  134.6063  155.8805 LP  0  0  0  0  0  0  0  0  0  0  0  0  # atno 17395 bound_to 11000

$$$$
