AV-unprocessed.smi:2497|AV-procd|sdf|9829|dock8
  -GOLD-   2272013463D 1   1.00000     0.00000
 Structure written by MMmdl.
 47 48  0  0  0  0  0  0  0  0  1 V2000
  151.8954  142.8471  159.4184 C   0  0  0  0  0  0  0  0  0  0  0  0
  152.2719  143.3606  158.0181 C   0  0  0  0  0  0  0  0  0  0  0  0
  152.1160  144.8874  157.9498 C   0  0  0  0  0  0  0  0  0  0  0  0
  151.4526  142.6794  156.9039 C   0  0  0  0  0  0  0  0  0  0  0  0
  151.3216  141.1549  157.0637 C   0  0  0  0  0  0  0  0  0  0  0  0
  150.6485  140.5610  155.9257 N   0  0  0  0  0  0  0  0  0  0  0  0
  150.2070  141.1764  154.7720 C   0  0  0  0  0  0  0  0  0  0  0  0
  149.6190  140.2187  153.9956 C   0  0  0  0  0  0  0  0  0  0  0  0
  149.7498  139.0357  154.7832 C   0  0  0  0  0  0  0  0  0  0  0  0
  149.3061  137.7390  154.4192 N   0  0  0  0  0  0  0  0  0  0  0  0
  148.9476  136.7267  155.2259 C   0  0  0  0  0  0  0  0  0  0  0  0
  148.9730  136.7596  156.4558 O   0  0  0  0  0  0  0  0  0  0  0  0
  148.5651  135.6567  154.5085 N   0  0  0  0  0  0  0  0  0  0  0  0
  148.1072  134.3451  154.9915 C   0  0  0  0  0  0  0  0  0  0  0  0
  149.0974  133.8031  156.0446 C   0  0  0  0  0  0  0  0  0  0  0  0
  146.6719  134.4101  155.5690 C   0  0  0  0  0  0  0  0  0  0  0  0
  145.6296  134.7385  154.4856 C   0  0  0  0  0  0  0  0  0  0  0  0
  145.6940  133.7692  153.4462 O   0  0  0  0  0  0  0  0  0  0  0  0
  146.9538  133.7485  152.7859 C   0  0  0  0  0  0  0  0  0  0  0  0
  148.0701  133.3837  153.7835 C   0  0  0  0  0  0  0  0  0  0  0  0
  150.3748  139.2388  155.9297 N   0  0  0  0  0  0  0  0  0  0  0  0
  150.8391  143.0150  159.6311 H   0  0  0  0  0  0  0  0  0  0  0  0
  152.4729  143.3571  160.1901 H   0  0  0  0  0  0  0  0  0  0  0  0
  152.0919  141.7807  159.5247 H   0  0  0  0  0  0  0  0  0  0  0  0
  153.3258  143.1357  157.8493 H   0  0  0  0  0  0  0  0  0  0  0  0
  151.0785  145.1868  158.1024 H   0  0  0  0  0  0  0  0  0  0  0  0
  152.4349  145.2733  156.9812 H   0  0  0  0  0  0  0  0  0  0  0  0
  152.7198  145.3795  158.7127 H   0  0  0  0  0  0  0  0  0  0  0  0
  150.4618  143.1335  156.8497 H   0  0  0  0  0  0  0  0  0  0  0  0
  151.9276  142.8799  155.9423 H   0  0  0  0  0  0  0  0  0  0  0  0
  152.3064  140.6965  157.1615 H   0  0  0  0  0  0  0  0  0  0  0  0
  150.7622  140.9002  157.9640 H   0  0  0  0  0  0  0  0  0  0  0  0
  150.3459  142.2340  154.6018 H   0  0  0  0  0  0  0  0  0  0  0  0
  149.1728  140.3575  153.0223 H   0  0  0  0  0  0  0  0  0  0  0  0
  149.2900  137.5513  153.4276 H   0  0  0  0  0  0  0  0  0  0  0  0
  148.5928  135.7579  153.5044 H   0  0  0  0  0  0  0  0  0  0  0  0
  148.8354  132.7889  156.3479 H   0  0  0  0  0  0  0  0  0  0  0  0
  149.1078  134.4128  156.9481 H   0  0  0  0  0  0  0  0  0  0  0  0
  150.1152  133.7739  155.6536 H   0  0  0  0  0  0  0  0  0  0  0  0
  146.4175  133.4443  156.0075 H   0  0  0  0  0  0  0  0  0  0  0  0
  146.6002  135.1284  156.3853 H   0  0  0  0  0  0  0  0  0  0  0  0
  144.6281  134.7236  154.9155 H   0  0  0  0  0  0  0  0  0  0  0  0
  145.7830  135.7390  154.0787 H   0  0  0  0  0  0  0  0  0  0  0  0
  146.9146  133.0101  151.9848 H   0  0  0  0  0  0  0  0  0  0  0  0
  147.1445  134.7137  152.3143 H   0  0  0  0  0  0  0  0  0  0  0  0
  149.0346  133.3713  153.2740 H   0  0  0  0  0  0  0  0  0  0  0  0
  147.8995  132.3641  154.1325 H   0  0  0  0  0  0  0  0  0  0  0  0
  1  2  1  0  0  0  0
  1 22  1  0  0  0  0
  1 23  1  0  0  0  0
  1 24  1  0  0  0  0
  2  3  1  0  0  0  0
  2  4  1  0  0  0  0
  2 25  1  0  0  0  0
  3 26  1  0  0  0  0
  3 27  1  0  0  0  0
  3 28  1  0  0  0  0
  4  5  1  0  0  0  0
  4 29  1  0  0  0  0
  4 30  1  0  0  0  0
  5  6  1  0  0  0  0
  5 31  1  0  0  0  0
  5 32  1  0  0  0  0
  6 21  1  0  0  0  0
  6  7  1  0  0  0  0
  7  8  2  0  0  0  0
  7 33  1  0  0  0  0
  8  9  1  0  0  0  0
  8 34  1  0  0  0  0
  9 10  1  0  0  0  0
  9 21  2  0  0  0  0
 10 11  1  0  0  0  0
 10 35  1  0  0  0  0
 11 12  2  0  0  0  0
 11 13  1  0  0  0  0
 13 14  1  0  0  0  0
 13 36  1  0  0  0  0
 14 20  1  0  0  0  0
 14 15  1  0  0  0  0
 14 16  1  0  0  0  0
 15 37  1  0  0  0  0
 15 38  1  0  0  0  0
 15 39  1  0  0  0  0
 16 17  1  0  0  0  0
 16 40  1  0  0  0  0
 16 41  1  0  0  0  0
 17 18  1  0  0  0  0
 17 42  1  0  0  0  0
 17 43  1  0  0  0  0
 18 19  1  0  0  0  0
 19 20  1  0  0  0  0
 19 44  1  0  0  0  0
 19 45  1  0  0  0  0
 20 46  1  0  0  0  0
 20 47  1  0  0  0  0
M  END
> <s_m_source_file>
AV-unprocessed.smi

> <i_m_source_file_index>
2497

> <i_lp_mmshare_version>
43012

> <i_f3d_flags>
0

> <s_epik_input>
W0NIM11bQ0hdKFtDSDNdKVtDSDJdW0NIMl1uMVtjSF1bY0hdYyhuMSlbTkhdQyg9TylbTkhdQzIoW0NIM10pW0NIMl1bQ0gyXU9bQ0gyXVtDSDJdMg==

> <s_epik_cmdline>
J2VwaWtfcHl0aG9uJywgJy1waCcsICc3LjAnLCAnLXRuJywgJzgnLCAnLW1hJywgJzIwMCcsICctbWV0YWxfYmluZGluZycsICctaW1hZScsICc8aW5maWxlLm1hZT4nLCAnLW9tYWUnLCAnPG91dGZpbGUubWFlPic=

> <r_lp_tautomer_probability>
1

> <r_epik_Ionization_Penalty>
3.57775e-05

> <r_epik_Ionization_Penalty_Charging>
0

> <r_epik_Ionization_Penalty_Neutral>
3.57775e-05

> <r_epik_State_Penalty>
-0

> <r_epik_Charging_Adjusted_Penalty>
0

> <i_epik_Tot_Q>
0

> <i_epik_Tot_abs_Q>
0

> <r_epik_Metal_State_Penalty>
-0

> <b_epik_Metal_Only>
0

> <s_lp_Force_Field>
OPLS_2005

> <r_lp_Energy>
13.1227

> <b_lp_Chiralities_Consistent>
1

> <s_lp_Variant>
AV-unprocessed.smi:2497-1

> <Gold.Version>
5.8.1

> <Gold.Id.Protein>
6NUR|6NUR_protein|mol2

> <Gold.PLP.Fitness>
44.0127

> <Gold.PLP.PLP>
-37.9627

> <Gold.PLP.part.hbond>
-2.0000

> <Gold.PLP.part.metal>
0.0000

> <Gold.PLP.part.buried>
-4.0518

> <Gold.PLP.part.nonpolar>
-31.4232

> <Gold.PLP.part.repulsive>
0.1324

> <Gold.PLP.ligand.clash>
0.0000

> <Gold.PLP.ligand.torsion>
0.4634

> <Gold.PLP.Chemscore.Hbond>
1.8723

> <Gold.PLP.Chemscore.CHOScore>
0.4436

> <Gold.PLP.Chemscore.Metal>
0.0000

> <Gold.Chemscore.Hbonds>
donor molecule, donor type, donor heavy atom, donor atom, acceptor molecule, acceptor atom, score
      L1  H    10    35       P1  7948  0.96
      L1  H    13    36       P1  7948  1.00

> <Gold.PLP.Chemscore.Internal.Correction>
0.0288

> <Gold.Rescore>
     Score         DG    S(hbond)    S(metal)    S(lipo)     H(rot)  DE(clash)    DE(int)     intcor
     15.67     -18.05       1.79        0.00      88.64       1.47       0.00       2.38       ----

> <Gold.Chemscore.Fitness>
15.6662

> <Gold.Chemscore.DG>
-18.0527

> <Gold.Chemscore.ZeroCoef>
-5.4800

> <Gold.Chemscore.Hbond>
1.7857

> <Gold.Chemscore.Metal>
0.0000

> <Gold.Chemscore.Lipo>
88.6421

> <Gold.Chemscore.Internal_Hbond>
0.0000

> <Gold.Chemscore.DEClash>
0.0048

> <Gold.Chemscore.DEInternal>
2.3817

> <Gold.Chemscore.Rot>
1.4698

> <Gold.Chemscore.Internal.Correction>
   9.000000E+99

> <Gold.Chemscore.Hbonds>
donor molecule, donor type, donor heavy atom, donor atom, acceptor molecule, acceptor atom, score
      L1  H    10    35       P1  7948  0.84
      L1  H    13    36       P1  7948  1.00

> <Gold.Chemscore.Hbond.Weighted>
-5.9643

> <Gold.Chemscore.Metal.Weighted>
-0.0000

> <Gold.Chemscore.Lipo.Weighted>
-10.3711

> <Gold.Chemscore.Internal_Hbond.Weighted>
0.0000

> <Gold.Chemscore.DEClash.Weighted>
0.0048

> <Gold.Chemscore.DEInternal.Weighted>
2.3817

> <Gold.Chemscore.Rot.Weighted>
3.7628

> <Gold.Chemscore.Internal.Correction.Weighted>
   9.000000E+99

> <Gold.Protein.RotatedTorsions>
[ 6907 6896 6895 6894 ] final    3.61 input  -60.11 | X-H torsion
[ 7974 7965 7964 7962 ] final  129.92 input  175.53 | X-H torsion
[ 8008 7997 7996 7995 ] final -103.12 input   59.86 | X-H torsion
[ 10167 10162 10161 10158 ] final -167.06 input  -65.29 | X-H torsion
[ 10718 10713 10712 10709 ] final -109.64 input   66.30 | X-H torsion
[ 10763 10752 10751 10750 ] final -138.93 input  -60.55 | X-H torsion
[ 11005 11000 10999 10996 ] final  -98.17 input  -57.11 | X-H torsion

> <Gold.Protein.ActiveResidues>
 VAL166  LYS551  ARG553  GLY616  TRP617  ASP618  TYR619  PRO620  LYS621  CYS622 
 ASP623  PHE694  ASN695  SER759  ASP760  ASP761  ALA762  ILE779  LEU786  VAL792 
 PHE793  MET794  SER795  GLU796  ALA797  LYS798  CYS799  TRP800  GLU811  SER814 

> <Gold.Protein.RotatedAtoms>
  151.6279  135.1026  160.0115 H   0  0  0  0  0  0  0  0  0  0  0  0  # atno 6907 bound_to 6896
  152.4122  133.6977  159.6416 H   0  0  0  0  0  0  0  0  0  0  0  0  # atno 6908 bound_to 6896
  150.8012  133.8521  159.3249 H   0  0  0  0  0  0  0  0  0  0  0  0  # atno 6909 bound_to 6896
  145.0235  139.4110  143.5185 H   0  0  0  0  0  0  0  0  0  0  0  0  # atno 7974 bound_to 7965
  154.8663  140.0424  157.1697 H   0  0  0  0  0  0  0  0  0  0  0  0  # atno 8008 bound_to 7997
  154.8786  140.2969  155.5418 H   0  0  0  0  0  0  0  0  0  0  0  0  # atno 8009 bound_to 7997
  156.2999  140.2415  156.3785 H   0  0  0  0  0  0  0  0  0  0  0  0  # atno 8010 bound_to 7997
  139.6074  144.0885  152.1807 H   0  0  0  0  0  0  0  0  0  0  0  0  # atno 10167 bound_to 10162
  156.0548  130.5774  150.8127 H   0  0  0  0  0  0  0  0  0  0  0  0  # atno 10718 bound_to 10713
  154.8623  135.3597  154.5465 H   0  0  0  0  0  0  0  0  0  0  0  0  # atno 10763 bound_to 10752
  153.6085  135.7010  153.5361 H   0  0  0  0  0  0  0  0  0  0  0  0  # atno 10764 bound_to 10752
  153.3230  135.4146  155.1393 H   0  0  0  0  0  0  0  0  0  0  0  0  # atno 10765 bound_to 10752
  141.1354  133.8226  157.0804 H   0  0  0  0  0  0  0  0  0  0  0  0  # atno 11005 bound_to 11000
  146.3489  139.9745  142.8702 LP  0  0  0  0  0  0  0  0  0  0  0  0  # atno 17320 bound_to 7965
  145.1865  140.9791  143.4236 LP  0  0  0  0  0  0  0  0  0  0  0  0  # atno 17321 bound_to 7965
  140.0496  144.5943  150.7347 LP  0  0  0  0  0  0  0  0  0  0  0  0  # atno 17342 bound_to 10162
  140.7294  143.2672  151.4004 LP  0  0  0  0  0  0  0  0  0  0  0  0  # atno 17343 bound_to 10162
  157.5507  131.0944  150.9699 LP  0  0  0  0  0  0  0  0  0  0  0  0  # atno 17370 bound_to 10713
  156.9960  130.5581  149.5307 LP  0  0  0  0  0  0  0  0  0  0  0  0  # atno 17371 bound_to 10713
  140.0455  134.9832  157.1040 LP  0  0  0  0  0  0  0  0  0  0  0  0  # atno 17394 bound_to 11000
  140.4070  134.2022  155.7163 LP  0  0  0  0  0  0  0  0  0  0  0  0  # atno 17395 bound_to 11000

$$$$
