AV-unprocessed.smi:3176|AV-procd|sdf|12124|dock5
  -GOLD-   2272017563D 1   1.00000     0.00000
 Structure written by MMmdl.
 32 33  0  0  0  0  0  0  0  0  1 V2000
  152.5971  140.0797  154.9797 O   0  0  0  0  0  0  0  0  0  0  0  0
  151.7642  139.3008  155.4449 C   0  0  0  0  0  0  0  0  0  0  0  0
  151.2981  139.3857  156.7004 N   0  0  0  0  0  0  0  0  0  0  0  0
  151.7133  140.3822  157.6812 C   0  0  0  0  0  0  0  0  0  0  0  0
  150.6872  141.5220  157.8000 C   0  0  0  0  0  0  0  0  0  0  0  0
  151.1049  142.5681  158.8157 C   0  0  0  0  0  0  0  0  0  0  0  0
  151.2181  143.9251  158.4449 C   0  0  0  0  0  0  0  0  0  0  0  0
  151.6029  144.8591  159.4261 C   0  0  0  0  0  0  0  0  0  0  0  0
  151.8570  144.4026  160.7337 C   0  0  0  0  0  0  0  0  0  0  0  0
  151.7141  143.0268  161.0033 C   0  0  0  0  0  0  0  0  0  0  0  0
  151.3450  142.1230  160.0699 N   0  0  0  0  0  0  0  0  0  0  0  0
  151.1983  138.1676  154.5820 C   0  0  2  0  0  0  0  0  0  0  0  0
  149.6605  138.0862  154.5980 C   0  0  0  0  0  0  0  0  0  0  0  0
  149.3748  136.8219  155.3844 C   0  0  0  0  0  0  0  0  0  0  0  0
  150.6043  135.9801  155.0760 C   0  0  0  0  0  0  0  0  0  0  0  0
  151.6595  136.9279  155.1167 O   0  0  0  0  0  0  0  0  0  0  0  0
  150.6087  138.7106  156.9977 H   0  0  0  0  0  0  0  0  0  0  0  0
  151.8704  139.9072  158.6511 H   0  0  0  0  0  0  0  0  0  0  0  0
  152.6796  140.7807  157.3704 H   0  0  0  0  0  0  0  0  0  0  0  0
  150.5498  142.0036  156.8306 H   0  0  0  0  0  0  0  0  0  0  0  0
  149.7116  141.1248  158.0837 H   0  0  0  0  0  0  0  0  0  0  0  0
  151.0132  144.2447  157.4334 H   0  0  0  0  0  0  0  0  0  0  0  0
  151.7003  145.9061  159.1799 H   0  0  0  0  0  0  0  0  0  0  0  0
  152.1540  145.0904  161.5117 H   0  0  0  0  0  0  0  0  0  0  0  0
  151.9006  142.6421  161.9952 H   0  0  0  0  0  0  0  0  0  0  0  0
  151.5501  138.2641  153.5534 H   0  0  0  0  0  0  0  0  0  0  0  0
  149.1718  138.9585  155.0348 H   0  0  0  0  0  0  0  0  0  0  0  0
  149.2883  137.9828  153.5780 H   0  0  0  0  0  0  0  0  0  0  0  0
  149.3328  137.0451  156.4514 H   0  0  0  0  0  0  0  0  0  0  0  0
  148.4408  136.3388  155.0960 H   0  0  0  0  0  0  0  0  0  0  0  0
  150.7573  135.1754  155.7953 H   0  0  0  0  0  0  0  0  0  0  0  0
  150.5398  135.5457  154.0770 H   0  0  0  0  0  0  0  0  0  0  0  0
  1  2  2  0  0  0  0
  2  3  1  0  0  0  0
  2 12  1  0  0  0  0
  3  4  1  0  0  0  0
  3 17  1  0  0  0  0
  4  5  1  0  0  0  0
  4 18  1  0  0  0  0
  4 19  1  0  0  0  0
  5  6  1  0  0  0  0
  5 20  1  0  0  0  0
  5 21  1  0  0  0  0
  6 11  1  0  0  0  0
  6  7  2  0  0  0  0
  7  8  1  0  0  0  0
  7 22  1  0  0  0  0
  8  9  2  0  0  0  0
  8 23  1  0  0  0  0
  9 10  1  0  0  0  0
  9 24  1  0  0  0  0
 10 11  2  0  0  0  0
 10 25  1  0  0  0  0
 12 16  1  0  0  0  0
 12 13  1  0  0  0  0
 12 26  1  0  0  0  0
 13 14  1  0  0  0  0
 13 27  1  0  0  0  0
 13 28  1  0  0  0  0
 14 15  1  0  0  0  0
 14 29  1  0  0  0  0
 14 30  1  0  0  0  0
 15 16  1  0  0  0  0
 15 31  1  0  0  0  0
 15 32  1  0  0  0  0
M  END
> <s_m_source_file>
AV-unprocessed.smi

> <i_m_source_file_index>
3176

> <i_lp_mmshare_version>
43012

> <i_f3d_flags>
0

> <s_epik_input>
TzFbQ0gyXVtDSDJdW0NIMl1bQ0BIXTFDKD1PKVtOSF1bQ0gyXVtDSDJdYzJbY0hdW2NIXVtjSF1bY0hdbjI=

> <s_epik_cmdline>
J2VwaWtfcHl0aG9uJywgJy1waCcsICc3LjAnLCAnLXRuJywgJzgnLCAnLW1hJywgJzIwMCcsICctbWV0YWxfYmluZGluZycsICctaW1hZScsICc8aW5maWxlLm1hZT4nLCAnLW9tYWUnLCAnPG91dGZpbGUubWFlPic=

> <r_epik_Ionization_Penalty>
0.0282744

> <r_epik_Ionization_Penalty_Charging>
0

> <r_epik_Ionization_Penalty_Neutral>
0.0282744

> <r_epik_State_Penalty>
0.0231919

> <r_epik_Charging_Adjusted_Penalty>
0.0231919

> <i_epik_Tot_Q>
0

> <i_epik_Tot_abs_Q>
0

> <r_epik_Metal_State_Penalty>
0.02213

> <b_epik_Metal_Only>
0

> <s_lp_Force_Field>
OPLS_2005

> <r_lp_Energy>
16.3652

> <b_lp_Chiralities_Consistent>
1

> <s_lp_Variant>
AV-unprocessed.smi:3176-1

> <Gold.Version>
5.8.1

> <Gold.Id.Protein>
6NUR|6NUR_protein|mol2

> <Gold.PLP.Fitness>
43.0400

> <Gold.PLP.PLP>
-36.6025

> <Gold.PLP.part.hbond>
-3.2347

> <Gold.PLP.part.metal>
0.0000

> <Gold.PLP.part.buried>
-4.3768

> <Gold.PLP.part.nonpolar>
-29.4795

> <Gold.PLP.part.repulsive>
0.2188

> <Gold.PLP.ligand.clash>
0.0000

> <Gold.PLP.ligand.torsion>
0.3075

> <Gold.PLP.Chemscore.Hbond>
2.3456

> <Gold.PLP.Chemscore.CHOScore>
0.0000

> <Gold.PLP.Chemscore.Metal>
0.0000

> <Gold.Chemscore.Hbonds>
donor molecule, donor type, donor heavy atom, donor atom, acceptor molecule, acceptor atom, score
      P1  H  7989  7998       L1     1  0.50
      P1  H  7997  8009       L1     1  0.86
      P1  H 10752 10765       L1    16  0.60

> <Gold.PLP.Chemscore.Internal.Correction>
0.0156

> <Gold.Rescore>
     Score         DG    S(hbond)    S(metal)    S(lipo)     H(rot)  DE(clash)    DE(int)     intcor
     17.60     -17.85       1.63        0.00      92.41       1.52       0.06       0.19       ----

> <Gold.Chemscore.Fitness>
17.5975

> <Gold.Chemscore.DG>
-17.8460

> <Gold.Chemscore.ZeroCoef>
-5.4800

> <Gold.Chemscore.Hbond>
1.6272

> <Gold.Chemscore.Metal>
0.0000

> <Gold.Chemscore.Lipo>
92.4080

> <Gold.Chemscore.Internal_Hbond>
0.0000

> <Gold.Chemscore.DEClash>
0.0627

> <Gold.Chemscore.DEInternal>
0.1858

> <Gold.Chemscore.Rot>
1.5159

> <Gold.Chemscore.Internal.Correction>
   9.000000E+99

> <Gold.Chemscore.Hbonds>
donor molecule, donor type, donor heavy atom, donor atom, acceptor molecule, acceptor atom, score
      P1  H  7989  7998       L1     1  0.22
      P1  H  7997  8009       L1     1  0.74
      P1  H 10752 10765       L1    16  0.04

> <Gold.Chemscore.Hbond.Weighted>
-5.4349

> <Gold.Chemscore.Metal.Weighted>
-0.0000

> <Gold.Chemscore.Lipo.Weighted>
-10.8117

> <Gold.Chemscore.Internal_Hbond.Weighted>
0.0000

> <Gold.Chemscore.DEClash.Weighted>
0.0627

> <Gold.Chemscore.DEInternal.Weighted>
0.1858

> <Gold.Chemscore.Rot.Weighted>
3.8807

> <Gold.Chemscore.Internal.Correction.Weighted>
   9.000000E+99

> <Gold.Protein.RotatedTorsions>
[ 6907 6896 6895 6894 ] final -133.29 input  -60.11 | X-H torsion
[ 7974 7965 7964 7962 ] final  120.38 input  175.53 | X-H torsion
[ 8008 7997 7996 7995 ] final -148.35 input   59.86 | X-H torsion
[ 10167 10162 10161 10158 ] final  117.97 input  -65.29 | X-H torsion
[ 10718 10713 10712 10709 ] final   88.79 input   66.30 | X-H torsion
[ 10763 10752 10751 10750 ] final  178.17 input  -60.55 | X-H torsion
[ 11005 11000 10999 10996 ] final   41.75 input  -57.11 | X-H torsion

> <Gold.Protein.ActiveResidues>
 VAL166  LYS551  ARG553  GLY616  TRP617  ASP618  TYR619  PRO620  LYS621  CYS622 
 ASP623  PHE694  ASN695  SER759  ASP760  ASP761  ALA762  ILE779  LEU786  VAL792 
 PHE793  MET794  SER795  GLU796  ALA797  LYS798  CYS799  TRP800  GLU811  SER814 

> <Gold.Protein.RotatedAtoms>
  150.9723  133.6331  159.2735 H   0  0  0  0  0  0  0  0  0  0  0  0  # atno 6907 bound_to 6896
  151.3615  135.0904  159.9445 H   0  0  0  0  0  0  0  0  0  0  0  0  # atno 6908 bound_to 6896
  152.5187  133.9296  159.7628 H   0  0  0  0  0  0  0  0  0  0  0  0  # atno 6909 bound_to 6896
  145.1319  139.3322  143.4661 H   0  0  0  0  0  0  0  0  0  0  0  0  # atno 7974 bound_to 7965
  155.5902  140.0652  157.2760 H   0  0  0  0  0  0  0  0  0  0  0  0  # atno 8008 bound_to 7997
  154.4307  140.1836  156.1114 H   0  0  0  0  0  0  0  0  0  0  0  0  # atno 8009 bound_to 7997
  156.0238  140.3314  155.7070 H   0  0  0  0  0  0  0  0  0  0  0  0  # atno 8010 bound_to 7997
  139.6143  144.7088  151.2774 H   0  0  0  0  0  0  0  0  0  0  0  0  # atno 10167 bound_to 10162
  157.6951  131.0308  150.3328 H   0  0  0  0  0  0  0  0  0  0  0  0  # atno 10718 bound_to 10713
  154.5041  135.2785  155.1396 H   0  0  0  0  0  0  0  0  0  0  0  0  # atno 10763 bound_to 10752
  154.3018  135.6246  153.5431 H   0  0  0  0  0  0  0  0  0  0  0  0  # atno 10764 bound_to 10752
  152.9907  135.5698  154.5491 H   0  0  0  0  0  0  0  0  0  0  0  0  # atno 10765 bound_to 10752
  140.1805  134.4110  155.8203 H   0  0  0  0  0  0  0  0  0  0  0  0  # atno 11005 bound_to 11000
  146.3513  140.1321  142.8597 LP  0  0  0  0  0  0  0  0  0  0  0  0  # atno 17320 bound_to 7965
  145.0626  140.9098  143.4929 LP  0  0  0  0  0  0  0  0  0  0  0  0  # atno 17321 bound_to 7965
  140.7340  143.6778  150.8027 LP  0  0  0  0  0  0  0  0  0  0  0  0  # atno 17342 bound_to 10162
  140.0378  143.5377  152.2731 LP  0  0  0  0  0  0  0  0  0  0  0  0  # atno 17343 bound_to 10162
  156.3799  130.3878  149.7109 LP  0  0  0  0  0  0  0  0  0  0  0  0  # atno 17370 bound_to 10713
  156.4495  130.7900  151.2921 LP  0  0  0  0  0  0  0  0  0  0  0  0  # atno 17371 bound_to 10713
  141.2222  133.6998  156.7921 LP  0  0  0  0  0  0  0  0  0  0  0  0  # atno 17394 bound_to 11000
  140.2273  134.8712  157.3440 LP  0  0  0  0  0  0  0  0  0  0  0  0  # atno 17395 bound_to 11000

$$$$
