AV-unprocessed.smi:3287|AV-procd|sdf|12598|dock9
  -GOLD-   2272018523D 1   1.00000     0.00000
 Structure written by MMmdl.
 43 44  0  0  0  0  0  0  0  0  2 V2000
  152.7201  143.6518  161.8254 C   0  0  0  0  0  0  0  0  0  0  0  0
  151.8420  143.1654  160.6608 C   0  0  2  0  0  0  0  0  0  0  0  0
  152.6331  142.2823  159.6760 C   0  0  0  0  0  0  0  0  0  0  0  0
  151.7300  141.7280  158.5626 C   0  0  0  0  0  0  0  0  0  0  0  0
  150.9910  142.8551  157.8121 C   0  0  1  0  0  0  0  0  0  0  0  0
  150.0635  142.3134  156.7944 N   0  3  0  0  0  0  0  0  0  0  0  0
  150.6702  141.3969  155.8046 C   0  0  0  0  0  0  0  0  0  0  0  0
  149.6356  140.3967  155.2598 C   0  0  2  0  0  0  0  0  0  0  0  0
  150.1207  139.8570  154.0456 O   0  0  0  0  0  0  0  0  0  0  0  0
  148.2762  141.0536  155.0790 C   0  0  0  0  0  0  0  0  0  0  0  0
  148.0741  142.0134  154.0653 C   0  0  0  0  0  0  0  0  0  0  0  0
  146.7966  142.5932  153.9307 C   0  0  0  0  0  0  0  0  0  0  0  0
  145.7505  142.2742  154.7222 N   0  0  0  0  0  0  0  0  0  0  0  0
  145.9480  141.3535  155.6895 C   0  0  0  0  0  0  0  0  0  0  0  0
  147.1852  140.7155  155.9091 C   0  0  0  0  0  0  0  0  0  0  0  0
  150.2089  143.7356  158.8075 C   0  0  0  0  0  0  0  0  0  0  0  0
  151.1012  144.3124  159.9272 C   0  0  2  0  0  0  0  0  0  0  0  0
  152.0258  145.4295  159.4024 C   0  0  0  0  0  0  0  0  0  0  0  0
  153.5766  144.2278  161.4745 H   0  0  0  0  0  0  0  0  0  0  0  0
  153.1083  142.8087  162.3976 H   0  0  0  0  0  0  0  0  0  0  0  0
  152.1513  144.2789  162.5125 H   0  0  0  0  0  0  0  0  0  0  0  0
  151.0737  142.5311  161.1062 H   0  0  0  0  0  0  0  0  0  0  0  0
  153.4539  142.8496  159.2364 H   0  0  0  0  0  0  0  0  0  0  0  0
  153.0933  141.4517  160.2127 H   0  0  0  0  0  0  0  0  0  0  0  0
  152.3395  141.1418  157.8751 H   0  0  0  0  0  0  0  0  0  0  0  0
  151.0052  141.0377  158.9966 H   0  0  0  0  0  0  0  0  0  0  0  0
  151.7211  143.4819  157.2986 H   0  0  0  0  0  0  0  0  0  0  0  0
  149.3065  141.8350  157.2622 H   0  0  0  0  0  0  0  0  0  0  0  0
  151.0709  141.9908  154.9820 H   0  0  0  0  0  0  0  0  0  0  0  0
  151.5083  140.8609  156.2504 H   0  0  0  0  0  0  0  0  0  0  0  0
  149.5287  139.5697  155.9636 H   0  0  0  0  0  0  0  0  0  0  0  0
  149.5325  140.1094  153.3494 H   0  0  0  0  0  0  0  0  0  0  0  0
  148.8757  142.3037  153.4023 H   0  0  0  0  0  0  0  0  0  0  0  0
  146.6104  143.3327  153.1660 H   0  0  0  0  0  0  0  0  0  0  0  0
  145.0941  141.1163  156.3068 H   0  0  0  0  0  0  0  0  0  0  0  0
  147.2883  139.9838  156.6972 H   0  0  0  0  0  0  0  0  0  0  0  0
  149.7095  144.5476  158.2772 H   0  0  0  0  0  0  0  0  0  0  0  0
  149.4137  143.1427  159.2626 H   0  0  0  0  0  0  0  0  0  0  0  0
  150.4346  144.7842  160.6505 H   0  0  0  0  0  0  0  0  0  0  0  0
  152.7819  145.0517  158.7149 H   0  0  0  0  0  0  0  0  0  0  0  0
  152.5442  145.9341  160.2175 H   0  0  0  0  0  0  0  0  0  0  0  0
  151.4531  146.1917  158.8734 H   0  0  0  0  0  0  0  0  0  0  0  0
  149.6783  143.0945  156.2832 H   0  0  0  0  0  0  0  0  0  0  0  0
  1  2  1  0  0  0  0
  1 19  1  0  0  0  0
  1 20  1  0  0  0  0
  1 21  1  0  0  0  0
  2 17  1  0  0  0  0
  2  3  1  0  0  0  0
  2 22  1  0  0  0  0
  3  4  1  0  0  0  0
  3 23  1  0  0  0  0
  3 24  1  0  0  0  0
  4  5  1  0  0  0  0
  4 25  1  0  0  0  0
  4 26  1  0  0  0  0
  5  6  1  0  0  0  0
  5 16  1  0  0  0  0
  5 27  1  0  0  0  0
  6  7  1  0  0  0  0
  6 28  1  0  0  0  0
  6 43  1  0  0  0  0
  7  8  1  0  0  0  0
  7 29  1  0  0  0  0
  7 30  1  0  0  0  0
  8  9  1  0  0  0  0
  8 10  1  0  0  0  0
  8 31  1  0  0  0  0
  9 32  1  0  0  0  0
 10 15  1  0  0  0  0
 10 11  2  0  0  0  0
 11 12  1  0  0  0  0
 11 33  1  0  0  0  0
 12 13  2  0  0  0  0
 12 34  1  0  0  0  0
 13 14  1  0  0  0  0
 14 15  2  0  0  0  0
 14 35  1  0  0  0  0
 15 36  1  0  0  0  0
 16 17  1  0  0  0  0
 16 37  1  0  0  0  0
 16 38  1  0  0  0  0
 17 18  1  0  0  0  0
 17 39  1  0  0  0  0
 18 40  1  0  0  0  0
 18 41  1  0  0  0  0
 18 42  1  0  0  0  0
M  CHG  1   6   1
M  END
> <s_m_source_file>
AV-unprocessed.smi

> <i_m_source_file_index>
3287

> <i_lp_mmshare_version>
43012

> <i_f3d_flags>
0

> <s_epik_input>
W0NIM11bQ0BASF0xW0NIMl1bQ0gyXVtDQEhdKFtDSDJdW0NASF0xW0NIM10pW05IXVtDSDJdW0NASF0oW09IXSljMltjSF1bY0hdbltjSF1bY0hdMg==

> <s_epik_cmdline>
J2VwaWtfcHl0aG9uJywgJy1waCcsICc3LjAnLCAnLXRuJywgJzgnLCAnLW1hJywgJzIwMCcsICctbWV0YWxfYmluZGluZycsICctaW1hZScsICc8aW5maWxlLm1hZT4nLCAnLW9tYWUnLCAnPG91dGZpbGUubWFlPic=

> <r_lp_tautomer_probability>
1

> <r_epik_Ionization_Penalty>
0.00537262

> <r_epik_Ionization_Penalty_Charging>
0.00321624

> <r_epik_Ionization_Penalty_Neutral>
0.00215638

> <r_epik_State_Penalty>
-0

> <r_epik_Charging_Adjusted_Penalty>
0.00321624

> <i_epik_Tot_Q>
1

> <i_epik_Tot_abs_Q>
1

> <r_epik_Metal_State_Penalty>
-0

> <b_epik_Metal_Only>
0

> <s_lp_Force_Field>
OPLS_2005

> <r_lp_Energy>
18.5341

> <b_lp_Chiralities_Consistent>
1

> <s_lp_Variant>
AV-unprocessed.smi:3287-9

> <Gold.Version>
5.8.1

> <Gold.Id.Protein>
6NUR|6NUR_protein|mol2

> <Gold.PLP.Fitness>
50.0868

> <Gold.PLP.PLP>
-40.7606

> <Gold.PLP.part.hbond>
-3.0000

> <Gold.PLP.part.metal>
0.0000

> <Gold.PLP.part.buried>
-4.9190

> <Gold.PLP.part.nonpolar>
-32.0041

> <Gold.PLP.part.repulsive>
0.2056

> <Gold.PLP.ligand.clash>
0.0000

> <Gold.PLP.ligand.torsion>
0.5193

> <Gold.PLP.Chemscore.Hbond>
3.4504

> <Gold.PLP.Chemscore.CHOScore>
0.0000

> <Gold.PLP.Chemscore.Metal>
0.0000

> <Gold.Chemscore.Hbonds>
donor molecule, donor type, donor heavy atom, donor atom, acceptor molecule, acceptor atom, score
      L1  H     6    43       P1  8028  2.00
      L1  H     9    32       P1  7957  0.41
      P1  H  7989  7998       L1     9  0.85

> <Gold.PLP.Chemscore.Internal.Correction>
0.0137

> <Gold.Rescore>
     Score         DG    S(hbond)    S(metal)    S(lipo)     H(rot)  DE(clash)    DE(int)     intcor
     20.78     -21.36       2.09        0.00     117.69       1.90       0.03       0.55       ----

> <Gold.Chemscore.Fitness>
20.7812

> <Gold.Chemscore.DG>
-21.3589

> <Gold.Chemscore.ZeroCoef>
-5.4800

> <Gold.Chemscore.Hbond>
2.0903

> <Gold.Chemscore.Metal>
0.0000

> <Gold.Chemscore.Lipo>
117.6946

> <Gold.Chemscore.Internal_Hbond>
0.0000

> <Gold.Chemscore.DEClash>
0.0311

> <Gold.Chemscore.DEInternal>
0.5466

> <Gold.Chemscore.Rot>
1.9035

> <Gold.Chemscore.Internal.Correction>
   9.000000E+99

> <Gold.Chemscore.Hbonds>
donor molecule, donor type, donor heavy atom, donor atom, acceptor molecule, acceptor atom, score
      L1  H     6    43       P1  8028  1.00
      L1  H     9    32       P1  7957  0.42
      P1  H  7989  7998       L1     9  0.10

> <Gold.Chemscore.Hbond.Weighted>
-6.9815

> <Gold.Chemscore.Metal.Weighted>
-0.0000

> <Gold.Chemscore.Lipo.Weighted>
-13.7703

> <Gold.Chemscore.Internal_Hbond.Weighted>
0.0000

> <Gold.Chemscore.DEClash.Weighted>
0.0311

> <Gold.Chemscore.DEInternal.Weighted>
0.5466

> <Gold.Chemscore.Rot.Weighted>
4.8729

> <Gold.Chemscore.Internal.Correction.Weighted>
   9.000000E+99

> <Gold.Protein.RotatedTorsions>
[ 6907 6896 6895 6894 ] final  146.72 input  -60.11 | X-H torsion
[ 7974 7965 7964 7962 ] final  -64.44 input  175.53 | X-H torsion
[ 8008 7997 7996 7995 ] final -170.84 input   59.86 | X-H torsion
[ 10167 10162 10161 10158 ] final  -53.01 input  -65.29 | X-H torsion
[ 10718 10713 10712 10709 ] final   41.85 input   66.30 | X-H torsion
[ 10763 10752 10751 10750 ] final   10.47 input  -60.55 | X-H torsion
[ 11005 11000 10999 10996 ] final -100.31 input  -57.11 | X-H torsion

> <Gold.Protein.ActiveResidues>
 VAL166  LYS551  ARG553  GLY616  TRP617  ASP618  TYR619  PRO620  LYS621  CYS622 
 ASP623  PHE694  ASN695  SER759  ASP760  ASP761  ALA762  ILE779  LEU786  VAL792 
 PHE793  MET794  SER795  GLU796  ALA797  LYS798  CYS799  TRP800  GLU811  SER814 

> <Gold.Protein.RotatedAtoms>
  152.1642  133.4601  159.4876 H   0  0  0  0  0  0  0  0  0  0  0  0  # atno 6907 bound_to 6896
  150.6911  134.2033  159.4340 H   0  0  0  0  0  0  0  0  0  0  0  0  # atno 6908 bound_to 6896
  151.9937  134.9965  160.0613 H   0  0  0  0  0  0  0  0  0  0  0  0  # atno 6909 bound_to 6896
  145.7667  140.8834  143.0402 H   0  0  0  0  0  0  0  0  0  0  0  0  # atno 7974 bound_to 7965
  155.9237  140.1078  157.1187 H   0  0  0  0  0  0  0  0  0  0  0  0  # atno 8008 bound_to 7997
  154.4058  140.1251  156.4777 H   0  0  0  0  0  0  0  0  0  0  0  0  # atno 8009 bound_to 7997
  155.7165  140.3470  155.4999 H   0  0  0  0  0  0  0  0  0  0  0  0  # atno 8010 bound_to 7997
  140.6507  143.2564  151.4731 H   0  0  0  0  0  0  0  0  0  0  0  0  # atno 10167 bound_to 10162
  157.3983  130.7845  149.7327 H   0  0  0  0  0  0  0  0  0  0  0  0  # atno 10718 bound_to 10713
  153.2029  135.6858  153.8209 H   0  0  0  0  0  0  0  0  0  0  0  0  # atno 10763 bound_to 10752
  153.7469  135.3229  155.3315 H   0  0  0  0  0  0  0  0  0  0  0  0  # atno 10764 bound_to 10752
  154.8181  135.4671  154.0802 H   0  0  0  0  0  0  0  0  0  0  0  0  # atno 10765 bound_to 10752
  141.1276  133.8389  157.1085 H   0  0  0  0  0  0  0  0  0  0  0  0  # atno 11005 bound_to 11000
  144.6820  139.9798  143.7483 LP  0  0  0  0  0  0  0  0  0  0  0  0  # atno 17320 bound_to 7965
  146.0211  139.3252  143.0812 LP  0  0  0  0  0  0  0  0  0  0  0  0  # atno 17321 bound_to 7965
  139.5722  144.1902  152.1852 LP  0  0  0  0  0  0  0  0  0  0  0  0  # atno 17342 bound_to 10162
  140.1202  144.5380  150.6868 LP  0  0  0  0  0  0  0  0  0  0  0  0  # atno 17343 bound_to 10162
  155.9816  130.4017  150.3462 LP  0  0  0  0  0  0  0  0  0  0  0  0  # atno 17370 bound_to 10713
  157.1586  131.0339  151.2851 LP  0  0  0  0  0  0  0  0  0  0  0  0  # atno 17371 bound_to 10713
  140.0289  134.9910  157.0742 LP  0  0  0  0  0  0  0  0  0  0  0  0  # atno 17394 bound_to 11000
  140.4317  134.1774  155.7168 LP  0  0  0  0  0  0  0  0  0  0  0  0  # atno 17395 bound_to 11000

$$$$
