AV-unprocessed.smi:265|AV-procd|sdf|2024|dock2
  -GOLD-   2262021223D 1   1.00000     0.00000
 Structure written by MMmdl.
 52 56  0  0  0  0  0  0  0  0  1 V2000
  149.2598  137.2911  157.2641 C   0  0  0  0  0  0  0  0  0  0  0  0
  150.2386  136.4216  156.4581 C   0  0  1  0  0  0  0  0  0  0  0  0
  150.0768  135.0411  156.7823 O   0  0  0  0  0  0  0  0  0  0  0  0
  149.8431  134.2834  155.6028 C   0  0  0  0  0  0  0  0  0  0  0  0
  150.4698  135.1096  154.4874 C   0  0  0  0  0  0  0  0  0  0  0  0
  150.1578  136.5352  154.9187 C   0  0  1  0  0  0  0  0  0  0  0  0
  148.8376  136.8502  154.5035 O   0  0  0  0  0  0  0  0  0  0  0  0
  151.1238  137.5961  154.3401 C   0  0  0  0  0  0  0  0  0  0  0  0
  151.1377  138.8406  155.0935 N   0  0  0  0  0  0  0  0  0  0  0  0
  150.5793  140.0385  154.7086 C   0  0  0  0  0  0  0  0  0  0  0  0
  150.7270  141.0191  155.5564 N   0  0  0  0  0  0  0  0  0  0  0  0
  151.4276  140.4511  156.6139 C   0  0  0  0  0  0  0  0  0  0  0  0
  151.9168  140.9449  157.8559 C   0  0  0  0  0  0  0  0  0  0  0  0
  151.7230  142.2261  158.2587 N   0  0  0  0  0  0  0  0  0  0  0  0
  152.6710  142.7888  159.2197 C   0  0  0  0  0  0  0  0  0  0  0  0
  152.5576  144.3205  159.2609 C   0  0  0  0  0  0  0  0  0  0  0  0
  151.1123  144.7823  159.5109 C   0  0  2  0  0  0  0  0  0  0  0  0
  150.7101  144.4465  160.8325 O   0  0  0  0  0  0  0  0  0  0  0  0
  149.4478  144.9999  161.2083 C   0  0  0  0  0  0  0  0  0  0  0  0
  148.3582  144.7448  160.1503 C   0  0  0  0  0  0  0  0  0  0  0  0
  147.1736  144.8901  160.4427 O   0  0  0  0  0  0  0  0  0  0  0  0
  148.7475  144.4076  158.9102 N   0  0  0  0  0  0  0  0  0  0  0  0
  150.1249  144.1043  158.5361 C   0  0  2  0  0  0  0  0  0  0  0  0
  150.3250  142.5759  158.5020 C   0  0  0  0  0  0  0  0  0  0  0  0
  152.5955  140.0747  158.6511 N   0  0  0  0  0  0  0  0  0  0  0  0
  152.7733  138.8072  158.2669 C   0  0  0  0  0  0  0  0  0  0  0  0
  152.3657  138.2105  157.1452 N   0  0  0  0  0  0  0  0  0  0  0  0
  151.6952  139.0806  156.3374 C   0  0  0  0  0  0  0  0  0  0  0  0
  151.0708  145.8672  159.3964 H   0  0  0  0  0  0  0  0  0  0  0  0
  150.2944  144.4991  157.5333 H   0  0  0  0  0  0  0  0  0  0  0  0
  149.3711  138.3454  157.0096 H   0  0  0  0  0  0  0  0  0  0  0  0
  149.4421  137.1874  158.3337 H   0  0  0  0  0  0  0  0  0  0  0  0
  148.2234  137.0062  157.0808 H   0  0  0  0  0  0  0  0  0  0  0  0
  151.2522  136.6738  156.7728 H   0  0  0  0  0  0  0  0  0  0  0  0
  150.2698  133.2830  155.6774 H   0  0  0  0  0  0  0  0  0  0  0  0
  148.7676  134.1849  155.4500 H   0  0  0  0  0  0  0  0  0  0  0  0
  151.5479  134.9440  154.4866 H   0  0  0  0  0  0  0  0  0  0  0  0
  150.0911  134.8535  153.4970 H   0  0  0  0  0  0  0  0  0  0  0  0
  148.7403  136.5950  153.5990 H   0  0  0  0  0  0  0  0  0  0  0  0
  152.1407  137.2019  154.3146 H   0  0  0  0  0  0  0  0  0  0  0  0
  150.8607  137.8265  153.3070 H   0  0  0  0  0  0  0  0  0  0  0  0
  150.0611  140.1643  153.7690 H   0  0  0  0  0  0  0  0  0  0  0  0
  152.4723  142.3727  160.2084 H   0  0  0  0  0  0  0  0  0  0  0  0
  153.6905  142.5092  158.9503 H   0  0  0  0  0  0  0  0  0  0  0  0
  153.2196  144.7254  160.0269 H   0  0  0  0  0  0  0  0  0  0  0  0
  152.9026  144.7280  158.3098 H   0  0  0  0  0  0  0  0  0  0  0  0
  149.1433  144.5718  162.1635 H   0  0  0  0  0  0  0  0  0  0  0  0
  149.5527  146.0756  161.3546 H   0  0  0  0  0  0  0  0  0  0  0  0
  148.0368  144.2783  158.2048 H   0  0  0  0  0  0  0  0  0  0  0  0
  149.6684  142.1432  157.7480 H   0  0  0  0  0  0  0  0  0  0  0  0
  150.0275  142.1389  159.4564 H   0  0  0  0  0  0  0  0  0  0  0  0
  153.3193  138.1817  158.9576 H   0  0  0  0  0  0  0  0  0  0  0  0
  1  2  1  0  0  0  0
  1 31  1  0  0  0  0
  1 32  1  0  0  0  0
  1 33  1  0  0  0  0
  2  6  1  0  0  0  0
  2  3  1  0  0  0  0
  2 34  1  0  0  0  0
  3  4  1  0  0  0  0
  4  5  1  0  0  0  0
  4 35  1  0  0  0  0
  4 36  1  0  0  0  0
  5  6  1  0  0  0  0
  5 37  1  0  0  0  0
  5 38  1  0  0  0  0
  6  7  1  0  0  0  0
  6  8  1  0  0  0  0
  7 39  1  0  0  0  0
  8  9  1  0  0  0  0
  8 40  1  0  0  0  0
  8 41  1  0  0  0  0
  9 28  1  0  0  0  0
  9 10  1  0  0  0  0
 10 11  2  0  0  0  0
 10 42  1  0  0  0  0
 11 12  1  0  0  0  0
 12 28  2  0  0  0  0
 12 13  1  0  0  0  0
 13 14  1  0  0  0  0
 13 25  2  0  0  0  0
 14 24  1  0  0  0  0
 14 15  1  0  0  0  0
 15 16  1  0  0  0  0
 15 43  1  0  0  0  0
 15 44  1  0  0  0  0
 16 17  1  0  0  0  0
 16 45  1  0  0  0  0
 16 46  1  0  0  0  0
 17 29  1  0  0  0  0
 17 23  1  0  0  0  0
 17 18  1  0  0  0  0
 18 19  1  0  0  0  0
 19 20  1  0  0  0  0
 19 47  1  0  0  0  0
 19 48  1  0  0  0  0
 20 21  2  0  0  0  0
 20 22  1  0  0  0  0
 22 23  1  0  0  0  0
 22 49  1  0  0  0  0
 23 30  1  0  0  0  0
 23 24  1  0  0  0  0
 24 50  1  0  0  0  0
 24 51  1  0  0  0  0
 25 26  1  0  0  0  0
 26 27  2  0  0  0  0
 26 52  1  0  0  0  0
 27 28  1  0  0  0  0
M  END
> <s_m_source_file>
AV-unprocessed.smi

> <i_m_source_file_index>
265

> <i_lp_mmshare_version>
43012

> <i_f3d_flags>
0

> <s_epik_input>
W0NIMl0xW0NIMl1PW0NAQEhdKFtDSDNdKVtDQEBdMShbT0hdKVtDSDJdbihbY0hdbjIpYyhjMjMpbltjSF1uYzNOKFtDSDJdW0NIMl00KVtDSDJdW0NAQEhdKFtDQEhdNDUpW05IXUMoPU8pW0NIMl1PNQ==

> <s_epik_cmdline>
J2VwaWtfcHl0aG9uJywgJy1waCcsICc3LjAnLCAnLXRuJywgJzgnLCAnLW1hJywgJzIwMCcsICctbWV0YWxfYmluZGluZycsICctaW1hZScsICc8aW5maWxlLm1hZT4nLCAnLW9tYWUnLCAnPG91dGZpbGUubWFlPic=

> <r_lp_tautomer_probability>
1

> <r_epik_Ionization_Penalty>
0.00221504

> <r_epik_Ionization_Penalty_Charging>
0

> <r_epik_Ionization_Penalty_Neutral>
0.00221504

> <r_epik_State_Penalty>
-0

> <r_epik_Charging_Adjusted_Penalty>
0

> <i_epik_Tot_Q>
0

> <i_epik_Tot_abs_Q>
0

> <r_epik_Metal_State_Penalty>
-0

> <b_epik_Metal_Only>
0

> <s_lp_Force_Field>
OPLS_2005

> <r_lp_Energy>
44.7189

> <b_lp_Chiralities_Consistent>
1

> <s_lp_Variant>
AV-unprocessed.smi:265-10

> <Gold.Version>
5.8.1

> <Gold.Id.Protein>
6NUR|6NUR_protein|mol2

> <Gold.PLP.Fitness>
43.3503

> <Gold.PLP.PLP>
-39.6807

> <Gold.PLP.part.hbond>
-2.5219

> <Gold.PLP.part.metal>
0.0000

> <Gold.PLP.part.buried>
-1.9713

> <Gold.PLP.part.nonpolar>
-35.9473

> <Gold.PLP.part.repulsive>
0.5284

> <Gold.PLP.ligand.clash>
0.0000

> <Gold.PLP.ligand.torsion>
0.7795

> <Gold.PLP.Chemscore.Hbond>
1.1227

> <Gold.PLP.Chemscore.CHOScore>
0.4982

> <Gold.PLP.Chemscore.Metal>
0.0000

> <Gold.Chemscore.Hbonds>
donor molecule, donor type, donor heavy atom, donor atom, acceptor molecule, acceptor atom, score
      L1  H     7    39       P1  7948  1.00
      L1  H    22    49       P1  8029  0.14
      L1  C    10    42       P1  7957  0.71

> <Gold.PLP.Chemscore.Internal.Correction>
0.3658

> <Gold.Rescore>
     Score         DG    S(hbond)    S(metal)    S(lipo)     H(rot)  DE(clash)    DE(int)     intcor
     11.83     -13.19       1.05        0.00      84.96       2.25       0.55       0.81       ----

> <Gold.Chemscore.Fitness>
11.8337

> <Gold.Chemscore.DG>
-13.1910

> <Gold.Chemscore.ZeroCoef>
-5.4800

> <Gold.Chemscore.Hbond>
1.0534

> <Gold.Chemscore.Metal>
0.0000

> <Gold.Chemscore.Lipo>
84.9625

> <Gold.Chemscore.Internal_Hbond>
0.0000

> <Gold.Chemscore.DEClash>
0.5479

> <Gold.Chemscore.DEInternal>
0.8094

> <Gold.Chemscore.Rot>
2.2453

> <Gold.Chemscore.Internal.Correction>
   9.000000E+99

> <Gold.Chemscore.Hbonds>
donor molecule, donor type, donor heavy atom, donor atom, acceptor molecule, acceptor atom, score
      L1  H     7    39       P1  7948  1.00
      L1  H    22    49       P1  8029  0.07

> <Gold.Chemscore.Hbond.Weighted>
-3.5183

> <Gold.Chemscore.Metal.Weighted>
-0.0000

> <Gold.Chemscore.Lipo.Weighted>
-9.9406

> <Gold.Chemscore.Internal_Hbond.Weighted>
0.0000

> <Gold.Chemscore.DEClash.Weighted>
0.5479

> <Gold.Chemscore.DEInternal.Weighted>
0.8094

> <Gold.Chemscore.Rot.Weighted>
5.7479

> <Gold.Chemscore.Internal.Correction.Weighted>
   9.000000E+99

> <Gold.Protein.RotatedTorsions>
[ 6907 6896 6895 6894 ] final   14.26 input  -60.11 | X-H torsion
[ 7974 7965 7964 7962 ] final   -5.61 input  175.53 | X-H torsion
[ 8008 7997 7996 7995 ] final   -3.54 input   59.86 | X-H torsion
[ 10167 10162 10161 10158 ] final   63.68 input  -65.29 | X-H torsion
[ 10718 10713 10712 10709 ] final  157.10 input   66.30 | X-H torsion
[ 10763 10752 10751 10750 ] final -139.82 input  -60.55 | X-H torsion
[ 11005 11000 10999 10996 ] final   89.44 input  -57.11 | X-H torsion

> <Gold.Protein.ActiveResidues>
 VAL166  LYS551  ARG553  GLY616  TRP617  ASP618  TYR619  PRO620  LYS621  CYS622 
 ASP623  PHE694  ASN695  SER759  ASP760  ASP761  ALA762  ILE779  LEU786  VAL792 
 PHE793  MET794  SER795  GLU796  ALA797  LYS798  CYS799  TRP800  GLU811  SER814 

> <Gold.Protein.RotatedAtoms>
  151.7994  135.0713  160.0397 H   0  0  0  0  0  0  0  0  0  0  0  0  # atno 6907 bound_to 6896
  152.3100  133.5738  159.5683 H   0  0  0  0  0  0  0  0  0  0  0  0  # atno 6908 bound_to 6896
  150.7315  134.0082  159.3703 H   0  0  0  0  0  0  0  0  0  0  0  0  # atno 6909 bound_to 6896
  146.2349  140.2047  142.8334 H   0  0  0  0  0  0  0  0  0  0  0  0  # atno 7974 bound_to 7965
  154.6238  140.2506  155.7517 H   0  0  0  0  0  0  0  0  0  0  0  0  # atno 8008 bound_to 7997
  156.2442  140.2921  156.0478 H   0  0  0  0  0  0  0  0  0  0  0  0  # atno 8009 bound_to 7997
  155.1854  140.0390  157.2880 H   0  0  0  0  0  0  0  0  0  0  0  0  # atno 8010 bound_to 7997
  140.1304  144.4648  150.6868 H   0  0  0  0  0  0  0  0  0  0  0  0  # atno 10167 bound_to 10162
  157.1961  131.0665  151.2052 H   0  0  0  0  0  0  0  0  0  0  0  0  # atno 10718 bound_to 10713
  154.8598  135.3571  154.5608 H   0  0  0  0  0  0  0  0  0  0  0  0  # atno 10763 bound_to 10752
  153.6223  135.7005  153.5311 H   0  0  0  0  0  0  0  0  0  0  0  0  # atno 10764 bound_to 10752
  153.3118  135.4176  155.1303 H   0  0  0  0  0  0  0  0  0  0  0  0  # atno 10765 bound_to 10752
  139.8875  134.8551  156.3142 H   0  0  0  0  0  0  0  0  0  0  0  0  # atno 11005 bound_to 11000
  144.9754  140.8409  143.5430 LP  0  0  0  0  0  0  0  0  0  0  0  0  # atno 17320 bound_to 7965
  145.2034  139.2241  143.5181 LP  0  0  0  0  0  0  0  0  0  0  0  0  # atno 17321 bound_to 7965
  140.6820  143.2331  151.5359 LP  0  0  0  0  0  0  0  0  0  0  0  0  # atno 17342 bound_to 10162
  139.5523  144.2365  152.1551 LP  0  0  0  0  0  0  0  0  0  0  0  0  # atno 17343 bound_to 10162
  157.3813  130.7233  149.6632 LP  0  0  0  0  0  0  0  0  0  0  0  0  # atno 17370 bound_to 10713
  155.9706  130.4171  150.4266 LP  0  0  0  0  0  0  0  0  0  0  0  0  # atno 17371 bound_to 10713
  140.9830  133.7255  156.0700 LP  0  0  0  0  0  0  0  0  0  0  0  0  # atno 17394 bound_to 11000
  140.7725  134.3817  157.5505 LP  0  0  0  0  0  0  0  0  0  0  0  0  # atno 17395 bound_to 11000

$$$$
