AV-unprocessed.smi:2145|AV-procd|sdf|8735|dock3
  -GOLD-   2272011503D 1   1.00000     0.00000
 Structure written by MMmdl.
 44 46  0  0  0  0  0  0  0  0  1 V2000
  142.0955  146.1685  154.9345 C   0  0  0  0  0  0  0  0  0  0  0  0
  142.6633  145.1250  155.8953 C   0  0  0  0  0  0  0  0  0  0  0  0
  142.1848  145.0399  157.0258 O   0  0  0  0  0  0  0  0  0  0  0  0
  143.7759  144.2620  155.4065 C   0  0  0  0  0  0  0  0  0  0  0  0
  144.2236  144.3938  154.0729 C   0  0  0  0  0  0  0  0  0  0  0  0
  145.2717  143.5897  153.5862 C   0  0  0  0  0  0  0  0  0  0  0  0
  145.8974  142.6381  154.4151 C   0  0  0  0  0  0  0  0  0  0  0  0
  146.9139  141.8922  153.8578 O   0  0  0  0  0  0  0  0  0  0  0  0
  147.3310  140.7151  154.5365 C   0  0  0  0  0  0  0  0  0  0  0  0
  148.4685  141.0766  155.5083 C   0  0  1  0  0  0  0  0  0  0  0  0
  148.5481  140.0630  156.4888 O   0  0  0  0  0  0  0  0  0  0  0  0
  149.8587  141.1691  154.8435 C   0  0  0  0  0  0  0  0  0  0  0  0
  150.9610  140.9550  155.7721 N   0  0  0  0  0  0  0  0  0  0  0  0
  151.9682  140.0522  155.6779 C   0  0  0  0  0  0  0  0  0  0  0  0
  152.0765  139.1046  154.5259 C   0  0  0  0  0  0  0  0  0  0  0  0
  152.8561  140.0648  156.6723 N   0  0  0  0  0  0  0  0  0  0  0  0
  152.3845  141.0758  157.4869 C   0  0  0  0  0  0  0  0  0  0  0  0
  152.8870  141.5814  158.7074 C   0  0  0  0  0  0  0  0  0  0  0  0
  152.2248  142.6358  159.3700 C   0  0  0  0  0  0  0  0  0  0  0  0
  151.0532  143.1985  158.8232 C   0  0  0  0  0  0  0  0  0  0  0  0
  150.5362  142.7102  157.6078 C   0  0  0  0  0  0  0  0  0  0  0  0
  151.2009  141.6574  156.9502 C   0  0  0  0  0  0  0  0  0  0  0  0
  145.4505  142.5045  155.7529 C   0  0  0  0  0  0  0  0  0  0  0  0
  144.4018  143.3075  156.2415 C   0  0  0  0  0  0  0  0  0  0  0  0
  142.8665  146.8841  154.6491 H   0  0  0  0  0  0  0  0  0  0  0  0
  141.2802  146.7171  155.4064 H   0  0  0  0  0  0  0  0  0  0  0  0
  141.7076  145.6903  154.0348 H   0  0  0  0  0  0  0  0  0  0  0  0
  143.7672  145.1125  153.4073 H   0  0  0  0  0  0  0  0  0  0  0  0
  145.5982  143.7053  152.5631 H   0  0  0  0  0  0  0  0  0  0  0  0
  146.5041  140.2410  155.0686 H   0  0  0  0  0  0  0  0  0  0  0  0
  147.6924  140.0136  153.7853 H   0  0  0  0  0  0  0  0  0  0  0  0
  148.2397  142.0212  156.0017 H   0  0  0  0  0  0  0  0  0  0  0  0
  147.7989  140.1409  157.0600 H   0  0  0  0  0  0  0  0  0  0  0  0
  149.9402  140.4438  154.0333 H   0  0  0  0  0  0  0  0  0  0  0  0
  149.9866  142.1485  154.3809 H   0  0  0  0  0  0  0  0  0  0  0  0
  152.9661  138.4819  154.6270 H   0  0  0  0  0  0  0  0  0  0  0  0
  152.1506  139.6549  153.5878 H   0  0  0  0  0  0  0  0  0  0  0  0
  151.2057  138.4509  154.4873 H   0  0  0  0  0  0  0  0  0  0  0  0
  153.7836  141.1572  159.1342 H   0  0  0  0  0  0  0  0  0  0  0  0
  152.6177  143.0141  160.3023 H   0  0  0  0  0  0  0  0  0  0  0  0
  150.5518  144.0056  159.3372 H   0  0  0  0  0  0  0  0  0  0  0  0
  149.6377  143.1378  157.1884 H   0  0  0  0  0  0  0  0  0  0  0  0
  145.8953  141.7899  156.4287 H   0  0  0  0  0  0  0  0  0  0  0  0
  144.0932  143.1715  157.2672 H   0  0  0  0  0  0  0  0  0  0  0  0
  1  2  1  0  0  0  0
  1 25  1  0  0  0  0
  1 26  1  0  0  0  0
  1 27  1  0  0  0  0
  2  3  2  0  0  0  0
  2  4  1  0  0  0  0
  4 24  1  0  0  0  0
  4  5  2  0  0  0  0
  5  6  1  0  0  0  0
  5 28  1  0  0  0  0
  6  7  2  0  0  0  0
  6 29  1  0  0  0  0
  7  8  1  0  0  0  0
  7 23  1  0  0  0  0
  8  9  1  0  0  0  0
  9 10  1  0  0  0  0
  9 30  1  0  0  0  0
  9 31  1  0  0  0  0
 10 11  1  0  0  0  0
 10 12  1  0  0  0  0
 10 32  1  0  0  0  0
 11 33  1  0  0  0  0
 12 13  1  0  0  0  0
 12 34  1  0  0  0  0
 12 35  1  0  0  0  0
 13 22  1  0  0  0  0
 13 14  1  0  0  0  0
 14 15  1  0  0  0  0
 14 16  2  0  0  0  0
 15 36  1  0  0  0  0
 15 37  1  0  0  0  0
 15 38  1  0  0  0  0
 16 17  1  0  0  0  0
 17 22  2  0  0  0  0
 17 18  1  0  0  0  0
 18 19  2  0  0  0  0
 18 39  1  0  0  0  0
 19 20  1  0  0  0  0
 19 40  1  0  0  0  0
 20 21  2  0  0  0  0
 20 41  1  0  0  0  0
 21 22  1  0  0  0  0
 21 42  1  0  0  0  0
 23 24  2  0  0  0  0
 23 43  1  0  0  0  0
 24 44  1  0  0  0  0
M  END
> <s_m_source_file>
AV-unprocessed.smi

> <i_m_source_file_index>
2145

> <i_lp_mmshare_version>
43012

> <i_f3d_flags>
0

> <s_epik_input>
W0NIM11DKD1PKWMxW2NIXVtjSF1jKFtjSF1bY0hdMSlPW0NIMl1bQ0BIXShbT0hdKVtDSDJdbihjKG4yKVtDSDNdKWMoYzIzKVtjSF1bY0hdW2NIXVtjSF0z

> <s_epik_cmdline>
J2VwaWtfcHl0aG9uJywgJy1waCcsICc3LjAnLCAnLXRuJywgJzgnLCAnLW1hJywgJzIwMCcsICctbWV0YWxfYmluZGluZycsICctaW1hZScsICc8aW5maWxlLm1hZT4nLCAnLW9tYWUnLCAnPG91dGZpbGUubWFlPic=

> <r_lp_tautomer_probability>
0.99995

> <r_epik_Ionization_Penalty>
0.109398

> <r_epik_Ionization_Penalty_Charging>
0

> <r_epik_Ionization_Penalty_Neutral>
0.109398

> <r_epik_State_Penalty>
0.0991698

> <r_epik_Charging_Adjusted_Penalty>
0.0991698

> <i_epik_Tot_Q>
0

> <i_epik_Tot_abs_Q>
0

> <r_epik_Metal_State_Penalty>
0.000107943

> <b_epik_Metal_Only>
0

> <s_lp_Force_Field>
OPLS_2005

> <r_lp_Energy>
22.9418

> <b_lp_Chiralities_Consistent>
1

> <s_lp_Variant>
AV-unprocessed.smi:2145-2

> <Gold.Version>
5.8.1

> <Gold.Id.Protein>
6NUR|6NUR_protein|mol2

> <Gold.PLP.Fitness>
48.8569

> <Gold.PLP.PLP>
-47.3788

> <Gold.PLP.part.hbond>
-1.0000

> <Gold.PLP.part.metal>
0.0000

> <Gold.PLP.part.buried>
-5.7805

> <Gold.PLP.part.nonpolar>
-40.5301

> <Gold.PLP.part.repulsive>
0.1811

> <Gold.PLP.ligand.clash>
0.0000

> <Gold.PLP.ligand.torsion>
0.8802

> <Gold.PLP.Chemscore.Hbond>
1.0000

> <Gold.PLP.Chemscore.CHOScore>
0.0000

> <Gold.PLP.Chemscore.Metal>
0.0000

> <Gold.Chemscore.Hbonds>
donor molecule, donor type, donor heavy atom, donor atom, acceptor molecule, acceptor atom, score
      P1  H  7997  8009       L1    16  0.93

> <Gold.PLP.Chemscore.Internal.Correction>
0.2385

> <Gold.Rescore>
     Score         DG    S(hbond)    S(metal)    S(lipo)     H(rot)  DE(clash)    DE(int)     intcor
     14.78     -16.28       0.72        0.00     120.32       2.22       0.52       0.98       ----

> <Gold.Chemscore.Fitness>
14.7767

> <Gold.Chemscore.DG>
-16.2772

> <Gold.Chemscore.ZeroCoef>
-5.4800

> <Gold.Chemscore.Hbond>
0.7176

> <Gold.Chemscore.Metal>
0.0000

> <Gold.Chemscore.Lipo>
120.3183

> <Gold.Chemscore.Internal_Hbond>
0.0000

> <Gold.Chemscore.DEClash>
0.5209

> <Gold.Chemscore.DEInternal>
0.9796

> <Gold.Chemscore.Rot>
2.2176

> <Gold.Chemscore.Internal.Correction>
   9.000000E+99

> <Gold.Chemscore.Hbonds>
donor molecule, donor type, donor heavy atom, donor atom, acceptor molecule, acceptor atom, score
      P1  H  7997  8009       L1    16  0.76

> <Gold.Chemscore.Hbond.Weighted>
-2.3969

> <Gold.Chemscore.Metal.Weighted>
-0.0000

> <Gold.Chemscore.Lipo.Weighted>
-14.0772

> <Gold.Chemscore.Internal_Hbond.Weighted>
0.0000

> <Gold.Chemscore.DEClash.Weighted>
0.5209

> <Gold.Chemscore.DEInternal.Weighted>
0.9796

> <Gold.Chemscore.Rot.Weighted>
5.6769

> <Gold.Chemscore.Internal.Correction.Weighted>
   9.000000E+99

> <Gold.Protein.RotatedTorsions>
[ 6907 6896 6895 6894 ] final  156.52 input  -60.11 | X-H torsion
[ 7974 7965 7964 7962 ] final    2.42 input  175.53 | X-H torsion
[ 8008 7997 7996 7995 ] final -164.33 input   59.86 | X-H torsion
[ 10167 10162 10161 10158 ] final  -87.02 input  -65.29 | X-H torsion
[ 10718 10713 10712 10709 ] final  135.47 input   66.30 | X-H torsion
[ 10763 10752 10751 10750 ] final  -68.22 input  -60.55 | X-H torsion
[ 11005 11000 10999 10996 ] final  -91.79 input  -57.11 | X-H torsion

> <Gold.Protein.ActiveResidues>
 VAL166  LYS551  ARG553  GLY616  TRP617  ASP618  TYR619  PRO620  LYS621  CYS622 
 ASP623  PHE694  ASN695  SER759  ASP760  ASP761  ALA762  ILE779  LEU786  VAL792 
 PHE793  MET794  SER795  GLU796  ALA797  LYS798  CYS799  TRP800  GLU811  SER814 

> <Gold.Protein.RotatedAtoms>
  152.0285  133.3927  159.4287 H   0  0  0  0  0  0  0  0  0  0  0  0  # atno 6907 bound_to 6896
  150.6884  134.3547  159.4933 H   0  0  0  0  0  0  0  0  0  0  0  0  # atno 6908 bound_to 6896
  152.1330  134.9120  160.0608 H   0  0  0  0  0  0  0  0  0  0  0  0  # atno 6909 bound_to 6896
  146.2444  140.0838  142.8355 H   0  0  0  0  0  0  0  0  0  0  0  0  # atno 7974 bound_to 7965
  155.8341  140.0938  157.1775 H   0  0  0  0  0  0  0  0  0  0  0  0  # atno 8008 bound_to 7997
  154.3980  140.1413  156.3710 H   0  0  0  0  0  0  0  0  0  0  0  0  # atno 8009 bound_to 7997
  155.8135  140.3449  155.5474 H   0  0  0  0  0  0  0  0  0  0  0  0  # atno 8010 bound_to 7997
  140.3885  143.2716  151.9295 H   0  0  0  0  0  0  0  0  0  0  0  0  # atno 10167 bound_to 10162
  157.4567  131.1070  150.9969 H   0  0  0  0  0  0  0  0  0  0  0  0  # atno 10718 bound_to 10713
  154.3859  135.6064  153.5816 H   0  0  0  0  0  0  0  0  0  0  0  0  # atno 10763 bound_to 10752
  152.9787  135.5872  154.4355 H   0  0  0  0  0  0  0  0  0  0  0  0  # atno 10764 bound_to 10752
  154.4132  135.2844  155.2001 H   0  0  0  0  0  0  0  0  0  0  0  0  # atno 10765 bound_to 10752
  141.1537  133.7778  156.9929 H   0  0  0  0  0  0  0  0  0  0  0  0  # atno 11005 bound_to 11000
  145.0709  140.9155  143.4882 LP  0  0  0  0  0  0  0  0  0  0  0  0  # atno 17320 bound_to 7965
  145.0972  139.2848  143.5704 LP  0  0  0  0  0  0  0  0  0  0  0  0  # atno 17321 bound_to 7965
  139.4790  144.5751  151.8025 LP  0  0  0  0  0  0  0  0  0  0  0  0  # atno 17342 bound_to 10162
  140.4865  144.1374  150.5942 LP  0  0  0  0  0  0  0  0  0  0  0  0  # atno 17343 bound_to 10162
  157.0780  130.5891  149.5415 LP  0  0  0  0  0  0  0  0  0  0  0  0  # atno 17370 bound_to 10713
  156.0010  130.5089  150.7663 LP  0  0  0  0  0  0  0  0  0  0  0  0  # atno 17371 bound_to 10713
  140.0991  134.9546  157.1895 LP  0  0  0  0  0  0  0  0  0  0  0  0  # atno 17394 bound_to 11000
  140.3343  134.2775  155.7222 LP  0  0  0  0  0  0  0  0  0  0  0  0  # atno 17395 bound_to 11000

$$$$
