AV-unprocessed.smi:160|AV-procd|sdf|1366|dock2
  -GOLD-   2262019 83D 1   1.00000     0.00000
 Structure written by MMmdl.
 28 29  0  0  0  0  0  0  0  0  2 V2000
  149.7914  136.1062  158.0617 N   0  5  0  0  0  0  0  0  0  0  0  0
  150.5430  135.8779  156.9624 C   0  0  0  0  0  0  0  0  0  0  0  0
  150.7875  134.7803  156.4624 O   0  0  0  0  0  0  0  0  0  0  0  0
  151.1111  137.1224  156.3230 C   0  0  0  0  0  0  0  0  0  0  0  0
  151.8918  137.0387  155.2032 N   0  0  0  0  0  0  0  0  0  0  0  0
  152.1318  138.3295  155.0156 C   0  0  0  0  0  0  0  0  0  0  0  0
  151.5717  139.1313  155.9263 N   0  0  0  0  0  0  0  0  0  0  0  0
  151.5967  140.6292  156.0277 C   0  0  1  0  0  0  0  0  0  0  0  0
  150.9210  141.1370  154.9192 O   0  0  0  0  0  0  0  0  0  0  0  0
  149.6298  141.6347  155.2770 C   0  0  1  0  0  0  0  0  0  0  0  0
  148.5536  141.0082  154.3744 C   0  0  0  0  0  0  0  0  0  0  0  0
  148.8231  141.3004  153.0196 O   0  0  0  0  0  0  0  0  0  0  0  0
  149.4421  141.3089  156.7693 C   0  0  2  0  0  0  0  0  0  0  0  0
  148.7926  142.3787  157.4281 O   0  0  0  0  0  0  0  0  0  0  0  0
  150.8694  141.1566  157.2748 C   0  0  1  0  0  0  0  0  0  0  0  0
  150.9429  140.2911  158.3933 O   0  0  0  0  0  0  0  0  0  0  0  0
  150.8846  138.3511  156.7965 N   0  0  0  0  0  0  0  0  0  0  0  0
  152.6570  140.8823  156.0007 H   0  0  0  0  0  0  0  0  0  0  0  0
  149.6547  142.7182  155.1444 H   0  0  0  0  0  0  0  0  0  0  0  0
  148.8765  140.3850  156.9011 H   0  0  0  0  0  0  0  0  0  0  0  0
  151.2991  142.1290  157.5206 H   0  0  0  0  0  0  0  0  0  0  0  0
  149.0051  136.7626  157.9882 H   0  0  0  0  0  0  0  0  0  0  0  0
  152.7286  138.6984  154.1946 H   0  0  0  0  0  0  0  0  0  0  0  0
  148.4831  139.9304  154.5216 H   0  0  0  0  0  0  0  0  0  0  0  0
  147.5756  141.4298  154.6085 H   0  0  0  0  0  0  0  0  0  0  0  0
  149.1664  140.5214  152.6094 H   0  0  0  0  0  0  0  0  0  0  0  0
  148.8334  143.1419  156.8725 H   0  0  0  0  0  0  0  0  0  0  0  0
  150.6898  139.4228  158.1206 H   0  0  0  0  0  0  0  0  0  0  0  0
  1  2  1  0  0  0  0
  1 22  1  0  0  0  0
  2  3  2  0  0  0  0
  2  4  1  0  0  0  0
  4 17  2  0  0  0  0
  4  5  1  0  0  0  0
  5  6  2  0  0  0  0
  6  7  1  0  0  0  0
  6 23  1  0  0  0  0
  7  8  1  0  0  0  0
  7 17  1  0  0  0  0
  8 18  1  0  0  0  0
  8 15  1  0  0  0  0
  8  9  1  0  0  0  0
  9 10  1  0  0  0  0
 10 19  1  0  0  0  0
 10 11  1  0  0  0  0
 10 13  1  0  0  0  0
 11 12  1  0  0  0  0
 11 24  1  0  0  0  0
 11 25  1  0  0  0  0
 12 26  1  0  0  0  0
 13 20  1  0  0  0  0
 13 14  1  0  0  0  0
 13 15  1  0  0  0  0
 14 27  1  0  0  0  0
 15 21  1  0  0  0  0
 15 16  1  0  0  0  0
 16 28  1  0  0  0  0
M  CHG  1   1  -1
M  END
> <s_m_source_file>
AV-unprocessed.smi

> <i_m_source_file_index>
160

> <i_lp_mmshare_version>
43012

> <i_f3d_flags>
0

> <s_epik_input>
W05IMl1DKD1PKWMxbltjSF1uKG4xKVtDQEBIXTJPW0NASF0oW0NIMl1bT0hdKVtDQEBIXShbT0hdKVtDQEhdMltPSF0=

> <s_epik_cmdline>
J2VwaWtfcHl0aG9uJywgJy1waCcsICc3LjAnLCAnLXRuJywgJzgnLCAnLW1hJywgJzIwMCcsICctbWV0YWxfYmluZGluZycsICctaW1hZScsICc8aW5maWxlLm1hZT4nLCAnLW9tYWUnLCAnPG91dGZpbGUubWFlPic=

> <r_lp_tautomer_probability>
1

> <r_epik_Ionization_Penalty>
6.6993

> <r_epik_Ionization_Penalty_Charging>
6.6993

> <r_epik_Ionization_Penalty_Neutral>
6.01698e-06

> <r_epik_State_Penalty>
6.69929

> <r_epik_Charging_Adjusted_Penalty>
13.3986

> <i_epik_Tot_Q>
-1

> <i_epik_Tot_abs_Q>
1

> <r_epik_Metal_State_Penalty>
2.62798

> <b_epik_Metal_Only>
1

> <s_epik_Chemistry_Notes>
This compound contains an acetal/aminal-like group ( X-CH(R)-Y where X, Y are N, S, or O) that may be acid/base labile, releasing an aldehyde.

> <s_lp_Force_Field>
OPLS_2005

> <r_lp_Energy>
43.6415

> <b_lp_Chiralities_Consistent>
1

> <s_lp_Variant>
AV-unprocessed.smi:160-24

> <Gold.Version>
5.8.1

> <Gold.Id.Protein>
6NUR|6NUR_protein|mol2

> <Gold.PLP.Fitness>
40.3636

> <Gold.PLP.PLP>
-21.7350

> <Gold.PLP.part.hbond>
-5.7218

> <Gold.PLP.part.metal>
0.0000

> <Gold.PLP.part.buried>
0.0251

> <Gold.PLP.part.nonpolar>
-15.5189

> <Gold.PLP.part.repulsive>
0.1892

> <Gold.PLP.ligand.clash>
0.0000

> <Gold.PLP.ligand.torsion>
0.0556

> <Gold.PLP.Chemscore.Hbond>
6.2400

> <Gold.PLP.Chemscore.CHOScore>
0.0000

> <Gold.PLP.Chemscore.Metal>
0.0000

> <Gold.Chemscore.Hbonds>
donor molecule, donor type, donor heavy atom, donor atom, acceptor molecule, acceptor atom, score
      L1  H    12    26       P1  7957  0.75
      L1  H    14    27       P1  8028  1.00
      P1  H  6896  6908       L1     1  0.71
      P1  H  7989  7998       L1     9  0.61
      P1  H  8011  8017       L1    12  0.95
      P1  H 10752 10764       L1     5  1.00

> <Gold.PLP.Chemscore.Internal.Correction>
0.0199

> <Gold.Rescore>
     Score         DG    S(hbond)    S(metal)    S(lipo)     H(rot)  DE(clash)    DE(int)     intcor
      7.87     -11.06       3.85        0.00      26.24       4.04       1.38       1.82       ----

> <Gold.Chemscore.Fitness>
7.8715

> <Gold.Chemscore.DG>
-11.0636

> <Gold.Chemscore.ZeroCoef>
-5.4800

> <Gold.Chemscore.Hbond>
3.8493

> <Gold.Chemscore.Metal>
0.0000

> <Gold.Chemscore.Lipo>
26.2388

> <Gold.Chemscore.Internal_Hbond>
0.0000

> <Gold.Chemscore.DEClash>
1.3770

> <Gold.Chemscore.DEInternal>
1.8150

> <Gold.Chemscore.Rot>
4.0403

> <Gold.Chemscore.Internal.Correction>
   9.000000E+99

> <Gold.Chemscore.Hbonds>
donor molecule, donor type, donor heavy atom, donor atom, acceptor molecule, acceptor atom, score
      L1  H    12    26       P1  7957  0.72
      L1  H    14    27       P1  8028  0.76
      P1  H  6896  6908       L1     1  0.13
      P1  H  7989  7998       L1     9  0.55
      P1  H  8011  8017       L1    12  0.20
      P1  H 10752 10764       L1     5  0.95

> <Gold.Chemscore.Hbond.Weighted>
-12.8567

> <Gold.Chemscore.Metal.Weighted>
-0.0000

> <Gold.Chemscore.Lipo.Weighted>
-3.0699

> <Gold.Chemscore.Internal_Hbond.Weighted>
0.0000

> <Gold.Chemscore.DEClash.Weighted>
1.3770

> <Gold.Chemscore.DEInternal.Weighted>
1.8150

> <Gold.Chemscore.Rot.Weighted>
10.3431

> <Gold.Chemscore.Internal.Correction.Weighted>
   9.000000E+99

> <Gold.Protein.RotatedTorsions>
[ 6907 6896 6895 6894 ] final -172.40 input  -60.11 | X-H torsion
[ 7974 7965 7964 7962 ] final   12.59 input  175.53 | X-H torsion
[ 8008 7997 7996 7995 ] final -100.82 input   59.86 | X-H torsion
[ 10167 10162 10161 10158 ] final  -39.20 input  -65.29 | X-H torsion
[ 10718 10713 10712 10709 ] final   62.34 input   66.30 | X-H torsion
[ 10763 10752 10751 10750 ] final  -52.90 input  -60.55 | X-H torsion
[ 11005 11000 10999 10996 ] final  -89.44 input  -57.11 | X-H torsion

> <Gold.Protein.ActiveResidues>
 VAL166  LYS551  ARG553  GLY616  TRP617  ASP618  TYR619  PRO620  LYS621  CYS622 
 ASP623  PHE694  ASN695  SER759  ASP760  ASP761  ALA762  ILE779  LEU786  VAL792 
 PHE793  MET794  SER795  GLU796  ALA797  LYS798  CYS799  TRP800  GLU811  SER814 

> <Gold.Protein.RotatedAtoms>
  151.5394  133.3435  159.2932 H   0  0  0  0  0  0  0  0  0  0  0  0  # atno 6907 bound_to 6896
  150.8545  134.7882  159.7045 H   0  0  0  0  0  0  0  0  0  0  0  0  # atno 6908 bound_to 6896
  152.4582  134.5252  159.9846 H   0  0  0  0  0  0  0  0  0  0  0  0  # atno 6909 bound_to 6896
  146.2348  139.9313  142.8496 H   0  0  0  0  0  0  0  0  0  0  0  0  # atno 7974 bound_to 7965
  154.8339  140.0438  157.1496 H   0  0  0  0  0  0  0  0  0  0  0  0  # atno 8008 bound_to 7997
  154.9121  140.3015  155.5240 H   0  0  0  0  0  0  0  0  0  0  0  0  # atno 8009 bound_to 7997
  156.2988  140.2356  156.4162 H   0  0  0  0  0  0  0  0  0  0  0  0  # atno 8010 bound_to 7997
  140.7071  143.3229  151.2748 H   0  0  0  0  0  0  0  0  0  0  0  0  # atno 10167 bound_to 10162
  157.5893  130.9045  149.9575 H   0  0  0  0  0  0  0  0  0  0  0  0  # atno 10718 bound_to 10713
  154.1502  135.6491  153.4962 H   0  0  0  0  0  0  0  0  0  0  0  0  # atno 10763 bound_to 10752
  153.0140  135.5336  154.6816 H   0  0  0  0  0  0  0  0  0  0  0  0  # atno 10764 bound_to 10752
  154.6101  135.2953  155.0413 H   0  0  0  0  0  0  0  0  0  0  0  0  # atno 10765 bound_to 10752
  141.1584  133.7630  156.9596 H   0  0  0  0  0  0  0  0  0  0  0  0  # atno 11005 bound_to 11000
  145.2041  140.9867  143.4138 LP  0  0  0  0  0  0  0  0  0  0  0  0  # atno 17320 bound_to 7965
  144.9748  139.3843  143.6291 LP  0  0  0  0  0  0  0  0  0  0  0  0  # atno 17321 bound_to 7965
  139.6689  144.0056  152.2740 LP  0  0  0  0  0  0  0  0  0  0  0  0  # atno 17342 bound_to 10162
  139.9648  144.6534  150.8045 LP  0  0  0  0  0  0  0  0  0  0  0  0  # atno 17343 bound_to 10162
  156.0946  130.3660  150.0330 LP  0  0  0  0  0  0  0  0  0  0  0  0  # atno 17370 bound_to 10713
  156.8456  130.9441  151.3629 LP  0  0  0  0  0  0  0  0  0  0  0  0  # atno 17371 bound_to 10713
  140.1202  134.9422  157.2192 LP  0  0  0  0  0  0  0  0  0  0  0  0  # atno 17394 bound_to 11000
  140.3081  134.3054  155.7273 LP  0  0  0  0  0  0  0  0  0  0  0  0  # atno 17395 bound_to 11000

$$$$
