AV-unprocessed.smi:2985|AV-procd|sdf|11379|dock5
  -GOLD-   2272016303D 1   1.00000     0.00000
 Structure written by MMmdl.
 33 34  0  0  0  0  0  0  0  0  1 V2000
  150.7333  137.0130  154.7449 C   0  0  0  0  0  0  0  0  0  0  0  0
  152.0057  137.2531  155.3201 O   0  0  0  0  0  0  0  0  0  0  0  0
  152.2329  138.6278  155.5777 C   0  0  0  0  0  0  0  0  0  0  0  0
  151.5013  139.0197  156.8677 C   0  0  0  0  0  0  0  0  0  0  0  0
  151.3442  140.4612  156.9744 N   0  0  0  0  0  0  0  0  0  0  0  0
  150.6559  141.2842  156.1470 C   0  0  0  0  0  0  0  0  0  0  0  0
  149.7926  140.6728  154.7377 S   0  0  0  0  0  0  0  0  0  0  0  0
  148.1831  141.4414  155.0759 C   0  0  0  0  0  0  0  0  0  0  0  0
  147.1040  141.0049  154.0881 C   0  0  0  0  0  0  0  0  0  0  0  0
  145.8999  141.5695  154.2132 N   0  0  0  0  0  0  0  0  0  0  0  0
  147.3485  140.1609  153.2290 O   0  0  0  0  0  0  0  0  0  0  0  0
  150.6828  142.5785  156.4655 N   0  0  0  0  0  0  0  0  0  0  0  0
  151.4639  142.5961  157.6047 C   0  0  0  0  0  0  0  0  0  0  0  0
  151.8708  143.6741  158.4231 C   0  0  0  0  0  0  0  0  0  0  0  0
  152.6873  143.4456  159.5501 C   0  0  0  0  0  0  0  0  0  0  0  0
  153.1084  142.1395  159.8739 C   0  0  0  0  0  0  0  0  0  0  0  0
  152.7137  141.0512  159.0721 C   0  0  0  0  0  0  0  0  0  0  0  0
  151.8971  141.2845  157.9495 C   0  0  0  0  0  0  0  0  0  0  0  0
  150.6086  135.9458  154.5625 H   0  0  0  0  0  0  0  0  0  0  0  0
  150.6270  137.5320  153.7913 H   0  0  0  0  0  0  0  0  0  0  0  0
  149.9324  137.3367  155.4107 H   0  0  0  0  0  0  0  0  0  0  0  0
  153.3027  138.8175  155.6808 H   0  0  0  0  0  0  0  0  0  0  0  0
  151.8712  139.2270  154.7404 H   0  0  0  0  0  0  0  0  0  0  0  0
  150.5193  138.5481  156.9124 H   0  0  0  0  0  0  0  0  0  0  0  0
  152.0540  138.6606  157.7363 H   0  0  0  0  0  0  0  0  0  0  0  0
  147.8747  141.1956  156.0929 H   0  0  0  0  0  0  0  0  0  0  0  0
  148.2875  142.5261  155.0259 H   0  0  0  0  0  0  0  0  0  0  0  0
  145.1510  141.3032  153.5904 H   0  0  0  0  0  0  0  0  0  0  0  0
  145.7400  142.2526  154.9394 H   0  0  0  0  0  0  0  0  0  0  0  0
  151.5550  144.6785  158.1825 H   0  0  0  0  0  0  0  0  0  0  0  0
  152.9930  144.2770  160.1683 H   0  0  0  0  0  0  0  0  0  0  0  0
  153.7349  141.9734  160.7380 H   0  0  0  0  0  0  0  0  0  0  0  0
  153.0364  140.0504  159.3175 H   0  0  0  0  0  0  0  0  0  0  0  0
  1  2  1  0  0  0  0
  1 19  1  0  0  0  0
  1 20  1  0  0  0  0
  1 21  1  0  0  0  0
  2  3  1  0  0  0  0
  3  4  1  0  0  0  0
  3 22  1  0  0  0  0
  3 23  1  0  0  0  0
  4  5  1  0  0  0  0
  4 24  1  0  0  0  0
  4 25  1  0  0  0  0
  5 18  1  0  0  0  0
  5  6  1  0  0  0  0
  6  7  1  0  0  0  0
  6 12  2  0  0  0  0
  7  8  1  0  0  0  0
  8  9  1  0  0  0  0
  8 26  1  0  0  0  0
  8 27  1  0  0  0  0
  9 10  1  0  0  0  0
  9 11  2  0  0  0  0
 10 28  1  0  0  0  0
 10 29  1  0  0  0  0
 12 13  1  0  0  0  0
 13 18  2  0  0  0  0
 13 14  1  0  0  0  0
 14 15  2  0  0  0  0
 14 30  1  0  0  0  0
 15 16  1  0  0  0  0
 15 31  1  0  0  0  0
 16 17  2  0  0  0  0
 16 32  1  0  0  0  0
 17 18  1  0  0  0  0
 17 33  1  0  0  0  0
M  END
> <s_m_source_file>
AV-unprocessed.smi

> <i_m_source_file_index>
2985

> <i_lp_mmshare_version>
43012

> <i_f3d_flags>
0

> <s_epik_input>
W2NIXTFbY0hdW2NIXVtjSF1jKGMxMiluKFtDSDJdW0NIMl1PW0NIM10pYyhuMilTW0NIMl1DKD1PKVtOSDJd

> <s_epik_cmdline>
J2VwaWtfcHl0aG9uJywgJy1waCcsICc3LjAnLCAnLXRuJywgJzgnLCAnLW1hJywgJzIwMCcsICctbWV0YWxfYmluZGluZycsICctaW1hZScsICc8aW5maWxlLm1hZT4nLCAnLW9tYWUnLCAnPG91dGZpbGUubWFlPic=

> <r_epik_Ionization_Penalty>
0.0273334

> <r_epik_Ionization_Penalty_Charging>
0

> <r_epik_Ionization_Penalty_Neutral>
0.0273334

> <r_epik_State_Penalty>
0.0223655

> <r_epik_Charging_Adjusted_Penalty>
0.0223655

> <i_epik_Tot_Q>
0

> <i_epik_Tot_abs_Q>
0

> <r_epik_Metal_State_Penalty>
0.0213644

> <b_epik_Metal_Only>
0

> <s_lp_Force_Field>
OPLS_2005

> <r_lp_Energy>
5.41897

> <b_lp_Chiralities_Consistent>
1

> <s_lp_Variant>
AV-unprocessed.smi:2985-1

> <Gold.Version>
5.8.1

> <Gold.Id.Protein>
6NUR|6NUR_protein|mol2

> <Gold.PLP.Fitness>
41.5032

> <Gold.PLP.PLP>
-36.2666

> <Gold.PLP.part.hbond>
-2.0000

> <Gold.PLP.part.metal>
0.0000

> <Gold.PLP.part.buried>
-5.1633

> <Gold.PLP.part.nonpolar>
-32.5073

> <Gold.PLP.part.repulsive>
2.5082

> <Gold.PLP.ligand.clash>
0.0000

> <Gold.PLP.ligand.torsion>
0.2522

> <Gold.PLP.Chemscore.Hbond>
1.9040

> <Gold.PLP.Chemscore.CHOScore>
0.0000

> <Gold.PLP.Chemscore.Metal>
0.0000

> <Gold.Chemscore.Hbonds>
donor molecule, donor type, donor heavy atom, donor atom, acceptor molecule, acceptor atom, score
      L1  H    10    28       P1 10175  1.00
      P1  H 10752 10765       L1     2  0.91

> <Gold.PLP.Chemscore.Internal.Correction>
0.0290

> <Gold.Rescore>
     Score         DG    S(hbond)    S(metal)    S(lipo)     H(rot)  DE(clash)    DE(int)     intcor
     15.12     -15.46       1.94        0.00      88.57       2.68       0.19       0.15       ----

> <Gold.Chemscore.Fitness>
15.1224

> <Gold.Chemscore.DG>
-15.4637

> <Gold.Chemscore.ZeroCoef>
-5.4800

> <Gold.Chemscore.Hbond>
1.9419

> <Gold.Chemscore.Metal>
0.0000

> <Gold.Chemscore.Lipo>
88.5652

> <Gold.Chemscore.Internal_Hbond>
0.0000

> <Gold.Chemscore.DEClash>
0.1886

> <Gold.Chemscore.DEInternal>
0.1526

> <Gold.Chemscore.Rot>
2.6814

> <Gold.Chemscore.Internal.Correction>
   9.000000E+99

> <Gold.Chemscore.Hbonds>
donor molecule, donor type, donor heavy atom, donor atom, acceptor molecule, acceptor atom, score
      L1  H    10    28       P1 10175  0.29
      P1  H 10752 10765       L1     2  0.22

> <Gold.Chemscore.Hbond.Weighted>
-6.4859

> <Gold.Chemscore.Metal.Weighted>
-0.0000

> <Gold.Chemscore.Lipo.Weighted>
-10.3621

> <Gold.Chemscore.Internal_Hbond.Weighted>
0.0000

> <Gold.Chemscore.DEClash.Weighted>
0.1886

> <Gold.Chemscore.DEInternal.Weighted>
0.1526

> <Gold.Chemscore.Rot.Weighted>
6.8644

> <Gold.Chemscore.Internal.Correction.Weighted>
   9.000000E+99

> <Gold.Protein.RotatedTorsions>
[ 6907 6896 6895 6894 ] final   73.70 input  -60.11 | X-H torsion
[ 7974 7965 7964 7962 ] final -179.28 input  175.53 | X-H torsion
[ 8008 7997 7996 7995 ] final  144.11 input   59.86 | X-H torsion
[ 10167 10162 10161 10158 ] final   90.51 input  -65.29 | X-H torsion
[ 10718 10713 10712 10709 ] final  -97.11 input   66.30 | X-H torsion
[ 10763 10752 10751 10750 ] final -173.53 input  -60.55 | X-H torsion
[ 11005 11000 10999 10996 ] final  -65.05 input  -57.11 | X-H torsion

> <Gold.Protein.ActiveResidues>
 VAL166  LYS551  ARG553  GLY616  TRP617  ASP618  TYR619  PRO620  LYS621  CYS622 
 ASP623  PHE694  ASN695  SER759  ASP760  ASP761  ALA762  ILE779  LEU786  VAL792 
 PHE793  MET794  SER795  GLU796  ALA797  LYS798  CYS799  TRP800  GLU811  SER814 

> <Gold.Protein.RotatedAtoms>
  152.4937  134.4382  159.9534 H   0  0  0  0  0  0  0  0  0  0  0  0  # atno 6907 bound_to 6896
  151.4365  133.3649  159.2783 H   0  0  0  0  0  0  0  0  0  0  0  0  # atno 6908 bound_to 6896
  150.9118  134.8558  159.7490 H   0  0  0  0  0  0  0  0  0  0  0  0  # atno 6909 bound_to 6896
  144.7135  140.0742  143.6428 H   0  0  0  0  0  0  0  0  0  0  0  0  # atno 7974 bound_to 7965
  156.2915  140.2244  156.5001 H   0  0  0  0  0  0  0  0  0  0  0  0  # atno 8008 bound_to 7997
  154.7697  140.0467  157.1063 H   0  0  0  0  0  0  0  0  0  0  0  0  # atno 8009 bound_to 7997
  154.9889  140.3087  155.4918 H   0  0  0  0  0  0  0  0  0  0  0  0  # atno 8010 bound_to 7997
  139.8466  144.6614  150.9219 H   0  0  0  0  0  0  0  0  0  0  0  0  # atno 10167 bound_to 10162
  156.0076  130.5180  150.6326 H   0  0  0  0  0  0  0  0  0  0  0  0  # atno 10718 bound_to 10713
  154.6068  135.2860  155.0476 H   0  0  0  0  0  0  0  0  0  0  0  0  # atno 10763 bound_to 10752
  154.1720  135.6471  153.5016 H   0  0  0  0  0  0  0  0  0  0  0  0  # atno 10764 bound_to 10752
  153.0179  135.5403  154.6807 H   0  0  0  0  0  0  0  0  0  0  0  0  # atno 10765 bound_to 10752
  141.1443  133.6675  156.5927 H   0  0  0  0  0  0  0  0  0  0  0  0  # atno 11005 bound_to 11000
  145.9758  139.2903  143.1072 LP  0  0  0  0  0  0  0  0  0  0  0  0  # atno 17320 bound_to 7965
  145.9066  140.9208  143.0475 LP  0  0  0  0  0  0  0  0  0  0  0  0  # atno 17321 bound_to 7965
  140.7792  143.3864  151.1386 LP  0  0  0  0  0  0  0  0  0  0  0  0  # atno 17342 bound_to 10162
  139.7506  143.8785  152.3075 LP  0  0  0  0  0  0  0  0  0  0  0  0  # atno 17343 bound_to 10162
  157.4121  131.0825  151.1211 LP  0  0  0  0  0  0  0  0  0  0  0  0  # atno 17370 bound_to 10713
  157.1839  130.6322  149.5681 LP  0  0  0  0  0  0  0  0  0  0  0  0  # atno 17371 bound_to 10713
  140.3750  134.7573  157.4624 LP  0  0  0  0  0  0  0  0  0  0  0  0  # atno 17394 bound_to 11000
  140.0681  134.5901  155.8672 LP  0  0  0  0  0  0  0  0  0  0  0  0  # atno 17395 bound_to 11000

$$$$
