AV-unprocessed.smi:447|AV-procd|sdf|2603|dock5
  -GOLD-   2262023 03D 1   1.00000     0.00000
 Structure written by MMmdl.
 46 48  0  0  0  0  0  0  0  0  2 V2000
  146.5144  142.7664  153.8620 C   0  0  0  0  0  0  0  0  0  0  0  0
  147.3773  141.6414  154.4230 C   0  0  0  0  0  0  0  0  0  0  0  0
  147.2339  140.4914  154.0099 O   0  0  0  0  0  0  0  0  0  0  0  0
  148.2690  141.9846  155.3658 N   0  0  0  0  0  0  0  0  0  0  0  0
  149.1668  141.0573  156.0497 C   0  0  2  0  0  0  0  0  0  0  0  0
  148.3502  139.9570  156.7395 C   0  0  0  0  0  0  0  0  0  0  0  0
  150.0593  141.7492  157.0395 C   0  0  0  0  0  0  0  0  0  0  0  0
  150.1525  143.0965  157.2319 N   0  3  0  0  0  0  0  0  0  0  0  0
  151.0869  143.3694  158.2310 C   0  0  0  0  0  0  0  0  0  0  0  0
  151.5235  144.5787  158.7636 C   0  0  0  0  0  0  0  0  0  0  0  0
  152.5018  144.5074  159.7769 C   0  0  0  0  0  0  0  0  0  0  0  0
  153.0082  143.2693  160.2221 C   0  0  0  0  0  0  0  0  0  0  0  0
  152.5553  142.0501  159.6765 C   0  0  0  0  0  0  0  0  0  0  0  0
  151.5859  142.1285  158.6765 C   0  0  0  0  0  0  0  0  0  0  0  0
  150.9169  141.1576  157.9207 N   0  0  0  0  0  0  0  0  0  0  0  0
  151.2066  139.7325  158.1490 C   0  0  0  0  0  0  0  0  0  0  0  0
  152.1373  139.1319  157.0767 C   0  0  1  0  0  0  0  0  0  0  0  0
  153.4590  139.0415  157.5721 O   0  0  0  0  0  0  0  0  0  0  0  0
  151.6180  137.7921  156.5821 C   0  0  0  0  0  0  0  0  0  0  0  0
  151.5352  136.6868  157.4575 C   0  0  0  0  0  0  0  0  0  0  0  0
  151.0495  135.4488  156.9931 C   0  0  0  0  0  0  0  0  0  0  0  0
  150.6418  135.3099  155.6526 C   0  0  0  0  0  0  0  0  0  0  0  0
  150.7174  136.4102  154.7771 C   0  0  0  0  0  0  0  0  0  0  0  0
  151.2031  137.6484  155.2407 C   0  0  0  0  0  0  0  0  0  0  0  0
  147.0534  143.7146  153.8630 H   0  0  0  0  0  0  0  0  0  0  0  0
  145.6112  142.8822  154.4614 H   0  0  0  0  0  0  0  0  0  0  0  0
  146.2188  142.5460  152.8356 H   0  0  0  0  0  0  0  0  0  0  0  0
  148.3147  142.9542  155.6445 H   0  0  0  0  0  0  0  0  0  0  0  0
  149.7890  140.5830  155.2898 H   0  0  0  0  0  0  0  0  0  0  0  0
  149.0045  139.2229  157.2112 H   0  0  0  0  0  0  0  0  0  0  0  0
  147.7242  139.4251  156.0225 H   0  0  0  0  0  0  0  0  0  0  0  0
  147.6984  140.3670  157.5118 H   0  0  0  0  0  0  0  0  0  0  0  0
  151.1397  145.5287  158.4217 H   0  0  0  0  0  0  0  0  0  0  0  0
  152.8736  145.4201  160.2198 H   0  0  0  0  0  0  0  0  0  0  0  0
  153.7606  143.2531  160.9972 H   0  0  0  0  0  0  0  0  0  0  0  0
  152.9565  141.1087  160.0212 H   0  0  0  0  0  0  0  0  0  0  0  0
  151.6177  139.6025  159.1503 H   0  0  0  0  0  0  0  0  0  0  0  0
  150.2517  139.2056  158.1496 H   0  0  0  0  0  0  0  0  0  0  0  0
  152.1740  139.8133  156.2269 H   0  0  0  0  0  0  0  0  0  0  0  0
  153.4179  138.8411  158.4949 H   0  0  0  0  0  0  0  0  0  0  0  0
  151.8431  136.7853  158.4882 H   0  0  0  0  0  0  0  0  0  0  0  0
  150.9897  134.6061  157.6660 H   0  0  0  0  0  0  0  0  0  0  0  0
  150.2703  134.3603  155.2966 H   0  0  0  0  0  0  0  0  0  0  0  0
  150.4026  136.3048  153.7493 H   0  0  0  0  0  0  0  0  0  0  0  0
  151.2560  138.4869  154.5617 H   0  0  0  0  0  0  0  0  0  0  0  0
  149.6188  143.7781  156.7082 H   0  0  0  0  0  0  0  0  0  0  0  0
  1  2  1  0  0  0  0
  1 25  1  0  0  0  0
  1 26  1  0  0  0  0
  1 27  1  0  0  0  0
  2  3  2  0  0  0  0
  2  4  1  0  0  0  0
  4  5  1  0  0  0  0
  4 28  1  0  0  0  0
  5  6  1  0  0  0  0
  5  7  1  0  0  0  0
  5 29  1  0  0  0  0
  6 30  1  0  0  0  0
  6 31  1  0  0  0  0
  6 32  1  0  0  0  0
  7 15  1  0  0  0  0
  7  8  2  0  0  0  0
  8  9  1  0  0  0  0
  8 46  1  0  0  0  0
  9 14  2  0  0  0  0
  9 10  1  0  0  0  0
 10 11  2  0  0  0  0
 10 33  1  0  0  0  0
 11 12  1  0  0  0  0
 11 34  1  0  0  0  0
 12 13  2  0  0  0  0
 12 35  1  0  0  0  0
 13 14  1  0  0  0  0
 13 36  1  0  0  0  0
 14 15  1  0  0  0  0
 15 16  1  0  0  0  0
 16 17  1  0  0  0  0
 16 37  1  0  0  0  0
 16 38  1  0  0  0  0
 17 18  1  0  0  0  0
 17 19  1  0  0  0  0
 17 39  1  0  0  0  0
 18 40  1  0  0  0  0
 19 24  1  0  0  0  0
 19 20  2  0  0  0  0
 20 21  1  0  0  0  0
 20 41  1  0  0  0  0
 21 22  2  0  0  0  0
 21 42  1  0  0  0  0
 22 23  1  0  0  0  0
 22 43  1  0  0  0  0
 23 24  2  0  0  0  0
 23 44  1  0  0  0  0
 24 45  1  0  0  0  0
M  CHG  1   8   1
M  END
> <s_m_source_file>
AV-unprocessed.smi

> <i_m_source_file_index>
447

> <i_lp_mmshare_version>
43012

> <i_f3d_flags>
0

> <s_epik_input>
W0NIM11DKD1PKVtOSF1bQ0BIXShbQ0gzXSljKG4xKW4oYyhjMTIpW2NIXVtjSF1bY0hdW2NIXTIpW0NIMl1bQ0BIXShbT0hdKWMzW2NIXVtjSF1bY0hdW2NIXVtjSF0z

> <s_epik_cmdline>
J2VwaWtfcHl0aG9uJywgJy1waCcsICc3LjAnLCAnLXRuJywgJzgnLCAnLW1hJywgJzIwMCcsICctbWV0YWxfYmluZGluZycsICctaW1hZScsICc8aW5maWxlLm1hZT4nLCAnLW9tYWUnLCAnPG91dGZpbGUubWFlPic=

> <r_epik_Ionization_Penalty>
0.950381

> <r_epik_Ionization_Penalty_Charging>
0.950379

> <r_epik_Ionization_Penalty_Neutral>
1.42115e-06

> <r_epik_State_Penalty>
0.994584

> <r_epik_Charging_Adjusted_Penalty>
1.94496

> <i_epik_Tot_Q>
1

> <i_epik_Tot_abs_Q>
1

> <r_epik_Metal_State_Penalty>
1.10485

> <b_epik_Metal_Only>
0

> <s_lp_Force_Field>
OPLS_2005

> <r_lp_Energy>
11.1979

> <b_lp_Chiralities_Consistent>
1

> <s_lp_Variant>
AV-unprocessed.smi:447-7

> <Gold.Version>
5.8.1

> <Gold.Id.Protein>
6NUR|6NUR_protein|mol2

> <Gold.PLP.Fitness>
54.5196

> <Gold.PLP.PLP>
-44.4182

> <Gold.PLP.part.hbond>
-3.0000

> <Gold.PLP.part.metal>
0.0000

> <Gold.PLP.part.buried>
-7.4662

> <Gold.PLP.part.nonpolar>
-35.2658

> <Gold.PLP.part.repulsive>
0.2582

> <Gold.PLP.ligand.clash>
0.0000

> <Gold.PLP.ligand.torsion>
1.0021

> <Gold.PLP.Chemscore.Hbond>
4.0000

> <Gold.PLP.Chemscore.CHOScore>
0.0000

> <Gold.PLP.Chemscore.Metal>
0.0000

> <Gold.Chemscore.Hbonds>
donor molecule, donor type, donor heavy atom, donor atom, acceptor molecule, acceptor atom, score
      L1  H     4    28       P1  8028  1.00
      L1  H     8    46       P1  8028  2.00
      P1  H  7997  8008       L1    18  1.00

> <Gold.PLP.Chemscore.Internal.Correction>
0.1055

> <Gold.Rescore>
     Score         DG    S(hbond)    S(metal)    S(lipo)     H(rot)  DE(clash)    DE(int)     intcor
     21.41     -22.62       2.85        0.00     117.76       2.41       0.28       0.93       ----

> <Gold.Chemscore.Fitness>
21.4089

> <Gold.Chemscore.DG>
-22.6194

> <Gold.Chemscore.ZeroCoef>
-5.4800

> <Gold.Chemscore.Hbond>
2.8546

> <Gold.Chemscore.Metal>
0.0000

> <Gold.Chemscore.Lipo>
117.7580

> <Gold.Chemscore.Internal_Hbond>
0.0000

> <Gold.Chemscore.DEClash>
0.2822

> <Gold.Chemscore.DEInternal>
0.9284

> <Gold.Chemscore.Rot>
2.4112

> <Gold.Chemscore.Internal.Correction>
   9.000000E+99

> <Gold.Chemscore.Hbonds>
donor molecule, donor type, donor heavy atom, donor atom, acceptor molecule, acceptor atom, score
      L1  H     4    28       P1  8028  0.96
      L1  H     8    46       P1  8028  0.96
      P1  H  7997  8008       L1    18  0.81

> <Gold.Chemscore.Hbond.Weighted>
-9.5344

> <Gold.Chemscore.Metal.Weighted>
-0.0000

> <Gold.Chemscore.Lipo.Weighted>
-13.7777

> <Gold.Chemscore.Internal_Hbond.Weighted>
0.0000

> <Gold.Chemscore.DEClash.Weighted>
0.2822

> <Gold.Chemscore.DEInternal.Weighted>
0.9284

> <Gold.Chemscore.Rot.Weighted>
6.1727

> <Gold.Chemscore.Internal.Correction.Weighted>
   9.000000E+99

> <Gold.Protein.RotatedTorsions>
[ 6907 6896 6895 6894 ] final   39.87 input  -60.11 | X-H torsion
[ 7974 7965 7964 7962 ] final -118.63 input  175.53 | X-H torsion
[ 8008 7997 7996 7995 ] final  -70.38 input   59.86 | X-H torsion
[ 10167 10162 10161 10158 ] final   85.11 input  -65.29 | X-H torsion
[ 10718 10713 10712 10709 ] final   30.83 input   66.30 | X-H torsion
[ 10763 10752 10751 10750 ] final  161.94 input  -60.55 | X-H torsion
[ 11005 11000 10999 10996 ] final  122.86 input  -57.11 | X-H torsion

> <Gold.Protein.ActiveResidues>
 VAL166  LYS551  ARG553  GLY616  TRP617  ASP618  TYR619  PRO620  LYS621  CYS622 
 ASP623  PHE694  ASN695  SER759  ASP760  ASP761  ALA762  ILE779  LEU786  VAL792 
 PHE793  MET794  SER795  GLU796  ALA797  LYS798  CYS799  TRP800  GLU811  SER814 

> <Gold.Protein.RotatedAtoms>
  152.1752  134.8801  160.0530 H   0  0  0  0  0  0  0  0  0  0  0  0  # atno 6907 bound_to 6896
  151.9746  133.3732  159.4092 H   0  0  0  0  0  0  0  0  0  0  0  0  # atno 6908 bound_to 6896
  150.6908  134.4027  159.5170 H   0  0  0  0  0  0  0  0  0  0  0  0  # atno 6909 bound_to 6896
  145.0717  140.8363  143.4092 H   0  0  0  0  0  0  0  0  0  0  0  0  # atno 7974 bound_to 7965
  154.5007  140.0835  156.7792 H   0  0  0  0  0  0  0  0  0  0  0  0  # atno 8008 bound_to 7997
  155.4009  140.3437  155.4239 H   0  0  0  0  0  0  0  0  0  0  0  0  # atno 8009 bound_to 7997
  156.1453  140.1542  156.8844 H   0  0  0  0  0  0  0  0  0  0  0  0  # atno 8010 bound_to 7997
  139.9011  144.6329  150.8636 H   0  0  0  0  0  0  0  0  0  0  0  0  # atno 10167 bound_to 10162
  157.2647  130.7178  149.6472 H   0  0  0  0  0  0  0  0  0  0  0  0  # atno 10718 bound_to 10713
  154.2707  135.2766  155.2739 H   0  0  0  0  0  0  0  0  0  0  0  0  # atno 10763 bound_to 10752
  154.5304  135.5731  153.6757 H   0  0  0  0  0  0  0  0  0  0  0  0  # atno 10764 bound_to 10752
  152.9945  135.6226  154.2861 H   0  0  0  0  0  0  0  0  0  0  0  0  # atno 10765 bound_to 10752
  139.9287  134.9641  156.8172 H   0  0  0  0  0  0  0  0  0  0  0  0  # atno 11005 bound_to 11000
  145.1285  139.2647  143.5552 LP  0  0  0  0  0  0  0  0  0  0  0  0  # atno 17320 bound_to 7965
  146.3529  140.0929  142.8611 LP  0  0  0  0  0  0  0  0  0  0  0  0  # atno 17321 bound_to 7965
  140.7706  143.3436  151.2156 LP  0  0  0  0  0  0  0  0  0  0  0  0  # atno 17342 bound_to 10162
  139.7025  143.9510  152.2912 LP  0  0  0  0  0  0  0  0  0  0  0  0  # atno 17343 bound_to 10162
  155.9663  130.4386  150.5225 LP  0  0  0  0  0  0  0  0  0  0  0  0  # atno 17370 bound_to 10713
  157.3137  131.0668  151.1982 LP  0  0  0  0  0  0  0  0  0  0  0  0  # atno 17371 bound_to 10713
  140.6263  133.9947  155.7641 LP  0  0  0  0  0  0  0  0  0  0  0  0  # atno 17394 bound_to 11000
  141.0861  133.9988  157.3310 LP  0  0  0  0  0  0  0  0  0  0  0  0  # atno 17395 bound_to 11000

$$$$
