AV-unprocessed.smi:1586|AV-procd|sdf|6373|dock8
  -GOLD-   22720 7 03D 1   1.00000     0.00000
 Structure written by MMmdl.
 47 48  0  0  0  0  0  0  0  0  2 V2000
  146.2364  128.5803  151.7624 C   0  0  0  0  0  0  0  0  0  0  0  0
  146.5401  129.5551  152.9093 C   0  0  0  0  0  0  0  0  0  0  0  0
  147.0317  130.8709  152.4292 N   0  3  0  0  0  0  0  0  0  0  0  0
  147.6759  131.6888  153.4879 C   0  0  0  0  0  0  0  0  0  0  0  0
  148.1753  133.0265  152.9022 C   0  0  0  0  0  0  0  0  0  0  0  0
  147.0765  133.8180  152.3302 N   0  0  0  0  0  0  0  0  0  0  0  0
  146.0734  134.3185  153.2969 C   0  0  2  0  0  0  0  0  0  0  0  0
  145.0208  135.1925  152.5748 C   0  0  0  0  0  0  0  0  0  0  0  0
  146.7305  135.1204  154.4545 C   0  0  0  0  0  0  0  0  0  0  0  0
  147.6917  136.1104  153.9774 N   0  0  0  0  0  0  0  0  0  0  0  0
  148.2796  137.0343  154.7520 C   0  0  0  0  0  0  0  0  0  0  0  0
  148.0540  137.1494  155.9578 O   0  0  0  0  0  0  0  0  0  0  0  0
  149.1297  137.7997  154.0468 N   0  0  0  0  0  0  0  0  0  0  0  0
  149.9314  138.8662  154.5280 C   0  0  0  0  0  0  0  0  0  0  0  0
  149.3571  139.9365  155.2638 C   0  0  0  0  0  0  0  0  0  0  0  0
  150.4322  140.7354  155.5351 C   0  0  0  0  0  0  0  0  0  0  0  0
  150.5772  142.0272  156.2640 C   0  0  0  0  0  0  0  0  0  0  0  0
  151.5664  140.1978  155.0100 O   0  0  0  0  0  0  0  0  0  0  0  0
  151.2392  138.9986  154.3665 N   0  0  0  0  0  0  0  0  0  0  0  0
  146.5243  133.0029  151.2372 C   0  0  0  0  0  0  0  0  0  0  0  0
  145.9723  131.6508  151.7425 C   0  0  0  0  0  0  0  0  0  0  0  0
  145.7866  127.6653  152.1483 H   0  0  0  0  0  0  0  0  0  0  0  0
  147.1373  128.2913  151.2218 H   0  0  0  0  0  0  0  0  0  0  0  0
  145.5371  129.0153  151.0479 H   0  0  0  0  0  0  0  0  0  0  0  0
  145.6183  129.7066  153.4727 H   0  0  0  0  0  0  0  0  0  0  0  0
  147.2589  129.1178  153.6040 H   0  0  0  0  0  0  0  0  0  0  0  0
  146.9856  131.8524  154.3163 H   0  0  0  0  0  0  0  0  0  0  0  0
  148.5300  131.1522  153.8992 H   0  0  0  0  0  0  0  0  0  0  0  0
  148.7328  133.5921  153.6458 H   0  0  0  0  0  0  0  0  0  0  0  0
  148.9026  132.8220  152.1151 H   0  0  0  0  0  0  0  0  0  0  0  0
  145.5515  133.4719  153.7394 H   0  0  0  0  0  0  0  0  0  0  0  0
  144.3321  135.6617  153.2769 H   0  0  0  0  0  0  0  0  0  0  0  0
  144.3945  134.6123  151.8984 H   0  0  0  0  0  0  0  0  0  0  0  0
  145.4936  135.9901  152.0008 H   0  0  0  0  0  0  0  0  0  0  0  0
  145.9981  135.6673  155.0469 H   0  0  0  0  0  0  0  0  0  0  0  0
  147.2421  134.4438  155.1398 H   0  0  0  0  0  0  0  0  0  0  0  0
  147.9295  136.0822  152.9964 H   0  0  0  0  0  0  0  0  0  0  0  0
  149.2202  137.5928  153.0631 H   0  0  0  0  0  0  0  0  0  0  0  0
  148.3271  140.0959  155.5458 H   0  0  0  0  0  0  0  0  0  0  0  0
  149.7557  142.1719  156.9659 H   0  0  0  0  0  0  0  0  0  0  0  0
  150.5788  142.8650  155.5666 H   0  0  0  0  0  0  0  0  0  0  0  0
  151.5103  142.0536  156.8274 H   0  0  0  0  0  0  0  0  0  0  0  0
  145.7598  133.5450  150.6840 H   0  0  0  0  0  0  0  0  0  0  0  0
  147.3153  132.8171  150.5091 H   0  0  0  0  0  0  0  0  0  0  0  0
  145.6053  131.0781  150.8901 H   0  0  0  0  0  0  0  0  0  0  0  0
  145.1187  131.7936  152.4059 H   0  0  0  0  0  0  0  0  0  0  0  0
  147.7391  130.6837  151.7331 H   0  0  0  0  0  0  0  0  0  0  0  0
  1  2  1  0  0  0  0
  1 22  1  0  0  0  0
  1 23  1  0  0  0  0
  1 24  1  0  0  0  0
  2  3  1  0  0  0  0
  2 25  1  0  0  0  0
  2 26  1  0  0  0  0
  3 21  1  0  0  0  0
  3  4  1  0  0  0  0
  3 47  1  0  0  0  0
  4  5  1  0  0  0  0
  4 27  1  0  0  0  0
  4 28  1  0  0  0  0
  5  6  1  0  0  0  0
  5 29  1  0  0  0  0
  5 30  1  0  0  0  0
  6  7  1  0  0  0  0
  6 20  1  0  0  0  0
  7  8  1  0  0  0  0
  7  9  1  0  0  0  0
  7 31  1  0  0  0  0
  8 32  1  0  0  0  0
  8 33  1  0  0  0  0
  8 34  1  0  0  0  0
  9 10  1  0  0  0  0
  9 35  1  0  0  0  0
  9 36  1  0  0  0  0
 10 11  1  0  0  0  0
 10 37  1  0  0  0  0
 11 12  2  0  0  0  0
 11 13  1  0  0  0  0
 13 14  1  0  0  0  0
 13 38  1  0  0  0  0
 14 19  2  0  0  0  0
 14 15  1  0  0  0  0
 15 16  2  0  0  0  0
 15 39  1  0  0  0  0
 16 17  1  0  0  0  0
 16 18  1  0  0  0  0
 17 40  1  0  0  0  0
 17 41  1  0  0  0  0
 17 42  1  0  0  0  0
 18 19  1  0  0  0  0
 20 21  1  0  0  0  0
 20 43  1  0  0  0  0
 20 44  1  0  0  0  0
 21 45  1  0  0  0  0
 21 46  1  0  0  0  0
M  CHG  1   3   1
M  END
> <s_m_source_file>
AV-unprocessed.smi

> <i_m_source_file_index>
1586

> <i_lp_mmshare_version>
43012

> <i_f3d_flags>
0

> <s_epik_input>
W0NIM11bQ0gyXU4xW0NIMl1bQ0gyXU4oW0NIMl1bQ0gyXTEpW0NASF0oW0NIM10pW0NIMl1bTkhdQyg9TylbTkhdYzJbY0hdYyhbQ0gzXSlvbjI=

> <s_epik_cmdline>
J2VwaWtfcHl0aG9uJywgJy1waCcsICc3LjAnLCAnLXRuJywgJzgnLCAnLW1hJywgJzIwMCcsICctbWV0YWxfYmluZGluZycsICctaW1hZScsICc8aW5maWxlLm1hZT4nLCAnLW9tYWUnLCAnPG91dGZpbGUubWFlPic=

> <r_epik_Ionization_Penalty>
0.0459786

> <r_epik_Ionization_Penalty_Charging>
0.0453654

> <r_epik_Ionization_Penalty_Neutral>
0.000613264

> <r_epik_State_Penalty>
0.163057

> <r_epik_Charging_Adjusted_Penalty>
0.208422

> <i_epik_Tot_Q>
1

> <i_epik_Tot_abs_Q>
1

> <r_epik_Metal_State_Penalty>
0.17399

> <b_epik_Metal_Only>
0

> <s_lp_Force_Field>
OPLS_2005

> <r_lp_Energy>
17.9393

> <b_lp_Chiralities_Consistent>
1

> <s_lp_Variant>
AV-unprocessed.smi:1586-1

> <Gold.Version>
5.8.1

> <Gold.Id.Protein>
6NUR|6NUR_protein|mol2

> <Gold.PLP.Fitness>
40.5641

> <Gold.PLP.PLP>
-32.1210

> <Gold.PLP.part.hbond>
-4.5343

> <Gold.PLP.part.metal>
0.0000

> <Gold.PLP.part.buried>
-4.3986

> <Gold.PLP.part.nonpolar>
-24.7785

> <Gold.PLP.part.repulsive>
0.8696

> <Gold.PLP.ligand.clash>
0.0000

> <Gold.PLP.ligand.torsion>
0.6998

> <Gold.PLP.Chemscore.Hbond>
3.2608

> <Gold.PLP.Chemscore.CHOScore>
0.0000

> <Gold.PLP.Chemscore.Metal>
0.0000

> <Gold.Chemscore.Hbonds>
donor molecule, donor type, donor heavy atom, donor atom, acceptor molecule, acceptor atom, score
      L1  H     3    47       P1 10747  1.00
      L1  H    10    37       P1  7948  1.00
      L1  H    13    38       P1  7948  0.85
      P1  H  7989  7998       L1    18  0.35

> <Gold.PLP.Chemscore.Internal.Correction>
0.0603

> <Gold.Rescore>
     Score         DG    S(hbond)    S(metal)    S(lipo)     H(rot)  DE(clash)    DE(int)     intcor
     17.79     -18.61       2.85        0.00      69.55       1.76       0.18       0.63       ----

> <Gold.Chemscore.Fitness>
17.7919

> <Gold.Chemscore.DG>
-18.6069

> <Gold.Chemscore.ZeroCoef>
-5.4800

> <Gold.Chemscore.Hbond>
2.8456

> <Gold.Chemscore.Metal>
0.0000

> <Gold.Chemscore.Lipo>
69.5523

> <Gold.Chemscore.Internal_Hbond>
0.0000

> <Gold.Chemscore.DEClash>
0.1819

> <Gold.Chemscore.DEInternal>
0.6331

> <Gold.Chemscore.Rot>
1.7637

> <Gold.Chemscore.Internal.Correction>
   9.000000E+99

> <Gold.Chemscore.Hbonds>
donor molecule, donor type, donor heavy atom, donor atom, acceptor molecule, acceptor atom, score
      L1  H     3    47       P1 10747  1.00
      L1  H    10    37       P1  7948  0.89
      L1  H    13    38       P1  7948  0.82

> <Gold.Chemscore.Hbond.Weighted>
-9.5043

> <Gold.Chemscore.Metal.Weighted>
-0.0000

> <Gold.Chemscore.Lipo.Weighted>
-8.1376

> <Gold.Chemscore.Internal_Hbond.Weighted>
0.0000

> <Gold.Chemscore.DEClash.Weighted>
0.1819

> <Gold.Chemscore.DEInternal.Weighted>
0.6331

> <Gold.Chemscore.Rot.Weighted>
4.5150

> <Gold.Chemscore.Internal.Correction.Weighted>
   9.000000E+99

> <Gold.Protein.RotatedTorsions>
[ 6907 6896 6895 6894 ] final -108.39 input  -60.11 | X-H torsion
[ 7974 7965 7964 7962 ] final -144.81 input  175.53 | X-H torsion
[ 8008 7997 7996 7995 ] final  -14.77 input   59.86 | X-H torsion
[ 10167 10162 10161 10158 ] final  145.23 input  -65.29 | X-H torsion
[ 10718 10713 10712 10709 ] final  135.74 input   66.30 | X-H torsion
[ 10763 10752 10751 10750 ] final  174.95 input  -60.55 | X-H torsion
[ 11005 11000 10999 10996 ] final   49.92 input  -57.11 | X-H torsion

> <Gold.Protein.ActiveResidues>
 VAL166  LYS551  ARG553  GLY616  TRP617  ASP618  TYR619  PRO620  LYS621  CYS622 
 ASP623  PHE694  ASN695  SER759  ASP760  ASP761  ALA762  ILE779  LEU786  VAL792 
 PHE793  MET794  SER795  GLU796  ALA797  LYS798  CYS799  TRP800  GLU811  SER814 

> <Gold.Protein.RotatedAtoms>
  150.7499  133.9684  159.3537 H   0  0  0  0  0  0  0  0  0  0  0  0  # atno 6907 bound_to 6896
  151.7616  135.0806  160.0356 H   0  0  0  0  0  0  0  0  0  0  0  0  # atno 6908 bound_to 6896
  152.3399  133.6018  159.5905 H   0  0  0  0  0  0  0  0  0  0  0  0  # atno 6909 bound_to 6896
  144.8271  140.5663  143.5540 H   0  0  0  0  0  0  0  0  0  0  0  0  # atno 7974 bound_to 7965
  154.5184  140.2214  155.9023 H   0  0  0  0  0  0  0  0  0  0  0  0  # atno 8008 bound_to 7997
  156.1634  140.3137  155.8811 H   0  0  0  0  0  0  0  0  0  0  0  0  # atno 8009 bound_to 7997
  155.3706  140.0466  157.3036 H   0  0  0  0  0  0  0  0  0  0  0  0  # atno 8010 bound_to 7997
  139.4930  144.5916  151.6669 H   0  0  0  0  0  0  0  0  0  0  0  0  # atno 10167 bound_to 10162
  157.4539  131.1068  151.0001 H   0  0  0  0  0  0  0  0  0  0  0  0  # atno 10718 bound_to 10713
  154.4609  135.2767  155.1713 H   0  0  0  0  0  0  0  0  0  0  0  0  # atno 10763 bound_to 10752
  154.3502  135.6151  153.5642 H   0  0  0  0  0  0  0  0  0  0  0  0  # atno 10764 bound_to 10752
  152.9855  135.5809  154.4971 H   0  0  0  0  0  0  0  0  0  0  0  0  # atno 10765 bound_to 10752
  140.1062  134.5016  155.8718 H   0  0  0  0  0  0  0  0  0  0  0  0  # atno 11005 bound_to 11000
  145.4976  139.1485  143.3675 LP  0  0  0  0  0  0  0  0  0  0  0  0  # atno 17320 bound_to 7965
  146.2576  140.5116  142.8867 LP  0  0  0  0  0  0  0  0  0  0  0  0  # atno 17321 bound_to 7965
  140.5544  144.0372  150.6141 LP  0  0  0  0  0  0  0  0  0  0  0  0  # atno 17342 bound_to 10162
  140.3437  143.3004  152.0561 LP  0  0  0  0  0  0  0  0  0  0  0  0  # atno 17343 bound_to 10162
  157.0821  130.5907  149.5422 LP  0  0  0  0  0  0  0  0  0  0  0  0  # atno 17370 bound_to 10713
  155.9999  130.5076  150.7623 LP  0  0  0  0  0  0  0  0  0  0  0  0  # atno 17371 bound_to 10713
  141.2118  133.6712  156.6615 LP  0  0  0  0  0  0  0  0  0  0  0  0  # atno 17394 bound_to 11000
  140.3153  134.8052  157.4209 LP  0  0  0  0  0  0  0  0  0  0  0  0  # atno 17395 bound_to 11000

$$$$
