AV-unprocessed.smi:2095|AV-procd|sdf|8560|dock7
  -GOLD-   2272011283D 1   1.00000     0.00000
 Structure written by MMmdl.
 42 43  0  0  0  0  0  0  0  0  2 V2000
  152.3597  144.6183  158.5823 C   0  0  0  0  0  0  0  0  0  0  0  0
  151.5486  143.7080  159.5215 C   0  0  2  0  0  0  0  0  0  0  0  0
  152.1855  143.5751  160.9180 C   0  0  0  0  0  0  0  0  0  0  0  0
  153.4284  142.6730  160.8835 C   0  0  0  0  0  0  0  0  0  0  0  0
  153.1027  141.3129  160.2471 C   0  0  0  0  0  0  0  0  0  0  0  0
  152.5330  141.4928  158.8840 N   0  3  1  0  0  0  0  0  0  0  0  0
  152.4009  140.2460  158.0752 C   0  0  1  0  0  0  0  0  0  0  0  0
  151.3977  139.2776  158.7300 C   0  0  0  0  0  0  0  0  0  0  0  0
  152.0776  140.5177  156.5840 C   0  0  0  0  0  0  0  0  0  0  0  0
  152.1013  139.2993  155.7824 N   0  0  0  0  0  0  0  0  0  0  0  0
  151.2879  139.0481  154.7443 C   0  0  0  0  0  0  0  0  0  0  0  0
  150.4298  139.8386  154.3525 O   0  0  0  0  0  0  0  0  0  0  0  0
  151.4767  137.7083  154.0312 C   0  0  0  0  0  0  0  0  0  0  0  0
  151.1514  136.5952  154.9036 N   0  0  0  0  0  0  0  0  0  0  0  0
  150.0515  135.8449  154.9958 C   0  0  0  0  0  0  0  0  0  0  0  0
  150.1629  134.9304  155.9472 N   0  0  0  0  0  0  0  0  0  0  0  0
  151.4303  135.1581  156.4566 N   0  0  0  0  0  0  0  0  0  0  0  0
  152.0221  136.1446  155.8411 N   0  0  0  0  0  0  0  0  0  0  0  0
  151.2931  142.3155  158.9079 C   0  0  0  0  0  0  0  0  0  0  0  0
  153.3465  144.2083  158.3673 H   0  0  0  0  0  0  0  0  0  0  0  0
  152.5003  145.6066  159.0208 H   0  0  0  0  0  0  0  0  0  0  0  0
  151.8460  144.7545  157.6303 H   0  0  0  0  0  0  0  0  0  0  0  0
  150.5787  144.1900  159.6521 H   0  0  0  0  0  0  0  0  0  0  0  0
  152.4400  144.5569  161.3189 H   0  0  0  0  0  0  0  0  0  0  0  0
  151.4548  143.1460  161.6051 H   0  0  0  0  0  0  0  0  0  0  0  0
  154.2293  143.1595  160.3256 H   0  0  0  0  0  0  0  0  0  0  0  0
  153.8070  142.5274  161.8955 H   0  0  0  0  0  0  0  0  0  0  0  0
  154.0113  140.7131  160.2054 H   0  0  0  0  0  0  0  0  0  0  0  0
  152.3948  140.7766  160.8804 H   0  0  0  0  0  0  0  0  0  0  0  0
  153.3674  139.7426  158.1229 H   0  0  0  0  0  0  0  0  0  0  0  0
  151.4289  138.2962  158.2560 H   0  0  0  0  0  0  0  0  0  0  0  0
  150.3727  139.6404  158.6563 H   0  0  0  0  0  0  0  0  0  0  0  0
  151.6256  139.1308  159.7860 H   0  0  0  0  0  0  0  0  0  0  0  0
  151.0806  140.9464  156.4814 H   0  0  0  0  0  0  0  0  0  0  0  0
  152.7702  141.2438  156.1566 H   0  0  0  0  0  0  0  0  0  0  0  0
  152.7772  138.5934  156.0388 H   0  0  0  0  0  0  0  0  0  0  0  0
  150.8357  137.6598  153.1498 H   0  0  0  0  0  0  0  0  0  0  0  0
  152.5075  137.6121  153.6872 H   0  0  0  0  0  0  0  0  0  0  0  0
  149.1765  135.9702  154.3750 H   0  0  0  0  0  0  0  0  0  0  0  0
  150.5262  141.7974  159.4849 H   0  0  0  0  0  0  0  0  0  0  0  0
  150.8960  142.4322  157.8987 H   0  0  0  0  0  0  0  0  0  0  0  0
  153.2042  142.0548  158.3801 H   0  0  0  0  0  0  0  0  0  0  0  0
  1  2  1  0  0  0  0
  1 20  1  0  0  0  0
  1 21  1  0  0  0  0
  1 22  1  0  0  0  0
  2 19  1  0  0  0  0
  2  3  1  0  0  0  0
  2 23  1  0  0  0  0
  3  4  1  0  0  0  0
  3 24  1  0  0  0  0
  3 25  1  0  0  0  0
  4  5  1  0  0  0  0
  4 26  1  0  0  0  0
  4 27  1  0  0  0  0
  5  6  1  0  0  0  0
  5 28  1  0  0  0  0
  5 29  1  0  0  0  0
  6  7  1  0  0  0  0
  6 19  1  0  0  0  0
  6 42  1  0  0  0  0
  7  8  1  0  0  0  0
  7  9  1  0  0  0  0
  7 30  1  0  0  0  0
  8 31  1  0  0  0  0
  8 32  1  0  0  0  0
  8 33  1  0  0  0  0
  9 10  1  0  0  0  0
  9 34  1  0  0  0  0
  9 35  1  0  0  0  0
 10 11  1  0  0  0  0
 10 36  1  0  0  0  0
 11 12  2  0  0  0  0
 11 13  1  0  0  0  0
 13 14  1  0  0  0  0
 13 37  1  0  0  0  0
 13 38  1  0  0  0  0
 14 18  1  0  0  0  0
 14 15  1  0  0  0  0
 15 16  2  0  0  0  0
 15 39  1  0  0  0  0
 16 17  1  0  0  0  0
 17 18  2  0  0  0  0
 19 40  1  0  0  0  0
 19 41  1  0  0  0  0
M  CHG  1   6   1
M  END
> <s_m_source_file>
AV-unprocessed.smi

> <i_m_source_file_index>
2095

> <i_lp_mmshare_version>
43012

> <i_f3d_flags>
0

> <s_epik_input>
W0NIM11bQ0BASF0xW0NIMl1bQ0gyXVtDSDJdTihbQ0gyXTEpW0NASF0oW0NIM10pW0NIMl1bTkhdQyg9TylbQ0gyXW4yW2NIXW5ubjI=

> <s_epik_cmdline>
J2VwaWtfcHl0aG9uJywgJy1waCcsICc3LjAnLCAnLXRuJywgJzgnLCAnLW1hJywgJzIwMCcsICctbWV0YWxfYmluZGluZycsICctaW1hZScsICc8aW5maWxlLm1hZT4nLCAnLW9tYWUnLCAnPG91dGZpbGUubWFlPic=

> <r_lp_tautomer_probability>
1

> <r_epik_Ionization_Penalty>
0.00268321

> <r_epik_Ionization_Penalty_Charging>
0.00267875

> <r_epik_Ionization_Penalty_Neutral>
4.46125e-06

> <r_epik_State_Penalty>
0.00186642

> <r_epik_Charging_Adjusted_Penalty>
0.00454517

> <i_epik_Tot_Q>
1

> <i_epik_Tot_abs_Q>
1

> <r_epik_Metal_State_Penalty>
-0

> <b_epik_Metal_Only>
0

> <s_lp_Force_Field>
OPLS_2005

> <r_lp_Energy>
24.9707

> <b_lp_Chiralities_Consistent>
1

> <s_lp_Variant>
AV-unprocessed.smi:2095-7

> <Gold.Version>
5.8.1

> <Gold.Id.Protein>
6NUR|6NUR_protein|mol2

> <Gold.PLP.Fitness>
44.4722

> <Gold.PLP.PLP>
-36.5369

> <Gold.PLP.part.hbond>
-2.0000

> <Gold.PLP.part.metal>
0.0000

> <Gold.PLP.part.buried>
-3.5779

> <Gold.PLP.part.nonpolar>
-30.6604

> <Gold.PLP.part.repulsive>
0.4471

> <Gold.PLP.ligand.clash>
0.0000

> <Gold.PLP.ligand.torsion>
0.5384

> <Gold.PLP.Chemscore.Hbond>
2.0000

> <Gold.PLP.Chemscore.CHOScore>
0.9638

> <Gold.PLP.Chemscore.Metal>
0.0000

> <Gold.Chemscore.Hbonds>
donor molecule, donor type, donor heavy atom, donor atom, acceptor molecule, acceptor atom, score
      P1  H  7989  7998       L1    12  0.65
      P1  H 10752 10763       L1    18  0.96
      L1  C    15    39       P1  7948  0.99

> <Gold.PLP.Chemscore.Internal.Correction>
0.1206

> <Gold.Rescore>
     Score         DG    S(hbond)    S(metal)    S(lipo)     H(rot)  DE(clash)    DE(int)     intcor
     13.78     -14.56       1.53        0.00      91.72       2.64       0.15       0.63       ----

> <Gold.Chemscore.Fitness>
13.7754

> <Gold.Chemscore.DG>
-14.5612

> <Gold.Chemscore.ZeroCoef>
-5.4800

> <Gold.Chemscore.Hbond>
1.5326

> <Gold.Chemscore.Metal>
0.0000

> <Gold.Chemscore.Lipo>
91.7172

> <Gold.Chemscore.Internal_Hbond>
0.0000

> <Gold.Chemscore.DEClash>
0.1515

> <Gold.Chemscore.DEInternal>
0.6343

> <Gold.Chemscore.Rot>
2.6439

> <Gold.Chemscore.Internal.Correction>
   9.000000E+99

> <Gold.Chemscore.Hbonds>
donor molecule, donor type, donor heavy atom, donor atom, acceptor molecule, acceptor atom, score
      P1  H  7989  7998       L1    12  0.06
      P1  H 10752 10763       L1    18  0.18

> <Gold.Chemscore.Hbond.Weighted>
-5.1187

> <Gold.Chemscore.Metal.Weighted>
-0.0000

> <Gold.Chemscore.Lipo.Weighted>
-10.7309

> <Gold.Chemscore.Internal_Hbond.Weighted>
0.0000

> <Gold.Chemscore.DEClash.Weighted>
0.1515

> <Gold.Chemscore.DEInternal.Weighted>
0.6343

> <Gold.Chemscore.Rot.Weighted>
6.7685

> <Gold.Chemscore.Internal.Correction.Weighted>
   9.000000E+99

> <Gold.Protein.RotatedTorsions>
[ 6907 6896 6895 6894 ] final -178.75 input  -60.11 | X-H torsion
[ 7974 7965 7964 7962 ] final  175.81 input  175.53 | X-H torsion
[ 8008 7997 7996 7995 ] final  -57.56 input   59.86 | X-H torsion
[ 10167 10162 10161 10158 ] final  -22.75 input  -65.29 | X-H torsion
[ 10718 10713 10712 10709 ] final   81.26 input   66.30 | X-H torsion
[ 10763 10752 10751 10750 ] final   86.28 input  -60.55 | X-H torsion
[ 11005 11000 10999 10996 ] final  -34.08 input  -57.11 | X-H torsion

> <Gold.Protein.ActiveResidues>
 VAL166  LYS551  ARG553  GLY616  TRP617  ASP618  TYR619  PRO620  LYS621  CYS622 
 ASP623  PHE694  ASN695  SER759  ASP760  ASP761  ALA762  ILE779  LEU786  VAL792 
 PHE793  MET794  SER795  GLU796  ALA797  LYS798  CYS799  TRP800  GLU811  SER814 

> <Gold.Protein.RotatedAtoms>
  151.6422  133.3325  159.3132 H   0  0  0  0  0  0  0  0  0  0  0  0  # atno 6907 bound_to 6896
  150.8002  134.7094  159.6605 H   0  0  0  0  0  0  0  0  0  0  0  0  # atno 6908 bound_to 6896
  152.4093  134.6156  160.0088 H   0  0  0  0  0  0  0  0  0  0  0  0  # atno 6909 bound_to 6896
  144.7195  140.0002  143.6440 H   0  0  0  0  0  0  0  0  0  0  0  0  # atno 7974 bound_to 7965
  154.4273  140.1104  156.5817 H   0  0  0  0  0  0  0  0  0  0  0  0  # atno 8008 bound_to 7997
  155.6105  140.3494  155.4602 H   0  0  0  0  0  0  0  0  0  0  0  0  # atno 8009 bound_to 7997
  156.0103  140.1218  157.0450 H   0  0  0  0  0  0  0  0  0  0  0  0  # atno 8010 bound_to 7997
  140.7287  143.4506  151.0522 H   0  0  0  0  0  0  0  0  0  0  0  0  # atno 10167 bound_to 10162
  157.6828  130.9996  150.2200 H   0  0  0  0  0  0  0  0  0  0  0  0  # atno 10718 bound_to 10713
  153.1555  135.4586  154.9698 H   0  0  0  0  0  0  0  0  0  0  0  0  # atno 10763 bound_to 10752
  154.7858  135.3203  154.7892 H   0  0  0  0  0  0  0  0  0  0  0  0  # atno 10764 bound_to 10752
  153.8390  135.6932  153.4859 H   0  0  0  0  0  0  0  0  0  0  0  0  # atno 10765 bound_to 10752
  140.9687  133.7122  156.1487 H   0  0  0  0  0  0  0  0  0  0  0  0  # atno 11005 bound_to 11000
  146.0341  139.3361  143.0737 LP  0  0  0  0  0  0  0  0  0  0  0  0  # atno 17320 bound_to 7965
  145.8416  140.9577  143.0796 LP  0  0  0  0  0  0  0  0  0  0  0  0  # atno 17321 bound_to 7965
  139.8182  143.7857  152.3175 LP  0  0  0  0  0  0  0  0  0  0  0  0  # atno 17342 bound_to 10162
  139.7930  144.7403  150.9929 LP  0  0  0  0  0  0  0  0  0  0  0  0  # atno 17343 bound_to 10162
  156.2853  130.3738  149.7894 LP  0  0  0  0  0  0  0  0  0  0  0  0  # atno 17370 bound_to 10713
  156.5570  130.8367  151.3317 LP  0  0  0  0  0  0  0  0  0  0  0  0  # atno 17371 bound_to 10713
  140.7361  134.4201  157.5560 LP  0  0  0  0  0  0  0  0  0  0  0  0  # atno 17394 bound_to 11000
  139.8904  134.8806  156.2372 LP  0  0  0  0  0  0  0  0  0  0  0  0  # atno 17395 bound_to 11000

$$$$
