AV-unprocessed.smi:1359|AV-procd|sdf|5550|dock5
  -GOLD-   22720 5143D 1   1.00000     0.00000
 Structure written by MMmdl.
 34 35  0  0  0  0  0  0  0  0  1 V2000
  152.8285  136.0102  164.5909 C   0  0  0  0  0  0  0  0  0  0  0  0
  153.6050  136.9134  163.6269 C   0  0  0  0  0  0  0  0  0  0  0  0
  153.6974  136.3202  162.2116 C   0  0  0  0  0  0  0  0  0  0  0  0
  153.9584  137.3509  161.2137 N   0  0  0  0  0  0  0  0  0  0  0  0
  153.2470  137.5339  160.0899 C   0  0  0  0  0  0  0  0  0  0  0  0
  152.2907  136.8276  159.7709 O   0  0  0  0  0  0  0  0  0  0  0  0
  153.6807  138.6869  159.1824 C   0  0  0  0  0  0  0  0  0  0  0  0
  153.3868  140.0101  159.8300 C   0  0  0  0  0  0  0  0  0  0  0  0
  153.6964  140.3889  161.1137 C   0  0  0  0  0  0  0  0  0  0  0  0
  153.1743  142.0145  161.4602 S   0  0  0  0  0  0  0  0  0  0  0  0
  152.5306  142.1211  159.8190 C   0  0  0  0  0  0  0  0  0  0  0  0
  151.8595  143.2412  159.2442 N   0  0  0  0  0  0  0  0  0  0  0  0
  151.9793  144.5810  159.8113 C   0  0  0  0  0  0  0  0  0  0  0  0
  151.1316  145.4477  158.8855 C   0  0  0  0  0  0  0  0  0  0  0  0
  150.6439  144.4828  157.9285 N   0  0  0  0  0  0  0  0  0  0  0  0
  151.0702  143.2376  158.1515 C   0  0  0  0  0  0  0  0  0  0  0  0
  150.7673  142.2722  157.4528 O   0  0  0  0  0  0  0  0  0  0  0  0
  152.7213  141.0054  159.1064 N   0  0  0  0  0  0  0  0  0  0  0  0
  152.7769  136.4562  165.5843 H   0  0  0  0  0  0  0  0  0  0  0  0
  153.3056  135.0346  164.6881 H   0  0  0  0  0  0  0  0  0  0  0  0
  151.8071  135.8517  164.2441 H   0  0  0  0  0  0  0  0  0  0  0  0
  153.1214  137.8903  163.5896 H   0  0  0  0  0  0  0  0  0  0  0  0
  154.6081  137.0818  164.0205 H   0  0  0  0  0  0  0  0  0  0  0  0
  154.5087  135.5931  162.1665 H   0  0  0  0  0  0  0  0  0  0  0  0
  152.7826  135.7805  161.9613 H   0  0  0  0  0  0  0  0  0  0  0  0
  154.7278  137.9794  161.3957 H   0  0  0  0  0  0  0  0  0  0  0  0
  154.7443  138.5836  158.9625 H   0  0  0  0  0  0  0  0  0  0  0  0
  153.1608  138.6097  158.2266 H   0  0  0  0  0  0  0  0  0  0  0  0
  154.2034  139.8118  161.8729 H   0  0  0  0  0  0  0  0  0  0  0  0
  151.6004  144.6025  160.8341 H   0  0  0  0  0  0  0  0  0  0  0  0
  153.0207  144.9057  159.8180 H   0  0  0  0  0  0  0  0  0  0  0  0
  150.3018  145.9211  159.4115 H   0  0  0  0  0  0  0  0  0  0  0  0
  151.7230  146.2166  158.3874 H   0  0  0  0  0  0  0  0  0  0  0  0
  150.0349  144.7390  157.1647 H   0  0  0  0  0  0  0  0  0  0  0  0
  1  2  1  0  0  0  0
  1 19  1  0  0  0  0
  1 20  1  0  0  0  0
  1 21  1  0  0  0  0
  2  3  1  0  0  0  0
  2 22  1  0  0  0  0
  2 23  1  0  0  0  0
  3  4  1  0  0  0  0
  3 24  1  0  0  0  0
  3 25  1  0  0  0  0
  4  5  1  0  0  0  0
  4 26  1  0  0  0  0
  5  6  2  0  0  0  0
  5  7  1  0  0  0  0
  7  8  1  0  0  0  0
  7 27  1  0  0  0  0
  7 28  1  0  0  0  0
  8 18  1  0  0  0  0
  8  9  2  0  0  0  0
  9 10  1  0  0  0  0
  9 29  1  0  0  0  0
 10 11  1  0  0  0  0
 11 12  1  0  0  0  0
 11 18  2  0  0  0  0
 12 16  1  0  0  0  0
 12 13  1  0  0  0  0
 13 14  1  0  0  0  0
 13 30  1  0  0  0  0
 13 31  1  0  0  0  0
 14 15  1  0  0  0  0
 14 32  1  0  0  0  0
 14 33  1  0  0  0  0
 15 16  1  0  0  0  0
 15 34  1  0  0  0  0
 16 17  2  0  0  0  0
M  END
> <s_m_source_file>
AV-unprocessed.smi

> <i_m_source_file_index>
1359

> <i_lp_mmshare_version>
43012

> <i_f3d_flags>
0

> <s_epik_input>
W0NIM11bQ0gyXVtDSDJdW05IXUMoPU8pW0NIMl1jMVtjSF1zYyhuMSlOMltDSDJdW0NIMl1bTkhdQzI9Tw==

> <s_epik_cmdline>
J2VwaWtfcHl0aG9uJywgJy1waCcsICc3LjAnLCAnLXRuJywgJzgnLCAnLW1hJywgJzIwMCcsICctbWV0YWxfYmluZGluZycsICctaW1hZScsICc8aW5maWxlLm1hZT4nLCAnLW9tYWUnLCAnPG91dGZpbGUubWFlPic=

> <r_lp_tautomer_probability>
1

> <r_epik_Ionization_Penalty>
0.000119828

> <r_epik_Ionization_Penalty_Charging>
0

> <r_epik_Ionization_Penalty_Neutral>
0.000119828

> <r_epik_State_Penalty>
-0

> <r_epik_Charging_Adjusted_Penalty>
0

> <i_epik_Tot_Q>
0

> <i_epik_Tot_abs_Q>
0

> <r_epik_Metal_State_Penalty>
-0

> <b_epik_Metal_Only>
0

> <s_lp_Force_Field>
OPLS_2005

> <r_lp_Energy>
29.9012

> <b_lp_Chiralities_Consistent>
1

> <s_lp_Variant>
AV-unprocessed.smi:1359-1

> <Gold.Version>
5.8.1

> <Gold.Id.Protein>
6NUR|6NUR_protein|mol2

> <Gold.PLP.Fitness>
45.4406

> <Gold.PLP.PLP>
-40.4126

> <Gold.PLP.part.hbond>
-2.1014

> <Gold.PLP.part.metal>
0.0000

> <Gold.PLP.part.buried>
-3.9159

> <Gold.PLP.part.nonpolar>
-33.4485

> <Gold.PLP.part.repulsive>
0.1433

> <Gold.PLP.ligand.clash>
0.0000

> <Gold.PLP.ligand.torsion>
0.4908

> <Gold.PLP.Chemscore.Hbond>
2.0000

> <Gold.PLP.Chemscore.CHOScore>
0.0000

> <Gold.PLP.Chemscore.Metal>
0.0000

> <Gold.Chemscore.Hbonds>
donor molecule, donor type, donor heavy atom, donor atom, acceptor molecule, acceptor atom, score
      L1  H    15    34       P1  8028  0.95
      P1  H  6896  6909       L1     6  1.00

> <Gold.PLP.Chemscore.Internal.Correction>
0.0095

> <Gold.Rescore>
     Score         DG    S(hbond)    S(metal)    S(lipo)     H(rot)  DE(clash)    DE(int)     intcor
     15.21     -17.02       1.99        0.00      81.28       1.81       0.01       1.80       ----

> <Gold.Chemscore.Fitness>
15.2075

> <Gold.Chemscore.DG>
-17.0204

> <Gold.Chemscore.ZeroCoef>
-5.4800

> <Gold.Chemscore.Hbond>
1.9921

> <Gold.Chemscore.Metal>
0.0000

> <Gold.Chemscore.Lipo>
81.2757

> <Gold.Chemscore.Internal_Hbond>
0.0000

> <Gold.Chemscore.DEClash>
0.0128

> <Gold.Chemscore.DEInternal>
1.8002

> <Gold.Chemscore.Rot>
1.8057

> <Gold.Chemscore.Internal.Correction>
   9.000000E+99

> <Gold.Chemscore.Hbonds>
donor molecule, donor type, donor heavy atom, donor atom, acceptor molecule, acceptor atom, score
      L1  H    15    34       P1  8028  0.22
      P1  H  6896  6909       L1     6  0.98

> <Gold.Chemscore.Hbond.Weighted>
-6.6537

> <Gold.Chemscore.Metal.Weighted>
-0.0000

> <Gold.Chemscore.Lipo.Weighted>
-9.5093

> <Gold.Chemscore.Internal_Hbond.Weighted>
0.0000

> <Gold.Chemscore.DEClash.Weighted>
0.0128

> <Gold.Chemscore.DEInternal.Weighted>
1.8002

> <Gold.Chemscore.Rot.Weighted>
4.6226

> <Gold.Chemscore.Internal.Correction.Weighted>
   9.000000E+99

> <Gold.Protein.RotatedTorsions>
[ 6907 6896 6895 6894 ] final  148.90 input  -60.11 | X-H torsion
[ 7974 7965 7964 7962 ] final  -76.10 input  175.53 | X-H torsion
[ 8008 7997 7996 7995 ] final  -84.19 input   59.86 | X-H torsion
[ 10167 10162 10161 10158 ] final    2.07 input  -65.29 | X-H torsion
[ 10718 10713 10712 10709 ] final -149.37 input   66.30 | X-H torsion
[ 10763 10752 10751 10750 ] final -121.13 input  -60.55 | X-H torsion
[ 11005 11000 10999 10996 ] final   44.38 input  -57.11 | X-H torsion

> <Gold.Protein.ActiveResidues>
 VAL166  LYS551  ARG553  GLY616  TRP617  ASP618  TYR619  PRO620  LYS621  CYS622 
 ASP623  PHE694  ASN695  SER759  ASP760  ASP761  ALA762  ILE779  LEU786  VAL792 
 PHE793  MET794  SER795  GLU796  ALA797  LYS798  CYS799  TRP800  GLU811  SER814 

> <Gold.Protein.RotatedAtoms>
  152.1352  133.4431  159.4739 H   0  0  0  0  0  0  0  0  0  0  0  0  # atno 6907 bound_to 6896
  150.6881  134.2372  159.4467 H   0  0  0  0  0  0  0  0  0  0  0  0  # atno 6908 bound_to 6896
  152.0259  134.9795  160.0622 H   0  0  0  0  0  0  0  0  0  0  0  0  # atno 6909 bound_to 6896
  145.6173  140.9372  143.1157 H   0  0  0  0  0  0  0  0  0  0  0  0  # atno 7974 bound_to 7965
  154.6271  140.0608  156.9687 H   0  0  0  0  0  0  0  0  0  0  0  0  # atno 8008 bound_to 7997
  155.1724  140.3292  155.4372 H   0  0  0  0  0  0  0  0  0  0  0  0  # atno 8009 bound_to 7997
  156.2463  140.1912  156.6825 H   0  0  0  0  0  0  0  0  0  0  0  0  # atno 8010 bound_to 7997
  140.6652  143.7197  150.7814 H   0  0  0  0  0  0  0  0  0  0  0  0  # atno 10167 bound_to 10162
  156.4322  130.8081  151.2308 H   0  0  0  0  0  0  0  0  0  0  0  0  # atno 10718 bound_to 10713
  154.8661  135.4178  154.2571 H   0  0  0  0  0  0  0  0  0  0  0  0  # atno 10763 bound_to 10752
  153.3506  135.6998  153.6797 H   0  0  0  0  0  0  0  0  0  0  0  0  # atno 10764 bound_to 10752
  153.5738  135.3586  155.2821 H   0  0  0  0  0  0  0  0  0  0  0  0  # atno 10765 bound_to 10752
  140.1557  134.4405  155.8351 H   0  0  0  0  0  0  0  0  0  0  0  0  # atno 11005 bound_to 11000
  144.7245  139.7920  143.7370 LP  0  0  0  0  0  0  0  0  0  0  0  0  # atno 17320 bound_to 7965
  146.1458  139.4527  143.0080 LP  0  0  0  0  0  0  0  0  0  0  0  0  # atno 17321 bound_to 7965
  140.0873  143.4911  152.2498 LP  0  0  0  0  0  0  0  0  0  0  0  0  # atno 17342 bound_to 10162
  139.5899  144.7546  151.3427 LP  0  0  0  0  0  0  0  0  0  0  0  0  # atno 17343 bound_to 10162
  157.7508  131.0195  150.3668 LP  0  0  0  0  0  0  0  0  0  0  0  0  # atno 17370 bound_to 10713
  156.4008  130.3915  149.6961 LP  0  0  0  0  0  0  0  0  0  0  0  0  # atno 17371 bound_to 10713
  141.2204  133.6891  156.7502 LP  0  0  0  0  0  0  0  0  0  0  0  0  # atno 17394 bound_to 11000
  140.2551  134.8510  157.3705 LP  0  0  0  0  0  0  0  0  0  0  0  0  # atno 17395 bound_to 11000

$$$$
