AV-unprocessed.smi:3049|AV-procd|sdf|11629|dock3
  -GOLD-   2272017 13D 1   1.00000     0.00000
 Structure written by MMmdl.
 53 54  0  0  0  0  0  0  0  0  1 V2000
  151.3364  139.5778  155.3693 C   0  0  0  0  0  0  0  0  0  0  0  0
  151.2126  140.2906  156.7230 C   0  0  0  0  0  0  0  0  0  0  0  0
  150.1276  141.3913  156.7525 C   0  0  0  0  0  0  0  0  0  0  0  0
  150.3958  142.4379  157.8638 C   0  0  0  0  0  0  0  0  0  0  0  0
  151.4714  143.4762  157.5037 C   0  0  0  0  0  0  0  0  0  0  0  0
  148.7333  140.7373  156.8976 C   0  0  0  0  0  0  0  0  0  0  0  0
  148.4408  140.2283  157.9811 O   0  0  0  0  0  0  0  0  0  0  0  0
  147.8551  140.7693  155.8638 N   0  0  0  0  0  0  0  0  0  0  0  0
  148.2559  141.1360  154.5007 C   0  0  0  0  0  0  0  0  0  0  0  0
  148.2360  139.8642  153.6319 C   0  0  0  0  0  0  0  0  0  0  0  0
  146.8558  139.1703  153.6728 C   0  0  0  0  0  0  0  0  0  0  0  0
  146.9394  137.8743  153.0062 N   0  0  0  0  0  0  0  0  0  0  0  0
  145.8950  137.1717  152.5442 C   0  0  0  0  0  0  0  0  0  0  0  0
  144.7288  137.5511  152.6479 O   0  0  0  0  0  0  0  0  0  0  0  0
  146.3056  136.0256  151.9690 N   0  0  0  0  0  0  0  0  0  0  0  0
  145.5486  135.0216  151.3462 C   0  0  0  0  0  0  0  0  0  0  0  0
  144.2053  135.0229  151.2068 C   0  0  0  0  0  0  0  0  0  0  0  0
  143.5421  133.9750  150.5625 N   0  0  0  0  0  0  0  0  0  0  0  0
  144.1569  132.8949  150.0294 C   0  0  0  0  0  0  0  0  0  0  0  0
  143.5018  132.0143  149.4749 O   0  0  0  0  0  0  0  0  0  0  0  0
  145.6218  132.8695  150.1682 C   0  0  0  0  0  0  0  0  0  0  0  0
  146.3750  131.6830  149.5939 C   0  0  0  0  0  0  0  0  0  0  0  0
  146.2608  133.8837  150.7948 C   0  0  0  0  0  0  0  0  0  0  0  0
  146.3418  139.0057  155.1231 C   0  0  0  0  0  0  0  0  0  0  0  0
  146.4553  140.3299  155.8975 C   0  0  0  0  0  0  0  0  0  0  0  0
  142.5367  134.0421  150.4967 H   0  0  0  0  0  0  0  0  0  0  0  0
  152.0719  138.7750  155.4237 H   0  0  0  0  0  0  0  0  0  0  0  0
  151.6554  140.2582  154.5803 H   0  0  0  0  0  0  0  0  0  0  0  0
  150.3862  139.1352  155.0691 H   0  0  0  0  0  0  0  0  0  0  0  0
  150.9924  139.5324  157.4765 H   0  0  0  0  0  0  0  0  0  0  0  0
  152.1790  140.7138  157.0005 H   0  0  0  0  0  0  0  0  0  0  0  0
  150.1673  141.9496  155.8188 H   0  0  0  0  0  0  0  0  0  0  0  0
  149.4716  142.9499  158.1357 H   0  0  0  0  0  0  0  0  0  0  0  0
  150.7225  141.9273  158.7691 H   0  0  0  0  0  0  0  0  0  0  0  0
  151.6601  144.1424  158.3459 H   0  0  0  0  0  0  0  0  0  0  0  0
  151.1723  144.0965  156.6587 H   0  0  0  0  0  0  0  0  0  0  0  0
  152.4141  142.9924  157.2468 H   0  0  0  0  0  0  0  0  0  0  0  0
  147.5637  141.8780  154.1003 H   0  0  0  0  0  0  0  0  0  0  0  0
  149.2429  141.5982  154.4551 H   0  0  0  0  0  0  0  0  0  0  0  0
  148.5002  140.1121  152.6033 H   0  0  0  0  0  0  0  0  0  0  0  0
  149.0052  139.1785  153.9914 H   0  0  0  0  0  0  0  0  0  0  0  0
  146.1539  139.8076  153.1313 H   0  0  0  0  0  0  0  0  0  0  0  0
  147.8637  137.4883  152.8815 H   0  0  0  0  0  0  0  0  0  0  0  0
  147.3008  135.8573  151.9768 H   0  0  0  0  0  0  0  0  0  0  0  0
  143.5298  135.7892  151.5518 H   0  0  0  0  0  0  0  0  0  0  0  0
  147.4499  131.7804  149.7491 H   0  0  0  0  0  0  0  0  0  0  0  0
  146.1958  131.6001  148.5214 H   0  0  0  0  0  0  0  0  0  0  0  0
  146.0481  130.7576  150.0695 H   0  0  0  0  0  0  0  0  0  0  0  0
  147.3365  133.8477  150.8895 H   0  0  0  0  0  0  0  0  0  0  0  0
  145.3057  138.6654  155.1194 H   0  0  0  0  0  0  0  0  0  0  0  0
  146.9190  138.2366  155.6391 H   0  0  0  0  0  0  0  0  0  0  0  0
  146.0473  140.2362  156.9024 H   0  0  0  0  0  0  0  0  0  0  0  0
  145.8316  141.0865  155.4189 H   0  0  0  0  0  0  0  0  0  0  0  0
  1  2  1  0  0  0  0
  1 27  1  0  0  0  0
  1 28  1  0  0  0  0
  1 29  1  0  0  0  0
  2  3  1  0  0  0  0
  2 30  1  0  0  0  0
  2 31  1  0  0  0  0
  3  4  1  0  0  0  0
  3  6  1  0  0  0  0
  3 32  1  0  0  0  0
  4  5  1  0  0  0  0
  4 33  1  0  0  0  0
  4 34  1  0  0  0  0
  5 35  1  0  0  0  0
  5 36  1  0  0  0  0
  5 37  1  0  0  0  0
  6  7  2  0  0  0  0
  6  8  1  0  0  0  0
  8 25  1  0  0  0  0
  8  9  1  0  0  0  0
  9 10  1  0  0  0  0
  9 38  1  0  0  0  0
  9 39  1  0  0  0  0
 10 11  1  0  0  0  0
 10 40  1  0  0  0  0
 10 41  1  0  0  0  0
 11 12  1  0  0  0  0
 11 24  1  0  0  0  0
 11 42  1  0  0  0  0
 12 13  1  0  0  0  0
 12 43  1  0  0  0  0
 13 14  2  0  0  0  0
 13 15  1  0  0  0  0
 15 16  1  0  0  0  0
 15 44  1  0  0  0  0
 16 23  1  0  0  0  0
 16 17  2  0  0  0  0
 17 18  1  0  0  0  0
 17 45  1  0  0  0  0
 18 26  1  0  0  0  0
 18 19  1  0  0  0  0
 19 20  2  0  0  0  0
 19 21  1  0  0  0  0
 21 22  1  0  0  0  0
 21 23  2  0  0  0  0
 22 46  1  0  0  0  0
 22 47  1  0  0  0  0
 22 48  1  0  0  0  0
 23 49  1  0  0  0  0
 24 25  1  0  0  0  0
 24 50  1  0  0  0  0
 24 51  1  0  0  0  0
 25 52  1  0  0  0  0
 25 53  1  0  0  0  0
M  END
> <s_m_source_file>
AV-unprocessed.smi

> <i_m_source_file_index>
3049

> <i_lp_mmshare_version>
43012

> <i_f3d_flags>
0

> <s_epik_input>
W0NIM11bQ0gyXVtDSF0oW0NIMl1bQ0gzXSlDKD1PKU4xW0NIMl1bQ0gyXVtDSF0oW0NIMl1bQ0gyXTEpW05IXUMoPU8pW05IXWMyW2NIXVtuSF1jKD1PKWMoW0NIM10pW2NIXTI=

> <s_epik_cmdline>
J2VwaWtfcHl0aG9uJywgJy1waCcsICc3LjAnLCAnLXRuJywgJzgnLCAnLW1hJywgJzIwMCcsICctbWV0YWxfYmluZGluZycsICctaW1hZScsICc8aW5maWxlLm1hZT4nLCAnLW9tYWUnLCAnPG91dGZpbGUubWFlPic=

> <r_lp_tautomer_probability>
1

> <r_epik_Ionization_Penalty>
4.67669e-05

> <r_epik_Ionization_Penalty_Charging>
2.70095e-05

> <r_epik_Ionization_Penalty_Neutral>
1.97573e-05

> <r_epik_State_Penalty>
-0

> <r_epik_Charging_Adjusted_Penalty>
2.70095e-05

> <i_epik_Tot_Q>
0

> <i_epik_Tot_abs_Q>
0

> <r_epik_Metal_State_Penalty>
0.0201042

> <b_epik_Metal_Only>
0

> <s_lp_Force_Field>
OPLS_2005

> <r_lp_Energy>
36.2408

> <b_lp_Chiralities_Consistent>
1

> <s_lp_Variant>
AV-unprocessed.smi:3049-1

> <Gold.Version>
5.8.1

> <Gold.Id.Protein>
6NUR|6NUR_protein|mol2

> <Gold.PLP.Fitness>
49.6020

> <Gold.PLP.PLP>
-39.3118

> <Gold.PLP.part.hbond>
-4.5586

> <Gold.PLP.part.metal>
0.0000

> <Gold.PLP.part.buried>
-2.2777

> <Gold.PLP.part.nonpolar>
-34.3730

> <Gold.PLP.part.repulsive>
0.9252

> <Gold.PLP.ligand.clash>
0.0000

> <Gold.PLP.ligand.torsion>
0.7926

> <Gold.PLP.Chemscore.Hbond>
3.9033

> <Gold.PLP.Chemscore.CHOScore>
0.0000

> <Gold.PLP.Chemscore.Metal>
0.0000

> <Gold.Chemscore.Hbonds>
donor molecule, donor type, donor heavy atom, donor atom, acceptor molecule, acceptor atom, score
      L1  H    12    43       P1  7948  0.91
      L1  H    15    44       P1  7948  1.00
      L1  H    18    26       P1 10186  1.00
      P1  H 10785 10796       L1    20  0.99

> <Gold.PLP.Chemscore.Internal.Correction>
0.1656

> <Gold.Rescore>
     Score         DG    S(hbond)    S(metal)    S(lipo)     H(rot)  DE(clash)    DE(int)     intcor
     21.06     -24.55       3.76        0.00      89.85       1.57       1.71       1.78       ----

> <Gold.Chemscore.Fitness>
21.0614

> <Gold.Chemscore.DG>
-24.5510

> <Gold.Chemscore.ZeroCoef>
-5.4800

> <Gold.Chemscore.Hbond>
3.7621

> <Gold.Chemscore.Metal>
0.0000

> <Gold.Chemscore.Lipo>
89.8533

> <Gold.Chemscore.Internal_Hbond>
0.0000

> <Gold.Chemscore.DEClash>
1.7053

> <Gold.Chemscore.DEInternal>
1.7843

> <Gold.Chemscore.Rot>
1.5653

> <Gold.Chemscore.Internal.Correction>
   9.000000E+99

> <Gold.Chemscore.Hbonds>
donor molecule, donor type, donor heavy atom, donor atom, acceptor molecule, acceptor atom, score
      L1  H    12    43       P1  7948  0.87
      L1  H    15    44       P1  7948  0.99
      L1  H    18    26       P1 10186  0.79
      P1  H 10785 10796       L1    20  0.87

> <Gold.Chemscore.Hbond.Weighted>
-12.5653

> <Gold.Chemscore.Metal.Weighted>
-0.0000

> <Gold.Chemscore.Lipo.Weighted>
-10.5128

> <Gold.Chemscore.Internal_Hbond.Weighted>
0.0000

> <Gold.Chemscore.DEClash.Weighted>
1.7053

> <Gold.Chemscore.DEInternal.Weighted>
1.7843

> <Gold.Chemscore.Rot.Weighted>
4.0072

> <Gold.Chemscore.Internal.Correction.Weighted>
   9.000000E+99

> <Gold.Protein.RotatedTorsions>
[ 6907 6896 6895 6894 ] final  -49.78 input  -60.11 | X-H torsion
[ 7974 7965 7964 7962 ] final  -97.66 input  175.53 | X-H torsion
[ 8008 7997 7996 7995 ] final -137.30 input   59.86 | X-H torsion
[ 10167 10162 10161 10158 ] final  116.76 input  -65.29 | X-H torsion
[ 10718 10713 10712 10709 ] final -109.31 input   66.30 | X-H torsion
[ 10763 10752 10751 10750 ] final  -85.84 input  -60.55 | X-H torsion
[ 11005 11000 10999 10996 ] final   85.68 input  -57.11 | X-H torsion

> <Gold.Protein.ActiveResidues>
 VAL166  LYS551  ARG553  GLY616  TRP617  ASP618  TYR619  PRO620  LYS621  CYS622 
 ASP623  PHE694  ASN695  SER759  ASP760  ASP761  ALA762  ILE779  LEU786  VAL792 
 PHE793  MET794  SER795  GLU796  ALA797  LYS798  CYS799  TRP800  GLU811  SER814 

> <Gold.Protein.RotatedAtoms>
  150.8772  134.8157  159.7198 H   0  0  0  0  0  0  0  0  0  0  0  0  # atno 6907 bound_to 6896
  152.4754  134.4853  159.9688 H   0  0  0  0  0  0  0  0  0  0  0  0  # atno 6908 bound_to 6896
  151.4933  133.3481  159.2892 H   0  0  0  0  0  0  0  0  0  0  0  0  # atno 6909 bound_to 6896
  145.3308  140.9441  143.2663 H   0  0  0  0  0  0  0  0  0  0  0  0  # atno 7974 bound_to 7965
  155.4095  140.0511  157.3032 H   0  0  0  0  0  0  0  0  0  0  0  0  # atno 8008 bound_to 7997
  154.4953  140.2136  155.9421 H   0  0  0  0  0  0  0  0  0  0  0  0  # atno 8009 bound_to 7997
  156.1397  140.3156  155.8481 H   0  0  0  0  0  0  0  0  0  0  0  0  # atno 8010 bound_to 7997
  139.6225  144.7103  151.2604 H   0  0  0  0  0  0  0  0  0  0  0  0  # atno 10167 bound_to 10162
  156.0530  130.5757  150.8082 H   0  0  0  0  0  0  0  0  0  0  0  0  # atno 10718 bound_to 10713
  154.6157  135.5470  153.7521 H   0  0  0  0  0  0  0  0  0  0  0  0  # atno 10763 bound_to 10752
  153.0215  135.6400  154.1513 H   0  0  0  0  0  0  0  0  0  0  0  0  # atno 10764 bound_to 10752
  154.1450  135.2906  155.3131 H   0  0  0  0  0  0  0  0  0  0  0  0  # atno 10765 bound_to 10752
  139.8965  134.8303  156.2616 H   0  0  0  0  0  0  0  0  0  0  0  0  # atno 11005 bound_to 11000
  144.8866  139.4832  143.6698 LP  0  0  0  0  0  0  0  0  0  0  0  0  # atno 17320 bound_to 7965
  146.3046  139.7538  142.9066 LP  0  0  0  0  0  0  0  0  0  0  0  0  # atno 17321 bound_to 7965
  140.7391  143.6629  150.8148 LP  0  0  0  0  0  0  0  0  0  0  0  0  # atno 17342 bound_to 10162
  140.0242  143.5511  152.2788 LP  0  0  0  0  0  0  0  0  0  0  0  0  # atno 17343 bound_to 10162
  157.5475  131.0943  150.9742 LP  0  0  0  0  0  0  0  0  0  0  0  0  # atno 17370 bound_to 10713
  157.0010  130.5600  149.5311 LP  0  0  0  0  0  0  0  0  0  0  0  0  # atno 17371 bound_to 10713
  141.0159  133.7069  156.1188 LP  0  0  0  0  0  0  0  0  0  0  0  0  # atno 17394 bound_to 11000
  140.7302  134.4263  157.5566 LP  0  0  0  0  0  0  0  0  0  0  0  0  # atno 17395 bound_to 11000

$$$$
