AV-unprocessed.smi:1254|AV-procd|sdf|5279|dock2
  -GOLD-   22720 4393D 1   1.00000     0.00000
 Structure written by MMmdl.
 44 45  0  0  0  0  0  0  0  0  2 V2000
  146.6909  133.1407  162.2555 C   0  0  0  0  0  0  0  0  0  0  0  0
  147.2503  134.4623  161.8530 C   0  0  0  0  0  0  0  0  0  0  0  0
  147.4874  135.0364  160.6365 C   0  0  0  0  0  0  0  0  0  0  0  0
  148.0236  136.3086  160.9762 C   0  0  0  0  0  0  0  0  0  0  0  0
  148.4324  137.2475  160.1089 N   0  5  0  0  0  0  0  0  0  0  0  0
  149.4820  137.0082  159.2890 C   0  0  0  0  0  0  0  0  0  0  0  0
  149.8773  135.9030  158.9107 O   0  0  0  0  0  0  0  0  0  0  0  0
  150.1135  138.1205  158.8872 N   0  0  0  0  0  0  0  0  0  0  0  0
  151.2889  138.1815  158.0241 C   0  0  0  0  0  0  0  0  0  0  0  0
  151.4616  139.5757  157.3965 C   0  0  2  0  0  0  0  0  0  0  0  0
  151.1705  140.7007  158.4100 C   0  0  0  0  0  0  0  0  0  0  0  0
  151.2715  142.0271  157.8055 N   0  0  0  0  0  0  0  0  0  0  0  0
  150.9866  143.1070  158.7508 C   0  0  0  0  0  0  0  0  0  0  0  0
  152.2069  143.9557  159.1787 C   0  0  0  0  0  0  0  0  0  0  0  0
  151.8532  144.9315  160.3138 C   0  0  0  0  0  0  0  0  0  0  0  0
  152.7873  144.7302  157.9852 C   0  0  0  0  0  0  0  0  0  0  0  0
  150.3776  142.0911  156.6546 C   0  0  0  0  0  0  0  0  0  0  0  0
  150.6600  140.9674  155.6448 C   0  0  0  0  0  0  0  0  0  0  0  0
  150.5584  139.7100  156.3015 O   0  0  0  0  0  0  0  0  0  0  0  0
  148.1201  136.4836  162.2837 N   0  0  0  0  0  0  0  0  0  0  0  0
  147.6197  135.3068  162.8535 O   0  0  0  0  0  0  0  0  0  0  0  0
  147.3422  132.3310  161.9265 H   0  0  0  0  0  0  0  0  0  0  0  0
  145.7083  132.9867  161.8096 H   0  0  0  0  0  0  0  0  0  0  0  0
  146.5853  133.0706  163.3383 H   0  0  0  0  0  0  0  0  0  0  0  0
  147.3042  134.6169  159.6586 H   0  0  0  0  0  0  0  0  0  0  0  0
  149.7518  139.0004  159.2240 H   0  0  0  0  0  0  0  0  0  0  0  0
  152.1898  137.8823  158.5625 H   0  0  0  0  0  0  0  0  0  0  0  0
  151.1443  137.4422  157.2359 H   0  0  0  0  0  0  0  0  0  0  0  0
  152.4856  139.6789  157.0319 H   0  0  0  0  0  0  0  0  0  0  0  0
  150.1745  140.5622  158.8339 H   0  0  0  0  0  0  0  0  0  0  0  0
  151.8783  140.6124  159.2333 H   0  0  0  0  0  0  0  0  0  0  0  0
  150.2613  143.7739  158.2825 H   0  0  0  0  0  0  0  0  0  0  0  0
  150.4777  142.7096  159.6303 H   0  0  0  0  0  0  0  0  0  0  0  0
  152.9948  143.2893  159.5329 H   0  0  0  0  0  0  0  0  0  0  0  0
  151.0987  145.6512  159.9953 H   0  0  0  0  0  0  0  0  0  0  0  0
  152.7312  145.4933  160.6339 H   0  0  0  0  0  0  0  0  0  0  0  0
  151.4632  144.4120  161.1883 H   0  0  0  0  0  0  0  0  0  0  0  0
  152.0557  145.4221  157.5665 H   0  0  0  0  0  0  0  0  0  0  0  0
  153.0979  144.0516  157.1901 H   0  0  0  0  0  0  0  0  0  0  0  0
  153.6627  145.3090  158.2803 H   0  0  0  0  0  0  0  0  0  0  0  0
  149.3409  142.0214  156.9876 H   0  0  0  0  0  0  0  0  0  0  0  0
  150.4813  143.0559  156.1569 H   0  0  0  0  0  0  0  0  0  0  0  0
  149.9399  141.0011  154.8272 H   0  0  0  0  0  0  0  0  0  0  0  0
  151.6519  141.0790  155.2047 H   0  0  0  0  0  0  0  0  0  0  0  0
  1  2  1  0  0  0  0
  1 22  1  0  0  0  0
  1 23  1  0  0  0  0
  1 24  1  0  0  0  0
  2 21  1  0  0  0  0
  2  3  2  0  0  0  0
  3  4  1  0  0  0  0
  3 25  1  0  0  0  0
  4  5  1  0  0  0  0
  4 20  2  0  0  0  0
  5  6  1  0  0  0  0
  6  7  2  0  0  0  0
  6  8  1  0  0  0  0
  8  9  1  0  0  0  0
  8 26  1  0  0  0  0
  9 10  1  0  0  0  0
  9 27  1  0  0  0  0
  9 28  1  0  0  0  0
 10 19  1  0  0  0  0
 10 11  1  0  0  0  0
 10 29  1  0  0  0  0
 11 12  1  0  0  0  0
 11 30  1  0  0  0  0
 11 31  1  0  0  0  0
 12 13  1  0  0  0  0
 12 17  1  0  0  0  0
 13 14  1  0  0  0  0
 13 32  1  0  0  0  0
 13 33  1  0  0  0  0
 14 15  1  0  0  0  0
 14 16  1  0  0  0  0
 14 34  1  0  0  0  0
 15 35  1  0  0  0  0
 15 36  1  0  0  0  0
 15 37  1  0  0  0  0
 16 38  1  0  0  0  0
 16 39  1  0  0  0  0
 16 40  1  0  0  0  0
 17 18  1  0  0  0  0
 17 41  1  0  0  0  0
 17 42  1  0  0  0  0
 18 19  1  0  0  0  0
 18 43  1  0  0  0  0
 18 44  1  0  0  0  0
 20 21  1  0  0  0  0
M  CHG  1   5  -1
M  END
> <s_m_source_file>
AV-unprocessed.smi

> <i_m_source_file_index>
1254

> <i_lp_mmshare_version>
43012

> <i_f3d_flags>
0

> <s_epik_input>
W0NIM11jMVtjSF1jKG5vMSlbTkhdQyg9TylbTkhdW0NIMl1bQ0BASF0yW0NIMl1OKFtDSDJdW0NIMl1PMilbQ0gyXVtDSF0oW0NIM10pW0NIM10=

> <s_epik_cmdline>
J2VwaWtfcHl0aG9uJywgJy1waCcsICc3LjAnLCAnLXRuJywgJzgnLCAnLW1hJywgJzIwMCcsICctbWV0YWxfYmluZGluZycsICctaW1hZScsICc8aW5maWxlLm1hZT4nLCAnLW9tYWUnLCAnPG91dGZpbGUubWFlPic=

> <r_epik_Ionization_Penalty>
7.56718

> <r_epik_Ionization_Penalty_Charging>
6.43435

> <r_epik_Ionization_Penalty_Neutral>
1.13283

> <r_epik_State_Penalty>
7.60314

> <r_epik_Charging_Adjusted_Penalty>
14.0375

> <i_epik_Tot_Q>
-1

> <i_epik_Tot_abs_Q>
1

> <r_epik_Metal_State_Penalty>
3.53636

> <b_epik_Metal_Only>
1

> <s_lp_Force_Field>
OPLS_2005

> <r_lp_Energy>
18.6131

> <b_lp_Chiralities_Consistent>
1

> <s_lp_Variant>
AV-unprocessed.smi:1254-11

> <Gold.Version>
5.8.1

> <Gold.Id.Protein>
6NUR|6NUR_protein|mol2

> <Gold.PLP.Fitness>
45.2654

> <Gold.PLP.PLP>
-42.1709

> <Gold.PLP.part.hbond>
-4.0000

> <Gold.PLP.part.metal>
0.0000

> <Gold.PLP.part.buried>
-5.8257

> <Gold.PLP.part.nonpolar>
-32.9258

> <Gold.PLP.part.repulsive>
0.2564

> <Gold.PLP.ligand.clash>
0.0000

> <Gold.PLP.ligand.torsion>
1.7697

> <Gold.PLP.Chemscore.Hbond>
2.1408

> <Gold.PLP.Chemscore.CHOScore>
0.0000

> <Gold.PLP.Chemscore.Metal>
0.0000

> <Gold.Chemscore.Hbonds>
donor molecule, donor type, donor heavy atom, donor atom, acceptor molecule, acceptor atom, score
      P1  H  6896  6907       L1     7  1.00
      P1  H  6931  6943       L1    20  0.45
      P1  H  6934  6947       L1     5  0.32

> <Gold.PLP.Chemscore.Internal.Correction>
0.2115

> <Gold.Rescore>
     Score         DG    S(hbond)    S(metal)    S(lipo)     H(rot)  DE(clash)    DE(int)     intcor
     13.77     -16.73       1.06        0.00     102.12       1.65       0.16       2.80       ----

> <Gold.Chemscore.Fitness>
13.7707

> <Gold.Chemscore.DG>
-16.7293

> <Gold.Chemscore.ZeroCoef>
-5.4800

> <Gold.Chemscore.Hbond>
1.0575

> <Gold.Chemscore.Metal>
0.0000

> <Gold.Chemscore.Lipo>
102.1186

> <Gold.Chemscore.Internal_Hbond>
0.0000

> <Gold.Chemscore.DEClash>
0.1613

> <Gold.Chemscore.DEInternal>
2.7973

> <Gold.Chemscore.Rot>
1.6526

> <Gold.Chemscore.Internal.Correction>
   9.000000E+99

> <Gold.Chemscore.Hbonds>
donor molecule, donor type, donor heavy atom, donor atom, acceptor molecule, acceptor atom, score
      P1  H  6896  6907       L1     7  0.99
      P1  H  6931  6943       L1    20  0.02
      P1  H  6934  6947       L1     5  0.04

> <Gold.Chemscore.Hbond.Weighted>
-3.5322

> <Gold.Chemscore.Metal.Weighted>
-0.0000

> <Gold.Chemscore.Lipo.Weighted>
-11.9479

> <Gold.Chemscore.Internal_Hbond.Weighted>
0.0000

> <Gold.Chemscore.DEClash.Weighted>
0.1613

> <Gold.Chemscore.DEInternal.Weighted>
2.7973

> <Gold.Chemscore.Rot.Weighted>
4.2308

> <Gold.Chemscore.Internal.Correction.Weighted>
   9.000000E+99

> <Gold.Protein.RotatedTorsions>
[ 6907 6896 6895 6894 ] final  -48.04 input  -60.11 | X-H torsion
[ 7974 7965 7964 7962 ] final -103.72 input  175.53 | X-H torsion
[ 8008 7997 7996 7995 ] final  -79.10 input   59.86 | X-H torsion
[ 10167 10162 10161 10158 ] final    7.82 input  -65.29 | X-H torsion
[ 10718 10713 10712 10709 ] final -151.61 input   66.30 | X-H torsion
[ 10763 10752 10751 10750 ] final  152.43 input  -60.55 | X-H torsion
[ 11005 11000 10999 10996 ] final  127.49 input  -57.11 | X-H torsion

> <Gold.Protein.ActiveResidues>
 VAL166  LYS551  ARG553  GLY616  TRP617  ASP618  TYR619  PRO620  LYS621  CYS622 
 ASP623  PHE694  ASN695  SER759  ASP760  ASP761  ALA762  ILE779  LEU786  VAL792 
 PHE793  MET794  SER795  GLU796  ALA797  LYS798  CYS799  TRP800  GLU811  SER814 

> <Gold.Protein.RotatedAtoms>
  150.8946  134.8353  159.7317 H   0  0  0  0  0  0  0  0  0  0  0  0  # atno 6907 bound_to 6896
  152.4857  134.4596  159.9610 H   0  0  0  0  0  0  0  0  0  0  0  0  # atno 6908 bound_to 6896
  151.4654  133.3543  159.2851 H   0  0  0  0  0  0  0  0  0  0  0  0  # atno 6909 bound_to 6896
  145.2523  140.9242  143.3088 H   0  0  0  0  0  0  0  0  0  0  0  0  # atno 7974 bound_to 7965
  154.5752  140.0684  156.9024 H   0  0  0  0  0  0  0  0  0  0  0  0  # atno 8008 bound_to 7997
  155.2561  140.3355  155.4259 H   0  0  0  0  0  0  0  0  0  0  0  0  # atno 8009 bound_to 7997
  156.2149  140.1774  156.7598 H   0  0  0  0  0  0  0  0  0  0  0  0  # atno 8010 bound_to 7997
  140.6350  143.7907  150.7347 H   0  0  0  0  0  0  0  0  0  0  0  0  # atno 10167 bound_to 10162
  156.4615  130.8215  151.2446 H   0  0  0  0  0  0  0  0  0  0  0  0  # atno 10718 bound_to 10713
  154.1199  135.2833  155.3211 H   0  0  0  0  0  0  0  0  0  0  0  0  # atno 10763 bound_to 10752
  154.6430  135.5395  153.7815 H   0  0  0  0  0  0  0  0  0  0  0  0  # atno 10764 bound_to 10752
  153.0316  135.6491  154.1354 H   0  0  0  0  0  0  0  0  0  0  0  0  # atno 10765 bound_to 10752
  139.9510  134.9622  156.8863 H   0  0  0  0  0  0  0  0  0  0  0  0  # atno 11005 bound_to 11000
  144.9491  139.4102  143.6411 LP  0  0  0  0  0  0  0  0  0  0  0  0  # atno 17320 bound_to 7965
  146.3299  139.8490  142.8876 LP  0  0  0  0  0  0  0  0  0  0  0  0  # atno 17321 bound_to 7965
  140.1526  143.4344  152.2121 LP  0  0  0  0  0  0  0  0  0  0  0  0  # atno 17342 bound_to 10162
  139.5561  144.7373  151.4290 LP  0  0  0  0  0  0  0  0  0  0  0  0  # atno 17343 bound_to 10162
  157.7497  131.0105  150.3310 LP  0  0  0  0  0  0  0  0  0  0  0  0  # atno 17370 bound_to 10713
  156.3711  130.3864  149.7174 LP  0  0  0  0  0  0  0  0  0  0  0  0  # atno 17371 bound_to 10713
  140.5718  134.0436  155.7433 LP  0  0  0  0  0  0  0  0  0  0  0  0  # atno 17394 bound_to 11000
  141.1173  133.9519  157.2798 LP  0  0  0  0  0  0  0  0  0  0  0  0  # atno 17395 bound_to 11000

$$$$
