AV-unprocessed.smi:703|AV-procd|sdf|3437|dock5
  -GOLD-   22720 0423D 1   1.00000     0.00000
 Structure written by MMmdl.
 37 38  0  0  0  0  0  0  0  0  3 V2000
  145.7414  134.3123  151.7199 C   0  0  0  0  0  0  0  0  0  0  0  0
  146.7340  133.3165  152.3350 C   0  0  0  0  0  0  0  0  0  0  0  0
  147.7251  133.9834  153.2130 N   0  3  2  0  0  0  0  0  0  0  0  0
  148.8674  133.1399  153.6276 C   0  0  0  0  0  0  0  0  0  0  0  0
  149.3622  133.7538  154.9400 C   0  0  2  0  0  0  0  0  0  0  0  0
  150.2416  132.7958  155.7674 C   0  0  0  0  0  0  0  0  0  0  0  0
  148.0545  134.2014  155.6125 C   0  0  1  0  0  0  0  0  0  0  0  0
  148.2790  135.3112  156.5253 N   0  5  0  0  0  0  0  0  0  0  0  0
  148.4803  135.0173  158.1086 S   0  0  0  0  0  0  0  0  0  0  0  0
  148.2010  133.6158  158.4638 O   0  0  0  0  0  0  0  0  0  0  0  0
  149.7288  135.6033  158.6214 O   0  0  0  0  0  0  0  0  0  0  0  0
  147.1122  136.0279  158.8279 C   0  0  0  0  0  0  0  0  0  0  0  0
  147.1267  135.9421  160.3299 C   0  0  0  0  0  0  0  0  0  0  0  0
  147.1118  134.7788  161.1491 C   0  0  0  0  0  0  0  0  0  0  0  0
  147.1376  135.2809  162.4180 C   0  0  0  0  0  0  0  0  0  0  0  0
  147.1580  136.6371  162.3919 O   0  0  0  0  0  0  0  0  0  0  0  0
  147.1467  137.0502  161.0549 N   0  0  0  0  0  0  0  0  0  0  0  0
  147.1481  134.5985  154.4324 C   0  0  0  0  0  0  0  0  0  0  0  0
  144.9906  133.7905  151.1263 H   0  0  0  0  0  0  0  0  0  0  0  0
  146.2410  135.0238  151.0620 H   0  0  0  0  0  0  0  0  0  0  0  0
  145.2188  134.8772  152.4926 H   0  0  0  0  0  0  0  0  0  0  0  0
  146.1779  132.5894  152.9283 H   0  0  0  0  0  0  0  0  0  0  0  0
  147.2476  132.7565  151.5519 H   0  0  0  0  0  0  0  0  0  0  0  0
  148.5422  132.1061  153.7742 H   0  0  0  0  0  0  0  0  0  0  0  0
  149.6458  133.1312  152.8637 H   0  0  0  0  0  0  0  0  0  0  0  0
  149.9531  134.6374  154.6888 H   0  0  0  0  0  0  0  0  0  0  0  0
  149.7174  131.8755  156.0323 H   0  0  0  0  0  0  0  0  0  0  0  0
  150.5875  133.2610  156.6924 H   0  0  0  0  0  0  0  0  0  0  0  0
  151.1288  132.5100  155.2019 H   0  0  0  0  0  0  0  0  0  0  0  0
  147.6139  133.3366  156.1108 H   0  0  0  0  0  0  0  0  0  0  0  0
  147.2569  137.0574  158.4992 H   0  0  0  0  0  0  0  0  0  0  0  0
  146.1651  135.6845  158.4127 H   0  0  0  0  0  0  0  0  0  0  0  0
  147.0923  133.7415  160.8498 H   0  0  0  0  0  0  0  0  0  0  0  0
  147.1436  134.8248  163.3967 H   0  0  0  0  0  0  0  0  0  0  0  0
  147.1204  135.6787  154.2782 H   0  0  0  0  0  0  0  0  0  0  0  0
  146.1234  134.2701  154.6142 H   0  0  0  0  0  0  0  0  0  0  0  0
  148.1176  134.7520  152.6887 H   0  0  0  0  0  0  0  0  0  0  0  0
  1  2  1  0  0  0  0
  1 19  1  0  0  0  0
  1 20  1  0  0  0  0
  1 21  1  0  0  0  0
  2  3  1  0  0  0  0
  2 22  1  0  0  0  0
  2 23  1  0  0  0  0
  3 18  1  0  0  0  0
  3  4  1  0  0  0  0
  3 37  1  0  0  0  0
  4  5  1  0  0  0  0
  4 24  1  0  0  0  0
  4 25  1  0  0  0  0
  5  6  1  0  0  0  0
  5  7  1  0  0  0  0
  5 26  1  0  0  0  0
  6 27  1  0  0  0  0
  6 28  1  0  0  0  0
  6 29  1  0  0  0  0
  7  8  1  0  0  0  0
  7 18  1  0  0  0  0
  7 30  1  0  0  0  0
  8  9  1  0  0  0  0
  9 10  2  0  0  0  0
  9 11  2  0  0  0  0
  9 12  1  0  0  0  0
 12 13  1  0  0  0  0
 12 31  1  0  0  0  0
 12 32  1  0  0  0  0
 13 17  2  0  0  0  0
 13 14  1  0  0  0  0
 14 15  2  0  0  0  0
 14 33  1  0  0  0  0
 15 16  1  0  0  0  0
 15 34  1  0  0  0  0
 16 17  1  0  0  0  0
 18 35  1  0  0  0  0
 18 36  1  0  0  0  0
M  CHG  1   3   1
M  CHG  1   8  -1
M  END
> <s_m_source_file>
AV-unprocessed.smi

> <i_m_source_file_index>
703

> <i_lp_mmshare_version>
43012

> <i_f3d_flags>
0

> <s_epik_input>
W0NIM11bQ0gyXU4xW0NIMl1bQ0BASF0oW0NIM10pW0NASF0oW0NIMl0xKVtOSF1TKD1PKSg9TylbQ0gyXWMyW2NIXVtjSF1vbjI=

> <s_epik_cmdline>
J2VwaWtfcHl0aG9uJywgJy1waCcsICc3LjAnLCAnLXRuJywgJzgnLCAnLW1hJywgJzIwMCcsICctbWV0YWxfYmluZGluZycsICctaW1hZScsICc8aW5maWxlLm1hZT4nLCAnLW9tYWUnLCAnPG91dGZpbGUubWFlPic=

> <r_epik_Ionization_Penalty>
3.62494

> <r_epik_Ionization_Penalty_Charging>
3.62494

> <r_epik_Ionization_Penalty_Neutral>
2.0321e-10

> <r_epik_State_Penalty>
3.62558

> <r_epik_Charging_Adjusted_Penalty>
7.25052

> <i_epik_Tot_Q>
0

> <i_epik_Tot_abs_Q>
2

> <r_epik_Metal_State_Penalty>
0.530836

> <b_epik_Metal_Only>
1

> <s_lp_Force_Field>
OPLS_2005

> <r_lp_Energy>
15.6249

> <b_lp_Chiralities_Consistent>
1

> <s_lp_Variant>
AV-unprocessed.smi:703-12

> <Gold.Version>
5.8.1

> <Gold.Id.Protein>
6NUR|6NUR_protein|mol2

> <Gold.PLP.Fitness>
40.9532

> <Gold.PLP.PLP>
-29.8599

> <Gold.PLP.part.hbond>
-6.7982

> <Gold.PLP.part.metal>
0.0000

> <Gold.PLP.part.buried>
-4.0409

> <Gold.PLP.part.nonpolar>
-18.3237

> <Gold.PLP.part.repulsive>
0.0098

> <Gold.PLP.ligand.clash>
0.0000

> <Gold.PLP.ligand.torsion>
0.9707

> <Gold.PLP.Chemscore.Hbond>
4.0000

> <Gold.PLP.Chemscore.CHOScore>
0.0000

> <Gold.PLP.Chemscore.Metal>
0.0000

> <Gold.Chemscore.Hbonds>
donor molecule, donor type, donor heavy atom, donor atom, acceptor molecule, acceptor atom, score
      L1  H     3    37       P1  7948  2.00
      P1  H  6896  6907       L1    11  0.37
      P1  H  6934  6947       L1    17  1.00

> <Gold.PLP.Chemscore.Internal.Correction>
1.0347

> <Gold.Rescore>
     Score         DG    S(hbond)    S(metal)    S(lipo)     H(rot)  DE(clash)    DE(int)     intcor
     16.54     -17.48       2.86        0.00      56.74       1.63       0.00       0.94       ----

> <Gold.Chemscore.Fitness>
16.5446

> <Gold.Chemscore.DG>
-17.4798

> <Gold.Chemscore.ZeroCoef>
-5.4800

> <Gold.Chemscore.Hbond>
2.8575

> <Gold.Chemscore.Metal>
0.0000

> <Gold.Chemscore.Lipo>
56.7386

> <Gold.Chemscore.Internal_Hbond>
0.0000

> <Gold.Chemscore.DEClash>
0.0000

> <Gold.Chemscore.DEInternal>
0.9352

> <Gold.Chemscore.Rot>
1.6338

> <Gold.Chemscore.Internal.Correction>
   9.000000E+99

> <Gold.Chemscore.Hbonds>
donor molecule, donor type, donor heavy atom, donor atom, acceptor molecule, acceptor atom, score
      L1  H     3    37       P1  7948  0.65
      P1  H  6896  6907       L1    11  0.14
      P1  H  6934  6947       L1    17  0.76

> <Gold.Chemscore.Hbond.Weighted>
-9.5439

> <Gold.Chemscore.Metal.Weighted>
-0.0000

> <Gold.Chemscore.Lipo.Weighted>
-6.6384

> <Gold.Chemscore.Internal_Hbond.Weighted>
0.0000

> <Gold.Chemscore.DEClash.Weighted>
0.0000

> <Gold.Chemscore.DEInternal.Weighted>
0.9352

> <Gold.Chemscore.Rot.Weighted>
4.1825

> <Gold.Chemscore.Internal.Correction.Weighted>
   9.000000E+99

> <Gold.Protein.RotatedTorsions>
[ 6907 6896 6895 6894 ] final -109.96 input  -60.11 | X-H torsion
[ 7974 7965 7964 7962 ] final  -83.92 input  175.53 | X-H torsion
[ 8008 7997 7996 7995 ] final  -50.81 input   59.86 | X-H torsion
[ 10167 10162 10161 10158 ] final   20.32 input  -65.29 | X-H torsion
[ 10718 10713 10712 10709 ] final  -13.71 input   66.30 | X-H torsion
[ 10763 10752 10751 10750 ] final -141.61 input  -60.55 | X-H torsion
[ 11005 11000 10999 10996 ] final   87.85 input  -57.11 | X-H torsion

> <Gold.Protein.ActiveResidues>
 VAL166  LYS551  ARG553  GLY616  TRP617  ASP618  TYR619  PRO620  LYS621  CYS622 
 ASP623  PHE694  ASN695  SER759  ASP760  ASP761  ALA762  ILE779  LEU786  VAL792 
 PHE793  MET794  SER795  GLU796  ALA797  LYS798  CYS799  TRP800  GLU811  SER814 

> <Gold.Protein.RotatedAtoms>
  150.7595  133.9452  159.3468 H   0  0  0  0  0  0  0  0  0  0  0  0  # atno 6907 bound_to 6896
  151.7364  135.0862  160.0318 H   0  0  0  0  0  0  0  0  0  0  0  0  # atno 6908 bound_to 6896
  152.3557  133.6196  159.6013 H   0  0  0  0  0  0  0  0  0  0  0  0  # atno 6909 bound_to 6896
  145.5136  140.9538  143.1694 H   0  0  0  0  0  0  0  0  0  0  0  0  # atno 7974 bound_to 7965
  154.4070  140.1263  156.4727 H   0  0  0  0  0  0  0  0  0  0  0  0  # atno 8008 bound_to 7997
  155.7163  140.3493  155.4976 H   0  0  0  0  0  0  0  0  0  0  0  0  # atno 8009 bound_to 7997
  155.9255  140.1060  157.1163 H   0  0  0  0  0  0  0  0  0  0  0  0  # atno 8010 bound_to 7997
  140.5512  143.9505  150.6579 H   0  0  0  0  0  0  0  0  0  0  0  0  # atno 10167 bound_to 10162
  156.6264  130.4889  149.6145 H   0  0  0  0  0  0  0  0  0  0  0  0  # atno 10718 bound_to 10713
  154.8539  135.3519  154.5896 H   0  0  0  0  0  0  0  0  0  0  0  0  # atno 10763 bound_to 10752
  153.6505  135.6994  153.5215 H   0  0  0  0  0  0  0  0  0  0  0  0  # atno 10764 bound_to 10752
  153.2897  135.4238  155.1114 H   0  0  0  0  0  0  0  0  0  0  0  0  # atno 10765 bound_to 10752
  139.8910  134.8449  156.2918 H   0  0  0  0  0  0  0  0  0  0  0  0  # atno 11005 bound_to 11000
  144.7714  139.6726  143.7193 LP  0  0  0  0  0  0  0  0  0  0  0  0  # atno 17320 bound_to 7965
  146.2151  139.5535  142.9655 LP  0  0  0  0  0  0  0  0  0  0  0  0  # atno 17321 bound_to 7965
  140.2931  143.3310  152.1043 LP  0  0  0  0  0  0  0  0  0  0  0  0  # atno 17342 bound_to 10162
  139.5028  144.6743  151.6167 LP  0  0  0  0  0  0  0  0  0  0  0  0  # atno 17343 bound_to 10162
  156.2270  130.6771  151.1426 LP  0  0  0  0  0  0  0  0  0  0  0  0  # atno 17370 bound_to 10713
  157.7213  131.0680  150.6124 LP  0  0  0  0  0  0  0  0  0  0  0  0  # atno 17371 bound_to 10713
  140.9971  133.7173  156.0903 LP  0  0  0  0  0  0  0  0  0  0  0  0  # atno 17394 bound_to 11000
  140.7548  134.4005  157.5535 LP  0  0  0  0  0  0  0  0  0  0  0  0  # atno 17395 bound_to 11000

$$$$
