AV-unprocessed.smi:1136|AV-procd|sdf|4862|dock5
  -GOLD-   22720 3433D 1   1.00000     0.00000
 Structure written by MMmdl.
 42 43  0  0  0  0  0  0  0  0  1 V2000
  143.3551  134.4670  163.2416 C   0  0  0  0  0  0  0  0  0  0  0  0
  144.8431  134.4363  163.0530 C   0  0  0  0  0  0  0  0  0  0  0  0
  145.6984  133.3026  162.9632 C   0  0  0  0  0  0  0  0  0  0  0  0
  146.9465  133.8333  162.7964 C   0  0  0  0  0  0  0  0  0  0  0  0
  148.2686  133.1561  162.6412 C   0  0  0  0  0  0  0  0  0  0  0  0
  146.8004  135.2096  162.7937 N   0  0  0  0  0  0  0  0  0  0  0  0
  147.8175  136.2428  162.6541 C   0  0  0  0  0  0  0  0  0  0  0  0
  147.7803  136.9094  161.2752 C   0  0  0  0  0  0  0  0  0  0  0  0
  146.8267  137.6235  160.9669 O   0  0  0  0  0  0  0  0  0  0  0  0
  148.8232  136.6804  160.4607 N   0  0  0  0  0  0  0  0  0  0  0  0
  148.9852  137.2267  159.1155 C   0  0  0  0  0  0  0  0  0  0  0  0
  150.2917  136.7867  158.4282 C   0  0  0  0  0  0  0  0  0  0  0  0
  150.5357  135.5836  158.3168 O   0  0  0  0  0  0  0  0  0  0  0  0
  151.1318  137.7388  157.9533 N   0  0  0  0  0  0  0  0  0  0  0  0
  150.8893  139.1878  157.9920 C   0  0  0  0  0  0  0  0  0  0  0  0
  150.5962  139.6774  156.5622 C   0  0  0  0  0  0  0  0  0  0  0  0
  151.7489  139.3091  155.6083 C   0  0  0  0  0  0  0  0  0  0  0  0
  152.1304  137.8204  155.7229 C   0  0  0  0  0  0  0  0  0  0  0  0
  152.3469  137.4167  157.1934 C   0  0  0  0  0  0  0  0  0  0  0  0
  145.5089  135.5747  162.9507 N   0  0  0  0  0  0  0  0  0  0  0  0
  142.9340  133.4616  163.2202 H   0  0  0  0  0  0  0  0  0  0  0  0
  142.8706  135.0453  162.4544 H   0  0  0  0  0  0  0  0  0  0  0  0
  143.0907  134.9176  164.1984 H   0  0  0  0  0  0  0  0  0  0  0  0
  145.4344  132.2566  163.0143 H   0  0  0  0  0  0  0  0  0  0  0  0
  148.1621  132.0735  162.7127 H   0  0  0  0  0  0  0  0  0  0  0  0
  148.9641  133.4742  163.4179 H   0  0  0  0  0  0  0  0  0  0  0  0
  148.7118  133.3868  161.6724 H   0  0  0  0  0  0  0  0  0  0  0  0
  147.6669  136.9895  163.4347 H   0  0  0  0  0  0  0  0  0  0  0  0
  148.8053  135.8085  162.8170 H   0  0  0  0  0  0  0  0  0  0  0  0
  149.5649  136.0861  160.8026 H   0  0  0  0  0  0  0  0  0  0  0  0
  148.1382  136.8819  158.5220 H   0  0  0  0  0  0  0  0  0  0  0  0
  148.9336  138.3163  159.1470 H   0  0  0  0  0  0  0  0  0  0  0  0
  150.0801  139.4819  158.6580 H   0  0  0  0  0  0  0  0  0  0  0  0
  151.7772  139.6881  158.3812 H   0  0  0  0  0  0  0  0  0  0  0  0
  149.6679  139.2278  156.2066 H   0  0  0  0  0  0  0  0  0  0  0  0
  150.4398  140.7564  156.5590 H   0  0  0  0  0  0  0  0  0  0  0  0
  151.4805  139.5523  154.5800 H   0  0  0  0  0  0  0  0  0  0  0  0
  152.6198  139.9188  155.8518 H   0  0  0  0  0  0  0  0  0  0  0  0
  151.3385  137.2065  155.2916 H   0  0  0  0  0  0  0  0  0  0  0  0
  153.0300  137.6194  155.1408 H   0  0  0  0  0  0  0  0  0  0  0  0
  153.1927  137.9630  157.6132 H   0  0  0  0  0  0  0  0  0  0  0  0
  152.6180  136.3619  157.2521 H   0  0  0  0  0  0  0  0  0  0  0  0
  1  2  1  0  0  0  0
  1 21  1  0  0  0  0
  1 22  1  0  0  0  0
  1 23  1  0  0  0  0
  2 20  2  0  0  0  0
  2  3  1  0  0  0  0
  3  4  2  0  0  0  0
  3 24  1  0  0  0  0
  4  5  1  0  0  0  0
  4  6  1  0  0  0  0
  5 25  1  0  0  0  0
  5 26  1  0  0  0  0
  5 27  1  0  0  0  0
  6  7  1  0  0  0  0
  6 20  1  0  0  0  0
  7  8  1  0  0  0  0
  7 28  1  0  0  0  0
  7 29  1  0  0  0  0
  8  9  2  0  0  0  0
  8 10  1  0  0  0  0
 10 11  1  0  0  0  0
 10 30  1  0  0  0  0
 11 12  1  0  0  0  0
 11 31  1  0  0  0  0
 11 32  1  0  0  0  0
 12 13  2  0  0  0  0
 12 14  1  0  0  0  0
 14 19  1  0  0  0  0
 14 15  1  0  0  0  0
 15 16  1  0  0  0  0
 15 33  1  0  0  0  0
 15 34  1  0  0  0  0
 16 17  1  0  0  0  0
 16 35  1  0  0  0  0
 16 36  1  0  0  0  0
 17 18  1  0  0  0  0
 17 37  1  0  0  0  0
 17 38  1  0  0  0  0
 18 19  1  0  0  0  0
 18 39  1  0  0  0  0
 18 40  1  0  0  0  0
 19 41  1  0  0  0  0
 19 42  1  0  0  0  0
M  END
> <s_m_source_file>
AV-unprocessed.smi

> <i_m_source_file_index>
1136

> <i_lp_mmshare_version>
43012

> <i_f3d_flags>
0

> <s_epik_input>
W0NIM11jMVtjSF1jKFtDSDNdKW4objEpW0NIMl1DKD1PKVtOSF1bQ0gyXUMoPU8pTjJbQ0gyXVtDSDJdW0NIMl1bQ0gyXVtDSDJdMg==

> <s_epik_cmdline>
J2VwaWtfcHl0aG9uJywgJy1waCcsICc3LjAnLCAnLXRuJywgJzgnLCAnLW1hJywgJzIwMCcsICctbWV0YWxfYmluZGluZycsICctaW1hZScsICc8aW5maWxlLm1hZT4nLCAnLW9tYWUnLCAnPG91dGZpbGUubWFlPic=

> <r_lp_tautomer_probability>
1

> <r_epik_Ionization_Penalty>
0.000263643

> <r_epik_Ionization_Penalty_Charging>
0

> <r_epik_Ionization_Penalty_Neutral>
0.000263643

> <r_epik_State_Penalty>
-0

> <r_epik_Charging_Adjusted_Penalty>
0

> <i_epik_Tot_Q>
0

> <i_epik_Tot_abs_Q>
0

> <r_epik_Metal_State_Penalty>
-0

> <b_epik_Metal_Only>
0

> <s_lp_Force_Field>
OPLS_2005

> <r_lp_Energy>
19.7074

> <b_lp_Chiralities_Consistent>
1

> <s_lp_Variant>
AV-unprocessed.smi:1136-1

> <Gold.Version>
5.8.1

> <Gold.Id.Protein>
6NUR|6NUR_protein|mol2

> <Gold.PLP.Fitness>
43.1562

> <Gold.PLP.PLP>
-38.2159

> <Gold.PLP.part.hbond>
-2.2459

> <Gold.PLP.part.metal>
0.0000

> <Gold.PLP.part.buried>
-5.0032

> <Gold.PLP.part.nonpolar>
-32.8272

> <Gold.PLP.part.repulsive>
0.2343

> <Gold.PLP.ligand.clash>
0.0000

> <Gold.PLP.ligand.torsion>
0.2663

> <Gold.PLP.Chemscore.Hbond>
1.8160

> <Gold.PLP.Chemscore.CHOScore>
0.0000

> <Gold.PLP.Chemscore.Metal>
0.0000

> <Gold.Chemscore.Hbonds>
donor molecule, donor type, donor heavy atom, donor atom, acceptor molecule, acceptor atom, score
      P1  H  6896  6907       L1    13  0.69
      P1  H  6934  6947       L1     9  0.78

> <Gold.PLP.Chemscore.Internal.Correction>
0.0248

> <Gold.Rescore>
     Score         DG    S(hbond)    S(metal)    S(lipo)     H(rot)  DE(clash)    DE(int)     intcor
     15.71     -16.18       1.77        0.00      76.23       1.61       0.01       0.45       ----

> <Gold.Chemscore.Fitness>
15.7120

> <Gold.Chemscore.DG>
-16.1765

> <Gold.Chemscore.ZeroCoef>
-5.4800

> <Gold.Chemscore.Hbond>
1.7690

> <Gold.Chemscore.Metal>
0.0000

> <Gold.Chemscore.Lipo>
76.2257

> <Gold.Chemscore.Internal_Hbond>
0.0000

> <Gold.Chemscore.DEClash>
0.0148

> <Gold.Chemscore.DEInternal>
0.4497

> <Gold.Chemscore.Rot>
1.6134

> <Gold.Chemscore.Internal.Correction>
   9.000000E+99

> <Gold.Chemscore.Hbonds>
donor molecule, donor type, donor heavy atom, donor atom, acceptor molecule, acceptor atom, score
      P1  H  6896  6907       L1    13  0.63
      P1  H  6934  6947       L1     9  0.65

> <Gold.Chemscore.Hbond.Weighted>
-5.9084

> <Gold.Chemscore.Metal.Weighted>
-0.0000

> <Gold.Chemscore.Lipo.Weighted>
-8.9184

> <Gold.Chemscore.Internal_Hbond.Weighted>
0.0000

> <Gold.Chemscore.DEClash.Weighted>
0.0148

> <Gold.Chemscore.DEInternal.Weighted>
0.4497

> <Gold.Chemscore.Rot.Weighted>
4.1303

> <Gold.Chemscore.Internal.Correction.Weighted>
   9.000000E+99

> <Gold.Protein.RotatedTorsions>
[ 6907 6896 6895 6894 ] final  -56.09 input  -60.11 | X-H torsion
[ 7974 7965 7964 7962 ] final -177.45 input  175.53 | X-H torsion
[ 8008 7997 7996 7995 ] final  -62.41 input   59.86 | X-H torsion
[ 10167 10162 10161 10158 ] final  -90.96 input  -65.29 | X-H torsion
[ 10718 10713 10712 10709 ] final  -54.24 input   66.30 | X-H torsion
[ 10763 10752 10751 10750 ] final  -58.70 input  -60.55 | X-H torsion
[ 11005 11000 10999 10996 ] final -154.73 input  -57.11 | X-H torsion

> <Gold.Protein.ActiveResidues>
 VAL166  LYS551  ARG553  GLY616  TRP617  ASP618  TYR619  PRO620  LYS621  CYS622 
 ASP623  PHE694  ASN695  SER759  ASP760  ASP761  ALA762  ILE779  LEU786  VAL792 
 PHE793  MET794  SER795  GLU796  ALA797  LYS798  CYS799  TRP800  GLU811  SER814 

> <Gold.Protein.RotatedAtoms>
  150.8197  134.7397  159.6760 H   0  0  0  0  0  0  0  0  0  0  0  0  # atno 6907 bound_to 6896
  152.4313  134.5769  159.9946 H   0  0  0  0  0  0  0  0  0  0  0  0  # atno 6908 bound_to 6896
  151.5956  133.3324  159.3072 H   0  0  0  0  0  0  0  0  0  0  0  0  # atno 6909 bound_to 6896
  144.7128  140.1017  143.6416 H   0  0  0  0  0  0  0  0  0  0  0  0  # atno 7974 bound_to 7965
  154.4498  140.0997  156.6582 H   0  0  0  0  0  0  0  0  0  0  0  0  # atno 8008 bound_to 7997
  155.5322  140.3481  155.4410 H   0  0  0  0  0  0  0  0  0  0  0  0  # atno 8009 bound_to 7997
  156.0656  140.1337  156.9879 H   0  0  0  0  0  0  0  0  0  0  0  0  # atno 8010 bound_to 7997
  140.3497  143.2898  151.9741 H   0  0  0  0  0  0  0  0  0  0  0  0  # atno 10167 bound_to 10162
  156.1467  130.4152  150.0012 H   0  0  0  0  0  0  0  0  0  0  0  0  # atno 10718 bound_to 10713
  154.2422  135.6341  153.5211 H   0  0  0  0  0  0  0  0  0  0  0  0  # atno 10763 bound_to 10752
  152.9928  135.5545  154.5898 H   0  0  0  0  0  0  0  0  0  0  0  0  # atno 10764 bound_to 10752
  154.5406  135.2894  155.1073 H   0  0  0  0  0  0  0  0  0  0  0  0  # atno 10765 bound_to 10752
  140.6942  134.4008  157.5216 H   0  0  0  0  0  0  0  0  0  0  0  0  # atno 11005 bound_to 11000
  145.9532  139.2748  143.1200 LP  0  0  0  0  0  0  0  0  0  0  0  0  # atno 17320 bound_to 7965
  145.9301  140.9054  143.0361 LP  0  0  0  0  0  0  0  0  0  0  0  0  # atno 17321 bound_to 7965
  139.4828  144.6087  151.7474 LP  0  0  0  0  0  0  0  0  0  0  0  0  # atno 17342 bound_to 10162
  140.5231  144.0848  150.6029 LP  0  0  0  0  0  0  0  0  0  0  0  0  # atno 17343 bound_to 10162
  156.7882  130.9246  151.3646 LP  0  0  0  0  0  0  0  0  0  0  0  0  # atno 17370 bound_to 10713
  157.6623  130.8976  149.9856 LP  0  0  0  0  0  0  0  0  0  0  0  0  # atno 17371 bound_to 10713
  139.8915  134.8779  156.2318 LP  0  0  0  0  0  0  0  0  0  0  0  0  # atno 17394 bound_to 11000
  141.0217  133.7038  156.1279 LP  0  0  0  0  0  0  0  0  0  0  0  0  # atno 17395 bound_to 11000

$$$$
