AV-unprocessed.smi:1961|AV-procd|sdf|7920|dock2
  -GOLD-   2272010 83D 1   1.00000     0.00000
 Structure written by MMmdl.
 35 36  0  0  0  0  0  0  0  0  2 V2000
  151.7542  141.1710  159.0575 C   0  0  0  0  0  0  0  0  0  0  0  0
  151.3825  141.9544  157.7899 C   0  0  0  0  0  0  0  0  0  0  0  0
  150.2381  142.9539  158.0114 C   0  0  0  0  0  0  0  0  0  0  0  0
  151.1250  141.0527  156.6235 C   0  0  0  0  0  0  0  0  0  0  0  0
  150.5443  141.4671  155.4932 N   0  0  0  0  0  0  0  0  0  0  0  0
  150.4180  140.4460  154.5632 N   0  0  0  0  0  0  0  0  0  0  0  0
  150.9136  139.2780  154.9949 C   0  0  0  0  0  0  0  0  0  0  0  0
  150.8878  138.1629  154.2466 N   0  5  0  0  0  0  0  0  0  0  0  0
  151.0627  136.9545  154.8282 C   0  0  0  0  0  0  0  0  0  0  0  0
  151.9776  136.6370  155.5919 O   0  0  0  0  0  0  0  0  0  0  0  0
  150.1163  136.0599  154.5097 N   0  0  0  0  0  0  0  0  0  0  0  0
  150.0383  134.6880  154.9993 C   0  0  0  0  0  0  0  0  0  0  0  0
  149.5100  133.7306  153.9182 C   0  0  2  0  0  0  0  0  0  0  0  0
  148.0139  133.8673  153.6464 C   0  0  0  0  0  0  0  0  0  0  0  0
  147.6304  132.5050  153.0884 C   0  0  0  0  0  0  0  0  0  0  0  0
  148.8113  131.6026  153.4599 C   0  0  0  0  0  0  0  0  0  0  0  0
  149.6109  132.3795  154.3400 O   0  0  0  0  0  0  0  0  0  0  0  0
  151.5681  139.3534  156.6301 S   0  0  0  0  0  0  0  0  0  0  0  0
  152.6217  140.5333  158.8837 H   0  0  0  0  0  0  0  0  0  0  0  0
  150.9323  140.5335  159.3850 H   0  0  0  0  0  0  0  0  0  0  0  0
  151.9984  141.8455  159.8785 H   0  0  0  0  0  0  0  0  0  0  0  0
  152.2600  142.5479  157.5303 H   0  0  0  0  0  0  0  0  0  0  0  0
  150.0614  143.5503  157.1157 H   0  0  0  0  0  0  0  0  0  0  0  0
  150.4683  143.6410  158.8259 H   0  0  0  0  0  0  0  0  0  0  0  0
  149.3071  142.4433  158.2598 H   0  0  0  0  0  0  0  0  0  0  0  0
  149.3836  136.3630  153.8852 H   0  0  0  0  0  0  0  0  0  0  0  0
  151.0331  134.3802  155.3220 H   0  0  0  0  0  0  0  0  0  0  0  0
  149.4004  134.6491  155.8835 H   0  0  0  0  0  0  0  0  0  0  0  0
  150.0628  133.8562  152.9850 H   0  0  0  0  0  0  0  0  0  0  0  0
  147.4759  134.0435  154.5788 H   0  0  0  0  0  0  0  0  0  0  0  0
  147.7841  134.6868  152.9649 H   0  0  0  0  0  0  0  0  0  0  0  0
  146.6969  132.1524  153.5278 H   0  0  0  0  0  0  0  0  0  0  0  0
  147.5009  132.5392  152.0061 H   0  0  0  0  0  0  0  0  0  0  0  0
  148.4965  130.6727  153.9336 H   0  0  0  0  0  0  0  0  0  0  0  0
  149.3962  131.3526  152.5734 H   0  0  0  0  0  0  0  0  0  0  0  0
  1  2  1  0  0  0  0
  1 19  1  0  0  0  0
  1 20  1  0  0  0  0
  1 21  1  0  0  0  0
  2  3  1  0  0  0  0
  2  4  1  0  0  0  0
  2 22  1  0  0  0  0
  3 23  1  0  0  0  0
  3 24  1  0  0  0  0
  3 25  1  0  0  0  0
  4 18  1  0  0  0  0
  4  5  2  0  0  0  0
  5  6  1  0  0  0  0
  6  7  2  0  0  0  0
  7  8  1  0  0  0  0
  7 18  1  0  0  0  0
  8  9  1  0  0  0  0
  9 10  2  0  0  0  0
  9 11  1  0  0  0  0
 11 12  1  0  0  0  0
 11 26  1  0  0  0  0
 12 13  1  0  0  0  0
 12 27  1  0  0  0  0
 12 28  1  0  0  0  0
 13 17  1  0  0  0  0
 13 14  1  0  0  0  0
 13 29  1  0  0  0  0
 14 15  1  0  0  0  0
 14 30  1  0  0  0  0
 14 31  1  0  0  0  0
 15 16  1  0  0  0  0
 15 32  1  0  0  0  0
 15 33  1  0  0  0  0
 16 17  1  0  0  0  0
 16 34  1  0  0  0  0
 16 35  1  0  0  0  0
M  CHG  1   8  -1
M  END
> <s_m_source_file>
AV-unprocessed.smi

> <i_m_source_file_index>
1961

> <i_lp_mmshare_version>
43012

> <i_f3d_flags>
0

> <s_epik_input>
W0NIM11bQ0hdKFtDSDNdKWMxbm5jKHMxKVtOSF1DKD1PKVtOSF1bQ0gyXVtDQEBIXTJbQ0gyXVtDSDJdW0NIMl1PMg==

> <s_epik_cmdline>
J2VwaWtfcHl0aG9uJywgJy1waCcsICc3LjAnLCAnLXRuJywgJzgnLCAnLW1hJywgJzIwMCcsICctbWV0YWxfYmluZGluZycsICctaW1hZScsICc8aW5maWxlLm1hZT4nLCAnLW9tYWUnLCAnPG91dGZpbGUubWFlPic=

> <r_lp_tautomer_probability>
1

> <r_epik_Ionization_Penalty>
4.36179

> <r_epik_Ionization_Penalty_Charging>
4.21437

> <r_epik_Ionization_Penalty_Neutral>
0.147417

> <r_epik_State_Penalty>
4.21389

> <r_epik_Charging_Adjusted_Penalty>
8.42826

> <i_epik_Tot_Q>
-1

> <i_epik_Tot_abs_Q>
1

> <r_epik_Metal_State_Penalty>
0.693772

> <b_epik_Metal_Only>
1

> <s_lp_Force_Field>
OPLS_2005

> <r_lp_Energy>
8.68115

> <b_lp_Chiralities_Consistent>
1

> <s_lp_Variant>
AV-unprocessed.smi:1961-3

> <Gold.Version>
5.8.1

> <Gold.Id.Protein>
6NUR|6NUR_protein|mol2

> <Gold.PLP.Fitness>
35.8047

> <Gold.PLP.PLP>
-30.1726

> <Gold.PLP.part.hbond>
-4.4431

> <Gold.PLP.part.metal>
0.0000

> <Gold.PLP.part.buried>
-1.5611

> <Gold.PLP.part.nonpolar>
-23.8318

> <Gold.PLP.part.repulsive>
0.5766

> <Gold.PLP.ligand.clash>
0.0000

> <Gold.PLP.ligand.torsion>
1.2094

> <Gold.PLP.Chemscore.Hbond>
2.6292

> <Gold.PLP.Chemscore.CHOScore>
0.0000

> <Gold.PLP.Chemscore.Metal>
0.0000

> <Gold.Chemscore.Hbonds>
donor molecule, donor type, donor heavy atom, donor atom, acceptor molecule, acceptor atom, score
      L1  H    11    26       P1  7948  0.69
      P1  H  7989  7998       L1     6  1.00
      P1  H 10752 10765       L1    10  1.00

> <Gold.PLP.Chemscore.Internal.Correction>
0.1633

> <Gold.Rescore>
     Score         DG    S(hbond)    S(metal)    S(lipo)     H(rot)  DE(clash)    DE(int)     intcor
     11.11     -13.68       1.41        0.00      60.80       1.42       0.16       2.41       ----

> <Gold.Chemscore.Fitness>
11.1107

> <Gold.Chemscore.DG>
-13.6816

> <Gold.Chemscore.ZeroCoef>
-5.4800

> <Gold.Chemscore.Hbond>
1.4136

> <Gold.Chemscore.Metal>
0.0000

> <Gold.Chemscore.Lipo>
60.7981

> <Gold.Chemscore.Internal_Hbond>
0.0000

> <Gold.Chemscore.DEClash>
0.1594

> <Gold.Chemscore.DEInternal>
2.4115

> <Gold.Chemscore.Rot>
1.4193

> <Gold.Chemscore.Internal.Correction>
   9.000000E+99

> <Gold.Chemscore.Hbonds>
donor molecule, donor type, donor heavy atom, donor atom, acceptor molecule, acceptor atom, score
      L1  H    11    26       P1  7948  0.56
      P1  H  7989  7998       L1     6  0.06
      P1  H 10752 10765       L1    10  0.55

> <Gold.Chemscore.Hbond.Weighted>
-4.7216

> <Gold.Chemscore.Metal.Weighted>
-0.0000

> <Gold.Chemscore.Lipo.Weighted>
-7.1134

> <Gold.Chemscore.Internal_Hbond.Weighted>
0.0000

> <Gold.Chemscore.DEClash.Weighted>
0.1594

> <Gold.Chemscore.DEInternal.Weighted>
2.4115

> <Gold.Chemscore.Rot.Weighted>
3.6333

> <Gold.Chemscore.Internal.Correction.Weighted>
   9.000000E+99

> <Gold.Protein.RotatedTorsions>
[ 6907 6896 6895 6894 ] final    0.58 input  -60.11 | X-H torsion
[ 7974 7965 7964 7962 ] final   37.52 input  175.53 | X-H torsion
[ 8008 7997 7996 7995 ] final  -78.07 input   59.86 | X-H torsion
[ 10167 10162 10161 10158 ] final  -51.59 input  -65.29 | X-H torsion
[ 10718 10713 10712 10709 ] final  161.86 input   66.30 | X-H torsion
[ 10763 10752 10751 10750 ] final -172.79 input  -60.55 | X-H torsion
[ 11005 11000 10999 10996 ] final  -64.59 input  -57.11 | X-H torsion

> <Gold.Protein.ActiveResidues>
 VAL166  LYS551  ARG553  GLY616  TRP617  ASP618  TYR619  PRO620  LYS621  CYS622 
 ASP623  PHE694  ASN695  SER759  ASP760  ASP761  ALA762  ILE779  LEU786  VAL792 
 PHE793  MET794  SER795  GLU796  ALA797  LYS798  CYS799  TRP800  GLU811  SER814 

> <Gold.Protein.RotatedAtoms>
  151.5788  135.1059  160.0012 H   0  0  0  0  0  0  0  0  0  0  0  0  # atno 6907 bound_to 6896
  152.4364  133.7365  159.6627 H   0  0  0  0  0  0  0  0  0  0  0  0  # atno 6908 bound_to 6896
  150.8263  133.8096  159.3140 H   0  0  0  0  0  0  0  0  0  0  0  0  # atno 6909 bound_to 6896
  146.1131  139.5884  142.9339 H   0  0  0  0  0  0  0  0  0  0  0  0  # atno 7974 bound_to 7965
  154.5654  140.0700  156.8884 H   0  0  0  0  0  0  0  0  0  0  0  0  # atno 8008 bound_to 7997
  155.2732  140.3366  155.4245 H   0  0  0  0  0  0  0  0  0  0  0  0  # atno 8009 bound_to 7997
  156.2077  140.1746  156.7750 H   0  0  0  0  0  0  0  0  0  0  0  0  # atno 8010 bound_to 7997
  140.6580  143.2614  151.4526 H   0  0  0  0  0  0  0  0  0  0  0  0  # atno 10167 bound_to 10162
  157.1307  131.0516  151.2373 H   0  0  0  0  0  0  0  0  0  0  0  0  # atno 10718 bound_to 10713
  154.6152  135.2869  155.0387 H   0  0  0  0  0  0  0  0  0  0  0  0  # atno 10763 bound_to 10752
  154.1602  135.6489  153.4988 H   0  0  0  0  0  0  0  0  0  0  0  0  # atno 10764 bound_to 10752
  153.0212  135.5376  154.6921 H   0  0  0  0  0  0  0  0  0  0  0  0  # atno 10765 bound_to 10752
  141.1429  133.6668  156.5857 H   0  0  0  0  0  0  0  0  0  0  0  0  # atno 11005 bound_to 11000
  145.5622  141.0403  143.2220 LP  0  0  0  0  0  0  0  0  0  0  0  0  # atno 17320 bound_to 7965
  144.7529  139.7148  143.7266 LP  0  0  0  0  0  0  0  0  0  0  0  0  # atno 17321 bound_to 7965
  139.5807  144.1716  152.1964 LP  0  0  0  0  0  0  0  0  0  0  0  0  # atno 17342 bound_to 10162
  140.1040  144.5515  150.6969 LP  0  0  0  0  0  0  0  0  0  0  0  0  # atno 17343 bound_to 10162
  157.4395  130.7536  149.7057 LP  0  0  0  0  0  0  0  0  0  0  0  0  # atno 17370 bound_to 10713
  155.9808  130.4025  150.3504 LP  0  0  0  0  0  0  0  0  0  0  0  0  # atno 17371 bound_to 10713
  140.3803  134.7529  157.4656 LP  0  0  0  0  0  0  0  0  0  0  0  0  # atno 17394 bound_to 11000
  140.0643  134.5951  155.8713 LP  0  0  0  0  0  0  0  0  0  0  0  0  # atno 17395 bound_to 11000

$$$$
