AV-unprocessed.smi:1959|AV-procd|sdf|7915|dock3
  -GOLD-   2272010 83D 1   1.00000     0.00000
 Structure written by MMmdl.
 45 46  0  0  0  0  0  0  0  0  2 V2000
  148.1802  141.8943  154.1252 C   0  0  0  0  0  0  0  0  0  0  0  0
  149.2023  141.0825  154.8649 C   0  0  0  0  0  0  0  0  0  0  0  0
  149.5144  141.1096  156.2530 C   0  0  0  0  0  0  0  0  0  0  0  0
  150.5064  140.1804  156.3946 C   0  0  0  0  0  0  0  0  0  0  0  0
  151.2486  139.7404  157.6140 C   0  0  0  0  0  0  0  0  0  0  0  0
  150.7435  139.6532  155.1370 N   0  0  0  0  0  0  0  0  0  0  0  0
  151.6904  138.6230  154.7348 C   0  0  0  0  0  0  0  0  0  0  0  0
  151.3006  137.2302  155.2442 C   0  0  0  0  0  0  0  0  0  0  0  0
  152.1249  136.5032  155.8005 O   0  0  0  0  0  0  0  0  0  0  0  0
  150.0295  136.8597  155.0213 N   0  0  0  0  0  0  0  0  0  0  0  0
  149.4246  135.5850  155.4123 C   0  0  1  0  0  0  0  0  0  0  0  0
  149.6872  135.3423  156.9046 C   0  0  0  0  0  0  0  0  0  0  0  0
  147.9112  135.5585  155.0947 C   0  0  0  0  0  0  0  0  0  0  0  0
  147.6063  134.9601  153.7702 N   0  3  0  0  0  0  0  0  0  0  0  0
  148.0173  133.5406  153.6500 C   0  0  0  0  0  0  0  0  0  0  0  0
  147.7597  133.0390  152.2199 C   0  0  0  0  0  0  0  0  0  0  0  0
  146.3819  133.1995  151.9037 O   0  0  0  0  0  0  0  0  0  0  0  0
  145.9777  134.5629  151.9477 C   0  0  0  0  0  0  0  0  0  0  0  0
  146.1912  135.1242  153.3644 C   0  0  0  0  0  0  0  0  0  0  0  0
  149.9427  140.2092  154.2023 N   0  0  0  0  0  0  0  0  0  0  0  0
  147.6067  142.5222  154.8074 H   0  0  0  0  0  0  0  0  0  0  0  0
  147.4766  141.2519  153.5953 H   0  0  0  0  0  0  0  0  0  0  0  0
  148.6541  142.5474  153.3920 H   0  0  0  0  0  0  0  0  0  0  0  0
  149.0738  141.7184  157.0286 H   0  0  0  0  0  0  0  0  0  0  0  0
  150.8799  140.2558  158.5012 H   0  0  0  0  0  0  0  0  0  0  0  0
  152.3129  139.9566  157.5202 H   0  0  0  0  0  0  0  0  0  0  0  0
  151.1311  138.6688  157.7771 H   0  0  0  0  0  0  0  0  0  0  0  0
  151.7615  138.6104  153.6457 H   0  0  0  0  0  0  0  0  0  0  0  0
  152.6790  138.8832  155.1141 H   0  0  0  0  0  0  0  0  0  0  0  0
  149.4240  137.5227  154.5584 H   0  0  0  0  0  0  0  0  0  0  0  0
  149.9162  134.7747  154.8721 H   0  0  0  0  0  0  0  0  0  0  0  0
  149.2811  134.3815  157.2223 H   0  0  0  0  0  0  0  0  0  0  0  0
  149.2304  136.1169  157.5218 H   0  0  0  0  0  0  0  0  0  0  0  0
  150.7566  135.3329  157.1193 H   0  0  0  0  0  0  0  0  0  0  0  0
  147.3606  135.0278  155.8729 H   0  0  0  0  0  0  0  0  0  0  0  0
  147.5454  136.5864  155.1127 H   0  0  0  0  0  0  0  0  0  0  0  0
  149.0739  133.4267  153.8905 H   0  0  0  0  0  0  0  0  0  0  0  0
  147.4605  132.9335  154.3654 H   0  0  0  0  0  0  0  0  0  0  0  0
  148.3778  133.5793  151.5003 H   0  0  0  0  0  0  0  0  0  0  0  0
  148.0220  131.9843  152.1375 H   0  0  0  0  0  0  0  0  0  0  0  0
  146.5367  135.1427  151.2113 H   0  0  0  0  0  0  0  0  0  0  0  0
  144.9251  134.6280  151.6722 H   0  0  0  0  0  0  0  0  0  0  0  0
  145.5430  134.6105  154.0763 H   0  0  0  0  0  0  0  0  0  0  0  0
  145.9182  136.1801  153.3830 H   0  0  0  0  0  0  0  0  0  0  0  0
  148.1525  135.4789  153.0968 H   0  0  0  0  0  0  0  0  0  0  0  0
  1  2  1  0  0  0  0
  1 21  1  0  0  0  0
  1 22  1  0  0  0  0
  1 23  1  0  0  0  0
  2 20  2  0  0  0  0
  2  3  1  0  0  0  0
  3  4  2  0  0  0  0
  3 24  1  0  0  0  0
  4  5  1  0  0  0  0
  4  6  1  0  0  0  0
  5 25  1  0  0  0  0
  5 26  1  0  0  0  0
  5 27  1  0  0  0  0
  6  7  1  0  0  0  0
  6 20  1  0  0  0  0
  7  8  1  0  0  0  0
  7 28  1  0  0  0  0
  7 29  1  0  0  0  0
  8  9  2  0  0  0  0
  8 10  1  0  0  0  0
 10 11  1  0  0  0  0
 10 30  1  0  0  0  0
 11 12  1  0  0  0  0
 11 13  1  0  0  0  0
 11 31  1  0  0  0  0
 12 32  1  0  0  0  0
 12 33  1  0  0  0  0
 12 34  1  0  0  0  0
 13 14  1  0  0  0  0
 13 35  1  0  0  0  0
 13 36  1  0  0  0  0
 14 19  1  0  0  0  0
 14 15  1  0  0  0  0
 14 45  1  0  0  0  0
 15 16  1  0  0  0  0
 15 37  1  0  0  0  0
 15 38  1  0  0  0  0
 16 17  1  0  0  0  0
 16 39  1  0  0  0  0
 16 40  1  0  0  0  0
 17 18  1  0  0  0  0
 18 19  1  0  0  0  0
 18 41  1  0  0  0  0
 18 42  1  0  0  0  0
 19 43  1  0  0  0  0
 19 44  1  0  0  0  0
M  CHG  1  14   1
M  END
> <s_m_source_file>
AV-unprocessed.smi

> <i_m_source_file_index>
1959

> <i_lp_mmshare_version>
43012

> <i_f3d_flags>
0

> <s_epik_input>
W0NIM11jMVtjSF1jKFtDSDNdKW4objEpW0NIMl1DKD1PKVtOSF1bQ0BIXShbQ0gzXSlbQ0gyXU4yW0NIMl1bQ0gyXU9bQ0gyXVtDSDJdMg==

> <s_epik_cmdline>
J2VwaWtfcHl0aG9uJywgJy1waCcsICc3LjAnLCAnLXRuJywgJzgnLCAnLW1hJywgJzIwMCcsICctbWV0YWxfYmluZGluZycsICctaW1hZScsICc8aW5maWxlLm1hZT4nLCAnLW9tYWUnLCAnPG91dGZpbGUubWFlPic=

> <r_lp_tautomer_probability>
1

> <r_epik_Ionization_Penalty>
0.748605

> <r_epik_Ionization_Penalty_Charging>
0.748396

> <r_epik_Ionization_Penalty_Neutral>
0.000208859

> <r_epik_State_Penalty>
0.775162

> <r_epik_Charging_Adjusted_Penalty>
1.52356

> <i_epik_Tot_Q>
1

> <i_epik_Tot_abs_Q>
1

> <r_epik_Metal_State_Penalty>
0.775281

> <b_epik_Metal_Only>
0

> <s_lp_Force_Field>
OPLS_2005

> <r_lp_Energy>
20.6749

> <b_lp_Chiralities_Consistent>
1

> <s_lp_Variant>
AV-unprocessed.smi:1959-4

> <Gold.Version>
5.8.1

> <Gold.Id.Protein>
6NUR|6NUR_protein|mol2

> <Gold.PLP.Fitness>
38.7148

> <Gold.PLP.PLP>
-30.4883

> <Gold.PLP.part.hbond>
-3.0000

> <Gold.PLP.part.metal>
0.0000

> <Gold.PLP.part.buried>
-2.9033

> <Gold.PLP.part.nonpolar>
-26.1566

> <Gold.PLP.part.repulsive>
0.8427

> <Gold.PLP.ligand.clash>
0.0000

> <Gold.PLP.ligand.torsion>
0.7483

> <Gold.PLP.Chemscore.Hbond>
3.2200

> <Gold.PLP.Chemscore.CHOScore>
0.0000

> <Gold.PLP.Chemscore.Metal>
0.0000

> <Gold.Chemscore.Hbonds>
donor molecule, donor type, donor heavy atom, donor atom, acceptor molecule, acceptor atom, score
      L1  H    14    45       P1  7948  2.00
      P1  H  7989  7998       L1    20  0.18
      P1  H 10752 10763       L1     9  1.00

> <Gold.PLP.Chemscore.Internal.Correction>
0.0631

> <Gold.Rescore>
     Score         DG    S(hbond)    S(metal)    S(lipo)     H(rot)  DE(clash)    DE(int)     intcor
     12.47     -14.36       1.86        0.00      61.59       1.77       0.02       1.87       ----

> <Gold.Chemscore.Fitness>
12.4687

> <Gold.Chemscore.DG>
-14.3584

> <Gold.Chemscore.ZeroCoef>
-5.4800

> <Gold.Chemscore.Hbond>
1.8608

> <Gold.Chemscore.Metal>
0.0000

> <Gold.Chemscore.Lipo>
61.5866

> <Gold.Chemscore.Internal_Hbond>
0.0000

> <Gold.Chemscore.DEClash>
0.0165

> <Gold.Chemscore.DEInternal>
1.8733

> <Gold.Chemscore.Rot>
1.7744

> <Gold.Chemscore.Internal.Correction>
   9.000000E+99

> <Gold.Chemscore.Hbonds>
donor molecule, donor type, donor heavy atom, donor atom, acceptor molecule, acceptor atom, score
      L1  H    14    45       P1  7948  1.00
      P1  H 10752 10763       L1     9  0.77

> <Gold.Chemscore.Hbond.Weighted>
-6.2152

> <Gold.Chemscore.Metal.Weighted>
-0.0000

> <Gold.Chemscore.Lipo.Weighted>
-7.2056

> <Gold.Chemscore.Internal_Hbond.Weighted>
0.0000

> <Gold.Chemscore.DEClash.Weighted>
0.0165

> <Gold.Chemscore.DEInternal.Weighted>
1.8733

> <Gold.Chemscore.Rot.Weighted>
4.5424

> <Gold.Chemscore.Internal.Correction.Weighted>
   9.000000E+99

> <Gold.Protein.RotatedTorsions>
[ 6907 6896 6895 6894 ] final  -52.34 input  -60.11 | X-H torsion
[ 7974 7965 7964 7962 ] final  -44.12 input  175.53 | X-H torsion
[ 8008 7997 7996 7995 ] final -149.11 input   59.86 | X-H torsion
[ 10167 10162 10161 10158 ] final   38.74 input  -65.29 | X-H torsion
[ 10718 10713 10712 10709 ] final   43.58 input   66.30 | X-H torsion
[ 10763 10752 10751 10750 ] final   66.20 input  -60.55 | X-H torsion
[ 11005 11000 10999 10996 ] final  115.03 input  -57.11 | X-H torsion

> <Gold.Protein.ActiveResidues>
 VAL166  LYS551  ARG553  GLY616  TRP617  ASP618  TYR619  PRO620  LYS621  CYS622 
 ASP623  PHE694  ASN695  SER759  ASP760  ASP761  ALA762  ILE779  LEU786  VAL792 
 PHE793  MET794  SER795  GLU796  ALA797  LYS798  CYS799  TRP800  GLU811  SER814 

> <Gold.Protein.RotatedAtoms>
  150.8527  134.7856  159.7020 H   0  0  0  0  0  0  0  0  0  0  0  0  # atno 6907 bound_to 6896
  152.4587  134.5230  159.9798 H   0  0  0  0  0  0  0  0  0  0  0  0  # atno 6908 bound_to 6896
  151.5348  133.3404  159.2960 H   0  0  0  0  0  0  0  0  0  0  0  0  # atno 6909 bound_to 6896
  145.9952  140.7137  142.9297 H   0  0  0  0  0  0  0  0  0  0  0  0  # atno 7974 bound_to 7965
  155.6024  140.0663  157.2729 H   0  0  0  0  0  0  0  0  0  0  0  0  # atno 8008 bound_to 7997
  154.4275  140.1816  156.1234 H   0  0  0  0  0  0  0  0  0  0  0  0  # atno 8009 bound_to 7997
  156.0149  140.3323  155.6982 H   0  0  0  0  0  0  0  0  0  0  0  0  # atno 8010 bound_to 7997
  140.3907  144.1856  150.6131 H   0  0  0  0  0  0  0  0  0  0  0  0  # atno 10167 bound_to 10162
  157.4174  130.7949  149.7484 H   0  0  0  0  0  0  0  0  0  0  0  0  # atno 10718 bound_to 10713
  153.0129  135.5329  154.6786 H   0  0  0  0  0  0  0  0  0  0  0  0  # atno 10763 bound_to 10752
  154.5952  135.2862  155.0596 H   0  0  0  0  0  0  0  0  0  0  0  0  # atno 10764 bound_to 10752
  154.1674  135.6537  153.5053 H   0  0  0  0  0  0  0  0  0  0  0  0  # atno 10765 bound_to 10752
  139.8998  134.9577  156.6982 H   0  0  0  0  0  0  0  0  0  0  0  0  # atno 11005 bound_to 11000
  144.6901  140.3138  143.7244 LP  0  0  0  0  0  0  0  0  0  0  0  0  # atno 17320 bound_to 7965
  145.7571  139.1812  143.2288 LP  0  0  0  0  0  0  0  0  0  0  0  0  # atno 17321 bound_to 7965
  140.4842  143.2369  151.8911 LP  0  0  0  0  0  0  0  0  0  0  0  0  # atno 17342 bound_to 10162
  139.4789  144.5236  151.8766 LP  0  0  0  0  0  0  0  0  0  0  0  0  # atno 17343 bound_to 10162
  155.9869  130.3970  150.3188 LP  0  0  0  0  0  0  0  0  0  0  0  0  # atno 17370 bound_to 10713
  157.1332  131.0277  151.2960 LP  0  0  0  0  0  0  0  0  0  0  0  0  # atno 17371 bound_to 10713
  140.7171  133.9173  155.8122 LP  0  0  0  0  0  0  0  0  0  0  0  0  # atno 17394 bound_to 11000
  141.0256  134.0828  157.4072 LP  0  0  0  0  0  0  0  0  0  0  0  0  # atno 17395 bound_to 11000

$$$$
