AV-unprocessed.smi:2856|AV-procd|sdf|10993|dock7
  -GOLD-   2272015443D 1   1.00000     0.00000
 Structure written by MMmdl.
 37 38  0  0  0  0  0  0  0  0  1 V2000
  151.9387  145.7457  159.7978 C   0  0  0  0  0  0  0  0  0  0  0  0
  152.3802  144.6778  158.3998 S   0  0  0  0  0  0  0  0  0  0  0  0
  152.1542  143.0235  159.1295 C   0  0  2  0  0  0  0  0  0  0  0  0
  153.3897  142.6675  159.9783 C   0  0  0  0  0  0  0  0  0  0  0  0
  153.2826  141.2633  160.5895 C   0  0  0  0  0  0  0  0  0  0  0  0
  153.0658  140.2076  159.4977 C   0  0  0  0  0  0  0  0  0  0  0  0
  151.8217  140.5340  158.6593 C   0  0  0  0  0  0  0  0  0  0  0  0
  151.8952  141.9476  158.0454 C   0  0  1  0  0  0  0  0  0  0  0  0
  150.6456  142.2266  157.3414 N   0  0  0  0  0  0  0  0  0  0  0  0
  150.0527  141.4171  156.4526 C   0  0  0  0  0  0  0  0  0  0  0  0
  150.4864  140.3066  156.1448 O   0  0  0  0  0  0  0  0  0  0  0  0
  148.9387  141.9789  155.9538 N   0  0  0  0  0  0  0  0  0  0  0  0
  148.0671  141.4458  154.9704 C   0  0  0  0  0  0  0  0  0  0  0  0
  148.1321  140.0747  154.6054 C   0  0  0  0  0  0  0  0  0  0  0  0
  147.1549  139.9622  153.6569 C   0  0  0  0  0  0  0  0  0  0  0  0
  146.6616  138.8182  152.8393 C   0  0  0  0  0  0  0  0  0  0  0  0
  146.5447  141.1623  153.4603 O   0  0  0  0  0  0  0  0  0  0  0  0
  147.1338  142.1097  154.3058 N   0  0  0  0  0  0  0  0  0  0  0  0
  152.0563  146.7921  159.5170 H   0  0  0  0  0  0  0  0  0  0  0  0
  152.5860  145.5442  160.6510 H   0  0  0  0  0  0  0  0  0  0  0  0
  150.9035  145.5887  160.0993 H   0  0  0  0  0  0  0  0  0  0  0  0
  151.2953  143.0675  159.8006 H   0  0  0  0  0  0  0  0  0  0  0  0
  154.2873  142.7238  159.3608 H   0  0  0  0  0  0  0  0  0  0  0  0
  153.5180  143.4027  160.7734 H   0  0  0  0  0  0  0  0  0  0  0  0
  154.1865  141.0337  161.1543 H   0  0  0  0  0  0  0  0  0  0  0  0
  152.4563  141.2339  161.3007 H   0  0  0  0  0  0  0  0  0  0  0  0
  153.9427  140.1624  158.8508 H   0  0  0  0  0  0  0  0  0  0  0  0
  152.9620  139.2205  159.9490 H   0  0  0  0  0  0  0  0  0  0  0  0
  151.7090  139.7892  157.8705 H   0  0  0  0  0  0  0  0  0  0  0  0
  150.9345  140.4513  159.2889 H   0  0  0  0  0  0  0  0  0  0  0  0
  152.7302  141.9743  157.3424 H   0  0  0  0  0  0  0  0  0  0  0  0
  150.2107  143.1168  157.5339 H   0  0  0  0  0  0  0  0  0  0  0  0
  148.6941  142.8921  156.3065 H   0  0  0  0  0  0  0  0  0  0  0  0
  148.7861  139.2992  154.9756 H   0  0  0  0  0  0  0  0  0  0  0  0
  147.2135  137.9070  153.0708 H   0  0  0  0  0  0  0  0  0  0  0  0
  146.7805  139.0240  151.7755 H   0  0  0  0  0  0  0  0  0  0  0  0
  145.6051  138.6319  153.0329 H   0  0  0  0  0  0  0  0  0  0  0  0
  1  2  1  0  0  0  0
  1 19  1  0  0  0  0
  1 20  1  0  0  0  0
  1 21  1  0  0  0  0
  2  3  1  0  0  0  0
  3  8  1  0  0  0  0
  3  4  1  0  0  0  0
  3 22  1  0  0  0  0
  4  5  1  0  0  0  0
  4 23  1  0  0  0  0
  4 24  1  0  0  0  0
  5  6  1  0  0  0  0
  5 25  1  0  0  0  0
  5 26  1  0  0  0  0
  6  7  1  0  0  0  0
  6 27  1  0  0  0  0
  6 28  1  0  0  0  0
  7  8  1  0  0  0  0
  7 29  1  0  0  0  0
  7 30  1  0  0  0  0
  8  9  1  0  0  0  0
  8 31  1  0  0  0  0
  9 10  1  0  0  0  0
  9 32  1  0  0  0  0
 10 11  2  0  0  0  0
 10 12  1  0  0  0  0
 12 13  1  0  0  0  0
 12 33  1  0  0  0  0
 13 18  2  0  0  0  0
 13 14  1  0  0  0  0
 14 15  2  0  0  0  0
 14 34  1  0  0  0  0
 15 16  1  0  0  0  0
 15 17  1  0  0  0  0
 16 35  1  0  0  0  0
 16 36  1  0  0  0  0
 16 37  1  0  0  0  0
 17 18  1  0  0  0  0
M  END
> <s_m_source_file>
AV-unprocessed.smi

> <i_m_source_file_index>
2856

> <i_lp_mmshare_version>
43012

> <i_f3d_flags>
0

> <s_epik_input>
W0NIM11TW0NAQEhdMVtDSDJdW0NIMl1bQ0gyXVtDSDJdW0NASF0xW05IXUMoPU8pW05IXWMyW2NIXWMoW0NIM10pb24y

> <s_epik_cmdline>
J2VwaWtfcHl0aG9uJywgJy1waCcsICc3LjAnLCAnLXRuJywgJzgnLCAnLW1hJywgJzIwMCcsICctbWV0YWxfYmluZGluZycsICctaW1hZScsICc8aW5maWxlLm1hZT4nLCAnLW9tYWUnLCAnPG91dGZpbGUubWFlPic=

> <r_lp_tautomer_probability>
1

> <r_epik_Ionization_Penalty>
2.20874e-05

> <r_epik_Ionization_Penalty_Charging>
0

> <r_epik_Ionization_Penalty_Neutral>
2.20874e-05

> <r_epik_State_Penalty>
-0

> <r_epik_Charging_Adjusted_Penalty>
0

> <i_epik_Tot_Q>
0

> <i_epik_Tot_abs_Q>
0

> <r_epik_Metal_State_Penalty>
-0

> <b_epik_Metal_Only>
0

> <s_lp_Force_Field>
OPLS_2005

> <r_lp_Energy>
6.84472

> <b_lp_Chiralities_Consistent>
1

> <s_lp_Variant>
AV-unprocessed.smi:2856-1

> <Gold.Version>
5.8.1

> <Gold.Id.Protein>
6NUR|6NUR_protein|mol2

> <Gold.PLP.Fitness>
41.0570

> <Gold.PLP.PLP>
-39.3908

> <Gold.PLP.part.hbond>
-1.0000

> <Gold.PLP.part.metal>
0.0000

> <Gold.PLP.part.buried>
-3.7587

> <Gold.PLP.part.nonpolar>
-34.4928

> <Gold.PLP.part.repulsive>
0.5129

> <Gold.PLP.ligand.clash>
0.0000

> <Gold.PLP.ligand.torsion>
0.3463

> <Gold.PLP.Chemscore.Hbond>
0.7840

> <Gold.PLP.Chemscore.CHOScore>
0.0000

> <Gold.PLP.Chemscore.Metal>
0.0000

> <Gold.Chemscore.Hbonds>
donor molecule, donor type, donor heavy atom, donor atom, acceptor molecule, acceptor atom, score
      L1  H    12    33       P1  8028  0.72

> <Gold.PLP.Chemscore.Internal.Correction>
0.0068

> <Gold.Rescore>
     Score         DG    S(hbond)    S(metal)    S(lipo)     H(rot)  DE(clash)    DE(int)     intcor
     14.02     -17.18       0.89        0.00     100.94       1.21       0.11       3.06       ----

> <Gold.Chemscore.Fitness>
14.0156

> <Gold.Chemscore.DG>
-17.1774

> <Gold.Chemscore.ZeroCoef>
-5.4800

> <Gold.Chemscore.Hbond>
0.8944

> <Gold.Chemscore.Metal>
0.0000

> <Gold.Chemscore.Lipo>
100.9421

> <Gold.Chemscore.Internal_Hbond>
0.0000

> <Gold.Chemscore.DEClash>
0.1052

> <Gold.Chemscore.DEInternal>
3.0566

> <Gold.Chemscore.Rot>
1.2109

> <Gold.Chemscore.Internal.Correction>
   9.000000E+99

> <Gold.Chemscore.Hbonds>
donor molecule, donor type, donor heavy atom, donor atom, acceptor molecule, acceptor atom, score
      L1  H    12    33       P1  8028  0.70

> <Gold.Chemscore.Hbond.Weighted>
-2.9871

> <Gold.Chemscore.Metal.Weighted>
-0.0000

> <Gold.Chemscore.Lipo.Weighted>
-11.8102

> <Gold.Chemscore.Internal_Hbond.Weighted>
0.0000

> <Gold.Chemscore.DEClash.Weighted>
0.1052

> <Gold.Chemscore.DEInternal.Weighted>
3.0566

> <Gold.Chemscore.Rot.Weighted>
3.1000

> <Gold.Chemscore.Internal.Correction.Weighted>
   9.000000E+99

> <Gold.Protein.RotatedTorsions>
[ 6907 6896 6895 6894 ] final -170.24 input  -60.11 | X-H torsion
[ 7974 7965 7964 7962 ] final   31.19 input  175.53 | X-H torsion
[ 8008 7997 7996 7995 ] final    1.85 input   59.86 | X-H torsion
[ 10167 10162 10161 10158 ] final   30.80 input  -65.29 | X-H torsion
[ 10718 10713 10712 10709 ] final -166.89 input   66.30 | X-H torsion
[ 10763 10752 10751 10750 ] final  124.19 input  -60.55 | X-H torsion
[ 11005 11000 10999 10996 ] final    8.40 input  -57.11 | X-H torsion

> <Gold.Protein.ActiveResidues>
 VAL166  LYS551  ARG553  GLY616  TRP617  ASP618  TYR619  PRO620  LYS621  CYS622 
 ASP623  PHE694  ASN695  SER759  ASP760  ASP761  ALA762  ILE779  LEU786  VAL792 
 PHE793  MET794  SER795  GLU796  ALA797  LYS798  CYS799  TRP800  GLU811  SER814 

> <Gold.Protein.RotatedAtoms>
  151.5046  133.3497  159.2874 H   0  0  0  0  0  0  0  0  0  0  0  0  # atno 6907 bound_to 6896
  150.8751  134.8134  159.7195 H   0  0  0  0  0  0  0  0  0  0  0  0  # atno 6908 bound_to 6896
  152.4725  134.4936  159.9754 H   0  0  0  0  0  0  0  0  0  0  0  0  # atno 6909 bound_to 6896
  146.1565  139.6689  142.9063 H   0  0  0  0  0  0  0  0  0  0  0  0  # atno 7974 bound_to 7965
  154.6846  140.2640  155.6874 H   0  0  0  0  0  0  0  0  0  0  0  0  # atno 8008 bound_to 7997
  156.2709  140.2803  156.1325 H   0  0  0  0  0  0  0  0  0  0  0  0  # atno 8009 bound_to 7997
  155.0983  140.0374  157.2679 H   0  0  0  0  0  0  0  0  0  0  0  0  # atno 8010 bound_to 7997
  140.4646  144.0855  150.6221 H   0  0  0  0  0  0  0  0  0  0  0  0  # atno 10167 bound_to 10162
  156.6744  130.9097  151.3048 H   0  0  0  0  0  0  0  0  0  0  0  0  # atno 10718 bound_to 10713
  153.6575  135.3352  155.3118 H   0  0  0  0  0  0  0  0  0  0  0  0  # atno 10763 bound_to 10752
  154.8523  135.4356  154.1839 H   0  0  0  0  0  0  0  0  0  0  0  0  # atno 10764 bound_to 10752
  153.2797  135.7008  153.7473 H   0  0  0  0  0  0  0  0  0  0  0  0  # atno 10765 bound_to 10752
  140.5374  134.0408  155.7893 H   0  0  0  0  0  0  0  0  0  0  0  0  # atno 11005 bound_to 11000
  145.4695  141.0435  143.2707 LP  0  0  0  0  0  0  0  0  0  0  0  0  # atno 17320 bound_to 7965
  144.7970  139.6214  143.7088 LP  0  0  0  0  0  0  0  0  0  0  0  0  # atno 17321 bound_to 7965
  140.4052  143.2684  151.9900 LP  0  0  0  0  0  0  0  0  0  0  0  0  # atno 17342 bound_to 10162
  139.4810  144.5963  151.7684 LP  0  0  0  0  0  0  0  0  0  0  0  0  # atno 17343 bound_to 10162
  157.7066  130.9391  150.0950 LP  0  0  0  0  0  0  0  0  0  0  0  0  # atno 17370 bound_to 10713
  156.1914  130.3655  149.8905 LP  0  0  0  0  0  0  0  0  0  0  0  0  # atno 17371 bound_to 10713
  141.1247  133.9403  157.2660 LP  0  0  0  0  0  0  0  0  0  0  0  0  # atno 17394 bound_to 11000
  139.9522  135.0173  156.9026 LP  0  0  0  0  0  0  0  0  0  0  0  0  # atno 17395 bound_to 11000

$$$$
