AV-unprocessed.smi:721|AV-procd|sdf|3503|dock5
  -GOLD-   22720 0493D 1   1.00000     0.00000
 Structure written by MMmdl.
 29 30  0  0  0  0  0  0  0  0  1 V2000
  152.8935  143.0300  162.7442 Cl  0  0  0  0  0  0  0  0  0  0  0  0
  152.1435  143.0094  161.1907 C   0  0  0  0  0  0  0  0  0  0  0  0
  152.2442  141.8958  160.3331 C   0  0  0  0  0  0  0  0  0  0  0  0
  151.6551  141.8840  159.1170 N   0  0  0  0  0  0  0  0  0  0  0  0
  150.9711  142.9752  158.7614 C   0  0  0  0  0  0  0  0  0  0  0  0
  150.3819  142.9230  157.5111 N   0  0  0  0  0  0  0  0  0  0  0  0
  150.0593  141.6981  156.7915 C   0  0  0  0  0  0  0  0  0  0  0  0
  151.3037  141.0274  156.1945 C   0  0  0  0  0  0  0  0  0  0  0  0
  150.9103  140.1998  155.1127 O   0  0  0  0  0  0  0  0  0  0  0  0
  151.4642  138.8984  155.1924 C   0  0  0  0  0  0  0  0  0  0  0  0
  150.6276  137.9568  154.3536 C   0  0  0  0  0  0  0  0  0  0  0  0
  149.3207  137.4137  154.8842 C   0  0  0  0  0  0  0  0  0  0  0  0
  150.5072  136.4968  154.7268 C   0  0  0  0  0  0  0  0  0  0  0  0
  150.8139  144.0847  159.4947 N   0  0  0  0  0  0  0  0  0  0  0  0
  151.3984  144.1053  160.7125 C   0  0  0  0  0  0  0  0  0  0  0  0
  152.7970  141.0137  160.6203 H   0  0  0  0  0  0  0  0  0  0  0  0
  150.2695  143.7991  157.0216 H   0  0  0  0  0  0  0  0  0  0  0  0
  149.5528  141.0082  157.4670 H   0  0  0  0  0  0  0  0  0  0  0  0
  149.3463  141.9321  156.0007 H   0  0  0  0  0  0  0  0  0  0  0  0
  152.0328  141.7708  155.8689 H   0  0  0  0  0  0  0  0  0  0  0  0
  151.7840  140.4157  156.9596 H   0  0  0  0  0  0  0  0  0  0  0  0
  152.4882  138.8949  154.8159 H   0  0  0  0  0  0  0  0  0  0  0  0
  151.4841  138.5533  156.2276 H   0  0  0  0  0  0  0  0  0  0  0  0
  150.6564  138.1751  153.2876 H   0  0  0  0  0  0  0  0  0  0  0  0
  149.0306  137.6926  155.8953 H   0  0  0  0  0  0  0  0  0  0  0  0
  148.5006  137.3036  154.1778 H   0  0  0  0  0  0  0  0  0  0  0  0
  150.4787  135.7722  153.9156 H   0  0  0  0  0  0  0  0  0  0  0  0
  151.0042  136.1613  155.6351 H   0  0  0  0  0  0  0  0  0  0  0  0
  151.2703  144.9995  161.3045 H   0  0  0  0  0  0  0  0  0  0  0  0
  1  2  1  0  0  0  0
  2 15  1  0  0  0  0
  2  3  2  0  0  0  0
  3  4  1  0  0  0  0
  3 16  1  0  0  0  0
  4  5  2  0  0  0  0
  5  6  1  0  0  0  0
  5 14  1  0  0  0  0
  6  7  1  0  0  0  0
  6 17  1  0  0  0  0
  7  8  1  0  0  0  0
  7 18  1  0  0  0  0
  7 19  1  0  0  0  0
  8  9  1  0  0  0  0
  8 20  1  0  0  0  0
  8 21  1  0  0  0  0
  9 10  1  0  0  0  0
 10 11  1  0  0  0  0
 10 22  1  0  0  0  0
 10 23  1  0  0  0  0
 11 13  1  0  0  0  0
 11 12  1  0  0  0  0
 11 24  1  0  0  0  0
 12 13  1  0  0  0  0
 12 25  1  0  0  0  0
 12 26  1  0  0  0  0
 13 27  1  0  0  0  0
 13 28  1  0  0  0  0
 14 15  2  0  0  0  0
 15 29  1  0  0  0  0
M  END
> <s_m_source_file>
AV-unprocessed.smi

> <i_m_source_file_index>
721

> <i_lp_mmshare_version>
43012

> <i_f3d_flags>
0

> <s_epik_input>
Q2xjMVtjSF1uYyhuW2NIXTEpW05IXVtDSDJdW0NIMl1PW0NIMl1bQ0hdMltDSDJdW0NIMl0y

> <s_epik_cmdline>
J2VwaWtfcHl0aG9uJywgJy1waCcsICc3LjAnLCAnLXRuJywgJzgnLCAnLW1hJywgJzIwMCcsICctbWV0YWxfYmluZGluZycsICctaW1hZScsICc8aW5maWxlLm1hZT4nLCAnLW9tYWUnLCAnPG91dGZpbGUubWFlPic=

> <r_lp_tautomer_probability>
1

> <r_epik_Ionization_Penalty>
7.18353e-06

> <r_epik_Ionization_Penalty_Charging>
0

> <r_epik_Ionization_Penalty_Neutral>
7.18353e-06

> <r_epik_State_Penalty>
-0

> <r_epik_Charging_Adjusted_Penalty>
0

> <i_epik_Tot_Q>
0

> <i_epik_Tot_abs_Q>
0

> <r_epik_Metal_State_Penalty>
-0

> <b_epik_Metal_Only>
0

> <s_lp_Force_Field>
OPLS_2005

> <r_lp_Energy>
6.1156

> <b_lp_Chiralities_Consistent>
1

> <s_lp_Variant>
AV-unprocessed.smi:721-1

> <Gold.Version>
5.8.1

> <Gold.Id.Protein>
6NUR|6NUR_protein|mol2

> <Gold.PLP.Fitness>
36.7898

> <Gold.PLP.PLP>
-32.4947

> <Gold.PLP.part.hbond>
-2.0000

> <Gold.PLP.part.metal>
0.0000

> <Gold.PLP.part.buried>
-6.4143

> <Gold.PLP.part.nonpolar>
-25.1179

> <Gold.PLP.part.repulsive>
0.1737

> <Gold.PLP.ligand.clash>
0.0000

> <Gold.PLP.ligand.torsion>
1.0443

> <Gold.PLP.Chemscore.Hbond>
1.9280

> <Gold.PLP.Chemscore.CHOScore>
0.0000

> <Gold.PLP.Chemscore.Metal>
0.0000

> <Gold.Chemscore.Hbonds>
donor molecule, donor type, donor heavy atom, donor atom, acceptor molecule, acceptor atom, score
      L1  H     6    17       P1  8028  0.60
      P1  H  7989  7998       L1     9  1.00

> <Gold.PLP.Chemscore.Internal.Correction>
0.5997

> <Gold.Rescore>
     Score         DG    S(hbond)    S(metal)    S(lipo)     H(rot)  DE(clash)    DE(int)     intcor
     13.79     -15.03       1.34        0.00      82.13       1.77       0.26       0.98       ----

> <Gold.Chemscore.Fitness>
13.7863

> <Gold.Chemscore.DG>
-15.0331

> <Gold.Chemscore.ZeroCoef>
-5.4800

> <Gold.Chemscore.Hbond>
1.3414

> <Gold.Chemscore.Metal>
0.0000

> <Gold.Chemscore.Lipo>
82.1335

> <Gold.Chemscore.Internal_Hbond>
0.0000

> <Gold.Chemscore.DEClash>
0.2643

> <Gold.Chemscore.DEInternal>
0.9825

> <Gold.Chemscore.Rot>
1.7722

> <Gold.Chemscore.Internal.Correction>
   9.000000E+99

> <Gold.Chemscore.Hbonds>
donor molecule, donor type, donor heavy atom, donor atom, acceptor molecule, acceptor atom, score
      L1  H     6    17       P1  8028  0.59
      P1  H  7989  7998       L1     9  0.28

> <Gold.Chemscore.Hbond.Weighted>
-4.4802

> <Gold.Chemscore.Metal.Weighted>
-0.0000

> <Gold.Chemscore.Lipo.Weighted>
-9.6096

> <Gold.Chemscore.Internal_Hbond.Weighted>
0.0000

> <Gold.Chemscore.DEClash.Weighted>
0.2643

> <Gold.Chemscore.DEInternal.Weighted>
0.9825

> <Gold.Chemscore.Rot.Weighted>
4.5367

> <Gold.Chemscore.Internal.Correction.Weighted>
   9.000000E+99

> <Gold.Protein.RotatedTorsions>
[ 6907 6896 6895 6894 ] final   63.14 input  -60.11 | X-H torsion
[ 7974 7965 7964 7962 ] final   51.90 input  175.53 | X-H torsion
[ 8008 7997 7996 7995 ] final  127.81 input   59.86 | X-H torsion
[ 10167 10162 10161 10158 ] final  -46.43 input  -65.29 | X-H torsion
[ 10718 10713 10712 10709 ] final  -60.73 input   66.30 | X-H torsion
[ 10763 10752 10751 10750 ] final -112.47 input  -60.55 | X-H torsion
[ 11005 11000 10999 10996 ] final   38.20 input  -57.11 | X-H torsion

> <Gold.Protein.ActiveResidues>
 VAL166  LYS551  ARG553  GLY616  TRP617  ASP618  TYR619  PRO620  LYS621  CYS622 
 ASP623  PHE694  ASN695  SER759  ASP760  ASP761  ALA762  ILE779  LEU786  VAL792 
 PHE793  MET794  SER795  GLU796  ALA797  LYS798  CYS799  TRP800  GLU811  SER814 

> <Gold.Protein.RotatedAtoms>
  152.4229  134.5921  159.9976 H   0  0  0  0  0  0  0  0  0  0  0  0  # atno 6907 bound_to 6896
  151.6066  133.3345  159.3066 H   0  0  0  0  0  0  0  0  0  0  0  0  # atno 6908 bound_to 6896
  150.8118  134.7315  159.6760 H   0  0  0  0  0  0  0  0  0  0  0  0  # atno 6909 bound_to 6896
  145.9867  139.4297  143.0099 H   0  0  0  0  0  0  0  0  0  0  0  0  # atno 7974 bound_to 7965
  156.2900  140.2660  156.2334 H   0  0  0  0  0  0  0  0  0  0  0  0  # atno 8008 bound_to 7997
  155.0049  140.0387  157.2394 H   0  0  0  0  0  0  0  0  0  0  0  0  # atno 8009 bound_to 7997
  154.7568  140.2753  155.6251 H   0  0  0  0  0  0  0  0  0  0  0  0  # atno 8010 bound_to 7997
  140.6818  143.2831  151.3781 H   0  0  0  0  0  0  0  0  0  0  0  0  # atno 10167 bound_to 10162
  156.0970  130.4191  150.0894 H   0  0  0  0  0  0  0  0  0  0  0  0  # atno 10718 bound_to 10713
  154.8351  135.4489  154.1199 H   0  0  0  0  0  0  0  0  0  0  0  0  # atno 10763 bound_to 10752
  153.2438  135.6919  153.7760 H   0  0  0  0  0  0  0  0  0  0  0  0  # atno 10764 bound_to 10752
  153.7098  135.3358  155.3219 H   0  0  0  0  0  0  0  0  0  0  0  0  # atno 10765 bound_to 10752
  140.2150  134.3709  155.8031 H   0  0  0  0  0  0  0  0  0  0  0  0  # atno 11005 bound_to 11000
  145.7690  140.9904  143.1159 LP  0  0  0  0  0  0  0  0  0  0  0  0  # atno 17320 bound_to 7965
  144.6877  139.9424  143.7475 LP  0  0  0  0  0  0  0  0  0  0  0  0  # atno 17321 bound_to 7965
  139.6146  144.1030  152.2332 LP  0  0  0  0  0  0  0  0  0  0  0  0  # atno 17342 bound_to 10162
  140.0454  144.5974  150.7377 LP  0  0  0  0  0  0  0  0  0  0  0  0  # atno 17343 bound_to 10162
  156.8891  130.9582  151.3590 LP  0  0  0  0  0  0  0  0  0  0  0  0  # atno 17370 bound_to 10713
  157.6133  130.8600  149.8988 LP  0  0  0  0  0  0  0  0  0  0  0  0  # atno 17371 bound_to 10713
  141.2225  133.7163  156.8481 LP  0  0  0  0  0  0  0  0  0  0  0  0  # atno 17394 bound_to 11000
  140.1910  134.8965  157.3060 LP  0  0  0  0  0  0  0  0  0  0  0  0  # atno 17395 bound_to 11000

$$$$
