AV-unprocessed.smi:54|AV-procd|sdf|558|dock3
  -GOLD-   2262016463D 1   1.00000     0.00000
 Structure written by MMmdl.
 43 45  0  0  0  0  0  0  0  0  2 V2000
  152.9298  143.5261  159.7796 C   0  0  0  0  0  0  0  0  0  0  0  0
  152.5844  142.2563  160.5746 C   0  0  0  0  0  0  0  0  0  0  0  0
  153.2936  142.2434  161.9391 C   0  0  0  0  0  0  0  0  0  0  0  0
  152.9331  140.9982  159.7660 C   0  0  0  0  0  0  0  0  0  0  0  0
  153.8763  140.2941  160.1326 O   0  0  0  0  0  0  0  0  0  0  0  0
  152.1531  140.7745  158.6846 N   0  0  0  0  0  0  0  0  0  0  0  0
  152.2130  139.7432  157.7383 C   0  0  0  0  0  0  0  0  0  0  0  0
  151.1914  139.7456  156.9162 N   0  0  0  0  0  0  0  0  0  0  0  0
  151.2518  138.7215  155.9901 C   0  0  0  0  0  0  0  0  0  0  0  0
  152.2200  137.7646  155.8602 C   0  0  0  0  0  0  0  0  0  0  0  0
  151.9451  136.9047  154.8038 N   0  0  0  0  0  0  0  0  0  0  0  0
  150.7974  137.3942  154.3368 C   0  0  0  0  0  0  0  0  0  0  0  0
  150.3119  138.4666  154.9977 N   0  0  0  0  0  0  0  0  0  0  0  0
  149.0646  139.2516  154.7216 C   0  0  1  0  0  0  0  0  0  0  0  0
  148.2513  139.2071  155.8567 O   0  0  0  0  0  0  0  0  0  0  0  0
  148.4823  140.3659  156.6507 C   0  0  2  0  0  0  0  0  0  0  0  0
  147.3505  140.5800  157.6707 C   0  0  0  0  0  0  0  0  0  0  0  0
  147.6122  141.7313  158.4443 O   0  0  0  0  0  0  0  0  0  0  0  0
  148.6286  141.4532  155.5795 C   0  0  2  0  0  0  0  0  0  0  0  0
  147.3533  141.8870  155.1342 O   0  0  0  0  0  0  0  0  0  0  0  0
  149.4197  140.7327  154.4871 C   0  0  2  0  0  0  0  0  0  0  0  0
  149.0975  141.1861  153.1856 O   0  0  0  0  0  0  0  0  0  0  0  0
  153.3437  137.8153  156.8245 C   0  0  0  0  0  0  0  0  0  0  0  0
  154.2384  136.9754  156.7468 O   0  0  0  0  0  0  0  0  0  0  0  0
  153.2813  138.8239  157.7447 N   0  5  0  0  0  0  0  0  0  0  0  0
  148.5995  138.7464  153.8741 H   0  0  0  0  0  0  0  0  0  0  0  0
  149.4379  140.2650  157.1690 H   0  0  0  0  0  0  0  0  0  0  0  0
  149.1689  142.3218  155.9571 H   0  0  0  0  0  0  0  0  0  0  0  0
  150.4872  140.8838  154.6576 H   0  0  0  0  0  0  0  0  0  0  0  0
  152.4321  143.5335  158.8091 H   0  0  0  0  0  0  0  0  0  0  0  0
  154.0031  143.6109  159.6041 H   0  0  0  0  0  0  0  0  0  0  0  0
  152.6119  144.4200  160.3165 H   0  0  0  0  0  0  0  0  0  0  0  0
  151.5087  142.2606  160.7592 H   0  0  0  0  0  0  0  0  0  0  0  0
  153.0579  141.3381  162.5000 H   0  0  0  0  0  0  0  0  0  0  0  0
  152.9836  143.0940  162.5466 H   0  0  0  0  0  0  0  0  0  0  0  0
  154.3777  142.2948  161.8295 H   0  0  0  0  0  0  0  0  0  0  0  0
  151.4511  141.4807  158.5216 H   0  0  0  0  0  0  0  0  0  0  0  0
  150.2970  136.9537  153.4873 H   0  0  0  0  0  0  0  0  0  0  0  0
  146.4044  140.7409  157.1532 H   0  0  0  0  0  0  0  0  0  0  0  0
  147.2253  139.7118  158.3184 H   0  0  0  0  0  0  0  0  0  0  0  0
  148.1212  142.3316  157.9211 H   0  0  0  0  0  0  0  0  0  0  0  0
  146.9838  142.4484  155.7987 H   0  0  0  0  0  0  0  0  0  0  0  0
  149.2163  140.4669  152.5837 H   0  0  0  0  0  0  0  0  0  0  0  0
  1  2  1  0  0  0  0
  1 30  1  0  0  0  0
  1 31  1  0  0  0  0
  1 32  1  0  0  0  0
  2  3  1  0  0  0  0
  2  4  1  0  0  0  0
  2 33  1  0  0  0  0
  3 34  1  0  0  0  0
  3 35  1  0  0  0  0
  3 36  1  0  0  0  0
  4  5  2  0  0  0  0
  4  6  1  0  0  0  0
  6 37  1  0  0  0  0
  6  7  1  0  0  0  0
  7 25  1  0  0  0  0
  7  8  2  0  0  0  0
  8  9  1  0  0  0  0
  9 13  1  0  0  0  0
  9 10  2  0  0  0  0
 10 11  1  0  0  0  0
 10 23  1  0  0  0  0
 11 12  2  0  0  0  0
 12 13  1  0  0  0  0
 12 38  1  0  0  0  0
 13 14  1  0  0  0  0
 14 26  1  0  0  0  0
 14 21  1  0  0  0  0
 14 15  1  0  0  0  0
 15 16  1  0  0  0  0
 16 27  1  0  0  0  0
 16 17  1  0  0  0  0
 16 19  1  0  0  0  0
 17 18  1  0  0  0  0
 17 39  1  0  0  0  0
 17 40  1  0  0  0  0
 18 41  1  0  0  0  0
 19 28  1  0  0  0  0
 19 20  1  0  0  0  0
 19 21  1  0  0  0  0
 20 42  1  0  0  0  0
 21 29  1  0  0  0  0
 21 22  1  0  0  0  0
 22 43  1  0  0  0  0
 23 24  2  0  0  0  0
 23 25  1  0  0  0  0
M  CHG  1  25  -1
M  END
> <s_m_source_file>
AV-unprocessed.smi

> <i_m_source_file_index>
54

> <i_lp_mmshare_version>
43012

> <i_f3d_flags>
0

> <s_epik_input>
W0NIM11bQ0hdKFtDSDNdKUMoPU8pW05IXWMobjEpW25IXWMoPU8pYyhjMTIpbltjSF1uMltDQEBIXTNPW0NASF0oW0NIMl1bT0hdKVtDQEBIXShbT0hdKVtDQEhdM1tPSF0=

> <s_epik_cmdline>
J2VwaWtfcHl0aG9uJywgJy1waCcsICc3LjAnLCAnLXRuJywgJzgnLCAnLW1hJywgJzIwMCcsICctbWV0YWxfYmluZGluZycsICctaW1hZScsICc8aW5maWxlLm1hZT4nLCAnLW9tYWUnLCAnPG91dGZpbGUubWFlPic=

> <r_lp_tautomer_probability>
0.85571

> <r_epik_Ionization_Penalty>
1.75936

> <r_epik_Ionization_Penalty_Charging>
4.55893e-11

> <r_epik_Ionization_Penalty_Neutral>
1.75936

> <r_epik_State_Penalty>
1.72072

> <r_epik_Charging_Adjusted_Penalty>
1.72072

> <i_epik_Tot_Q>
-1

> <i_epik_Tot_abs_Q>
1

> <r_epik_Metal_State_Penalty>
0.400338

> <b_epik_Metal_Only>
1

> <s_epik_Chemistry_Notes>
This compound contains an acetal/aminal-like group ( X-CH(R)-Y where X, Y are N, S, or O) that may be acid/base labile, releasing an aldehyde.

> <s_lp_Force_Field>
OPLS_2005

> <r_lp_Energy>
63.0293

> <b_lp_Chiralities_Consistent>
1

> <s_lp_Variant>
AV-unprocessed.smi:54-30

> <Gold.Version>
5.8.1

> <Gold.Id.Protein>
6NUR|6NUR_protein|mol2

> <Gold.PLP.Fitness>
55.9691

> <Gold.PLP.PLP>
-37.9239

> <Gold.PLP.part.hbond>
-6.8090

> <Gold.PLP.part.metal>
0.0000

> <Gold.PLP.part.buried>
-4.9320

> <Gold.PLP.part.nonpolar>
-28.8683

> <Gold.PLP.part.repulsive>
0.2366

> <Gold.PLP.ligand.clash>
0.0000

> <Gold.PLP.ligand.torsion>
0.2778

> <Gold.PLP.Chemscore.Hbond>
5.2930

> <Gold.PLP.Chemscore.CHOScore>
0.8881

> <Gold.PLP.Chemscore.Metal>
0.0000

> <Gold.Chemscore.Hbonds>
donor molecule, donor type, donor heavy atom, donor atom, acceptor molecule, acceptor atom, score
      L1  H    22    43       P1  7957  0.91
      P1  H  7997  8008       L1    25  1.90
      P1  H  8011  8017       L1    22  1.00
      P1  H 10752 10763       L1    24  0.48
      P1  H 10752 10765       L1    11  0.90
      L1  C    12    38       P1  7948  0.67
      L1  C    12    38       P1  7949  0.21

> <Gold.PLP.Chemscore.Internal.Correction>
0.0575

> <Gold.Rescore>
     Score         DG    S(hbond)    S(metal)    S(lipo)     H(rot)  DE(clash)    DE(int)     intcor
      9.20     -12.26       3.07        0.00      58.14       4.02       0.09       2.97       ----

> <Gold.Chemscore.Fitness>
9.2005

> <Gold.Chemscore.DG>
-12.2633

> <Gold.Chemscore.ZeroCoef>
-5.4800

> <Gold.Chemscore.Hbond>
3.0749

> <Gold.Chemscore.Metal>
0.0000

> <Gold.Chemscore.Lipo>
58.1419

> <Gold.Chemscore.Internal_Hbond>
0.0000

> <Gold.Chemscore.DEClash>
0.0895

> <Gold.Chemscore.DEInternal>
2.9733

> <Gold.Chemscore.Rot>
4.0192

> <Gold.Chemscore.Internal.Correction>
   9.000000E+99

> <Gold.Chemscore.Hbonds>
donor molecule, donor type, donor heavy atom, donor atom, acceptor molecule, acceptor atom, score
      L1  H    22    43       P1  7957  0.84
      P1  H  7997  8008       L1    25  0.06
      P1  H  8011  8017       L1    22  0.25
      P1  H 10752 10763       L1    24  0.48
      P1  H 10752 10765       L1    11  0.88

> <Gold.Chemscore.Hbond.Weighted>
-10.2700

> <Gold.Chemscore.Metal.Weighted>
-0.0000

> <Gold.Chemscore.Lipo.Weighted>
-6.8026

> <Gold.Chemscore.Internal_Hbond.Weighted>
0.0000

> <Gold.Chemscore.DEClash.Weighted>
0.0895

> <Gold.Chemscore.DEInternal.Weighted>
2.9733

> <Gold.Chemscore.Rot.Weighted>
10.2893

> <Gold.Chemscore.Internal.Correction.Weighted>
   9.000000E+99

> <Gold.Protein.RotatedTorsions>
[ 6907 6896 6895 6894 ] final  131.33 input  -60.11 | X-H torsion
[ 7974 7965 7964 7962 ] final  156.98 input  175.53 | X-H torsion
[ 8008 7997 7996 7995 ] final  -96.30 input   59.86 | X-H torsion
[ 10167 10162 10161 10158 ] final   17.22 input  -65.29 | X-H torsion
[ 10718 10713 10712 10709 ] final  -65.41 input   66.30 | X-H torsion
[ 10763 10752 10751 10750 ] final  156.63 input  -60.55 | X-H torsion
[ 11005 11000 10999 10996 ] final  128.98 input  -57.11 | X-H torsion

> <Gold.Protein.ActiveResidues>
 VAL166  LYS551  ARG553  GLY616  TRP617  ASP618  TYR619  PRO620  LYS621  CYS622 
 ASP623  PHE694  ASN695  SER759  ASP760  ASP761  ALA762  ILE779  LEU786  VAL792 
 PHE793  MET794  SER795  GLU796  ALA797  LYS798  CYS799  TRP800  GLU811  SER814 

> <Gold.Protein.RotatedAtoms>
  152.3437  133.6097  159.5894 H   0  0  0  0  0  0  0  0  0  0  0  0  # atno 6907 bound_to 6896
  150.7494  133.9682  159.3546 H   0  0  0  0  0  0  0  0  0  0  0  0  # atno 6908 bound_to 6896
  151.7543  135.0826  160.0387 H   0  0  0  0  0  0  0  0  0  0  0  0  # atno 6909 bound_to 6896
  144.7930  139.7278  143.6213 H   0  0  0  0  0  0  0  0  0  0  0  0  # atno 7974 bound_to 7965
  154.7726  140.0472  157.1063 H   0  0  0  0  0  0  0  0  0  0  0  0  # atno 8008 bound_to 7997
  154.9802  140.3100  155.4930 H   0  0  0  0  0  0  0  0  0  0  0  0  # atno 8009 bound_to 7997
  156.2923  140.2237  156.4900 H   0  0  0  0  0  0  0  0  0  0  0  0  # atno 8010 bound_to 7997
  140.5742  143.9105  150.6736 H   0  0  0  0  0  0  0  0  0  0  0  0  # atno 10167 bound_to 10162
  156.0671  130.4247  150.1560 H   0  0  0  0  0  0  0  0  0  0  0  0  # atno 10718 bound_to 10713
  154.1874  135.2796  155.3033 H   0  0  0  0  0  0  0  0  0  0  0  0  # atno 10763 bound_to 10752
  154.5956  135.5546  153.7325 H   0  0  0  0  0  0  0  0  0  0  0  0  # atno 10764 bound_to 10752
  153.0121  135.6379  154.2012 H   0  0  0  0  0  0  0  0  0  0  0  0  # atno 10765 bound_to 10752
  139.9590  134.9606  156.9081 H   0  0  0  0  0  0  0  0  0  0  0  0  # atno 11005 bound_to 11000
  146.2189  139.5599  142.9631 LP  0  0  0  0  0  0  0  0  0  0  0  0  # atno 17320 bound_to 7965
  145.5745  141.0390  143.2156 LP  0  0  0  0  0  0  0  0  0  0  0  0  # atno 17321 bound_to 7965
  140.2587  143.3539  152.1341 LP  0  0  0  0  0  0  0  0  0  0  0  0  # atno 17342 bound_to 10162
  139.5133  144.6931  151.5705 LP  0  0  0  0  0  0  0  0  0  0  0  0  # atno 17343 bound_to 10162
  156.9618  130.9807  151.3477 LP  0  0  0  0  0  0  0  0  0  0  0  0  # atno 17370 bound_to 10713
  157.5720  130.8317  149.8404 LP  0  0  0  0  0  0  0  0  0  0  0  0  # atno 17371 bound_to 10713
  140.5543  134.0596  155.7379 LP  0  0  0  0  0  0  0  0  0  0  0  0  # atno 17394 bound_to 11000
  141.1265  133.9374  157.2624 LP  0  0  0  0  0  0  0  0  0  0  0  0  # atno 17395 bound_to 11000

$$$$
