AV-unprocessed.smi:1040|AV-procd|sdf|4525|dock8
  -GOLD-   22720 2543D 1   1.00000     0.00000
 Structure written by MMmdl.
 54 55  0  0  0  0  0  0  0  0  1 V2000
  156.9849  139.1073  161.2485 C   0  0  0  0  0  0  0  0  0  0  0  0
  155.5543  139.2737  161.7881 C   0  0  1  0  0  0  0  0  0  0  0  0
  154.7114  139.7473  160.6920 N   0  0  0  0  0  0  0  0  0  0  0  0
  154.1698  140.9707  160.6042 C   0  0  0  0  0  0  0  0  0  0  0  0
  154.3568  141.8574  161.4372 O   0  0  0  0  0  0  0  0  0  0  0  0
  153.4207  141.0851  159.4951 N   0  0  0  0  0  0  0  0  0  0  0  0
  152.7527  142.2327  158.9777 C   0  0  0  0  0  0  0  0  0  0  0  0
  152.9990  143.5455  159.4495 C   0  0  0  0  0  0  0  0  0  0  0  0
  152.2669  144.6181  158.9096 C   0  0  0  0  0  0  0  0  0  0  0  0
  151.3039  144.3412  157.9239 C   0  0  0  0  0  0  0  0  0  0  0  0
  151.0470  143.0968  157.4732 N   0  0  0  0  0  0  0  0  0  0  0  0
  151.7504  142.0574  157.9851 C   0  0  0  0  0  0  0  0  0  0  0  0
  151.4654  140.7739  157.4780 N   0  0  0  0  0  0  0  0  0  0  0  0
  150.3759  140.0365  158.1172 C   0  0  0  0  0  0  0  0  0  0  0  0
  150.4029  138.5572  157.6964 C   0  0  0  0  0  0  0  0  0  0  0  0
  150.3890  138.4203  156.1651 C   0  0  0  0  0  0  0  0  0  0  0  0
  151.5319  139.2409  155.5451 C   0  0  0  0  0  0  0  0  0  0  0  0
  151.4782  140.7036  156.0181 C   0  0  0  0  0  0  0  0  0  0  0  0
  155.0720  137.8991  162.2776 C   0  0  0  0  0  0  0  0  0  0  0  0
  154.0971  137.3584  161.7532 O   0  0  0  0  0  0  0  0  0  0  0  0
  155.7885  137.3480  163.2735 N   0  0  0  0  0  0  0  0  0  0  0  0
  155.5879  136.0530  163.9347 C   0  0  0  0  0  0  0  0  0  0  0  0
  154.2131  136.1100  164.6237 C   0  0  0  0  0  0  0  0  0  0  0  0
  156.6739  135.8160  165.0050 C   0  0  0  0  0  0  0  0  0  0  0  0
  155.5831  134.9068  162.9011 C   0  0  0  0  0  0  0  0  0  0  0  0
  157.6639  138.7568  162.0271 H   0  0  0  0  0  0  0  0  0  0  0  0
  157.3746  140.0584  160.8839 H   0  0  0  0  0  0  0  0  0  0  0  0
  157.0297  138.3955  160.4224 H   0  0  0  0  0  0  0  0  0  0  0  0
  155.5519  139.9943  162.6085 H   0  0  0  0  0  0  0  0  0  0  0  0
  154.5023  139.0817  159.9628 H   0  0  0  0  0  0  0  0  0  0  0  0
  153.4106  140.2787  158.8875 H   0  0  0  0  0  0  0  0  0  0  0  0
  153.7196  143.7516  160.2251 H   0  0  0  0  0  0  0  0  0  0  0  0
  152.4347  145.6290  159.2502 H   0  0  0  0  0  0  0  0  0  0  0  0
  150.7199  145.1387  157.4892 H   0  0  0  0  0  0  0  0  0  0  0  0
  150.4613  140.1142  159.2019 H   0  0  0  0  0  0  0  0  0  0  0  0
  149.4212  140.4830  157.8356 H   0  0  0  0  0  0  0  0  0  0  0  0
  151.2991  138.0812  158.0968 H   0  0  0  0  0  0  0  0  0  0  0  0
  149.5521  138.0302  158.1288 H   0  0  0  0  0  0  0  0  0  0  0  0
  150.4786  137.3720  155.8788 H   0  0  0  0  0  0  0  0  0  0  0  0
  149.4328  138.7709  155.7748 H   0  0  0  0  0  0  0  0  0  0  0  0
  152.4906  138.8024  155.8257 H   0  0  0  0  0  0  0  0  0  0  0  0
  151.4779  139.1976  154.4570 H   0  0  0  0  0  0  0  0  0  0  0  0
  150.5782  141.1861  155.6349 H   0  0  0  0  0  0  0  0  0  0  0  0
  152.3262  141.2534  155.6093 H   0  0  0  0  0  0  0  0  0  0  0  0
  156.5670  137.8917  163.6168 H   0  0  0  0  0  0  0  0  0  0  0  0
  153.9887  135.1763  165.1409 H   0  0  0  0  0  0  0  0  0  0  0  0
  153.4133  136.2848  163.9029 H   0  0  0  0  0  0  0  0  0  0  0  0
  154.1714  136.9113  165.3627 H   0  0  0  0  0  0  0  0  0  0  0  0
  156.7117  136.6385  165.7202 H   0  0  0  0  0  0  0  0  0  0  0  0
  157.6668  135.7142  164.5672 H   0  0  0  0  0  0  0  0  0  0  0  0
  156.4779  134.9021  165.5670 H   0  0  0  0  0  0  0  0  0  0  0  0
  155.3394  133.9544  163.3733 H   0  0  0  0  0  0  0  0  0  0  0  0
  156.5528  134.7835  162.4190 H   0  0  0  0  0  0  0  0  0  0  0  0
  154.8453  135.0820  162.1171 H   0  0  0  0  0  0  0  0  0  0  0  0
  1  2  1  0  0  0  0
  1 26  1  0  0  0  0
  1 27  1  0  0  0  0
  1 28  1  0  0  0  0
  2  3  1  0  0  0  0
  2 19  1  0  0  0  0
  2 29  1  0  0  0  0
  3  4  1  0  0  0  0
  3 30  1  0  0  0  0
  4  5  2  0  0  0  0
  4  6  1  0  0  0  0
  6  7  1  0  0  0  0
  6 31  1  0  0  0  0
  7 12  1  0  0  0  0
  7  8  2  0  0  0  0
  8  9  1  0  0  0  0
  8 32  1  0  0  0  0
  9 10  2  0  0  0  0
  9 33  1  0  0  0  0
 10 11  1  0  0  0  0
 10 34  1  0  0  0  0
 11 12  2  0  0  0  0
 12 13  1  0  0  0  0
 13 18  1  0  0  0  0
 13 14  1  0  0  0  0
 14 15  1  0  0  0  0
 14 35  1  0  0  0  0
 14 36  1  0  0  0  0
 15 16  1  0  0  0  0
 15 37  1  0  0  0  0
 15 38  1  0  0  0  0
 16 17  1  0  0  0  0
 16 39  1  0  0  0  0
 16 40  1  0  0  0  0
 17 18  1  0  0  0  0
 17 41  1  0  0  0  0
 17 42  1  0  0  0  0
 18 43  1  0  0  0  0
 18 44  1  0  0  0  0
 19 20  2  0  0  0  0
 19 21  1  0  0  0  0
 21 22  1  0  0  0  0
 21 45  1  0  0  0  0
 22 23  1  0  0  0  0
 22 24  1  0  0  0  0
 22 25  1  0  0  0  0
 23 46  1  0  0  0  0
 23 47  1  0  0  0  0
 23 48  1  0  0  0  0
 24 49  1  0  0  0  0
 24 50  1  0  0  0  0
 24 51  1  0  0  0  0
 25 52  1  0  0  0  0
 25 53  1  0  0  0  0
 25 54  1  0  0  0  0
M  END
> <s_m_source_file>
AV-unprocessed.smi

> <i_m_source_file_index>
1040

> <i_lp_mmshare_version>
43012

> <i_f3d_flags>
0

> <s_epik_input>
W0NIM11DKFtDSDNdKShbQ0gzXSlbTkhdQyg9TylbQ0BIXShbQ0gzXSlbTkhdQyg9TylbTkhdYzFbY0hdW2NIXVtjSF1uYzFOMltDSDJdW0NIMl1bQ0gyXVtDSDJdW0NIMl0y

> <s_epik_cmdline>
J2VwaWtfcHl0aG9uJywgJy1waCcsICc3LjAnLCAnLXRuJywgJzgnLCAnLW1hJywgJzIwMCcsICctbWV0YWxfYmluZGluZycsICctaW1hZScsICc8aW5maWxlLm1hZT4nLCAnLW9tYWUnLCAnPG91dGZpbGUubWFlPic=

> <r_lp_tautomer_probability>
1

> <r_epik_Ionization_Penalty>
0.0878593

> <r_epik_Ionization_Penalty_Charging>
0

> <r_epik_Ionization_Penalty_Neutral>
0.0878593

> <r_epik_State_Penalty>
0.07381

> <r_epik_Charging_Adjusted_Penalty>
0.07381

> <i_epik_Tot_Q>
0

> <i_epik_Tot_abs_Q>
0

> <r_epik_Metal_State_Penalty>
0.0646628

> <b_epik_Metal_Only>
0

> <s_lp_Force_Field>
OPLS_2005

> <r_lp_Energy>
20.3339

> <b_lp_Chiralities_Consistent>
1

> <s_lp_Variant>
AV-unprocessed.smi:1040-2

> <Gold.Version>
5.8.1

> <Gold.Id.Protein>
6NUR|6NUR_protein|mol2

> <Gold.PLP.Fitness>
42.1190

> <Gold.PLP.PLP>
-41.4897

> <Gold.PLP.part.hbond>
-1.0000

> <Gold.PLP.part.metal>
0.0000

> <Gold.PLP.part.buried>
-5.2693

> <Gold.PLP.part.nonpolar>
-34.3075

> <Gold.PLP.part.repulsive>
0.2686

> <Gold.PLP.ligand.clash>
0.0000

> <Gold.PLP.ligand.torsion>
0.6120

> <Gold.PLP.Chemscore.Hbond>
0.0000

> <Gold.PLP.Chemscore.CHOScore>
0.5125

> <Gold.PLP.Chemscore.Metal>
0.0000

> <Gold.Chemscore.Hbonds>
donor molecule, donor type, donor heavy atom, donor atom, acceptor molecule, acceptor atom, score
      L1  C    10    34       P1  8028  0.72
      L1  C    10    34       P1  8029  0.01

> <Gold.PLP.Chemscore.Internal.Correction>
0.3159

> <Gold.Rescore>
     Score         DG    S(hbond)    S(metal)    S(lipo)     H(rot)  DE(clash)    DE(int)     intcor
     11.41     -13.87       0.00        0.00     107.06       1.61       0.18       2.28       ----

> <Gold.Chemscore.Fitness>
11.4091

> <Gold.Chemscore.DG>
-13.8728

> <Gold.Chemscore.ZeroCoef>
-5.4800

> <Gold.Chemscore.Hbond>
0.0000

> <Gold.Chemscore.Metal>
0.0000

> <Gold.Chemscore.Lipo>
107.0550

> <Gold.Chemscore.Internal_Hbond>
0.0000

> <Gold.Chemscore.DEClash>
0.1832

> <Gold.Chemscore.DEInternal>
2.2806

> <Gold.Chemscore.Rot>
1.6143

> <Gold.Chemscore.Internal.Correction>
   9.000000E+99

> <Gold.Chemscore.Hbond.Weighted>
-0.0000

> <Gold.Chemscore.Metal.Weighted>
-0.0000

> <Gold.Chemscore.Lipo.Weighted>
-12.5254

> <Gold.Chemscore.Internal_Hbond.Weighted>
0.0000

> <Gold.Chemscore.DEClash.Weighted>
0.1832

> <Gold.Chemscore.DEInternal.Weighted>
2.2806

> <Gold.Chemscore.Rot.Weighted>
4.1326

> <Gold.Chemscore.Internal.Correction.Weighted>
   9.000000E+99

> <Gold.Protein.RotatedTorsions>
[ 6907 6896 6895 6894 ] final   26.07 input  -60.11 | X-H torsion
[ 7974 7965 7964 7962 ] final  -88.47 input  175.53 | X-H torsion
[ 8008 7997 7996 7995 ] final  -48.84 input   59.86 | X-H torsion
[ 10167 10162 10161 10158 ] final  -46.78 input  -65.29 | X-H torsion
[ 10718 10713 10712 10709 ] final  142.21 input   66.30 | X-H torsion
[ 10763 10752 10751 10750 ] final   -1.58 input  -60.55 | X-H torsion
[ 11005 11000 10999 10996 ] final  -74.69 input  -57.11 | X-H torsion

> <Gold.Protein.ActiveResidues>
 VAL166  LYS551  ARG553  GLY616  TRP617  ASP618  TYR619  PRO620  LYS621  CYS622 
 ASP623  PHE694  ASN695  SER759  ASP760  ASP761  ALA762  ILE779  LEU786  VAL792 
 PHE793  MET794  SER795  GLU796  ALA797  LYS798  CYS799  TRP800  GLU811  SER814 

> <Gold.Protein.RotatedAtoms>
  151.9820  135.0023  160.0557 H   0  0  0  0  0  0  0  0  0  0  0  0  # atno 6907 bound_to 6896
  152.1687  133.4625  159.4906 H   0  0  0  0  0  0  0  0  0  0  0  0  # atno 6908 bound_to 6896
  150.6898  134.1898  159.4323 H   0  0  0  0  0  0  0  0  0  0  0  0  # atno 6909 bound_to 6896
  145.4527  140.9561  143.2013 H   0  0  0  0  0  0  0  0  0  0  0  0  # atno 7974 bound_to 7965
  154.4035  140.1311  156.4405 H   0  0  0  0  0  0  0  0  0  0  0  0  # atno 8008 bound_to 7997
  155.7463  140.3489  155.5108 H   0  0  0  0  0  0  0  0  0  0  0  0  # atno 8009 bound_to 7997
  155.8991  140.1016  157.1353 H   0  0  0  0  0  0  0  0  0  0  0  0  # atno 8010 bound_to 7997
  140.6803  143.2815  151.3832 H   0  0  0  0  0  0  0  0  0  0  0  0  # atno 10167 bound_to 10162
  157.3832  131.0995  151.0718 H   0  0  0  0  0  0  0  0  0  0  0  0  # atno 10718 bound_to 10713
  153.3467  135.6983  153.6822 H   0  0  0  0  0  0  0  0  0  0  0  0  # atno 10763 bound_to 10752
  153.5565  135.3543  155.2782 H   0  0  0  0  0  0  0  0  0  0  0  0  # atno 10764 bound_to 10752
  154.8646  135.4239  154.2693 H   0  0  0  0  0  0  0  0  0  0  0  0  # atno 10765 bound_to 10752
  141.1638  133.6920  156.7403 H   0  0  0  0  0  0  0  0  0  0  0  0  # atno 11005 bound_to 11000
  144.8052  139.6065  143.7054 LP  0  0  0  0  0  0  0  0  0  0  0  0  # atno 17320 bound_to 7965
  146.2495  139.6170  142.9436 LP  0  0  0  0  0  0  0  0  0  0  0  0  # atno 17321 bound_to 7965
  139.6121  144.1077  152.2309 LP  0  0  0  0  0  0  0  0  0  0  0  0  # atno 17342 bound_to 10162
  140.0495  144.5944  150.7347 LP  0  0  0  0  0  0  0  0  0  0  0  0  # atno 17343 bound_to 10162
  157.1780  130.6296  149.5662 LP  0  0  0  0  0  0  0  0  0  0  0  0  # atno 17370 bound_to 10713
  155.9780  130.4763  150.6632 LP  0  0  0  0  0  0  0  0  0  0  0  0  # atno 17371 bound_to 10713
  140.2679  134.8415  157.3820 LP  0  0  0  0  0  0  0  0  0  0  0  0  # atno 17394 bound_to 11000
  140.1549  134.4803  155.7935 LP  0  0  0  0  0  0  0  0  0  0  0  0  # atno 17395 bound_to 11000

$$$$
