AV-unprocessed.smi:1529|AV-procd|sdf|6152|dock2
  -GOLD-   22720 6303D 1   1.00000     0.00000
 Structure written by MMmdl.
 50 51  0  0  0  0  0  0  0  0  1 V2000
  146.2419  132.9526  151.4459 C   0  0  0  0  0  0  0  0  0  0  0  0
  145.3937  134.2089  151.2783 C   0  0  0  0  0  0  0  0  0  0  0  0
  144.1815  134.1152  151.0877 O   0  0  0  0  0  0  0  0  0  0  0  0
  146.0459  135.3789  151.3506 N   0  0  0  0  0  0  0  0  0  0  0  0
  145.4284  136.6944  151.2144 C   0  0  0  0  0  0  0  0  0  0  0  0
  145.8123  137.6505  152.3584 C   0  0  0  0  0  0  0  0  0  0  0  0
  146.6653  138.8479  151.9013 C   0  0  0  0  0  0  0  0  0  0  0  0
  147.4852  139.3658  152.9898 N   0  0  0  0  0  0  0  0  0  0  0  0
  147.0825  139.4951  154.2646 C   0  0  0  0  0  0  0  0  0  0  0  0
  145.9508  139.2031  154.6524 O   0  0  0  0  0  0  0  0  0  0  0  0
  148.0863  140.0957  155.2057 C   0  0  0  0  0  0  0  0  0  0  0  0
  149.3149  140.5936  154.7243 C   0  0  0  0  0  0  0  0  0  0  0  0
  150.2254  141.1696  155.6309 C   0  0  0  0  0  0  0  0  0  0  0  0
  149.8841  141.2413  157.0021 C   0  0  0  0  0  0  0  0  0  0  0  0
  150.7841  141.8097  157.9296 N   0  0  0  0  0  0  0  0  0  0  0  0
  151.9641  141.0327  158.3033 C   0  0  0  0  0  0  0  0  0  0  0  0
  152.6615  141.6641  159.5222 C   0  0  1  0  0  0  0  0  0  0  0  0
  153.9696  140.9469  159.8719 C   0  0  0  0  0  0  0  0  0  0  0  0
  152.9616  143.0269  159.2335 O   0  0  0  0  0  0  0  0  0  0  0  0
  151.7917  143.7999  158.9799 C   0  0  1  0  0  0  0  0  0  0  0  0
  152.2147  145.2584  158.7762 C   0  0  0  0  0  0  0  0  0  0  0  0
  151.0650  143.2313  157.7466 C   0  0  0  0  0  0  0  0  0  0  0  0
  148.6944  140.7797  157.4602 N   0  0  0  0  0  0  0  0  0  0  0  0
  147.8250  140.2280  156.5876 C   0  0  0  0  0  0  0  0  0  0  0  0
  147.0500  132.9369  150.7139 H   0  0  0  0  0  0  0  0  0  0  0  0
  145.6379  132.0553  151.3064 H   0  0  0  0  0  0  0  0  0  0  0  0
  146.6783  132.9189  152.4445 H   0  0  0  0  0  0  0  0  0  0  0  0
  147.0425  135.3573  151.5134 H   0  0  0  0  0  0  0  0  0  0  0  0
  145.7017  137.1327  150.2531 H   0  0  0  0  0  0  0  0  0  0  0  0
  144.3464  136.5614  151.1927 H   0  0  0  0  0  0  0  0  0  0  0  0
  144.9099  138.0125  152.8537 H   0  0  0  0  0  0  0  0  0  0  0  0
  146.3599  137.0826  153.1117 H   0  0  0  0  0  0  0  0  0  0  0  0
  147.2951  138.5683  151.0549 H   0  0  0  0  0  0  0  0  0  0  0  0
  146.0239  139.6588  151.5558 H   0  0  0  0  0  0  0  0  0  0  0  0
  148.4241  139.6545  152.7560 H   0  0  0  0  0  0  0  0  0  0  0  0
  149.5651  140.5376  153.6746 H   0  0  0  0  0  0  0  0  0  0  0  0
  151.1619  141.5608  155.2627 H   0  0  0  0  0  0  0  0  0  0  0  0
  151.6781  140.0073  158.5420 H   0  0  0  0  0  0  0  0  0  0  0  0
  152.6504  140.9920  157.4561 H   0  0  0  0  0  0  0  0  0  0  0  0
  151.9991  141.6188  160.3886 H   0  0  0  0  0  0  0  0  0  0  0  0
  153.7904  139.8986  160.1119 H   0  0  0  0  0  0  0  0  0  0  0  0
  154.4476  141.4084  160.7363 H   0  0  0  0  0  0  0  0  0  0  0  0
  154.6751  140.9851  159.0412 H   0  0  0  0  0  0  0  0  0  0  0  0
  151.1335  143.7489  159.8494 H   0  0  0  0  0  0  0  0  0  0  0  0
  151.3500  145.8958  158.5898 H   0  0  0  0  0  0  0  0  0  0  0  0
  152.8933  145.3576  157.9285 H   0  0  0  0  0  0  0  0  0  0  0  0
  152.7262  145.6425  159.6591 H   0  0  0  0  0  0  0  0  0  0  0  0
  151.6839  143.3524  156.8564 H   0  0  0  0  0  0  0  0  0  0  0  0
  150.1533  143.8025  157.5774 H   0  0  0  0  0  0  0  0  0  0  0  0
  146.8932  139.8881  157.0157 H   0  0  0  0  0  0  0  0  0  0  0  0
  1  2  1  0  0  0  0
  1 25  1  0  0  0  0
  1 26  1  0  0  0  0
  1 27  1  0  0  0  0
  2  3  2  0  0  0  0
  2  4  1  0  0  0  0
  4  5  1  0  0  0  0
  4 28  1  0  0  0  0
  5  6  1  0  0  0  0
  5 29  1  0  0  0  0
  5 30  1  0  0  0  0
  6  7  1  0  0  0  0
  6 31  1  0  0  0  0
  6 32  1  0  0  0  0
  7  8  1  0  0  0  0
  7 33  1  0  0  0  0
  7 34  1  0  0  0  0
  8  9  1  0  0  0  0
  8 35  1  0  0  0  0
  9 10  2  0  0  0  0
  9 11  1  0  0  0  0
 11 24  1  0  0  0  0
 11 12  2  0  0  0  0
 12 13  1  0  0  0  0
 12 36  1  0  0  0  0
 13 14  2  0  0  0  0
 13 37  1  0  0  0  0
 14 15  1  0  0  0  0
 14 23  1  0  0  0  0
 15 22  1  0  0  0  0
 15 16  1  0  0  0  0
 16 17  1  0  0  0  0
 16 38  1  0  0  0  0
 16 39  1  0  0  0  0
 17 18  1  0  0  0  0
 17 19  1  0  0  0  0
 17 40  1  0  0  0  0
 18 41  1  0  0  0  0
 18 42  1  0  0  0  0
 18 43  1  0  0  0  0
 19 20  1  0  0  0  0
 20 21  1  0  0  0  0
 20 22  1  0  0  0  0
 20 44  1  0  0  0  0
 21 45  1  0  0  0  0
 21 46  1  0  0  0  0
 21 47  1  0  0  0  0
 22 48  1  0  0  0  0
 22 49  1  0  0  0  0
 23 24  2  0  0  0  0
 24 50  1  0  0  0  0
M  END
> <s_m_source_file>
AV-unprocessed.smi

> <i_m_source_file_index>
1529

> <i_lp_mmshare_version>
43012

> <i_f3d_flags>
0

> <s_epik_input>
W0NIM11DKD1PKVtOSF1bQ0gyXVtDSDJdW0NIMl1bTkhdQyg9TyljMVtjSF1bY0hdYyhuW2NIXTEpTjJbQ0gyXVtDQEBIXShbQ0gzXSlPW0NAQEhdKFtDSDNdKVtDSDJdMg==

> <s_epik_cmdline>
J2VwaWtfcHl0aG9uJywgJy1waCcsICc3LjAnLCAnLXRuJywgJzgnLCAnLW1hJywgJzIwMCcsICctbWV0YWxfYmluZGluZycsICctaW1hZScsICc8aW5maWxlLm1hZT4nLCAnLW9tYWUnLCAnPG91dGZpbGUubWFlPic=

> <r_lp_tautomer_probability>
1

> <r_epik_Ionization_Penalty>
2.1474e-05

> <r_epik_Ionization_Penalty_Charging>
0

> <r_epik_Ionization_Penalty_Neutral>
2.1474e-05

> <r_epik_State_Penalty>
-0

> <r_epik_Charging_Adjusted_Penalty>
0

> <i_epik_Tot_Q>
0

> <i_epik_Tot_abs_Q>
0

> <r_epik_Metal_State_Penalty>
-0

> <b_epik_Metal_Only>
0

> <s_lp_Force_Field>
OPLS_2005

> <r_lp_Energy>
16.5769

> <b_lp_Chiralities_Consistent>
1

> <s_lp_Variant>
AV-unprocessed.smi:1529-1

> <Gold.Version>
5.8.1

> <Gold.Id.Protein>
6NUR|6NUR_protein|mol2

> <Gold.PLP.Fitness>
47.0608

> <Gold.PLP.PLP>
-43.2167

> <Gold.PLP.part.hbond>
-2.0000

> <Gold.PLP.part.metal>
0.0000

> <Gold.PLP.part.buried>
-4.6646

> <Gold.PLP.part.nonpolar>
-38.2673

> <Gold.PLP.part.repulsive>
0.4371

> <Gold.PLP.ligand.clash>
0.0000

> <Gold.PLP.ligand.torsion>
0.9006

> <Gold.PLP.Chemscore.Hbond>
1.7520

> <Gold.PLP.Chemscore.CHOScore>
0.0000

> <Gold.PLP.Chemscore.Metal>
0.0000

> <Gold.Chemscore.Hbonds>
donor molecule, donor type, donor heavy atom, donor atom, acceptor molecule, acceptor atom, score
      L1  H     4    28       P1  7948  0.86
      L1  H     8    35       P1  7957  0.82

> <Gold.PLP.Chemscore.Internal.Correction>
0.3893

> <Gold.Rescore>
     Score         DG    S(hbond)    S(metal)    S(lipo)     H(rot)  DE(clash)    DE(int)     intcor
     16.24     -18.79       1.65        0.00     111.89       2.07       0.24       2.31       ----

> <Gold.Chemscore.Fitness>
16.2377

> <Gold.Chemscore.DG>
-18.7874

> <Gold.Chemscore.ZeroCoef>
-5.4800

> <Gold.Chemscore.Hbond>
1.6524

> <Gold.Chemscore.Metal>
0.0000

> <Gold.Chemscore.Lipo>
111.8885

> <Gold.Chemscore.Internal_Hbond>
0.0000

> <Gold.Chemscore.DEClash>
0.2430

> <Gold.Chemscore.DEInternal>
2.3067

> <Gold.Chemscore.Rot>
2.0713

> <Gold.Chemscore.Internal.Correction>
   9.000000E+99

> <Gold.Chemscore.Hbonds>
donor molecule, donor type, donor heavy atom, donor atom, acceptor molecule, acceptor atom, score
      L1  H     4    28       P1  7948  0.80
      L1  H     8    35       P1  7957  0.77

> <Gold.Chemscore.Hbond.Weighted>
-5.5189

> <Gold.Chemscore.Metal.Weighted>
-0.0000

> <Gold.Chemscore.Lipo.Weighted>
-13.0910

> <Gold.Chemscore.Internal_Hbond.Weighted>
0.0000

> <Gold.Chemscore.DEClash.Weighted>
0.2430

> <Gold.Chemscore.DEInternal.Weighted>
2.3067

> <Gold.Chemscore.Rot.Weighted>
5.3025

> <Gold.Chemscore.Internal.Correction.Weighted>
   9.000000E+99

> <Gold.Protein.RotatedTorsions>
[ 6907 6896 6895 6894 ] final -112.14 input  -60.11 | X-H torsion
[ 7974 7965 7964 7962 ] final   68.81 input  175.53 | X-H torsion
[ 8008 7997 7996 7995 ] final  142.07 input   59.86 | X-H torsion
[ 10167 10162 10161 10158 ] final  -10.50 input  -65.29 | X-H torsion
[ 10718 10713 10712 10709 ] final  -31.99 input   66.30 | X-H torsion
[ 10763 10752 10751 10750 ] final   49.31 input  -60.55 | X-H torsion
[ 11005 11000 10999 10996 ] final  -74.52 input  -57.11 | X-H torsion

> <Gold.Protein.ActiveResidues>
 VAL166  LYS551  ARG553  GLY616  TRP617  ASP618  TYR619  PRO620  LYS621  CYS622 
 ASP623  PHE694  ASN695  SER759  ASP760  ASP761  ALA762  ILE779  LEU786  VAL792 
 PHE793  MET794  SER795  GLU796  ALA797  LYS798  CYS799  TRP800  GLU811  SER814 

> <Gold.Protein.RotatedAtoms>
  150.7738  133.9133  159.3375 H   0  0  0  0  0  0  0  0  0  0  0  0  # atno 6907 bound_to 6896
  151.7013  135.0927  160.0261 H   0  0  0  0  0  0  0  0  0  0  0  0  # atno 6908 bound_to 6896
  152.3766  133.6451  159.6164 H   0  0  0  0  0  0  0  0  0  0  0  0  # atno 6909 bound_to 6896
  145.7981  139.2968  143.1171 H   0  0  0  0  0  0  0  0  0  0  0  0  # atno 7974 bound_to 7965
  156.2955  140.2298  156.4667 H   0  0  0  0  0  0  0  0  0  0  0  0  # atno 8008 bound_to 7997
  154.7971  140.0450  157.1265 H   0  0  0  0  0  0  0  0  0  0  0  0  # atno 8009 bound_to 7997
  154.9577  140.3050  155.5048 H   0  0  0  0  0  0  0  0  0  0  0  0  # atno 8010 bound_to 7997
  140.7115  143.5742  150.9060 H   0  0  0  0  0  0  0  0  0  0  0  0  # atno 10167 bound_to 10162
  156.3805  130.4355  149.7473 H   0  0  0  0  0  0  0  0  0  0  0  0  # atno 10718 bound_to 10713
  152.9787  135.5916  154.4068 H   0  0  0  0  0  0  0  0  0  0  0  0  # atno 10763 bound_to 10752
  154.3708  135.2767  155.2269 H   0  0  0  0  0  0  0  0  0  0  0  0  # atno 10764 bound_to 10752
  154.4226  135.6055  153.6074 H   0  0  0  0  0  0  0  0  0  0  0  0  # atno 10765 bound_to 10752
  141.1636  133.6914  156.7377 H   0  0  0  0  0  0  0  0  0  0  0  0  # atno 11005 bound_to 11000
  145.9907  140.8605  143.0068 LP  0  0  0  0  0  0  0  0  0  0  0  0  # atno 17320 bound_to 7965
  144.6772  140.2211  143.7366 LP  0  0  0  0  0  0  0  0  0  0  0  0  # atno 17321 bound_to 7965
  139.9468  143.6318  152.3039 LP  0  0  0  0  0  0  0  0  0  0  0  0  # atno 17342 bound_to 10162
  139.6823  144.7654  151.1587 LP  0  0  0  0  0  0  0  0  0  0  0  0  # atno 17343 bound_to 10162
  156.4565  130.7931  151.2952 LP  0  0  0  0  0  0  0  0  0  0  0  0  # atno 17370 bound_to 10713
  157.7492  131.0079  150.3208 LP  0  0  0  0  0  0  0  0  0  0  0  0  # atno 17371 bound_to 10713
  140.2697  134.8402  157.3836 LP  0  0  0  0  0  0  0  0  0  0  0  0  # atno 17394 bound_to 11000
  140.1533  134.4822  155.7946 LP  0  0  0  0  0  0  0  0  0  0  0  0  # atno 17395 bound_to 11000

$$$$
