AV-unprocessed.smi:2173|AV-procd|sdf|8838|dock1
  -GOLD-   2272012 33D 1   1.00000     0.00000
 Structure written by MMmdl.
 35 36  0  0  0  0  0  0  0  0  1 V2000
  150.9922  140.7401  158.0369 O   0  0  0  0  0  0  0  0  0  0  0  0
  150.5899  141.8335  157.6375 C   0  0  0  0  0  0  0  0  0  0  0  0
  149.9668  142.0057  156.4606 N   0  0  0  0  0  0  0  0  0  0  0  0
  149.7224  140.9619  155.4683 C   0  0  0  0  0  0  0  0  0  0  0  0
  148.8433  141.4476  154.2979 C   0  0  0  0  0  0  0  0  0  0  0  0
  147.5102  142.0367  154.7295 C   0  0  0  0  0  0  0  0  0  0  0  0
  146.6338  142.5979  153.7766 C   0  0  0  0  0  0  0  0  0  0  0  0
  145.4294  143.1711  154.2283 C   0  0  0  0  0  0  0  0  0  0  0  0
  145.1485  143.1607  155.6082 C   0  0  0  0  0  0  0  0  0  0  0  0
  146.0886  142.5745  156.4787 C   0  0  0  0  0  0  0  0  0  0  0  0
  147.2455  142.0213  156.0561 N   0  0  0  0  0  0  0  0  0  0  0  0
  150.8111  143.0944  158.4822 C   0  0  2  0  0  0  0  0  0  0  0  0
  151.6773  144.1217  157.7184 C   0  0  0  0  0  0  0  0  0  0  0  0
  152.1244  145.2681  158.6081 C   0  0  0  0  0  0  0  0  0  0  0  0
  152.0695  145.2259  159.9504 C   0  0  0  0  0  0  0  0  0  0  0  0
  151.5607  144.0255  160.7292 C   0  0  0  0  0  0  0  0  0  0  0  0
  151.4444  142.7661  159.8493 C   0  0  0  0  0  0  0  0  0  0  0  0
  149.6742  142.9408  156.2169 H   0  0  0  0  0  0  0  0  0  0  0  0
  150.6650  140.5656  155.0872 H   0  0  0  0  0  0  0  0  0  0  0  0
  149.2278  140.1305  155.9708 H   0  0  0  0  0  0  0  0  0  0  0  0
  149.3866  142.1970  153.7214 H   0  0  0  0  0  0  0  0  0  0  0  0
  148.6592  140.6191  153.6120 H   0  0  0  0  0  0  0  0  0  0  0  0
  146.8837  142.6004  152.7260 H   0  0  0  0  0  0  0  0  0  0  0  0
  144.7358  143.6148  153.5296 H   0  0  0  0  0  0  0  0  0  0  0  0
  144.2360  143.5931  155.9906 H   0  0  0  0  0  0  0  0  0  0  0  0
  145.9083  142.5515  157.5431 H   0  0  0  0  0  0  0  0  0  0  0  0
  149.8370  143.5488  158.6742 H   0  0  0  0  0  0  0  0  0  0  0  0
  152.5681  143.6543  157.2962 H   0  0  0  0  0  0  0  0  0  0  0  0
  151.1098  144.5323  156.8824 H   0  0  0  0  0  0  0  0  0  0  0  0
  152.5118  146.1464  158.1129 H   0  0  0  0  0  0  0  0  0  0  0  0
  152.3890  146.0814  160.5273 H   0  0  0  0  0  0  0  0  0  0  0  0
  152.2278  143.8319  161.5694 H   0  0  0  0  0  0  0  0  0  0  0  0
  150.5872  144.2831  161.1478 H   0  0  0  0  0  0  0  0  0  0  0  0
  150.8653  142.0042  160.3729 H   0  0  0  0  0  0  0  0  0  0  0  0
  152.4401  142.3453  159.6987 H   0  0  0  0  0  0  0  0  0  0  0  0
  1  2  2  0  0  0  0
  2  3  1  0  0  0  0
  2 12  1  0  0  0  0
  3  4  1  0  0  0  0
  3 18  1  0  0  0  0
  4  5  1  0  0  0  0
  4 19  1  0  0  0  0
  4 20  1  0  0  0  0
  5  6  1  0  0  0  0
  5 21  1  0  0  0  0
  5 22  1  0  0  0  0
  6 11  1  0  0  0  0
  6  7  2  0  0  0  0
  7  8  1  0  0  0  0
  7 23  1  0  0  0  0
  8  9  2  0  0  0  0
  8 24  1  0  0  0  0
  9 10  1  0  0  0  0
  9 25  1  0  0  0  0
 10 11  2  0  0  0  0
 10 26  1  0  0  0  0
 12 17  1  0  0  0  0
 12 13  1  0  0  0  0
 12 27  1  0  0  0  0
 13 14  1  0  0  0  0
 13 28  1  0  0  0  0
 13 29  1  0  0  0  0
 14 15  2  0  0  0  0
 14 30  1  0  0  0  0
 15 16  1  0  0  0  0
 15 31  1  0  0  0  0
 16 17  1  0  0  0  0
 16 32  1  0  0  0  0
 16 33  1  0  0  0  0
 17 34  1  0  0  0  0
 17 35  1  0  0  0  0
M  END
> <s_m_source_file>
AV-unprocessed.smi

> <i_m_source_file_index>
2173

> <i_lp_mmshare_version>
43012

> <i_f3d_flags>
0

> <s_epik_input>
W0NIMl0xW0NIMl1bQ0hdPVtDSF1bQ0gyXVtDQEhdMUMoPU8pW05IXVtDSDJdW0NIMl1jMltjSF1bY0hdW2NIXVtjSF1uMg==

> <s_epik_cmdline>
J2VwaWtfcHl0aG9uJywgJy1waCcsICc3LjAnLCAnLXRuJywgJzgnLCAnLW1hJywgJzIwMCcsICctbWV0YWxfYmluZGluZycsICctaW1hZScsICc8aW5maWxlLm1hZT4nLCAnLW9tYWUnLCAnPG91dGZpbGUubWFlPic=

> <r_epik_Ionization_Penalty>
0.0268825

> <r_epik_Ionization_Penalty_Charging>
0

> <r_epik_Ionization_Penalty_Neutral>
0.0268825

> <r_epik_State_Penalty>
0.0219706

> <r_epik_Charging_Adjusted_Penalty>
0.0219706

> <i_epik_Tot_Q>
0

> <i_epik_Tot_abs_Q>
0

> <r_epik_Metal_State_Penalty>
0.0210138

> <b_epik_Metal_Only>
0

> <s_lp_Force_Field>
OPLS_2005

> <r_lp_Energy>
7.98713

> <b_lp_Chiralities_Consistent>
1

> <s_lp_Variant>
AV-unprocessed.smi:2173-1

> <Gold.Version>
5.8.1

> <Gold.Id.Protein>
6NUR|6NUR_protein|mol2

> <Gold.PLP.Fitness>
42.3780

> <Gold.PLP.PLP>
-39.4801

> <Gold.PLP.part.hbond>
-0.9637

> <Gold.PLP.part.metal>
0.0000

> <Gold.PLP.part.buried>
-4.7580

> <Gold.PLP.part.nonpolar>
-34.1097

> <Gold.PLP.part.repulsive>
0.2110

> <Gold.PLP.ligand.clash>
0.0000

> <Gold.PLP.ligand.torsion>
0.0591

> <Gold.PLP.Chemscore.Hbond>
0.9913

> <Gold.PLP.Chemscore.CHOScore>
0.0000

> <Gold.PLP.Chemscore.Metal>
0.0000

> <Gold.Chemscore.Hbonds>
donor molecule, donor type, donor heavy atom, donor atom, acceptor molecule, acceptor atom, score
      L1  H     3    18       P1  8028  1.00

> <Gold.PLP.Chemscore.Internal.Correction>
0.0424

> <Gold.Rescore>
     Score         DG    S(hbond)    S(metal)    S(lipo)     H(rot)  DE(clash)    DE(int)     intcor
     16.26     -17.88       1.00        0.00     107.88       1.39       0.18       1.44       ----

> <Gold.Chemscore.Fitness>
16.2610

> <Gold.Chemscore.DG>
-17.8819

> <Gold.Chemscore.ZeroCoef>
-5.4800

> <Gold.Chemscore.Hbond>
1.0000

> <Gold.Chemscore.Metal>
0.0000

> <Gold.Chemscore.Lipo>
107.8806

> <Gold.Chemscore.Internal_Hbond>
0.0000

> <Gold.Chemscore.DEClash>
0.1768

> <Gold.Chemscore.DEInternal>
1.4441

> <Gold.Chemscore.Rot>
1.3907

> <Gold.Chemscore.Internal.Correction>
   9.000000E+99

> <Gold.Chemscore.Hbonds>
donor molecule, donor type, donor heavy atom, donor atom, acceptor molecule, acceptor atom, score
      L1  H     3    18       P1  8028  0.93

> <Gold.Chemscore.Hbond.Weighted>
-3.3400

> <Gold.Chemscore.Metal.Weighted>
-0.0000

> <Gold.Chemscore.Lipo.Weighted>
-12.6220

> <Gold.Chemscore.Internal_Hbond.Weighted>
0.0000

> <Gold.Chemscore.DEClash.Weighted>
0.1768

> <Gold.Chemscore.DEInternal.Weighted>
1.4441

> <Gold.Chemscore.Rot.Weighted>
3.5601

> <Gold.Chemscore.Internal.Correction.Weighted>
   9.000000E+99

> <Gold.Protein.RotatedTorsions>
[ 6907 6896 6895 6894 ] final  153.56 input  -60.11 | X-H torsion
[ 7974 7965 7964 7962 ] final  -55.02 input  175.53 | X-H torsion
[ 8008 7997 7996 7995 ] final  -98.33 input   59.86 | X-H torsion
[ 10167 10162 10161 10158 ] final  -33.34 input  -65.29 | X-H torsion
[ 10718 10713 10712 10709 ] final  -46.04 input   66.30 | X-H torsion
[ 10763 10752 10751 10750 ] final -143.99 input  -60.55 | X-H torsion
[ 11005 11000 10999 10996 ] final -152.12 input  -57.11 | X-H torsion

> <Gold.Protein.ActiveResidues>
 VAL166  LYS551  ARG553  GLY616  TRP617  ASP618  TYR619  PRO620  LYS621  CYS622 
 ASP623  PHE694  ASN695  SER759  ASP760  ASP761  ALA762  ILE779  LEU786  VAL792 
 PHE793  MET794  SER795  GLU796  ALA797  LYS798  CYS799  TRP800  GLU811  SER814 

> <Gold.Protein.RotatedAtoms>
  152.0709  133.4106  159.4458 H   0  0  0  0  0  0  0  0  0  0  0  0  # atno 6907 bound_to 6896
  150.6863  134.3092  159.4748 H   0  0  0  0  0  0  0  0  0  0  0  0  # atno 6908 bound_to 6896
  152.0924  134.9397  160.0622 H   0  0  0  0  0  0  0  0  0  0  0  0  # atno 6909 bound_to 6896
  145.8789  140.8160  142.9850 H   0  0  0  0  0  0  0  0  0  0  0  0  # atno 7974 bound_to 7965
  154.7997  140.0456  157.1263 H   0  0  0  0  0  0  0  0  0  0  0  0  # atno 8008 bound_to 7997
  154.9493  140.3063  155.5063 H   0  0  0  0  0  0  0  0  0  0  0  0  # atno 8009 bound_to 7997
  156.2960  140.2291  156.4569 H   0  0  0  0  0  0  0  0  0  0  0  0  # atno 8010 bound_to 7997
  140.7206  143.3628  151.1930 H   0  0  0  0  0  0  0  0  0  0  0  0  # atno 10167 bound_to 10162
  156.2223  130.4167  149.8977 H   0  0  0  0  0  0  0  0  0  0  0  0  # atno 10718 bound_to 10713
  154.8447  135.3452  154.6275 H   0  0  0  0  0  0  0  0  0  0  0  0  # atno 10763 bound_to 10752
  153.6885  135.6976  153.5101 H   0  0  0  0  0  0  0  0  0  0  0  0  # atno 10764 bound_to 10752
  153.2613  135.4322  155.0852 H   0  0  0  0  0  0  0  0  0  0  0  0  # atno 10765 bound_to 10752
  140.7223  134.3713  157.5181 H   0  0  0  0  0  0  0  0  0  0  0  0  # atno 11005 bound_to 11000
  144.6727  140.1353  143.7441 LP  0  0  0  0  0  0  0  0  0  0  0  0  # atno 17320 bound_to 7965
  145.9048  139.2451  143.1472 LP  0  0  0  0  0  0  0  0  0  0  0  0  # atno 17321 bound_to 7965
  139.7183  143.9264  152.2975 LP  0  0  0  0  0  0  0  0  0  0  0  0  # atno 17342 bound_to 10162
  139.9013  144.6910  150.8662 LP  0  0  0  0  0  0  0  0  0  0  0  0  # atno 17343 bound_to 10162
  156.6619  130.8785  151.3549 LP  0  0  0  0  0  0  0  0  0  0  0  0  # atno 17370 bound_to 10713
  157.7093  130.9422  150.1037 LP  0  0  0  0  0  0  0  0  0  0  0  0  # atno 17371 bound_to 10713
  139.8845  134.8963  156.2699 LP  0  0  0  0  0  0  0  0  0  0  0  0  # atno 17394 bound_to 11000
  140.9993  133.7161  156.0935 LP  0  0  0  0  0  0  0  0  0  0  0  0  # atno 17395 bound_to 11000

$$$$
