AV-unprocessed.smi:3145|AV-procd|sdf|11979|dock1
  -GOLD-   2272017383D 1   1.00000     0.00000
 Structure written by MMmdl.
 35 35  0  0  0  0  0  0  0  0  2 V2000
  145.5966  137.3468  152.3056 C   0  0  0  0  0  0  0  0  0  0  0  0
  145.6056  135.8982  151.7886 C   0  0  2  0  0  0  0  0  0  0  0  0
  144.2267  135.2092  151.9139 C   0  0  0  0  0  0  0  0  0  0  0  0
  144.1139  134.0201  151.0884 N   0  0  0  0  0  0  0  0  0  0  0  0
  144.7915  133.7183  149.9257 C   0  0  0  0  0  0  0  0  0  0  0  0
  144.3547  132.4943  149.5074 C   0  0  0  0  0  0  0  0  0  0  0  0
  143.4009  132.1199  150.4946 C   0  0  0  0  0  0  0  0  0  0  0  0
  143.2597  133.0351  151.4402 N   0  0  0  0  0  0  0  0  0  0  0  0
  146.6585  135.1367  152.5058 N   0  3  0  0  0  0  0  0  0  0  0  0
  146.7182  133.6784  152.2470 C   0  0  0  0  0  0  0  0  0  0  0  0
  147.7957  132.9694  153.0710 C   0  0  0  0  0  0  0  0  0  0  0  0
  147.7028  131.7646  153.3068 O   0  0  0  0  0  0  0  0  0  0  0  0
  148.8115  133.7309  153.5020 N   0  0  0  0  0  0  0  0  0  0  0  0
  149.9084  133.2685  154.3451 C   0  0  0  0  0  0  0  0  0  0  0  0
  149.8386  133.8635  155.7612 C   0  0  0  0  0  0  0  0  0  0  0  0
  150.6565  133.1297  156.7399 C   0  0  0  0  0  0  0  0  0  0  0  0
  151.2988  132.5493  157.5072 N   0  0  0  0  0  0  0  0  0  0  0  0
  144.9164  137.9757  151.7306 H   0  0  0  0  0  0  0  0  0  0  0  0
  146.5871  137.7962  152.2294 H   0  0  0  0  0  0  0  0  0  0  0  0
  145.2895  137.3928  153.3511 H   0  0  0  0  0  0  0  0  0  0  0  0
  145.8712  135.9442  150.7319 H   0  0  0  0  0  0  0  0  0  0  0  0
  144.0344  134.9065  152.9430 H   0  0  0  0  0  0  0  0  0  0  0  0
  143.4309  135.9047  151.6413 H   0  0  0  0  0  0  0  0  0  0  0  0
  145.5180  134.3923  149.4964 H   0  0  0  0  0  0  0  0  0  0  0  0
  144.6693  131.9480  148.6303 H   0  0  0  0  0  0  0  0  0  0  0  0
  142.8117  131.2164  150.5518 H   0  0  0  0  0  0  0  0  0  0  0  0
  147.5538  135.5220  152.2397 H   0  0  0  0  0  0  0  0  0  0  0  0
  145.7546  133.2516  152.5263 H   0  0  0  0  0  0  0  0  0  0  0  0
  146.8448  133.4769  151.1832 H   0  0  0  0  0  0  0  0  0  0  0  0
  148.8149  134.7092  153.2502 H   0  0  0  0  0  0  0  0  0  0  0  0
  149.9036  132.1785  154.3928 H   0  0  0  0  0  0  0  0  0  0  0  0
  150.8475  133.5549  153.8710 H   0  0  0  0  0  0  0  0  0  0  0  0
  150.1670  134.9030  155.7640 H   0  0  0  0  0  0  0  0  0  0  0  0
  148.8086  133.8564  156.1183 H   0  0  0  0  0  0  0  0  0  0  0  0
  146.5316  135.2837  153.4969 H   0  0  0  0  0  0  0  0  0  0  0  0
  1  2  1  0  0  0  0
  1 18  1  0  0  0  0
  1 19  1  0  0  0  0
  1 20  1  0  0  0  0
  2  3  1  0  0  0  0
  2  9  1  0  0  0  0
  2 21  1  0  0  0  0
  3  4  1  0  0  0  0
  3 22  1  0  0  0  0
  3 23  1  0  0  0  0
  4  8  1  0  0  0  0
  4  5  1  0  0  0  0
  5  6  2  0  0  0  0
  5 24  1  0  0  0  0
  6  7  1  0  0  0  0
  6 25  1  0  0  0  0
  7  8  2  0  0  0  0
  7 26  1  0  0  0  0
  9 10  1  0  0  0  0
  9 27  1  0  0  0  0
  9 35  1  0  0  0  0
 10 11  1  0  0  0  0
 10 28  1  0  0  0  0
 10 29  1  0  0  0  0
 11 12  2  0  0  0  0
 11 13  1  0  0  0  0
 13 14  1  0  0  0  0
 13 30  1  0  0  0  0
 14 15  1  0  0  0  0
 14 31  1  0  0  0  0
 14 32  1  0  0  0  0
 15 16  1  0  0  0  0
 15 33  1  0  0  0  0
 15 34  1  0  0  0  0
 16 17  3  0  0  0  0
M  CHG  1   9   1
M  END
> <s_m_source_file>
AV-unprocessed.smi

> <i_m_source_file_index>
3145

> <i_lp_mmshare_version>
43012

> <i_f3d_flags>
0

> <s_epik_input>
bjFbY0hdW2NIXVtjSF1uMVtDSDJdW0NAQEhdKFtDSDNdKVtOSF1bQ0gyXUMoPU8pW05IXVtDSDJdW0NIMl1DI04=

> <s_epik_cmdline>
J2VwaWtfcHl0aG9uJywgJy1waCcsICc3LjAnLCAnLXRuJywgJzgnLCAnLW1hJywgJzIwMCcsICctbWV0YWxfYmluZGluZycsICctaW1hZScsICc8aW5maWxlLm1hZT4nLCAnLW9tYWUnLCAnPG91dGZpbGUubWFlPic=

> <r_lp_tautomer_probability>
1

> <r_epik_Ionization_Penalty>
0.190162

> <r_epik_Ionization_Penalty_Charging>
0.190142

> <r_epik_Ionization_Penalty_Neutral>
2.0165e-05

> <r_epik_State_Penalty>
0.179787

> <r_epik_Charging_Adjusted_Penalty>
0.369929

> <i_epik_Tot_Q>
1

> <i_epik_Tot_abs_Q>
1

> <r_epik_Metal_State_Penalty>
0.191786

> <b_epik_Metal_Only>
0

> <s_lp_Force_Field>
OPLS_2005

> <r_lp_Energy>
3.88931

> <b_lp_Chiralities_Consistent>
1

> <s_lp_Variant>
AV-unprocessed.smi:3145-1

> <Gold.Version>
5.8.1

> <Gold.Id.Protein>
6NUR|6NUR_protein|mol2

> <Gold.PLP.Fitness>
45.8701

> <Gold.PLP.PLP>
-29.5920

> <Gold.PLP.part.hbond>
-3.0000

> <Gold.PLP.part.metal>
0.0000

> <Gold.PLP.part.buried>
-3.5518

> <Gold.PLP.part.nonpolar>
-23.7400

> <Gold.PLP.part.repulsive>
0.3355

> <Gold.PLP.ligand.clash>
0.0000

> <Gold.PLP.ligand.torsion>
0.9764

> <Gold.PLP.Chemscore.Hbond>
4.0000

> <Gold.PLP.Chemscore.CHOScore>
2.0000

> <Gold.PLP.Chemscore.Metal>
0.0000

> <Gold.Chemscore.Hbonds>
donor molecule, donor type, donor heavy atom, donor atom, acceptor molecule, acceptor atom, score
      L1  H     9    27       P1  7948  2.00
      L1  H    13    30       P1  7948  0.95
      P1  H  6896  6907       L1    17  1.00
      L1  C     5    24       P1  7921  0.94
      L1  C     7    26       P1 10952  1.00

> <Gold.PLP.Chemscore.Internal.Correction>
0.2309

> <Gold.Rescore>
     Score         DG    S(hbond)    S(metal)    S(lipo)     H(rot)  DE(clash)    DE(int)     intcor
     10.92     -13.49       2.50        0.00      60.22       2.89       0.31       2.26       ----

> <Gold.Chemscore.Fitness>
10.9188

> <Gold.Chemscore.DG>
-13.4895

> <Gold.Chemscore.ZeroCoef>
-5.4800

> <Gold.Chemscore.Hbond>
2.5030

> <Gold.Chemscore.Metal>
0.0000

> <Gold.Chemscore.Lipo>
60.2249

> <Gold.Chemscore.Internal_Hbond>
0.0000

> <Gold.Chemscore.DEClash>
0.3129

> <Gold.Chemscore.DEInternal>
2.2578

> <Gold.Chemscore.Rot>
2.8894

> <Gold.Chemscore.Internal.Correction>
   9.000000E+99

> <Gold.Chemscore.Hbonds>
donor molecule, donor type, donor heavy atom, donor atom, acceptor molecule, acceptor atom, score
      L1  H     9    27       P1  7948  0.98
      L1  H    13    30       P1  7948  0.19
      P1  H  6896  6907       L1    17  0.90

> <Gold.Chemscore.Hbond.Weighted>
-8.3600

> <Gold.Chemscore.Metal.Weighted>
-0.0000

> <Gold.Chemscore.Lipo.Weighted>
-7.0463

> <Gold.Chemscore.Internal_Hbond.Weighted>
0.0000

> <Gold.Chemscore.DEClash.Weighted>
0.3129

> <Gold.Chemscore.DEInternal.Weighted>
2.2578

> <Gold.Chemscore.Rot.Weighted>
7.3968

> <Gold.Chemscore.Internal.Correction.Weighted>
   9.000000E+99

> <Gold.Protein.RotatedTorsions>
[ 6907 6896 6895 6894 ] final -165.55 input  -60.11 | X-H torsion
[ 7974 7965 7964 7962 ] final -139.10 input  175.53 | X-H torsion
[ 8008 7997 7996 7995 ] final   70.25 input   59.86 | X-H torsion
[ 10167 10162 10161 10158 ] final  -38.15 input  -65.29 | X-H torsion
[ 10718 10713 10712 10709 ] final   32.56 input   66.30 | X-H torsion
[ 10763 10752 10751 10750 ] final  -36.13 input  -60.55 | X-H torsion
[ 11005 11000 10999 10996 ] final   39.59 input  -57.11 | X-H torsion

> <Gold.Protein.ActiveResidues>
 VAL166  LYS551  ARG553  GLY616  TRP617  ASP618  TYR619  PRO620  LYS621  CYS622 
 ASP623  PHE694  ASN695  SER759  ASP760  ASP761  ALA762  ILE779  LEU786  VAL792 
 PHE793  MET794  SER795  GLU796  ALA797  LYS798  CYS799  TRP800  GLU811  SER814 

> <Gold.Protein.RotatedAtoms>
  151.4294  133.3674  159.2766 H   0  0  0  0  0  0  0  0  0  0  0  0  # atno 6907 bound_to 6896
  150.9236  134.8654  159.7515 H   0  0  0  0  0  0  0  0  0  0  0  0  # atno 6908 bound_to 6896
  152.4994  134.4234  159.9540 H   0  0  0  0  0  0  0  0  0  0  0  0  # atno 6909 bound_to 6896
  144.8704  140.6358  143.5270 H   0  0  0  0  0  0  0  0  0  0  0  0  # atno 7974 bound_to 7965
  155.7360  140.3491  155.5082 H   0  0  0  0  0  0  0  0  0  0  0  0  # atno 8008 bound_to 7997
  155.9138  140.1055  157.1280 H   0  0  0  0  0  0  0  0  0  0  0  0  # atno 8009 bound_to 7997
  154.4059  140.1262  156.4578 H   0  0  0  0  0  0  0  0  0  0  0  0  # atno 8010 bound_to 7997
  140.7100  143.3296  151.2600 H   0  0  0  0  0  0  0  0  0  0  0  0  # atno 10167 bound_to 10162
  157.2868  130.7282  149.6587 H   0  0  0  0  0  0  0  0  0  0  0  0  # atno 10718 bound_to 10713
  153.8746  135.6827  153.4771 H   0  0  0  0  0  0  0  0  0  0  0  0  # atno 10763 bound_to 10752
  153.1268  135.4715  154.9283 H   0  0  0  0  0  0  0  0  0  0  0  0  # atno 10764 bound_to 10752
  154.7698  135.3235  154.8164 H   0  0  0  0  0  0  0  0  0  0  0  0  # atno 10765 bound_to 10752
  140.2013  134.3867  155.8095 H   0  0  0  0  0  0  0  0  0  0  0  0  # atno 11005 bound_to 11000
  145.4141  139.1575  143.4110 LP  0  0  0  0  0  0  0  0  0  0  0  0  # atno 17320 bound_to 7965
  146.2926  140.4247  142.8734 LP  0  0  0  0  0  0  0  0  0  0  0  0  # atno 17321 bound_to 7965
  139.6774  143.9914  152.2789 LP  0  0  0  0  0  0  0  0  0  0  0  0  # atno 17342 bound_to 10162
  139.9532  144.6606  150.8151 LP  0  0  0  0  0  0  0  0  0  0  0  0  # atno 17343 bound_to 10162
  155.9666  130.4321  150.4949 LP  0  0  0  0  0  0  0  0  0  0  0  0  # atno 17370 bound_to 10713
  157.2904  131.0625  151.2138 LP  0  0  0  0  0  0  0  0  0  0  0  0  # atno 17371 bound_to 10713
  141.2227  133.7095  156.8262 LP  0  0  0  0  0  0  0  0  0  0  0  0  # atno 17394 bound_to 11000
  140.2051  134.8868  157.3213 LP  0  0  0  0  0  0  0  0  0  0  0  0  # atno 17395 bound_to 11000

$$$$
