AV-unprocessed.smi:3240|AV-procd|sdf|12381|dock8
  -GOLD-   2272018243D 1   1.00000     0.00000
 Structure written by MMmdl.
 44 45  0  0  0  0  0  0  0  0  2 V2000
  151.7642  142.9341  158.0841 C   0  0  0  0  0  0  0  0  0  0  0  0
  151.1411  141.8884  157.2051 C   0  0  0  0  0  0  0  0  0  0  0  0
  151.1662  140.4746  157.3724 C   0  0  0  0  0  0  0  0  0  0  0  0
  150.5179  139.8328  156.4143 N   0  0  0  0  0  0  0  0  0  0  0  0
  150.0517  140.8096  155.6077 N   0  0  0  0  0  0  0  0  0  0  0  0
  149.2887  140.4671  154.4197 C   0  0  0  0  0  0  0  0  0  0  0  0
  149.1785  138.9452  154.1938 C   0  0  2  0  0  0  0  0  0  0  0  0
  150.5754  138.3071  154.1132 C   0  0  0  0  0  0  0  0  0  0  0  0
  148.3924  138.6692  152.9695 N   0  3  0  0  0  0  0  0  0  0  0  0
  146.9259  138.8110  153.1081 C   0  0  0  0  0  0  0  0  0  0  0  0
  146.1868  137.4713  152.8952 C   0  0  0  0  0  0  0  0  0  0  0  0
  146.9504  136.4656  153.5380 O   0  0  0  0  0  0  0  0  0  0  0  0
  144.7577  137.4946  153.4930 C   0  0  0  0  0  0  0  0  0  0  0  0
  143.9499  136.2248  153.1688 C   0  0  0  0  0  0  0  0  0  0  0  0
  143.9013  135.9623  151.6574 C   0  0  0  0  0  0  0  0  0  0  0  0
  145.3172  135.8719  151.0725 C   0  0  0  0  0  0  0  0  0  0  0  0
  146.1322  137.1396  151.3846 C   0  0  0  0  0  0  0  0  0  0  0  0
  150.4215  142.0598  156.0566 C   0  0  0  0  0  0  0  0  0  0  0  0
  152.2871  142.4921  158.9327 H   0  0  0  0  0  0  0  0  0  0  0  0
  151.0166  143.6171  158.4878 H   0  0  0  0  0  0  0  0  0  0  0  0
  152.4901  143.5376  157.5388 H   0  0  0  0  0  0  0  0  0  0  0  0
  151.6358  139.8992  158.1568 H   0  0  0  0  0  0  0  0  0  0  0  0
  148.2959  140.9116  154.5040 H   0  0  0  0  0  0  0  0  0  0  0  0
  149.7706  140.9425  153.5643 H   0  0  0  0  0  0  0  0  0  0  0  0
  148.6527  138.5102  155.0451 H   0  0  0  0  0  0  0  0  0  0  0  0
  151.1598  138.5376  155.0046 H   0  0  0  0  0  0  0  0  0  0  0  0
  151.1312  138.6745  153.2498 H   0  0  0  0  0  0  0  0  0  0  0  0
  150.5230  137.2211  154.0397 H   0  0  0  0  0  0  0  0  0  0  0  0
  148.6822  139.3350  152.2667 H   0  0  0  0  0  0  0  0  0  0  0  0
  146.6934  139.2024  154.0985 H   0  0  0  0  0  0  0  0  0  0  0  0
  146.5714  139.5485  152.3860 H   0  0  0  0  0  0  0  0  0  0  0  0
  147.8311  136.4919  153.1946 H   0  0  0  0  0  0  0  0  0  0  0  0
  144.7953  137.6264  154.5750 H   0  0  0  0  0  0  0  0  0  0  0  0
  144.2194  138.3591  153.1019 H   0  0  0  0  0  0  0  0  0  0  0  0
  144.3913  135.3652  153.6748 H   0  0  0  0  0  0  0  0  0  0  0  0
  142.9365  136.3220  153.5593 H   0  0  0  0  0  0  0  0  0  0  0  0
  143.3558  135.0396  151.4564 H   0  0  0  0  0  0  0  0  0  0  0  0
  143.3492  136.7624  151.1627 H   0  0  0  0  0  0  0  0  0  0  0  0
  145.8253  134.9948  151.4748 H   0  0  0  0  0  0  0  0  0  0  0  0
  145.2623  135.7250  149.9933 H   0  0  0  0  0  0  0  0  0  0  0  0
  145.6830  137.9779  150.8498 H   0  0  0  0  0  0  0  0  0  0  0  0
  147.1411  137.0343  150.9830 H   0  0  0  0  0  0  0  0  0  0  0  0
  150.1442  142.9605  155.5287 H   0  0  0  0  0  0  0  0  0  0  0  0
  148.6083  137.7404  152.6379 H   0  0  0  0  0  0  0  0  0  0  0  0
  1  2  1  0  0  0  0
  1 19  1  0  0  0  0
  1 20  1  0  0  0  0
  1 21  1  0  0  0  0
  2 18  2  0  0  0  0
  2  3  1  0  0  0  0
  3  4  2  0  0  0  0
  3 22  1  0  0  0  0
  4  5  1  0  0  0  0
  5  6  1  0  0  0  0
  5 18  1  0  0  0  0
  6  7  1  0  0  0  0
  6 23  1  0  0  0  0
  6 24  1  0  0  0  0
  7  8  1  0  0  0  0
  7  9  1  0  0  0  0
  7 25  1  0  0  0  0
  8 26  1  0  0  0  0
  8 27  1  0  0  0  0
  8 28  1  0  0  0  0
  9 10  1  0  0  0  0
  9 29  1  0  0  0  0
  9 44  1  0  0  0  0
 10 11  1  0  0  0  0
 10 30  1  0  0  0  0
 10 31  1  0  0  0  0
 11 17  1  0  0  0  0
 11 12  1  0  0  0  0
 11 13  1  0  0  0  0
 12 32  1  0  0  0  0
 13 14  1  0  0  0  0
 13 33  1  0  0  0  0
 13 34  1  0  0  0  0
 14 15  1  0  0  0  0
 14 35  1  0  0  0  0
 14 36  1  0  0  0  0
 15 16  1  0  0  0  0
 15 37  1  0  0  0  0
 15 38  1  0  0  0  0
 16 17  1  0  0  0  0
 16 39  1  0  0  0  0
 16 40  1  0  0  0  0
 17 41  1  0  0  0  0
 17 42  1  0  0  0  0
 18 43  1  0  0  0  0
M  CHG  1   9   1
M  END
> <s_m_source_file>
AV-unprocessed.smi

> <i_m_source_file_index>
3240

> <i_lp_mmshare_version>
43012

> <i_f3d_flags>
0

> <s_epik_input>
W0NIM11jMVtjSF1ubihbY0hdMSlbQ0gyXVtDQEhdKFtDSDNdKVtOSF1bQ0gyXUMyKFtPSF0pW0NIMl1bQ0gyXVtDSDJdW0NIMl1bQ0gyXTI=

> <s_epik_cmdline>
J2VwaWtfcHl0aG9uJywgJy1waCcsICc3LjAnLCAnLXRuJywgJzgnLCAnLW1hJywgJzIwMCcsICctbWV0YWxfYmluZGluZycsICctaW1hZScsICc8aW5maWxlLm1hZT4nLCAnLW9tYWUnLCAnPG91dGZpbGUubWFlPic=

> <r_lp_tautomer_probability>
1

> <r_epik_Ionization_Penalty>
0.0111573

> <r_epik_Ionization_Penalty_Charging>
0.0111472

> <r_epik_Ionization_Penalty_Neutral>
1.01652e-05

> <r_epik_State_Penalty>
0.00856328

> <r_epik_Charging_Adjusted_Penalty>
0.0197104

> <i_epik_Tot_Q>
1

> <i_epik_Tot_abs_Q>
1

> <r_epik_Metal_State_Penalty>
0.00856448

> <b_epik_Metal_Only>
0

> <s_lp_Force_Field>
OPLS_2005

> <r_lp_Energy>
16.744

> <b_lp_Chiralities_Consistent>
1

> <s_lp_Variant>
AV-unprocessed.smi:3240-1

> <Gold.Version>
5.8.1

> <Gold.Id.Protein>
6NUR|6NUR_protein|mol2

> <Gold.PLP.Fitness>
46.5527

> <Gold.PLP.PLP>
-33.1033

> <Gold.PLP.part.hbond>
-3.0000

> <Gold.PLP.part.metal>
0.0000

> <Gold.PLP.part.buried>
0.3180

> <Gold.PLP.part.nonpolar>
-29.8610

> <Gold.PLP.part.repulsive>
0.0722

> <Gold.PLP.ligand.clash>
0.0000

> <Gold.PLP.ligand.torsion>
0.8026

> <Gold.PLP.Chemscore.Hbond>
4.0000

> <Gold.PLP.Chemscore.CHOScore>
1.0000

> <Gold.PLP.Chemscore.Metal>
0.0000

> <Gold.Chemscore.Hbonds>
donor molecule, donor type, donor heavy atom, donor atom, acceptor molecule, acceptor atom, score
      L1  H     9    29       P1  7957  1.00
      L1  H     9    44       P1  7948  2.00
      L1  H    12    32       P1  7948  0.99
      L1  C    18    43       P1  8028  1.00

> <Gold.PLP.Chemscore.Internal.Correction>
0.0545

> <Gold.Rescore>
     Score         DG    S(hbond)    S(metal)    S(lipo)     H(rot)  DE(clash)    DE(int)     intcor
     17.67     -20.22       2.96        0.00      88.00       2.12       0.32       2.23       ----

> <Gold.Chemscore.Fitness>
17.6683

> <Gold.Chemscore.DG>
-20.2212

> <Gold.Chemscore.ZeroCoef>
-5.4800

> <Gold.Chemscore.Hbond>
2.9552

> <Gold.Chemscore.Metal>
0.0000

> <Gold.Chemscore.Lipo>
88.0012

> <Gold.Chemscore.Internal_Hbond>
0.0000

> <Gold.Chemscore.DEClash>
0.3247

> <Gold.Chemscore.DEInternal>
2.2281

> <Gold.Chemscore.Rot>
2.1193

> <Gold.Chemscore.Internal.Correction>
   9.000000E+99

> <Gold.Chemscore.Hbonds>
donor molecule, donor type, donor heavy atom, donor atom, acceptor molecule, acceptor atom, score
      L1  H     9    29       P1  7957  0.98
      L1  H     9    44       P1  7948  1.00
      L1  H    12    32       P1  7948  0.94

> <Gold.Chemscore.Hbond.Weighted>
-9.8704

> <Gold.Chemscore.Metal.Weighted>
-0.0000

> <Gold.Chemscore.Lipo.Weighted>
-10.2961

> <Gold.Chemscore.Internal_Hbond.Weighted>
0.0000

> <Gold.Chemscore.DEClash.Weighted>
0.3247

> <Gold.Chemscore.DEInternal.Weighted>
2.2281

> <Gold.Chemscore.Rot.Weighted>
5.4254

> <Gold.Chemscore.Internal.Correction.Weighted>
   9.000000E+99

> <Gold.Protein.RotatedTorsions>
[ 6907 6896 6895 6894 ] final  -47.71 input  -60.11 | X-H torsion
[ 7974 7965 7964 7962 ] final  172.72 input  175.53 | X-H torsion
[ 8008 7997 7996 7995 ] final  164.15 input   59.86 | X-H torsion
[ 10167 10162 10161 10158 ] final   13.02 input  -65.29 | X-H torsion
[ 10718 10713 10712 10709 ] final   63.55 input   66.30 | X-H torsion
[ 10763 10752 10751 10750 ] final  166.34 input  -60.55 | X-H torsion
[ 11005 11000 10999 10996 ] final  -70.48 input  -57.11 | X-H torsion

> <Gold.Protein.ActiveResidues>
 VAL166  LYS551  ARG553  GLY616  TRP617  ASP618  TYR619  PRO620  LYS621  CYS622 
 ASP623  PHE694  ASN695  SER759  ASP760  ASP761  ALA762  ILE779  LEU786  VAL792 
 PHE793  MET794  SER795  GLU796  ALA797  LYS798  CYS799  TRP800  GLU811  SER814 

> <Gold.Protein.RotatedAtoms>
  150.8980  134.8390  159.7339 H   0  0  0  0  0  0  0  0  0  0  0  0  # atno 6907 bound_to 6896
  152.4876  134.4546  159.9595 H   0  0  0  0  0  0  0  0  0  0  0  0  # atno 6908 bound_to 6896
  151.4601  133.3556  159.2843 H   0  0  0  0  0  0  0  0  0  0  0  0  # atno 6909 bound_to 6896
  144.7261  139.9540  143.6433 H   0  0  0  0  0  0  0  0  0  0  0  0  # atno 7974 bound_to 7965
  156.1902  140.1704  156.8106 H   0  0  0  0  0  0  0  0  0  0  0  0  # atno 8008 bound_to 7997
  154.5462  140.0726  156.8625 H   0  0  0  0  0  0  0  0  0  0  0  0  # atno 8009 bound_to 7997
  155.3116  140.3368  155.4246 H   0  0  0  0  0  0  0  0  0  0  0  0  # atno 8010 bound_to 7997
  140.6030  143.8566  150.6984 H   0  0  0  0  0  0  0  0  0  0  0  0  # atno 10167 bound_to 10162
  157.5979  130.9111  149.9730 H   0  0  0  0  0  0  0  0  0  0  0  0  # atno 10718 bound_to 10713
  154.3375  135.2754  155.2440 H   0  0  0  0  0  0  0  0  0  0  0  0  # atno 10763 bound_to 10752
  154.4725  135.5879  153.6335 H   0  0  0  0  0  0  0  0  0  0  0  0  # atno 10764 bound_to 10752
  152.9860  135.6091  154.3573 H   0  0  0  0  0  0  0  0  0  0  0  0  # atno 10765 bound_to 10752
  141.1575  133.6791  156.6759 H   0  0  0  0  0  0  0  0  0  0  0  0  # atno 11005 bound_to 11000
  146.0689  139.3679  143.0535 LP  0  0  0  0  0  0  0  0  0  0  0  0  # atno 17320 bound_to 7965
  145.7994  140.9778  143.1007 LP  0  0  0  0  0  0  0  0  0  0  0  0  # atno 17321 bound_to 7965
  140.2116  143.3879  152.1713 LP  0  0  0  0  0  0  0  0  0  0  0  0  # atno 17342 bound_to 10162
  139.5304  144.7153  151.5075 LP  0  0  0  0  0  0  0  0  0  0  0  0  # atno 17343 bound_to 10162
  156.1045  130.3653  150.0158 LP  0  0  0  0  0  0  0  0  0  0  0  0  # atno 17370 bound_to 10713
  156.8268  130.9378  151.3639 LP  0  0  0  0  0  0  0  0  0  0  0  0  # atno 17371 bound_to 10713
  140.3139  134.8063  157.4198 LP  0  0  0  0  0  0  0  0  0  0  0  0  # atno 17394 bound_to 11000
  140.1155  134.5289  155.8229 LP  0  0  0  0  0  0  0  0  0  0  0  0  # atno 17395 bound_to 11000

$$$$
