AV-unprocessed.smi:1103|AV-procd|sdf|4774|dock9
  -GOLD-   22720 3313D 1   1.00000     0.00000
 Structure written by MMmdl.
 44 45  0  0  0  0  0  0  0  0  2 V2000
  146.2855  133.1463  150.8763 C   0  0  0  0  0  0  0  0  0  0  0  0
  146.4730  132.0205  151.9038 C   0  0  0  0  0  0  0  0  0  0  0  0
  147.7580  132.1225  152.6414 N   0  3  2  0  0  0  0  0  0  0  0  0
  148.0700  130.8778  153.3891 C   0  0  0  0  0  0  0  0  0  0  0  0
  149.4656  130.9517  154.0257 C   0  0  0  0  0  0  0  0  0  0  0  0
  149.5830  132.1752  154.9423 C   0  0  0  0  0  0  0  0  0  0  0  0
  149.2339  133.4615  154.1735 C   0  0  2  0  0  0  0  0  0  0  0  0
  149.3485  134.6941  155.0967 C   0  0  0  0  0  0  0  0  0  0  0  0
  149.9440  135.8374  154.4122 N   0  0  0  0  0  0  0  0  0  0  0  0
  150.9883  136.5534  154.8575 C   0  0  0  0  0  0  0  0  0  0  0  0
  151.6182  136.2781  155.8784 O   0  0  0  0  0  0  0  0  0  0  0  0
  151.3453  137.8024  154.0534 C   0  0  0  0  0  0  0  0  0  0  0  0
  150.3730  138.8520  154.2984 N   0  0  0  0  0  0  0  0  0  0  0  0
  149.0134  138.8283  154.0716 C   0  0  0  0  0  0  0  0  0  0  0  0
  148.5159  140.0496  154.4279 C   0  0  0  0  0  0  0  0  0  0  0  0
  147.0981  140.5380  154.3628 C   0  0  0  0  0  0  0  0  0  0  0  0
  149.6673  140.7600  154.8714 C   0  0  0  0  0  0  0  0  0  0  0  0
  150.7768  140.0447  154.7870 N   0  0  0  0  0  0  0  0  0  0  0  0
  147.8394  133.3220  153.5177 C   0  0  0  0  0  0  0  0  0  0  0  0
  145.3880  132.9761  150.2815 H   0  0  0  0  0  0  0  0  0  0  0  0
  147.1305  133.2021  150.1894 H   0  0  0  0  0  0  0  0  0  0  0  0
  146.1721  134.1187  151.3527 H   0  0  0  0  0  0  0  0  0  0  0  0
  145.6389  131.9993  152.6064 H   0  0  0  0  0  0  0  0  0  0  0  0
  146.4458  131.0726  151.3642 H   0  0  0  0  0  0  0  0  0  0  0  0
  147.3122  130.7135  154.1570 H   0  0  0  0  0  0  0  0  0  0  0  0
  148.0307  130.0209  152.7155 H   0  0  0  0  0  0  0  0  0  0  0  0
  149.6649  130.0419  154.5928 H   0  0  0  0  0  0  0  0  0  0  0  0
  150.2246  131.0022  153.2439 H   0  0  0  0  0  0  0  0  0  0  0  0
  148.9136  132.0581  155.7959 H   0  0  0  0  0  0  0  0  0  0  0  0
  150.5944  132.2376  155.3460 H   0  0  0  0  0  0  0  0  0  0  0  0
  149.9670  133.5799  153.3736 H   0  0  0  0  0  0  0  0  0  0  0  0
  148.3724  134.9494  155.5131 H   0  0  0  0  0  0  0  0  0  0  0  0
  149.9864  134.4562  155.9484 H   0  0  0  0  0  0  0  0  0  0  0  0
  149.4940  136.1431  153.5611 H   0  0  0  0  0  0  0  0  0  0  0  0
  152.3339  138.1621  154.3416 H   0  0  0  0  0  0  0  0  0  0  0  0
  151.3812  137.5778  152.9860 H   0  0  0  0  0  0  0  0  0  0  0  0
  148.5191  137.9545  153.6727 H   0  0  0  0  0  0  0  0  0  0  0  0
  147.0188  141.5904  154.6357 H   0  0  0  0  0  0  0  0  0  0  0  0
  146.4494  139.9800  155.0384 H   0  0  0  0  0  0  0  0  0  0  0  0
  146.6845  140.4348  153.3594 H   0  0  0  0  0  0  0  0  0  0  0  0
  149.7300  141.7718  155.2437 H   0  0  0  0  0  0  0  0  0  0  0  0
  147.6330  134.2091  152.9216 H   0  0  0  0  0  0  0  0  0  0  0  0
  147.0651  133.2692  154.2849 H   0  0  0  0  0  0  0  0  0  0  0  0
  148.4812  132.2200  151.9431 H   0  0  0  0  0  0  0  0  0  0  0  0
  1  2  1  0  0  0  0
  1 20  1  0  0  0  0
  1 21  1  0  0  0  0
  1 22  1  0  0  0  0
  2  3  1  0  0  0  0
  2 23  1  0  0  0  0
  2 24  1  0  0  0  0
  3 19  1  0  0  0  0
  3  4  1  0  0  0  0
  3 44  1  0  0  0  0
  4  5  1  0  0  0  0
  4 25  1  0  0  0  0
  4 26  1  0  0  0  0
  5  6  1  0  0  0  0
  5 27  1  0  0  0  0
  5 28  1  0  0  0  0
  6  7  1  0  0  0  0
  6 29  1  0  0  0  0
  6 30  1  0  0  0  0
  7  8  1  0  0  0  0
  7 19  1  0  0  0  0
  7 31  1  0  0  0  0
  8  9  1  0  0  0  0
  8 32  1  0  0  0  0
  8 33  1  0  0  0  0
  9 10  1  0  0  0  0
  9 34  1  0  0  0  0
 10 11  2  0  0  0  0
 10 12  1  0  0  0  0
 12 13  1  0  0  0  0
 12 35  1  0  0  0  0
 12 36  1  0  0  0  0
 13 18  1  0  0  0  0
 13 14  1  0  0  0  0
 14 15  2  0  0  0  0
 14 37  1  0  0  0  0
 15 16  1  0  0  0  0
 15 17  1  0  0  0  0
 16 38  1  0  0  0  0
 16 39  1  0  0  0  0
 16 40  1  0  0  0  0
 17 18  2  0  0  0  0
 17 41  1  0  0  0  0
 19 42  1  0  0  0  0
 19 43  1  0  0  0  0
M  CHG  1   3   1
M  END
> <s_m_source_file>
AV-unprocessed.smi

> <i_m_source_file_index>
1103

> <i_lp_mmshare_version>
43012

> <i_f3d_flags>
0

> <s_epik_input>
W0NIM11bQ0gyXU4xW0NIMl1bQ0gyXVtDSDJdW0NASF0oW0NIMl0xKVtDSDJdW05IXUMoPU8pW0NIMl1uMltjSF1jKFtDSDNdKVtjSF1uMg==

> <s_epik_cmdline>
J2VwaWtfcHl0aG9uJywgJy1waCcsICc3LjAnLCAnLXRuJywgJzgnLCAnLW1hJywgJzIwMCcsICctbWV0YWxfYmluZGluZycsICctaW1hZScsICc8aW5maWxlLm1hZT4nLCAnLW9tYWUnLCAnPG91dGZpbGUubWFlPic=

> <r_lp_tautomer_probability>
1

> <r_epik_Ionization_Penalty>
0.000672456

> <r_epik_Ionization_Penalty_Charging>
0.000647327

> <r_epik_Ionization_Penalty_Neutral>
2.51297e-05

> <r_epik_State_Penalty>
0.000409793

> <r_epik_Charging_Adjusted_Penalty>
0.00105712

> <i_epik_Tot_Q>
1

> <i_epik_Tot_abs_Q>
1

> <r_epik_Metal_State_Penalty>
-0

> <b_epik_Metal_Only>
0

> <s_lp_Force_Field>
OPLS_2005

> <r_lp_Energy>
16.1771

> <b_lp_Chiralities_Consistent>
1

> <s_lp_Variant>
AV-unprocessed.smi:1103-4

> <Gold.Version>
5.8.1

> <Gold.Id.Protein>
6NUR|6NUR_protein|mol2

> <Gold.PLP.Fitness>
47.9207

> <Gold.PLP.PLP>
-36.3456

> <Gold.PLP.part.hbond>
-4.5509

> <Gold.PLP.part.metal>
0.0000

> <Gold.PLP.part.buried>
-1.0721

> <Gold.PLP.part.nonpolar>
-31.2557

> <Gold.PLP.part.repulsive>
0.1523

> <Gold.PLP.ligand.clash>
0.0000

> <Gold.PLP.ligand.torsion>
0.8043

> <Gold.PLP.Chemscore.Hbond>
3.3838

> <Gold.PLP.Chemscore.CHOScore>
1.0000

> <Gold.PLP.Chemscore.Metal>
0.0000

> <Gold.Chemscore.Hbonds>
donor molecule, donor type, donor heavy atom, donor atom, acceptor molecule, acceptor atom, score
      L1  H     3    44       P1 10747  0.35
      L1  H     9    34       P1  7948  1.00
      P1  H  7989  7998       L1    18  1.00
      P1  H 10752 10765       L1    11  1.00
      L1  C    14    37       P1  7948  1.00

> <Gold.PLP.Chemscore.Internal.Correction>
0.0324

> <Gold.Rescore>
     Score         DG    S(hbond)    S(metal)    S(lipo)     H(rot)  DE(clash)    DE(int)     intcor
     18.61     -19.54       2.89        0.00      74.61       1.68       0.19       0.75       ----

> <Gold.Chemscore.Fitness>
18.6074

> <Gold.Chemscore.DG>
-19.5445

> <Gold.Chemscore.ZeroCoef>
-5.4800

> <Gold.Chemscore.Hbond>
2.8866

> <Gold.Chemscore.Metal>
0.0000

> <Gold.Chemscore.Lipo>
74.6148

> <Gold.Chemscore.Internal_Hbond>
0.0000

> <Gold.Chemscore.DEClash>
0.1871

> <Gold.Chemscore.DEInternal>
0.7499

> <Gold.Chemscore.Rot>
1.6823

> <Gold.Chemscore.Internal.Correction>
   9.000000E+99

> <Gold.Chemscore.Hbonds>
donor molecule, donor type, donor heavy atom, donor atom, acceptor molecule, acceptor atom, score
      L1  H     3    44       P1 10747  0.34
      L1  H     9    34       P1  7948  0.55
      P1  H  7989  7998       L1    18  0.21
      P1  H 10752 10765       L1    11  0.33

> <Gold.Chemscore.Hbond.Weighted>
-9.6411

> <Gold.Chemscore.Metal.Weighted>
-0.0000

> <Gold.Chemscore.Lipo.Weighted>
-8.7299

> <Gold.Chemscore.Internal_Hbond.Weighted>
0.0000

> <Gold.Chemscore.DEClash.Weighted>
0.1871

> <Gold.Chemscore.DEInternal.Weighted>
0.7499

> <Gold.Chemscore.Rot.Weighted>
4.3066

> <Gold.Chemscore.Internal.Correction.Weighted>
   9.000000E+99

> <Gold.Protein.RotatedTorsions>
[ 6907 6896 6895 6894 ] final   92.89 input  -60.11 | X-H torsion
[ 7974 7965 7964 7962 ] final -151.04 input  175.53 | X-H torsion
[ 8008 7997 7996 7995 ] final -167.91 input   59.86 | X-H torsion
[ 10167 10162 10161 10158 ] final   53.70 input  -65.29 | X-H torsion
[ 10718 10713 10712 10709 ] final   73.14 input   66.30 | X-H torsion
[ 10763 10752 10751 10750 ] final -141.24 input  -60.55 | X-H torsion
[ 11005 11000 10999 10996 ] final -165.09 input  -57.11 | X-H torsion

> <Gold.Protein.ActiveResidues>
 VAL166  LYS551  ARG553  GLY616  TRP617  ASP618  TYR619  PRO620  LYS621  CYS622 
 ASP623  PHE694  ASN695  SER759  ASP760  ASP761  ALA762  ILE779  LEU786  VAL792 
 PHE793  MET794  SER795  GLU796  ALA797  LYS798  CYS799  TRP800  GLU811  SER814 

> <Gold.Protein.RotatedAtoms>
  152.5453  134.1432  159.8487 H   0  0  0  0  0  0  0  0  0  0  0  0  # atno 6907 bound_to 6896
  151.1466  133.4928  159.2603 H   0  0  0  0  0  0  0  0  0  0  0  0  # atno 6908 bound_to 6896
  151.1516  135.0240  159.8725 H   0  0  0  0  0  0  0  0  0  0  0  0  # atno 6909 bound_to 6896
  144.7872  140.4851  143.5797 H   0  0  0  0  0  0  0  0  0  0  0  0  # atno 7974 bound_to 7965
  155.8842  140.1014  157.1464 H   0  0  0  0  0  0  0  0  0  0  0  0  # atno 8008 bound_to 7997
  154.4008  140.1323  156.4298 H   0  0  0  0  0  0  0  0  0  0  0  0  # atno 8009 bound_to 7997
  155.7608  140.3463  155.5199 H   0  0  0  0  0  0  0  0  0  0  0  0  # atno 8010 bound_to 7997
  140.2380  144.3615  150.6390 H   0  0  0  0  0  0  0  0  0  0  0  0  # atno 10167 bound_to 10162
  157.6534  130.9614  150.1028 H   0  0  0  0  0  0  0  0  0  0  0  0  # atno 10718 bound_to 10713
  154.8552  135.3530  154.5836 H   0  0  0  0  0  0  0  0  0  0  0  0  # atno 10763 bound_to 10752
  153.6447  135.6997  153.5234 H   0  0  0  0  0  0  0  0  0  0  0  0  # atno 10764 bound_to 10752
  153.2942  135.4225  155.1153 H   0  0  0  0  0  0  0  0  0  0  0  0  # atno 10765 bound_to 10752
  140.5796  134.5155  157.5176 H   0  0  0  0  0  0  0  0  0  0  0  0  # atno 11005 bound_to 11000
  145.5889  139.1494  143.3193 LP  0  0  0  0  0  0  0  0  0  0  0  0  # atno 17320 bound_to 7965
  146.2110  140.6016  142.9060 LP  0  0  0  0  0  0  0  0  0  0  0  0  # atno 17321 bound_to 7965
  140.6135  143.2171  151.6838 LP  0  0  0  0  0  0  0  0  0  0  0  0  # atno 17342 bound_to 10162
  139.5087  144.3602  152.0569 LP  0  0  0  0  0  0  0  0  0  0  0  0  # atno 17343 bound_to 10162
  156.1946  130.3656  149.8866 LP  0  0  0  0  0  0  0  0  0  0  0  0  # atno 17370 bound_to 10713
  156.6786  130.8849  151.3572 LP  0  0  0  0  0  0  0  0  0  0  0  0  # atno 17371 bound_to 10713
  139.9324  134.7939  156.0896 LP  0  0  0  0  0  0  0  0  0  0  0  0  # atno 17394 bound_to 11000
  141.1005  133.6679  156.2743 LP  0  0  0  0  0  0  0  0  0  0  0  0  # atno 17395 bound_to 11000

$$$$
