AV-unprocessed.smi:232|AV-procd|sdf|1775|dock2
  -GOLD-   2262020313D 1   1.00000     0.00000
 Structure written by MMmdl.
 52 55  0  0  0  0  0  0  0  0  1 V2000
  147.1212  134.9953  162.7231 C   0  0  0  0  0  0  0  0  0  0  0  0
  148.1404  135.6244  161.7637 C   0  0  0  0  0  0  0  0  0  0  0  0
  147.6800  135.6374  160.2942 C   0  0  2  0  0  0  0  0  0  0  0  0
  146.8841  134.3817  159.9024 C   0  0  0  0  0  0  0  0  0  0  0  0
  147.2567  134.1614  158.4407 C   0  0  0  0  0  0  0  0  0  0  0  0
  148.7258  134.5732  158.4380 C   0  0  1  0  0  0  0  0  0  0  0  0
  149.3307  134.7668  157.0323 C   0  0  0  0  0  0  0  0  0  0  0  0
  148.8059  135.7141  159.3551 N   0  0  0  0  0  0  0  0  0  0  0  0
  149.0922  136.9324  158.8359 C   0  0  0  0  0  0  0  0  0  0  0  0
  148.1723  137.5992  158.0893 N   0  0  0  0  0  0  0  0  0  0  0  0
  148.4746  138.7917  157.5664 C   0  0  0  0  0  0  0  0  0  0  0  0
  149.6143  139.4810  157.6606 N   0  0  0  0  0  0  0  0  0  0  0  0
  150.5393  138.8078  158.4033 C   0  0  0  0  0  0  0  0  0  0  0  0
  150.3621  137.5390  159.0205 C   0  0  0  0  0  0  0  0  0  0  0  0
  151.5205  137.1668  159.6907 N   0  0  0  0  0  0  0  0  0  0  0  0
  152.3394  138.1615  159.4805 C   0  0  0  0  0  0  0  0  0  0  0  0
  151.8317  139.1878  158.7156 N   0  0  0  0  0  0  0  0  0  0  0  0
  152.5162  140.4064  158.3227 C   0  0  0  0  0  0  0  0  0  0  0  0
  151.5387  141.5720  158.0730 C   0  0  2  0  0  0  0  0  0  0  0  0
  151.0372  141.4802  156.7526 O   0  0  0  0  0  0  0  0  0  0  0  0
  152.2052  142.9476  158.2591 C   0  0  1  0  0  0  0  0  0  0  0  0
  151.2462  144.1340  158.1295 C   0  0  0  0  0  0  0  0  0  0  0  0
  151.9411  145.1877  158.9598 C   0  0  0  0  0  0  0  0  0  0  0  0
  152.4807  144.3546  160.1166 C   0  0  0  0  0  0  0  0  0  0  0  0
  152.7500  143.0651  159.5731 O   0  0  0  0  0  0  0  0  0  0  0  0
  147.5230  134.9457  163.7353 H   0  0  0  0  0  0  0  0  0  0  0  0
  146.8657  133.9807  162.4163 H   0  0  0  0  0  0  0  0  0  0  0  0
  146.2001  135.5763  162.7651 H   0  0  0  0  0  0  0  0  0  0  0  0
  148.3741  136.6384  162.0903 H   0  0  0  0  0  0  0  0  0  0  0  0
  149.0704  135.0596  161.8356 H   0  0  0  0  0  0  0  0  0  0  0  0
  147.0155  136.4913  160.1587 H   0  0  0  0  0  0  0  0  0  0  0  0
  147.2117  133.5230  160.4907 H   0  0  0  0  0  0  0  0  0  0  0  0
  145.8107  134.4987  160.0530 H   0  0  0  0  0  0  0  0  0  0  0  0
  147.1018  133.1333  158.1121 H   0  0  0  0  0  0  0  0  0  0  0  0
  146.6713  134.8213  157.7985 H   0  0  0  0  0  0  0  0  0  0  0  0
  149.2953  133.7768  158.9196 H   0  0  0  0  0  0  0  0  0  0  0  0
  149.2626  133.8443  156.4555 H   0  0  0  0  0  0  0  0  0  0  0  0
  150.3852  135.0386  157.0870 H   0  0  0  0  0  0  0  0  0  0  0  0
  148.8095  135.5407  156.4679 H   0  0  0  0  0  0  0  0  0  0  0  0
  147.6926  139.2593  156.9865 H   0  0  0  0  0  0  0  0  0  0  0  0
  153.3446  138.1713  159.8760 H   0  0  0  0  0  0  0  0  0  0  0  0
  153.2222  140.6643  159.1129 H   0  0  0  0  0  0  0  0  0  0  0  0
  153.1091  140.2039  157.4296 H   0  0  0  0  0  0  0  0  0  0  0  0
  150.6958  141.4875  158.7602 H   0  0  0  0  0  0  0  0  0  0  0  0
  150.3374  140.8455  156.7412 H   0  0  0  0  0  0  0  0  0  0  0  0
  153.0261  143.0709  157.5507 H   0  0  0  0  0  0  0  0  0  0  0  0
  151.0866  144.4415  157.0957 H   0  0  0  0  0  0  0  0  0  0  0  0
  150.2760  143.8959  158.5682 H   0  0  0  0  0  0  0  0  0  0  0  0
  152.7637  145.6289  158.3954 H   0  0  0  0  0  0  0  0  0  0  0  0
  151.2765  145.9891  159.2838 H   0  0  0  0  0  0  0  0  0  0  0  0
  153.3713  144.7934  160.5669 H   0  0  0  0  0  0  0  0  0  0  0  0
  151.7240  144.2490  160.8949 H   0  0  0  0  0  0  0  0  0  0  0  0
  1  2  1  0  0  0  0
  1 26  1  0  0  0  0
  1 27  1  0  0  0  0
  1 28  1  0  0  0  0
  2  3  1  0  0  0  0
  2 29  1  0  0  0  0
  2 30  1  0  0  0  0
  3  8  1  0  0  0  0
  3  4  1  0  0  0  0
  3 31  1  0  0  0  0
  4  5  1  0  0  0  0
  4 32  1  0  0  0  0
  4 33  1  0  0  0  0
  5  6  1  0  0  0  0
  5 34  1  0  0  0  0
  5 35  1  0  0  0  0
  6  7  1  0  0  0  0
  6  8  1  0  0  0  0
  6 36  1  0  0  0  0
  7 37  1  0  0  0  0
  7 38  1  0  0  0  0
  7 39  1  0  0  0  0
  8  9  1  0  0  0  0
  9 14  1  0  0  0  0
  9 10  2  0  0  0  0
 10 11  1  0  0  0  0
 11 12  2  0  0  0  0
 11 40  1  0  0  0  0
 12 13  1  0  0  0  0
 13 17  1  0  0  0  0
 13 14  2  0  0  0  0
 14 15  1  0  0  0  0
 15 16  2  0  0  0  0
 16 17  1  0  0  0  0
 16 41  1  0  0  0  0
 17 18  1  0  0  0  0
 18 19  1  0  0  0  0
 18 42  1  0  0  0  0
 18 43  1  0  0  0  0
 19 20  1  0  0  0  0
 19 21  1  0  0  0  0
 19 44  1  0  0  0  0
 20 45  1  0  0  0  0
 21 25  1  0  0  0  0
 21 22  1  0  0  0  0
 21 46  1  0  0  0  0
 22 23  1  0  0  0  0
 22 47  1  0  0  0  0
 22 48  1  0  0  0  0
 23 24  1  0  0  0  0
 23 49  1  0  0  0  0
 23 50  1  0  0  0  0
 24 25  1  0  0  0  0
 24 51  1  0  0  0  0
 24 52  1  0  0  0  0
M  END
> <s_m_source_file>
AV-unprocessed.smi

> <i_m_source_file_index>
232

> <i_lp_mmshare_version>
43012

> <i_f3d_flags>
0

> <s_epik_input>
W0NIM11bQ0gyXVtDQEBIXTFbQ0gyXVtDSDJdW0NAQEhdKFtDSDNdKU4xYyhuW2NIXW4yKWMoYzIzKW5bY0hdbjNbQ0gyXVtDQEhdKFtPSF0pW0NAQEhdNFtDSDJdW0NIMl1bQ0gyXU80

> <s_epik_cmdline>
J2VwaWtfcHl0aG9uJywgJy1waCcsICc3LjAnLCAnLXRuJywgJzgnLCAnLW1hJywgJzIwMCcsICctbWV0YWxfYmluZGluZycsICctaW1hZScsICc8aW5maWxlLm1hZT4nLCAnLW9tYWUnLCAnPG91dGZpbGUubWFlPic=

> <r_lp_tautomer_probability>
1

> <r_epik_Ionization_Penalty>
0.00258048

> <r_epik_Ionization_Penalty_Charging>
0

> <r_epik_Ionization_Penalty_Neutral>
0.00258048

> <r_epik_State_Penalty>
0.00168551

> <r_epik_Charging_Adjusted_Penalty>
0.00168551

> <i_epik_Tot_Q>
0

> <i_epik_Tot_abs_Q>
0

> <r_epik_Metal_State_Penalty>
-0

> <b_epik_Metal_Only>
0

> <s_lp_Force_Field>
OPLS_2005

> <r_lp_Energy>
56.7631

> <b_lp_Chiralities_Consistent>
1

> <s_lp_Variant>
AV-unprocessed.smi:232-9

> <Gold.Version>
5.8.1

> <Gold.Id.Protein>
6NUR|6NUR_protein|mol2

> <Gold.PLP.Fitness>
40.7779

> <Gold.PLP.PLP>
-39.6320

> <Gold.PLP.part.hbond>
-1.1348

> <Gold.PLP.part.metal>
0.0000

> <Gold.PLP.part.buried>
-7.4546

> <Gold.PLP.part.nonpolar>
-30.4500

> <Gold.PLP.part.repulsive>
0.0000

> <Gold.PLP.ligand.clash>
0.0000

> <Gold.PLP.ligand.torsion>
1.0290

> <Gold.PLP.Chemscore.Hbond>
0.9913

> <Gold.PLP.Chemscore.CHOScore>
0.0000

> <Gold.PLP.Chemscore.Metal>
0.0000

> <Gold.Chemscore.Hbonds>
donor molecule, donor type, donor heavy atom, donor atom, acceptor molecule, acceptor atom, score
      P1  H  6896  6909       L1    15  1.00

> <Gold.PLP.Chemscore.Internal.Correction>
0.2302

> <Gold.Rescore>
     Score         DG    S(hbond)    S(metal)    S(lipo)     H(rot)  DE(clash)    DE(int)     intcor
     11.61     -13.90       0.94        0.00      98.05       2.43       0.11       2.17       ----

> <Gold.Chemscore.Fitness>
11.6116

> <Gold.Chemscore.DG>
-13.8958

> <Gold.Chemscore.ZeroCoef>
-5.4800

> <Gold.Chemscore.Hbond>
0.9446

> <Gold.Chemscore.Metal>
0.0000

> <Gold.Chemscore.Lipo>
98.0488

> <Gold.Chemscore.Internal_Hbond>
0.0000

> <Gold.Chemscore.DEClash>
0.1147

> <Gold.Chemscore.DEInternal>
2.1696

> <Gold.Chemscore.Rot>
2.4260

> <Gold.Chemscore.Internal.Correction>
   9.000000E+99

> <Gold.Chemscore.Hbonds>
donor molecule, donor type, donor heavy atom, donor atom, acceptor molecule, acceptor atom, score
      P1  H  6896  6909       L1    15  0.52

> <Gold.Chemscore.Hbond.Weighted>
-3.1548

> <Gold.Chemscore.Metal.Weighted>
-0.0000

> <Gold.Chemscore.Lipo.Weighted>
-11.4717

> <Gold.Chemscore.Internal_Hbond.Weighted>
0.0000

> <Gold.Chemscore.DEClash.Weighted>
0.1147

> <Gold.Chemscore.DEInternal.Weighted>
2.1696

> <Gold.Chemscore.Rot.Weighted>
6.2107

> <Gold.Chemscore.Internal.Correction.Weighted>
   9.000000E+99

> <Gold.Protein.RotatedTorsions>
[ 6907 6896 6895 6894 ] final  109.06 input  -60.11 | X-H torsion
[ 7974 7965 7964 7962 ] final -130.68 input  175.53 | X-H torsion
[ 8008 7997 7996 7995 ] final  176.81 input   59.86 | X-H torsion
[ 10167 10162 10161 10158 ] final -104.24 input  -65.29 | X-H torsion
[ 10718 10713 10712 10709 ] final  -55.92 input   66.30 | X-H torsion
[ 10763 10752 10751 10750 ] final   92.92 input  -60.55 | X-H torsion
[ 11005 11000 10999 10996 ] final  -71.79 input  -57.11 | X-H torsion

> <Gold.Protein.ActiveResidues>
 VAL166  LYS551  ARG553  GLY616  TRP617  ASP618  TYR619  PRO620  LYS621  CYS622 
 ASP623  PHE694  ASN695  SER759  ASP760  ASP761  ALA762  ILE779  LEU786  VAL792 
 PHE793  MET794  SER795  GLU796  ALA797  LYS798  CYS799  TRP800  GLU811  SER814 

> <Gold.Protein.RotatedAtoms>
  152.5084  133.8998  159.7435 H   0  0  0  0  0  0  0  0  0  0  0  0  # atno 6907 bound_to 6896
  150.9416  133.6641  159.2796 H   0  0  0  0  0  0  0  0  0  0  0  0  # atno 6908 bound_to 6896
  151.3950  135.0967  159.9591 H   0  0  0  0  0  0  0  0  0  0  0  0  # atno 6909 bound_to 6896
  144.9451  140.7282  143.4822 H   0  0  0  0  0  0  0  0  0  0  0  0  # atno 7974 bound_to 7965
  156.0725  140.1374  156.9811 H   0  0  0  0  0  0  0  0  0  0  0  0  # atno 8008 bound_to 7997
  154.4539  140.0969  156.6752 H   0  0  0  0  0  0  0  0  0  0  0  0  # atno 8009 bound_to 7997
  155.5205  140.3456  155.4408 H   0  0  0  0  0  0  0  0  0  0  0  0  # atno 8010 bound_to 7997
  140.2114  143.3744  152.1047 H   0  0  0  0  0  0  0  0  0  0  0  0  # atno 10167 bound_to 10162
  156.1330  130.4158  150.0235 H   0  0  0  0  0  0  0  0  0  0  0  0  # atno 10718 bound_to 10713
  153.2245  135.4344  155.0526 H   0  0  0  0  0  0  0  0  0  0  0  0  # atno 10763 bound_to 10752
  154.8266  135.3364  154.6878 H   0  0  0  0  0  0  0  0  0  0  0  0  # atno 10764 bound_to 10752
  153.7308  135.7011  153.5046 H   0  0  0  0  0  0  0  0  0  0  0  0  # atno 10765 bound_to 10752
  141.1598  133.6828  156.6960 H   0  0  0  0  0  0  0  0  0  0  0  0  # atno 11005 bound_to 11000
  145.2930  139.1877  143.4730 LP  0  0  0  0  0  0  0  0  0  0  0  0  # atno 17320 bound_to 7965
  146.3300  140.2910  142.8615 LP  0  0  0  0  0  0  0  0  0  0  0  0  # atno 17321 bound_to 7965
  139.5178  144.6998  151.5527 LP  0  0  0  0  0  0  0  0  0  0  0  0  # atno 17342 bound_to 10162
  140.6321  143.9056  150.6614 LP  0  0  0  0  0  0  0  0  0  0  0  0  # atno 17343 bound_to 10162
  156.8142  130.9336  151.3643 LP  0  0  0  0  0  0  0  0  0  0  0  0  # atno 17370 bound_to 10713
  157.6506  130.8881  149.9625 LP  0  0  0  0  0  0  0  0  0  0  0  0  # atno 17371 bound_to 10713
  140.2994  134.8176  157.4085 LP  0  0  0  0  0  0  0  0  0  0  0  0  # atno 17394 bound_to 11000
  140.1275  134.5139  155.8132 LP  0  0  0  0  0  0  0  0  0  0  0  0  # atno 17395 bound_to 11000

$$$$
