AV-unprocessed.smi:1534|AV-procd|sdf|6166|dock1
  -GOLD-   22720 6313D 1   1.00000     0.00000
 Structure written by MMmdl.
 36 37  0  0  0  0  0  0  0  0  1 V2000
  146.4332  138.1931  154.6836 O   0  0  0  0  0  0  0  0  0  0  0  0
  147.1804  137.6986  153.8419 C   0  0  0  0  0  0  0  0  0  0  0  0
  146.7413  137.0024  152.7807 N   0  0  0  0  0  0  0  0  0  0  0  0
  145.3480  136.6579  152.5180 C   0  0  0  0  0  0  0  0  0  0  0  0
  145.1339  136.0797  151.1040 C   0  0  0  0  0  0  0  0  0  0  0  0
  145.2226  134.5631  151.0470 C   0  0  0  0  0  0  0  0  0  0  0  0
  144.0986  133.7876  150.6884 C   0  0  0  0  0  0  0  0  0  0  0  0
  144.2284  132.3856  150.6699 C   0  0  0  0  0  0  0  0  0  0  0  0
  145.4705  131.8156  151.0086 C   0  0  0  0  0  0  0  0  0  0  0  0
  146.5327  132.6767  151.3491 C   0  0  0  0  0  0  0  0  0  0  0  0
  146.4187  134.0224  151.3703 N   0  0  0  0  0  0  0  0  0  0  0  0
  148.5181  137.8105  153.9250 N   0  0  0  0  0  0  0  0  0  0  0  0
  149.3051  138.4988  154.9499 C   0  0  2  0  0  0  0  0  0  0  0  0
  149.2964  140.0322  154.7667 C   0  0  0  0  0  0  0  0  0  0  0  0
  150.4275  140.6385  155.6047 C   0  0  0  0  0  0  0  0  0  0  0  0
  151.7524  139.3742  155.6631 S   0  0  0  0  0  0  0  0  0  0  0  0
  152.8354  139.7514  154.7425 O   0  0  0  0  0  0  0  0  0  0  0  0
  152.0335  139.0436  157.0682 O   0  0  0  0  0  0  0  0  0  0  0  0
  150.7658  138.0288  154.9055 C   0  0  0  0  0  0  0  0  0  0  0  0
  147.4266  136.6427  152.1328 H   0  0  0  0  0  0  0  0  0  0  0  0
  144.9758  135.9663  153.2752 H   0  0  0  0  0  0  0  0  0  0  0  0
  144.7659  137.5735  152.6248 H   0  0  0  0  0  0  0  0  0  0  0  0
  144.1581  136.3893  150.7278 H   0  0  0  0  0  0  0  0  0  0  0  0
  145.8668  136.5057  150.4177 H   0  0  0  0  0  0  0  0  0  0  0  0
  143.1562  134.2544  150.4414 H   0  0  0  0  0  0  0  0  0  0  0  0
  143.3897  131.7591  150.4047 H   0  0  0  0  0  0  0  0  0  0  0  0
  145.6068  130.7443  151.0059 H   0  0  0  0  0  0  0  0  0  0  0  0
  147.4992  132.2741  151.6136 H   0  0  0  0  0  0  0  0  0  0  0  0
  149.0474  137.3990  153.1701 H   0  0  0  0  0  0  0  0  0  0  0  0
  148.9120  138.2624  155.9404 H   0  0  0  0  0  0  0  0  0  0  0  0
  149.4739  140.2693  153.7167 H   0  0  0  0  0  0  0  0  0  0  0  0
  148.3350  140.4720  155.0322 H   0  0  0  0  0  0  0  0  0  0  0  0
  150.8115  141.5707  155.1903 H   0  0  0  0  0  0  0  0  0  0  0  0
  150.0947  140.8231  156.6265 H   0  0  0  0  0  0  0  0  0  0  0  0
  150.9300  137.0941  155.4422 H   0  0  0  0  0  0  0  0  0  0  0  0
  151.1120  137.9052  153.8787 H   0  0  0  0  0  0  0  0  0  0  0  0
  1  2  2  0  0  0  0
  2  3  1  0  0  0  0
  2 12  1  0  0  0  0
  3  4  1  0  0  0  0
  3 20  1  0  0  0  0
  4  5  1  0  0  0  0
  4 21  1  0  0  0  0
  4 22  1  0  0  0  0
  5  6  1  0  0  0  0
  5 23  1  0  0  0  0
  5 24  1  0  0  0  0
  6 11  1  0  0  0  0
  6  7  2  0  0  0  0
  7  8  1  0  0  0  0
  7 25  1  0  0  0  0
  8  9  2  0  0  0  0
  8 26  1  0  0  0  0
  9 10  1  0  0  0  0
  9 27  1  0  0  0  0
 10 11  2  0  0  0  0
 10 28  1  0  0  0  0
 12 13  1  0  0  0  0
 12 29  1  0  0  0  0
 13 19  1  0  0  0  0
 13 14  1  0  0  0  0
 13 30  1  0  0  0  0
 14 15  1  0  0  0  0
 14 31  1  0  0  0  0
 14 32  1  0  0  0  0
 15 16  1  0  0  0  0
 15 33  1  0  0  0  0
 15 34  1  0  0  0  0
 16 17  2  0  0  0  0
 16 18  2  0  0  0  0
 16 19  1  0  0  0  0
 19 35  1  0  0  0  0
 19 36  1  0  0  0  0
M  END
> <s_m_source_file>
AV-unprocessed.smi

> <i_m_source_file_index>
1534

> <i_lp_mmshare_version>
43012

> <i_f3d_flags>
0

> <s_epik_input>
Tz1TMSg9TylbQ0gyXVtDSDJdW0NASF0oW0NIMl0xKVtOSF1DKD1PKVtOSF1bQ0gyXVtDSDJdYzJbY0hdW2NIXVtjSF1bY0hdbjI=

> <s_epik_cmdline>
J2VwaWtfcHl0aG9uJywgJy1waCcsICc3LjAnLCAnLXRuJywgJzgnLCAnLW1hJywgJzIwMCcsICctbWV0YWxfYmluZGluZycsICctaW1hZScsICc8aW5maWxlLm1hZT4nLCAnLW9tYWUnLCAnPG91dGZpbGUubWFlPic=

> <r_epik_Ionization_Penalty>
0.0423605

> <r_epik_Ionization_Penalty_Charging>
0

> <r_epik_Ionization_Penalty_Neutral>
0.0423605

> <r_epik_State_Penalty>
0.0357408

> <r_epik_Charging_Adjusted_Penalty>
0.0357408

> <i_epik_Tot_Q>
0

> <i_epik_Tot_abs_Q>
0

> <r_epik_Metal_State_Penalty>
0.033344

> <b_epik_Metal_Only>
0

> <s_lp_Force_Field>
OPLS_2005

> <r_lp_Energy>
11.0291

> <b_lp_Chiralities_Consistent>
1

> <s_lp_Variant>
AV-unprocessed.smi:1534-1

> <Gold.Version>
5.8.1

> <Gold.Id.Protein>
6NUR|6NUR_protein|mol2

> <Gold.PLP.Fitness>
43.2915

> <Gold.PLP.PLP>
-31.5972

> <Gold.PLP.part.hbond>
-3.9129

> <Gold.PLP.part.metal>
0.0000

> <Gold.PLP.part.buried>
-2.9939

> <Gold.PLP.part.nonpolar>
-25.8432

> <Gold.PLP.part.repulsive>
0.3416

> <Gold.PLP.ligand.clash>
0.0000

> <Gold.PLP.ligand.torsion>
0.5013

> <Gold.PLP.Chemscore.Hbond>
3.2465

> <Gold.PLP.Chemscore.CHOScore>
0.9724

> <Gold.PLP.Chemscore.Metal>
0.0000

> <Gold.Chemscore.Hbonds>
donor molecule, donor type, donor heavy atom, donor atom, acceptor molecule, acceptor atom, score
      L1  H     3    20       P1  7948  0.99
      L1  H    12    29       P1  7948  0.90
      P1  H  7989  7998       L1    17  0.37
      P1  H  7997  8010       L1    17  1.00
      L1  C    10    28       P1 10747  0.98

> <Gold.PLP.Chemscore.Internal.Correction>
0.0405

> <Gold.Rescore>
     Score         DG    S(hbond)    S(metal)    S(lipo)     H(rot)  DE(clash)    DE(int)     intcor
     18.64     -19.09       3.07        0.00      66.64       1.73       0.01       0.45       ----

> <Gold.Chemscore.Fitness>
18.6364

> <Gold.Chemscore.DG>
-19.0910

> <Gold.Chemscore.ZeroCoef>
-5.4800

> <Gold.Chemscore.Hbond>
3.0703

> <Gold.Chemscore.Metal>
0.0000

> <Gold.Chemscore.Lipo>
66.6434

> <Gold.Chemscore.Internal_Hbond>
0.0000

> <Gold.Chemscore.DEClash>
0.0063

> <Gold.Chemscore.DEInternal>
0.4483

> <Gold.Chemscore.Rot>
1.7348

> <Gold.Chemscore.Internal.Correction>
   9.000000E+99

> <Gold.Chemscore.Hbonds>
donor molecule, donor type, donor heavy atom, donor atom, acceptor molecule, acceptor atom, score
      L1  H     3    20       P1  7948  0.91
      L1  H    12    29       P1  7948  0.88
      P1  H  7989  7998       L1    17  0.06
      P1  H  7997  8010       L1    17  0.61

> <Gold.Chemscore.Hbond.Weighted>
-10.2547

> <Gold.Chemscore.Metal.Weighted>
-0.0000

> <Gold.Chemscore.Lipo.Weighted>
-7.7973

> <Gold.Chemscore.Internal_Hbond.Weighted>
0.0000

> <Gold.Chemscore.DEClash.Weighted>
0.0063

> <Gold.Chemscore.DEInternal.Weighted>
0.4483

> <Gold.Chemscore.Rot.Weighted>
4.4410

> <Gold.Chemscore.Internal.Correction.Weighted>
   9.000000E+99

> <Gold.Protein.RotatedTorsions>
[ 6907 6896 6895 6894 ] final  -20.76 input  -60.11 | X-H torsion
[ 7974 7965 7964 7962 ] final   72.95 input  175.53 | X-H torsion
[ 8008 7997 7996 7995 ] final  106.21 input   59.86 | X-H torsion
[ 10167 10162 10161 10158 ] final  115.34 input  -65.29 | X-H torsion
[ 10718 10713 10712 10709 ] final  -54.23 input   66.30 | X-H torsion
[ 10763 10752 10751 10750 ] final   88.72 input  -60.55 | X-H torsion
[ 11005 11000 10999 10996 ] final -165.40 input  -57.11 | X-H torsion

> <Gold.Protein.ActiveResidues>
 VAL166  LYS551  ARG553  GLY616  TRP617  ASP618  TYR619  PRO620  LYS621  CYS622 
 ASP623  PHE694  ASN695  SER759  ASP760  ASP761  ALA762  ILE779  LEU786  VAL792 
 PHE793  MET794  SER795  GLU796  ALA797  LYS798  CYS799  TRP800  GLU811  SER814 

> <Gold.Protein.RotatedAtoms>
  151.2433  135.0597  159.9033 H   0  0  0  0  0  0  0  0  0  0  0  0  # atno 6907 bound_to 6896
  152.5390  134.0410  159.8078 H   0  0  0  0  0  0  0  0  0  0  0  0  # atno 6908 bound_to 6896
  151.0607  133.5497  159.2666 H   0  0  0  0  0  0  0  0  0  0  0  0  # atno 6909 bound_to 6896
  145.7470  139.2744  143.1453 H   0  0  0  0  0  0  0  0  0  0  0  0  # atno 7974 bound_to 7965
  156.1724  140.3117  155.8997 H   0  0  0  0  0  0  0  0  0  0  0  0  # atno 8008 bound_to 7997
  155.3559  140.0473  157.3063 H   0  0  0  0  0  0  0  0  0  0  0  0  # atno 8009 bound_to 7997
  154.5254  140.2212  155.8909 H   0  0  0  0  0  0  0  0  0  0  0  0  # atno 8010 bound_to 7997
  139.6324  144.7116  151.2405 H   0  0  0  0  0  0  0  0  0  0  0  0  # atno 10167 bound_to 10162
  156.1468  130.4152  150.0011 H   0  0  0  0  0  0  0  0  0  0  0  0  # atno 10718 bound_to 10713
  153.1797  135.4496  155.0012 H   0  0  0  0  0  0  0  0  0  0  0  0  # atno 10763 bound_to 10752
  154.8022  135.3260  154.7524 H   0  0  0  0  0  0  0  0  0  0  0  0  # atno 10764 bound_to 10752
  153.7990  135.6964  153.4914 H   0  0  0  0  0  0  0  0  0  0  0  0  # atno 10765 bound_to 10752
  140.5761  134.5189  157.5170 H   0  0  0  0  0  0  0  0  0  0  0  0  # atno 11005 bound_to 11000
  146.0393  140.8180  142.9836 LP  0  0  0  0  0  0  0  0  0  0  0  0  # atno 17320 bound_to 7965
  144.6858  140.2886  143.7281 LP  0  0  0  0  0  0  0  0  0  0  0  0  # atno 17321 bound_to 7965
  140.7446  143.6457  150.8294 LP  0  0  0  0  0  0  0  0  0  0  0  0  # atno 17342 bound_to 10162
  140.0084  143.5669  152.2849 LP  0  0  0  0  0  0  0  0  0  0  0  0  # atno 17343 bound_to 10162
  156.7880  130.9245  151.3646 LP  0  0  0  0  0  0  0  0  0  0  0  0  # atno 17370 bound_to 10713
  157.6623  130.8977  149.9857 LP  0  0  0  0  0  0  0  0  0  0  0  0  # atno 17371 bound_to 10713
  139.9339  134.7912  156.0856 LP  0  0  0  0  0  0  0  0  0  0  0  0  # atno 17394 bound_to 11000
  141.1026  133.6672  156.2789 LP  0  0  0  0  0  0  0  0  0  0  0  0  # atno 17395 bound_to 11000

$$$$
