AV-unprocessed.smi:1254|AV-procd|sdf|5275|dock7
  -GOLD-   22720 4393D 1   1.00000     0.00000
 Structure written by MMmdl.
 45 46  0  0  0  0  0  0  0  0  3 V2000
  152.1460  144.3136  160.4159 C   0  0  0  0  0  0  0  0  0  0  0  0
  152.0386  143.1896  159.4430 C   0  0  0  0  0  0  0  0  0  0  0  0
  152.7963  142.0738  159.2263 C   0  0  0  0  0  0  0  0  0  0  0  0
  152.1312  141.4347  158.1444 C   0  0  0  0  0  0  0  0  0  0  0  0
  152.4928  140.2767  157.5705 N   0  5  0  0  0  0  0  0  0  0  0  0
  152.1823  140.0303  156.2776 C   0  0  0  0  0  0  0  0  0  0  0  0
  151.4824  140.7342  155.5455 O   0  0  0  0  0  0  0  0  0  0  0  0
  152.7235  138.9011  155.7993 N   0  0  0  0  0  0  0  0  0  0  0  0
  152.5845  138.4003  154.4363 C   0  0  0  0  0  0  0  0  0  0  0  0
  151.3489  137.4955  154.2867 C   0  0  2  0  0  0  0  0  0  0  0  0
  150.0337  138.2859  154.4198 C   0  0  0  0  0  0  0  0  0  0  0  0
  148.8694  137.3716  154.3158 N   0  3  2  0  0  0  0  0  0  0  0  0
  147.5559  138.0627  154.3788 C   0  0  0  0  0  0  0  0  0  0  0  0
  147.4016  139.1823  153.3261 C   0  0  0  0  0  0  0  0  0  0  0  0
  146.6917  140.4001  153.9361 C   0  0  0  0  0  0  0  0  0  0  0  0
  146.6523  138.6968  152.0739 C   0  0  0  0  0  0  0  0  0  0  0  0
  148.9803  136.2801  155.3127 C   0  0  0  0  0  0  0  0  0  0  0  0
  150.3317  135.5596  155.1759 C   0  0  0  0  0  0  0  0  0  0  0  0
  151.3861  136.5035  155.3079 O   0  0  0  0  0  0  0  0  0  0  0  0
  151.0556  142.0959  157.7503 N   0  0  0  0  0  0  0  0  0  0  0  0
  150.9924  143.2257  158.5746 O   0  0  0  0  0  0  0  0  0  0  0  0
  151.6921  144.0415  161.3688 H   0  0  0  0  0  0  0  0  0  0  0  0
  151.6413  145.2048  160.0422 H   0  0  0  0  0  0  0  0  0  0  0  0
  153.1900  144.5692  160.5984 H   0  0  0  0  0  0  0  0  0  0  0  0
  153.6856  141.7645  159.7543 H   0  0  0  0  0  0  0  0  0  0  0  0
  153.2870  138.3531  156.4330 H   0  0  0  0  0  0  0  0  0  0  0  0
  152.5102  139.2535  153.7618 H   0  0  0  0  0  0  0  0  0  0  0  0
  153.4898  137.8602  154.1543 H   0  0  0  0  0  0  0  0  0  0  0  0
  151.3732  137.0105  153.3090 H   0  0  0  0  0  0  0  0  0  0  0  0
  150.0040  138.8119  155.3755 H   0  0  0  0  0  0  0  0  0  0  0  0
  149.9930  139.0420  153.6370 H   0  0  0  0  0  0  0  0  0  0  0  0
  146.7596  137.3337  154.2203 H   0  0  0  0  0  0  0  0  0  0  0  0
  147.4087  138.4589  155.3848 H   0  0  0  0  0  0  0  0  0  0  0  0
  148.3893  139.5217  153.0156 H   0  0  0  0  0  0  0  0  0  0  0  0
  145.6841  140.1475  154.2681 H   0  0  0  0  0  0  0  0  0  0  0  0
  146.6093  141.2112  153.2119 H   0  0  0  0  0  0  0  0  0  0  0  0
  147.2391  140.7850  154.7971 H   0  0  0  0  0  0  0  0  0  0  0  0
  145.6510  138.3434  152.3223 H   0  0  0  0  0  0  0  0  0  0  0  0
  147.1817  137.8804  151.5818 H   0  0  0  0  0  0  0  0  0  0  0  0
  146.5484  139.4998  151.3434 H   0  0  0  0  0  0  0  0  0  0  0  0
  148.8771  136.6917  156.3180 H   0  0  0  0  0  0  0  0  0  0  0  0
  148.1692  135.5646  155.1733 H   0  0  0  0  0  0  0  0  0  0  0  0
  150.4352  134.8037  155.9544 H   0  0  0  0  0  0  0  0  0  0  0  0
  150.4051  135.0424  154.2179 H   0  0  0  0  0  0  0  0  0  0  0  0
  148.9208  136.9312  153.4081 H   0  0  0  0  0  0  0  0  0  0  0  0
  1  2  1  0  0  0  0
  1 22  1  0  0  0  0
  1 23  1  0  0  0  0
  1 24  1  0  0  0  0
  2 21  1  0  0  0  0
  2  3  2  0  0  0  0
  3  4  1  0  0  0  0
  3 25  1  0  0  0  0
  4  5  1  0  0  0  0
  4 20  2  0  0  0  0
  5  6  1  0  0  0  0
  6  7  2  0  0  0  0
  6  8  1  0  0  0  0
  8  9  1  0  0  0  0
  8 26  1  0  0  0  0
  9 10  1  0  0  0  0
  9 27  1  0  0  0  0
  9 28  1  0  0  0  0
 10 19  1  0  0  0  0
 10 11  1  0  0  0  0
 10 29  1  0  0  0  0
 11 12  1  0  0  0  0
 11 30  1  0  0  0  0
 11 31  1  0  0  0  0
 12 13  1  0  0  0  0
 12 17  1  0  0  0  0
 12 45  1  0  0  0  0
 13 14  1  0  0  0  0
 13 32  1  0  0  0  0
 13 33  1  0  0  0  0
 14 15  1  0  0  0  0
 14 16  1  0  0  0  0
 14 34  1  0  0  0  0
 15 35  1  0  0  0  0
 15 36  1  0  0  0  0
 15 37  1  0  0  0  0
 16 38  1  0  0  0  0
 16 39  1  0  0  0  0
 16 40  1  0  0  0  0
 17 18  1  0  0  0  0
 17 41  1  0  0  0  0
 17 42  1  0  0  0  0
 18 19  1  0  0  0  0
 18 43  1  0  0  0  0
 18 44  1  0  0  0  0
 20 21  1  0  0  0  0
M  CHG  1   5  -1
M  CHG  1  12   1
M  END
> <s_m_source_file>
AV-unprocessed.smi

> <i_m_source_file_index>
1254

> <i_lp_mmshare_version>
43012

> <i_f3d_flags>
0

> <s_epik_input>
W0NIM11jMVtjSF1jKG5vMSlbTkhdQyg9TylbTkhdW0NIMl1bQ0BASF0yW0NIMl1OKFtDSDJdW0NIMl1PMilbQ0gyXVtDSF0oW0NIM10pW0NIM10=

> <s_epik_cmdline>
J2VwaWtfcHl0aG9uJywgJy1waCcsICc3LjAnLCAnLXRuJywgJzgnLCAnLW1hJywgJzIwMCcsICctbWV0YWxfYmluZGluZycsICctaW1hZScsICc8aW5maWxlLm1hZT4nLCAnLW9tYWUnLCAnPG91dGZpbGUubWFlPic=

> <r_epik_Ionization_Penalty>
6.33139

> <r_epik_Ionization_Penalty_Charging>
6.33128

> <r_epik_Ionization_Penalty_Neutral>
0.000104968

> <r_epik_State_Penalty>
6.32522

> <r_epik_Charging_Adjusted_Penalty>
12.6565

> <i_epik_Tot_Q>
0

> <i_epik_Tot_abs_Q>
2

> <r_epik_Metal_State_Penalty>
2.26285

> <b_epik_Metal_Only>
1

> <s_lp_Force_Field>
OPLS_2005

> <r_lp_Energy>
5.65212

> <b_lp_Chiralities_Consistent>
1

> <s_lp_Variant>
AV-unprocessed.smi:1254-7

> <Gold.Version>
5.8.1

> <Gold.Id.Protein>
6NUR|6NUR_protein|mol2

> <Gold.PLP.Fitness>
47.1993

> <Gold.PLP.PLP>
-36.2756

> <Gold.PLP.part.hbond>
-4.0000

> <Gold.PLP.part.metal>
0.0000

> <Gold.PLP.part.buried>
-3.2400

> <Gold.PLP.part.nonpolar>
-29.4804

> <Gold.PLP.part.repulsive>
0.8636

> <Gold.PLP.ligand.clash>
0.0000

> <Gold.PLP.ligand.torsion>
0.9450

> <Gold.PLP.Chemscore.Hbond>
4.1934

> <Gold.PLP.Chemscore.CHOScore>
0.0000

> <Gold.PLP.Chemscore.Metal>
0.0000

> <Gold.Chemscore.Hbonds>
donor molecule, donor type, donor heavy atom, donor atom, acceptor molecule, acceptor atom, score
      L1  H    12    45       P1  7948  2.00
      P1  H  7989  7998       L1     7  0.70
      P1  H  7997  8009       L1     5  0.36
      P1  H 10752 10763       L1    19  0.80

> <Gold.PLP.Chemscore.Internal.Correction>
0.2335

> <Gold.Rescore>
     Score         DG    S(hbond)    S(metal)    S(lipo)     H(rot)  DE(clash)    DE(int)     intcor
     15.16     -17.94       1.87        0.00      90.17       1.69       0.25       2.53       ----

> <Gold.Chemscore.Fitness>
15.1553

> <Gold.Chemscore.DG>
-17.9360

> <Gold.Chemscore.ZeroCoef>
-5.4800

> <Gold.Chemscore.Hbond>
1.8678

> <Gold.Chemscore.Metal>
0.0000

> <Gold.Chemscore.Lipo>
90.1750

> <Gold.Chemscore.Internal_Hbond>
0.0000

> <Gold.Chemscore.DEClash>
0.2461

> <Gold.Chemscore.DEInternal>
2.5346

> <Gold.Chemscore.Rot>
1.6926

> <Gold.Chemscore.Internal.Correction>
   9.000000E+99

> <Gold.Chemscore.Hbonds>
donor molecule, donor type, donor heavy atom, donor atom, acceptor molecule, acceptor atom, score
      L1  H    12    45       P1  7948  1.00
      P1  H  7989  7998       L1     7  0.65
      P1  H 10752 10763       L1    19  0.05

> <Gold.Chemscore.Hbond.Weighted>
-6.2386

> <Gold.Chemscore.Metal.Weighted>
-0.0000

> <Gold.Chemscore.Lipo.Weighted>
-10.5505

> <Gold.Chemscore.Internal_Hbond.Weighted>
0.0000

> <Gold.Chemscore.DEClash.Weighted>
0.2461

> <Gold.Chemscore.DEInternal.Weighted>
2.5346

> <Gold.Chemscore.Rot.Weighted>
4.3330

> <Gold.Chemscore.Internal.Correction.Weighted>
   9.000000E+99

> <Gold.Protein.RotatedTorsions>
[ 6907 6896 6895 6894 ] final  172.32 input  -60.11 | X-H torsion
[ 7974 7965 7964 7962 ] final -129.64 input  175.53 | X-H torsion
[ 8008 7997 7996 7995 ] final  154.36 input   59.86 | X-H torsion
[ 10167 10162 10161 10158 ] final  -77.06 input  -65.29 | X-H torsion
[ 10718 10713 10712 10709 ] final  -95.42 input   66.30 | X-H torsion
[ 10763 10752 10751 10750 ] final   63.06 input  -60.55 | X-H torsion
[ 11005 11000 10999 10996 ] final  -67.55 input  -57.11 | X-H torsion

> <Gold.Protein.ActiveResidues>
 VAL166  LYS551  ARG553  GLY616  TRP617  ASP618  TYR619  PRO620  LYS621  CYS622 
 ASP623  PHE694  ASN695  SER759  ASP760  ASP761  ALA762  ILE779  LEU786  VAL792 
 PHE793  MET794  SER795  GLU796  ALA797  LYS798  CYS799  TRP800  GLU811  SER814 

> <Gold.Protein.RotatedAtoms>
  151.7861  133.3354  159.3485 H   0  0  0  0  0  0  0  0  0  0  0  0  # atno 6907 bound_to 6896
  150.7408  134.5886  159.5985 H   0  0  0  0  0  0  0  0  0  0  0  0  # atno 6908 bound_to 6896
  152.3242  134.7343  160.0357 H   0  0  0  0  0  0  0  0  0  0  0  0  # atno 6909 bound_to 6896
  144.9553  140.7388  143.4763 H   0  0  0  0  0  0  0  0  0  0  0  0  # atno 7974 bound_to 7965
  156.2535  140.1968  156.6634 H   0  0  0  0  0  0  0  0  0  0  0  0  # atno 8008 bound_to 7997
  154.6447  140.0579  156.9912 H   0  0  0  0  0  0  0  0  0  0  0  0  # atno 8009 bound_to 7997
  155.1509  140.3251  155.4434 H   0  0  0  0  0  0  0  0  0  0  0  0  # atno 8010 bound_to 7997
  140.4803  143.2404  151.8068 H   0  0  0  0  0  0  0  0  0  0  0  0  # atno 10167 bound_to 10162
  156.0043  130.5108  150.6074 H   0  0  0  0  0  0  0  0  0  0  0  0  # atno 10718 bound_to 10713
  153.0004  135.5443  154.6291 H   0  0  0  0  0  0  0  0  0  0  0  0  # atno 10763 bound_to 10752
  154.5573  135.2831  155.0955 H   0  0  0  0  0  0  0  0  0  0  0  0  # atno 10764 bound_to 10752
  154.2171  135.6457  153.5185 H   0  0  0  0  0  0  0  0  0  0  0  0  # atno 10765 bound_to 10752
  141.1511  133.6721  156.6310 H   0  0  0  0  0  0  0  0  0  0  0  0  # atno 11005 bound_to 11000
  145.2782  139.1928  143.4805 LP  0  0  0  0  0  0  0  0  0  0  0  0  # atno 17320 bound_to 7965
  146.3335  140.2740  142.8607 LP  0  0  0  0  0  0  0  0  0  0  0  0  # atno 17321 bound_to 7965
  139.4832  144.4781  151.9341 LP  0  0  0  0  0  0  0  0  0  0  0  0  # atno 17342 bound_to 10162
  140.3866  144.2668  150.5903 LP  0  0  0  0  0  0  0  0  0  0  0  0  # atno 17343 bound_to 10162
  157.3913  131.0796  151.1391 LP  0  0  0  0  0  0  0  0  0  0  0  0  # atno 17370 bound_to 10713
  157.2082  130.6426  149.5764 LP  0  0  0  0  0  0  0  0  0  0  0  0  # atno 17371 bound_to 10713
  140.3466  134.7804  157.4437 LP  0  0  0  0  0  0  0  0  0  0  0  0  # atno 17394 bound_to 11000
  140.0894  134.5621  155.8459 LP  0  0  0  0  0  0  0  0  0  0  0  0  # atno 17395 bound_to 11000

$$$$
