AV-unprocessed.smi:2464|AV-procd|sdf|9721|dock1
  -GOLD-   2272013363D 1   1.00000     0.00000
 Structure written by MMmdl.
 32 33  0  0  0  0  0  0  0  0  3 V2000
  152.7489  144.2992  158.8530 C   0  0  0  0  0  0  0  0  0  0  0  0
  152.6538  142.8880  159.4424 C   0  0  0  0  0  0  0  0  0  0  0  0
  152.3991  141.9179  158.3752 N   0  0  0  0  0  0  0  0  0  0  0  0
  151.3096  141.8636  157.5928 C   0  0  0  0  0  0  0  0  0  0  0  0
  150.3673  142.6515  157.6780 O   0  0  0  0  0  0  0  0  0  0  0  0
  151.3817  140.8341  156.7324 N   0  0  0  0  0  0  0  0  0  0  0  0
  150.4162  140.4260  155.7690 C   0  0  0  0  0  0  0  0  0  0  0  0
  149.1485  141.0508  155.6786 C   0  0  0  0  0  0  0  0  0  0  0  0
  148.2560  140.6423  154.6705 C   0  0  0  0  0  0  0  0  0  0  0  0
  148.5489  139.6878  153.7659 N   0  0  0  0  0  0  0  0  0  0  0  0
  149.7621  139.1025  153.8405 C   0  0  0  0  0  0  0  0  0  0  0  0
  150.7372  139.4228  154.8133 C   0  0  0  0  0  0  0  0  0  0  0  0
  152.0303  138.7123  154.7991 N   0  3  0  0  0  0  0  0  0  0  0  0
  152.1010  137.6262  154.2333 O   0  0  0  0  0  0  0  0  0  0  0  0
  152.9844  139.2613  155.3395 O   0  5  0  0  0  0  0  0  0  0  0  0
  153.7561  142.4130  160.4139 C   0  0  0  0  0  0  0  0  0  0  0  0
  152.8556  142.8608  161.5679 C   0  0  0  0  0  0  0  0  0  0  0  0
  151.6759  142.6632  160.6113 C   0  0  0  0  0  0  0  0  0  0  0  0
  152.8256  145.0558  159.6342 H   0  0  0  0  0  0  0  0  0  0  0  0
  151.8700  144.5412  158.2544 H   0  0  0  0  0  0  0  0  0  0  0  0
  153.6242  144.4106  158.2127 H   0  0  0  0  0  0  0  0  0  0  0  0
  153.1158  141.2226  158.2266 H   0  0  0  0  0  0  0  0  0  0  0  0
  152.1673  140.2116  156.8518 H   0  0  0  0  0  0  0  0  0  0  0  0
  148.8544  141.8438  156.3495 H   0  0  0  0  0  0  0  0  0  0  0  0
  147.2842  141.1048  154.5816 H   0  0  0  0  0  0  0  0  0  0  0  0
  149.9561  138.3431  153.0970 H   0  0  0  0  0  0  0  0  0  0  0  0
  153.9166  141.3327  160.4082 H   0  0  0  0  0  0  0  0  0  0  0  0
  154.6988  142.9558  160.3372 H   0  0  0  0  0  0  0  0  0  0  0  0
  152.8585  142.1992  162.4343 H   0  0  0  0  0  0  0  0  0  0  0  0
  153.0100  143.9033  161.8508 H   0  0  0  0  0  0  0  0  0  0  0  0
  150.8892  143.4128  160.7031 H   0  0  0  0  0  0  0  0  0  0  0  0
  151.2689  141.6509  160.6584 H   0  0  0  0  0  0  0  0  0  0  0  0
  1  2  1  0  0  0  0
  1 19  1  0  0  0  0
  1 20  1  0  0  0  0
  1 21  1  0  0  0  0
  2 18  1  0  0  0  0
  2  3  1  0  0  0  0
  2 16  1  0  0  0  0
  3  4  1  0  0  0  0
  3 22  1  0  0  0  0
  4  5  2  0  0  0  0
  4  6  1  0  0  0  0
  6  7  1  0  0  0  0
  6 23  1  0  0  0  0
  7 12  1  0  0  0  0
  7  8  2  0  0  0  0
  8  9  1  0  0  0  0
  8 24  1  0  0  0  0
  9 10  2  0  0  0  0
  9 25  1  0  0  0  0
 10 11  1  0  0  0  0
 11 12  2  0  0  0  0
 11 26  1  0  0  0  0
 12 13  1  0  0  0  0
 13 14  2  0  0  0  0
 13 15  1  0  0  0  0
 16 17  1  0  0  0  0
 16 27  1  0  0  0  0
 16 28  1  0  0  0  0
 17 18  1  0  0  0  0
 17 29  1  0  0  0  0
 17 30  1  0  0  0  0
 18 31  1  0  0  0  0
 18 32  1  0  0  0  0
M  CHG  1  13   1
M  CHG  1  15  -1
M  END
> <s_m_source_file>
AV-unprocessed.smi

> <i_m_source_file_index>
2464

> <i_lp_mmshare_version>
43012

> <i_f3d_flags>
0

> <s_epik_input>
W0NIMl0xW0NIMl1bQ0gyXUMxKFtDSDNdKVtOSF1DKD1PKVtOSF1jMltjSF1bY0hdbltjSF1jMltOK10oPU8pW08tXQ==

> <s_epik_cmdline>
J2VwaWtfcHl0aG9uJywgJy1waCcsICc3LjAnLCAnLXRuJywgJzgnLCAnLW1hJywgJzIwMCcsICctbWV0YWxfYmluZGluZycsICctaW1hZScsICc8aW5maWxlLm1hZT4nLCAnLW9tYWUnLCAnPG91dGZpbGUubWFlPic=

> <r_lp_tautomer_probability>
1

> <r_epik_Ionization_Penalty>
0.000161487

> <r_epik_Ionization_Penalty_Charging>
0

> <r_epik_Ionization_Penalty_Neutral>
0.000161487

> <r_epik_State_Penalty>
-0

> <r_epik_Charging_Adjusted_Penalty>
0

> <i_epik_Tot_Q>
0

> <i_epik_Tot_abs_Q>
2

> <r_epik_Metal_State_Penalty>
-0

> <b_epik_Metal_Only>
0

> <s_lp_Force_Field>
OPLS_2005

> <r_lp_Energy>
25.6435

> <b_lp_Chiralities_Consistent>
1

> <s_lp_Variant>
AV-unprocessed.smi:2464-1

> <Gold.Version>
5.8.1

> <Gold.Id.Protein>
6NUR|6NUR_protein|mol2

> <Gold.PLP.Fitness>
41.8749

> <Gold.PLP.PLP>
-33.2862

> <Gold.PLP.part.hbond>
-2.0000

> <Gold.PLP.part.metal>
0.0000

> <Gold.PLP.part.buried>
-2.5618

> <Gold.PLP.part.nonpolar>
-31.1435

> <Gold.PLP.part.repulsive>
2.1929

> <Gold.PLP.ligand.clash>
0.0000

> <Gold.PLP.ligand.torsion>
0.3787

> <Gold.PLP.Chemscore.Hbond>
1.9120

> <Gold.PLP.Chemscore.CHOScore>
1.1018

> <Gold.PLP.Chemscore.Metal>
0.0000

> <Gold.Chemscore.Hbonds>
donor molecule, donor type, donor heavy atom, donor atom, acceptor molecule, acceptor atom, score
      P1  H  7997  8009       L1    15  1.00
      P1  H 10752 10765       L1    14  0.62
      L1  C    11    26       P1  7948  0.84
      L1  C    11    26       P1  7957  0.22

> <Gold.PLP.Chemscore.Internal.Correction>
0.3046

> <Gold.Rescore>
     Score         DG    S(hbond)    S(metal)    S(lipo)     H(rot)  DE(clash)    DE(int)     intcor
     16.23     -19.78       1.89        0.00      90.17       1.00       0.24       3.31       ----

> <Gold.Chemscore.Fitness>
16.2345

> <Gold.Chemscore.DG>
-19.7789

> <Gold.Chemscore.ZeroCoef>
-5.4800

> <Gold.Chemscore.Hbond>
1.8891

> <Gold.Chemscore.Metal>
0.0000

> <Gold.Chemscore.Lipo>
90.1659

> <Gold.Chemscore.Internal_Hbond>
0.0000

> <Gold.Chemscore.DEClash>
0.2369

> <Gold.Chemscore.DEInternal>
3.3074

> <Gold.Chemscore.Rot>
1.0000

> <Gold.Chemscore.Internal.Correction>
   9.000000E+99

> <Gold.Chemscore.Hbonds>
donor molecule, donor type, donor heavy atom, donor atom, acceptor molecule, acceptor atom, score
      P1  H  7997  8009       L1    15  1.00
      P1  H 10752 10765       L1    14  0.61

> <Gold.Chemscore.Hbond.Weighted>
-6.3095

> <Gold.Chemscore.Metal.Weighted>
-0.0000

> <Gold.Chemscore.Lipo.Weighted>
-10.5494

> <Gold.Chemscore.Internal_Hbond.Weighted>
0.0000

> <Gold.Chemscore.DEClash.Weighted>
0.2369

> <Gold.Chemscore.DEInternal.Weighted>
3.3074

> <Gold.Chemscore.Rot.Weighted>
2.5600

> <Gold.Chemscore.Internal.Correction.Weighted>
   9.000000E+99

> <Gold.Protein.RotatedTorsions>
[ 6907 6896 6895 6894 ] final  142.97 input  -60.11 | X-H torsion
[ 7974 7965 7964 7962 ] final -179.17 input  175.53 | X-H torsion
[ 8008 7997 7996 7995 ] final -135.72 input   59.86 | X-H torsion
[ 10167 10162 10161 10158 ] final -142.39 input  -65.29 | X-H torsion
[ 10718 10713 10712 10709 ] final  -14.60 input   66.30 | X-H torsion
[ 10763 10752 10751 10750 ] final  162.57 input  -60.55 | X-H torsion
[ 11005 11000 10999 10996 ] final -117.84 input  -57.11 | X-H torsion

> <Gold.Protein.ActiveResidues>
 VAL166  LYS551  ARG553  GLY616  TRP617  ASP618  TYR619  PRO620  LYS621  CYS622 
 ASP623  PHE694  ASN695  SER759  ASP760  ASP761  ALA762  ILE779  LEU786  VAL792 
 PHE793  MET794  SER795  GLU796  ALA797  LYS798  CYS799  TRP800  GLU811  SER814 

> <Gold.Protein.RotatedAtoms>
  152.2122  133.4919  159.5115 H   0  0  0  0  0  0  0  0  0  0  0  0  # atno 6907 bound_to 6896
  150.6993  134.1453  159.4129 H   0  0  0  0  0  0  0  0  0  0  0  0  # atno 6908 bound_to 6896
  151.9372  135.0229  160.0584 H   0  0  0  0  0  0  0  0  0  0  0  0  # atno 6909 bound_to 6896
  144.7135  140.0758  143.6427 H   0  0  0  0  0  0  0  0  0  0  0  0  # atno 7974 bound_to 7965
  155.3834  140.0495  157.3043 H   0  0  0  0  0  0  0  0  0  0  0  0  # atno 8008 bound_to 7997
  154.5071  140.2178  155.9191 H   0  0  0  0  0  0  0  0  0  0  0  0  # atno 8009 bound_to 7997
  156.1539  140.3130  155.8699 H   0  0  0  0  0  0  0  0  0  0  0  0  # atno 8010 bound_to 7997
  139.8093  143.7725  152.2662 H   0  0  0  0  0  0  0  0  0  0  0  0  # atno 10167 bound_to 10162
  156.6137  130.4856  149.6191 H   0  0  0  0  0  0  0  0  0  0  0  0  # atno 10718 bound_to 10713
  154.2803  135.2763  155.2700 H   0  0  0  0  0  0  0  0  0  0  0  0  # atno 10763 bound_to 10752
  154.5224  135.5752  153.6695 H   0  0  0  0  0  0  0  0  0  0  0  0  # atno 10764 bound_to 10752
  152.9930  135.6207  154.2962 H   0  0  0  0  0  0  0  0  0  0  0  0  # atno 10765 bound_to 10752
  141.0327  133.9956  157.3118 H   0  0  0  0  0  0  0  0  0  0  0  0  # atno 11005 bound_to 11000
  145.9745  139.2894  143.1079 LP  0  0  0  0  0  0  0  0  0  0  0  0  # atno 17320 bound_to 7965
  145.9080  140.9199  143.0468 LP  0  0  0  0  0  0  0  0  0  0  0  0  # atno 17321 bound_to 7965
  139.7869  144.7424  151.0009 LP  0  0  0  0  0  0  0  0  0  0  0  0  # atno 17342 bound_to 10162
  140.7818  143.4483  151.0450 LP  0  0  0  0  0  0  0  0  0  0  0  0  # atno 17343 bound_to 10162
  156.2369  130.6828  151.1518 LP  0  0  0  0  0  0  0  0  0  0  0  0  # atno 17370 bound_to 10713
  157.7247  131.0658  150.5984 LP  0  0  0  0  0  0  0  0  0  0  0  0  # atno 17371 bound_to 10713
  139.9219  135.0200  156.8095 LP  0  0  0  0  0  0  0  0  0  0  0  0  # atno 17394 bound_to 11000
  140.6377  133.9847  155.7692 LP  0  0  0  0  0  0  0  0  0  0  0  0  # atno 17395 bound_to 11000

$$$$
