AV-unprocessed.smi:21|AV-procd|sdf|150|dock7
  -GOLD-   2262015373D 1   1.00000     0.00000
 Structure written by MMmdl.
 62 65  0  0  0  0  0  0  0  0  2 V2000
  147.0347  132.8284  151.4375 C   0  0  0  0  0  0  0  0  0  0  0  0
  145.7425  133.1950  151.8946 O   0  0  0  0  0  0  0  0  0  0  0  0
  145.1506  134.2546  151.1539 C   0  0  2  0  0  0  0  0  0  0  0  0
  146.0679  135.4684  151.2172 C   0  0  0  0  0  0  0  0  0  0  0  0
  145.7501  136.0967  152.5792 C   0  0  1  0  0  0  0  0  0  0  0  0
  146.1506  137.5877  152.7017 C   0  0  0  0  0  0  0  0  0  0  0  0
  146.3881  137.9926  154.0893 N   0  0  0  0  0  0  0  0  0  0  0  0
  145.3105  137.8143  155.0543 C   0  0  0  0  0  0  0  0  0  0  0  0
  147.6644  138.1780  154.5285 C   0  0  0  0  0  0  0  0  0  0  0  0
  148.4526  137.0809  154.6809 N   0  0  0  0  0  0  0  0  0  0  0  0
  149.7120  137.1970  155.1091 C   0  0  0  0  0  0  0  0  0  0  0  0
  150.3780  138.3013  155.4450 N   0  0  0  0  0  0  0  0  0  0  0  0
  149.5986  139.4102  155.3030 C   0  0  0  0  0  0  0  0  0  0  0  0
  148.2454  139.4423  154.8546 C   0  0  0  0  0  0  0  0  0  0  0  0
  147.7895  140.7572  154.8608 N   0  0  0  0  0  0  0  0  0  0  0  0
  148.8093  141.4562  155.2760 C   0  0  0  0  0  0  0  0  0  0  0  0
  149.9400  140.7269  155.5575 N   0  0  0  0  0  0  0  0  0  0  0  0
  151.2085  141.2496  156.0360 C   0  0  0  0  0  0  0  0  0  0  0  0
  151.3562  141.1848  157.5762 C   0  0  1  0  0  0  0  0  0  0  0  0
  151.7534  139.7573  158.0196 C   0  0  0  0  0  0  0  0  0  0  0  0
  153.0728  139.4589  157.6129 O   0  0  0  0  0  0  0  0  0  0  0  0
  152.2971  142.2905  158.1325 C   0  0  1  0  0  0  0  0  0  0  0  0
  151.8583  143.7305  157.8617 C   0  0  0  0  0  0  0  0  0  0  0  0
  152.0338  144.4368  159.2072 C   0  0  0  0  0  0  0  0  0  0  0  0
  152.9206  143.6006  159.9331 O   0  0  0  0  0  0  0  0  0  0  0  0
  152.5451  142.2647  159.6452 C   0  0  0  0  0  0  0  0  0  0  0  0
  144.3145  135.7829  152.8367 N   0  3  1  0  0  0  0  0  0  0  0  0
  143.3731  136.9230  152.9438 C   0  0  0  0  0  0  0  0  0  0  0  0
  143.8820  134.7681  151.8449 C   0  0  0  0  0  0  0  0  0  0  0  0
  144.9733  133.9530  150.1201 H   0  0  0  0  0  0  0  0  0  0  0  0
  146.2995  135.5349  153.3361 H   0  0  0  0  0  0  0  0  0  0  0  0
  147.4164  132.0096  152.0474 H   0  0  0  0  0  0  0  0  0  0  0  0
  147.7324  133.6621  151.5243 H   0  0  0  0  0  0  0  0  0  0  0  0
  147.0196  132.4930  150.4004 H   0  0  0  0  0  0  0  0  0  0  0  0
  147.1211  135.2092  151.1017 H   0  0  0  0  0  0  0  0  0  0  0  0
  145.8066  136.1624  150.4168 H   0  0  0  0  0  0  0  0  0  0  0  0
  147.0103  137.8084  152.0697 H   0  0  0  0  0  0  0  0  0  0  0  0
  145.3416  138.2131  152.3235 H   0  0  0  0  0  0  0  0  0  0  0  0
  145.3832  138.5450  155.8607 H   0  0  0  0  0  0  0  0  0  0  0  0
  145.3374  136.8120  155.4827 H   0  0  0  0  0  0  0  0  0  0  0  0
  144.3401  137.9491  154.5762 H   0  0  0  0  0  0  0  0  0  0  0  0
  150.2652  136.2732  155.1942 H   0  0  0  0  0  0  0  0  0  0  0  0
  148.7665  142.5302  155.3870 H   0  0  0  0  0  0  0  0  0  0  0  0
  152.0015  140.6783  155.5525 H   0  0  0  0  0  0  0  0  0  0  0  0
  151.3188  142.2780  155.6908 H   0  0  0  0  0  0  0  0  0  0  0  0
  150.3722  141.3892  158.0018 H   0  0  0  0  0  0  0  0  0  0  0  0
  151.6897  139.6494  159.1025 H   0  0  0  0  0  0  0  0  0  0  0  0
  151.0977  139.0032  157.5868 H   0  0  0  0  0  0  0  0  0  0  0  0
  153.4288  138.8091  158.1998 H   0  0  0  0  0  0  0  0  0  0  0  0
  153.2720  142.1942  157.6538 H   0  0  0  0  0  0  0  0  0  0  0  0
  152.5058  144.1792  157.1072 H   0  0  0  0  0  0  0  0  0  0  0  0
  150.8350  143.8212  157.4985 H   0  0  0  0  0  0  0  0  0  0  0  0
  152.4295  145.4474  159.1039 H   0  0  0  0  0  0  0  0  0  0  0  0
  151.0817  144.4952  159.7371 H   0  0  0  0  0  0  0  0  0  0  0  0
  151.6451  142.0238  160.2108 H   0  0  0  0  0  0  0  0  0  0  0  0
  153.3260  141.5608  159.9323 H   0  0  0  0  0  0  0  0  0  0  0  0
  143.3559  137.5124  152.0261 H   0  0  0  0  0  0  0  0  0  0  0  0
  143.6330  137.5756  153.7770 H   0  0  0  0  0  0  0  0  0  0  0  0
  142.3623  136.5567  153.1260 H   0  0  0  0  0  0  0  0  0  0  0  0
  143.2463  135.2398  151.0936 H   0  0  0  0  0  0  0  0  0  0  0  0
  143.2934  133.9816  152.3165 H   0  0  0  0  0  0  0  0  0  0  0  0
  144.2991  135.3248  153.7369 H   0  0  0  0  0  0  0  0  0  0  0  0
  1  2  1  0  0  0  0
  1 32  1  0  0  0  0
  1 33  1  0  0  0  0
  1 34  1  0  0  0  0
  2  3  1  0  0  0  0
  3 30  1  0  0  0  0
  3 29  1  0  0  0  0
  3  4  1  0  0  0  0
  4  5  1  0  0  0  0
  4 35  1  0  0  0  0
  4 36  1  0  0  0  0
  5 31  1  0  0  0  0
  5  6  1  0  0  0  0
  5 27  1  0  0  0  0
  6  7  1  0  0  0  0
  6 37  1  0  0  0  0
  6 38  1  0  0  0  0
  7  8  1  0  0  0  0
  7  9  1  0  0  0  0
  8 39  1  0  0  0  0
  8 40  1  0  0  0  0
  8 41  1  0  0  0  0
  9 14  1  0  0  0  0
  9 10  2  0  0  0  0
 10 11  1  0  0  0  0
 11 12  2  0  0  0  0
 11 42  1  0  0  0  0
 12 13  1  0  0  0  0
 13 17  1  0  0  0  0
 13 14  2  0  0  0  0
 14 15  1  0  0  0  0
 15 16  2  0  0  0  0
 16 17  1  0  0  0  0
 16 43  1  0  0  0  0
 17 18  1  0  0  0  0
 18 19  1  0  0  0  0
 18 44  1  0  0  0  0
 18 45  1  0  0  0  0
 19 20  1  0  0  0  0
 19 22  1  0  0  0  0
 19 46  1  0  0  0  0
 20 21  1  0  0  0  0
 20 47  1  0  0  0  0
 20 48  1  0  0  0  0
 21 49  1  0  0  0  0
 22 26  1  0  0  0  0
 22 23  1  0  0  0  0
 22 50  1  0  0  0  0
 23 24  1  0  0  0  0
 23 51  1  0  0  0  0
 23 52  1  0  0  0  0
 24 25  1  0  0  0  0
 24 53  1  0  0  0  0
 24 54  1  0  0  0  0
 25 26  1  0  0  0  0
 26 55  1  0  0  0  0
 26 56  1  0  0  0  0
 27 28  1  0  0  0  0
 27 29  1  0  0  0  0
 27 62  1  0  0  0  0
 28 57  1  0  0  0  0
 28 58  1  0  0  0  0
 28 59  1  0  0  0  0
 29 60  1  0  0  0  0
 29 61  1  0  0  0  0
M  CHG  1  27   1
M  END
> <s_m_source_file>
AV-unprocessed.smi

> <i_m_source_file_index>
21

> <i_lp_mmshare_version>
43012

> <i_f3d_flags>
0

> <s_epik_input>
W0NIM11PW0NASF0xW0NIMl1bQ0BIXShOKFtDSDNdKVtDSDJdMSlbQ0gyXU4oW0NIM10pYyhuW2NIXW4yKWMoYzIzKW5bY0hdbjNbQ0gyXVtDQEhdKFtDSDJdW09IXSlbQ0BASF00W0NIMl1bQ0gyXU9bQ0gyXTQ=

> <s_epik_cmdline>
J2VwaWtfcHl0aG9uJywgJy1waCcsICc3LjAnLCAnLXRuJywgJzgnLCAnLW1hJywgJzIwMCcsICctbWV0YWxfYmluZGluZycsICctaW1hZScsICc8aW5maWxlLm1hZT4nLCAnLW9tYWUnLCAnPG91dGZpbGUubWFlPic=

> <r_lp_tautomer_probability>
1

> <r_epik_Ionization_Penalty>
0.0157465

> <r_epik_Ionization_Penalty_Charging>
0.015354

> <r_epik_Ionization_Penalty_Neutral>
0.000392529

> <r_epik_State_Penalty>
0.0120612

> <r_epik_Charging_Adjusted_Penalty>
0.0274152

> <i_epik_Tot_Q>
1

> <i_epik_Tot_abs_Q>
1

> <r_epik_Metal_State_Penalty>
0.0121253

> <b_epik_Metal_Only>
0

> <s_lp_Force_Field>
OPLS_2005

> <r_lp_Energy>
62.4591

> <b_lp_Chiralities_Consistent>
1

> <s_lp_Variant>
AV-unprocessed.smi:21-30

> <Gold.Version>
5.8.1

> <Gold.Id.Protein>
6NUR|6NUR_protein|mol2

> <Gold.PLP.Fitness>
45.9761

> <Gold.PLP.PLP>
-44.1563

> <Gold.PLP.part.hbond>
-1.0000

> <Gold.PLP.part.metal>
0.0000

> <Gold.PLP.part.buried>
-6.7673

> <Gold.PLP.part.nonpolar>
-37.3832

> <Gold.PLP.part.repulsive>
1.1249

> <Gold.PLP.ligand.clash>
0.0000

> <Gold.PLP.ligand.torsion>
2.4380

> <Gold.PLP.Chemscore.Hbond>
1.0000

> <Gold.PLP.Chemscore.CHOScore>
0.9929

> <Gold.PLP.Chemscore.Metal>
0.0000

> <Gold.Chemscore.Hbonds>
donor molecule, donor type, donor heavy atom, donor atom, acceptor molecule, acceptor atom, score
      P1  H  7997  8008       L1    21  1.00
      L1  C    16    43       P1  8028  1.00

> <Gold.PLP.Chemscore.Internal.Correction>
0.7171

> <Gold.Rescore>
     Score         DG    S(hbond)    S(metal)    S(lipo)     H(rot)  DE(clash)    DE(int)     intcor
      8.76     -12.27       0.77        0.00     103.28       3.08       0.87       2.63       ----

> <Gold.Chemscore.Fitness>
8.7633

> <Gold.Chemscore.DG>
-12.2695

> <Gold.Chemscore.ZeroCoef>
-5.4800

> <Gold.Chemscore.Hbond>
0.7724

> <Gold.Chemscore.Metal>
0.0000

> <Gold.Chemscore.Lipo>
103.2796

> <Gold.Chemscore.Internal_Hbond>
0.0000

> <Gold.Chemscore.DEClash>
0.8729

> <Gold.Chemscore.DEInternal>
2.6334

> <Gold.Chemscore.Rot>
3.0758

> <Gold.Chemscore.Internal.Correction>
   9.000000E+99

> <Gold.Chemscore.Hbonds>
donor molecule, donor type, donor heavy atom, donor atom, acceptor molecule, acceptor atom, score
      P1  H  7997  8008       L1    21  0.67

> <Gold.Chemscore.Hbond.Weighted>
-2.5800

> <Gold.Chemscore.Metal.Weighted>
-0.0000

> <Gold.Chemscore.Lipo.Weighted>
-12.0837

> <Gold.Chemscore.Internal_Hbond.Weighted>
0.0000

> <Gold.Chemscore.DEClash.Weighted>
0.8729

> <Gold.Chemscore.DEInternal.Weighted>
2.6334

> <Gold.Chemscore.Rot.Weighted>
7.8741

> <Gold.Chemscore.Internal.Correction.Weighted>
   9.000000E+99

> <Gold.Protein.RotatedTorsions>
[ 6907 6896 6895 6894 ] final  -92.82 input  -60.11 | X-H torsion
[ 7974 7965 7964 7962 ] final   92.16 input  175.53 | X-H torsion
[ 8008 7997 7996 7995 ] final  -54.71 input   59.86 | X-H torsion
[ 10167 10162 10161 10158 ] final -144.12 input  -65.29 | X-H torsion
[ 10718 10713 10712 10709 ] final   -6.36 input   66.30 | X-H torsion
[ 10763 10752 10751 10750 ] final  -69.60 input  -60.55 | X-H torsion
[ 11005 11000 10999 10996 ] final  -21.60 input  -57.11 | X-H torsion

> <Gold.Protein.ActiveResidues>
 VAL166  LYS551  ARG553  GLY616  TRP617  ASP618  TYR619  PRO620  LYS621  CYS622 
 ASP623  PHE694  ASN695  SER759  ASP760  ASP761  ALA762  ILE779  LEU786  VAL792 
 PHE793  MET794  SER795  GLU796  ALA797  LYS798  CYS799  TRP800  GLU811  SER814 

> <Gold.Protein.RotatedAtoms>
  150.6912  134.2063  159.4341 H   0  0  0  0  0  0  0  0  0  0  0  0  # atno 6907 bound_to 6896
  152.0027  134.9917  160.0575 H   0  0  0  0  0  0  0  0  0  0  0  0  # atno 6908 bound_to 6896
  152.1563  133.4519  159.4875 H   0  0  0  0  0  0  0  0  0  0  0  0  # atno 6909 bound_to 6896
  145.4960  139.2276  143.2804 H   0  0  0  0  0  0  0  0  0  0  0  0  # atno 7974 bound_to 7965
  154.4171  140.1170  156.5360 H   0  0  0  0  0  0  0  0  0  0  0  0  # atno 8008 bound_to 7997
  155.6557  140.3496  155.4745 H   0  0  0  0  0  0  0  0  0  0  0  0  # atno 8009 bound_to 7997
  155.9756  140.1150  157.0763 H   0  0  0  0  0  0  0  0  0  0  0  0  # atno 8010 bound_to 7997
  139.7929  143.7941  152.2651 H   0  0  0  0  0  0  0  0  0  0  0  0  # atno 10167 bound_to 10162
  156.7330  130.5186  149.5841 H   0  0  0  0  0  0  0  0  0  0  0  0  # atno 10718 bound_to 10713
  154.4058  135.6020  153.5923 H   0  0  0  0  0  0  0  0  0  0  0  0  # atno 10763 bound_to 10752
  152.9789  135.5917  154.4130 H   0  0  0  0  0  0  0  0  0  0  0  0  # atno 10764 bound_to 10752
  154.3935  135.2842  155.2119 H   0  0  0  0  0  0  0  0  0  0  0  0  # atno 10765 bound_to 10752
  140.8577  133.7811  156.0038 H   0  0  0  0  0  0  0  0  0  0  0  0  # atno 11005 bound_to 11000
  146.2255  140.5757  142.8998 LP  0  0  0  0  0  0  0  0  0  0  0  0  # atno 17320 bound_to 7965
  144.7807  140.5834  143.6607 LP  0  0  0  0  0  0  0  0  0  0  0  0  # atno 17321 bound_to 7965
  139.8038  144.7363  150.9789 LP  0  0  0  0  0  0  0  0  0  0  0  0  # atno 17342 bound_to 10162
  140.7820  143.4318  151.0682 LP  0  0  0  0  0  0  0  0  0  0  0  0  # atno 17343 bound_to 10162
  156.1516  130.6313  151.0602 LP  0  0  0  0  0  0  0  0  0  0  0  0  # atno 17370 bound_to 10713
  157.6850  131.0827  150.7266 LP  0  0  0  0  0  0  0  0  0  0  0  0  # atno 17371 bound_to 10713
  140.8719  134.2716  157.5187 LP  0  0  0  0  0  0  0  0  0  0  0  0  # atno 17394 bound_to 11000
  139.8706  134.9571  156.4259 LP  0  0  0  0  0  0  0  0  0  0  0  0  # atno 17395 bound_to 11000

$$$$
