AV-unprocessed.smi:1280|AV-procd|sdf|5358|dock8
  -GOLD-   22720 4493D 1   1.00000     0.00000
 Structure written by MMmdl.
 44 45  0  0  0  0  0  0  0  0  2 V2000
  155.8920  133.9453  162.0632 C   0  0  0  0  0  0  0  0  0  0  0  0
  155.9863  135.3716  160.9097 S   0  0  0  0  0  0  0  0  0  0  0  0
  157.1543  135.1168  160.0510 O   0  0  0  0  0  0  0  0  0  0  0  0
  154.6711  135.4421  160.2527 O   0  0  0  0  0  0  0  0  0  0  0  0
  156.2304  136.5854  161.9555 N   0  5  0  0  0  0  0  0  0  0  0  0
  155.1369  137.0150  162.8110 C   0  0  0  0  0  0  0  0  0  0  0  0
  154.2616  138.0564  162.0845 C   0  0  0  0  0  0  0  0  0  0  0  0
  155.0096  139.3168  161.5937 C   0  0  0  0  0  0  0  0  0  0  0  0
  154.1501  140.1422  160.7519 N   0  0  0  0  0  0  0  0  0  0  0  0
  153.6385  139.7719  159.5665 C   0  0  0  0  0  0  0  0  0  0  0  0
  153.8654  138.6856  159.0341 O   0  0  0  0  0  0  0  0  0  0  0  0
  152.8058  140.8093  158.8615 C   0  0  0  0  0  0  0  0  0  0  0  0
  152.5884  142.0489  159.5032 C   0  0  0  0  0  0  0  0  0  0  0  0
  151.8022  143.0295  158.8730 C   0  0  0  0  0  0  0  0  0  0  0  0
  151.2629  142.7371  157.6088 C   0  0  0  0  0  0  0  0  0  0  0  0
  151.4769  141.5699  156.9690 N   0  0  0  0  0  0  0  0  0  0  0  0
  152.2391  140.6186  157.5652 C   0  0  0  0  0  0  0  0  0  0  0  0
  152.4930  139.4540  156.8125 N   0  0  0  0  0  0  0  0  0  0  0  0
  151.8296  138.2273  157.2430 C   0  0  0  0  0  0  0  0  0  0  0  0
  152.3726  137.0320  156.4424 C   0  0  0  0  0  0  0  0  0  0  0  0
  152.1969  137.2761  155.0497 O   0  0  0  0  0  0  0  0  0  0  0  0
  152.9069  138.4322  154.6147 C   0  0  0  0  0  0  0  0  0  0  0  0
  152.4033  139.6725  155.3735 C   0  0  0  0  0  0  0  0  0  0  0  0
  155.7262  133.0318  161.4932 H   0  0  0  0  0  0  0  0  0  0  0  0
  155.0664  134.0943  162.7586 H   0  0  0  0  0  0  0  0  0  0  0  0
  156.8264  133.8629  162.6176 H   0  0  0  0  0  0  0  0  0  0  0  0
  154.5057  136.1725  163.0948 H   0  0  0  0  0  0  0  0  0  0  0  0
  155.4944  137.4444  163.7475 H   0  0  0  0  0  0  0  0  0  0  0  0
  153.7447  137.5806  161.2497 H   0  0  0  0  0  0  0  0  0  0  0  0
  153.4810  138.3740  162.7758 H   0  0  0  0  0  0  0  0  0  0  0  0
  155.3232  139.9342  162.4374 H   0  0  0  0  0  0  0  0  0  0  0  0
  155.9186  139.0580  161.0459 H   0  0  0  0  0  0  0  0  0  0  0  0
  153.9234  141.0634  161.0974 H   0  0  0  0  0  0  0  0  0  0  0  0
  153.0084  142.2468  160.4788 H   0  0  0  0  0  0  0  0  0  0  0  0
  151.6148  143.9805  159.3492 H   0  0  0  0  0  0  0  0  0  0  0  0
  150.6514  143.4624  157.0930 H   0  0  0  0  0  0  0  0  0  0  0  0
  151.9952  138.0719  158.3099 H   0  0  0  0  0  0  0  0  0  0  0  0
  150.7530  138.3123  157.0881 H   0  0  0  0  0  0  0  0  0  0  0  0
  153.4275  136.8609  156.6636 H   0  0  0  0  0  0  0  0  0  0  0  0
  151.8369  136.1228  156.7144 H   0  0  0  0  0  0  0  0  0  0  0  0
  153.9769  138.2903  154.7684 H   0  0  0  0  0  0  0  0  0  0  0  0
  152.7553  138.5606  153.5430 H   0  0  0  0  0  0  0  0  0  0  0  0
  151.3654  139.8772  155.1077 H   0  0  0  0  0  0  0  0  0  0  0  0
  152.9865  140.5462  155.0809 H   0  0  0  0  0  0  0  0  0  0  0  0
  1  2  1  0  0  0  0
  1 24  1  0  0  0  0
  1 25  1  0  0  0  0
  1 26  1  0  0  0  0
  2  3  2  0  0  0  0
  2  4  2  0  0  0  0
  2  5  1  0  0  0  0
  5  6  1  0  0  0  0
  6  7  1  0  0  0  0
  6 27  1  0  0  0  0
  6 28  1  0  0  0  0
  7  8  1  0  0  0  0
  7 29  1  0  0  0  0
  7 30  1  0  0  0  0
  8  9  1  0  0  0  0
  8 31  1  0  0  0  0
  8 32  1  0  0  0  0
  9 10  1  0  0  0  0
  9 33  1  0  0  0  0
 10 11  2  0  0  0  0
 10 12  1  0  0  0  0
 12 17  1  0  0  0  0
 12 13  2  0  0  0  0
 13 14  1  0  0  0  0
 13 34  1  0  0  0  0
 14 15  2  0  0  0  0
 14 35  1  0  0  0  0
 15 16  1  0  0  0  0
 15 36  1  0  0  0  0
 16 17  2  0  0  0  0
 17 18  1  0  0  0  0
 18 23  1  0  0  0  0
 18 19  1  0  0  0  0
 19 20  1  0  0  0  0
 19 37  1  0  0  0  0
 19 38  1  0  0  0  0
 20 21  1  0  0  0  0
 20 39  1  0  0  0  0
 20 40  1  0  0  0  0
 21 22  1  0  0  0  0
 22 23  1  0  0  0  0
 22 41  1  0  0  0  0
 22 42  1  0  0  0  0
 23 43  1  0  0  0  0
 23 44  1  0  0  0  0
M  CHG  1   5  -1
M  END
> <s_m_source_file>
AV-unprocessed.smi

> <i_m_source_file_index>
1280

> <i_lp_mmshare_version>
43012

> <i_f3d_flags>
0

> <s_epik_input>
W0NIM11TKD1PKSg9TylbTkhdW0NIMl1bQ0gyXVtDSDJdW05IXUMoPU8pYzFbY0hdW2NIXVtjSF1uYzFOMltDSDJdW0NIMl1PW0NIMl1bQ0gyXTI=

> <s_epik_cmdline>
J2VwaWtfcHl0aG9uJywgJy1waCcsICc3LjAnLCAnLXRuJywgJzgnLCAnLW1hJywgJzIwMCcsICctbWV0YWxfYmluZGluZycsICctaW1hZScsICc8aW5maWxlLm1hZT4nLCAnLW9tYWUnLCAnPG91dGZpbGUubWFlPic=

> <r_lp_tautomer_probability>
1

> <r_epik_Ionization_Penalty>
6.65739

> <r_epik_Ionization_Penalty_Charging>
6.65737

> <r_epik_Ionization_Penalty_Neutral>
1.70916e-05

> <r_epik_State_Penalty>
6.65736

> <r_epik_Charging_Adjusted_Penalty>
13.3147

> <i_epik_Tot_Q>
-1

> <i_epik_Tot_abs_Q>
1

> <r_epik_Metal_State_Penalty>
2.58004

> <b_epik_Metal_Only>
1

> <s_lp_Force_Field>
OPLS_2005

> <r_lp_Energy>
24.7135

> <b_lp_Chiralities_Consistent>
1

> <s_lp_Variant>
AV-unprocessed.smi:1280-2

> <Gold.Version>
5.8.1

> <Gold.Id.Protein>
6NUR|6NUR_protein|mol2

> <Gold.PLP.Fitness>
38.6886

> <Gold.PLP.PLP>
-31.8888

> <Gold.PLP.part.hbond>
-2.4289

> <Gold.PLP.part.metal>
0.0000

> <Gold.PLP.part.buried>
-3.6632

> <Gold.PLP.part.nonpolar>
-26.0385

> <Gold.PLP.part.repulsive>
0.1615

> <Gold.PLP.ligand.clash>
0.0000

> <Gold.PLP.ligand.torsion>
1.1985

> <Gold.PLP.Chemscore.Hbond>
1.6626

> <Gold.PLP.Chemscore.CHOScore>
0.9958

> <Gold.PLP.Chemscore.Metal>
0.0000

> <Gold.Chemscore.Hbonds>
donor molecule, donor type, donor heavy atom, donor atom, acceptor molecule, acceptor atom, score
      P1  H  6896  6909       L1     4  0.10
      P1  H  7997  8008       L1    18  0.15
      P1  H 10752 10763       L1    21  0.62
      L1  C    15    36       P1  8028  0.86

> <Gold.PLP.Chemscore.Internal.Correction>
1.2215

> <Gold.Rescore>
     Score         DG    S(hbond)    S(metal)    S(lipo)     H(rot)  DE(clash)    DE(int)     intcor
      9.81     -14.02       1.12        0.00      88.07       2.16       0.08       4.13       ----

> <Gold.Chemscore.Fitness>
9.8126

> <Gold.Chemscore.DG>
-14.0192

> <Gold.Chemscore.ZeroCoef>
-5.4800

> <Gold.Chemscore.Hbond>
1.1236

> <Gold.Chemscore.Metal>
0.0000

> <Gold.Chemscore.Lipo>
88.0704

> <Gold.Chemscore.Internal_Hbond>
0.0000

> <Gold.Chemscore.DEClash>
0.0755

> <Gold.Chemscore.DEInternal>
4.1312

> <Gold.Chemscore.Rot>
2.1554

> <Gold.Chemscore.Internal.Correction>
   9.000000E+99

> <Gold.Chemscore.Hbonds>
donor molecule, donor type, donor heavy atom, donor atom, acceptor molecule, acceptor atom, score
      P1  H  6896  6909       L1     4  0.13
      P1  H 10752 10763       L1    21  0.17

> <Gold.Chemscore.Hbond.Weighted>
-3.7528

> <Gold.Chemscore.Metal.Weighted>
-0.0000

> <Gold.Chemscore.Lipo.Weighted>
-10.3042

> <Gold.Chemscore.Internal_Hbond.Weighted>
0.0000

> <Gold.Chemscore.DEClash.Weighted>
0.0755

> <Gold.Chemscore.DEInternal.Weighted>
4.1312

> <Gold.Chemscore.Rot.Weighted>
5.5178

> <Gold.Chemscore.Internal.Correction.Weighted>
   9.000000E+99

> <Gold.Protein.RotatedTorsions>
[ 6907 6896 6895 6894 ] final -155.19 input  -60.11 | X-H torsion
[ 7974 7965 7964 7962 ] final   80.78 input  175.53 | X-H torsion
[ 8008 7997 7996 7995 ] final  -71.14 input   59.86 | X-H torsion
[ 10167 10162 10161 10158 ] final -101.86 input  -65.29 | X-H torsion
[ 10718 10713 10712 10709 ] final  146.83 input   66.30 | X-H torsion
[ 10763 10752 10751 10750 ] final   35.71 input  -60.55 | X-H torsion
[ 11005 11000 10999 10996 ] final  168.52 input  -57.11 | X-H torsion

> <Gold.Protein.ActiveResidues>
 VAL166  LYS551  ARG553  GLY616  TRP617  ASP618  TYR619  PRO620  LYS621  CYS622 
 ASP623  PHE694  ASN695  SER759  ASP760  ASP761  ALA762  ILE779  LEU786  VAL792 
 PHE793  MET794  SER795  GLU796  ALA797  LYS798  CYS799  TRP800  GLU811  SER814 

> <Gold.Protein.RotatedAtoms>
  151.2687  133.4266  159.2619 H   0  0  0  0  0  0  0  0  0  0  0  0  # atno 6907 bound_to 6896
  151.0465  134.9643  159.8199 H   0  0  0  0  0  0  0  0  0  0  0  0  # atno 6908 bound_to 6896
  152.5375  134.2643  159.9000 H   0  0  0  0  0  0  0  0  0  0  0  0  # atno 6909 bound_to 6896
  145.6468  139.2438  143.1999 H   0  0  0  0  0  0  0  0  0  0  0  0  # atno 7974 bound_to 7965
  154.5065  140.0821  156.7904 H   0  0  0  0  0  0  0  0  0  0  0  0  # atno 8008 bound_to 7997
  155.3882  140.3431  155.4232 H   0  0  0  0  0  0  0  0  0  0  0  0  # atno 8009 bound_to 7997
  156.1521  140.1562  156.8739 H   0  0  0  0  0  0  0  0  0  0  0  0  # atno 8010 bound_to 7997
  140.2368  143.3567  152.0837 H   0  0  0  0  0  0  0  0  0  0  0  0  # atno 10167 bound_to 10162
  157.3284  131.0916  151.1183 H   0  0  0  0  0  0  0  0  0  0  0  0  # atno 10718 bound_to 10713
  153.0107  135.6326  154.1870 H   0  0  0  0  0  0  0  0  0  0  0  0  # atno 10763 bound_to 10752
  154.1612  135.2823  155.3110 H   0  0  0  0  0  0  0  0  0  0  0  0  # atno 10764 bound_to 10752
  154.5980  135.5596  153.7405 H   0  0  0  0  0  0  0  0  0  0  0  0  # atno 10765 bound_to 10752
  140.2881  134.7695  157.3815 H   0  0  0  0  0  0  0  0  0  0  0  0  # atno 11005 bound_to 11000
  146.1236  140.7277  142.9446 LP  0  0  0  0  0  0  0  0  0  0  0  0  # atno 17320 bound_to 7965
  144.7137  140.4133  143.7061 LP  0  0  0  0  0  0  0  0  0  0  0  0  # atno 17321 bound_to 7965
  139.5091  144.6861  151.5884 LP  0  0  0  0  0  0  0  0  0  0  0  0  # atno 17342 bound_to 10162
  140.6144  143.9377  150.6477 LP  0  0  0  0  0  0  0  0  0  0  0  0  # atno 17343 bound_to 10162
  157.2441  130.6583  149.5902 LP  0  0  0  0  0  0  0  0  0  0  0  0  # atno 17370 bound_to 10713
  155.9693  130.4559  150.5905 LP  0  0  0  0  0  0  0  0  0  0  0  0  # atno 17371 bound_to 10713
  140.1220  134.5207  155.8175 LP  0  0  0  0  0  0  0  0  0  0  0  0  # atno 17394 bound_to 11000
  141.2151  133.6760  156.6884 LP  0  0  0  0  0  0  0  0  0  0  0  0  # atno 17395 bound_to 11000

$$$$
