AV-unprocessed.smi:157|AV-procd|sdf|1315|dock8
  -GOLD-   2262019 03D 1   1.00000     0.00000
 Structure written by MMmdl.
 36 38  0  0  0  0  0  0  0  0  2 V2000
  148.8266  138.8595  153.2114 O   0  0  0  0  0  0  0  0  0  0  0  0
  149.2054  138.3989  154.4914 C   0  0  0  0  0  0  0  0  0  0  0  0
  150.7403  138.3091  154.6097 C   0  0  1  0  0  0  0  0  0  0  0  0
  151.2176  139.6395  154.8271 O   0  0  0  0  0  0  0  0  0  0  0  0
  151.8990  139.7180  156.0409 C   0  0  1  0  0  0  0  0  0  0  0  0
  151.5440  141.0087  156.7025 N   0  0  0  0  0  0  0  0  0  0  0  0
  150.6825  141.9336  156.2296 C   0  0  0  0  0  0  0  0  0  0  0  0
  150.5370  142.9919  157.0087 N   0  3  0  0  0  0  0  0  0  0  0  0
  151.3522  142.7870  158.1018 C   0  0  0  0  0  0  0  0  0  0  0  0
  151.9759  141.5546  157.8894 C   0  0  0  0  0  0  0  0  0  0  0  0
  152.9030  140.8677  158.6883 N   0  0  0  0  0  0  0  0  0  0  0  0
  153.5623  141.4342  159.6463 C   0  0  0  0  0  0  0  0  0  0  0  0
  153.4506  142.7234  160.1401 N   0  0  0  0  0  0  0  0  0  0  0  0
  152.1746  143.3466  160.4436 C   0  0  0  0  0  0  0  0  0  0  0  0
  151.4006  143.8033  159.1998 C   0  0  1  0  0  0  0  0  0  0  0  0
  151.9277  145.0413  158.7696 O   0  0  0  0  0  0  0  0  0  0  0  0
  151.4306  138.5376  156.8795 C   0  0  0  0  0  0  0  0  0  0  0  0
  151.2804  137.4896  155.8000 C   0  0  1  0  0  0  0  0  0  0  0  0
  150.4469  136.4309  156.2260 O   0  0  0  0  0  0  0  0  0  0  0  0
  151.1589  137.9401  153.6722 H   0  0  0  0  0  0  0  0  0  0  0  0
  152.9764  139.7393  155.8729 H   0  0  0  0  0  0  0  0  0  0  0  0
  150.3739  144.0054  159.5073 H   0  0  0  0  0  0  0  0  0  0  0  0
  152.2630  137.0879  155.5476 H   0  0  0  0  0  0  0  0  0  0  0  0
  148.8076  138.1229  152.6194 H   0  0  0  0  0  0  0  0  0  0  0  0
  148.8197  139.1128  155.2198 H   0  0  0  0  0  0  0  0  0  0  0  0
  148.7310  137.4403  154.7029 H   0  0  0  0  0  0  0  0  0  0  0  0
  150.1594  141.8124  155.2979 H   0  0  0  0  0  0  0  0  0  0  0  0
  154.3204  140.8572  160.1781 H   0  0  0  0  0  0  0  0  0  0  0  0
  154.1858  143.0788  160.7349 H   0  0  0  0  0  0  0  0  0  0  0  0
  151.5742  142.6129  160.9838 H   0  0  0  0  0  0  0  0  0  0  0  0
  152.3267  144.1783  161.1323 H   0  0  0  0  0  0  0  0  0  0  0  0
  152.0803  145.5871  159.5255 H   0  0  0  0  0  0  0  0  0  0  0  0
  152.1567  138.2831  157.6521 H   0  0  0  0  0  0  0  0  0  0  0  0
  150.4694  138.7672  157.3432 H   0  0  0  0  0  0  0  0  0  0  0  0
  149.5547  136.6382  155.9918 H   0  0  0  0  0  0  0  0  0  0  0  0
  149.9373  143.7884  156.8352 H   0  0  0  0  0  0  0  0  0  0  0  0
  1  2  1  0  0  0  0
  1 24  1  0  0  0  0
  2  3  1  0  0  0  0
  2 25  1  0  0  0  0
  2 26  1  0  0  0  0
  3 20  1  0  0  0  0
  3 18  1  0  0  0  0
  3  4  1  0  0  0  0
  4  5  1  0  0  0  0
  5 21  1  0  0  0  0
  5  6  1  0  0  0  0
  5 17  1  0  0  0  0
  6 10  1  0  0  0  0
  6  7  1  0  0  0  0
  7  8  2  0  0  0  0
  7 27  1  0  0  0  0
  8  9  1  0  0  0  0
  8 36  1  0  0  0  0
  9 15  1  0  0  0  0
  9 10  2  0  0  0  0
 10 11  1  0  0  0  0
 11 12  2  0  0  0  0
 12 13  1  0  0  0  0
 12 28  1  0  0  0  0
 13 14  1  0  0  0  0
 13 29  1  0  0  0  0
 14 15  1  0  0  0  0
 14 30  1  0  0  0  0
 14 31  1  0  0  0  0
 15 22  1  0  0  0  0
 15 16  1  0  0  0  0
 16 32  1  0  0  0  0
 17 18  1  0  0  0  0
 17 33  1  0  0  0  0
 17 34  1  0  0  0  0
 18 23  1  0  0  0  0
 18 19  1  0  0  0  0
 19 35  1  0  0  0  0
M  CHG  1   8   1
M  END
> <s_m_source_file>
AV-unprocessed.smi

> <i_m_source_file_index>
157

> <i_lp_mmshare_version>
43012

> <i_f3d_flags>
0

> <s_epik_input>
W09IXVtDSDJdW0NASF0xT1tDQEhdKFtDSDJdW0NAQEhdMVtPSF0pbihbY0hdbjIpYyhjMjMpTj1bQ0hdW05IXVtDSDJdW0NASF0zW09IXQ==

> <s_epik_cmdline>
J2VwaWtfcHl0aG9uJywgJy1waCcsICc3LjAnLCAnLXRuJywgJzgnLCAnLW1hJywgJzIwMCcsICctbWV0YWxfYmluZGluZycsICctaW1hZScsICc8aW5maWxlLm1hZT4nLCAnLW9tYWUnLCAnPG91dGZpbGUubWFlPic=

> <r_epik_Ionization_Penalty>
1.68594

> <r_epik_Ionization_Penalty_Charging>
0

> <r_epik_Ionization_Penalty_Neutral>
1.68594

> <r_epik_State_Penalty>
1.79006

> <r_epik_Charging_Adjusted_Penalty>
1.79006

> <i_epik_Tot_Q>
1

> <i_epik_Tot_abs_Q>
1

> <r_epik_Metal_State_Penalty>
5.85324

> <b_epik_Metal_Only>
0

> <s_epik_Chemistry_Notes>
This compound has an imine and may undergo hydrolysis. This compound contains an acetal/aminal-like group ( X-CH(R)-Y where X, Y are N, S, or O) that may be acid/base labile, releasing an aldehyde.

> <s_lp_Force_Field>
OPLS_2005

> <r_lp_Energy>
55.0394

> <b_lp_Chiralities_Consistent>
1

> <s_lp_Variant>
AV-unprocessed.smi:157-25

> <Gold.Version>
5.8.1

> <Gold.Id.Protein>
6NUR|6NUR_protein|mol2

> <Gold.PLP.Fitness>
46.3152

> <Gold.PLP.PLP>
-34.6312

> <Gold.PLP.part.hbond>
-3.5198

> <Gold.PLP.part.metal>
0.0000

> <Gold.PLP.part.buried>
-8.5423

> <Gold.PLP.part.nonpolar>
-22.8929

> <Gold.PLP.part.repulsive>
0.1017

> <Gold.PLP.ligand.clash>
0.0000

> <Gold.PLP.ligand.torsion>
0.1651

> <Gold.PLP.Chemscore.Hbond>
4.0000

> <Gold.PLP.Chemscore.CHOScore>
0.0000

> <Gold.PLP.Chemscore.Metal>
0.0000

> <Gold.Chemscore.Hbonds>
donor molecule, donor type, donor heavy atom, donor atom, acceptor molecule, acceptor atom, score
      L1  H     1    24       P1  7948  1.00
      L1  H     8    36       P1  8028  1.98
      P1  H  7989  7998       L1     4  1.00

> <Gold.PLP.Chemscore.Internal.Correction>
0.0142

> <Gold.Rescore>
     Score         DG    S(hbond)    S(metal)    S(lipo)     H(rot)  DE(clash)    DE(int)     intcor
     12.12     -12.32       2.95        0.00      54.31       3.67       0.05       0.15       ----

> <Gold.Chemscore.Fitness>
12.1175

> <Gold.Chemscore.DG>
-12.3165

> <Gold.Chemscore.ZeroCoef>
-5.4800

> <Gold.Chemscore.Hbond>
2.9541

> <Gold.Chemscore.Metal>
0.0000

> <Gold.Chemscore.Lipo>
54.3143

> <Gold.Chemscore.Internal_Hbond>
0.0000

> <Gold.Chemscore.DEClash>
0.0484

> <Gold.Chemscore.DEInternal>
0.1507

> <Gold.Chemscore.Rot>
3.6659

> <Gold.Chemscore.Internal.Correction>
   9.000000E+99

> <Gold.Chemscore.Hbonds>
donor molecule, donor type, donor heavy atom, donor atom, acceptor molecule, acceptor atom, score
      L1  H     1    24       P1  7948  0.95
      L1  H     8    36       P1  8028  0.93
      P1  H  7989  7998       L1     4  0.95

> <Gold.Chemscore.Hbond.Weighted>
-9.8665

> <Gold.Chemscore.Metal.Weighted>
-0.0000

> <Gold.Chemscore.Lipo.Weighted>
-6.3548

> <Gold.Chemscore.Internal_Hbond.Weighted>
0.0000

> <Gold.Chemscore.DEClash.Weighted>
0.0484

> <Gold.Chemscore.DEInternal.Weighted>
0.1507

> <Gold.Chemscore.Rot.Weighted>
9.3848

> <Gold.Chemscore.Internal.Correction.Weighted>
   9.000000E+99

> <Gold.Protein.RotatedTorsions>
[ 6907 6896 6895 6894 ] final -134.55 input  -60.11 | X-H torsion
[ 7974 7965 7964 7962 ] final   28.26 input  175.53 | X-H torsion
[ 8008 7997 7996 7995 ] final -146.80 input   59.86 | X-H torsion
[ 10167 10162 10161 10158 ] final  -84.22 input  -65.29 | X-H torsion
[ 10718 10713 10712 10709 ] final   27.05 input   66.30 | X-H torsion
[ 10763 10752 10751 10750 ] final  -67.71 input  -60.55 | X-H torsion
[ 11005 11000 10999 10996 ] final  -37.43 input  -57.11 | X-H torsion

> <Gold.Protein.ActiveResidues>
 VAL166  LYS551  ARG553  GLY616  TRP617  ASP618  TYR619  PRO620  LYS621  CYS622 
 ASP623  PHE694  ASN695  SER759  ASP760  ASP761  ALA762  ILE779  LEU786  VAL792 
 PHE793  MET794  SER795  GLU796  ALA797  LYS798  CYS799  TRP800  GLU811  SER814 

> <Gold.Protein.RotatedAtoms>
  150.9872  133.6186  159.2713 H   0  0  0  0  0  0  0  0  0  0  0  0  # atno 6907 bound_to 6896
  151.3420  135.0864  159.9384 H   0  0  0  0  0  0  0  0  0  0  0  0  # atno 6908 bound_to 6896
  152.5234  133.9481  159.7713 H   0  0  0  0  0  0  0  0  0  0  0  0  # atno 6909 bound_to 6896
  146.1739  139.7080  142.8948 H   0  0  0  0  0  0  0  0  0  0  0  0  # atno 7974 bound_to 7965
  155.5652  140.0629  157.2819 H   0  0  0  0  0  0  0  0  0  0  0  0  # atno 8008 bound_to 7997
  154.4378  140.1878  156.0869 H   0  0  0  0  0  0  0  0  0  0  0  0  # atno 8009 bound_to 7997
  156.0417  140.3295  155.7255 H   0  0  0  0  0  0  0  0  0  0  0  0  # atno 8010 bound_to 7997
  140.4153  143.2606  151.8963 H   0  0  0  0  0  0  0  0  0  0  0  0  # atno 10167 bound_to 10162
  157.2150  130.6952  149.6245 H   0  0  0  0  0  0  0  0  0  0  0  0  # atno 10718 bound_to 10713
  154.3784  135.6079  153.5777 H   0  0  0  0  0  0  0  0  0  0  0  0  # atno 10763 bound_to 10752
  152.9788  135.5855  154.4439 H   0  0  0  0  0  0  0  0  0  0  0  0  # atno 10764 bound_to 10752
  154.4204  135.2846  155.1957 H   0  0  0  0  0  0  0  0  0  0  0  0  # atno 10765 bound_to 10752
  140.9951  133.6984  156.1919 H   0  0  0  0  0  0  0  0  0  0  0  0  # atno 11005 bound_to 11000
  145.4266  141.0411  143.2934 LP  0  0  0  0  0  0  0  0  0  0  0  0  # atno 17320 bound_to 7965
  144.8205  139.5800  143.6989 LP  0  0  0  0  0  0  0  0  0  0  0  0  # atno 17321 bound_to 7965
  139.4782  144.5495  151.8408 LP  0  0  0  0  0  0  0  0  0  0  0  0  # atno 17342 bound_to 10162
  140.4594  144.1744  150.5904 LP  0  0  0  0  0  0  0  0  0  0  0  0  # atno 17343 bound_to 10162
  155.9687  130.4538  150.5828 LP  0  0  0  0  0  0  0  0  0  0  0  0  # atno 17370 bound_to 10713
  157.3634  131.0753  151.1618 LP  0  0  0  0  0  0  0  0  0  0  0  0  # atno 17371 bound_to 10713
  140.6979  134.4596  157.5587 LP  0  0  0  0  0  0  0  0  0  0  0  0  # atno 17394 bound_to 11000
  139.9011  134.8555  156.1894 LP  0  0  0  0  0  0  0  0  0  0  0  0  # atno 17395 bound_to 11000

$$$$
