AV-unprocessed.smi:2862|AV-procd|sdf|11011|dock8
  -GOLD-   2272015473D 1   1.00000     0.00000
 Structure written by MMmdl.
 52 54  0  0  0  0  0  0  0  0  1 V2000
  142.9555  137.5975  154.0158 C   0  0  0  0  0  0  0  0  0  0  0  0
  143.4450  137.2103  152.6094 C   0  0  1  0  0  0  0  0  0  0  0  0
  144.7356  137.8283  152.3070 N   0  0  0  0  0  0  0  0  0  0  0  0
  145.8099  137.8910  153.1109 C   0  0  0  0  0  0  0  0  0  0  0  0
  145.8226  137.4639  154.2662 O   0  0  0  0  0  0  0  0  0  0  0  0
  147.0607  138.5488  152.5099 C   0  0  0  0  0  0  0  0  0  0  0  0
  147.5511  139.6838  153.3106 N   0  0  0  0  0  0  0  0  0  0  0  0
  146.8067  140.8795  153.2507 C   0  0  0  0  0  0  0  0  0  0  0  0
  147.1502  141.9713  153.9519 C   0  0  0  0  0  0  0  0  0  0  0  0
  148.3076  141.8983  154.8105 C   0  0  0  0  0  0  0  0  0  0  0  0
  149.0134  140.7511  154.8930 C   0  0  0  0  0  0  0  0  0  0  0  0
  150.1925  140.6592  155.7582 C   0  0  0  0  0  0  0  0  0  0  0  0
  151.3260  140.5531  155.2886 O   0  0  0  0  0  0  0  0  0  0  0  0
  149.9680  140.7018  157.1046 N   0  0  0  0  0  0  0  0  0  0  0  0
  148.7457  141.2601  157.7089 C   0  0  0  0  0  0  0  0  0  0  0  0
  150.9948  140.3270  158.1007 C   0  0  1  0  0  0  0  0  0  0  0  0
  151.4649  138.8703  157.9142 C   0  0  0  0  0  0  0  0  0  0  0  0
  152.1771  141.2831  158.1886 C   0  0  0  0  0  0  0  0  0  0  0  0
  153.1068  141.2608  159.3785 C   0  0  0  0  0  0  0  0  0  0  0  0
  152.1790  142.4357  159.1637 C   0  0  0  0  0  0  0  0  0  0  0  0
  148.6853  139.5639  154.0692 C   0  0  0  0  0  0  0  0  0  0  0  0
  149.3621  138.5314  154.0437 O   0  0  0  0  0  0  0  0  0  0  0  0
  143.3978  135.7049  152.3925 C   0  0  0  0  0  0  0  0  0  0  0  0
  144.6353  134.8552  152.5508 C   0  0  0  0  0  0  0  0  0  0  0  0
  144.0358  135.0733  151.1788 C   0  0  0  0  0  0  0  0  0  0  0  0
  141.9353  137.2506  154.1807 H   0  0  0  0  0  0  0  0  0  0  0  0
  142.9589  138.6795  154.1504 H   0  0  0  0  0  0  0  0  0  0  0  0
  143.5783  137.1614  154.7971 H   0  0  0  0  0  0  0  0  0  0  0  0
  142.7477  137.6569  151.8993 H   0  0  0  0  0  0  0  0  0  0  0  0
  144.8318  138.2189  151.3808 H   0  0  0  0  0  0  0  0  0  0  0  0
  147.8532  137.8052  152.4035 H   0  0  0  0  0  0  0  0  0  0  0  0
  146.8208  138.8597  151.4923 H   0  0  0  0  0  0  0  0  0  0  0  0
  145.9447  140.8540  152.6000 H   0  0  0  0  0  0  0  0  0  0  0  0
  146.5656  142.8771  153.8877 H   0  0  0  0  0  0  0  0  0  0  0  0
  148.5852  142.7592  155.4020 H   0  0  0  0  0  0  0  0  0  0  0  0
  148.2166  141.9489  157.0493 H   0  0  0  0  0  0  0  0  0  0  0  0
  148.9726  141.8317  158.6093 H   0  0  0  0  0  0  0  0  0  0  0  0
  148.0605  140.4595  157.9888 H   0  0  0  0  0  0  0  0  0  0  0  0
  150.5209  140.3354  159.0839 H   0  0  0  0  0  0  0  0  0  0  0  0
  152.0815  138.5526  158.7555 H   0  0  0  0  0  0  0  0  0  0  0  0
  152.0612  138.7379  157.0117 H   0  0  0  0  0  0  0  0  0  0  0  0
  150.6156  138.1884  157.8570 H   0  0  0  0  0  0  0  0  0  0  0  0
  152.6640  141.4735  157.2347 H   0  0  0  0  0  0  0  0  0  0  0  0
  152.8730  140.5791  160.1939 H   0  0  0  0  0  0  0  0  0  0  0  0
  154.1672  141.4152  159.1891 H   0  0  0  0  0  0  0  0  0  0  0  0
  152.6196  143.3728  158.8298 H   0  0  0  0  0  0  0  0  0  0  0  0
  151.3307  142.5334  159.8381 H   0  0  0  0  0  0  0  0  0  0  0  0
  142.4662  135.2435  152.7149 H   0  0  0  0  0  0  0  0  0  0  0  0
  145.5721  135.3611  152.7767 H   0  0  0  0  0  0  0  0  0  0  0  0
  144.5135  133.8743  153.0058 H   0  0  0  0  0  0  0  0  0  0  0  0
  143.5166  134.2355  150.7176 H   0  0  0  0  0  0  0  0  0  0  0  0
  144.5753  135.7235  150.4926 H   0  0  0  0  0  0  0  0  0  0  0  0
  1  2  1  0  0  0  0
  1 26  1  0  0  0  0
  1 27  1  0  0  0  0
  1 28  1  0  0  0  0
  2  3  1  0  0  0  0
  2 23  1  0  0  0  0
  2 29  1  0  0  0  0
  3  4  1  0  0  0  0
  3 30  1  0  0  0  0
  4  5  2  0  0  0  0
  4  6  1  0  0  0  0
  6  7  1  0  0  0  0
  6 31  1  0  0  0  0
  6 32  1  0  0  0  0
  7 21  1  0  0  0  0
  7  8  1  0  0  0  0
  8  9  2  0  0  0  0
  8 33  1  0  0  0  0
  9 10  1  0  0  0  0
  9 34  1  0  0  0  0
 10 11  2  0  0  0  0
 10 35  1  0  0  0  0
 11 12  1  0  0  0  0
 11 21  1  0  0  0  0
 12 13  2  0  0  0  0
 12 14  1  0  0  0  0
 14 15  1  0  0  0  0
 14 16  1  0  0  0  0
 15 36  1  0  0  0  0
 15 37  1  0  0  0  0
 15 38  1  0  0  0  0
 16 17  1  0  0  0  0
 16 18  1  0  0  0  0
 16 39  1  0  0  0  0
 17 40  1  0  0  0  0
 17 41  1  0  0  0  0
 17 42  1  0  0  0  0
 18 20  1  0  0  0  0
 18 19  1  0  0  0  0
 18 43  1  0  0  0  0
 19 20  1  0  0  0  0
 19 44  1  0  0  0  0
 19 45  1  0  0  0  0
 20 46  1  0  0  0  0
 20 47  1  0  0  0  0
 21 22  2  0  0  0  0
 23 25  1  0  0  0  0
 23 24  1  0  0  0  0
 23 48  1  0  0  0  0
 24 25  1  0  0  0  0
 24 49  1  0  0  0  0
 24 50  1  0  0  0  0
 25 51  1  0  0  0  0
 25 52  1  0  0  0  0
M  END
> <s_m_source_file>
AV-unprocessed.smi

> <i_m_source_file_index>
2862

> <i_lp_mmshare_version>
43012

> <i_f3d_flags>
0

> <s_epik_input>
W0NIMl0xW0NIMl1bQ0hdMVtDQEhdKFtDSDNdKVtOSF1DKD1PKVtDSDJdbjJbY0hdW2NIXVtjSF1jKGMyPU8pQyg9TylOKFtDSDNdKVtDQEhdKFtDSDNdKVtDSF0zW0NIMl1bQ0gyXTM=

> <s_epik_cmdline>
J2VwaWtfcHl0aG9uJywgJy1waCcsICc3LjAnLCAnLXRuJywgJzgnLCAnLW1hJywgJzIwMCcsICctbWV0YWxfYmluZGluZycsICctaW1hZScsICc8aW5maWxlLm1hZT4nLCAnLW9tYWUnLCAnPG91dGZpbGUubWFlPic=

> <r_lp_tautomer_probability>
1

> <r_epik_Ionization_Penalty>
4.00841e-08

> <r_epik_Ionization_Penalty_Charging>
2.07773e-08

> <r_epik_Ionization_Penalty_Neutral>
1.93069e-08

> <r_epik_State_Penalty>
-0

> <r_epik_Charging_Adjusted_Penalty>
2.07773e-08

> <i_epik_Tot_Q>
0

> <i_epik_Tot_abs_Q>
0

> <r_epik_Metal_State_Penalty>
-0

> <b_epik_Metal_Only>
0

> <s_lp_Force_Field>
OPLS_2005

> <r_lp_Energy>
59.5746

> <b_lp_Chiralities_Consistent>
1

> <s_lp_Variant>
AV-unprocessed.smi:2862-4

> <Gold.Version>
5.8.1

> <Gold.Id.Protein>
6NUR|6NUR_protein|mol2

> <Gold.PLP.Fitness>
47.7506

> <Gold.PLP.PLP>
-41.0253

> <Gold.PLP.part.hbond>
-3.0000

> <Gold.PLP.part.metal>
0.0000

> <Gold.PLP.part.buried>
-1.4334

> <Gold.PLP.part.nonpolar>
-36.8386

> <Gold.PLP.part.repulsive>
0.3551

> <Gold.PLP.ligand.clash>
0.0000

> <Gold.PLP.ligand.torsion>
3.1227

> <Gold.PLP.Chemscore.Hbond>
1.8400

> <Gold.PLP.Chemscore.CHOScore>
1.0000

> <Gold.PLP.Chemscore.Metal>
0.0000

> <Gold.Chemscore.Hbonds>
donor molecule, donor type, donor heavy atom, donor atom, acceptor molecule, acceptor atom, score
      L1  H     3    30       P1 10171  0.85
      P1  H  7989  7998       L1    13  0.88
      L1  C     8    33       P1 10175  0.96

> <Gold.PLP.Chemscore.Internal.Correction>
4.4507

> <Gold.Rescore>
     Score         DG    S(hbond)    S(metal)    S(lipo)     H(rot)  DE(clash)    DE(int)     intcor
     12.25     -17.19       1.70        0.00      89.41       1.73       0.25       4.69       ----

> <Gold.Chemscore.Fitness>
12.2516

> <Gold.Chemscore.DG>
-17.1918

> <Gold.Chemscore.ZeroCoef>
-5.4800

> <Gold.Chemscore.Hbond>
1.7043

> <Gold.Chemscore.Metal>
0.0000

> <Gold.Chemscore.Lipo>
89.4083

> <Gold.Chemscore.Internal_Hbond>
0.0000

> <Gold.Chemscore.DEClash>
0.2522

> <Gold.Chemscore.DEInternal>
4.6880

> <Gold.Chemscore.Rot>
1.7348

> <Gold.Chemscore.Internal.Correction>
   9.000000E+99

> <Gold.Chemscore.Hbonds>
donor molecule, donor type, donor heavy atom, donor atom, acceptor molecule, acceptor atom, score
      L1  H     3    30       P1 10171  0.85
      P1  H  7989  7998       L1    13  0.85

> <Gold.Chemscore.Hbond.Weighted>
-5.6922

> <Gold.Chemscore.Metal.Weighted>
-0.0000

> <Gold.Chemscore.Lipo.Weighted>
-10.4608

> <Gold.Chemscore.Internal_Hbond.Weighted>
0.0000

> <Gold.Chemscore.DEClash.Weighted>
0.2522

> <Gold.Chemscore.DEInternal.Weighted>
4.6880

> <Gold.Chemscore.Rot.Weighted>
4.4412

> <Gold.Chemscore.Internal.Correction.Weighted>
   9.000000E+99

> <Gold.Protein.RotatedTorsions>
[ 6907 6896 6895 6894 ] final  -55.25 input  -60.11 | X-H torsion
[ 7974 7965 7964 7962 ] final  122.42 input  175.53 | X-H torsion
[ 8008 7997 7996 7995 ] final  -83.35 input   59.86 | X-H torsion
[ 10167 10162 10161 10158 ] final -168.32 input  -65.29 | X-H torsion
[ 10718 10713 10712 10709 ] final  140.59 input   66.30 | X-H torsion
[ 10763 10752 10751 10750 ] final -171.45 input  -60.55 | X-H torsion
[ 11005 11000 10999 10996 ] final   46.01 input  -57.11 | X-H torsion

> <Gold.Protein.ActiveResidues>
 VAL166  LYS551  ARG553  GLY616  TRP617  ASP618  TYR619  PRO620  LYS621  CYS622 
 ASP623  PHE694  ASN695  SER759  ASP760  ASP761  ALA762  ILE779  LEU786  VAL792 
 PHE793  MET794  SER795  GLU796  ALA797  LYS798  CYS799  TRP800  GLU811  SER814 

> <Gold.Protein.RotatedAtoms>
  150.8268  134.7502  159.6819 H   0  0  0  0  0  0  0  0  0  0  0  0  # atno 6907 bound_to 6896
  152.4378  134.5649  159.9914 H   0  0  0  0  0  0  0  0  0  0  0  0  # atno 6908 bound_to 6896
  151.5819  133.3339  159.3046 H   0  0  0  0  0  0  0  0  0  0  0  0  # atno 6909 bound_to 6896
  145.1078  139.3474  143.4779 H   0  0  0  0  0  0  0  0  0  0  0  0  # atno 7974 bound_to 7965
  154.6181  140.0620  156.9580 H   0  0  0  0  0  0  0  0  0  0  0  0  # atno 8008 bound_to 7997
  155.1862  140.3303  155.4348 H   0  0  0  0  0  0  0  0  0  0  0  0  # atno 8009 bound_to 7997
  156.2416  140.1889  156.6955 H   0  0  0  0  0  0  0  0  0  0  0  0  # atno 8010 bound_to 7997
  139.5993  144.1045  152.1725 H   0  0  0  0  0  0  0  0  0  0  0  0  # atno 10167 bound_to 10162
  157.4015  131.1017  151.0546 H   0  0  0  0  0  0  0  0  0  0  0  0  # atno 10718 bound_to 10713
  154.6304  135.2886  155.0223 H   0  0  0  0  0  0  0  0  0  0  0  0  # atno 10763 bound_to 10752
  154.1386  135.6522  153.4941 H   0  0  0  0  0  0  0  0  0  0  0  0  # atno 10764 bound_to 10752
  153.0277  135.5327  154.7129 H   0  0  0  0  0  0  0  0  0  0  0  0  # atno 10765 bound_to 10752
  140.1408  134.4586  155.8451 H   0  0  0  0  0  0  0  0  0  0  0  0  # atno 11005 bound_to 11000
  146.3527  140.0983  142.8609 LP  0  0  0  0  0  0  0  0  0  0  0  0  # atno 17320 bound_to 7965
  145.0882  140.9266  143.4785 LP  0  0  0  0  0  0  0  0  0  0  0  0  # atno 17321 bound_to 7965
  140.0637  144.5835  150.7243 LP  0  0  0  0  0  0  0  0  0  0  0  0  # atno 17342 bound_to 10162
  140.7237  143.2614  151.4193 LP  0  0  0  0  0  0  0  0  0  0  0  0  # atno 17343 bound_to 10162
  157.1544  130.6198  149.5592 LP  0  0  0  0  0  0  0  0  0  0  0  0  # atno 17370 bound_to 10713
  155.9824  130.4838  150.6882 LP  0  0  0  0  0  0  0  0  0  0  0  0  # atno 17371 bound_to 10713
  141.2185  133.6832  156.7242 LP  0  0  0  0  0  0  0  0  0  0  0  0  # atno 17394 bound_to 11000
  140.2725  134.8381  157.3860 LP  0  0  0  0  0  0  0  0  0  0  0  0  # atno 17395 bound_to 11000

$$$$
