AV-unprocessed.smi:597|AV-procd|sdf|3020|dock6
  -GOLD-   2262023533D 1   1.00000     0.00000
 Structure written by MMmdl.
 37 38  0  0  0  0  0  0  0  0  3 V2000
  151.5004  140.7082  154.7931 O   0  0  0  0  0  0  0  0  0  0  0  0
  150.6339  141.5833  154.8194 C   0  0  0  0  0  0  0  0  0  0  0  0
  149.5153  141.6187  153.7679 C   0  0  0  0  0  0  0  0  0  0  0  0
  148.1670  141.7203  154.3519 N   0  0  0  0  0  0  0  0  0  0  0  0
  147.2956  142.6729  153.7876 C   0  0  0  0  0  0  0  0  0  0  0  0
  146.0421  142.8572  154.2465 C   0  0  0  0  0  0  0  0  0  0  0  0
  145.1628  143.8437  153.6583 N   0  3  0  0  0  0  0  0  0  0  0  0
  144.0896  144.0763  154.2055 O   0  0  0  0  0  0  0  0  0  0  0  0
  145.5134  144.4170  152.6310 O   0  5  0  0  0  0  0  0  0  0  0  0
  145.6025  142.0331  155.3558 C   0  0  0  0  0  0  0  0  0  0  0  0
  146.4328  141.1233  155.9026 C   0  0  0  0  0  0  0  0  0  0  0  0
  147.7984  140.9281  155.4049 C   0  0  0  0  0  0  0  0  0  0  0  0
  148.5637  140.1031  155.9043 O   0  0  0  0  0  0  0  0  0  0  0  0
  150.5868  142.5425  155.7562 N   0  0  0  0  0  0  0  0  0  0  0  0
  151.5395  142.7015  156.8509 C   0  0  0  0  0  0  0  0  0  0  0  0
  151.3718  141.5729  157.8902 C   0  0  0  0  0  0  0  0  0  0  0  0
  152.3141  141.7674  159.0894 C   0  0  0  0  0  0  0  0  0  0  0  0
  152.1175  143.1472  159.7367 C   0  0  0  0  0  0  0  0  0  0  0  0
  152.2899  144.2729  158.7050 C   0  0  0  0  0  0  0  0  0  0  0  0
  151.3445  144.0811  157.5081 C   0  0  0  0  0  0  0  0  0  0  0  0
  149.7048  142.4590  153.0984 H   0  0  0  0  0  0  0  0  0  0  0  0
  149.5873  140.7310  153.1365 H   0  0  0  0  0  0  0  0  0  0  0  0
  147.7199  143.2396  152.9713 H   0  0  0  0  0  0  0  0  0  0  0  0
  144.6051  142.1395  155.7566 H   0  0  0  0  0  0  0  0  0  0  0  0
  146.0852  140.5208  156.7288 H   0  0  0  0  0  0  0  0  0  0  0  0
  149.8375  143.2175  155.7051 H   0  0  0  0  0  0  0  0  0  0  0  0
  152.5526  142.6605  156.4457 H   0  0  0  0  0  0  0  0  0  0  0  0
  150.3397  141.5463  158.2431 H   0  0  0  0  0  0  0  0  0  0  0  0
  151.5656  140.6031  157.4305 H   0  0  0  0  0  0  0  0  0  0  0  0
  152.1432  140.9829  159.8271 H   0  0  0  0  0  0  0  0  0  0  0  0
  153.3489  141.6621  158.7602 H   0  0  0  0  0  0  0  0  0  0  0  0
  151.1218  143.2051  160.1784 H   0  0  0  0  0  0  0  0  0  0  0  0
  152.8267  143.2796  160.5541 H   0  0  0  0  0  0  0  0  0  0  0  0
  152.1036  145.2392  159.1742 H   0  0  0  0  0  0  0  0  0  0  0  0
  153.3227  144.2931  158.3547 H   0  0  0  0  0  0  0  0  0  0  0  0
  151.5150  144.8722  156.7768 H   0  0  0  0  0  0  0  0  0  0  0  0
  150.3122  144.1885  157.8445 H   0  0  0  0  0  0  0  0  0  0  0  0
  1  2  2  0  0  0  0
  2  3  1  0  0  0  0
  2 14  1  0  0  0  0
  3  4  1  0  0  0  0
  3 21  1  0  0  0  0
  3 22  1  0  0  0  0
  4 12  1  0  0  0  0
  4  5  1  0  0  0  0
  5  6  2  0  0  0  0
  5 23  1  0  0  0  0
  6  7  1  0  0  0  0
  6 10  1  0  0  0  0
  7  8  2  0  0  0  0
  7  9  1  0  0  0  0
 10 11  2  0  0  0  0
 10 24  1  0  0  0  0
 11 12  1  0  0  0  0
 11 25  1  0  0  0  0
 12 13  2  0  0  0  0
 14 15  1  0  0  0  0
 14 26  1  0  0  0  0
 15 20  1  0  0  0  0
 15 16  1  0  0  0  0
 15 27  1  0  0  0  0
 16 17  1  0  0  0  0
 16 28  1  0  0  0  0
 16 29  1  0  0  0  0
 17 18  1  0  0  0  0
 17 30  1  0  0  0  0
 17 31  1  0  0  0  0
 18 19  1  0  0  0  0
 18 32  1  0  0  0  0
 18 33  1  0  0  0  0
 19 20  1  0  0  0  0
 19 34  1  0  0  0  0
 19 35  1  0  0  0  0
 20 36  1  0  0  0  0
 20 37  1  0  0  0  0
M  CHG  1   7   1
M  CHG  1   9  -1
M  END
> <s_m_source_file>
AV-unprocessed.smi

> <i_m_source_file_index>
597

> <i_lp_mmshare_version>
43012

> <i_f3d_flags>
0

> <s_epik_input>
W0NIMl0xW0NIMl1bQ0gyXVtDSDJdW0NIMl1bQ0hdMVtOSF1DKD1PKVtDSDJdbjJbY0hdYyhbTitdKD1PKVtPLV0pW2NIXVtjSF1jMj1P

> <s_epik_cmdline>
J2VwaWtfcHl0aG9uJywgJy1waCcsICc3LjAnLCAnLXRuJywgJzgnLCAnLW1hJywgJzIwMCcsICctbWV0YWxfYmluZGluZycsICctaW1hZScsICc8aW5maWxlLm1hZT4nLCAnLW9tYWUnLCAnPG91dGZpbGUubWFlPic=

> <r_lp_tautomer_probability>
1

> <r_epik_Ionization_Penalty>
1.91289e-08

> <r_epik_Ionization_Penalty_Charging>
8.20451e-11

> <r_epik_Ionization_Penalty_Neutral>
1.90469e-08

> <r_epik_State_Penalty>
-0

> <r_epik_Charging_Adjusted_Penalty>
8.20451e-11

> <i_epik_Tot_Q>
0

> <i_epik_Tot_abs_Q>
2

> <r_epik_Metal_State_Penalty>
-0

> <b_epik_Metal_Only>
0

> <s_lp_Force_Field>
OPLS_2005

> <r_lp_Energy>
19.9817

> <b_lp_Chiralities_Consistent>
1

> <s_lp_Variant>
AV-unprocessed.smi:597-1

> <Gold.Version>
5.8.1

> <Gold.Id.Protein>
6NUR|6NUR_protein|mol2

> <Gold.PLP.Fitness>
43.7271

> <Gold.PLP.PLP>
-41.1553

> <Gold.PLP.part.hbond>
-1.9455

> <Gold.PLP.part.metal>
0.0000

> <Gold.PLP.part.buried>
-3.1992

> <Gold.PLP.part.nonpolar>
-36.3784

> <Gold.PLP.part.repulsive>
0.5013

> <Gold.PLP.ligand.clash>
0.0000

> <Gold.PLP.ligand.torsion>
0.4009

> <Gold.PLP.Chemscore.Hbond>
1.1202

> <Gold.PLP.Chemscore.CHOScore>
0.0000

> <Gold.PLP.Chemscore.Metal>
0.0000

> <Gold.Chemscore.Hbonds>
donor molecule, donor type, donor heavy atom, donor atom, acceptor molecule, acceptor atom, score
      L1  H    14    26       P1  8028  1.00
      P1  H  7989  7998       L1     1  0.17

> <Gold.PLP.Chemscore.Internal.Correction>
0.0129

> <Gold.Rescore>
     Score         DG    S(hbond)    S(metal)    S(lipo)     H(rot)  DE(clash)    DE(int)     intcor
     11.79     -14.71       1.00        0.00      84.55       1.56       0.02       2.90       ----

> <Gold.Chemscore.Fitness>
11.7859

> <Gold.Chemscore.DG>
-14.7059

> <Gold.Chemscore.ZeroCoef>
-5.4800

> <Gold.Chemscore.Hbond>
0.9997

> <Gold.Chemscore.Metal>
0.0000

> <Gold.Chemscore.Lipo>
84.5471

> <Gold.Chemscore.Internal_Hbond>
0.0000

> <Gold.Chemscore.DEClash>
0.0164

> <Gold.Chemscore.DEInternal>
2.9035

> <Gold.Chemscore.Rot>
1.5646

> <Gold.Chemscore.Internal.Correction>
   9.000000E+99

> <Gold.Chemscore.Hbonds>
donor molecule, donor type, donor heavy atom, donor atom, acceptor molecule, acceptor atom, score
      L1  H    14    26       P1  8028  1.00
      P1  H  7989  7998       L1     1  0.01

> <Gold.Chemscore.Hbond.Weighted>
-3.3391

> <Gold.Chemscore.Metal.Weighted>
-0.0000

> <Gold.Chemscore.Lipo.Weighted>
-9.8920

> <Gold.Chemscore.Internal_Hbond.Weighted>
0.0000

> <Gold.Chemscore.DEClash.Weighted>
0.0164

> <Gold.Chemscore.DEInternal.Weighted>
2.9035

> <Gold.Chemscore.Rot.Weighted>
4.0053

> <Gold.Chemscore.Internal.Correction.Weighted>
   9.000000E+99

> <Gold.Protein.RotatedTorsions>
[ 6907 6896 6895 6894 ] final  -43.21 input  -60.11 | X-H torsion
[ 7974 7965 7964 7962 ] final  115.95 input  175.53 | X-H torsion
[ 8008 7997 7996 7995 ] final -170.84 input   59.86 | X-H torsion
[ 10167 10162 10161 10158 ] final -118.93 input  -65.29 | X-H torsion
[ 10718 10713 10712 10709 ] final  -68.73 input   66.30 | X-H torsion
[ 10763 10752 10751 10750 ] final   46.53 input  -60.55 | X-H torsion
[ 11005 11000 10999 10996 ] final  -15.31 input  -57.11 | X-H torsion

> <Gold.Protein.ActiveResidues>
 VAL166  LYS551  ARG553  GLY616  TRP617  ASP618  TYR619  PRO620  LYS621  CYS622 
 ASP623  PHE694  ASN695  SER759  ASP760  ASP761  ALA762  ILE779  LEU786  VAL792 
 PHE793  MET794  SER795  GLU796  ALA797  LYS798  CYS799  TRP800  GLU811  SER814 

> <Gold.Protein.RotatedAtoms>
  150.9465  134.8869  159.7644 H   0  0  0  0  0  0  0  0  0  0  0  0  # atno 6907 bound_to 6896
  152.5102  134.3867  159.9380 H   0  0  0  0  0  0  0  0  0  0  0  0  # atno 6908 bound_to 6896
  151.3885  133.3756  159.2753 H   0  0  0  0  0  0  0  0  0  0  0  0  # atno 6909 bound_to 6896
  145.1857  139.3026  143.4395 H   0  0  0  0  0  0  0  0  0  0  0  0  # atno 7974 bound_to 7965
  155.9237  140.1078  157.1187 H   0  0  0  0  0  0  0  0  0  0  0  0  # atno 8008 bound_to 7997
  154.4058  140.1251  156.4777 H   0  0  0  0  0  0  0  0  0  0  0  0  # atno 8009 bound_to 7997
  155.7165  140.3470  155.4999 H   0  0  0  0  0  0  0  0  0  0  0  0  # atno 8010 bound_to 7997
  140.0521  143.5050  152.2076 H   0  0  0  0  0  0  0  0  0  0  0  0  # atno 10167 bound_to 10162
  156.0490  130.4300  150.2044 H   0  0  0  0  0  0  0  0  0  0  0  0  # atno 10718 bound_to 10713
  152.9810  135.6005  154.3615 H   0  0  0  0  0  0  0  0  0  0  0  0  # atno 10763 bound_to 10752
  154.3296  135.2768  155.2480 H   0  0  0  0  0  0  0  0  0  0  0  0  # atno 10764 bound_to 10752
  154.4610  135.5966  153.6311 H   0  0  0  0  0  0  0  0  0  0  0  0  # atno 10765 bound_to 10752
  140.7953  133.8256  155.9418 H   0  0  0  0  0  0  0  0  0  0  0  0  # atno 11005 bound_to 11000
  146.3445  140.2052  142.8589 LP  0  0  0  0  0  0  0  0  0  0  0  0  # atno 17320 bound_to 7965
  145.0091  140.8699  143.5235 LP  0  0  0  0  0  0  0  0  0  0  0  0  # atno 17321 bound_to 7965
  139.5946  144.7562  151.3316 LP  0  0  0  0  0  0  0  0  0  0  0  0  # atno 17342 bound_to 10162
  140.7212  143.7131  150.7754 LP  0  0  0  0  0  0  0  0  0  0  0  0  # atno 17343 bound_to 10162
  157.0130  130.9956  151.3361 LP  0  0  0  0  0  0  0  0  0  0  0  0  # atno 17370 bound_to 10713
  157.5397  130.8112  149.8014 LP  0  0  0  0  0  0  0  0  0  0  0  0  # atno 17371 bound_to 10713
  140.9349  134.1975  157.4838 LP  0  0  0  0  0  0  0  0  0  0  0  0  # atno 17394 bound_to 11000
  139.8727  134.9848  156.5255 LP  0  0  0  0  0  0  0  0  0  0  0  0  # atno 17395 bound_to 11000

$$$$
