AV-unprocessed.smi:1777|AV-procd|sdf|7178|dock2
  -GOLD-   22720 8413D 1   1.00000     0.00000
 Structure written by MMmdl.
 38 39  0  0  0  0  0  0  0  0  2 V2000
  145.3399  138.1764  153.9141 O   0  0  0  0  0  0  0  0  0  0  0  0
  146.3125  137.6876  153.3396 C   0  0  0  0  0  0  0  0  0  0  0  0
  146.2892  136.4972  152.7228 N   0  0  0  0  0  0  0  0  0  0  0  0
  145.1289  135.6129  152.6189 C   0  0  0  0  0  0  0  0  0  0  0  0
  145.1756  134.6837  151.3801 C   0  0  0  0  0  0  0  0  0  0  0  0
  145.1332  135.5246  150.2407 O   0  0  0  0  0  0  0  0  0  0  0  0
  146.4503  133.8029  151.3178 C   0  0  0  0  0  0  0  0  0  0  0  0
  146.4242  132.7841  150.1636 C   0  0  0  0  0  0  0  0  0  0  0  0
  145.1611  131.9140  150.2100 C   0  0  0  0  0  0  0  0  0  0  0  0
  143.8975  132.7844  150.1954 C   0  0  0  0  0  0  0  0  0  0  0  0
  143.9062  133.7983  151.3530 C   0  0  0  0  0  0  0  0  0  0  0  0
  147.5316  138.2496  153.2675 N   0  0  0  0  0  0  0  0  0  0  0  0
  147.9519  139.5120  153.7677 C   0  0  0  0  0  0  0  0  0  0  0  0
  147.0378  140.5862  153.6892 C   0  0  0  0  0  0  0  0  0  0  0  0
  147.4067  141.8515  154.1899 C   0  0  0  0  0  0  0  0  0  0  0  0
  148.6238  142.0249  154.7487 N   0  3  0  0  0  0  0  0  0  0  0  0
  149.5251  141.0257  154.8598 C   0  0  0  0  0  0  0  0  0  0  0  0
  149.2127  139.7386  154.3769 C   0  0  0  0  0  0  0  0  0  0  0  0
  147.1401  136.1675  152.2911 H   0  0  0  0  0  0  0  0  0  0  0  0
  145.0400  135.0114  153.5253 H   0  0  0  0  0  0  0  0  0  0  0  0
  144.2307  136.2312  152.5926 H   0  0  0  0  0  0  0  0  0  0  0  0
  145.5103  135.0572  149.5110 H   0  0  0  0  0  0  0  0  0  0  0  0
  147.3427  134.4219  151.2212 H   0  0  0  0  0  0  0  0  0  0  0  0
  146.5560  133.2620  152.2590 H   0  0  0  0  0  0  0  0  0  0  0  0
  146.4729  133.3072  149.2078 H   0  0  0  0  0  0  0  0  0  0  0  0
  147.3106  132.1509  150.2108 H   0  0  0  0  0  0  0  0  0  0  0  0
  145.1504  131.2267  149.3636 H   0  0  0  0  0  0  0  0  0  0  0  0
  145.1726  131.2978  151.1099 H   0  0  0  0  0  0  0  0  0  0  0  0
  143.8229  133.3088  149.2420 H   0  0  0  0  0  0  0  0  0  0  0  0
  143.0122  132.1520  150.2662 H   0  0  0  0  0  0  0  0  0  0  0  0
  143.8346  133.2469  152.2917 H   0  0  0  0  0  0  0  0  0  0  0  0
  143.0114  134.4205  151.3028 H   0  0  0  0  0  0  0  0  0  0  0  0
  148.2556  137.6844  152.8484 H   0  0  0  0  0  0  0  0  0  0  0  0
  146.0631  140.4468  153.2438 H   0  0  0  0  0  0  0  0  0  0  0  0
  146.7693  142.7232  154.1621 H   0  0  0  0  0  0  0  0  0  0  0  0
  150.4609  141.2817  155.3352 H   0  0  0  0  0  0  0  0  0  0  0  0
  149.9395  138.9494  154.4948 H   0  0  0  0  0  0  0  0  0  0  0  0
  148.8710  142.9478  155.1070 H   0  0  0  0  0  0  0  0  0  0  0  0
  1  2  2  0  0  0  0
  2  3  1  0  0  0  0
  2 12  1  0  0  0  0
  3  4  1  0  0  0  0
  3 19  1  0  0  0  0
  4  5  1  0  0  0  0
  4 20  1  0  0  0  0
  4 21  1  0  0  0  0
  5 11  1  0  0  0  0
  5  6  1  0  0  0  0
  5  7  1  0  0  0  0
  6 22  1  0  0  0  0
  7  8  1  0  0  0  0
  7 23  1  0  0  0  0
  7 24  1  0  0  0  0
  8  9  1  0  0  0  0
  8 25  1  0  0  0  0
  8 26  1  0  0  0  0
  9 10  1  0  0  0  0
  9 27  1  0  0  0  0
  9 28  1  0  0  0  0
 10 11  1  0  0  0  0
 10 29  1  0  0  0  0
 10 30  1  0  0  0  0
 11 31  1  0  0  0  0
 11 32  1  0  0  0  0
 12 13  1  0  0  0  0
 12 33  1  0  0  0  0
 13 18  1  0  0  0  0
 13 14  2  0  0  0  0
 14 15  1  0  0  0  0
 14 34  1  0  0  0  0
 15 16  2  0  0  0  0
 15 35  1  0  0  0  0
 16 17  1  0  0  0  0
 16 38  1  0  0  0  0
 17 18  2  0  0  0  0
 17 36  1  0  0  0  0
 18 37  1  0  0  0  0
M  CHG  1  16   1
M  END
> <s_m_source_file>
AV-unprocessed.smi

> <i_m_source_file_index>
1777

> <i_lp_mmshare_version>
43012

> <i_f3d_flags>
0

> <s_epik_input>
W2NIXTFbY0hdbltjSF1bY0hdYzFbTkhdQyg9TylbTkhdW0NIMl1DMihbT0hdKVtDSDJdW0NIMl1bQ0gyXVtDSDJdW0NIMl0y

> <s_epik_cmdline>
J2VwaWtfcHl0aG9uJywgJy1waCcsICc3LjAnLCAnLXRuJywgJzgnLCAnLW1hJywgJzIwMCcsICctbWV0YWxfYmluZGluZycsICctaW1hZScsICc8aW5maWxlLm1hZT4nLCAnLW9tYWUnLCAnPG91dGZpbGUubWFlPic=

> <r_epik_Ionization_Penalty>
0.972463

> <r_epik_Ionization_Penalty_Charging>
0.972441

> <r_epik_Ionization_Penalty_Neutral>
2.25472e-05

> <r_epik_State_Penalty>
1.01855

> <r_epik_Charging_Adjusted_Penalty>
1.99099

> <i_epik_Tot_Q>
1

> <i_epik_Tot_abs_Q>
1

> <r_epik_Metal_State_Penalty>
1.12508

> <b_epik_Metal_Only>
0

> <s_lp_Force_Field>
OPLS_2005

> <r_lp_Energy>
24.5751

> <b_lp_Chiralities_Consistent>
1

> <s_lp_Variant>
AV-unprocessed.smi:1777-2

> <Gold.Version>
5.8.1

> <Gold.Id.Protein>
6NUR|6NUR_protein|mol2

> <Gold.PLP.Fitness>
49.4315

> <Gold.PLP.PLP>
-35.3702

> <Gold.PLP.part.hbond>
-4.0000

> <Gold.PLP.part.metal>
0.0000

> <Gold.PLP.part.buried>
-4.6998

> <Gold.PLP.part.nonpolar>
-27.8848

> <Gold.PLP.part.repulsive>
0.6823

> <Gold.PLP.ligand.clash>
0.0000

> <Gold.PLP.ligand.torsion>
0.4728

> <Gold.PLP.Chemscore.Hbond>
5.0000

> <Gold.PLP.Chemscore.CHOScore>
0.0000

> <Gold.PLP.Chemscore.Metal>
0.0000

> <Gold.Chemscore.Hbonds>
donor molecule, donor type, donor heavy atom, donor atom, acceptor molecule, acceptor atom, score
      L1  H     3    19       P1  7948  1.00
      L1  H     6    22       P1  7921  1.00
      L1  H    12    33       P1  7948  1.00
      L1  H    16    38       P1  8028  2.00

> <Gold.PLP.Chemscore.Internal.Correction>
0.0071

> <Gold.Rescore>
     Score         DG    S(hbond)    S(metal)    S(lipo)     H(rot)  DE(clash)    DE(int)     intcor
     22.19     -23.97       3.95        0.00      83.97       1.77       0.13       1.65       ----

> <Gold.Chemscore.Fitness>
22.1947

> <Gold.Chemscore.DG>
-23.9738

> <Gold.Chemscore.ZeroCoef>
-5.4800

> <Gold.Chemscore.Hbond>
3.9495

> <Gold.Chemscore.Metal>
0.0000

> <Gold.Chemscore.Lipo>
83.9688

> <Gold.Chemscore.Internal_Hbond>
0.0000

> <Gold.Chemscore.DEClash>
0.1307

> <Gold.Chemscore.DEInternal>
1.6484

> <Gold.Chemscore.Rot>
1.7664

> <Gold.Chemscore.Internal.Correction>
   9.000000E+99

> <Gold.Chemscore.Hbonds>
donor molecule, donor type, donor heavy atom, donor atom, acceptor molecule, acceptor atom, score
      L1  H     3    19       P1  7948  0.98
      L1  H     6    22       P1  7921  0.96
      L1  H    12    33       P1  7948  0.99
      L1  H    16    38       P1  8028  1.00

> <Gold.Chemscore.Hbond.Weighted>
-13.1914

> <Gold.Chemscore.Metal.Weighted>
-0.0000

> <Gold.Chemscore.Lipo.Weighted>
-9.8244

> <Gold.Chemscore.Internal_Hbond.Weighted>
0.0000

> <Gold.Chemscore.DEClash.Weighted>
0.1307

> <Gold.Chemscore.DEInternal.Weighted>
1.6484

> <Gold.Chemscore.Rot.Weighted>
4.5219

> <Gold.Chemscore.Internal.Correction.Weighted>
   9.000000E+99

> <Gold.Protein.RotatedTorsions>
[ 6907 6896 6895 6894 ] final  -97.48 input  -60.11 | X-H torsion
[ 7974 7965 7964 7962 ] final  -57.30 input  175.53 | X-H torsion
[ 8008 7997 7996 7995 ] final -139.48 input   59.86 | X-H torsion
[ 10167 10162 10161 10158 ] final  114.72 input  -65.29 | X-H torsion
[ 10718 10713 10712 10709 ] final   77.98 input   66.30 | X-H torsion
[ 10763 10752 10751 10750 ] final  -89.09 input  -60.55 | X-H torsion
[ 11005 11000 10999 10996 ] final -131.05 input  -57.11 | X-H torsion

> <Gold.Protein.ActiveResidues>
 VAL166  LYS551  ARG553  GLY616  TRP617  ASP618  TYR619  PRO620  LYS621  CYS622 
 ASP623  PHE694  ASN695  SER759  ASP760  ASP761  ALA762  ILE779  LEU786  VAL792 
 PHE793  MET794  SER795  GLU796  ALA797  LYS798  CYS799  TRP800  GLU811  SER814 

> <Gold.Protein.RotatedAtoms>
  150.7017  134.1342  159.4080 H   0  0  0  0  0  0  0  0  0  0  0  0  # atno 6907 bound_to 6896
  151.9327  135.0247  160.0539 H   0  0  0  0  0  0  0  0  0  0  0  0  # atno 6908 bound_to 6896
  152.2161  133.4913  159.5173 H   0  0  0  0  0  0  0  0  0  0  0  0  # atno 6909 bound_to 6896
  145.8527  140.8341  142.9977 H   0  0  0  0  0  0  0  0  0  0  0  0  # atno 7974 bound_to 7965
  155.4455  140.0535  157.3006 H   0  0  0  0  0  0  0  0  0  0  0  0  # atno 8008 bound_to 7997
  154.4799  140.2077  155.9744 H   0  0  0  0  0  0  0  0  0  0  0  0  # atno 8009 bound_to 7997
  156.1190  140.3191  155.8186 H   0  0  0  0  0  0  0  0  0  0  0  0  # atno 8010 bound_to 7997
  139.6368  144.7120  151.2318 H   0  0  0  0  0  0  0  0  0  0  0  0  # atno 10167 bound_to 10162
  157.6729  130.9847  150.1720 H   0  0  0  0  0  0  0  0  0  0  0  0  # atno 10718 bound_to 10713
  154.6515  135.5353  153.7908 H   0  0  0  0  0  0  0  0  0  0  0  0  # atno 10763 bound_to 10752
  153.0389  135.6483  154.1009 H   0  0  0  0  0  0  0  0  0  0  0  0  # atno 10764 bound_to 10752
  154.0926  135.2939  155.3248 H   0  0  0  0  0  0  0  0  0  0  0  0  # atno 10765 bound_to 10752
  140.9292  134.1342  157.4249 H   0  0  0  0  0  0  0  0  0  0  0  0  # atno 11005 bound_to 11000
  144.6728  140.0977  143.7462 LP  0  0  0  0  0  0  0  0  0  0  0  0  # atno 17320 bound_to 7965
  145.9339  139.2624  143.1308 LP  0  0  0  0  0  0  0  0  0  0  0  0  # atno 17321 bound_to 7965
  140.7470  143.6381  150.8360 LP  0  0  0  0  0  0  0  0  0  0  0  0  # atno 17342 bound_to 10162
  140.0014  143.5740  152.2874 LP  0  0  0  0  0  0  0  0  0  0  0  0  # atno 17343 bound_to 10162
  156.2472  130.3697  149.8272 LP  0  0  0  0  0  0  0  0  0  0  0  0  # atno 17370 bound_to 10713
  156.6055  130.8565  151.3442 LP  0  0  0  0  0  0  0  0  0  0  0  0  # atno 17371 bound_to 10713
  139.8792  134.9999  156.5981 LP  0  0  0  0  0  0  0  0  0  0  0  0  # atno 17394 bound_to 11000
  140.7885  133.8602  155.8626 LP  0  0  0  0  0  0  0  0  0  0  0  0  # atno 17395 bound_to 11000

$$$$
