AV-unprocessed.smi:2359|AV-procd|sdf|9407|dock7
  -GOLD-   2272013 43D 1   1.00000     0.00000
 Structure written by MMmdl.
 40 41  0  0  0  0  0  0  0  0  1 V2000
  153.8803  142.1184  161.0130 C   0  0  0  0  0  0  0  0  0  0  0  0
  152.8948  142.2416  159.8700 C   0  0  0  0  0  0  0  0  0  0  0  0
  152.1509  143.4201  159.6712 C   0  0  0  0  0  0  0  0  0  0  0  0
  151.2469  143.4777  158.5932 C   0  0  0  0  0  0  0  0  0  0  0  0
  151.1068  142.3589  157.7414 C   0  0  0  0  0  0  0  0  0  0  0  0
  150.1641  142.5189  156.6913 N   0  0  0  0  0  0  0  0  0  0  0  0
  149.8224  141.6351  155.7372 C   0  0  0  0  0  0  0  0  0  0  0  0
  150.3085  140.5122  155.5977 O   0  0  0  0  0  0  0  0  0  0  0  0
  148.8698  142.1329  154.9353 N   0  0  0  0  0  0  0  0  0  0  0  0
  148.2751  141.4307  153.8042 C   0  0  0  0  0  0  0  0  0  0  0  0
  146.8777  141.9792  153.4697 C   0  0  0  0  0  0  0  0  0  0  0  0
  146.1694  142.5876  154.6902 C   0  0  2  0  0  0  0  0  0  0  0  0
  145.8826  141.5325  155.7766 C   0  0  0  0  0  0  0  0  0  0  0  0
  145.1059  142.1553  156.9422 C   0  0  0  0  0  0  0  0  0  0  0  0
  143.8575  142.8676  156.4111 C   0  0  0  0  0  0  0  0  0  0  0  0
  144.2383  143.8489  155.2917 C   0  0  0  0  0  0  0  0  0  0  0  0
  144.9351  143.1588  154.2590 O   0  0  0  0  0  0  0  0  0  0  0  0
  151.8291  141.2282  157.9406 N   0  0  0  0  0  0  0  0  0  0  0  0
  152.6955  141.1737  158.9739 C   0  0  0  0  0  0  0  0  0  0  0  0
  153.9661  143.0549  161.5646 H   0  0  0  0  0  0  0  0  0  0  0  0
  154.8680  141.8542  160.6346 H   0  0  0  0  0  0  0  0  0  0  0  0
  153.5581  141.3413  161.7063 H   0  0  0  0  0  0  0  0  0  0  0  0
  152.2665  144.2671  160.3312 H   0  0  0  0  0  0  0  0  0  0  0  0
  150.6670  144.3741  158.4270 H   0  0  0  0  0  0  0  0  0  0  0  0
  149.6842  143.4063  156.6716 H   0  0  0  0  0  0  0  0  0  0  0  0
  148.5279  143.0642  155.1218 H   0  0  0  0  0  0  0  0  0  0  0  0
  148.9303  141.4947  152.9338 H   0  0  0  0  0  0  0  0  0  0  0  0
  148.2097  140.3738  154.0642 H   0  0  0  0  0  0  0  0  0  0  0  0
  146.9539  142.7274  152.6796 H   0  0  0  0  0  0  0  0  0  0  0  0
  146.2635  141.1714  153.0693 H   0  0  0  0  0  0  0  0  0  0  0  0
  146.8024  143.3727  155.1083 H   0  0  0  0  0  0  0  0  0  0  0  0
  145.3036  140.7125  155.3498 H   0  0  0  0  0  0  0  0  0  0  0  0
  146.8152  141.1001  156.1406 H   0  0  0  0  0  0  0  0  0  0  0  0
  144.8278  141.3901  157.6673 H   0  0  0  0  0  0  0  0  0  0  0  0
  145.7413  142.8701  157.4667 H   0  0  0  0  0  0  0  0  0  0  0  0
  143.1517  142.1317  156.0242 H   0  0  0  0  0  0  0  0  0  0  0  0
  143.3499  143.3938  157.2198 H   0  0  0  0  0  0  0  0  0  0  0  0
  143.3408  144.3013  154.8690 H   0  0  0  0  0  0  0  0  0  0  0  0
  144.8531  144.6630  155.6787 H   0  0  0  0  0  0  0  0  0  0  0  0
  153.2435  140.2499  159.0886 H   0  0  0  0  0  0  0  0  0  0  0  0
  1  2  1  0  0  0  0
  1 20  1  0  0  0  0
  1 21  1  0  0  0  0
  1 22  1  0  0  0  0
  2 19  1  0  0  0  0
  2  3  2  0  0  0  0
  3  4  1  0  0  0  0
  3 23  1  0  0  0  0
  4  5  2  0  0  0  0
  4 24  1  0  0  0  0
  5  6  1  0  0  0  0
  5 18  1  0  0  0  0
  6  7  1  0  0  0  0
  6 25  1  0  0  0  0
  7  8  2  0  0  0  0
  7  9  1  0  0  0  0
  9 10  1  0  0  0  0
  9 26  1  0  0  0  0
 10 11  1  0  0  0  0
 10 27  1  0  0  0  0
 10 28  1  0  0  0  0
 11 12  1  0  0  0  0
 11 29  1  0  0  0  0
 11 30  1  0  0  0  0
 12 17  1  0  0  0  0
 12 13  1  0  0  0  0
 12 31  1  0  0  0  0
 13 14  1  0  0  0  0
 13 32  1  0  0  0  0
 13 33  1  0  0  0  0
 14 15  1  0  0  0  0
 14 34  1  0  0  0  0
 14 35  1  0  0  0  0
 15 16  1  0  0  0  0
 15 36  1  0  0  0  0
 15 37  1  0  0  0  0
 16 17  1  0  0  0  0
 16 38  1  0  0  0  0
 16 39  1  0  0  0  0
 18 19  2  0  0  0  0
 19 40  1  0  0  0  0
M  END
> <s_m_source_file>
AV-unprocessed.smi

> <i_m_source_file_index>
2359

> <i_lp_mmshare_version>
43012

> <i_f3d_flags>
0

> <s_epik_input>
W0NIM11jMVtjSF1bY0hdYyhuW2NIXTEpW05IXUMoPU8pW05IXVtDSDJdW0NIMl1bQ0BASF0yW0NIMl1bQ0gyXVtDSDJdW0NIMl1PMg==

> <s_epik_cmdline>
J2VwaWtfcHl0aG9uJywgJy1waCcsICc3LjAnLCAnLXRuJywgJzgnLCAnLW1hJywgJzIwMCcsICctbWV0YWxfYmluZGluZycsICctaW1hZScsICc8aW5maWxlLm1hZT4nLCAnLW9tYWUnLCAnPG91dGZpbGUubWFlPic=

> <r_lp_tautomer_probability>
1

> <r_epik_Ionization_Penalty>
5.73679e-05

> <r_epik_Ionization_Penalty_Charging>
0

> <r_epik_Ionization_Penalty_Neutral>
5.73679e-05

> <r_epik_State_Penalty>
-0

> <r_epik_Charging_Adjusted_Penalty>
0

> <i_epik_Tot_Q>
0

> <i_epik_Tot_abs_Q>
0

> <r_epik_Metal_State_Penalty>
-0

> <b_epik_Metal_Only>
0

> <s_lp_Force_Field>
OPLS_2005

> <r_lp_Energy>
10.9797

> <b_lp_Chiralities_Consistent>
1

> <s_lp_Variant>
AV-unprocessed.smi:2359-1

> <Gold.Version>
5.8.1

> <Gold.Id.Protein>
6NUR|6NUR_protein|mol2

> <Gold.PLP.Fitness>
42.5205

> <Gold.PLP.PLP>
-37.3196

> <Gold.PLP.part.hbond>
-2.0000

> <Gold.PLP.part.metal>
0.0000

> <Gold.PLP.part.buried>
-7.0209

> <Gold.PLP.part.nonpolar>
-29.1407

> <Gold.PLP.part.repulsive>
0.4911

> <Gold.PLP.ligand.clash>
0.0244

> <Gold.PLP.ligand.torsion>
0.3899

> <Gold.PLP.Chemscore.Hbond>
2.0000

> <Gold.PLP.Chemscore.CHOScore>
0.0000

> <Gold.PLP.Chemscore.Metal>
0.0000

> <Gold.Chemscore.Hbonds>
donor molecule, donor type, donor heavy atom, donor atom, acceptor molecule, acceptor atom, score
      L1  H     6    25       P1  8028  0.96
      L1  H     9    26       P1  8028  0.98

> <Gold.PLP.Chemscore.Internal.Correction>
0.0050

> <Gold.Rescore>
     Score         DG    S(hbond)    S(metal)    S(lipo)     H(rot)  DE(clash)    DE(int)     intcor
     16.48     -18.20       1.97        0.00      83.69       1.42       0.05       1.67       ----

> <Gold.Chemscore.Fitness>
16.4779

> <Gold.Chemscore.DG>
-18.1957

> <Gold.Chemscore.ZeroCoef>
-5.4800

> <Gold.Chemscore.Hbond>
1.9675

> <Gold.Chemscore.Metal>
0.0000

> <Gold.Chemscore.Lipo>
83.6915

> <Gold.Chemscore.Internal_Hbond>
0.0000

> <Gold.Chemscore.DEClash>
0.0451

> <Gold.Chemscore.DEInternal>
1.6728

> <Gold.Chemscore.Rot>
1.4248

> <Gold.Chemscore.Internal.Correction>
   9.000000E+99

> <Gold.Chemscore.Hbonds>
donor molecule, donor type, donor heavy atom, donor atom, acceptor molecule, acceptor atom, score
      L1  H     6    25       P1  8028  0.92
      L1  H     9    26       P1  8028  0.93

> <Gold.Chemscore.Hbond.Weighted>
-6.5714

> <Gold.Chemscore.Metal.Weighted>
-0.0000

> <Gold.Chemscore.Lipo.Weighted>
-9.7919

> <Gold.Chemscore.Internal_Hbond.Weighted>
0.0000

> <Gold.Chemscore.DEClash.Weighted>
0.0451

> <Gold.Chemscore.DEInternal.Weighted>
1.6728

> <Gold.Chemscore.Rot.Weighted>
3.6476

> <Gold.Chemscore.Internal.Correction.Weighted>
   9.000000E+99

> <Gold.Protein.RotatedTorsions>
[ 6907 6896 6895 6894 ] final  157.08 input  -60.11 | X-H torsion
[ 7974 7965 7964 7962 ] final  -60.40 input  175.53 | X-H torsion
[ 8008 7997 7996 7995 ] final -165.94 input   59.86 | X-H torsion
[ 10167 10162 10161 10158 ] final   96.97 input  -65.29 | X-H torsion
[ 10718 10713 10712 10709 ] final -151.19 input   66.30 | X-H torsion
[ 10763 10752 10751 10750 ] final  120.82 input  -60.55 | X-H torsion
[ 11005 11000 10999 10996 ] final  -65.99 input  -57.11 | X-H torsion

> <Gold.Protein.ActiveResidues>
 VAL166  LYS551  ARG553  GLY616  TRP617  ASP618  TYR619  PRO620  LYS621  CYS622 
 ASP623  PHE694  ASN695  SER759  ASP760  ASP761  ALA762  ILE779  LEU786  VAL792 
 PHE793  MET794  SER795  GLU796  ALA797  LYS798  CYS799  TRP800  GLU811  SER814 

> <Gold.Protein.RotatedAtoms>
  152.0203  133.3896  159.4255 H   0  0  0  0  0  0  0  0  0  0  0  0  # atno 6907 bound_to 6896
  150.6891  134.3634  159.4969 H   0  0  0  0  0  0  0  0  0  0  0  0  # atno 6908 bound_to 6896
  152.1406  134.9065  160.0604 H   0  0  0  0  0  0  0  0  0  0  0  0  # atno 6909 bound_to 6896
  145.8160  140.8570  143.0157 H   0  0  0  0  0  0  0  0  0  0  0  0  # atno 7974 bound_to 7965
  155.8568  140.0972  157.1639 H   0  0  0  0  0  0  0  0  0  0  0  0  # atno 8008 bound_to 7997
  154.3988  140.1372  156.3974 H   0  0  0  0  0  0  0  0  0  0  0  0  # atno 8009 bound_to 7997
  155.7901  140.3456  155.5347 H   0  0  0  0  0  0  0  0  0  0  0  0  # atno 8010 bound_to 7997
  139.7844  144.6876  150.9977 H   0  0  0  0  0  0  0  0  0  0  0  0  # atno 10167 bound_to 10162
  156.4560  130.8190  151.2421 H   0  0  0  0  0  0  0  0  0  0  0  0  # atno 10718 bound_to 10713
  153.6045  135.3442  155.2957 H   0  0  0  0  0  0  0  0  0  0  0  0  # atno 10763 bound_to 10752
  154.8630  135.4235  154.2376 H   0  0  0  0  0  0  0  0  0  0  0  0  # atno 10764 bound_to 10752
  153.3213  135.7038  153.7100 H   0  0  0  0  0  0  0  0  0  0  0  0  # atno 10765 bound_to 10752
  141.1470  133.6691  156.6071 H   0  0  0  0  0  0  0  0  0  0  0  0  # atno 11005 bound_to 11000
  144.6752  140.0464  143.7480 LP  0  0  0  0  0  0  0  0  0  0  0  0  # atno 17320 bound_to 7965
  145.9726  139.2881  143.1089 LP  0  0  0  0  0  0  0  0  0  0  0  0  # atno 17321 bound_to 7965
  140.7819  143.4448  151.0499 LP  0  0  0  0  0  0  0  0  0  0  0  0  # atno 17342 bound_to 10162
  139.8127  143.7929  152.3172 LP  0  0  0  0  0  0  0  0  0  0  0  0  # atno 17343 bound_to 10162
  157.7500  131.0122  150.3377 LP  0  0  0  0  0  0  0  0  0  0  0  0  # atno 17370 bound_to 10713
  156.3766  130.3873  149.7134 LP  0  0  0  0  0  0  0  0  0  0  0  0  # atno 17371 bound_to 10713
  140.3643  134.7661  157.4555 LP  0  0  0  0  0  0  0  0  0  0  0  0  # atno 17394 bound_to 11000
  140.0760  134.5796  155.8590 LP  0  0  0  0  0  0  0  0  0  0  0  0  # atno 17395 bound_to 11000

$$$$
