AV-unprocessed.smi:2742|AV-procd|sdf|10565|dock9
  -GOLD-   2272015 13D 1   1.00000     0.00000
 Structure written by MMmdl.
 37 38  0  0  0  0  0  0  0  0  1 V2000
  153.3217  140.2439  159.9193 C   0  0  0  0  0  0  0  0  0  0  0  0
  153.1710  141.5132  161.2050 S   0  0  0  0  0  0  0  0  0  0  0  0
  152.2688  142.8077  160.3045 C   0  0  1  0  0  0  0  0  0  0  0  0
  152.1618  144.0797  161.1639 C   0  0  0  0  0  0  0  0  0  0  0  0
  151.4201  145.2014  160.4205 C   0  0  0  0  0  0  0  0  0  0  0  0
  152.0936  145.5158  159.0744 C   0  0  0  0  0  0  0  0  0  0  0  0
  152.2320  144.2600  158.1883 C   0  0  2  0  0  0  0  0  0  0  0  0
  150.9305  143.8098  157.6963 N   0  0  0  0  0  0  0  0  0  0  0  0
  150.7250  142.7656  156.8808 C   0  0  0  0  0  0  0  0  0  0  0  0
  151.6313  142.0485  156.4580 O   0  0  0  0  0  0  0  0  0  0  0  0
  149.4169  142.6175  156.6088 N   0  0  0  0  0  0  0  0  0  0  0  0
  148.7691  141.6479  155.7937 C   0  0  0  0  0  0  0  0  0  0  0  0
  149.3191  141.0960  154.6107 C   0  0  0  0  0  0  0  0  0  0  0  0
  148.5616  140.1501  153.8910 C   0  0  0  0  0  0  0  0  0  0  0  0
  147.3303  139.7426  154.2643 N   0  0  0  0  0  0  0  0  0  0  0  0
  146.8042  140.2785  155.3855 C   0  0  0  0  0  0  0  0  0  0  0  0
  147.4770  141.2302  156.1780 C   0  0  0  0  0  0  0  0  0  0  0  0
  146.8884  141.7309  157.2912 F   0  0  0  0  0  0  0  0  0  0  0  0
  152.9387  143.1208  158.9497 C   0  0  0  0  0  0  0  0  0  0  0  0
  153.8056  139.3570  160.3283 H   0  0  0  0  0  0  0  0  0  0  0  0
  153.9207  140.6046  159.0840 H   0  0  0  0  0  0  0  0  0  0  0  0
  152.3378  139.9585  159.5473 H   0  0  0  0  0  0  0  0  0  0  0  0
  151.2600  142.4326  160.1281 H   0  0  0  0  0  0  0  0  0  0  0  0
  151.6452  143.8560  162.0979 H   0  0  0  0  0  0  0  0  0  0  0  0
  153.1599  144.4246  161.4380 H   0  0  0  0  0  0  0  0  0  0  0  0
  150.3826  144.9088  160.2557 H   0  0  0  0  0  0  0  0  0  0  0  0
  151.3916  146.0996  161.0379 H   0  0  0  0  0  0  0  0  0  0  0  0
  151.5389  146.2955  158.5509 H   0  0  0  0  0  0  0  0  0  0  0  0
  153.0853  145.9288  159.2631 H   0  0  0  0  0  0  0  0  0  0  0  0
  152.8511  144.5120  157.3253 H   0  0  0  0  0  0  0  0  0  0  0  0
  150.1264  144.3409  157.9970 H   0  0  0  0  0  0  0  0  0  0  0  0
  148.7953  143.2585  157.0796 H   0  0  0  0  0  0  0  0  0  0  0  0
  150.2895  141.3782  154.2342 H   0  0  0  0  0  0  0  0  0  0  0  0
  148.9554  139.7120  152.9858 H   0  0  0  0  0  0  0  0  0  0  0  0
  145.8159  139.9402  155.6594 H   0  0  0  0  0  0  0  0  0  0  0  0
  153.9775  143.4048  159.1239 H   0  0  0  0  0  0  0  0  0  0  0  0
  152.9720  142.2290  158.3237 H   0  0  0  0  0  0  0  0  0  0  0  0
  1  2  1  0  0  0  0
  1 20  1  0  0  0  0
  1 21  1  0  0  0  0
  1 22  1  0  0  0  0
  2  3  1  0  0  0  0
  3 19  1  0  0  0  0
  3  4  1  0  0  0  0
  3 23  1  0  0  0  0
  4  5  1  0  0  0  0
  4 24  1  0  0  0  0
  4 25  1  0  0  0  0
  5  6  1  0  0  0  0
  5 26  1  0  0  0  0
  5 27  1  0  0  0  0
  6  7  1  0  0  0  0
  6 28  1  0  0  0  0
  6 29  1  0  0  0  0
  7  8  1  0  0  0  0
  7 19  1  0  0  0  0
  7 30  1  0  0  0  0
  8  9  1  0  0  0  0
  8 31  1  0  0  0  0
  9 10  2  0  0  0  0
  9 11  1  0  0  0  0
 11 12  1  0  0  0  0
 11 32  1  0  0  0  0
 12 17  1  0  0  0  0
 12 13  2  0  0  0  0
 13 14  1  0  0  0  0
 13 33  1  0  0  0  0
 14 15  2  0  0  0  0
 14 34  1  0  0  0  0
 15 16  1  0  0  0  0
 16 17  2  0  0  0  0
 16 35  1  0  0  0  0
 17 18  1  0  0  0  0
 19 36  1  0  0  0  0
 19 37  1  0  0  0  0
M  END
> <s_m_source_file>
AV-unprocessed.smi

> <i_m_source_file_index>
2742

> <i_lp_mmshare_version>
43012

> <i_f3d_flags>
0

> <s_epik_input>
W0NIM11TW0NAQEhdMVtDSDJdW0NIMl1bQ0gyXVtDQEhdKFtDSDJdMSlbTkhdQyg9TylbTkhdYzJbY0hdW2NIXW5bY0hdYzJG

> <s_epik_cmdline>
J2VwaWtfcHl0aG9uJywgJy1waCcsICc3LjAnLCAnLXRuJywgJzgnLCAnLW1hJywgJzIwMCcsICctbWV0YWxfYmluZGluZycsICctaW1hZScsICc8aW5maWxlLm1hZT4nLCAnLW9tYWUnLCAnPG91dGZpbGUubWFlPic=

> <r_epik_Ionization_Penalty>
0.00344009

> <r_epik_Ionization_Penalty_Charging>
0

> <r_epik_Ionization_Penalty_Neutral>
0.00344009

> <r_epik_State_Penalty>
0.0024078

> <r_epik_Charging_Adjusted_Penalty>
0.0024078

> <i_epik_Tot_Q>
0

> <i_epik_Tot_abs_Q>
0

> <r_epik_Metal_State_Penalty>
-0

> <b_epik_Metal_Only>
0

> <s_lp_Force_Field>
OPLS_2005

> <r_lp_Energy>
13.9364

> <b_lp_Chiralities_Consistent>
1

> <s_lp_Variant>
AV-unprocessed.smi:2742-4

> <Gold.Version>
5.8.1

> <Gold.Id.Protein>
6NUR|6NUR_protein|mol2

> <Gold.PLP.Fitness>
41.2179

> <Gold.PLP.PLP>
-38.7468

> <Gold.PLP.part.hbond>
-1.9397

> <Gold.PLP.part.metal>
0.0000

> <Gold.PLP.part.buried>
-0.2009

> <Gold.PLP.part.nonpolar>
-37.2858

> <Gold.PLP.part.repulsive>
0.1778

> <Gold.PLP.ligand.clash>
0.0000

> <Gold.PLP.ligand.torsion>
0.2698

> <Gold.PLP.Chemscore.Hbond>
0.0000

> <Gold.PLP.Chemscore.CHOScore>
1.0000

> <Gold.PLP.Chemscore.Metal>
0.0000

> <Gold.Chemscore.Hbonds>
donor molecule, donor type, donor heavy atom, donor atom, acceptor molecule, acceptor atom, score
      L1  C    14    34       P1  7957  0.84

> <Gold.PLP.Chemscore.Internal.Correction>
0.0108

> <Gold.Rescore>
     Score         DG    S(hbond)    S(metal)    S(lipo)     H(rot)  DE(clash)    DE(int)     intcor
     14.36     -15.53       0.00        0.00     111.91       1.19       0.89       0.29       ----

> <Gold.Chemscore.Fitness>
14.3580

> <Gold.Chemscore.DG>
-15.5347

> <Gold.Chemscore.ZeroCoef>
-5.4800

> <Gold.Chemscore.Hbond>
0.0002

> <Gold.Chemscore.Metal>
0.0000

> <Gold.Chemscore.Lipo>
111.9146

> <Gold.Chemscore.Internal_Hbond>
0.0000

> <Gold.Chemscore.DEClash>
0.8891

> <Gold.Chemscore.DEInternal>
0.2875

> <Gold.Chemscore.Rot>
1.1875

> <Gold.Chemscore.Internal.Correction>
   9.000000E+99

> <Gold.Chemscore.Hbonds>
donor molecule, donor type, donor heavy atom, donor atom, acceptor molecule, acceptor atom, score
      L1  H    11    32       P1  8028  0.02

> <Gold.Chemscore.Hbond.Weighted>
-0.0006

> <Gold.Chemscore.Metal.Weighted>
-0.0000

> <Gold.Chemscore.Lipo.Weighted>
-13.0940

> <Gold.Chemscore.Internal_Hbond.Weighted>
0.0000

> <Gold.Chemscore.DEClash.Weighted>
0.8891

> <Gold.Chemscore.DEInternal.Weighted>
0.2875

> <Gold.Chemscore.Rot.Weighted>
3.0400

> <Gold.Chemscore.Internal.Correction.Weighted>
   9.000000E+99

> <Gold.Protein.RotatedTorsions>
[ 6907 6896 6895 6894 ] final  -32.73 input  -60.11 | X-H torsion
[ 7974 7965 7964 7962 ] final  -31.60 input  175.53 | X-H torsion
[ 8008 7997 7996 7995 ] final  -30.46 input   59.86 | X-H torsion
[ 10167 10162 10161 10158 ] final  169.47 input  -65.29 | X-H torsion
[ 10718 10713 10712 10709 ] final   80.29 input   66.30 | X-H torsion
[ 10763 10752 10751 10750 ] final  137.37 input  -60.55 | X-H torsion
[ 11005 11000 10999 10996 ] final  140.46 input  -57.11 | X-H torsion

> <Gold.Protein.ActiveResidues>
 VAL166  LYS551  ARG553  GLY616  TRP617  ASP618  TYR619  PRO620  LYS621  CYS622 
 ASP623  PHE694  ASN695  SER759  ASP760  ASP761  ALA762  ILE779  LEU786  VAL792 
 PHE793  MET794  SER795  GLU796  ALA797  LYS798  CYS799  TRP800  GLU811  SER814 

> <Gold.Protein.RotatedAtoms>
  151.0749  134.9822  159.8326 H   0  0  0  0  0  0  0  0  0  0  0  0  # atno 6907 bound_to 6896
  152.5413  134.2253  159.8814 H   0  0  0  0  0  0  0  0  0  0  0  0  # atno 6908 bound_to 6896
  151.2280  133.4422  159.2636 H   0  0  0  0  0  0  0  0  0  0  0  0  # atno 6909 bound_to 6896
  146.1055  140.5687  142.8801 H   0  0  0  0  0  0  0  0  0  0  0  0  # atno 7974 bound_to 7965
  154.4250  140.1791  156.1410 H   0  0  0  0  0  0  0  0  0  0  0  0  # atno 8008 bound_to 7997
  155.9992  140.3361  155.6804 H   0  0  0  0  0  0  0  0  0  0  0  0  # atno 8009 bound_to 7997
  155.6267  140.0665  157.2652 H   0  0  0  0  0  0  0  0  0  0  0  0  # atno 8010 bound_to 7997
  139.4993  144.3702  151.9732 H   0  0  0  0  0  0  0  0  0  0  0  0  # atno 10167 bound_to 10162
  157.6802  130.9952  150.2057 H   0  0  0  0  0  0  0  0  0  0  0  0  # atno 10718 bound_to 10713
  153.8719  135.3054  155.3442 H   0  0  0  0  0  0  0  0  0  0  0  0  # atno 10763 bound_to 10752
  154.7801  135.4840  153.9830 H   0  0  0  0  0  0  0  0  0  0  0  0  # atno 10764 bound_to 10752
  153.1401  135.6822  153.9137 H   0  0  0  0  0  0  0  0  0  0  0  0  # atno 10765 bound_to 10752
  140.0329  134.9343  157.0697 H   0  0  0  0  0  0  0  0  0  0  0  0  # atno 11005 bound_to 11000
  144.7467  140.5086  143.6830 LP  0  0  0  0  0  0  0  0  0  0  0  0  # atno 17320 bound_to 7965
  145.5769  139.1486  143.3257 LP  0  0  0  0  0  0  0  0  0  0  0  0  # atno 17321 bound_to 7965
  140.3138  144.3507  150.6027 LP  0  0  0  0  0  0  0  0  0  0  0  0  # atno 17342 bound_to 10162
  140.5777  143.2175  151.7485 LP  0  0  0  0  0  0  0  0  0  0  0  0  # atno 17343 bound_to 10162
  156.2738  130.3725  149.8004 LP  0  0  0  0  0  0  0  0  0  0  0  0  # atno 17370 bound_to 10713
  156.5713  130.8426  151.3357 LP  0  0  0  0  0  0  0  0  0  0  0  0  # atno 17371 bound_to 10713
  140.4196  134.1895  155.7164 LP  0  0  0  0  0  0  0  0  0  0  0  0  # atno 17394 bound_to 11000
  141.1841  133.8351  157.1152 LP  0  0  0  0  0  0  0  0  0  0  0  0  # atno 17395 bound_to 11000

$$$$
