AV-unprocessed.smi:2674|AV-procd|sdf|10358|dock1
  -GOLD-   2272014383D 1   1.00000     0.00000
 Structure written by MMmdl.
 45 46  0  0  0  0  0  0  0  0  2 V2000
  146.4062  135.0842  153.3626 C   0  0  0  0  0  0  0  0  0  0  0  0
  146.0789  135.5408  151.9877 N   0  3  2  0  0  0  0  0  0  0  0  0
  145.1998  136.7409  152.0228 C   0  0  0  0  0  0  0  0  0  0  0  0
  145.9814  138.0194  151.6704 C   0  0  0  0  0  0  0  0  0  0  0  0
  147.2793  138.0584  152.3343 N   0  0  0  0  0  0  0  0  0  0  0  0
  147.7117  139.0634  153.1098 C   0  0  0  0  0  0  0  0  0  0  0  0
  147.0385  140.0655  153.3522 O   0  0  0  0  0  0  0  0  0  0  0  0
  148.9517  138.8258  153.5725 N   0  0  0  0  0  0  0  0  0  0  0  0
  149.7403  139.6409  154.4279 C   0  0  0  0  0  0  0  0  0  0  0  0
  151.0157  139.1199  154.7431 C   0  0  0  0  0  0  0  0  0  0  0  0
  151.8738  139.8513  155.5869 C   0  0  0  0  0  0  0  0  0  0  0  0
  151.4337  141.0864  156.0950 C   0  0  0  0  0  0  0  0  0  0  0  0
  150.1495  141.5325  155.7328 C   0  0  0  0  0  0  0  0  0  0  0  0
  149.3251  140.8332  154.9242 N   0  0  0  0  0  0  0  0  0  0  0  0
  145.5767  134.4764  151.0614 C   0  0  0  0  0  0  0  0  0  0  0  0
  144.2198  133.8560  151.4898 C   0  0  0  0  0  0  0  0  0  0  0  0
  143.7619  132.7463  150.5288 C   0  0  0  0  0  0  0  0  0  0  0  0
  144.8215  131.6450  150.3988 C   0  0  0  0  0  0  0  0  0  0  0  0
  146.1697  132.2368  149.9683 C   0  0  0  0  0  0  0  0  0  0  0  0
  146.6251  133.3418  150.9338 C   0  0  0  0  0  0  0  0  0  0  0  0
  145.5442  134.6085  153.8321 H   0  0  0  0  0  0  0  0  0  0  0  0
  146.7089  135.9207  153.9924 H   0  0  0  0  0  0  0  0  0  0  0  0
  147.2392  134.3815  153.3636 H   0  0  0  0  0  0  0  0  0  0  0  0
  144.3709  136.6351  151.3241 H   0  0  0  0  0  0  0  0  0  0  0  0
  144.7331  136.8335  153.0052 H   0  0  0  0  0  0  0  0  0  0  0  0
  146.1554  138.0786  150.5964 H   0  0  0  0  0  0  0  0  0  0  0  0
  145.4024  138.9051  151.9390 H   0  0  0  0  0  0  0  0  0  0  0  0
  147.8943  137.2717  152.1850 H   0  0  0  0  0  0  0  0  0  0  0  0
  149.3835  137.9619  153.2798 H   0  0  0  0  0  0  0  0  0  0  0  0
  151.3387  138.1691  154.3443 H   0  0  0  0  0  0  0  0  0  0  0  0
  152.8524  139.4706  155.8396 H   0  0  0  0  0  0  0  0  0  0  0  0
  152.0632  141.6762  156.7448 H   0  0  0  0  0  0  0  0  0  0  0  0
  149.7737  142.4754  156.1018 H   0  0  0  0  0  0  0  0  0  0  0  0
  145.4268  134.9341  150.0816 H   0  0  0  0  0  0  0  0  0  0  0  0
  144.2986  133.4484  152.4988 H   0  0  0  0  0  0  0  0  0  0  0  0
  143.4349  134.6120  151.5153 H   0  0  0  0  0  0  0  0  0  0  0  0
  142.8228  132.3164  150.8781 H   0  0  0  0  0  0  0  0  0  0  0  0
  143.5580  133.1747  149.5466 H   0  0  0  0  0  0  0  0  0  0  0  0
  144.9339  131.1284  151.3530 H   0  0  0  0  0  0  0  0  0  0  0  0
  144.4951  130.8955  149.6772 H   0  0  0  0  0  0  0  0  0  0  0  0
  146.9219  131.4489  149.9241 H   0  0  0  0  0  0  0  0  0  0  0  0
  146.0879  132.6431  148.9594 H   0  0  0  0  0  0  0  0  0  0  0  0
  147.5864  133.7217  150.5898 H   0  0  0  0  0  0  0  0  0  0  0  0
  146.8108  132.9054  151.9163 H   0  0  0  0  0  0  0  0  0  0  0  0
  146.9540  135.8464  151.5860 H   0  0  0  0  0  0  0  0  0  0  0  0
  1  2  1  0  0  0  0
  1 21  1  0  0  0  0
  1 22  1  0  0  0  0
  1 23  1  0  0  0  0
  2  3  1  0  0  0  0
  2 15  1  0  0  0  0
  2 45  1  0  0  0  0
  3  4  1  0  0  0  0
  3 24  1  0  0  0  0
  3 25  1  0  0  0  0
  4  5  1  0  0  0  0
  4 26  1  0  0  0  0
  4 27  1  0  0  0  0
  5  6  1  0  0  0  0
  5 28  1  0  0  0  0
  6  7  2  0  0  0  0
  6  8  1  0  0  0  0
  8  9  1  0  0  0  0
  8 29  1  0  0  0  0
  9 14  1  0  0  0  0
  9 10  2  0  0  0  0
 10 11  1  0  0  0  0
 10 30  1  0  0  0  0
 11 12  2  0  0  0  0
 11 31  1  0  0  0  0
 12 13  1  0  0  0  0
 12 32  1  0  0  0  0
 13 14  2  0  0  0  0
 13 33  1  0  0  0  0
 15 20  1  0  0  0  0
 15 16  1  0  0  0  0
 15 34  1  0  0  0  0
 16 17  1  0  0  0  0
 16 35  1  0  0  0  0
 16 36  1  0  0  0  0
 17 18  1  0  0  0  0
 17 37  1  0  0  0  0
 17 38  1  0  0  0  0
 18 19  1  0  0  0  0
 18 39  1  0  0  0  0
 18 40  1  0  0  0  0
 19 20  1  0  0  0  0
 19 41  1  0  0  0  0
 19 42  1  0  0  0  0
 20 43  1  0  0  0  0
 20 44  1  0  0  0  0
M  CHG  1   2   1
M  END
> <s_m_source_file>
AV-unprocessed.smi

> <i_m_source_file_index>
2674

> <i_lp_mmshare_version>
43012

> <i_f3d_flags>
0

> <s_epik_input>
W0NIMl0xW0NIMl1bQ0gyXVtDSDJdW0NIMl1bQ0hdMU4oW0NIM10pW0NIMl1bQ0gyXVtOSF1DKD1PKVtOSF1jMltjSF1bY0hdW2NIXVtjSF1uMg==

> <s_epik_cmdline>
J2VwaWtfcHl0aG9uJywgJy1waCcsICc3LjAnLCAnLXRuJywgJzgnLCAnLW1hJywgJzIwMCcsICctbWV0YWxfYmluZGluZycsICctaW1hZScsICc8aW5maWxlLm1hZT4nLCAnLW9tYWUnLCAnPG91dGZpbGUubWFlPic=

> <r_epik_Ionization_Penalty>
0.00206741

> <r_epik_Ionization_Penalty_Charging>
0.00203269

> <r_epik_Ionization_Penalty_Neutral>
3.47205e-05

> <r_epik_State_Penalty>
0.00139005

> <r_epik_Charging_Adjusted_Penalty>
0.00342273

> <i_epik_Tot_Q>
1

> <i_epik_Tot_abs_Q>
1

> <r_epik_Metal_State_Penalty>
-0

> <b_epik_Metal_Only>
0

> <s_lp_Force_Field>
OPLS_2005

> <r_lp_Energy>
21.2235

> <b_lp_Chiralities_Consistent>
1

> <s_lp_Variant>
AV-unprocessed.smi:2674-1

> <Gold.Version>
5.8.1

> <Gold.Id.Protein>
6NUR|6NUR_protein|mol2

> <Gold.PLP.Fitness>
50.5228

> <Gold.PLP.PLP>
-39.0545

> <Gold.PLP.part.hbond>
-3.9230

> <Gold.PLP.part.metal>
0.0000

> <Gold.PLP.part.buried>
0.3612

> <Gold.PLP.part.nonpolar>
-36.0028

> <Gold.PLP.part.repulsive>
0.4540

> <Gold.PLP.ligand.clash>
0.0000

> <Gold.PLP.ligand.torsion>
0.7974

> <Gold.PLP.Chemscore.Hbond>
3.3230

> <Gold.PLP.Chemscore.CHOScore>
1.0000

> <Gold.PLP.Chemscore.Metal>
0.0000

> <Gold.Chemscore.Hbonds>
donor molecule, donor type, donor heavy atom, donor atom, acceptor molecule, acceptor atom, score
      L1  H     2    45       P1  7948  1.95
      L1  H     5    28       P1  7948  0.93
      L1  H     8    29       P1  7948  0.36
      L1  C    13    33       P1  8028  1.00

> <Gold.PLP.Chemscore.Internal.Correction>
0.0943

> <Gold.Rescore>
     Score         DG    S(hbond)    S(metal)    S(lipo)     H(rot)  DE(clash)    DE(int)     intcor
     17.94     -20.31       2.47        0.00      93.51       1.70       0.24       2.13       ----

> <Gold.Chemscore.Fitness>
17.9381

> <Gold.Chemscore.DG>
-20.3114

> <Gold.Chemscore.ZeroCoef>
-5.4800

> <Gold.Chemscore.Hbond>
2.4702

> <Gold.Chemscore.Metal>
0.0000

> <Gold.Chemscore.Lipo>
93.5107

> <Gold.Chemscore.Internal_Hbond>
0.0000

> <Gold.Chemscore.DEClash>
0.2421

> <Gold.Chemscore.DEInternal>
2.1312

> <Gold.Chemscore.Rot>
1.7030

> <Gold.Chemscore.Internal.Correction>
   9.000000E+99

> <Gold.Chemscore.Hbonds>
donor molecule, donor type, donor heavy atom, donor atom, acceptor molecule, acceptor atom, score
      L1  H     2    45       P1  7948  0.88
      L1  H     5    28       P1  7948  0.89
      L1  H     8    29       P1  7948  0.34

> <Gold.Chemscore.Hbond.Weighted>
-8.2504

> <Gold.Chemscore.Metal.Weighted>
-0.0000

> <Gold.Chemscore.Lipo.Weighted>
-10.9408

> <Gold.Chemscore.Internal_Hbond.Weighted>
0.0000

> <Gold.Chemscore.DEClash.Weighted>
0.2421

> <Gold.Chemscore.DEInternal.Weighted>
2.1312

> <Gold.Chemscore.Rot.Weighted>
4.3597

> <Gold.Chemscore.Internal.Correction.Weighted>
   9.000000E+99

> <Gold.Protein.RotatedTorsions>
[ 6907 6896 6895 6894 ] final  -56.52 input  -60.11 | X-H torsion
[ 7974 7965 7964 7962 ] final -100.96 input  175.53 | X-H torsion
[ 8008 7997 7996 7995 ] final   85.77 input   59.86 | X-H torsion
[ 10167 10162 10161 10158 ] final  141.40 input  -65.29 | X-H torsion
[ 10718 10713 10712 10709 ] final  156.27 input   66.30 | X-H torsion
[ 10763 10752 10751 10750 ] final   10.63 input  -60.55 | X-H torsion
[ 11005 11000 10999 10996 ] final   26.11 input  -57.11 | X-H torsion

> <Gold.Protein.ActiveResidues>
 VAL166  LYS551  ARG553  GLY616  TRP617  ASP618  TYR619  PRO620  LYS621  CYS622 
 ASP623  PHE694  ASN695  SER759  ASP760  ASP761  ALA762  ILE779  LEU786  VAL792 
 PHE793  MET794  SER795  GLU796  ALA797  LYS798  CYS799  TRP800  GLU811  SER814 

> <Gold.Protein.RotatedAtoms>
  150.8161  134.7343  159.6730 H   0  0  0  0  0  0  0  0  0  0  0  0  # atno 6907 bound_to 6896
  152.4279  134.5830  159.9963 H   0  0  0  0  0  0  0  0  0  0  0  0  # atno 6908 bound_to 6896
  151.6026  133.3317  159.3086 H   0  0  0  0  0  0  0  0  0  0  0  0  # atno 6909 bound_to 6896
  145.2877  140.9344  143.2895 H   0  0  0  0  0  0  0  0  0  0  0  0  # atno 7974 bound_to 7965
  155.9543  140.3398  155.6435 H   0  0  0  0  0  0  0  0  0  0  0  0  # atno 8008 bound_to 7997
  155.6880  140.0745  157.2477 H   0  0  0  0  0  0  0  0  0  0  0  0  # atno 8009 bound_to 7997
  154.4129  140.1662  156.2042 H   0  0  0  0  0  0  0  0  0  0  0  0  # atno 8010 bound_to 7997
  139.5022  144.6174  151.6132 H   0  0  0  0  0  0  0  0  0  0  0  0  # atno 10167 bound_to 10162
  157.2073  131.0689  151.1990 H   0  0  0  0  0  0  0  0  0  0  0  0  # atno 10718 bound_to 10713
  153.2011  135.6856  153.8230 H   0  0  0  0  0  0  0  0  0  0  0  0  # atno 10763 bound_to 10752
  153.7496  135.3226  155.3319 H   0  0  0  0  0  0  0  0  0  0  0  0  # atno 10764 bound_to 10752
  154.8172  135.4677  154.0778 H   0  0  0  0  0  0  0  0  0  0  0  0  # atno 10765 bound_to 10752
  140.3406  134.2337  155.7690 H   0  0  0  0  0  0  0  0  0  0  0  0  # atno 11005 bound_to 11000
  144.9199  139.4425  143.6546 LP  0  0  0  0  0  0  0  0  0  0  0  0  # atno 17320 bound_to 7965
  146.3195  139.8053  142.8957 LP  0  0  0  0  0  0  0  0  0  0  0  0  # atno 17321 bound_to 7965
  140.5866  143.9854  150.6299 LP  0  0  0  0  0  0  0  0  0  0  0  0  # atno 17342 bound_to 10162
  140.3020  143.3254  152.0962 LP  0  0  0  0  0  0  0  0  0  0  0  0  # atno 17343 bound_to 10162
  157.3708  130.7180  149.6563 LP  0  0  0  0  0  0  0  0  0  0  0  0  # atno 17370 bound_to 10713
  155.9694  130.4199  150.4399 LP  0  0  0  0  0  0  0  0  0  0  0  0  # atno 17371 bound_to 10713
  141.2039  133.7899  157.0313 LP  0  0  0  0  0  0  0  0  0  0  0  0  # atno 17394 bound_to 11000
  140.0784  134.9662  157.1584 LP  0  0  0  0  0  0  0  0  0  0  0  0  # atno 17395 bound_to 11000

$$$$
