AV-unprocessed.smi:1100|AV-procd|sdf|4759|dock2
  -GOLD-   22720 3293D 1   1.00000     0.00000
 Structure written by MMmdl.
 43 44  0  0  0  0  0  0  0  0  1 V2000
  147.5565  139.2864  155.7694 C   0  0  0  0  0  0  0  0  0  0  0  0
  148.5617  138.3479  155.0540 C   0  0  2  0  0  0  0  0  0  0  0  0
  148.1051  136.8738  155.2593 C   0  0  0  0  0  0  0  0  0  0  0  0
  147.9144  136.1425  154.0093 N   0  0  0  0  0  0  0  0  0  0  0  0
  146.7698  135.5600  153.6243 C   0  0  0  0  0  0  0  0  0  0  0  0
  145.7395  135.5938  154.2960 O   0  0  0  0  0  0  0  0  0  0  0  0
  146.9161  134.9583  152.4297 N   0  0  0  0  0  0  0  0  0  0  0  0
  145.9834  134.2138  151.6941 C   0  0  0  0  0  0  0  0  0  0  0  0
  144.5380  134.2703  151.8615 C   0  0  0  0  0  0  0  0  0  0  0  0
  143.7245  133.5099  151.1019 C   0  0  0  0  0  0  0  0  0  0  0  0
  144.2508  132.5990  150.0824 C   0  0  0  0  0  0  0  0  0  0  0  0
  143.5168  131.9070  149.3763 O   0  0  0  0  0  0  0  0  0  0  0  0
  145.6096  132.5657  149.9679 N   0  0  0  0  0  0  0  0  0  0  0  0
  146.2365  131.6827  148.9813 C   0  0  0  0  0  0  0  0  0  0  0  0
  146.4532  133.3629  150.7638 C   0  0  0  0  0  0  0  0  0  0  0  0
  149.9645  138.5880  155.4659 N   0  0  0  0  0  0  0  0  0  0  0  0
  150.9348  138.1534  154.4537 C   0  0  0  0  0  0  0  0  0  0  0  0
  152.3916  138.4308  154.8631 C   0  0  0  0  0  0  0  0  0  0  0  0
  152.5586  139.8150  155.1364 O   0  0  0  0  0  0  0  0  0  0  0  0
  151.6906  140.2624  156.1682 C   0  0  0  0  0  0  0  0  0  0  0  0
  150.2291  140.0003  155.7656 C   0  0  0  0  0  0  0  0  0  0  0  0
  146.5228  139.0728  155.5001 H   0  0  0  0  0  0  0  0  0  0  0  0
  147.7057  140.3318  155.5035 H   0  0  0  0  0  0  0  0  0  0  0  0
  147.6374  139.1981  156.8532 H   0  0  0  0  0  0  0  0  0  0  0  0
  148.4891  138.5619  153.9867 H   0  0  0  0  0  0  0  0  0  0  0  0
  148.8204  136.3011  155.8478 H   0  0  0  0  0  0  0  0  0  0  0  0
  147.1651  136.8512  155.8112 H   0  0  0  0  0  0  0  0  0  0  0  0
  148.7151  136.0715  153.3986 H   0  0  0  0  0  0  0  0  0  0  0  0
  147.8214  135.0497  151.9927 H   0  0  0  0  0  0  0  0  0  0  0  0
  144.0763  134.9054  152.5995 H   0  0  0  0  0  0  0  0  0  0  0  0
  142.6562  133.5678  151.2510 H   0  0  0  0  0  0  0  0  0  0  0  0
  147.3255  131.7010  149.0308 H   0  0  0  0  0  0  0  0  0  0  0  0
  145.9499  131.9780  147.9711 H   0  0  0  0  0  0  0  0  0  0  0  0
  145.9238  130.6487  149.1350 H   0  0  0  0  0  0  0  0  0  0  0  0
  147.5087  133.2431  150.5652 H   0  0  0  0  0  0  0  0  0  0  0  0
  150.8580  137.0825  154.2785 H   0  0  0  0  0  0  0  0  0  0  0  0
  150.7250  138.6474  153.5037 H   0  0  0  0  0  0  0  0  0  0  0  0
  152.6648  137.8429  155.7406 H   0  0  0  0  0  0  0  0  0  0  0  0
  153.0712  138.1423  154.0612 H   0  0  0  0  0  0  0  0  0  0  0  0
  151.9312  139.7548  157.1038 H   0  0  0  0  0  0  0  0  0  0  0  0
  151.8526  141.3279  156.3315 H   0  0  0  0  0  0  0  0  0  0  0  0
  149.9763  140.6157  154.9008 H   0  0  0  0  0  0  0  0  0  0  0  0
  149.6062  140.3414  156.5904 H   0  0  0  0  0  0  0  0  0  0  0  0
  1  2  1  0  0  0  0
  1 22  1  0  0  0  0
  1 23  1  0  0  0  0
  1 24  1  0  0  0  0
  2  3  1  0  0  0  0
  2 16  1  0  0  0  0
  2 25  1  0  0  0  0
  3  4  1  0  0  0  0
  3 26  1  0  0  0  0
  3 27  1  0  0  0  0
  4  5  1  0  0  0  0
  4 28  1  0  0  0  0
  5  6  2  0  0  0  0
  5  7  1  0  0  0  0
  7  8  1  0  0  0  0
  7 29  1  0  0  0  0
  8 15  2  0  0  0  0
  8  9  1  0  0  0  0
  9 10  2  0  0  0  0
  9 30  1  0  0  0  0
 10 11  1  0  0  0  0
 10 31  1  0  0  0  0
 11 12  2  0  0  0  0
 11 13  1  0  0  0  0
 13 14  1  0  0  0  0
 13 15  1  0  0  0  0
 14 32  1  0  0  0  0
 14 33  1  0  0  0  0
 14 34  1  0  0  0  0
 15 35  1  0  0  0  0
 16 21  1  0  0  0  0
 16 17  1  0  0  0  0
 17 18  1  0  0  0  0
 17 36  1  0  0  0  0
 17 37  1  0  0  0  0
 18 19  1  0  0  0  0
 18 38  1  0  0  0  0
 18 39  1  0  0  0  0
 19 20  1  0  0  0  0
 20 21  1  0  0  0  0
 20 40  1  0  0  0  0
 20 41  1  0  0  0  0
 21 42  1  0  0  0  0
 21 43  1  0  0  0  0
M  END
> <s_m_source_file>
AV-unprocessed.smi

> <i_m_source_file_index>
1100

> <i_lp_mmshare_version>
43012

> <i_f3d_flags>
0

> <s_epik_input>
W0NIMl0xW0NIMl1PW0NIMl1bQ0gyXU4xW0NASF0oW0NIM10pW0NIMl1bTkhdQyg9TylbTkhdYzJbY0hdW2NIXWMoPU8pbihbQ0gzXSlbY0hdMg==

> <s_epik_cmdline>
J2VwaWtfcHl0aG9uJywgJy1waCcsICc3LjAnLCAnLXRuJywgJzgnLCAnLW1hJywgJzIwMCcsICctbWV0YWxfYmluZGluZycsICctaW1hZScsICc8aW5maWxlLm1hZT4nLCAnLW9tYWUnLCAnPG91dGZpbGUubWFlPic=

> <r_lp_tautomer_probability>
1

> <r_epik_Ionization_Penalty>
0.266016

> <r_epik_Ionization_Penalty_Charging>
5.79683e-06

> <r_epik_Ionization_Penalty_Neutral>
0.26601

> <r_epik_State_Penalty>
0.257924

> <r_epik_Charging_Adjusted_Penalty>
0.25793

> <i_epik_Tot_Q>
0

> <i_epik_Tot_abs_Q>
0

> <r_epik_Metal_State_Penalty>
0.260326

> <b_epik_Metal_Only>
0

> <s_lp_Force_Field>
OPLS_2005

> <r_lp_Energy>
41.8129

> <b_lp_Chiralities_Consistent>
1

> <s_lp_Variant>
AV-unprocessed.smi:1100-1

> <Gold.Version>
5.8.1

> <Gold.Id.Protein>
6NUR|6NUR_protein|mol2

> <Gold.PLP.Fitness>
43.9498

> <Gold.PLP.PLP>
-33.8170

> <Gold.PLP.part.hbond>
-3.8987

> <Gold.PLP.part.metal>
0.0000

> <Gold.PLP.part.buried>
-2.6798

> <Gold.PLP.part.nonpolar>
-28.2603

> <Gold.PLP.part.repulsive>
0.4921

> <Gold.PLP.ligand.clash>
0.0000

> <Gold.PLP.ligand.torsion>
1.2992

> <Gold.PLP.Chemscore.Hbond>
3.9003

> <Gold.PLP.Chemscore.CHOScore>
0.3301

> <Gold.PLP.Chemscore.Metal>
0.0000

> <Gold.Chemscore.Hbonds>
donor molecule, donor type, donor heavy atom, donor atom, acceptor molecule, acceptor atom, score
      L1  H     4    28       P1  7948  0.74
      L1  H     7    29       P1  7948  0.77
      P1  H  7989  7998       L1    19  0.43
      P1  H  7997  8010       L1    19  0.91
      P1  H 10785 10796       L1    12  0.98
      L1  C    15    35       P1 10747  0.32

> <Gold.PLP.Chemscore.Internal.Correction>
0.0399

> <Gold.Rescore>
     Score         DG    S(hbond)    S(metal)    S(lipo)     H(rot)  DE(clash)    DE(int)     intcor
     16.88     -19.45       3.06        0.00      64.76       1.49       0.36       2.21       ----

> <Gold.Chemscore.Fitness>
16.8800

> <Gold.Chemscore.DG>
-19.4475

> <Gold.Chemscore.ZeroCoef>
-5.4800

> <Gold.Chemscore.Hbond>
3.0582

> <Gold.Chemscore.Metal>
0.0000

> <Gold.Chemscore.Lipo>
64.7624

> <Gold.Chemscore.Internal_Hbond>
0.0000

> <Gold.Chemscore.DEClash>
0.3589

> <Gold.Chemscore.DEInternal>
2.2085

> <Gold.Chemscore.Rot>
1.4938

> <Gold.Chemscore.Internal.Correction>
   9.000000E+99

> <Gold.Chemscore.Hbonds>
donor molecule, donor type, donor heavy atom, donor atom, acceptor molecule, acceptor atom, score
      L1  H     4    28       P1  7948  0.69
      L1  H     7    29       P1  7948  0.55
      P1  H  7989  7998       L1    19  0.06
      P1  H  7997  8010       L1    19  0.24
      P1  H 10785 10796       L1    12  0.93

> <Gold.Chemscore.Hbond.Weighted>
-10.2145

> <Gold.Chemscore.Metal.Weighted>
-0.0000

> <Gold.Chemscore.Lipo.Weighted>
-7.5772

> <Gold.Chemscore.Internal_Hbond.Weighted>
0.0000

> <Gold.Chemscore.DEClash.Weighted>
0.3589

> <Gold.Chemscore.DEInternal.Weighted>
2.2085

> <Gold.Chemscore.Rot.Weighted>
3.8242

> <Gold.Chemscore.Internal.Correction.Weighted>
   9.000000E+99

> <Gold.Protein.RotatedTorsions>
[ 6907 6896 6895 6894 ] final   99.89 input  -60.11 | X-H torsion
[ 7974 7965 7964 7962 ] final -102.75 input  175.53 | X-H torsion
[ 8008 7997 7996 7995 ] final  100.67 input   59.86 | X-H torsion
[ 10167 10162 10161 10158 ] final -101.73 input  -65.29 | X-H torsion
[ 10718 10713 10712 10709 ] final  163.29 input   66.30 | X-H torsion
[ 10763 10752 10751 10750 ] final   95.64 input  -60.55 | X-H torsion
[ 11005 11000 10999 10996 ] final  -58.63 input  -57.11 | X-H torsion

> <Gold.Protein.ActiveResidues>
 VAL166  LYS551  ARG553  GLY616  TRP617  ASP618  TYR619  PRO620  LYS621  CYS622 
 ASP623  PHE694  ASN695  SER759  ASP760  ASP761  ALA762  ILE779  LEU786  VAL792 
 PHE793  MET794  SER795  GLU796  ALA797  LYS798  CYS799  TRP800  GLU811  SER814 

> <Gold.Protein.RotatedAtoms>
  152.5383  134.0360  159.8045 H   0  0  0  0  0  0  0  0  0  0  0  0  # atno 6907 bound_to 6896
  151.0523  133.5606  159.2648 H   0  0  0  0  0  0  0  0  0  0  0  0  # atno 6908 bound_to 6896
  151.2536  135.0638  159.9125 H   0  0  0  0  0  0  0  0  0  0  0  0  # atno 6909 bound_to 6896
  145.2647  140.9280  143.3020 H   0  0  0  0  0  0  0  0  0  0  0  0  # atno 7974 bound_to 7965
  156.1226  140.3209  155.8230 H   0  0  0  0  0  0  0  0  0  0  0  0  # atno 8008 bound_to 7997
  155.4477  140.0530  157.3021 H   0  0  0  0  0  0  0  0  0  0  0  0  # atno 8009 bound_to 7997
  154.4838  140.2064  155.9715 H   0  0  0  0  0  0  0  0  0  0  0  0  # atno 8010 bound_to 7997
  140.2382  143.3558  152.0826 H   0  0  0  0  0  0  0  0  0  0  0  0  # atno 10167 bound_to 10162
  157.1106  131.0467  151.2459 H   0  0  0  0  0  0  0  0  0  0  0  0  # atno 10718 bound_to 10713
  153.2555  135.4247  155.0841 H   0  0  0  0  0  0  0  0  0  0  0  0  # atno 10763 bound_to 10752
  154.8399  135.3436  154.6451 H   0  0  0  0  0  0  0  0  0  0  0  0  # atno 10764 bound_to 10752
  153.6872  135.7035  153.5157 H   0  0  0  0  0  0  0  0  0  0  0  0  # atno 10765 bound_to 10752
  141.1215  133.6613  156.4949 H   0  0  0  0  0  0  0  0  0  0  0  0  # atno 11005 bound_to 11000
  144.9387  139.4214  143.6459 LP  0  0  0  0  0  0  0  0  0  0  0  0  # atno 17320 bound_to 7965
  146.3265  139.8336  142.8903 LP  0  0  0  0  0  0  0  0  0  0  0  0  # atno 17321 bound_to 7965
  139.5086  144.6853  151.5903 LP  0  0  0  0  0  0  0  0  0  0  0  0  # atno 17342 bound_to 10162
  140.6134  143.9394  150.6470 LP  0  0  0  0  0  0  0  0  0  0  0  0  # atno 17343 bound_to 10162
  157.4562  130.7627  149.7195 LP  0  0  0  0  0  0  0  0  0  0  0  0  # atno 17370 bound_to 10713
  155.9851  130.3985  150.3277 LP  0  0  0  0  0  0  0  0  0  0  0  0  # atno 17371 bound_to 10713
  140.4493  134.6943  157.5031 LP  0  0  0  0  0  0  0  0  0  0  0  0  # atno 17394 bound_to 11000
  140.0176  134.6595  155.9286 LP  0  0  0  0  0  0  0  0  0  0  0  0  # atno 17395 bound_to 11000

$$$$
