AV-unprocessed.smi:1757|AV-procd|sdf|7076|dock6
  -GOLD-   22720 8293D 1   1.00000     0.00000
 Structure written by MMmdl.
 40 41  0  0  0  0  0  0  0  0  2 V2000
  147.4346  140.4858  153.3613 C   0  0  0  0  0  0  0  0  0  0  0  0
  146.4466  139.4604  152.9622 N   0  3  2  0  0  0  0  0  0  0  0  0
  146.1820  138.4787  154.0432 C   0  0  0  0  0  0  0  0  0  0  0  0
  145.0534  137.5094  153.6466 C   0  0  0  0  0  0  0  0  0  0  0  0
  145.3401  136.8010  152.3100 C   0  0  2  0  0  0  0  0  0  0  0  0
  146.4174  135.8223  152.4644 N   0  0  0  0  0  0  0  0  0  0  0  0
  146.2691  134.5287  152.7863 C   0  0  0  0  0  0  0  0  0  0  0  0
  145.1761  133.9999  152.9857 O   0  0  0  0  0  0  0  0  0  0  0  0
  147.4658  133.9201  152.8780 N   0  0  0  0  0  0  0  0  0  0  0  0
  147.7607  132.5803  153.1817 C   0  0  0  0  0  0  0  0  0  0  0  0
  147.0672  131.5077  152.7178 C   0  0  0  0  0  0  0  0  0  0  0  0
  147.4329  130.1445  153.0684 C   0  0  0  0  0  0  0  0  0  0  0  0
  146.6534  128.9371  152.5718 C   0  0  0  0  0  0  0  0  0  0  0  0
  145.6121  129.3320  151.8397 F   0  0  0  0  0  0  0  0  0  0  0  0
  147.4289  128.1720  151.8040 F   0  0  0  0  0  0  0  0  0  0  0  0
  146.1984  128.1937  153.5806 F   0  0  0  0  0  0  0  0  0  0  0  0
  148.5034  129.9967  153.8692 C   0  0  0  0  0  0  0  0  0  0  0  0
  149.2289  131.0933  154.3397 N   0  0  0  0  0  0  0  0  0  0  0  0
  148.9339  132.3800  154.0487 C   0  0  0  0  0  0  0  0  0  0  0  0
  149.6248  133.2934  154.4992 O   0  0  0  0  0  0  0  0  0  0  0  0
  145.6937  137.8358  151.2266 C   0  0  0  0  0  0  0  0  0  0  0  0
  146.8060  138.7967  151.6843 C   0  0  0  0  0  0  0  0  0  0  0  0
  150.0222  130.8987  154.9333 H   0  0  0  0  0  0  0  0  0  0  0  0
  148.4112  140.0375  153.5487 H   0  0  0  0  0  0  0  0  0  0  0  0
  147.1133  140.9987  154.2685 H   0  0  0  0  0  0  0  0  0  0  0  0
  147.5469  141.2368  152.5785 H   0  0  0  0  0  0  0  0  0  0  0  0
  147.0958  137.9265  154.2691 H   0  0  0  0  0  0  0  0  0  0  0  0
  145.9001  139.0072  154.9546 H   0  0  0  0  0  0  0  0  0  0  0  0
  144.8928  136.7758  154.4376 H   0  0  0  0  0  0  0  0  0  0  0  0
  144.1208  138.0686  153.5606 H   0  0  0  0  0  0  0  0  0  0  0  0
  144.4259  136.2925  151.9996 H   0  0  0  0  0  0  0  0  0  0  0  0
  147.3579  136.1608  152.3240 H   0  0  0  0  0  0  0  0  0  0  0  0
  148.2783  134.5070  152.7563 H   0  0  0  0  0  0  0  0  0  0  0  0
  146.2276  131.6395  152.0557 H   0  0  0  0  0  0  0  0  0  0  0  0
  148.8791  129.0416  154.2065 H   0  0  0  0  0  0  0  0  0  0  0  0
  145.9869  137.3331  150.3040 H   0  0  0  0  0  0  0  0  0  0  0  0
  144.8025  138.4160  150.9841 H   0  0  0  0  0  0  0  0  0  0  0  0
  146.9702  139.5520  150.9149 H   0  0  0  0  0  0  0  0  0  0  0  0
  147.7476  138.2583  151.8033 H   0  0  0  0  0  0  0  0  0  0  0  0
  145.5778  139.9494  152.7988 H   0  0  0  0  0  0  0  0  0  0  0  0
  1  2  1  0  0  0  0
  1 24  1  0  0  0  0
  1 25  1  0  0  0  0
  1 26  1  0  0  0  0
  2 22  1  0  0  0  0
  2  3  1  0  0  0  0
  2 40  1  0  0  0  0
  3  4  1  0  0  0  0
  3 27  1  0  0  0  0
  3 28  1  0  0  0  0
  4  5  1  0  0  0  0
  4 29  1  0  0  0  0
  4 30  1  0  0  0  0
  5  6  1  0  0  0  0
  5 21  1  0  0  0  0
  5 31  1  0  0  0  0
  6  7  1  0  0  0  0
  6 32  1  0  0  0  0
  7  8  2  0  0  0  0
  7  9  1  0  0  0  0
  9 10  1  0  0  0  0
  9 33  1  0  0  0  0
 10 19  1  0  0  0  0
 10 11  2  0  0  0  0
 11 12  1  0  0  0  0
 11 34  1  0  0  0  0
 12 13  1  0  0  0  0
 12 17  2  0  0  0  0
 13 14  1  0  0  0  0
 13 15  1  0  0  0  0
 13 16  1  0  0  0  0
 17 18  1  0  0  0  0
 17 35  1  0  0  0  0
 18 23  1  0  0  0  0
 18 19  1  0  0  0  0
 19 20  2  0  0  0  0
 21 22  1  0  0  0  0
 21 36  1  0  0  0  0
 21 37  1  0  0  0  0
 22 38  1  0  0  0  0
 22 39  1  0  0  0  0
M  CHG  1   2   1
M  END
> <s_m_source_file>
AV-unprocessed.smi

> <i_m_source_file_index>
1757

> <i_lp_mmshare_version>
43012

> <i_f3d_flags>
0

> <s_epik_input>
W0NIM11OMVtDSDJdW0NIMl1bQ0hdKFtDSDJdW0NIMl0xKVtOSF1DKD1PKVtOSF1jMltjSF1jKEMoRikoRilGKVtjSF1bbkhdYzI9Tw==

> <s_epik_cmdline>
J2VwaWtfcHl0aG9uJywgJy1waCcsICc3LjAnLCAnLXRuJywgJzgnLCAnLW1hJywgJzIwMCcsICctbWV0YWxfYmluZGluZycsICctaW1hZScsICc8aW5maWxlLm1hZT4nLCAnLW9tYWUnLCAnPG91dGZpbGUubWFlPic=

> <r_lp_tautomer_probability>
1

> <r_epik_Ionization_Penalty>
0.00859077

> <r_epik_Ionization_Penalty_Charging>
0.00857233

> <r_epik_Ionization_Penalty_Neutral>
1.84472e-05

> <r_epik_State_Penalty>
-0

> <r_epik_Charging_Adjusted_Penalty>
0.00857233

> <i_epik_Tot_Q>
1

> <i_epik_Tot_abs_Q>
1

> <r_epik_Metal_State_Penalty>
0.377538

> <b_epik_Metal_Only>
0

> <s_lp_Force_Field>
OPLS_2005

> <r_lp_Energy>
26.4268

> <b_lp_Chiralities_Consistent>
1

> <s_lp_Variant>
AV-unprocessed.smi:1757-2

> <Gold.Version>
5.8.1

> <Gold.Id.Protein>
6NUR|6NUR_protein|mol2

> <Gold.PLP.Fitness>
45.6278

> <Gold.PLP.PLP>
-35.3852

> <Gold.PLP.part.hbond>
-3.0000

> <Gold.PLP.part.metal>
0.0000

> <Gold.PLP.part.buried>
2.8096

> <Gold.PLP.part.nonpolar>
-35.4125

> <Gold.PLP.part.repulsive>
0.2083

> <Gold.PLP.ligand.clash>
0.0000

> <Gold.PLP.ligand.torsion>
0.7028

> <Gold.PLP.Chemscore.Hbond>
3.8800

> <Gold.PLP.Chemscore.CHOScore>
0.0000

> <Gold.PLP.Chemscore.Metal>
0.0000

> <Gold.Chemscore.Hbonds>
donor molecule, donor type, donor heavy atom, donor atom, acceptor molecule, acceptor atom, score
      L1  H     2    40       P1 10175  2.00
      L1  H     6    32       P1  7948  1.00
      L1  H     9    33       P1  7948  0.88

> <Gold.PLP.Chemscore.Internal.Correction>
0.0082

> <Gold.Rescore>
     Score         DG    S(hbond)    S(metal)    S(lipo)     H(rot)  DE(clash)    DE(int)     intcor
     16.54     -19.22       2.49        0.00      68.34       1.00       1.91       0.78       ----

> <Gold.Chemscore.Fitness>
16.5351

> <Gold.Chemscore.DG>
-19.2226

> <Gold.Chemscore.ZeroCoef>
-5.4800

> <Gold.Chemscore.Hbond>
2.4872

> <Gold.Chemscore.Metal>
0.0000

> <Gold.Chemscore.Lipo>
68.3353

> <Gold.Chemscore.Internal_Hbond>
0.0000

> <Gold.Chemscore.DEClash>
1.9075

> <Gold.Chemscore.DEInternal>
0.7800

> <Gold.Chemscore.Rot>
1.0000

> <Gold.Chemscore.Internal.Correction>
   9.000000E+99

> <Gold.Chemscore.Hbonds>
donor molecule, donor type, donor heavy atom, donor atom, acceptor molecule, acceptor atom, score
      L1  H     2    40       P1 10175  0.96
      L1  H     6    32       P1  7948  0.99
      L1  H     9    33       P1  7948  0.29

> <Gold.Chemscore.Hbond.Weighted>
-8.3074

> <Gold.Chemscore.Metal.Weighted>
-0.0000

> <Gold.Chemscore.Lipo.Weighted>
-7.9952

> <Gold.Chemscore.Internal_Hbond.Weighted>
0.0000

> <Gold.Chemscore.DEClash.Weighted>
1.9075

> <Gold.Chemscore.DEInternal.Weighted>
0.7800

> <Gold.Chemscore.Rot.Weighted>
2.5600

> <Gold.Chemscore.Internal.Correction.Weighted>
   9.000000E+99

> <Gold.Protein.RotatedTorsions>
[ 6907 6896 6895 6894 ] final   55.72 input  -60.11 | X-H torsion
[ 7974 7965 7964 7962 ] final  134.15 input  175.53 | X-H torsion
[ 8008 7997 7996 7995 ] final  -42.22 input   59.86 | X-H torsion
[ 10167 10162 10161 10158 ] final   53.88 input  -65.29 | X-H torsion
[ 10718 10713 10712 10709 ] final   54.01 input   66.30 | X-H torsion
[ 10763 10752 10751 10750 ] final -175.34 input  -60.55 | X-H torsion
[ 11005 11000 10999 10996 ] final -131.98 input  -57.11 | X-H torsion

> <Gold.Protein.ActiveResidues>
 VAL166  LYS551  ARG553  GLY616  TRP617  ASP618  TYR619  PRO620  LYS621  CYS622 
 ASP623  PHE694  ASN695  SER759  ASP760  ASP761  ALA762  ILE779  LEU786  VAL792 
 PHE793  MET794  SER795  GLU796  ALA797  LYS798  CYS799  TRP800  GLU811  SER814 

> <Gold.Protein.RotatedAtoms>
  152.3566  134.6931  160.0219 H   0  0  0  0  0  0  0  0  0  0  0  0  # atno 6907 bound_to 6896
  151.7268  133.3311  159.3337 H   0  0  0  0  0  0  0  0  0  0  0  0  # atno 6908 bound_to 6896
  150.7576  134.6333  159.6242 H   0  0  0  0  0  0  0  0  0  0  0  0  # atno 6909 bound_to 6896
  144.9793  139.4522  143.5394 H   0  0  0  0  0  0  0  0  0  0  0  0  # atno 7974 bound_to 7965
  154.4000  140.1479  156.3319 H   0  0  0  0  0  0  0  0  0  0  0  0  # atno 8008 bound_to 7997
  155.8436  140.3461  155.5626 H   0  0  0  0  0  0  0  0  0  0  0  0  # atno 8009 bound_to 7997
  155.8060  140.0877  157.1921 H   0  0  0  0  0  0  0  0  0  0  0  0  # atno 8010 bound_to 7997
  140.2361  144.3635  150.6397 H   0  0  0  0  0  0  0  0  0  0  0  0  # atno 10167 bound_to 10162
  157.5219  130.8571  149.8570 H   0  0  0  0  0  0  0  0  0  0  0  0  # atno 10718 bound_to 10713
  154.5856  135.2840  155.0689 H   0  0  0  0  0  0  0  0  0  0  0  0  # atno 10763 bound_to 10752
  154.2008  135.6424  153.5090 H   0  0  0  0  0  0  0  0  0  0  0  0  # atno 10764 bound_to 10752
  153.0103  135.5468  154.6524 H   0  0  0  0  0  0  0  0  0  0  0  0  # atno 10765 bound_to 10752
  140.9211  134.1443  157.4313 H   0  0  0  0  0  0  0  0  0  0  0  0  # atno 11005 bound_to 11000
  146.3404  139.9055  142.8788 LP  0  0  0  0  0  0  0  0  0  0  0  0  # atno 17320 bound_to 7965
  145.2445  141.0021  143.3917 LP  0  0  0  0  0  0  0  0  0  0  0  0  # atno 17321 bound_to 7965
  140.6149  143.2171  151.6812 LP  0  0  0  0  0  0  0  0  0  0  0  0  # atno 17342 bound_to 10162
  139.5093  144.3581  152.0589 LP  0  0  0  0  0  0  0  0  0  0  0  0  # atno 17343 bound_to 10162
  156.0359  130.3751  150.1561 LP  0  0  0  0  0  0  0  0  0  0  0  0  # atno 17370 bound_to 10713
  156.9749  130.9846  151.3450 LP  0  0  0  0  0  0  0  0  0  0  0  0  # atno 17371 bound_to 10713
  139.8775  134.9971  156.5832 LP  0  0  0  0  0  0  0  0  0  0  0  0  # atno 17394 bound_to 11000
  140.7987  133.8523  155.8708 LP  0  0  0  0  0  0  0  0  0  0  0  0  # atno 17395 bound_to 11000

$$$$
