AV-unprocessed.smi:196|AV-procd|sdf|1528|dock7
  -GOLD-   2262019373D 1   1.00000     0.00000
 Structure written by MMmdl.
 47 50  0  0  0  0  0  0  0  0  1 V2000
  143.3140  132.6870  150.6875 C   0  0  0  0  0  0  0  0  0  0  0  0
  144.6232  133.3919  150.2998 C   0  0  2  0  0  0  0  0  0  0  0  0
  145.7050  132.5474  150.6827 O   0  0  0  0  0  0  0  0  0  0  0  0
  146.8341  133.3561  150.9594 C   0  0  0  0  0  0  0  0  0  0  0  0
  146.2182  134.5239  151.7139 C   0  0  0  0  0  0  0  0  0  0  0  0
  144.9079  134.7673  150.9678 C   0  0  1  0  0  0  0  0  0  0  0  0
  145.1694  135.7032  149.9354 O   0  0  0  0  0  0  0  0  0  0  0  0
  143.7832  135.3412  151.8694 C   0  0  0  0  0  0  0  0  0  0  0  0
  144.2669  136.2836  152.8666 N   0  0  0  0  0  0  0  0  0  0  0  0
  143.8702  136.3702  154.1814 C   0  0  0  0  0  0  0  0  0  0  0  0
  144.4628  137.2987  154.8805 N   0  0  0  0  0  0  0  0  0  0  0  0
  145.3259  137.9104  153.9777 C   0  0  0  0  0  0  0  0  0  0  0  0
  146.2659  138.9786  154.0652 C   0  0  0  0  0  0  0  0  0  0  0  0
  146.5007  139.6784  155.2077 N   0  0  0  0  0  0  0  0  0  0  0  0
  145.6261  139.4878  156.3589 C   0  0  0  0  0  0  0  0  0  0  0  0
  145.5547  140.8485  157.0515 C   0  0  2  0  0  0  0  0  0  0  0  0
  144.5248  141.5420  156.5632 F   0  0  0  0  0  0  0  0  0  0  0  0
  146.8608  141.5210  156.6405 C   0  0  0  0  0  0  0  0  0  0  0  0
  147.0991  141.0173  155.2073 C   0  0  1  0  0  0  0  0  0  0  0  0
  148.5975  140.9983  154.8653 C   0  0  0  0  0  0  0  0  0  0  0  0
  149.2626  142.1463  155.0119 N   0  0  0  0  0  0  0  0  0  0  0  0
  149.1497  139.9656  154.4886 O   0  0  0  0  0  0  0  0  0  0  0  0
  146.9584  139.2894  152.9370 N   0  0  0  0  0  0  0  0  0  0  0  0
  146.7463  138.6174  151.8024 C   0  0  0  0  0  0  0  0  0  0  0  0
  145.9035  137.6088  151.5760 N   0  0  0  0  0  0  0  0  0  0  0  0
  145.2115  137.2819  152.7045 C   0  0  0  0  0  0  0  0  0  0  0  0
  145.4219  140.7774  158.1314 H   0  0  0  0  0  0  0  0  0  0  0  0
  146.5561  141.6552  154.5073 H   0  0  0  0  0  0  0  0  0  0  0  0
  142.4431  133.2795  150.4074 H   0  0  0  0  0  0  0  0  0  0  0  0
  143.2653  132.4914  151.7588 H   0  0  0  0  0  0  0  0  0  0  0  0
  143.2308  131.7269  150.1778 H   0  0  0  0  0  0  0  0  0  0  0  0
  144.6531  133.4851  149.2124 H   0  0  0  0  0  0  0  0  0  0  0  0
  147.5808  132.8202  151.5455 H   0  0  0  0  0  0  0  0  0  0  0  0
  147.2933  133.6864  150.0264 H   0  0  0  0  0  0  0  0  0  0  0  0
  146.0145  134.2073  152.7376 H   0  0  0  0  0  0  0  0  0  0  0  0
  146.8702  135.3974  151.7605 H   0  0  0  0  0  0  0  0  0  0  0  0
  145.7293  135.2941  149.2933 H   0  0  0  0  0  0  0  0  0  0  0  0
  143.0279  135.8443  151.2646 H   0  0  0  0  0  0  0  0  0  0  0  0
  143.2706  134.5375  152.3986 H   0  0  0  0  0  0  0  0  0  0  0  0
  143.1278  135.7141  154.6117 H   0  0  0  0  0  0  0  0  0  0  0  0
  144.6320  139.1305  156.0856 H   0  0  0  0  0  0  0  0  0  0  0  0
  146.0834  138.7489  157.0181 H   0  0  0  0  0  0  0  0  0  0  0  0
  146.8095  142.6086  156.7010 H   0  0  0  0  0  0  0  0  0  0  0  0
  147.6579  141.1897  157.3090 H   0  0  0  0  0  0  0  0  0  0  0  0
  150.2506  142.1866  154.8085 H   0  0  0  0  0  0  0  0  0  0  0  0
  148.7743  142.9693  155.3341 H   0  0  0  0  0  0  0  0  0  0  0  0
  147.3366  138.9336  150.9552 H   0  0  0  0  0  0  0  0  0  0  0  0
  1  2  1  0  0  0  0
  1 29  1  0  0  0  0
  1 30  1  0  0  0  0
  1 31  1  0  0  0  0
  2  6  1  0  0  0  0
  2  3  1  0  0  0  0
  2 32  1  0  0  0  0
  3  4  1  0  0  0  0
  4  5  1  0  0  0  0
  4 33  1  0  0  0  0
  4 34  1  0  0  0  0
  5  6  1  0  0  0  0
  5 35  1  0  0  0  0
  5 36  1  0  0  0  0
  6  7  1  0  0  0  0
  6  8  1  0  0  0  0
  7 37  1  0  0  0  0
  8  9  1  0  0  0  0
  8 38  1  0  0  0  0
  8 39  1  0  0  0  0
  9 26  1  0  0  0  0
  9 10  1  0  0  0  0
 10 11  2  0  0  0  0
 10 40  1  0  0  0  0
 11 12  1  0  0  0  0
 12 26  2  0  0  0  0
 12 13  1  0  0  0  0
 13 14  1  0  0  0  0
 13 23  2  0  0  0  0
 14 19  1  0  0  0  0
 14 15  1  0  0  0  0
 15 16  1  0  0  0  0
 15 41  1  0  0  0  0
 15 42  1  0  0  0  0
 16 27  1  0  0  0  0
 16 17  1  0  0  0  0
 16 18  1  0  0  0  0
 18 19  1  0  0  0  0
 18 43  1  0  0  0  0
 18 44  1  0  0  0  0
 19 28  1  0  0  0  0
 19 20  1  0  0  0  0
 20 21  1  0  0  0  0
 20 22  2  0  0  0  0
 21 45  1  0  0  0  0
 21 46  1  0  0  0  0
 23 24  1  0  0  0  0
 24 25  2  0  0  0  0
 24 47  1  0  0  0  0
 25 26  1  0  0  0  0
M  END
> <s_m_source_file>
AV-unprocessed.smi

> <i_m_source_file_index>
196

> <i_lp_mmshare_version>
43012

> <i_f3d_flags>
0

> <s_epik_input>
W0NIMl0xW0NIMl1PW0NAQEhdKFtDSDNdKVtDQEBdMShbT0hdKVtDSDJdbihbY0hdbjIpYyhjMjMpbltjSF1uYzNONFtDSDJdW0NASF0oRilbQ0gyXVtDQEhdNEMoPU8pW05IMl0=

> <s_epik_cmdline>
J2VwaWtfcHl0aG9uJywgJy1waCcsICc3LjAnLCAnLXRuJywgJzgnLCAnLW1hJywgJzIwMCcsICctbWV0YWxfYmluZGluZycsICctaW1hZScsICc8aW5maWxlLm1hZT4nLCAnLW9tYWUnLCAnPG91dGZpbGUubWFlPic=

> <r_lp_tautomer_probability>
1

> <r_epik_Ionization_Penalty>
0.000857933

> <r_epik_Ionization_Penalty_Charging>
0

> <r_epik_Ionization_Penalty_Neutral>
0.000857933

> <r_epik_State_Penalty>
0.000462053

> <r_epik_Charging_Adjusted_Penalty>
0.000462053

> <i_epik_Tot_Q>
0

> <i_epik_Tot_abs_Q>
0

> <r_epik_Metal_State_Penalty>
-0

> <b_epik_Metal_Only>
0

> <s_lp_Force_Field>
OPLS_2005

> <r_lp_Energy>
42.3005

> <b_lp_Chiralities_Consistent>
1

> <s_lp_Variant>
AV-unprocessed.smi:196-1

> <Gold.Version>
5.8.1

> <Gold.Id.Protein>
6NUR|6NUR_protein|mol2

> <Gold.PLP.Fitness>
38.4042

> <Gold.PLP.PLP>
-31.1772

> <Gold.PLP.part.hbond>
-2.4725

> <Gold.PLP.part.metal>
0.0000

> <Gold.PLP.part.buried>
-6.6349

> <Gold.PLP.part.nonpolar>
-25.6299

> <Gold.PLP.part.repulsive>
2.9444

> <Gold.PLP.ligand.clash>
0.0000

> <Gold.PLP.ligand.torsion>
0.8125

> <Gold.PLP.Chemscore.Hbond>
2.0000

> <Gold.PLP.Chemscore.CHOScore>
0.8660

> <Gold.PLP.Chemscore.Metal>
0.0000

> <Gold.Chemscore.Hbonds>
donor molecule, donor type, donor heavy atom, donor atom, acceptor molecule, acceptor atom, score
      L1  H     7    37       P1  7921  1.00
      L1  H    21    46       P1  8028  0.93
      L1  C    24    47       P1  7957  0.90

> <Gold.PLP.Chemscore.Internal.Correction>
0.2537

> <Gold.Rescore>
     Score         DG    S(hbond)    S(metal)    S(lipo)     H(rot)  DE(clash)    DE(int)     intcor
      4.73     -10.55       1.98        0.00      43.74       2.60       0.28       5.54       ----

> <Gold.Chemscore.Fitness>
4.7316

> <Gold.Chemscore.DG>
-10.5491

> <Gold.Chemscore.ZeroCoef>
-5.4800

> <Gold.Chemscore.Hbond>
1.9759

> <Gold.Chemscore.Metal>
0.0000

> <Gold.Chemscore.Lipo>
43.7362

> <Gold.Chemscore.Internal_Hbond>
0.0000

> <Gold.Chemscore.DEClash>
0.2792

> <Gold.Chemscore.DEInternal>
5.5382

> <Gold.Chemscore.Rot>
2.5968

> <Gold.Chemscore.Internal.Correction>
   9.000000E+99

> <Gold.Chemscore.Hbonds>
donor molecule, donor type, donor heavy atom, donor atom, acceptor molecule, acceptor atom, score
      L1  H     7    37       P1  7921  0.96
      L1  H    21    46       P1  8028  0.90

> <Gold.Chemscore.Hbond.Weighted>
-6.5997

> <Gold.Chemscore.Metal.Weighted>
-0.0000

> <Gold.Chemscore.Lipo.Weighted>
-5.1171

> <Gold.Chemscore.Internal_Hbond.Weighted>
0.0000

> <Gold.Chemscore.DEClash.Weighted>
0.2792

> <Gold.Chemscore.DEInternal.Weighted>
5.5382

> <Gold.Chemscore.Rot.Weighted>
6.6477

> <Gold.Chemscore.Internal.Correction.Weighted>
   9.000000E+99

> <Gold.Protein.RotatedTorsions>
[ 6907 6896 6895 6894 ] final   58.75 input  -60.11 | X-H torsion
[ 7974 7965 7964 7962 ] final -147.23 input  175.53 | X-H torsion
[ 8008 7997 7996 7995 ] final   59.40 input   59.86 | X-H torsion
[ 10167 10162 10161 10158 ] final   88.30 input  -65.29 | X-H torsion
[ 10718 10713 10712 10709 ] final  -10.83 input   66.30 | X-H torsion
[ 10763 10752 10751 10750 ] final  103.71 input  -60.55 | X-H torsion
[ 11005 11000 10999 10996 ] final  -24.53 input  -57.11 | X-H torsion

> <Gold.Protein.ActiveResidues>
 VAL166  LYS551  ARG553  GLY616  TRP617  ASP618  TYR619  PRO620  LYS621  CYS622 
 ASP623  PHE694  ASN695  SER759  ASP760  ASP761  ALA762  ILE779  LEU786  VAL792 
 PHE793  MET794  SER795  GLU796  ALA797  LYS798  CYS799  TRP800  GLU811  SER814 

> <Gold.Protein.RotatedAtoms>
  152.3853  134.6527  160.0127 H   0  0  0  0  0  0  0  0  0  0  0  0  # atno 6907 bound_to 6896
  151.6778  133.3307  159.3220 H   0  0  0  0  0  0  0  0  0  0  0  0  # atno 6908 bound_to 6896
  150.7780  134.6743  159.6454 H   0  0  0  0  0  0  0  0  0  0  0  0  # atno 6909 bound_to 6896
  144.8107  140.5354  143.5644 H   0  0  0  0  0  0  0  0  0  0  0  0  # atno 7974 bound_to 7965
  155.5656  140.3489  155.4502 H   0  0  0  0  0  0  0  0  0  0  0  0  # atno 8008 bound_to 7997
  156.0482  140.1311  157.0105 H   0  0  0  0  0  0  0  0  0  0  0  0  # atno 8009 bound_to 7997
  154.4422  140.1010  156.6323 H   0  0  0  0  0  0  0  0  0  0  0  0  # atno 8010 bound_to 7997
  139.8687  144.6505  150.8974 H   0  0  0  0  0  0  0  0  0  0  0  0  # atno 10167 bound_to 10162
  156.6679  130.5000  149.6009 H   0  0  0  0  0  0  0  0  0  0  0  0  # atno 10718 bound_to 10713
  153.3562  135.3968  155.1684 H   0  0  0  0  0  0  0  0  0  0  0  0  # atno 10763 bound_to 10752
  154.8671  135.3668  154.5158 H   0  0  0  0  0  0  0  0  0  0  0  0  # atno 10764 bound_to 10752
  153.5614  135.7081  153.5606 H   0  0  0  0  0  0  0  0  0  0  0  0  # atno 10765 bound_to 10752
  140.8854  133.7625  156.0354 H   0  0  0  0  0  0  0  0  0  0  0  0  # atno 11005 bound_to 11000
  145.5330  139.1475  143.3489 LP  0  0  0  0  0  0  0  0  0  0  0  0  # atno 17320 bound_to 7965
  146.2405  140.5471  142.8936 LP  0  0  0  0  0  0  0  0  0  0  0  0  # atno 17321 bound_to 7965
  140.7764  143.3682  151.1699 LP  0  0  0  0  0  0  0  0  0  0  0  0  # atno 17342 bound_to 10162
  139.7304  143.9081  152.3017 LP  0  0  0  0  0  0  0  0  0  0  0  0  # atno 17343 bound_to 10162
  156.1961  130.6590  151.1116 LP  0  0  0  0  0  0  0  0  0  0  0  0  # atno 17370 bound_to 10713
  157.7087  131.0744  150.6576 LP  0  0  0  0  0  0  0  0  0  0  0  0  # atno 17371 bound_to 10713
  140.8411  134.3065  157.5313 LP  0  0  0  0  0  0  0  0  0  0  0  0  # atno 17394 bound_to 11000
  139.8724  134.9416  156.3803 LP  0  0  0  0  0  0  0  0  0  0  0  0  # atno 17395 bound_to 11000

$$$$
