AV-unprocessed.smi:573|AV-procd|sdf|2969|dock6
  -GOLD-   2262023473D 1   1.00000     0.00000
 Structure written by MMmdl.
 45 47  0  0  0  0  0  0  0  0  2 V2000
  147.2771  139.8566  153.7315 C   0  0  0  0  0  0  0  0  0  0  0  0
  147.9486  141.2318  153.8619 C   0  0  2  0  0  0  0  0  0  0  0  0
  149.2168  141.1691  153.2459 O   0  0  0  0  0  0  0  0  0  0  0  0
  148.1524  141.6712  155.3240 C   0  0  0  0  0  0  0  0  0  0  0  0
  149.1567  140.8765  156.0166 N   0  0  0  0  0  0  0  0  0  0  0  0
  150.0631  141.5084  156.8756 C   0  0  0  0  0  0  0  0  0  0  0  0
  150.3199  142.8426  156.9311 N   0  3  0  0  0  0  0  0  0  0  0  0
  151.2717  143.0660  157.9298 C   0  0  0  0  0  0  0  0  0  0  0  0
  151.8578  144.2467  158.3751 C   0  0  0  0  0  0  0  0  0  0  0  0
  152.7925  144.1333  159.4249 C   0  0  0  0  0  0  0  0  0  0  0  0
  153.1123  142.8830  159.9928 C   0  0  0  0  0  0  0  0  0  0  0  0
  152.5151  141.6907  159.5335 C   0  0  0  0  0  0  0  0  0  0  0  0
  151.5948  141.8071  158.4920 C   0  0  0  0  0  0  0  0  0  0  0  0
  150.8251  140.8647  157.7964 N   0  0  0  0  0  0  0  0  0  0  0  0
  150.9164  139.4369  158.1334 C   0  0  0  0  0  0  0  0  0  0  0  0
  151.4191  138.5956  156.9491 C   0  0  1  0  0  0  0  0  0  0  0  0
  150.2600  138.0748  156.0788 C   0  0  0  0  0  0  0  0  0  0  0  0
  150.8004  137.2908  154.8774 C   0  0  0  0  0  0  0  0  0  0  0  0
  151.8248  138.1438  154.1214 C   0  0  0  0  0  0  0  0  0  0  0  0
  152.9013  138.6680  155.0854 C   0  0  0  0  0  0  0  0  0  0  0  0
  152.2906  139.3925  156.1486 O   0  0  0  0  0  0  0  0  0  0  0  0
  146.2747  139.8642  154.1602 H   0  0  0  0  0  0  0  0  0  0  0  0
  147.8512  139.0830  154.2426 H   0  0  0  0  0  0  0  0  0  0  0  0
  147.1811  139.5636  152.6854 H   0  0  0  0  0  0  0  0  0  0  0  0
  147.3597  141.9749  153.3233 H   0  0  0  0  0  0  0  0  0  0  0  0
  149.2000  140.4918  152.5869 H   0  0  0  0  0  0  0  0  0  0  0  0
  148.4603  142.7168  155.3585 H   0  0  0  0  0  0  0  0  0  0  0  0
  147.2109  141.6133  155.8718 H   0  0  0  0  0  0  0  0  0  0  0  0
  149.0074  139.8812  156.1034 H   0  0  0  0  0  0  0  0  0  0  0  0
  151.6130  145.2065  157.9444 H   0  0  0  0  0  0  0  0  0  0  0  0
  153.2724  145.0241  159.8040 H   0  0  0  0  0  0  0  0  0  0  0  0
  153.8305  142.8368  160.7989 H   0  0  0  0  0  0  0  0  0  0  0  0
  152.7647  140.7404  159.9813 H   0  0  0  0  0  0  0  0  0  0  0  0
  151.5998  139.3425  158.9781 H   0  0  0  0  0  0  0  0  0  0  0  0
  149.9461  139.0863  158.4848 H   0  0  0  0  0  0  0  0  0  0  0  0
  151.9828  137.7477  157.3430 H   0  0  0  0  0  0  0  0  0  0  0  0
  149.5970  137.4416  156.6689 H   0  0  0  0  0  0  0  0  0  0  0  0
  149.6589  138.9139  155.7256 H   0  0  0  0  0  0  0  0  0  0  0  0
  151.2717  136.3692  155.2220 H   0  0  0  0  0  0  0  0  0  0  0  0
  149.9855  136.9983  154.2149 H   0  0  0  0  0  0  0  0  0  0  0  0
  152.2841  137.5618  153.3221 H   0  0  0  0  0  0  0  0  0  0  0  0
  151.3208  138.9860  153.6460 H   0  0  0  0  0  0  0  0  0  0  0  0
  153.4981  137.8474  155.4868 H   0  0  0  0  0  0  0  0  0  0  0  0
  153.5868  139.3305  154.5568 H   0  0  0  0  0  0  0  0  0  0  0  0
  149.8810  143.5370  156.3405 H   0  0  0  0  0  0  0  0  0  0  0  0
  1  2  1  0  0  0  0
  1 22  1  0  0  0  0
  1 23  1  0  0  0  0
  1 24  1  0  0  0  0
  2  3  1  0  0  0  0
  2  4  1  0  0  0  0
  2 25  1  0  0  0  0
  3 26  1  0  0  0  0
  4  5  1  0  0  0  0
  4 27  1  0  0  0  0
  4 28  1  0  0  0  0
  5  6  1  0  0  0  0
  5 29  1  0  0  0  0
  6 14  1  0  0  0  0
  6  7  2  0  0  0  0
  7  8  1  0  0  0  0
  7 45  1  0  0  0  0
  8 13  2  0  0  0  0
  8  9  1  0  0  0  0
  9 10  2  0  0  0  0
  9 30  1  0  0  0  0
 10 11  1  0  0  0  0
 10 31  1  0  0  0  0
 11 12  2  0  0  0  0
 11 32  1  0  0  0  0
 12 13  1  0  0  0  0
 12 33  1  0  0  0  0
 13 14  1  0  0  0  0
 14 15  1  0  0  0  0
 15 16  1  0  0  0  0
 15 34  1  0  0  0  0
 15 35  1  0  0  0  0
 16 21  1  0  0  0  0
 16 17  1  0  0  0  0
 16 36  1  0  0  0  0
 17 18  1  0  0  0  0
 17 37  1  0  0  0  0
 17 38  1  0  0  0  0
 18 19  1  0  0  0  0
 18 39  1  0  0  0  0
 18 40  1  0  0  0  0
 19 20  1  0  0  0  0
 19 41  1  0  0  0  0
 19 42  1  0  0  0  0
 20 21  1  0  0  0  0
 20 43  1  0  0  0  0
 20 44  1  0  0  0  0
M  CHG  1   7   1
M  END
> <s_m_source_file>
AV-unprocessed.smi

> <i_m_source_file_index>
573

> <i_lp_mmshare_version>
43012

> <i_f3d_flags>
0

> <s_epik_input>
W0NIM11bQ0BIXShbT0hdKVtDSDJdW05IXWMobjEpbihjKGMxMilbY0hdW2NIXVtjSF1bY0hdMilbQ0gyXVtDQEBIXTNbQ0gyXVtDSDJdW0NIMl1bQ0gyXU8z

> <s_epik_cmdline>
J2VwaWtfcHl0aG9uJywgJy1waCcsICc3LjAnLCAnLXRuJywgJzgnLCAnLW1hJywgJzIwMCcsICctbWV0YWxfYmluZGluZycsICctaW1hZScsICc8aW5maWxlLm1hZT4nLCAnLW9tYWUnLCAnPG91dGZpbGUubWFlPic=

> <r_epik_Ionization_Penalty>
0.0692245

> <r_epik_Ionization_Penalty_Charging>
0.0692223

> <r_epik_Ionization_Penalty_Neutral>
2.1869e-06

> <r_epik_State_Penalty>
0.0606215

> <r_epik_Charging_Adjusted_Penalty>
0.129844

> <i_epik_Tot_Q>
1

> <i_epik_Tot_abs_Q>
1

> <r_epik_Metal_State_Penalty>
2.77811

> <b_epik_Metal_Only>
0

> <s_lp_Force_Field>
OPLS_2005

> <r_lp_Energy>
19.2261

> <b_lp_Chiralities_Consistent>
1

> <s_lp_Variant>
AV-unprocessed.smi:573-3

> <Gold.Version>
5.8.1

> <Gold.Id.Protein>
6NUR|6NUR_protein|mol2

> <Gold.PLP.Fitness>
55.4984

> <Gold.PLP.PLP>
-44.7575

> <Gold.PLP.part.hbond>
-3.9333

> <Gold.PLP.part.metal>
0.0000

> <Gold.PLP.part.buried>
-6.4383

> <Gold.PLP.part.nonpolar>
-35.4072

> <Gold.PLP.part.repulsive>
0.0731

> <Gold.PLP.ligand.clash>
0.0000

> <Gold.PLP.ligand.torsion>
0.5618

> <Gold.PLP.Chemscore.Hbond>
3.9469

> <Gold.PLP.Chemscore.CHOScore>
0.0000

> <Gold.PLP.Chemscore.Metal>
0.0000

> <Gold.Chemscore.Hbonds>
donor molecule, donor type, donor heavy atom, donor atom, acceptor molecule, acceptor atom, score
      L1  H     3    26       P1  7957  0.94
      L1  H     7    45       P1  8028  2.00
      P1  H  7989  7998       L1     3  0.01
      P1  H  8011  8017       L1     3  0.95

> <Gold.PLP.Chemscore.Internal.Correction>
0.0238

> <Gold.Rescore>
     Score         DG    S(hbond)    S(metal)    S(lipo)     H(rot)  DE(clash)    DE(int)     intcor
     21.68     -22.40       2.37        0.00     122.21       2.07       0.05       0.67       ----

> <Gold.Chemscore.Fitness>
21.6793

> <Gold.Chemscore.DG>
-22.3975

> <Gold.Chemscore.ZeroCoef>
-5.4800

> <Gold.Chemscore.Hbond>
2.3705

> <Gold.Chemscore.Metal>
0.0000

> <Gold.Chemscore.Lipo>
122.2141

> <Gold.Chemscore.Internal_Hbond>
0.0000

> <Gold.Chemscore.DEClash>
0.0512

> <Gold.Chemscore.DEInternal>
0.6670

> <Gold.Chemscore.Rot>
2.0699

> <Gold.Chemscore.Internal.Correction>
   9.000000E+99

> <Gold.Chemscore.Hbonds>
donor molecule, donor type, donor heavy atom, donor atom, acceptor molecule, acceptor atom, score
      L1  H     3    26       P1  7957  0.87
      L1  H     7    45       P1  8028  1.00
      P1  H  8011  8017       L1     3  0.21

> <Gold.Chemscore.Hbond.Weighted>
-7.9175

> <Gold.Chemscore.Metal.Weighted>
-0.0000

> <Gold.Chemscore.Lipo.Weighted>
-14.2990

> <Gold.Chemscore.Internal_Hbond.Weighted>
0.0000

> <Gold.Chemscore.DEClash.Weighted>
0.0512

> <Gold.Chemscore.DEInternal.Weighted>
0.6670

> <Gold.Chemscore.Rot.Weighted>
5.2991

> <Gold.Chemscore.Internal.Correction.Weighted>
   9.000000E+99

> <Gold.Protein.RotatedTorsions>
[ 6907 6896 6895 6894 ] final  134.74 input  -60.11 | X-H torsion
[ 7974 7965 7964 7962 ] final  -59.51 input  175.53 | X-H torsion
[ 8008 7997 7996 7995 ] final  -36.33 input   59.86 | X-H torsion
[ 10167 10162 10161 10158 ] final  146.05 input  -65.29 | X-H torsion
[ 10718 10713 10712 10709 ] final -125.82 input   66.30 | X-H torsion
[ 10763 10752 10751 10750 ] final  -92.27 input  -60.55 | X-H torsion
[ 11005 11000 10999 10996 ] final  172.15 input  -57.11 | X-H torsion

> <Gold.Protein.ActiveResidues>
 VAL166  LYS551  ARG553  GLY616  TRP617  ASP618  TYR619  PRO620  LYS621  CYS622 
 ASP623  PHE694  ASN695  SER759  ASP760  ASP761  ALA762  ILE779  LEU786  VAL792 
 PHE793  MET794  SER795  GLU796  ALA797  LYS798  CYS799  TRP800  GLU811  SER814 

> <Gold.Protein.RotatedAtoms>
  152.3081  133.5724  159.5662 H   0  0  0  0  0  0  0  0  0  0  0  0  # atno 6907 bound_to 6896
  150.7309  134.0193  159.3705 H   0  0  0  0  0  0  0  0  0  0  0  0  # atno 6908 bound_to 6896
  151.8088  135.0687  160.0461 H   0  0  0  0  0  0  0  0  0  0  0  0  # atno 6909 bound_to 6896
  145.8266  140.8506  143.0105 H   0  0  0  0  0  0  0  0  0  0  0  0  # atno 7974 bound_to 7965
  154.4075  140.1633  156.2356 H   0  0  0  0  0  0  0  0  0  0  0  0  # atno 8008 bound_to 7997
  155.9245  140.3419  155.6176 H   0  0  0  0  0  0  0  0  0  0  0  0  # atno 8009 bound_to 7997
  155.7182  140.0765  157.2333 H   0  0  0  0  0  0  0  0  0  0  0  0  # atno 8010 bound_to 7997
  139.4914  144.5858  151.6782 H   0  0  0  0  0  0  0  0  0  0  0  0  # atno 10167 bound_to 10162
  156.1710  130.6667  151.0179 H   0  0  0  0  0  0  0  0  0  0  0  0  # atno 10718 bound_to 10713
  154.6844  135.5237  153.8306 H   0  0  0  0  0  0  0  0  0  0  0  0  # atno 10763 bound_to 10752
  153.0587  135.6560  154.0524 H   0  0  0  0  0  0  0  0  0  0  0  0  # atno 10764 bound_to 10752
  154.0407  135.2977  155.3335 H   0  0  0  0  0  0  0  0  0  0  0  0  # atno 10765 bound_to 10752
  140.3266  134.7392  157.4104 H   0  0  0  0  0  0  0  0  0  0  0  0  # atno 11005 bound_to 11000
  144.6743  140.0611  143.7476 LP  0  0  0  0  0  0  0  0  0  0  0  0  # atno 17320 bound_to 7965
  145.9617  139.2805  143.1152 LP  0  0  0  0  0  0  0  0  0  0  0  0  # atno 17321 bound_to 7965
  140.5473  144.0482  150.6112 LP  0  0  0  0  0  0  0  0  0  0  0  0  # atno 17342 bound_to 10162
  140.3524  143.2955  152.0472 LP  0  0  0  0  0  0  0  0  0  0  0  0  # atno 17343 bound_to 10162
  157.6802  131.0840  150.7389 LP  0  0  0  0  0  0  0  0  0  0  0  0  # atno 17370 bound_to 10713
  156.7448  130.4750  149.5469 LP  0  0  0  0  0  0  0  0  0  0  0  0  # atno 17371 bound_to 10713
  140.0896  134.5619  155.8458 LP  0  0  0  0  0  0  0  0  0  0  0  0  # atno 17394 bound_to 11000
  141.2073  133.6663  156.6300 LP  0  0  0  0  0  0  0  0  0  0  0  0  # atno 17395 bound_to 11000

$$$$
