AV-unprocessed.smi:3326|AV-procd|sdf|12785|dock1
  -GOLD-   2272019133D 1   1.00000     0.00000
 Structure written by MMmdl.
 30 31  0  0  0  0  0  0  0  0  1 V2000
  152.0075  145.3240  159.7441 F   0  0  0  0  0  0  0  0  0  0  0  0
  151.6068  144.3167  158.9674 C   0  0  0  0  0  0  0  0  0  0  0  0
  150.2786  144.2344  159.0509 F   0  0  0  0  0  0  0  0  0  0  0  0
  151.9451  144.6044  157.7104 F   0  0  0  0  0  0  0  0  0  0  0  0
  152.2388  142.9919  159.3885 C   0  0  0  0  0  0  0  0  0  0  0  0
  153.1321  142.9422  160.4830 C   0  0  0  0  0  0  0  0  0  0  0  0
  153.6992  141.7102  160.8564 C   0  0  0  0  0  0  0  0  0  0  0  0
  153.3512  140.5659  160.1175 C   0  0  0  0  0  0  0  0  0  0  0  0
  152.5013  140.5953  159.0711 N   0  0  0  0  0  0  0  0  0  0  0  0
  151.9506  141.7795  158.7084 C   0  0  0  0  0  0  0  0  0  0  0  0
  151.0715  141.7861  157.6123 N   0  0  0  0  0  0  0  0  0  0  0  0
  151.4191  141.1246  156.3603 C   0  0  0  0  0  0  0  0  0  0  0  0
  150.3032  140.1883  155.8694 C   0  0  2  0  0  0  0  0  0  0  0  0
  150.7466  139.2427  154.7571 C   0  0  0  0  0  0  0  0  0  0  0  0
  149.4231  138.8903  154.1164 C   0  0  0  0  0  0  0  0  0  0  0  0
  148.6596  140.2105  154.2054 C   0  0  0  0  0  0  0  0  0  0  0  0
  149.2443  140.9394  155.2827 O   0  0  0  0  0  0  0  0  0  0  0  0
  153.3865  143.8324  161.0385 H   0  0  0  0  0  0  0  0  0  0  0  0
  154.3841  141.6450  161.6888 H   0  0  0  0  0  0  0  0  0  0  0  0
  153.7661  139.6020  160.3724 H   0  0  0  0  0  0  0  0  0  0  0  0
  150.0915  141.9553  157.7881 H   0  0  0  0  0  0  0  0  0  0  0  0
  151.6154  141.8906  155.6097 H   0  0  0  0  0  0  0  0  0  0  0  0
  152.3522  140.5734  156.4802 H   0  0  0  0  0  0  0  0  0  0  0  0
  149.8948  139.5989  156.6920 H   0  0  0  0  0  0  0  0  0  0  0  0
  151.3835  139.7627  154.0398 H   0  0  0  0  0  0  0  0  0  0  0  0
  151.2876  138.3724  155.1293 H   0  0  0  0  0  0  0  0  0  0  0  0
  149.5236  138.5233  153.0947 H   0  0  0  0  0  0  0  0  0  0  0  0
  148.9170  138.1247  154.7061 H   0  0  0  0  0  0  0  0  0  0  0  0
  148.7817  140.7897  153.2898 H   0  0  0  0  0  0  0  0  0  0  0  0
  147.5925  140.0547  154.3674 H   0  0  0  0  0  0  0  0  0  0  0  0
  1  2  1  0  0  0  0
  2  3  1  0  0  0  0
  2  4  1  0  0  0  0
  2  5  1  0  0  0  0
  5 10  1  0  0  0  0
  5  6  2  0  0  0  0
  6  7  1  0  0  0  0
  6 18  1  0  0  0  0
  7  8  2  0  0  0  0
  7 19  1  0  0  0  0
  8  9  1  0  0  0  0
  8 20  1  0  0  0  0
  9 10  2  0  0  0  0
 10 11  1  0  0  0  0
 11 12  1  0  0  0  0
 11 21  1  0  0  0  0
 12 13  1  0  0  0  0
 12 22  1  0  0  0  0
 12 23  1  0  0  0  0
 13 17  1  0  0  0  0
 13 14  1  0  0  0  0
 13 24  1  0  0  0  0
 14 15  1  0  0  0  0
 14 25  1  0  0  0  0
 14 26  1  0  0  0  0
 15 16  1  0  0  0  0
 15 27  1  0  0  0  0
 15 28  1  0  0  0  0
 16 17  1  0  0  0  0
 16 29  1  0  0  0  0
 16 30  1  0  0  0  0
M  END
> <s_m_source_file>
AV-unprocessed.smi

> <i_m_source_file_index>
3326

> <i_lp_mmshare_version>
43012

> <i_f3d_flags>
0

> <s_epik_input>
RkMoRikoRiljMVtjSF1bY0hdW2NIXW5jMVtOSF1bQ0gyXVtDQEBIXTJbQ0gyXVtDSDJdW0NIMl1PMg==

> <s_epik_cmdline>
J2VwaWtfcHl0aG9uJywgJy1waCcsICc3LjAnLCAnLXRuJywgJzgnLCAnLW1hJywgJzIwMCcsICctbWV0YWxfYmluZGluZycsICctaW1hZScsICc8aW5maWxlLm1hZT4nLCAnLW9tYWUnLCAnPG91dGZpbGUubWFlPic=

> <r_lp_tautomer_probability>
1

> <r_epik_Ionization_Penalty>
0.000820218

> <r_epik_Ionization_Penalty_Charging>
0

> <r_epik_Ionization_Penalty_Neutral>
0.000820218

> <r_epik_State_Penalty>
0.000527207

> <r_epik_Charging_Adjusted_Penalty>
0.000527207

> <i_epik_Tot_Q>
0

> <i_epik_Tot_abs_Q>
0

> <r_epik_Metal_State_Penalty>
-0

> <b_epik_Metal_Only>
0

> <s_lp_Force_Field>
OPLS_2005

> <r_lp_Energy>
21.819

> <b_lp_Chiralities_Consistent>
1

> <s_lp_Variant>
AV-unprocessed.smi:3326-1

> <Gold.Version>
5.8.1

> <Gold.Id.Protein>
6NUR|6NUR_protein|mol2

> <Gold.PLP.Fitness>
41.7717

> <Gold.PLP.PLP>
-42.8870

> <Gold.PLP.part.hbond>
0.0000

> <Gold.PLP.part.metal>
0.0000

> <Gold.PLP.part.buried>
-4.4007

> <Gold.PLP.part.nonpolar>
-38.1701

> <Gold.PLP.part.repulsive>
0.1444

> <Gold.PLP.ligand.clash>
0.5218

> <Gold.PLP.ligand.torsion>
0.5747

> <Gold.PLP.Chemscore.Hbond>
0.0000

> <Gold.PLP.Chemscore.CHOScore>
0.0000

> <Gold.PLP.Chemscore.Metal>
0.0000

> <Gold.PLP.Chemscore.Internal.Correction>
0.5560

> <Gold.Rescore>
     Score         DG    S(hbond)    S(metal)    S(lipo)     H(rot)  DE(clash)    DE(int)     intcor
     10.67     -12.91       0.00        0.00      90.84       1.25       0.10       2.14       ----

> <Gold.Chemscore.Fitness>
10.6653

> <Gold.Chemscore.DG>
-12.9050

> <Gold.Chemscore.ZeroCoef>
-5.4800

> <Gold.Chemscore.Hbond>
0.0000

> <Gold.Chemscore.Metal>
0.0000

> <Gold.Chemscore.Lipo>
90.8424

> <Gold.Chemscore.Internal_Hbond>
0.0000

> <Gold.Chemscore.DEClash>
0.0976

> <Gold.Chemscore.DEInternal>
2.1421

> <Gold.Chemscore.Rot>
1.2514

> <Gold.Chemscore.Internal.Correction>
   9.000000E+99

> <Gold.Chemscore.Hbond.Weighted>
-0.0000

> <Gold.Chemscore.Metal.Weighted>
-0.0000

> <Gold.Chemscore.Lipo.Weighted>
-10.6286

> <Gold.Chemscore.Internal_Hbond.Weighted>
0.0000

> <Gold.Chemscore.DEClash.Weighted>
0.0976

> <Gold.Chemscore.DEInternal.Weighted>
2.1421

> <Gold.Chemscore.Rot.Weighted>
3.2036

> <Gold.Chemscore.Internal.Correction.Weighted>
   9.000000E+99

> <Gold.Protein.RotatedTorsions>
[ 6907 6896 6895 6894 ] final -129.12 input  -60.11 | X-H torsion
[ 7974 7965 7964 7962 ] final  -16.04 input  175.53 | X-H torsion
[ 8008 7997 7996 7995 ] final   52.46 input   59.86 | X-H torsion
[ 10167 10162 10161 10158 ] final -169.51 input  -65.29 | X-H torsion
[ 10718 10713 10712 10709 ] final  147.18 input   66.30 | X-H torsion
[ 10763 10752 10751 10750 ] final   98.61 input  -60.55 | X-H torsion
[ 11005 11000 10999 10996 ] final -161.33 input  -57.11 | X-H torsion

> <Gold.Protein.ActiveResidues>
 VAL166  LYS551  ARG553  GLY616  TRP617  ASP618  TYR619  PRO620  LYS621  CYS622 
 ASP623  PHE694  ASN695  SER759  ASP760  ASP761  ALA762  ILE779  LEU786  VAL792 
 PHE793  MET794  SER795  GLU796  ALA797  LYS798  CYS799  TRP800  GLU811  SER814 

> <Gold.Protein.RotatedAtoms>
  150.9253  133.6831  159.2822 H   0  0  0  0  0  0  0  0  0  0  0  0  # atno 6907 bound_to 6896
  151.4272  135.1004  159.9641 H   0  0  0  0  0  0  0  0  0  0  0  0  # atno 6908 bound_to 6896
  152.5000  133.8691  159.7344 H   0  0  0  0  0  0  0  0  0  0  0  0  # atno 6909 bound_to 6896
  146.2005  140.3579  142.8425 H   0  0  0  0  0  0  0  0  0  0  0  0  # atno 7974 bound_to 7965
  155.4522  140.3458  155.4302 H   0  0  0  0  0  0  0  0  0  0  0  0  # atno 8008 bound_to 7997
  156.1213  140.1488  156.9230 H   0  0  0  0  0  0  0  0  0  0  0  0  # atno 8009 bound_to 7997
  154.4825  140.0865  156.7391 H   0  0  0  0  0  0  0  0  0  0  0  0  # atno 8010 bound_to 7997
  139.5918  144.1196  152.1643 H   0  0  0  0  0  0  0  0  0  0  0  0  # atno 10167 bound_to 10162
  157.3242  131.0909  151.1216 H   0  0  0  0  0  0  0  0  0  0  0  0  # atno 10718 bound_to 10713
  153.2912  135.4142  155.1168 H   0  0  0  0  0  0  0  0  0  0  0  0  # atno 10763 bound_to 10752
  154.8521  135.3519  154.5978 H   0  0  0  0  0  0  0  0  0  0  0  0  # atno 10764 bound_to 10752
  153.6401  135.7057  153.5302 H   0  0  0  0  0  0  0  0  0  0  0  0  # atno 10765 bound_to 10752
  140.6216  134.4745  157.5224 H   0  0  0  0  0  0  0  0  0  0  0  0  # atno 11005 bound_to 11000
  144.8674  140.7225  143.6069 LP  0  0  0  0  0  0  0  0  0  0  0  0  # atno 17320 bound_to 7965
  145.3499  139.1709  143.4440 LP  0  0  0  0  0  0  0  0  0  0  0  0  # atno 17321 bound_to 7965
  140.0773  144.5730  150.7148 LP  0  0  0  0  0  0  0  0  0  0  0  0  # atno 17342 bound_to 10162
  140.7179  143.2561  151.4373 LP  0  0  0  0  0  0  0  0  0  0  0  0  # atno 17343 bound_to 10162
  157.2489  130.6604  149.5922 LP  0  0  0  0  0  0  0  0  0  0  0  0  # atno 17370 bound_to 10713
  155.9689  130.4544  150.5850 LP  0  0  0  0  0  0  0  0  0  0  0  0  # atno 17371 bound_to 10713
  139.9151  134.8263  156.1393 LP  0  0  0  0  0  0  0  0  0  0  0  0  # atno 17394 bound_to 11000
  141.0739  133.6784  156.2195 LP  0  0  0  0  0  0  0  0  0  0  0  0  # atno 17395 bound_to 11000

$$$$
