AV-unprocessed.smi:2170|AV-procd|sdf|8824|dock1
  -GOLD-   2272012 13D 1   1.00000     0.00000
 Structure written by MMmdl.
 46 47  0  0  0  0  0  0  0  0  1 V2000
  143.9340  146.3422  159.6093 C   0  0  0  0  0  0  0  0  0  0  0  0
  144.5519  144.9711  159.9321 C   0  0  0  0  0  0  0  0  0  0  0  0
  144.0010  144.3737  161.2394 C   0  0  0  0  0  0  0  0  0  0  0  0
  146.0325  145.0383  159.9351 N   0  0  0  0  0  0  0  0  0  0  0  0
  146.6166  146.2361  160.5662 C   0  0  0  0  0  0  0  0  0  0  0  0
  146.8914  143.5439  160.1518 S   0  0  0  0  0  0  0  0  0  0  0  0
  147.6545  143.6147  161.4075 O   0  0  0  0  0  0  0  0  0  0  0  0
  145.9819  142.4184  159.8860 O   0  0  0  0  0  0  0  0  0  0  0  0
  147.9978  143.6500  158.8331 N   0  0  0  0  0  0  0  0  0  0  0  0
  149.3929  143.2545  159.0159 C   0  0  0  0  0  0  0  0  0  0  0  0
  149.8580  142.2554  157.9750 C   0  0  0  0  0  0  0  0  0  0  0  0
  151.0741  141.5625  158.1290 C   0  0  0  0  0  0  0  0  0  0  0  0
  151.4713  140.6527  157.1305 C   0  0  0  0  0  0  0  0  0  0  0  0
  150.6391  140.4591  156.0016 C   0  0  0  0  0  0  0  0  0  0  0  0
  151.0178  139.5520  154.9879 N   0  0  0  0  0  0  0  0  0  0  0  0
  152.3864  139.0471  155.0668 C   0  0  0  0  0  0  0  0  0  0  0  0
  152.7704  138.3327  153.7594 C   0  0  0  0  0  0  0  0  0  0  0  0
  151.8208  137.3120  153.4702 O   0  0  0  0  0  0  0  0  0  0  0  0
  150.5129  137.8432  153.2862 C   0  0  0  0  0  0  0  0  0  0  0  0
  150.0486  138.5373  154.5779 C   0  0  0  0  0  0  0  0  0  0  0  0
  149.4718  141.1346  155.8566 N   0  0  0  0  0  0  0  0  0  0  0  0
  149.0957  142.0055  156.8166 C   0  0  0  0  0  0  0  0  0  0  0  0
  142.8580  146.2525  159.4580 H   0  0  0  0  0  0  0  0  0  0  0  0
  144.3581  146.7581  158.6947 H   0  0  0  0  0  0  0  0  0  0  0  0
  144.0856  147.0657  160.4097 H   0  0  0  0  0  0  0  0  0  0  0  0
  144.2494  144.3068  159.1229 H   0  0  0  0  0  0  0  0  0  0  0  0
  142.9236  144.2230  161.1698 H   0  0  0  0  0  0  0  0  0  0  0  0
  144.1825  145.0245  162.0950 H   0  0  0  0  0  0  0  0  0  0  0  0
  144.4530  143.4044  161.4518 H   0  0  0  0  0  0  0  0  0  0  0  0
  146.5869  146.1465  161.6525 H   0  0  0  0  0  0  0  0  0  0  0  0
  146.0868  147.1421  160.2772 H   0  0  0  0  0  0  0  0  0  0  0  0
  147.6564  146.3596  160.2667 H   0  0  0  0  0  0  0  0  0  0  0  0
  147.8533  144.4575  158.2278 H   0  0  0  0  0  0  0  0  0  0  0  0
  150.0186  144.1444  158.9445 H   0  0  0  0  0  0  0  0  0  0  0  0
  149.5296  142.8553  160.0216 H   0  0  0  0  0  0  0  0  0  0  0  0
  151.6972  141.7292  158.9952 H   0  0  0  0  0  0  0  0  0  0  0  0
  152.4112  140.1316  157.2331 H   0  0  0  0  0  0  0  0  0  0  0  0
  153.1025  139.8451  155.2573 H   0  0  0  0  0  0  0  0  0  0  0  0
  152.4562  138.3523  155.9049 H   0  0  0  0  0  0  0  0  0  0  0  0
  152.8244  139.0407  152.9306 H   0  0  0  0  0  0  0  0  0  0  0  0
  153.7577  137.8807  153.8558 H   0  0  0  0  0  0  0  0  0  0  0  0
  150.5057  138.5395  152.4461 H   0  0  0  0  0  0  0  0  0  0  0  0
  149.8322  137.0310  153.0321 H   0  0  0  0  0  0  0  0  0  0  0  0
  149.9353  137.8028  155.3763 H   0  0  0  0  0  0  0  0  0  0  0  0
  149.0718  138.9931  154.4111 H   0  0  0  0  0  0  0  0  0  0  0  0
  148.1608  142.5202  156.6505 H   0  0  0  0  0  0  0  0  0  0  0  0
  1  2  1  0  0  0  0
  1 23  1  0  0  0  0
  1 24  1  0  0  0  0
  1 25  1  0  0  0  0
  2  3  1  0  0  0  0
  2  4  1  0  0  0  0
  2 26  1  0  0  0  0
  3 27  1  0  0  0  0
  3 28  1  0  0  0  0
  3 29  1  0  0  0  0
  4  5  1  0  0  0  0
  4  6  1  0  0  0  0
  5 30  1  0  0  0  0
  5 31  1  0  0  0  0
  5 32  1  0  0  0  0
  6  7  2  0  0  0  0
  6  8  2  0  0  0  0
  6  9  1  0  0  0  0
  9 10  1  0  0  0  0
  9 33  1  0  0  0  0
 10 11  1  0  0  0  0
 10 34  1  0  0  0  0
 10 35  1  0  0  0  0
 11 22  1  0  0  0  0
 11 12  2  0  0  0  0
 12 13  1  0  0  0  0
 12 36  1  0  0  0  0
 13 14  2  0  0  0  0
 13 37  1  0  0  0  0
 14 15  1  0  0  0  0
 14 21  1  0  0  0  0
 15 20  1  0  0  0  0
 15 16  1  0  0  0  0
 16 17  1  0  0  0  0
 16 38  1  0  0  0  0
 16 39  1  0  0  0  0
 17 18  1  0  0  0  0
 17 40  1  0  0  0  0
 17 41  1  0  0  0  0
 18 19  1  0  0  0  0
 19 20  1  0  0  0  0
 19 42  1  0  0  0  0
 19 43  1  0  0  0  0
 20 44  1  0  0  0  0
 20 45  1  0  0  0  0
 21 22  2  0  0  0  0
 22 46  1  0  0  0  0
M  END
> <s_m_source_file>
AV-unprocessed.smi

> <i_m_source_file_index>
2170

> <i_lp_mmshare_version>
43012

> <i_f3d_flags>
0

> <s_epik_input>
W0NIM11bQ0hdKFtDSDNdKU4oW0NIM10pUyg9TykoPU8pW05IXVtDSDJdYzFbY0hdW2NIXWMobltjSF0xKU4yW0NIMl1bQ0gyXU9bQ0gyXVtDSDJdMg==

> <s_epik_cmdline>
J2VwaWtfcHl0aG9uJywgJy1waCcsICc3LjAnLCAnLXRuJywgJzgnLCAnLW1hJywgJzIwMCcsICctbWV0YWxfYmluZGluZycsICctaW1hZScsICc8aW5maWxlLm1hZT4nLCAnLW9tYWUnLCAnPG91dGZpbGUubWFlPic=

> <r_lp_tautomer_probability>
1

> <r_epik_Ionization_Penalty>
0.00966832

> <r_epik_Ionization_Penalty_Charging>
0

> <r_epik_Ionization_Penalty_Neutral>
0.00966832

> <r_epik_State_Penalty>
0.00558185

> <r_epik_Charging_Adjusted_Penalty>
0.00558185

> <i_epik_Tot_Q>
0

> <i_epik_Tot_abs_Q>
0

> <r_epik_Metal_State_Penalty>
0.341978

> <b_epik_Metal_Only>
0

> <s_lp_Force_Field>
OPLS_2005

> <r_lp_Energy>
19.49

> <b_lp_Chiralities_Consistent>
1

> <s_lp_Variant>
AV-unprocessed.smi:2170-1

> <Gold.Version>
5.8.1

> <Gold.Id.Protein>
6NUR|6NUR_protein|mol2

> <Gold.PLP.Fitness>
37.1647

> <Gold.PLP.PLP>
-25.5454

> <Gold.PLP.part.hbond>
-4.3206

> <Gold.PLP.part.metal>
0.0000

> <Gold.PLP.part.buried>
0.7310

> <Gold.PLP.part.nonpolar>
-23.1814

> <Gold.PLP.part.repulsive>
0.4734

> <Gold.PLP.ligand.clash>
0.0000

> <Gold.PLP.ligand.torsion>
1.9436

> <Gold.PLP.Chemscore.Hbond>
4.0133

> <Gold.PLP.Chemscore.CHOScore>
0.5954

> <Gold.PLP.Chemscore.Metal>
0.0000

> <Gold.Chemscore.Hbonds>
donor molecule, donor type, donor heavy atom, donor atom, acceptor molecule, acceptor atom, score
      L1  H     9    33       P1  8029  1.00
      P1  H  6933  6944       L1     7  0.94
      P1  H  6934  6946       L1     8  1.00
      P1  H  7989  7998       L1    15  0.39
      P1  H 10752 10765       L1    18  0.70
      L1  C    22    46       P1  8028  0.48

> <Gold.PLP.Chemscore.Internal.Correction>
1.6806

> <Gold.Rescore>
     Score         DG    S(hbond)    S(metal)    S(lipo)     H(rot)  DE(clash)    DE(int)     intcor
     14.68     -17.45       2.37        0.00      77.84       1.98       1.13       1.63       ----

> <Gold.Chemscore.Fitness>
14.6834

> <Gold.Chemscore.DG>
-17.4465

> <Gold.Chemscore.ZeroCoef>
-5.4800

> <Gold.Chemscore.Hbond>
2.3739

> <Gold.Chemscore.Metal>
0.0000

> <Gold.Chemscore.Lipo>
77.8394

> <Gold.Chemscore.Internal_Hbond>
0.0000

> <Gold.Chemscore.DEClash>
1.1289

> <Gold.Chemscore.DEInternal>
1.6342

> <Gold.Chemscore.Rot>
1.9803

> <Gold.Chemscore.Internal.Correction>
   9.000000E+99

> <Gold.Chemscore.Hbonds>
donor molecule, donor type, donor heavy atom, donor atom, acceptor molecule, acceptor atom, score
      L1  H     9    33       P1  8029  0.65
      P1  H  6933  6944       L1     7  0.54
      P1  H  6934  6946       L1     8  0.43
      P1  H 10752 10765       L1    18  0.12

> <Gold.Chemscore.Hbond.Weighted>
-7.9289

> <Gold.Chemscore.Metal.Weighted>
-0.0000

> <Gold.Chemscore.Lipo.Weighted>
-9.1072

> <Gold.Chemscore.Internal_Hbond.Weighted>
0.0000

> <Gold.Chemscore.DEClash.Weighted>
1.1289

> <Gold.Chemscore.DEInternal.Weighted>
1.6342

> <Gold.Chemscore.Rot.Weighted>
5.0696

> <Gold.Chemscore.Internal.Correction.Weighted>
   9.000000E+99

> <Gold.Protein.RotatedTorsions>
[ 6907 6896 6895 6894 ] final  175.85 input  -60.11 | X-H torsion
[ 7974 7965 7964 7962 ] final  122.98 input  175.53 | X-H torsion
[ 8008 7997 7996 7995 ] final   83.49 input   59.86 | X-H torsion
[ 10167 10162 10161 10158 ] final  172.88 input  -65.29 | X-H torsion
[ 10718 10713 10712 10709 ] final  -12.46 input   66.30 | X-H torsion
[ 10763 10752 10751 10750 ] final  153.60 input  -60.55 | X-H torsion
[ 11005 11000 10999 10996 ] final  -87.59 input  -57.11 | X-H torsion

> <Gold.Protein.ActiveResidues>
 VAL166  LYS551  ARG553  GLY616  TRP617  ASP618  TYR619  PRO620  LYS621  CYS622 
 ASP623  PHE694  ASN695  SER759  ASP760  ASP761  ALA762  ILE779  LEU786  VAL792 
 PHE793  MET794  SER795  GLU796  ALA797  LYS798  CYS799  TRP800  GLU811  SER814 

> <Gold.Protein.RotatedAtoms>
  151.7295  133.3317  159.3336 H   0  0  0  0  0  0  0  0  0  0  0  0  # atno 6907 bound_to 6896
  150.7618  134.6376  159.6229 H   0  0  0  0  0  0  0  0  0  0  0  0  # atno 6908 bound_to 6896
  152.3600  134.6887  160.0261 H   0  0  0  0  0  0  0  0  0  0  0  0  # atno 6909 bound_to 6896
  145.1013  139.3517  143.4810 H   0  0  0  0  0  0  0  0  0  0  0  0  # atno 7974 bound_to 7965
  155.9246  140.3419  155.6200 H   0  0  0  0  0  0  0  0  0  0  0  0  # atno 8008 bound_to 7997
  155.7232  140.0786  157.2340 H   0  0  0  0  0  0  0  0  0  0  0  0  # atno 8009 bound_to 7997
  154.4075  140.1601  156.2413 H   0  0  0  0  0  0  0  0  0  0  0  0  # atno 8010 bound_to 7997
  139.5090  144.3323  152.0099 H   0  0  0  0  0  0  0  0  0  0  0  0  # atno 10167 bound_to 10162
  156.6443  130.4937  149.6084 H   0  0  0  0  0  0  0  0  0  0  0  0  # atno 10718 bound_to 10713
  154.1389  135.2822  155.3166 H   0  0  0  0  0  0  0  0  0  0  0  0  # atno 10763 bound_to 10752
  154.6302  135.5438  153.7675 H   0  0  0  0  0  0  0  0  0  0  0  0  # atno 10764 bound_to 10752
  153.0257  135.6460  154.1536 H   0  0  0  0  0  0  0  0  0  0  0  0  # atno 10765 bound_to 10752
  141.1614  133.7520  156.9328 H   0  0  0  0  0  0  0  0  0  0  0  0  # atno 11005 bound_to 11000
  146.3529  140.0891  142.8613 LP  0  0  0  0  0  0  0  0  0  0  0  0  # atno 17320 bound_to 7965
  145.0953  140.9311  143.4745 LP  0  0  0  0  0  0  0  0  0  0  0  0  # atno 17321 bound_to 7965
  140.2763  144.3909  150.6134 LP  0  0  0  0  0  0  0  0  0  0  0  0  # atno 17342 bound_to 10162
  140.6051  143.2167  151.6996 LP  0  0  0  0  0  0  0  0  0  0  0  0  # atno 17343 bound_to 10162
  156.2134  130.6693  151.1293 LP  0  0  0  0  0  0  0  0  0  0  0  0  # atno 17370 bound_to 10713
  157.7161  131.0709  150.6321 LP  0  0  0  0  0  0  0  0  0  0  0  0  # atno 17371 bound_to 10713
  140.1374  134.9316  157.2421 LP  0  0  0  0  0  0  0  0  0  0  0  0  # atno 17394 bound_to 11000
  140.2878  134.3276  155.7324 LP  0  0  0  0  0  0  0  0  0  0  0  0  # atno 17395 bound_to 11000

$$$$
