AV-unprocessed.smi:1762|AV-procd|sdf|7126|dock6
  -GOLD-   22720 8363D 1   1.00000     0.00000
 Structure written by MMmdl.
 52 53  0  0  0  0  0  0  0  0  3 V2000
  149.8260  135.6231  155.5241 C   0  0  0  0  0  0  0  0  0  0  0  0
  150.0786  136.1341  156.9539 C   0  0  1  0  0  0  0  0  0  0  0  0
  150.6456  137.5642  157.0036 C   0  0  0  0  0  0  0  0  0  0  0  0
  149.6126  138.5829  156.6550 N   0  3  2  0  0  0  0  0  0  0  0  0
  150.1597  139.9811  156.5953 C   0  0  1  0  0  0  0  0  0  0  0  0
  151.6179  139.9751  156.0739 C   0  0  0  0  0  0  0  0  0  0  0  0
  151.8072  139.9239  154.8533 O   0  0  0  0  0  0  0  0  0  0  0  0
  152.5127  139.9897  157.1006 N   0  5  0  0  0  0  0  0  0  0  0  0
  152.1719  140.3514  158.4754 C   0  0  0  0  0  0  0  0  0  0  0  0
  153.4355  140.8178  159.2351 C   0  0  0  0  0  0  0  0  0  0  0  0
  153.1620  141.8087  160.3619 C   0  0  0  0  0  0  0  0  0  0  0  0
  152.4944  143.0271  160.1005 C   0  0  0  0  0  0  0  0  0  0  0  0
  152.2479  143.9058  161.1731 C   0  0  0  0  0  0  0  0  0  0  0  0
  152.6713  143.5360  162.4640 C   0  0  0  0  0  0  0  0  0  0  0  0
  153.3234  142.2977  162.6261 C   0  0  0  0  0  0  0  0  0  0  0  0
  153.5631  141.4469  161.6053 N   0  0  0  0  0  0  0  0  0  0  0  0
  149.2763  140.9952  155.7910 C   0  0  0  0  0  0  0  0  0  0  0  0
  148.0096  141.4718  156.5329 C   0  0  0  0  0  0  0  0  0  0  0  0
  148.9048  140.4853  154.3846 C   0  0  0  0  0  0  0  0  0  0  0  0
  148.4382  138.4019  157.5516 C   0  0  0  0  0  0  0  0  0  0  0  0
  147.8923  136.9650  157.4645 C   0  0  2  0  0  0  0  0  0  0  0  0
  146.7348  136.7305  158.4415 C   0  0  0  0  0  0  0  0  0  0  0  0
  148.9228  136.0366  157.7815 O   0  0  0  0  0  0  0  0  0  0  0  0
  150.7585  135.5792  154.9606 H   0  0  0  0  0  0  0  0  0  0  0  0
  149.1443  136.2656  154.9673 H   0  0  0  0  0  0  0  0  0  0  0  0
  149.4037  134.6182  155.5392 H   0  0  0  0  0  0  0  0  0  0  0  0
  150.8204  135.4691  157.3974 H   0  0  0  0  0  0  0  0  0  0  0  0
  151.0218  137.7731  158.0066 H   0  0  0  0  0  0  0  0  0  0  0  0
  151.5070  137.6113  156.3378 H   0  0  0  0  0  0  0  0  0  0  0  0
  150.1528  140.3347  157.6297 H   0  0  0  0  0  0  0  0  0  0  0  0
  151.4121  141.1330  158.5179 H   0  0  0  0  0  0  0  0  0  0  0  0
  151.7416  139.4992  159.0017 H   0  0  0  0  0  0  0  0  0  0  0  0
  153.9514  139.9529  159.6550 H   0  0  0  0  0  0  0  0  0  0  0  0
  154.1393  141.2759  158.5382 H   0  0  0  0  0  0  0  0  0  0  0  0
  152.1812  143.2839  159.0990 H   0  0  0  0  0  0  0  0  0  0  0  0
  151.7420  144.8457  161.0086 H   0  0  0  0  0  0  0  0  0  0  0  0
  152.4995  144.1848  163.3101 H   0  0  0  0  0  0  0  0  0  0  0  0
  153.6591  141.9807  163.6024 H   0  0  0  0  0  0  0  0  0  0  0  0
  149.8853  141.8769  155.5953 H   0  0  0  0  0  0  0  0  0  0  0  0
  147.2754  140.6730  156.6347 H   0  0  0  0  0  0  0  0  0  0  0  0
  147.5258  142.2822  155.9873 H   0  0  0  0  0  0  0  0  0  0  0  0
  148.2331  141.8435  157.5322 H   0  0  0  0  0  0  0  0  0  0  0  0
  148.2099  139.6459  154.4242 H   0  0  0  0  0  0  0  0  0  0  0  0
  149.7902  140.1589  153.8384 H   0  0  0  0  0  0  0  0  0  0  0  0
  148.4298  141.2718  153.7977 H   0  0  0  0  0  0  0  0  0  0  0  0
  148.7233  138.6433  158.5770 H   0  0  0  0  0  0  0  0  0  0  0  0
  147.6228  139.0683  157.2789 H   0  0  0  0  0  0  0  0  0  0  0  0
  147.5228  136.7756  156.4565 H   0  0  0  0  0  0  0  0  0  0  0  0
  145.9022  137.4029  158.2332 H   0  0  0  0  0  0  0  0  0  0  0  0
  147.0483  136.8948  159.4730 H   0  0  0  0  0  0  0  0  0  0  0  0
  146.3625  135.7086  158.3656 H   0  0  0  0  0  0  0  0  0  0  0  0
  149.2987  138.3709  155.7188 H   0  0  0  0  0  0  0  0  0  0  0  0
  1  2  1  0  0  0  0
  1 24  1  0  0  0  0
  1 25  1  0  0  0  0
  1 26  1  0  0  0  0
  2 23  1  0  0  0  0
  2  3  1  0  0  0  0
  2 27  1  0  0  0  0
  3  4  1  0  0  0  0
  3 28  1  0  0  0  0
  3 29  1  0  0  0  0
  4  5  1  0  0  0  0
  4 20  1  0  0  0  0
  4 52  1  0  0  0  0
  5  6  1  0  0  0  0
  5 17  1  0  0  0  0
  5 30  1  0  0  0  0
  6  7  2  0  0  0  0
  6  8  1  0  0  0  0
  8  9  1  0  0  0  0
  9 10  1  0  0  0  0
  9 31  1  0  0  0  0
  9 32  1  0  0  0  0
 10 11  1  0  0  0  0
 10 33  1  0  0  0  0
 10 34  1  0  0  0  0
 11 16  1  0  0  0  0
 11 12  2  0  0  0  0
 12 13  1  0  0  0  0
 12 35  1  0  0  0  0
 13 14  2  0  0  0  0
 13 36  1  0  0  0  0
 14 15  1  0  0  0  0
 14 37  1  0  0  0  0
 15 16  2  0  0  0  0
 15 38  1  0  0  0  0
 17 18  1  0  0  0  0
 17 19  1  0  0  0  0
 17 39  1  0  0  0  0
 18 40  1  0  0  0  0
 18 41  1  0  0  0  0
 18 42  1  0  0  0  0
 19 43  1  0  0  0  0
 19 44  1  0  0  0  0
 19 45  1  0  0  0  0
 20 21  1  0  0  0  0
 20 46  1  0  0  0  0
 20 47  1  0  0  0  0
 21 22  1  0  0  0  0
 21 23  1  0  0  0  0
 21 48  1  0  0  0  0
 22 49  1  0  0  0  0
 22 50  1  0  0  0  0
 22 51  1  0  0  0  0
M  CHG  1   4   1
M  CHG  1   8  -1
M  END
> <s_m_source_file>
AV-unprocessed.smi

> <i_m_source_file_index>
1762

> <i_lp_mmshare_version>
43012

> <i_f3d_flags>
0

> <s_epik_input>
W0NIM11bQ0BASF0xW0NIMl1OKFtDSDJdW0NASF0oTzEpW0NIM10pW0NAQEhdKFtDSF0oW0NIM10pW0NIM10pQyg9TylbTkhdW0NIMl1bQ0gyXWMyW2NIXVtjSF1bY0hdW2NIXW4y

> <s_epik_cmdline>
J2VwaWtfcHl0aG9uJywgJy1waCcsICc3LjAnLCAnLXRuJywgJzgnLCAnLW1hJywgJzIwMCcsICctbWV0YWxfYmluZGluZycsICctaW1hZScsICc8aW5maWxlLm1hZT4nLCAnLW9tYWUnLCAnPG91dGZpbGUubWFlPic=

> <r_epik_Ionization_Penalty>
7.82966

> <r_epik_Ionization_Penalty_Charging>
7.7461

> <r_epik_Ionization_Penalty_Neutral>
0.0835571

> <r_epik_State_Penalty>
8.52273

> <r_epik_Charging_Adjusted_Penalty>
16.2688

> <i_epik_Tot_Q>
0

> <i_epik_Tot_abs_Q>
2

> <r_epik_Metal_State_Penalty>
4.47451

> <b_epik_Metal_Only>
1

> <s_lp_Force_Field>
OPLS_2005

> <r_lp_Energy>
24.57

> <b_lp_Chiralities_Consistent>
1

> <s_lp_Variant>
AV-unprocessed.smi:1762-28

> <Gold.Version>
5.8.1

> <Gold.Id.Protein>
6NUR|6NUR_protein|mol2

> <Gold.PLP.Fitness>
45.4376

> <Gold.PLP.PLP>
-39.3066

> <Gold.PLP.part.hbond>
-2.0000

> <Gold.PLP.part.metal>
0.0000

> <Gold.PLP.part.buried>
-6.3660

> <Gold.PLP.part.nonpolar>
-31.0284

> <Gold.PLP.part.repulsive>
0.0617

> <Gold.PLP.ligand.clash>
0.0000

> <Gold.PLP.ligand.torsion>
1.5162

> <Gold.PLP.Chemscore.Hbond>
2.9760

> <Gold.PLP.Chemscore.CHOScore>
0.0000

> <Gold.PLP.Chemscore.Metal>
0.0000

> <Gold.Chemscore.Hbonds>
donor molecule, donor type, donor heavy atom, donor atom, acceptor molecule, acceptor atom, score
      P1  H  7989  7998       L1     7  0.98
      P1  H  7997  8008       L1     8  2.00

> <Gold.PLP.Chemscore.Internal.Correction>
0.2354

> <Gold.Rescore>
     Score         DG    S(hbond)    S(metal)    S(lipo)     H(rot)  DE(clash)    DE(int)     intcor
     18.01     -19.90       1.79        0.00     107.19       1.60       0.13       1.76       ----

> <Gold.Chemscore.Fitness>
18.0130

> <Gold.Chemscore.DG>
-19.9037

> <Gold.Chemscore.ZeroCoef>
-5.4800

> <Gold.Chemscore.Hbond>
1.7909

> <Gold.Chemscore.Metal>
0.0000

> <Gold.Chemscore.Lipo>
107.1894

> <Gold.Chemscore.Internal_Hbond>
0.0000

> <Gold.Chemscore.DEClash>
0.1325

> <Gold.Chemscore.DEInternal>
1.7582

> <Gold.Chemscore.Rot>
1.6012

> <Gold.Chemscore.Internal.Correction>
   9.000000E+99

> <Gold.Chemscore.Hbonds>
donor molecule, donor type, donor heavy atom, donor atom, acceptor molecule, acceptor atom, score
      P1  H  7989  7998       L1     7  0.93
      P1  H  7997  8008       L1     8  0.87

> <Gold.Chemscore.Hbond.Weighted>
-5.9815

> <Gold.Chemscore.Metal.Weighted>
-0.0000

> <Gold.Chemscore.Lipo.Weighted>
-12.5412

> <Gold.Chemscore.Internal_Hbond.Weighted>
0.0000

> <Gold.Chemscore.DEClash.Weighted>
0.1325

> <Gold.Chemscore.DEInternal.Weighted>
1.7582

> <Gold.Chemscore.Rot.Weighted>
4.0990

> <Gold.Chemscore.Internal.Correction.Weighted>
   9.000000E+99

> <Gold.Protein.RotatedTorsions>
[ 6907 6896 6895 6894 ] final  163.36 input  -60.11 | X-H torsion
[ 7974 7965 7964 7962 ] final -117.27 input  175.53 | X-H torsion
[ 8008 7997 7996 7995 ] final  -60.62 input   59.86 | X-H torsion
[ 10167 10162 10161 10158 ] final   45.59 input  -65.29 | X-H torsion
[ 10718 10713 10712 10709 ] final  170.16 input   66.30 | X-H torsion
[ 10763 10752 10751 10750 ] final   37.59 input  -60.55 | X-H torsion
[ 11005 11000 10999 10996 ] final  -50.99 input  -57.11 | X-H torsion

> <Gold.Protein.ActiveResidues>
 VAL166  LYS551  ARG553  GLY616  TRP617  ASP618  TYR619  PRO620  LYS621  CYS622 
 ASP623  PHE694  ASN695  SER759  ASP760  ASP761  ALA762  ILE779  LEU786  VAL792 
 PHE793  MET794  SER795  GLU796  ALA797  LYS798  CYS799  TRP800  GLU811  SER814 

> <Gold.Protein.RotatedAtoms>
  151.9264  133.3599  159.3915 H   0  0  0  0  0  0  0  0  0  0  0  0  # atno 6907 bound_to 6896
  150.7026  134.4582  159.5377 H   0  0  0  0  0  0  0  0  0  0  0  0  # atno 6908 bound_to 6896
  152.2215  134.8408  160.0536 H   0  0  0  0  0  0  0  0  0  0  0  0  # atno 6909 bound_to 6896
  145.0871  140.8465  143.4004 H   0  0  0  0  0  0  0  0  0  0  0  0  # atno 7974 bound_to 7965
  154.4407  140.1035  156.6302 H   0  0  0  0  0  0  0  0  0  0  0  0  # atno 8008 bound_to 7997
  155.5612  140.3487  155.4473 H   0  0  0  0  0  0  0  0  0  0  0  0  # atno 8009 bound_to 7997
  156.0458  140.1292  157.0095 H   0  0  0  0  0  0  0  0  0  0  0  0  # atno 8010 bound_to 7997
  140.3226  144.2687  150.6180 H   0  0  0  0  0  0  0  0  0  0  0  0  # atno 10167 bound_to 10162
  157.0121  131.0207  151.2800 H   0  0  0  0  0  0  0  0  0  0  0  0  # atno 10718 bound_to 10713
  153.0032  135.6273  154.2169 H   0  0  0  0  0  0  0  0  0  0  0  0  # atno 10763 bound_to 10752
  154.1912  135.2808  155.3023 H   0  0  0  0  0  0  0  0  0  0  0  0  # atno 10764 bound_to 10752
  154.5758  135.5662  153.7197 H   0  0  0  0  0  0  0  0  0  0  0  0  # atno 10765 bound_to 10752
  141.0846  133.6645  156.3811 H   0  0  0  0  0  0  0  0  0  0  0  0  # atno 11005 bound_to 11000
  145.1109  139.2757  143.5638 LP  0  0  0  0  0  0  0  0  0  0  0  0  # atno 17320 bound_to 7965
  146.3531  140.0705  142.8623 LP  0  0  0  0  0  0  0  0  0  0  0  0  # atno 17321 bound_to 7965
  140.5470  143.2213  151.7991 LP  0  0  0  0  0  0  0  0  0  0  0  0  # atno 17342 bound_to 10162
  139.4871  144.4526  151.9636 LP  0  0  0  0  0  0  0  0  0  0  0  0  # atno 17343 bound_to 10162
  157.5312  130.8060  149.7920 LP  0  0  0  0  0  0  0  0  0  0  0  0  # atno 17370 bound_to 10713
  156.0132  130.3824  150.2195 LP  0  0  0  0  0  0  0  0  0  0  0  0  # atno 17371 bound_to 10713
  140.5391  134.6138  157.5374 LP  0  0  0  0  0  0  0  0  0  0  0  0  # atno 17394 bound_to 11000
  139.9663  134.7367  156.0131 LP  0  0  0  0  0  0  0  0  0  0  0  0  # atno 17395 bound_to 11000

$$$$
