AV-unprocessed.smi:2525|AV-procd|sdf|9926|dock3
  -GOLD-   2272013563D 1   1.00000     0.00000
 Structure written by MMmdl.
 44 45  0  0  0  0  0  0  0  0  1 V2000
  149.6362  142.7637  158.1312 C   0  0  0  0  0  0  0  0  0  0  0  0
  149.8254  141.2441  158.2720 C   0  0  0  0  0  0  0  0  0  0  0  0
  151.1737  140.6894  157.7391 C   0  0  0  0  0  0  0  0  0  0  0  0
  152.3203  141.5566  158.3156 C   0  0  0  0  0  0  0  0  0  0  0  0
  152.4759  141.5183  159.8455 C   0  0  0  0  0  0  0  0  0  0  0  0
  151.4235  139.1569  157.8763 C   0  0  1  0  0  0  0  0  0  0  0  0
  150.1918  138.3686  157.9206 N   0  0  0  0  0  0  0  0  0  0  0  0
  149.8749  137.4594  158.8532 C   0  0  0  0  0  0  0  0  0  0  0  0
  150.6401  137.1042  159.7487 O   0  0  0  0  0  0  0  0  0  0  0  0
  148.4607  136.8829  158.7770 C   0  0  0  0  0  0  0  0  0  0  0  0
  148.0466  136.3601  160.0682 N   0  0  0  0  0  0  0  0  0  0  0  0
  147.8265  135.0477  160.4332 C   0  0  0  0  0  0  0  0  0  0  0  0
  147.4933  135.1367  161.7544 C   0  0  0  0  0  0  0  0  0  0  0  0
  147.5232  136.4775  162.1335 N   0  0  0  0  0  0  0  0  0  0  0  0
  147.8538  137.2031  161.1119 N   0  0  0  0  0  0  0  0  0  0  0  0
  152.0438  139.1521  156.4693 C   0  0  1  0  0  0  0  0  0  0  0  0
  151.8942  137.9573  155.5291 C   0  0  0  0  0  0  0  0  0  0  0  0
  151.2752  140.4566  156.2023 C   0  0  1  0  0  0  0  0  0  0  0  0
  150.0282  140.1814  155.5732 O   0  0  0  0  0  0  0  0  0  0  0  0
  149.4117  141.3368  155.0309 C   0  0  0  0  0  0  0  0  0  0  0  0
  148.7361  143.0847  158.6555 H   0  0  0  0  0  0  0  0  0  0  0  0
  149.5245  143.0639  157.0900 H   0  0  0  0  0  0  0  0  0  0  0  0
  150.4745  143.3168  158.5525 H   0  0  0  0  0  0  0  0  0  0  0  0
  149.7103  141.0031  159.3285 H   0  0  0  0  0  0  0  0  0  0  0  0
  148.9846  140.7412  157.7967 H   0  0  0  0  0  0  0  0  0  0  0  0
  153.2711  141.2942  157.8529 H   0  0  0  0  0  0  0  0  0  0  0  0
  152.1695  142.5994  158.0373 H   0  0  0  0  0  0  0  0  0  0  0  0
  153.2149  142.2510  160.1703 H   0  0  0  0  0  0  0  0  0  0  0  0
  152.8189  140.5457  160.1964 H   0  0  0  0  0  0  0  0  0  0  0  0
  151.5404  141.7507  160.3535 H   0  0  0  0  0  0  0  0  0  0  0  0
  152.1466  138.9037  158.6536 H   0  0  0  0  0  0  0  0  0  0  0  0
  149.4958  138.5885  157.2224 H   0  0  0  0  0  0  0  0  0  0  0  0
  147.7609  137.6535  158.4496 H   0  0  0  0  0  0  0  0  0  0  0  0
  148.4223  136.0763  158.0437 H   0  0  0  0  0  0  0  0  0  0  0  0
  147.9299  134.2113  159.7576 H   0  0  0  0  0  0  0  0  0  0  0  0
  147.2412  134.3565  162.4576 H   0  0  0  0  0  0  0  0  0  0  0  0
  153.1034  139.3934  156.5673 H   0  0  0  0  0  0  0  0  0  0  0  0
  150.8502  137.6961  155.3567 H   0  0  0  0  0  0  0  0  0  0  0  0
  152.3900  137.0755  155.9347 H   0  0  0  0  0  0  0  0  0  0  0  0
  152.3404  138.1670  154.5571 H   0  0  0  0  0  0  0  0  0  0  0  0
  151.8825  141.1816  155.6577 H   0  0  0  0  0  0  0  0  0  0  0  0
  148.4435  141.0693  154.6084 H   0  0  0  0  0  0  0  0  0  0  0  0
  150.0199  141.7643  154.2329 H   0  0  0  0  0  0  0  0  0  0  0  0
  149.2484  142.1018  155.7896 H   0  0  0  0  0  0  0  0  0  0  0  0
  1  2  1  0  0  0  0
  1 21  1  0  0  0  0
  1 22  1  0  0  0  0
  1 23  1  0  0  0  0
  2  3  1  0  0  0  0
  2 24  1  0  0  0  0
  2 25  1  0  0  0  0
  3 18  1  0  0  0  0
  3  4  1  0  0  0  0
  3  6  1  0  0  0  0
  4  5  1  0  0  0  0
  4 26  1  0  0  0  0
  4 27  1  0  0  0  0
  5 28  1  0  0  0  0
  5 29  1  0  0  0  0
  5 30  1  0  0  0  0
  6  7  1  0  0  0  0
  6 16  1  0  0  0  0
  6 31  1  0  0  0  0
  7  8  1  0  0  0  0
  7 32  1  0  0  0  0
  8  9  2  0  0  0  0
  8 10  1  0  0  0  0
 10 11  1  0  0  0  0
 10 33  1  0  0  0  0
 10 34  1  0  0  0  0
 11 15  1  0  0  0  0
 11 12  1  0  0  0  0
 12 13  2  0  0  0  0
 12 35  1  0  0  0  0
 13 14  1  0  0  0  0
 13 36  1  0  0  0  0
 14 15  2  0  0  0  0
 16 17  1  0  0  0  0
 16 18  1  0  0  0  0
 16 37  1  0  0  0  0
 17 38  1  0  0  0  0
 17 39  1  0  0  0  0
 17 40  1  0  0  0  0
 18 19  1  0  0  0  0
 18 41  1  0  0  0  0
 19 20  1  0  0  0  0
 20 42  1  0  0  0  0
 20 43  1  0  0  0  0
 20 44  1  0  0  0  0
M  END
> <s_m_source_file>
AV-unprocessed.smi

> <i_m_source_file_index>
2525

> <i_lp_mmshare_version>
43012

> <i_f3d_flags>
0

> <s_epik_input>
W0NIM11PW0NAQEhdMVtDQEhdKFtDSDNdKVtDQEBIXShDMShbQ0gyXVtDSDNdKVtDSDJdW0NIM10pW05IXUMoPU8pW0NIMl1uMltjSF1bY0hdbm4y

> <s_epik_cmdline>
J2VwaWtfcHl0aG9uJywgJy1waCcsICc3LjAnLCAnLXRuJywgJzgnLCAnLW1hJywgJzIwMCcsICctbWV0YWxfYmluZGluZycsICctaW1hZScsICc8aW5maWxlLm1hZT4nLCAnLW9tYWUnLCAnPG91dGZpbGUubWFlPic=

> <r_lp_tautomer_probability>
1

> <r_epik_Ionization_Penalty>
1.18045e-06

> <r_epik_Ionization_Penalty_Charging>
0

> <r_epik_Ionization_Penalty_Neutral>
1.18045e-06

> <r_epik_State_Penalty>
-0

> <r_epik_Charging_Adjusted_Penalty>
0

> <i_epik_Tot_Q>
0

> <i_epik_Tot_abs_Q>
0

> <r_epik_Metal_State_Penalty>
-0

> <b_epik_Metal_Only>
0

> <s_lp_Force_Field>
OPLS_2005

> <r_lp_Energy>
28.1352

> <b_lp_Chiralities_Consistent>
1

> <s_lp_Variant>
AV-unprocessed.smi:2525-1

> <Gold.Version>
5.8.1

> <Gold.Id.Protein>
6NUR|6NUR_protein|mol2

> <Gold.PLP.Fitness>
39.8498

> <Gold.PLP.PLP>
-32.8457

> <Gold.PLP.part.hbond>
-3.3214

> <Gold.PLP.part.metal>
0.0000

> <Gold.PLP.part.buried>
-5.8153

> <Gold.PLP.part.nonpolar>
-24.2417

> <Gold.PLP.part.repulsive>
0.1147

> <Gold.PLP.ligand.clash>
0.0000

> <Gold.PLP.ligand.torsion>
0.9605

> <Gold.PLP.Chemscore.Hbond>
2.7273

> <Gold.PLP.Chemscore.CHOScore>
0.0000

> <Gold.PLP.Chemscore.Metal>
0.0000

> <Gold.Chemscore.Hbonds>
donor molecule, donor type, donor heavy atom, donor atom, acceptor molecule, acceptor atom, score
      P1  H  6896  6908       L1     9  0.89
      P1  H  6931  6943       L1    15  0.91
      P1  H  6934  6947       L1    15  0.78

> <Gold.PLP.Chemscore.Internal.Correction>
0.7433

> <Gold.Rescore>
     Score         DG    S(hbond)    S(metal)    S(lipo)     H(rot)  DE(clash)    DE(int)     intcor
     16.25     -17.19       2.39        0.00      75.24       1.98       0.00       0.95       ----

> <Gold.Chemscore.Fitness>
16.2453

> <Gold.Chemscore.DG>
-17.1931

> <Gold.Chemscore.ZeroCoef>
-5.4800

> <Gold.Chemscore.Hbond>
2.3901

> <Gold.Chemscore.Metal>
0.0000

> <Gold.Chemscore.Lipo>
75.2400

> <Gold.Chemscore.Internal_Hbond>
0.0000

> <Gold.Chemscore.DEClash>
0.0000

> <Gold.Chemscore.DEInternal>
0.9478

> <Gold.Chemscore.Rot>
1.9817

> <Gold.Chemscore.Internal.Correction>
   9.000000E+99

> <Gold.Chemscore.Hbonds>
donor molecule, donor type, donor heavy atom, donor atom, acceptor molecule, acceptor atom, score
      P1  H  6896  6908       L1     9  0.86
      P1  H  6931  6943       L1    15  0.20
      P1  H  6934  6947       L1    15  0.75

> <Gold.Chemscore.Hbond.Weighted>
-7.9831

> <Gold.Chemscore.Metal.Weighted>
-0.0000

> <Gold.Chemscore.Lipo.Weighted>
-8.8031

> <Gold.Chemscore.Internal_Hbond.Weighted>
0.0000

> <Gold.Chemscore.DEClash.Weighted>
0.0000

> <Gold.Chemscore.DEInternal.Weighted>
0.9478

> <Gold.Chemscore.Rot.Weighted>
5.0731

> <Gold.Chemscore.Internal.Correction.Weighted>
   9.000000E+99

> <Gold.Protein.RotatedTorsions>
[ 6907 6896 6895 6894 ] final -137.17 input  -60.11 | X-H torsion
[ 7974 7965 7964 7962 ] final -149.75 input  175.53 | X-H torsion
[ 8008 7997 7996 7995 ] final  122.26 input   59.86 | X-H torsion
[ 10167 10162 10161 10158 ] final   43.59 input  -65.29 | X-H torsion
[ 10718 10713 10712 10709 ] final -138.08 input   66.30 | X-H torsion
[ 10763 10752 10751 10750 ] final   33.47 input  -60.55 | X-H torsion
[ 11005 11000 10999 10996 ] final -170.59 input  -57.11 | X-H torsion

> <Gold.Protein.ActiveResidues>
 VAL166  LYS551  ARG553  GLY616  TRP617  ASP618  TYR619  PRO620  LYS621  CYS622 
 ASP623  PHE694  ASN695  SER759  ASP760  ASP761  ALA762  ILE779  LEU786  VAL792 
 PHE793  MET794  SER795  GLU796  ALA797  LYS798  CYS799  TRP800  GLU811  SER814 

> <Gold.Protein.RotatedAtoms>
  151.0191  133.5893  159.2673 H   0  0  0  0  0  0  0  0  0  0  0  0  # atno 6907 bound_to 6896
  151.3017  135.0769  159.9250 H   0  0  0  0  0  0  0  0  0  0  0  0  # atno 6908 bound_to 6896
  152.5318  133.9871  159.7888 H   0  0  0  0  0  0  0  0  0  0  0  0  # atno 6909 bound_to 6896
  144.7949  140.5024  143.5747 H   0  0  0  0  0  0  0  0  0  0  0  0  # atno 7974 bound_to 7965
  156.2720  140.2790  156.1439 H   0  0  0  0  0  0  0  0  0  0  0  0  # atno 8008 bound_to 7997
  155.0924  140.0389  157.2690 H   0  0  0  0  0  0  0  0  0  0  0  0  # atno 8009 bound_to 7997
  154.6879  140.2623  155.6848 H   0  0  0  0  0  0  0  0  0  0  0  0  # atno 8010 bound_to 7997
  140.3428  144.2448  150.6153 H   0  0  0  0  0  0  0  0  0  0  0  0  # atno 10167 bound_to 10162
  156.2953  130.7398  151.1435 H   0  0  0  0  0  0  0  0  0  0  0  0  # atno 10718 bound_to 10713
  153.0210  135.6386  154.1516 H   0  0  0  0  0  0  0  0  0  0  0  0  # atno 10763 bound_to 10752
  154.1251  135.2844  155.3200 H   0  0  0  0  0  0  0  0  0  0  0  0  # atno 10764 bound_to 10752
  154.6235  135.5517  153.7664 H   0  0  0  0  0  0  0  0  0  0  0  0  # atno 10765 bound_to 10752
  140.5178  134.5739  157.5038 H   0  0  0  0  0  0  0  0  0  0  0  0  # atno 11005 bound_to 11000
  145.5699  139.1483  143.3294 LP  0  0  0  0  0  0  0  0  0  0  0  0  # atno 17320 bound_to 7965
  146.2213  140.5833  142.9016 LP  0  0  0  0  0  0  0  0  0  0  0  0  # atno 17321 bound_to 7965
  140.5292  143.2247  151.8265 LP  0  0  0  0  0  0  0  0  0  0  0  0  # atno 17342 bound_to 10162
  139.4838  144.4741  151.9389 LP  0  0  0  0  0  0  0  0  0  0  0  0  # atno 17343 bound_to 10162
  157.7353  131.0573  150.5474 LP  0  0  0  0  0  0  0  0  0  0  0  0  # atno 17370 bound_to 10713
  156.5596  130.4252  149.6069 LP  0  0  0  0  0  0  0  0  0  0  0  0  # atno 17371 bound_to 10713
  139.9623  134.7432  156.0211 LP  0  0  0  0  0  0  0  0  0  0  0  0  # atno 17394 bound_to 11000
  141.1351  133.6577  156.3571 LP  0  0  0  0  0  0  0  0  0  0  0  0  # atno 17395 bound_to 11000

$$$$
