AV-unprocessed.smi:2055|AV-procd|sdf|8335|dock9
  -GOLD-   2272011 03D 1   1.00000     0.00000
 Structure written by MMmdl.
 43 44  0  0  0  0  0  0  0  0  1 V2000
  144.6571  133.9611  151.1443 C   0  0  0  0  0  0  0  0  0  0  0  0
  145.7438  134.0917  152.2224 C   0  0  1  0  0  0  0  0  0  0  0  0
  146.8325  133.0076  152.0917 C   0  0  0  0  0  0  0  0  0  0  0  0
  148.0522  133.4619  152.6384 O   0  0  0  0  0  0  0  0  0  0  0  0
  146.3435  135.4203  152.1363 N   0  0  0  0  0  0  0  0  0  0  0  0
  145.6889  136.5781  152.3031 C   0  0  0  0  0  0  0  0  0  0  0  0
  144.4813  136.6644  152.5256 O   0  0  0  0  0  0  0  0  0  0  0  0
  146.5150  137.6305  152.2257 N   0  0  0  0  0  0  0  0  0  0  0  0
  146.1174  139.0199  152.4342 C   0  0  0  0  0  0  0  0  0  0  0  0
  147.1006  139.8638  153.2390 C   0  0  0  0  0  0  0  0  0  0  0  0
  146.8104  141.2215  153.4734 C   0  0  0  0  0  0  0  0  0  0  0  0
  147.7290  141.9877  154.2133 C   0  0  0  0  0  0  0  0  0  0  0  0
  148.8771  141.4863  154.7134 N   0  0  0  0  0  0  0  0  0  0  0  0
  149.1738  140.1823  154.4979 C   0  0  0  0  0  0  0  0  0  0  0  0
  150.3767  139.7068  155.0656 N   0  0  0  0  0  0  0  0  0  0  0  0
  151.2522  138.8625  154.2575 C   0  0  0  0  0  0  0  0  0  0  0  0
  152.2973  138.1668  155.1455 C   0  0  0  0  0  0  0  0  0  0  0  0
  153.0069  139.1395  155.9047 O   0  0  0  0  0  0  0  0  0  0  0  0
  152.1429  139.8597  156.7776 C   0  0  0  0  0  0  0  0  0  0  0  0
  151.0874  140.6213  155.9576 C   0  0  0  0  0  0  0  0  0  0  0  0
  148.3091  139.3401  153.7539 C   0  0  0  0  0  0  0  0  0  0  0  0
  144.1553  132.9949  151.2039 H   0  0  0  0  0  0  0  0  0  0  0  0
  145.0772  134.0558  150.1425 H   0  0  0  0  0  0  0  0  0  0  0  0
  143.8946  134.7317  151.2603 H   0  0  0  0  0  0  0  0  0  0  0  0
  145.2639  133.9952  153.1985 H   0  0  0  0  0  0  0  0  0  0  0  0
  146.5299  132.0844  152.5870 H   0  0  0  0  0  0  0  0  0  0  0  0
  147.0124  132.7648  151.0438 H   0  0  0  0  0  0  0  0  0  0  0  0
  148.1209  134.3924  152.4880 H   0  0  0  0  0  0  0  0  0  0  0  0
  147.3363  135.4578  151.9581 H   0  0  0  0  0  0  0  0  0  0  0  0
  147.4922  137.4591  152.0403 H   0  0  0  0  0  0  0  0  0  0  0  0
  145.9927  139.4841  151.4559 H   0  0  0  0  0  0  0  0  0  0  0  0
  145.1385  139.0501  152.9161 H   0  0  0  0  0  0  0  0  0  0  0  0
  145.9025  141.6688  153.0960 H   0  0  0  0  0  0  0  0  0  0  0  0
  147.5365  143.0318  154.4103 H   0  0  0  0  0  0  0  0  0  0  0  0
  150.6699  138.1025  153.7351 H   0  0  0  0  0  0  0  0  0  0  0  0
  151.7488  139.4753  153.5041 H   0  0  0  0  0  0  0  0  0  0  0  0
  151.8224  137.4450  155.8120 H   0  0  0  0  0  0  0  0  0  0  0  0
  153.0038  137.6118  154.5284 H   0  0  0  0  0  0  0  0  0  0  0  0
  151.6673  139.1753  157.4820 H   0  0  0  0  0  0  0  0  0  0  0  0
  152.7362  140.5595  157.3663 H   0  0  0  0  0  0  0  0  0  0  0  0
  151.5678  141.3940  155.3562 H   0  0  0  0  0  0  0  0  0  0  0  0
  150.4071  141.1277  156.6421 H   0  0  0  0  0  0  0  0  0  0  0  0
  148.5628  138.3075  153.5724 H   0  0  0  0  0  0  0  0  0  0  0  0
  1  2  1  0  0  0  0
  1 22  1  0  0  0  0
  1 23  1  0  0  0  0
  1 24  1  0  0  0  0
  2  3  1  0  0  0  0
  2  5  1  0  0  0  0
  2 25  1  0  0  0  0
  3  4  1  0  0  0  0
  3 26  1  0  0  0  0
  3 27  1  0  0  0  0
  4 28  1  0  0  0  0
  5  6  1  0  0  0  0
  5 29  1  0  0  0  0
  6  7  2  0  0  0  0
  6  8  1  0  0  0  0
  8  9  1  0  0  0  0
  8 30  1  0  0  0  0
  9 10  1  0  0  0  0
  9 31  1  0  0  0  0
  9 32  1  0  0  0  0
 10 21  1  0  0  0  0
 10 11  2  0  0  0  0
 11 12  1  0  0  0  0
 11 33  1  0  0  0  0
 12 13  2  0  0  0  0
 12 34  1  0  0  0  0
 13 14  1  0  0  0  0
 14 15  1  0  0  0  0
 14 21  2  0  0  0  0
 15 20  1  0  0  0  0
 15 16  1  0  0  0  0
 16 17  1  0  0  0  0
 16 35  1  0  0  0  0
 16 36  1  0  0  0  0
 17 18  1  0  0  0  0
 17 37  1  0  0  0  0
 17 38  1  0  0  0  0
 18 19  1  0  0  0  0
 19 20  1  0  0  0  0
 19 39  1  0  0  0  0
 19 40  1  0  0  0  0
 20 41  1  0  0  0  0
 20 42  1  0  0  0  0
 21 43  1  0  0  0  0
M  END
> <s_m_source_file>
AV-unprocessed.smi

> <i_m_source_file_index>
2055

> <i_lp_mmshare_version>
43012

> <i_f3d_flags>
0

> <s_epik_input>
W09IXVtDSDJdW0NAQEhdKFtDSDNdKVtOSF1DKD1PKVtOSF1bQ0gyXWMxW2NIXVtjSF1uYyhbY0hdMSlOMltDSDJdW0NIMl1PW0NIMl1bQ0gyXTI=

> <s_epik_cmdline>
J2VwaWtfcHl0aG9uJywgJy1waCcsICc3LjAnLCAnLXRuJywgJzgnLCAnLW1hJywgJzIwMCcsICctbWV0YWxfYmluZGluZycsICctaW1hZScsICc8aW5maWxlLm1hZT4nLCAnLW9tYWUnLCAnPG91dGZpbGUubWFlPic=

> <r_lp_tautomer_probability>
1

> <r_epik_Ionization_Penalty>
0.0122173

> <r_epik_Ionization_Penalty_Charging>
0

> <r_epik_Ionization_Penalty_Neutral>
0.0122173

> <r_epik_State_Penalty>
0.00940497

> <r_epik_Charging_Adjusted_Penalty>
0.00940497

> <i_epik_Tot_Q>
0

> <i_epik_Tot_abs_Q>
0

> <r_epik_Metal_State_Penalty>
0.00921475

> <b_epik_Metal_Only>
0

> <s_lp_Force_Field>
OPLS_2005

> <r_lp_Energy>
11.6971

> <b_lp_Chiralities_Consistent>
1

> <s_lp_Variant>
AV-unprocessed.smi:2055-2

> <Gold.Version>
5.8.1

> <Gold.Id.Protein>
6NUR|6NUR_protein|mol2

> <Gold.PLP.Fitness>
49.2875

> <Gold.PLP.PLP>
-35.2859

> <Gold.PLP.part.hbond>
-4.0000

> <Gold.PLP.part.metal>
0.0000

> <Gold.PLP.part.buried>
-1.5031

> <Gold.PLP.part.nonpolar>
-30.7292

> <Gold.PLP.part.repulsive>
0.4879

> <Gold.PLP.ligand.clash>
0.0000

> <Gold.PLP.ligand.torsion>
0.7123

> <Gold.PLP.Chemscore.Hbond>
3.9760

> <Gold.PLP.Chemscore.CHOScore>
1.0000

> <Gold.PLP.Chemscore.Metal>
0.0000

> <Gold.Chemscore.Hbonds>
donor molecule, donor type, donor heavy atom, donor atom, acceptor molecule, acceptor atom, score
      L1  H     4    28       P1  7948  0.91
      L1  H     5    29       P1  7948  1.00
      L1  H     8    30       P1  7948  1.00
      P1  H  7997  8009       L1    18  0.70
      L1  C    12    34       P1  8028  1.00

> <Gold.PLP.Chemscore.Internal.Correction>
0.4981

> <Gold.Rescore>
     Score         DG    S(hbond)    S(metal)    S(lipo)     H(rot)  DE(clash)    DE(int)     intcor
     17.07     -18.03       3.15        0.00      76.56       2.70       0.34       0.62       ----

> <Gold.Chemscore.Fitness>
17.0716

> <Gold.Chemscore.DG>
-18.0346

> <Gold.Chemscore.ZeroCoef>
-5.4800

> <Gold.Chemscore.Hbond>
3.1488

> <Gold.Chemscore.Metal>
0.0000

> <Gold.Chemscore.Lipo>
76.5586

> <Gold.Chemscore.Internal_Hbond>
0.0000

> <Gold.Chemscore.DEClash>
0.3449

> <Gold.Chemscore.DEInternal>
0.6181

> <Gold.Chemscore.Rot>
2.7031

> <Gold.Chemscore.Internal.Correction>
   9.000000E+99

> <Gold.Chemscore.Hbonds>
donor molecule, donor type, donor heavy atom, donor atom, acceptor molecule, acceptor atom, score
      L1  H     4    28       P1  7948  0.22
      L1  H     5    29       P1  7948  0.99
      L1  H     8    30       P1  7948  0.94
      P1  H  7997  8009       L1    18  0.07

> <Gold.Chemscore.Hbond.Weighted>
-10.5171

> <Gold.Chemscore.Metal.Weighted>
-0.0000

> <Gold.Chemscore.Lipo.Weighted>
-8.9574

> <Gold.Chemscore.Internal_Hbond.Weighted>
0.0000

> <Gold.Chemscore.DEClash.Weighted>
0.3449

> <Gold.Chemscore.DEInternal.Weighted>
0.6181

> <Gold.Chemscore.Rot.Weighted>
6.9199

> <Gold.Chemscore.Internal.Correction.Weighted>
   9.000000E+99

> <Gold.Protein.RotatedTorsions>
[ 6907 6896 6895 6894 ] final -160.27 input  -60.11 | X-H torsion
[ 7974 7965 7964 7962 ] final  -61.95 input  175.53 | X-H torsion
[ 8008 7997 7996 7995 ] final -157.17 input   59.86 | X-H torsion
[ 10167 10162 10161 10158 ] final  144.62 input  -65.29 | X-H torsion
[ 10718 10713 10712 10709 ] final  -75.66 input   66.30 | X-H torsion
[ 10763 10752 10751 10750 ] final   42.55 input  -60.55 | X-H torsion
[ 11005 11000 10999 10996 ] final  165.38 input  -57.11 | X-H torsion

> <Gold.Protein.ActiveResidues>
 VAL166  LYS551  ARG553  GLY616  TRP617  ASP618  TYR619  PRO620  LYS621  CYS622 
 ASP623  PHE694  ASN695  SER759  ASP760  ASP761  ALA762  ILE779  LEU786  VAL792 
 PHE793  MET794  SER795  GLU796  ALA797  LYS798  CYS799  TRP800  GLU811  SER814 

> <Gold.Protein.RotatedAtoms>
  151.3465  133.3942  159.2675 H   0  0  0  0  0  0  0  0  0  0  0  0  # atno 6907 bound_to 6896
  150.9836  134.9187  159.7869 H   0  0  0  0  0  0  0  0  0  0  0  0  # atno 6908 bound_to 6896
  152.5225  134.3429  159.9276 H   0  0  0  0  0  0  0  0  0  0  0  0  # atno 6909 bound_to 6896
  145.7973  140.8675  143.0250 H   0  0  0  0  0  0  0  0  0  0  0  0  # atno 7974 bound_to 7965
  155.7284  140.0799  157.2300 H   0  0  0  0  0  0  0  0  0  0  0  0  # atno 8008 bound_to 7997
  154.4036  140.1600  156.2536 H   0  0  0  0  0  0  0  0  0  0  0  0  # atno 8009 bound_to 7997
  155.9131  140.3402  155.6117 H   0  0  0  0  0  0  0  0  0  0  0  0  # atno 8010 bound_to 7997
  139.4943  144.5959  151.6584 H   0  0  0  0  0  0  0  0  0  0  0  0  # atno 10167 bound_to 10162
  156.0200  130.4446  150.3077 H   0  0  0  0  0  0  0  0  0  0  0  0  # atno 10718 bound_to 10713
  152.9880  135.6128  154.2967 H   0  0  0  0  0  0  0  0  0  0  0  0  # atno 10763 bound_to 10752
  154.2689  135.2780  155.2748 H   0  0  0  0  0  0  0  0  0  0  0  0  # atno 10764 bound_to 10752
  154.5139  135.5833  153.6684 H   0  0  0  0  0  0  0  0  0  0  0  0  # atno 10765 bound_to 10752
  140.2555  134.7943  157.3542 H   0  0  0  0  0  0  0  0  0  0  0  0  # atno 11005 bound_to 11000
  144.6773  140.0208  143.7484 LP  0  0  0  0  0  0  0  0  0  0  0  0  # atno 17320 bound_to 7965
  145.9915  139.3018  143.0982 LP  0  0  0  0  0  0  0  0  0  0  0  0  # atno 17321 bound_to 7965
  140.5597  144.0290  150.6164 LP  0  0  0  0  0  0  0  0  0  0  0  0  # atno 17342 bound_to 10162
  140.3371  143.3042  152.0627 LP  0  0  0  0  0  0  0  0  0  0  0  0  # atno 17343 bound_to 10162
  157.1179  131.0239  151.3021 LP  0  0  0  0  0  0  0  0  0  0  0  0  # atno 17370 bound_to 10713
  157.4652  130.7676  149.7272 LP  0  0  0  0  0  0  0  0  0  0  0  0  # atno 17371 bound_to 10713
  140.1516  134.4843  155.7957 LP  0  0  0  0  0  0  0  0  0  0  0  0  # atno 17394 bound_to 11000
  141.2196  133.6864  156.7387 LP  0  0  0  0  0  0  0  0  0  0  0  0  # atno 17395 bound_to 11000

$$$$
