AV-unprocessed.smi:2660|AV-procd|sdf|10314|dock9
  -GOLD-   2272014333D 1   1.00000     0.00000
 Structure written by MMmdl.
 36 37  0  0  0  0  0  0  0  0  1 V2000
  155.4757  140.4568  162.6282 N   0  0  0  0  0  0  0  0  0  0  0  0
  154.8519  140.0894  161.5019 C   0  0  0  0  0  0  0  0  0  0  0  0
  155.0601  138.9628  161.0514 O   0  0  0  0  0  0  0  0  0  0  0  0
  153.9626  141.1276  160.9319 C   0  0  0  0  0  0  0  0  0  0  0  0
  153.6603  142.2707  161.5879 C   0  0  0  0  0  0  0  0  0  0  0  0
  152.7922  143.2492  160.9938 C   0  0  0  0  0  0  0  0  0  0  0  0
  152.2821  143.0460  159.7649 C   0  0  0  0  0  0  0  0  0  0  0  0
  151.3430  144.0776  159.1268 C   0  0  0  0  0  0  0  0  0  0  0  0
  151.1469  145.1192  159.9368 F   0  0  0  0  0  0  0  0  0  0  0  0
  151.8458  144.5663  157.9949 F   0  0  0  0  0  0  0  0  0  0  0  0
  150.1436  143.5465  158.8865 F   0  0  0  0  0  0  0  0  0  0  0  0
  152.6116  141.8544  159.0457 N   0  0  0  0  0  0  0  0  0  0  0  0
  152.0870  141.6335  157.6745 C   0  0  0  0  0  0  0  0  0  0  0  0
  151.0708  140.4595  157.5991 C   0  0  2  0  0  0  0  0  0  0  0  0
  151.7676  139.2512  157.3730 O   0  0  0  0  0  0  0  0  0  0  0  0
  150.0208  140.6859  156.5203 C   0  0  0  0  0  0  0  0  0  0  0  0
  148.9746  141.6088  156.7356 C   0  0  0  0  0  0  0  0  0  0  0  0
  148.0043  141.8277  155.7388 C   0  0  0  0  0  0  0  0  0  0  0  0
  148.0745  141.1257  154.5203 C   0  0  0  0  0  0  0  0  0  0  0  0
  149.1159  140.2044  154.2990 C   0  0  0  0  0  0  0  0  0  0  0  0
  150.0863  139.9846  155.2959 C   0  0  0  0  0  0  0  0  0  0  0  0
  153.4093  140.8659  159.5782 C   0  0  0  0  0  0  0  0  0  0  0  0
  153.6329  139.8368  158.9339 O   0  0  0  0  0  0  0  0  0  0  0  0
  156.1001  139.8091  163.0865 H   0  0  0  0  0  0  0  0  0  0  0  0
  155.3198  141.3753  163.0167 H   0  0  0  0  0  0  0  0  0  0  0  0
  154.0525  142.4911  162.5696 H   0  0  0  0  0  0  0  0  0  0  0  0
  152.5543  144.1395  161.5564 H   0  0  0  0  0  0  0  0  0  0  0  0
  151.6073  142.5573  157.3442 H   0  0  0  0  0  0  0  0  0  0  0  0
  152.8546  141.5155  156.9158 H   0  0  0  0  0  0  0  0  0  0  0  0
  150.5599  140.3402  158.5556 H   0  0  0  0  0  0  0  0  0  0  0  0
  152.3001  139.3543  156.5990 H   0  0  0  0  0  0  0  0  0  0  0  0
  148.9146  142.1569  157.6645 H   0  0  0  0  0  0  0  0  0  0  0  0
  147.2071  142.5361  155.9088 H   0  0  0  0  0  0  0  0  0  0  0  0
  147.3306  141.2951  153.7557 H   0  0  0  0  0  0  0  0  0  0  0  0
  149.1715  139.6670  153.3637 H   0  0  0  0  0  0  0  0  0  0  0  0
  150.8839  139.2783  155.1173 H   0  0  0  0  0  0  0  0  0  0  0  0
  1  2  1  0  0  0  0
  1 24  1  0  0  0  0
  1 25  1  0  0  0  0
  2  3  2  0  0  0  0
  2  4  1  0  0  0  0
  4 22  1  0  0  0  0
  4  5  2  0  0  0  0
  5  6  1  0  0  0  0
  5 26  1  0  0  0  0
  6  7  2  0  0  0  0
  6 27  1  0  0  0  0
  7  8  1  0  0  0  0
  7 12  1  0  0  0  0
  8  9  1  0  0  0  0
  8 10  1  0  0  0  0
  8 11  1  0  0  0  0
 12 13  1  0  0  0  0
 12 22  1  0  0  0  0
 13 14  1  0  0  0  0
 13 28  1  0  0  0  0
 13 29  1  0  0  0  0
 14 15  1  0  0  0  0
 14 16  1  0  0  0  0
 14 30  1  0  0  0  0
 15 31  1  0  0  0  0
 16 21  1  0  0  0  0
 16 17  2  0  0  0  0
 17 18  1  0  0  0  0
 17 32  1  0  0  0  0
 18 19  2  0  0  0  0
 18 33  1  0  0  0  0
 19 20  1  0  0  0  0
 19 34  1  0  0  0  0
 20 21  2  0  0  0  0
 20 35  1  0  0  0  0
 21 36  1  0  0  0  0
 22 23  2  0  0  0  0
M  END
> <s_m_source_file>
AV-unprocessed.smi

> <i_m_source_file_index>
2660

> <i_lp_mmshare_version>
43012

> <i_f3d_flags>
0

> <s_epik_input>
W05IMl1DKD1PKWMxW2NIXVtjSF1jKEMoRikoRilGKW4oYzE9TylbQ0gyXVtDQEhdKFtPSF0pYzJbY0hdW2NIXVtjSF1bY0hdW2NIXTI=

> <s_epik_cmdline>
J2VwaWtfcHl0aG9uJywgJy1waCcsICc3LjAnLCAnLXRuJywgJzgnLCAnLW1hJywgJzIwMCcsICctbWV0YWxfYmluZGluZycsICctaW1hZScsICc8aW5maWxlLm1hZT4nLCAnLW9tYWUnLCAnPG91dGZpbGUubWFlPic=

> <r_lp_tautomer_probability>
1

> <r_epik_Ionization_Penalty>
1.58596e-06

> <r_epik_Ionization_Penalty_Charging>
5.13453e-09

> <r_epik_Ionization_Penalty_Neutral>
1.58083e-06

> <r_epik_State_Penalty>
-0

> <r_epik_Charging_Adjusted_Penalty>
5.13453e-09

> <i_epik_Tot_Q>
0

> <i_epik_Tot_abs_Q>
0

> <r_epik_Metal_State_Penalty>
-0

> <b_epik_Metal_Only>
0

> <s_lp_Force_Field>
OPLS_2005

> <r_lp_Energy>
35.2508

> <b_lp_Chiralities_Consistent>
1

> <s_lp_Variant>
AV-unprocessed.smi:2660-1

> <Gold.Version>
5.8.1

> <Gold.Id.Protein>
6NUR|6NUR_protein|mol2

> <Gold.PLP.Fitness>
49.8306

> <Gold.PLP.PLP>
-48.6021

> <Gold.PLP.part.hbond>
-2.0000

> <Gold.PLP.part.metal>
0.0000

> <Gold.PLP.part.buried>
-4.4220

> <Gold.PLP.part.nonpolar>
-40.1554

> <Gold.PLP.part.repulsive>
0.0000

> <Gold.PLP.ligand.clash>
3.4436

> <Gold.PLP.ligand.torsion>
0.9016

> <Gold.PLP.Chemscore.Hbond>
0.9913

> <Gold.PLP.Chemscore.CHOScore>
0.0000

> <Gold.PLP.Chemscore.Metal>
0.0000

> <Gold.Chemscore.Hbonds>
donor molecule, donor type, donor heavy atom, donor atom, acceptor molecule, acceptor atom, score
      P1  H  7997  8010       L1    23  0.84

> <Gold.PLP.Chemscore.Internal.Correction>
3.5016

> <Gold.Rescore>
     Score         DG    S(hbond)    S(metal)    S(lipo)     H(rot)  DE(clash)    DE(int)     intcor
      6.67     -14.53       0.97        0.00      98.00       2.21       0.22       7.64       ----

> <Gold.Chemscore.Fitness>
6.6713

> <Gold.Chemscore.DG>
-14.5293

> <Gold.Chemscore.ZeroCoef>
-5.4800

> <Gold.Chemscore.Hbond>
0.9692

> <Gold.Chemscore.Metal>
0.0000

> <Gold.Chemscore.Lipo>
98.0000

> <Gold.Chemscore.Internal_Hbond>
0.0000

> <Gold.Chemscore.DEClash>
0.2163

> <Gold.Chemscore.DEInternal>
7.6417

> <Gold.Chemscore.Rot>
2.2086

> <Gold.Chemscore.Internal.Correction>
   9.000000E+99

> <Gold.Chemscore.Hbonds>
donor molecule, donor type, donor heavy atom, donor atom, acceptor molecule, acceptor atom, score
      P1  H  7997  8010       L1    23  0.77

> <Gold.Chemscore.Hbond.Weighted>
-3.2373

> <Gold.Chemscore.Metal.Weighted>
-0.0000

> <Gold.Chemscore.Lipo.Weighted>
-11.4660

> <Gold.Chemscore.Internal_Hbond.Weighted>
0.0000

> <Gold.Chemscore.DEClash.Weighted>
0.2163

> <Gold.Chemscore.DEInternal.Weighted>
7.6417

> <Gold.Chemscore.Rot.Weighted>
5.6540

> <Gold.Chemscore.Internal.Correction.Weighted>
   9.000000E+99

> <Gold.Protein.RotatedTorsions>
[ 6907 6896 6895 6894 ] final   62.49 input  -60.11 | X-H torsion
[ 7974 7965 7964 7962 ] final -154.67 input  175.53 | X-H torsion
[ 8008 7997 7996 7995 ] final   20.90 input   59.86 | X-H torsion
[ 10167 10162 10161 10158 ] final -158.96 input  -65.29 | X-H torsion
[ 10718 10713 10712 10709 ] final  -22.74 input   66.30 | X-H torsion
[ 10763 10752 10751 10750 ] final   76.04 input  -60.55 | X-H torsion
[ 11005 11000 10999 10996 ] final -154.72 input  -57.11 | X-H torsion

> <Gold.Protein.ActiveResidues>
 VAL166  LYS551  ARG553  GLY616  TRP617  ASP618  TYR619  PRO620  LYS621  CYS622 
 ASP623  PHE694  ASN695  SER759  ASP760  ASP761  ALA762  ILE779  LEU786  VAL792 
 PHE793  MET794  SER795  GLU796  ALA797  LYS798  CYS799  TRP800  GLU811  SER814 

> <Gold.Protein.RotatedAtoms>
  152.4176  134.6012  160.0000 H   0  0  0  0  0  0  0  0  0  0  0  0  # atno 6907 bound_to 6896
  151.6171  133.3336  159.3088 H   0  0  0  0  0  0  0  0  0  0  0  0  # atno 6908 bound_to 6896
  150.8065  134.7232  159.6715 H   0  0  0  0  0  0  0  0  0  0  0  0  # atno 6909 bound_to 6896
  144.7677  140.4355  143.5929 H   0  0  0  0  0  0  0  0  0  0  0  0  # atno 7974 bound_to 7965
  154.9426  140.3055  155.5113 H   0  0  0  0  0  0  0  0  0  0  0  0  # atno 8008 bound_to 7997
  156.2994  140.2333  156.4433 H   0  0  0  0  0  0  0  0  0  0  0  0  # atno 8009 bound_to 7997
  154.8131  140.0427  157.1345 H   0  0  0  0  0  0  0  0  0  0  0  0  # atno 8010 bound_to 7997
  139.6652  143.9842  152.2250 H   0  0  0  0  0  0  0  0  0  0  0  0  # atno 10167 bound_to 10162
  156.5004  130.4587  149.6704 H   0  0  0  0  0  0  0  0  0  0  0  0  # atno 10718 bound_to 10713
  153.0697  135.4966  154.8278 H   0  0  0  0  0  0  0  0  0  0  0  0  # atno 10763 bound_to 10752
  154.7005  135.3001  154.9350 H   0  0  0  0  0  0  0  0  0  0  0  0  # atno 10764 bound_to 10752
  154.0076  135.6758  153.4816 H   0  0  0  0  0  0  0  0  0  0  0  0  # atno 10765 bound_to 10752
  140.6943  134.4007  157.5216 H   0  0  0  0  0  0  0  0  0  0  0  0  # atno 11005 bound_to 11000
  145.6418  139.1551  143.2911 LP  0  0  0  0  0  0  0  0  0  0  0  0  # atno 17320 bound_to 7965
  146.1799  140.6514  142.9194 LP  0  0  0  0  0  0  0  0  0  0  0  0  # atno 17321 bound_to 7965
  139.9592  144.6569  150.8096 LP  0  0  0  0  0  0  0  0  0  0  0  0  # atno 17342 bound_to 10162
  140.7596  143.3133  151.2793 LP  0  0  0  0  0  0  0  0  0  0  0  0  # atno 17343 bound_to 10162
  156.3338  130.7346  151.2280 LP  0  0  0  0  0  0  0  0  0  0  0  0  # atno 17370 bound_to 10713
  157.7463  131.0422  150.4685 LP  0  0  0  0  0  0  0  0  0  0  0  0  # atno 17371 bound_to 10713
  139.8914  134.8779  156.2319 LP  0  0  0  0  0  0  0  0  0  0  0  0  # atno 17394 bound_to 11000
  141.0216  133.7038  156.1278 LP  0  0  0  0  0  0  0  0  0  0  0  0  # atno 17395 bound_to 11000

$$$$
