AV-unprocessed.smi:100|AV-procd|sdf|906|dock2
  -GOLD-   2262017403D 1   1.00000     0.00000
 Structure written by MMmdl.
 31 33  0  0  0  0  0  0  0  0  1 V2000
  141.9274  138.9505  153.6566 N   0  0  0  0  0  0  0  0  0  0  0  0
  142.0143  137.6226  153.4977 C   0  0  0  0  0  0  0  0  0  0  0  0
  141.0089  136.8511  153.9737 N   0  0  0  0  0  0  0  0  0  0  0  0
  141.0723  135.5237  153.8269 C   0  0  0  0  0  0  0  0  0  0  0  0
  142.0290  134.7921  153.2496 N   0  0  0  0  0  0  0  0  0  0  0  0
  143.0418  135.5711  152.7704 C   0  0  0  0  0  0  0  0  0  0  0  0
  143.1080  136.9895  152.8549 C   0  0  0  0  0  0  0  0  0  0  0  0
  144.2785  137.4446  152.2634 N   0  0  0  0  0  0  0  0  0  0  0  0
  144.8686  136.3531  151.8557 C   0  0  0  0  0  0  0  0  0  0  0  0
  144.1931  135.1806  152.1167 N   0  0  0  0  0  0  0  0  0  0  0  0
  144.6191  133.7910  151.7702 C   0  0  1  0  0  0  0  0  0  0  0  0
  143.6530  133.2322  150.9331 O   0  0  0  0  0  0  0  0  0  0  0  0
  144.2797  132.3816  149.9715 C   0  0  1  0  0  0  0  0  0  0  0  0
  143.8133  132.7488  148.5480 C   0  0  0  0  0  0  0  0  0  0  0  0
  142.6308  132.0766  148.1665 O   0  0  0  0  0  0  0  0  0  0  0  0
  145.7916  132.4707  150.2316 C   0  0  2  0  0  0  0  0  0  0  0  0
  146.1257  131.4461  151.0220 F   0  0  0  0  0  0  0  0  0  0  0  0
  145.9260  133.7898  150.9789 C   0  0  2  0  0  0  0  0  0  0  0  0
  147.0852  133.7953  151.7889 O   0  0  0  0  0  0  0  0  0  0  0  0
  142.6645  139.5474  153.3098 H   0  0  0  0  0  0  0  0  0  0  0  0
  141.1259  139.3512  154.1218 H   0  0  0  0  0  0  0  0  0  0  0  0
  140.2382  134.9676  154.2285 H   0  0  0  0  0  0  0  0  0  0  0  0
  145.8209  136.3739  151.3457 H   0  0  0  0  0  0  0  0  0  0  0  0
  144.6680  133.2412  152.7121 H   0  0  0  0  0  0  0  0  0  0  0  0
  143.9332  131.3673  150.1758 H   0  0  0  0  0  0  0  0  0  0  0  0
  143.6029  133.8174  148.5013 H   0  0  0  0  0  0  0  0  0  0  0  0
  144.6018  132.5505  147.8214 H   0  0  0  0  0  0  0  0  0  0  0  0
  142.4096  132.3348  147.2847 H   0  0  0  0  0  0  0  0  0  0  0  0
  146.4089  132.4059  149.3350 H   0  0  0  0  0  0  0  0  0  0  0  0
  145.9397  134.6265  150.2795 H   0  0  0  0  0  0  0  0  0  0  0  0
  147.5572  134.5981  151.6283 H   0  0  0  0  0  0  0  0  0  0  0  0
  1  2  1  0  0  0  0
  1 20  1  0  0  0  0
  1 21  1  0  0  0  0
  2  7  1  0  0  0  0
  2  3  2  0  0  0  0
  3  4  1  0  0  0  0
  4  5  2  0  0  0  0
  4 22  1  0  0  0  0
  5  6  1  0  0  0  0
  6 10  1  0  0  0  0
  6  7  2  0  0  0  0
  7  8  1  0  0  0  0
  8  9  2  0  0  0  0
  9 10  1  0  0  0  0
  9 23  1  0  0  0  0
 10 11  1  0  0  0  0
 11 18  1  0  0  0  0
 11 12  1  0  0  0  0
 11 24  1  0  0  0  0
 12 13  1  0  0  0  0
 13 14  1  0  0  0  0
 13 16  1  0  0  0  0
 13 25  1  0  0  0  0
 14 15  1  0  0  0  0
 14 26  1  0  0  0  0
 14 27  1  0  0  0  0
 15 28  1  0  0  0  0
 16 17  1  0  0  0  0
 16 18  1  0  0  0  0
 16 29  1  0  0  0  0
 18 19  1  0  0  0  0
 18 30  1  0  0  0  0
 19 31  1  0  0  0  0
M  END
> <s_m_source_file>
AV-unprocessed.smi

> <i_m_source_file_index>
100

> <i_lp_mmshare_version>
43012

> <i_f3d_flags>
0

> <s_epik_input>
bjFbY0hdbmMoW05IMl0pYyhjMTIpbltjSF1uMltDQEBIXTNPW0NAQEhdKFtDSDJdW09IXSlbQ0BIXShGKVtDQEhdM1tPSF0=

> <s_epik_cmdline>
J2VwaWtfcHl0aG9uJywgJy1waCcsICc3LjAnLCAnLXRuJywgJzgnLCAnLW1hJywgJzIwMCcsICctbWV0YWxfYmluZGluZycsICctaW1hZScsICc8aW5maWxlLm1hZT4nLCAnLW9tYWUnLCAnPG91dGZpbGUubWFlPic=

> <r_lp_tautomer_probability>
1

> <r_epik_Ionization_Penalty>
0.000750324

> <r_epik_Ionization_Penalty_Charging>
0

> <r_epik_Ionization_Penalty_Neutral>
0.000750324

> <r_epik_State_Penalty>
-0

> <r_epik_Charging_Adjusted_Penalty>
0

> <i_epik_Tot_Q>
0

> <i_epik_Tot_abs_Q>
0

> <r_epik_Metal_State_Penalty>
-0

> <b_epik_Metal_Only>
0

> <s_epik_Chemistry_Notes>
This compound contains an acetal/aminal-like group ( X-CH(R)-Y where X, Y are N, S, or O) that may be acid/base labile, releasing an aldehyde.

> <s_lp_Force_Field>
OPLS_2005

> <r_lp_Energy>
36.265

> <b_lp_Chiralities_Consistent>
1

> <s_lp_Variant>
AV-unprocessed.smi:100-10

> <Gold.Version>
5.8.1

> <Gold.Id.Protein>
6NUR|6NUR_protein|mol2

> <Gold.PLP.Fitness>
46.7389

> <Gold.PLP.PLP>
-34.7956

> <Gold.PLP.part.hbond>
-5.6869

> <Gold.PLP.part.metal>
0.0000

> <Gold.PLP.part.buried>
-6.0370

> <Gold.PLP.part.nonpolar>
-26.1610

> <Gold.PLP.part.repulsive>
3.2868

> <Gold.PLP.ligand.clash>
0.0000

> <Gold.PLP.ligand.torsion>
0.3486

> <Gold.PLP.Chemscore.Hbond>
3.4053

> <Gold.PLP.Chemscore.CHOScore>
0.8041

> <Gold.PLP.Chemscore.Metal>
0.0000

> <Gold.Chemscore.Hbonds>
donor molecule, donor type, donor heavy atom, donor atom, acceptor molecule, acceptor atom, score
      L1  H     1    20       P1 10175  1.00
      L1  H    15    28       P1 10195  0.99
      L1  H    19    31       P1  7948  0.81
      P1  H 10785 10796       L1    15  0.64
      L1  C     4    22       P1 11000  0.75

> <Gold.PLP.Chemscore.Internal.Correction>
0.0124

> <Gold.Rescore>
     Score         DG    S(hbond)    S(metal)    S(lipo)     H(rot)  DE(clash)    DE(int)     intcor
      9.48     -11.49       2.74        0.00      42.82       3.19       1.66       0.34       ----

> <Gold.Chemscore.Fitness>
9.4821

> <Gold.Chemscore.DG>
-11.4858

> <Gold.Chemscore.ZeroCoef>
-5.4800

> <Gold.Chemscore.Hbond>
2.7432

> <Gold.Chemscore.Metal>
0.0000

> <Gold.Chemscore.Lipo>
42.8220

> <Gold.Chemscore.Internal_Hbond>
0.0000

> <Gold.Chemscore.DEClash>
1.6608

> <Gold.Chemscore.DEInternal>
0.3430

> <Gold.Chemscore.Rot>
3.1901

> <Gold.Chemscore.Internal.Correction>
   9.000000E+99

> <Gold.Chemscore.Hbonds>
donor molecule, donor type, donor heavy atom, donor atom, acceptor molecule, acceptor atom, score
      L1  H     1    20       P1 10175  0.94
      L1  H    15    28       P1 10195  0.92
      L1  H    19    31       P1  7948  0.24
      P1  H 10785 10796       L1    15  0.14

> <Gold.Chemscore.Hbond.Weighted>
-9.1623

> <Gold.Chemscore.Metal.Weighted>
-0.0000

> <Gold.Chemscore.Lipo.Weighted>
-5.0102

> <Gold.Chemscore.Internal_Hbond.Weighted>
0.0000

> <Gold.Chemscore.DEClash.Weighted>
1.6608

> <Gold.Chemscore.DEInternal.Weighted>
0.3430

> <Gold.Chemscore.Rot.Weighted>
8.1667

> <Gold.Chemscore.Internal.Correction.Weighted>
   9.000000E+99

> <Gold.Protein.RotatedTorsions>
[ 6907 6896 6895 6894 ] final  -26.36 input  -60.11 | X-H torsion
[ 7974 7965 7964 7962 ] final   54.29 input  175.53 | X-H torsion
[ 8008 7997 7996 7995 ] final -145.93 input   59.86 | X-H torsion
[ 10167 10162 10161 10158 ] final  -26.50 input  -65.29 | X-H torsion
[ 10718 10713 10712 10709 ] final   24.01 input   66.30 | X-H torsion
[ 10763 10752 10751 10750 ] final  175.95 input  -60.55 | X-H torsion
[ 11005 11000 10999 10996 ] final -178.27 input  -57.11 | X-H torsion

> <Gold.Protein.ActiveResidues>
 VAL166  LYS551  ARG553  GLY616  TRP617  ASP618  TYR619  PRO620  LYS621  CYS622 
 ASP623  PHE694  ASN695  SER759  ASP760  ASP761  ALA762  ILE779  LEU786  VAL792 
 PHE793  MET794  SER795  GLU796  ALA797  LYS798  CYS799  TRP800  GLU811  SER814 

> <Gold.Protein.RotatedAtoms>
  151.1621  135.0278  159.8714 H   0  0  0  0  0  0  0  0  0  0  0  0  # atno 6907 bound_to 6896
  152.5451  134.1267  159.8432 H   0  0  0  0  0  0  0  0  0  0  0  0  # atno 6908 bound_to 6896
  151.1363  133.4956  159.2630 H   0  0  0  0  0  0  0  0  0  0  0  0  # atno 6909 bound_to 6896
  145.9624  139.4071  143.0240 H   0  0  0  0  0  0  0  0  0  0  0  0  # atno 7974 bound_to 7965
  155.5512  140.0617  157.2849 H   0  0  0  0  0  0  0  0  0  0  0  0  # atno 8008 bound_to 7997
  154.4420  140.1902  156.0732 H   0  0  0  0  0  0  0  0  0  0  0  0  # atno 8009 bound_to 7997
  156.0515  140.3283  155.7360 H   0  0  0  0  0  0  0  0  0  0  0  0  # atno 8010 bound_to 7997
  140.7282  143.4173  151.1007 H   0  0  0  0  0  0  0  0  0  0  0  0  # atno 10167 bound_to 10162
  157.1739  130.6772  149.6088 H   0  0  0  0  0  0  0  0  0  0  0  0  # atno 10718 bound_to 10713
  154.4745  135.2772  155.1618 H   0  0  0  0  0  0  0  0  0  0  0  0  # atno 10763 bound_to 10752
  154.3353  135.6181  153.5574 H   0  0  0  0  0  0  0  0  0  0  0  0  # atno 10764 bound_to 10752
  152.9868  135.5775  154.5133 H   0  0  0  0  0  0  0  0  0  0  0  0  # atno 10765 bound_to 10752
  140.4317  134.6513  157.4715 H   0  0  0  0  0  0  0  0  0  0  0  0  # atno 11005 bound_to 11000
  145.8021  140.9766  143.0993 LP  0  0  0  0  0  0  0  0  0  0  0  0  # atno 17320 bound_to 7965
  144.6818  139.9814  143.7483 LP  0  0  0  0  0  0  0  0  0  0  0  0  # atno 17321 bound_to 7965
  139.7814  143.8349  152.3138 LP  0  0  0  0  0  0  0  0  0  0  0  0  # atno 17342 bound_to 10162
  139.8302  144.7257  150.9460 LP  0  0  0  0  0  0  0  0  0  0  0  0  # atno 17343 bound_to 10162
  155.9734  130.4670  150.6308 LP  0  0  0  0  0  0  0  0  0  0  0  0  # atno 17370 bound_to 10713
  157.4017  131.0811  151.1302 LP  0  0  0  0  0  0  0  0  0  0  0  0  # atno 17371 bound_to 10713
  140.0130  134.6662  155.9352 LP  0  0  0  0  0  0  0  0  0  0  0  0  # atno 17394 bound_to 11000
  141.1743  133.6539  156.4768 LP  0  0  0  0  0  0  0  0  0  0  0  0  # atno 17395 bound_to 11000

$$$$
