AV-unprocessed.smi:456|AV-procd|sdf|2618|dock5
  -GOLD-   2262023 23D 1   1.00000     0.00000
 Structure written by MMmdl.
 33 35  0  0  0  0  0  0  0  0  2 V2000
  151.5369  140.7891  155.4840 O   0  0  0  0  0  0  0  0  0  0  0  0
  150.6254  141.7353  156.0092 C   0  0  1  0  0  0  0  0  0  0  0  0
  149.3227  141.0241  156.4247 C   0  0  0  0  0  0  0  0  0  0  0  0
  149.1377  139.7326  155.7503 N   0  0  0  0  0  0  0  0  0  0  0  0
  149.0087  139.4474  154.4261 C   0  0  0  0  0  0  0  0  0  0  0  0
  148.8566  138.0988  154.3097 N   0  3  0  0  0  0  0  0  0  0  0  0
  148.8876  137.5147  155.5784 C   0  0  0  0  0  0  0  0  0  0  0  0
  148.7748  136.1862  155.9749 C   0  0  0  0  0  0  0  0  0  0  0  0
  148.8481  135.9282  157.3599 C   0  0  0  0  0  0  0  0  0  0  0  0
  148.7452  134.6521  157.8003 F   0  0  0  0  0  0  0  0  0  0  0  0
  149.0262  136.9722  158.2928 C   0  0  0  0  0  0  0  0  0  0  0  0
  149.0912  136.6808  159.6135 F   0  0  0  0  0  0  0  0  0  0  0  0
  149.1385  138.3158  157.8787 C   0  0  0  0  0  0  0  0  0  0  0  0
  149.0667  138.5600  156.5083 C   0  0  0  0  0  0  0  0  0  0  0  0
  151.2150  142.5252  157.1667 C   0  0  0  0  0  0  0  0  0  0  0  0
  151.6429  141.8520  158.3314 C   0  0  0  0  0  0  0  0  0  0  0  0
  152.1992  142.5740  159.4050 C   0  0  0  0  0  0  0  0  0  0  0  0
  152.3343  143.9730  159.3190 C   0  0  0  0  0  0  0  0  0  0  0  0
  151.9134  144.6497  158.1581 C   0  0  0  0  0  0  0  0  0  0  0  0
  151.3560  143.9284  157.0845 C   0  0  0  0  0  0  0  0  0  0  0  0
  151.5507  140.0376  156.0571 H   0  0  0  0  0  0  0  0  0  0  0  0
  150.4051  142.4330  155.2003 H   0  0  0  0  0  0  0  0  0  0  0  0
  149.3167  140.8365  157.4994 H   0  0  0  0  0  0  0  0  0  0  0  0
  148.4534  141.6492  156.2159 H   0  0  0  0  0  0  0  0  0  0  0  0
  149.0212  140.1624  153.6160 H   0  0  0  0  0  0  0  0  0  0  0  0
  148.6376  135.3841  155.2646 H   0  0  0  0  0  0  0  0  0  0  0  0
  149.2732  139.1078  158.6003 H   0  0  0  0  0  0  0  0  0  0  0  0
  151.5472  140.7785  158.4061 H   0  0  0  0  0  0  0  0  0  0  0  0
  152.5236  142.0540  160.2944 H   0  0  0  0  0  0  0  0  0  0  0  0
  152.7620  144.5264  160.1420 H   0  0  0  0  0  0  0  0  0  0  0  0
  152.0193  145.7225  158.0903 H   0  0  0  0  0  0  0  0  0  0  0  0
  151.0398  144.4562  156.1967 H   0  0  0  0  0  0  0  0  0  0  0  0
  148.7391  137.6164  153.4278 H   0  0  0  0  0  0  0  0  0  0  0  0
  1  2  1  0  0  0  0
  1 21  1  0  0  0  0
  2  3  1  0  0  0  0
  2 15  1  0  0  0  0
  2 22  1  0  0  0  0
  3  4  1  0  0  0  0
  3 23  1  0  0  0  0
  3 24  1  0  0  0  0
  4 14  1  0  0  0  0
  4  5  1  0  0  0  0
  5  6  2  0  0  0  0
  5 25  1  0  0  0  0
  6  7  1  0  0  0  0
  6 33  1  0  0  0  0
  7 14  2  0  0  0  0
  7  8  1  0  0  0  0
  8  9  2  0  0  0  0
  8 26  1  0  0  0  0
  9 10  1  0  0  0  0
  9 11  1  0  0  0  0
 11 12  1  0  0  0  0
 11 13  2  0  0  0  0
 13 14  1  0  0  0  0
 13 27  1  0  0  0  0
 15 20  1  0  0  0  0
 15 16  2  0  0  0  0
 16 17  1  0  0  0  0
 16 28  1  0  0  0  0
 17 18  2  0  0  0  0
 17 29  1  0  0  0  0
 18 19  1  0  0  0  0
 18 30  1  0  0  0  0
 19 20  2  0  0  0  0
 19 31  1  0  0  0  0
 20 32  1  0  0  0  0
M  CHG  1   6   1
M  END
> <s_m_source_file>
AV-unprocessed.smi

> <i_m_source_file_index>
456

> <i_lp_mmshare_version>
43012

> <i_f3d_flags>
0

> <s_epik_input>
W2NIXTFbY0hdW2NIXVtjSF1bY0hdYzFbQ0BIXShbT0hdKVtDSDJdbihbY0hdbjIpYyhjMjMpW2NIXWMoRiljKEYpW2NIXTM=

> <s_epik_cmdline>
J2VwaWtfcHl0aG9uJywgJy1waCcsICc3LjAnLCAnLXRuJywgJzgnLCAnLW1hJywgJzIwMCcsICctbWV0YWxfYmluZGluZycsICctaW1hZScsICc8aW5maWxlLm1hZT4nLCAnLW9tYWUnLCAnPG91dGZpbGUubWFlPic=

> <r_epik_Ionization_Penalty>
2.16139

> <r_epik_Ionization_Penalty_Charging>
2.16138

> <r_epik_Ionization_Penalty_Neutral>
1.34362e-06

> <r_epik_State_Penalty>
2.30198

> <r_epik_Charging_Adjusted_Penalty>
4.46337

> <i_epik_Tot_Q>
1

> <i_epik_Tot_abs_Q>
1

> <r_epik_Metal_State_Penalty>
6.38245

> <b_epik_Metal_Only>
0

> <s_lp_Force_Field>
OPLS_2005

> <r_lp_Energy>
14.9755

> <b_lp_Chiralities_Consistent>
1

> <s_lp_Variant>
AV-unprocessed.smi:456-4

> <Gold.Version>
5.8.1

> <Gold.Id.Protein>
6NUR|6NUR_protein|mol2

> <Gold.PLP.Fitness>
42.5231

> <Gold.PLP.PLP>
-32.4637

> <Gold.PLP.part.hbond>
-2.0000

> <Gold.PLP.part.metal>
0.0000

> <Gold.PLP.part.buried>
-2.1276

> <Gold.PLP.part.nonpolar>
-27.8161

> <Gold.PLP.part.repulsive>
0.0043

> <Gold.PLP.ligand.clash>
0.0000

> <Gold.PLP.ligand.torsion>
0.5029

> <Gold.PLP.Chemscore.Hbond>
2.6820

> <Gold.PLP.Chemscore.CHOScore>
1.0000

> <Gold.PLP.Chemscore.Metal>
0.0000

> <Gold.Chemscore.Hbonds>
donor molecule, donor type, donor heavy atom, donor atom, acceptor molecule, acceptor atom, score
      L1  H     6    33       P1  7948  1.72
      P1  H  7989  7998       L1     1  0.67
      L1  C     5    25       P1  7957  1.00

> <Gold.PLP.Chemscore.Internal.Correction>
0.0192

> <Gold.Rescore>
     Score         DG    S(hbond)    S(metal)    S(lipo)     H(rot)  DE(clash)    DE(int)     intcor
     14.63     -15.56       1.45        0.00      89.10       2.03       0.38       0.56       ----

> <Gold.Chemscore.Fitness>
14.6277

> <Gold.Chemscore.DG>
-15.5634

> <Gold.Chemscore.ZeroCoef>
-5.4800

> <Gold.Chemscore.Hbond>
1.4504

> <Gold.Chemscore.Metal>
0.0000

> <Gold.Chemscore.Lipo>
89.0982

> <Gold.Chemscore.Internal_Hbond>
0.0000

> <Gold.Chemscore.DEClash>
0.3807

> <Gold.Chemscore.DEInternal>
0.5550

> <Gold.Chemscore.Rot>
2.0256

> <Gold.Chemscore.Internal.Correction>
   9.000000E+99

> <Gold.Chemscore.Hbonds>
donor molecule, donor type, donor heavy atom, donor atom, acceptor molecule, acceptor atom, score
      L1  H     6    33       P1  7948  0.84
      P1  H  7989  7998       L1     1  0.55

> <Gold.Chemscore.Hbond.Weighted>
-4.8444

> <Gold.Chemscore.Metal.Weighted>
-0.0000

> <Gold.Chemscore.Lipo.Weighted>
-10.4245

> <Gold.Chemscore.Internal_Hbond.Weighted>
0.0000

> <Gold.Chemscore.DEClash.Weighted>
0.3807

> <Gold.Chemscore.DEInternal.Weighted>
0.5550

> <Gold.Chemscore.Rot.Weighted>
5.1855

> <Gold.Chemscore.Internal.Correction.Weighted>
   9.000000E+99

> <Gold.Protein.RotatedTorsions>
[ 6907 6896 6895 6894 ] final -160.22 input  -60.11 | X-H torsion
[ 7974 7965 7964 7962 ] final  -67.01 input  175.53 | X-H torsion
[ 8008 7997 7996 7995 ] final -177.51 input   59.86 | X-H torsion
[ 10167 10162 10161 10158 ] final   32.89 input  -65.29 | X-H torsion
[ 10718 10713 10712 10709 ] final  -27.35 input   66.30 | X-H torsion
[ 10763 10752 10751 10750 ] final   13.74 input  -60.55 | X-H torsion
[ 11005 11000 10999 10996 ] final  -53.75 input  -57.11 | X-H torsion

> <Gold.Protein.ActiveResidues>
 VAL166  LYS551  ARG553  GLY616  TRP617  ASP618  TYR619  PRO620  LYS621  CYS622 
 ASP623  PHE694  ASN695  SER759  ASP760  ASP761  ALA762  ILE779  LEU786  VAL792 
 PHE793  MET794  SER795  GLU796  ALA797  LYS798  CYS799  TRP800  GLU811  SER814 

> <Gold.Protein.RotatedAtoms>
  151.3457  133.3945  159.2675 H   0  0  0  0  0  0  0  0  0  0  0  0  # atno 6907 bound_to 6896
  150.9842  134.9192  159.7872 H   0  0  0  0  0  0  0  0  0  0  0  0  # atno 6908 bound_to 6896
  152.5227  134.3421  159.9273 H   0  0  0  0  0  0  0  0  0  0  0  0  # atno 6909 bound_to 6896
  145.7346  140.8981  143.0562 H   0  0  0  0  0  0  0  0  0  0  0  0  # atno 7974 bound_to 7965
  156.0078  140.1234  157.0484 H   0  0  0  0  0  0  0  0  0  0  0  0  # atno 8008 bound_to 7997
  154.4265  140.1094  156.5856 H   0  0  0  0  0  0  0  0  0  0  0  0  # atno 8009 bound_to 7997
  155.6123  140.3471  155.4628 H   0  0  0  0  0  0  0  0  0  0  0  0  # atno 8010 bound_to 7997
  140.4458  144.1121  150.6182 H   0  0  0  0  0  0  0  0  0  0  0  0  # atno 10167 bound_to 10162
  156.4393  130.4461  149.7063 H   0  0  0  0  0  0  0  0  0  0  0  0  # atno 10718 bound_to 10713
  153.1691  135.6809  153.8633 H   0  0  0  0  0  0  0  0  0  0  0  0  # atno 10763 bound_to 10752
  153.8003  135.3157  155.3390 H   0  0  0  0  0  0  0  0  0  0  0  0  # atno 10764 bound_to 10752
  154.7986  135.4792  154.0312 H   0  0  0  0  0  0  0  0  0  0  0  0  # atno 10765 bound_to 10752
  141.0991  133.6620  156.4218 H   0  0  0  0  0  0  0  0  0  0  0  0  # atno 11005 bound_to 11000
  144.6885  139.9377  143.7474 LP  0  0  0  0  0  0  0  0  0  0  0  0  # atno 17320 bound_to 7965
  146.0505  139.3507  143.0642 LP  0  0  0  0  0  0  0  0  0  0  0  0  # atno 17321 bound_to 7965
  140.4266  143.2587  151.9649 LP  0  0  0  0  0  0  0  0  0  0  0  0  # atno 17342 bound_to 10162
  139.4792  144.5783  151.7975 LP  0  0  0  0  0  0  0  0  0  0  0  0  # atno 17343 bound_to 10162
  156.3935  130.7639  151.2641 LP  0  0  0  0  0  0  0  0  0  0  0  0  # atno 17370 bound_to 10713
  157.7506  131.0261  150.3947 LP  0  0  0  0  0  0  0  0  0  0  0  0  # atno 17371 bound_to 10713
  140.5066  134.6435  157.5268 LP  0  0  0  0  0  0  0  0  0  0  0  0  # atno 17394 bound_to 11000
  139.9837  134.7096  155.9812 LP  0  0  0  0  0  0  0  0  0  0  0  0  # atno 17395 bound_to 11000

$$$$
