AV-unprocessed.smi:2001|AV-procd|sdf|8105|dock10
  -GOLD-   2272010333D 1   1.00000     0.00000
 Structure written by MMmdl.
 51 52  0  0  0  0  0  0  0  0  2 V2000
  151.2226  144.8132  159.2125 C   0  0  0  0  0  0  0  0  0  0  0  0
  151.5025  144.0162  158.0749 O   0  0  0  0  0  0  0  0  0  0  0  0
  150.6653  142.8755  157.9914 C   0  0  0  0  0  0  0  0  0  0  0  0
  151.5449  141.6168  157.9509 C   0  0  0  0  0  0  0  0  0  0  0  0
  151.2013  140.7544  156.8158 N   0  0  0  0  0  0  0  0  0  0  0  0
  150.0822  141.1669  156.1114 N   0  0  0  0  0  0  0  0  0  0  0  0
  149.6714  140.4888  155.0887 C   0  0  0  0  0  0  0  0  0  0  0  0
  148.4681  140.8945  154.3098 C   0  0  0  0  0  0  0  0  0  0  0  0
  148.1215  142.0727  154.2109 O   0  0  0  0  0  0  0  0  0  0  0  0
  147.7948  139.8895  153.7232 N   0  0  0  0  0  0  0  0  0  0  0  0
  146.6066  140.0606  152.8985 C   0  0  0  0  0  0  0  0  0  0  0  0
  146.2797  138.7578  152.1505 C   0  0  0  0  0  0  0  0  0  0  0  0
  145.1019  138.0512  152.7143 N   0  3  1  0  0  0  0  0  0  0  0  0
  144.8676  136.7436  152.0565 C   0  0  0  0  0  0  0  0  0  0  0  0
  143.6044  136.0675  152.6222 C   0  0  1  0  0  0  0  0  0  0  0  0
  143.3791  134.6743  152.0247 C   0  0  0  0  0  0  0  0  0  0  0  0
  143.7445  135.9275  154.0314 O   0  0  0  0  0  0  0  0  0  0  0  0
  143.8791  137.1791  154.6953 C   0  0  1  0  0  0  0  0  0  0  0  0
  143.9241  136.9164  156.2048 C   0  0  0  0  0  0  0  0  0  0  0  0
  145.1521  137.8835  154.1880 C   0  0  0  0  0  0  0  0  0  0  0  0
  150.3741  139.2919  154.6584 C   0  0  0  0  0  0  0  0  0  0  0  0
  151.4677  138.9059  155.3514 C   0  0  0  0  0  0  0  0  0  0  0  0
  151.9542  139.6546  156.5112 C   0  0  0  0  0  0  0  0  0  0  0  0
  152.9514  139.3274  157.1536 O   0  0  0  0  0  0  0  0  0  0  0  0
  151.8928  145.6725  159.2313 H   0  0  0  0  0  0  0  0  0  0  0  0
  151.3705  144.2507  160.1350 H   0  0  0  0  0  0  0  0  0  0  0  0
  150.1978  145.1862  159.1904 H   0  0  0  0  0  0  0  0  0  0  0  0
  149.9993  142.8402  158.8554 H   0  0  0  0  0  0  0  0  0  0  0  0
  150.0435  142.9350  157.0967 H   0  0  0  0  0  0  0  0  0  0  0  0
  152.5988  141.8978  157.9109 H   0  0  0  0  0  0  0  0  0  0  0  0
  151.4287  141.0644  158.8852 H   0  0  0  0  0  0  0  0  0  0  0  0
  148.1401  138.9487  153.8508 H   0  0  0  0  0  0  0  0  0  0  0  0
  145.7749  140.3600  153.5368 H   0  0  0  0  0  0  0  0  0  0  0  0
  146.7801  140.8712  152.1892 H   0  0  0  0  0  0  0  0  0  0  0  0
  146.0752  139.0072  151.1081 H   0  0  0  0  0  0  0  0  0  0  0  0
  147.1422  138.0892  152.1449 H   0  0  0  0  0  0  0  0  0  0  0  0
  144.7551  136.8876  150.9810 H   0  0  0  0  0  0  0  0  0  0  0  0
  145.7378  136.1018  152.2046 H   0  0  0  0  0  0  0  0  0  0  0  0
  142.7290  136.6828  152.4073 H   0  0  0  0  0  0  0  0  0  0  0  0
  143.2629  134.7254  150.9420 H   0  0  0  0  0  0  0  0  0  0  0  0
  142.4786  134.2158  152.4343 H   0  0  0  0  0  0  0  0  0  0  0  0
  144.2175  134.0113  152.2407 H   0  0  0  0  0  0  0  0  0  0  0  0
  143.0058  137.7968  154.4778 H   0  0  0  0  0  0  0  0  0  0  0  0
  144.0192  137.8478  156.7634 H   0  0  0  0  0  0  0  0  0  0  0  0
  144.7679  136.2788  156.4704 H   0  0  0  0  0  0  0  0  0  0  0  0
  143.0137  136.4198  156.5410 H   0  0  0  0  0  0  0  0  0  0  0  0
  146.0365  137.3044  154.4590 H   0  0  0  0  0  0  0  0  0  0  0  0
  145.2417  138.8522  154.6781 H   0  0  0  0  0  0  0  0  0  0  0  0
  150.0380  138.7200  153.8057 H   0  0  0  0  0  0  0  0  0  0  0  0
  152.0003  138.0186  155.0419 H   0  0  0  0  0  0  0  0  0  0  0  0
  144.2939  138.6215  152.5083 H   0  0  0  0  0  0  0  0  0  0  0  0
  1  2  1  0  0  0  0
  1 25  1  0  0  0  0
  1 26  1  0  0  0  0
  1 27  1  0  0  0  0
  2  3  1  0  0  0  0
  3  4  1  0  0  0  0
  3 28  1  0  0  0  0
  3 29  1  0  0  0  0
  4  5  1  0  0  0  0
  4 30  1  0  0  0  0
  4 31  1  0  0  0  0
  5 23  1  0  0  0  0
  5  6  1  0  0  0  0
  6  7  2  0  0  0  0
  7  8  1  0  0  0  0
  7 21  1  0  0  0  0
  8  9  2  0  0  0  0
  8 10  1  0  0  0  0
 10 11  1  0  0  0  0
 10 32  1  0  0  0  0
 11 12  1  0  0  0  0
 11 33  1  0  0  0  0
 11 34  1  0  0  0  0
 12 13  1  0  0  0  0
 12 35  1  0  0  0  0
 12 36  1  0  0  0  0
 13 20  1  0  0  0  0
 13 14  1  0  0  0  0
 13 51  1  0  0  0  0
 14 15  1  0  0  0  0
 14 37  1  0  0  0  0
 14 38  1  0  0  0  0
 15 16  1  0  0  0  0
 15 17  1  0  0  0  0
 15 39  1  0  0  0  0
 16 40  1  0  0  0  0
 16 41  1  0  0  0  0
 16 42  1  0  0  0  0
 17 18  1  0  0  0  0
 18 19  1  0  0  0  0
 18 20  1  0  0  0  0
 18 43  1  0  0  0  0
 19 44  1  0  0  0  0
 19 45  1  0  0  0  0
 19 46  1  0  0  0  0
 20 47  1  0  0  0  0
 20 48  1  0  0  0  0
 21 22  2  0  0  0  0
 21 49  1  0  0  0  0
 22 23  1  0  0  0  0
 22 50  1  0  0  0  0
 23 24  2  0  0  0  0
M  CHG  1  13   1
M  END
> <s_m_source_file>
AV-unprocessed.smi

> <i_m_source_file_index>
2001

> <i_lp_mmshare_version>
43012

> <i_f3d_flags>
0

> <s_epik_input>
W0NIM11PW0NIMl1bQ0gyXW4xbmMoW2NIXVtjSF1jMT1PKUMoPU8pW05IXVtDSDJdW0NIMl1OMltDSDJdW0NAQEhdKFtDSDNdKU9bQ0BASF0oW0NIM10pW0NIMl0y

> <s_epik_cmdline>
J2VwaWtfcHl0aG9uJywgJy1waCcsICc3LjAnLCAnLXRuJywgJzgnLCAnLW1hJywgJzIwMCcsICctbWV0YWxfYmluZGluZycsICctaW1hZScsICc8aW5maWxlLm1hZT4nLCAnLW9tYWUnLCAnPG91dGZpbGUubWFlPic=

> <r_lp_tautomer_probability>
1

> <r_epik_Ionization_Penalty>
0.724354

> <r_epik_Ionization_Penalty_Charging>
0.724348

> <r_epik_Ionization_Penalty_Neutral>
6.1656e-06

> <r_epik_State_Penalty>
0.749058

> <r_epik_Charging_Adjusted_Penalty>
1.47341

> <i_epik_Tot_Q>
1

> <i_epik_Tot_abs_Q>
1

> <r_epik_Metal_State_Penalty>
0.750779

> <b_epik_Metal_Only>
0

> <s_lp_Force_Field>
OPLS_2005

> <r_lp_Energy>
35.6345

> <b_lp_Chiralities_Consistent>
1

> <s_lp_Variant>
AV-unprocessed.smi:2001-4

> <Gold.Version>
5.8.1

> <Gold.Id.Protein>
6NUR|6NUR_protein|mol2

> <Gold.PLP.Fitness>
49.0548

> <Gold.PLP.PLP>
-41.8242

> <Gold.PLP.part.hbond>
-4.5369

> <Gold.PLP.part.metal>
0.0000

> <Gold.PLP.part.buried>
-1.8972

> <Gold.PLP.part.nonpolar>
-35.7320

> <Gold.PLP.part.repulsive>
0.4798

> <Gold.PLP.ligand.clash>
0.0000

> <Gold.PLP.ligand.torsion>
1.5693

> <Gold.PLP.Chemscore.Hbond>
3.3840

> <Gold.PLP.Chemscore.CHOScore>
0.0000

> <Gold.PLP.Chemscore.Metal>
0.0000

> <Gold.Chemscore.Hbonds>
donor molecule, donor type, donor heavy atom, donor atom, acceptor molecule, acceptor atom, score
      L1  H    13    51       P1 10175  1.76
      P1  H  7997  8008       L1    24  1.00

> <Gold.PLP.Chemscore.Internal.Correction>
0.2172

> <Gold.Rescore>
     Score         DG    S(hbond)    S(metal)    S(lipo)     H(rot)  DE(clash)    DE(int)     intcor
     15.22     -17.10       2.13        0.00      83.79       2.07       0.44       1.44       ----

> <Gold.Chemscore.Fitness>
15.2190

> <Gold.Chemscore.DG>
-17.1017

> <Gold.Chemscore.ZeroCoef>
-5.4800

> <Gold.Chemscore.Hbond>
2.1326

> <Gold.Chemscore.Metal>
0.0000

> <Gold.Chemscore.Lipo>
83.7912

> <Gold.Chemscore.Internal_Hbond>
0.0000

> <Gold.Chemscore.DEClash>
0.4402

> <Gold.Chemscore.DEInternal>
1.4425

> <Gold.Chemscore.Rot>
2.0721

> <Gold.Chemscore.Internal.Correction>
   9.000000E+99

> <Gold.Chemscore.Hbonds>
donor molecule, donor type, donor heavy atom, donor atom, acceptor molecule, acceptor atom, score
      L1  H    13    51       P1 10175  0.86
      P1  H  7997  8008       L1    24  0.93

> <Gold.Chemscore.Hbond.Weighted>
-7.1228

> <Gold.Chemscore.Metal.Weighted>
-0.0000

> <Gold.Chemscore.Lipo.Weighted>
-9.8036

> <Gold.Chemscore.Internal_Hbond.Weighted>
0.0000

> <Gold.Chemscore.DEClash.Weighted>
0.4402

> <Gold.Chemscore.DEInternal.Weighted>
1.4425

> <Gold.Chemscore.Rot.Weighted>
5.3047

> <Gold.Chemscore.Internal.Correction.Weighted>
   9.000000E+99

> <Gold.Protein.RotatedTorsions>
[ 6907 6896 6895 6894 ] final  -56.37 input  -60.11 | X-H torsion
[ 7974 7965 7964 7962 ] final  140.30 input  175.53 | X-H torsion
[ 8008 7997 7996 7995 ] final  -63.19 input   59.86 | X-H torsion
[ 10167 10162 10161 10158 ] final  114.78 input  -65.29 | X-H torsion
[ 10718 10713 10712 10709 ] final -118.91 input   66.30 | X-H torsion
[ 10763 10752 10751 10750 ] final -119.72 input  -60.55 | X-H torsion
[ 11005 11000 10999 10996 ] final   -8.83 input  -57.11 | X-H torsion

> <Gold.Protein.ActiveResidues>
 VAL166  LYS551  ARG553  GLY616  TRP617  ASP618  TYR619  PRO620  LYS621  CYS622 
 ASP623  PHE694  ASN695  SER759  ASP760  ASP761  ALA762  ILE779  LEU786  VAL792 
 PHE793  MET794  SER795  GLU796  ALA797  LYS798  CYS799  TRP800  GLU811  SER814 

> <Gold.Protein.RotatedAtoms>
  150.8174  134.7363  159.6741 H   0  0  0  0  0  0  0  0  0  0  0  0  # atno 6907 bound_to 6896
  152.4291  134.5808  159.9957 H   0  0  0  0  0  0  0  0  0  0  0  0  # atno 6908 bound_to 6896
  151.6001  133.3320  159.3081 H   0  0  0  0  0  0  0  0  0  0  0  0  # atno 6909 bound_to 6896
  144.9199  139.5181  143.5668 H   0  0  0  0  0  0  0  0  0  0  0  0  # atno 7974 bound_to 7965
  154.4541  140.0980  156.6705 H   0  0  0  0  0  0  0  0  0  0  0  0  # atno 8008 bound_to 7997
  155.5194  140.3478  155.4385 H   0  0  0  0  0  0  0  0  0  0  0  0  # atno 8009 bound_to 7997
  156.0741  140.1357  156.9782 H   0  0  0  0  0  0  0  0  0  0  0  0  # atno 8010 bound_to 7997
  139.6364  144.7120  151.2326 H   0  0  0  0  0  0  0  0  0  0  0  0  # atno 10167 bound_to 10162
  156.1142  130.6272  150.9351 H   0  0  0  0  0  0  0  0  0  0  0  0  # atno 10718 bound_to 10713
  154.8625  135.4228  154.2344 H   0  0  0  0  0  0  0  0  0  0  0  0  # atno 10763 bound_to 10752
  153.3323  135.6989  153.6943 H   0  0  0  0  0  0  0  0  0  0  0  0  # atno 10764 bound_to 10752
  153.5955  135.3546  155.2900 H   0  0  0  0  0  0  0  0  0  0  0  0  # atno 10765 bound_to 10752
  140.7276  133.8776  155.8868 H   0  0  0  0  0  0  0  0  0  0  0  0  # atno 11005 bound_to 11000
  146.3200  139.8071  142.8953 LP  0  0  0  0  0  0  0  0  0  0  0  0  # atno 17320 bound_to 7965
  145.3313  141.0267  143.3444 LP  0  0  0  0  0  0  0  0  0  0  0  0  # atno 17321 bound_to 7965
  140.7467  143.6389  150.8353 LP  0  0  0  0  0  0  0  0  0  0  0  0  # atno 17342 bound_to 10162
  140.0020  143.5733  152.2872 LP  0  0  0  0  0  0  0  0  0  0  0  0  # atno 17343 bound_to 10162
  157.6324  131.0919  150.8415 LP  0  0  0  0  0  0  0  0  0  0  0  0  # atno 17370 bound_to 10713
  156.8521  130.5084  149.5311 LP  0  0  0  0  0  0  0  0  0  0  0  0  # atno 17371 bound_to 10713
  140.9949  134.1229  157.4373 LP  0  0  0  0  0  0  0  0  0  0  0  0  # atno 17394 bound_to 11000
  139.8833  135.0051  156.6294 LP  0  0  0  0  0  0  0  0  0  0  0  0  # atno 17395 bound_to 11000

$$$$
