AV-unprocessed.smi:1088|AV-procd|sdf|4732|dock6
  -GOLD-   22720 3263D 1   1.00000     0.00000
 Structure written by MMmdl.
 47 48  0  0  0  0  0  0  0  0  1 V2000
  145.5675  142.8674  160.7590 C   0  0  0  0  0  0  0  0  0  0  0  0
  145.8268  141.9019  159.7558 O   0  0  0  0  0  0  0  0  0  0  0  0
  145.9643  142.4791  158.4672 C   0  0  0  0  0  0  0  0  0  0  0  0
  146.0554  141.3757  157.4019 C   0  0  0  0  0  0  0  0  0  0  0  0
  146.7017  141.7174  156.1279 N   0  0  0  0  0  0  0  0  0  0  0  0
  146.0252  142.8526  155.5234 C   0  0  0  0  0  0  0  0  0  0  0  0
  146.4726  142.9057  154.0678 C   0  0  0  0  0  0  0  0  0  0  0  0
  146.8343  141.4527  153.7532 C   0  0  0  0  0  0  0  0  0  0  0  0
  146.6514  140.6916  155.0828 C   0  0  1  0  0  0  0  0  0  0  0  0
  147.6664  139.5326  155.2152 C   0  0  0  0  0  0  0  0  0  0  0  0
  149.0309  140.0313  155.3612 N   0  0  0  0  0  0  0  0  0  0  0  0
  149.4976  140.7572  156.3883 C   0  0  0  0  0  0  0  0  0  0  0  0
  148.8038  141.1053  157.3448 O   0  0  0  0  0  0  0  0  0  0  0  0
  150.9735  141.1687  156.2988 C   0  0  0  0  0  0  0  0  0  0  0  0
  151.4942  141.7349  157.5497 N   0  0  0  0  0  0  0  0  0  0  0  0
  151.0411  142.9662  157.9864 C   0  0  0  0  0  0  0  0  0  0  0  0
  151.4615  143.5526  159.1284 C   0  0  0  0  0  0  0  0  0  0  0  0
  152.4448  142.9030  159.9867 C   0  0  0  0  0  0  0  0  0  0  0  0
  152.8429  143.3971  161.0420 O   0  0  0  0  0  0  0  0  0  0  0  0
  152.8996  141.6494  159.5111 N   0  0  0  0  0  0  0  0  0  0  0  0
  153.8687  140.9121  160.2947 C   0  0  0  0  0  0  0  0  0  0  0  0
  152.4460  141.0357  158.3226 C   0  0  0  0  0  0  0  0  0  0  0  0
  152.8555  139.9284  157.9650 O   0  0  0  0  0  0  0  0  0  0  0  0
  145.4810  142.3746  161.7274 H   0  0  0  0  0  0  0  0  0  0  0  0
  144.6322  143.3941  160.5647 H   0  0  0  0  0  0  0  0  0  0  0  0
  146.3751  143.5978  160.8231 H   0  0  0  0  0  0  0  0  0  0  0  0
  145.1463  143.1634  158.2482 H   0  0  0  0  0  0  0  0  0  0  0  0
  146.8726  143.0824  158.4340 H   0  0  0  0  0  0  0  0  0  0  0  0
  146.5250  140.4925  157.8371 H   0  0  0  0  0  0  0  0  0  0  0  0
  145.0284  141.0803  157.1820 H   0  0  0  0  0  0  0  0  0  0  0  0
  144.9443  142.7037  155.5548 H   0  0  0  0  0  0  0  0  0  0  0  0
  146.2450  143.7792  156.0548 H   0  0  0  0  0  0  0  0  0  0  0  0
  145.6922  143.2958  153.4141 H   0  0  0  0  0  0  0  0  0  0  0  0
  147.3515  143.5432  153.9640 H   0  0  0  0  0  0  0  0  0  0  0  0
  146.2026  141.0352  152.9684 H   0  0  0  0  0  0  0  0  0  0  0  0
  147.8667  141.4069  153.4038 H   0  0  0  0  0  0  0  0  0  0  0  0
  145.6459  140.2667  155.0743 H   0  0  0  0  0  0  0  0  0  0  0  0
  147.3857  138.8799  156.0434 H   0  0  0  0  0  0  0  0  0  0  0  0
  147.6785  138.9041  154.3317 H   0  0  0  0  0  0  0  0  0  0  0  0
  149.6757  139.8010  154.6194 H   0  0  0  0  0  0  0  0  0  0  0  0
  151.5782  140.3108  155.9987 H   0  0  0  0  0  0  0  0  0  0  0  0
  151.0736  141.8958  155.4917 H   0  0  0  0  0  0  0  0  0  0  0  0
  150.3078  143.4868  157.3877 H   0  0  0  0  0  0  0  0  0  0  0  0
  151.0625  144.5152  159.4128 H   0  0  0  0  0  0  0  0  0  0  0  0
  154.6524  140.5630  159.6199 H   0  0  0  0  0  0  0  0  0  0  0  0
  153.3363  140.0781  160.7545 H   0  0  0  0  0  0  0  0  0  0  0  0
  154.3224  141.5478  161.0547 H   0  0  0  0  0  0  0  0  0  0  0  0
  1  2  1  0  0  0  0
  1 24  1  0  0  0  0
  1 25  1  0  0  0  0
  1 26  1  0  0  0  0
  2  3  1  0  0  0  0
  3  4  1  0  0  0  0
  3 27  1  0  0  0  0
  3 28  1  0  0  0  0
  4  5  1  0  0  0  0
  4 29  1  0  0  0  0
  4 30  1  0  0  0  0
  5  9  1  0  0  0  0
  5  6  1  0  0  0  0
  6  7  1  0  0  0  0
  6 31  1  0  0  0  0
  6 32  1  0  0  0  0
  7  8  1  0  0  0  0
  7 33  1  0  0  0  0
  7 34  1  0  0  0  0
  8  9  1  0  0  0  0
  8 35  1  0  0  0  0
  8 36  1  0  0  0  0
  9 10  1  0  0  0  0
  9 37  1  0  0  0  0
 10 11  1  0  0  0  0
 10 38  1  0  0  0  0
 10 39  1  0  0  0  0
 11 12  1  0  0  0  0
 11 40  1  0  0  0  0
 12 13  2  0  0  0  0
 12 14  1  0  0  0  0
 14 15  1  0  0  0  0
 14 41  1  0  0  0  0
 14 42  1  0  0  0  0
 15 22  1  0  0  0  0
 15 16  1  0  0  0  0
 16 17  2  0  0  0  0
 16 43  1  0  0  0  0
 17 18  1  0  0  0  0
 17 44  1  0  0  0  0
 18 19  2  0  0  0  0
 18 20  1  0  0  0  0
 20 21  1  0  0  0  0
 20 22  1  0  0  0  0
 21 45  1  0  0  0  0
 21 46  1  0  0  0  0
 21 47  1  0  0  0  0
 22 23  2  0  0  0  0
M  END
> <s_m_source_file>
AV-unprocessed.smi

> <i_m_source_file_index>
1088

> <i_lp_mmshare_version>
43012

> <i_f3d_flags>
0

> <s_epik_input>
W0NIM11PW0NIMl1bQ0gyXU4xW0NIMl1bQ0gyXVtDSDJdW0NASF0xW0NIMl1bTkhdQyg9TylbQ0gyXW4yW2NIXVtjSF1jKD1PKW4oW0NIM10pYzI9Tw==

> <s_epik_cmdline>
J2VwaWtfcHl0aG9uJywgJy1waCcsICc3LjAnLCAnLXRuJywgJzgnLCAnLW1hJywgJzIwMCcsICctbWV0YWxfYmluZGluZycsICctaW1hZScsICc8aW5maWxlLm1hZT4nLCAnLW9tYWUnLCAnPG91dGZpbGUubWFlPic=

> <r_lp_tautomer_probability>
1

> <r_epik_Ionization_Penalty>
2.28131

> <r_epik_Ionization_Penalty_Charging>
1.22971e-08

> <r_epik_Ionization_Penalty_Neutral>
2.28131

> <r_epik_State_Penalty>
2.43063

> <r_epik_Charging_Adjusted_Penalty>
2.43063

> <i_epik_Tot_Q>
0

> <i_epik_Tot_abs_Q>
0

> <r_epik_Metal_State_Penalty>
2.43056

> <b_epik_Metal_Only>
0

> <s_lp_Force_Field>
OPLS_2005

> <r_lp_Energy>
52.4092

> <b_lp_Chiralities_Consistent>
1

> <s_lp_Variant>
AV-unprocessed.smi:1088-5

> <Gold.Version>
5.8.1

> <Gold.Id.Protein>
6NUR|6NUR_protein|mol2

> <Gold.PLP.Fitness>
46.3431

> <Gold.PLP.PLP>
-38.0257

> <Gold.PLP.part.hbond>
-2.0000

> <Gold.PLP.part.metal>
0.0000

> <Gold.PLP.part.buried>
-6.3489

> <Gold.PLP.part.nonpolar>
-30.2389

> <Gold.PLP.part.repulsive>
0.2789

> <Gold.PLP.ligand.clash>
0.0000

> <Gold.PLP.ligand.torsion>
0.3809

> <Gold.PLP.Chemscore.Hbond>
2.0000

> <Gold.PLP.Chemscore.CHOScore>
1.0000

> <Gold.PLP.Chemscore.Metal>
0.0000

> <Gold.Chemscore.Hbonds>
donor molecule, donor type, donor heavy atom, donor atom, acceptor molecule, acceptor atom, score
      P1  H  6934  6946       L1     2  0.90
      P1  H  7997  8009       L1    23  1.00
      L1  C    16    43       P1  8028  0.97

> <Gold.PLP.Chemscore.Internal.Correction>
0.0793

> <Gold.Rescore>
     Score         DG    S(hbond)    S(metal)    S(lipo)     H(rot)  DE(clash)    DE(int)     intcor
      8.96     -12.13       1.86        0.00      58.42       2.49       0.03       3.14       ----

> <Gold.Chemscore.Fitness>
8.9552

> <Gold.Chemscore.DG>
-12.1321

> <Gold.Chemscore.ZeroCoef>
-5.4800

> <Gold.Chemscore.Hbond>
1.8564

> <Gold.Chemscore.Metal>
0.0000

> <Gold.Chemscore.Lipo>
58.4249

> <Gold.Chemscore.Internal_Hbond>
0.0000

> <Gold.Chemscore.DEClash>
0.0324

> <Gold.Chemscore.DEInternal>
3.1445

> <Gold.Chemscore.Rot>
2.4938

> <Gold.Chemscore.Internal.Correction>
   9.000000E+99

> <Gold.Chemscore.Hbonds>
donor molecule, donor type, donor heavy atom, donor atom, acceptor molecule, acceptor atom, score
      P1  H  6934  6946       L1     2  0.18
      P1  H  7997  8009       L1    23  0.80

> <Gold.Chemscore.Hbond.Weighted>
-6.2005

> <Gold.Chemscore.Metal.Weighted>
-0.0000

> <Gold.Chemscore.Lipo.Weighted>
-6.8357

> <Gold.Chemscore.Internal_Hbond.Weighted>
0.0000

> <Gold.Chemscore.DEClash.Weighted>
0.0324

> <Gold.Chemscore.DEInternal.Weighted>
3.1445

> <Gold.Chemscore.Rot.Weighted>
6.3841

> <Gold.Chemscore.Internal.Correction.Weighted>
   9.000000E+99

> <Gold.Protein.RotatedTorsions>
[ 6907 6896 6895 6894 ] final  174.41 input  -60.11 | X-H torsion
[ 7974 7965 7964 7962 ] final  -98.75 input  175.53 | X-H torsion
[ 8008 7997 7996 7995 ] final  167.86 input   59.86 | X-H torsion
[ 10167 10162 10161 10158 ] final   31.88 input  -65.29 | X-H torsion
[ 10718 10713 10712 10709 ] final  109.66 input   66.30 | X-H torsion
[ 10763 10752 10751 10750 ] final  -55.19 input  -60.55 | X-H torsion
[ 11005 11000 10999 10996 ] final -123.76 input  -57.11 | X-H torsion

> <Gold.Protein.ActiveResidues>
 VAL166  LYS551  ARG553  GLY616  TRP617  ASP618  TYR619  PRO620  LYS621  CYS622 
 ASP623  PHE694  ASN695  SER759  ASP760  ASP761  ALA762  ILE779  LEU786  VAL792 
 PHE793  MET794  SER795  GLU796  ALA797  LYS798  CYS799  TRP800  GLU811  SER814 

> <Gold.Protein.RotatedAtoms>
  151.7527  133.3328  159.3395 H   0  0  0  0  0  0  0  0  0  0  0  0  # atno 6907 bound_to 6896
  150.7529  134.6177  159.6129 H   0  0  0  0  0  0  0  0  0  0  0  0  # atno 6908 bound_to 6896
  152.3457  134.7076  160.0302 H   0  0  0  0  0  0  0  0  0  0  0  0  # atno 6909 bound_to 6896
  145.3166  140.9412  143.2739 H   0  0  0  0  0  0  0  0  0  0  0  0  # atno 7974 bound_to 7965
  156.1597  140.1606  156.8632 H   0  0  0  0  0  0  0  0  0  0  0  0  # atno 8008 bound_to 7997
  154.5149  140.0792  156.8098 H   0  0  0  0  0  0  0  0  0  0  0  0  # atno 8009 bound_to 7997
  155.3731  140.3401  155.4246 H   0  0  0  0  0  0  0  0  0  0  0  0  # atno 8010 bound_to 7997
  140.4549  144.0994  150.6199 H   0  0  0  0  0  0  0  0  0  0  0  0  # atno 10167 bound_to 10162
  157.6531  131.0918  150.6486 H   0  0  0  0  0  0  0  0  0  0  0  0  # atno 10718 bound_to 10713
  154.1868  135.6434  153.5049 H   0  0  0  0  0  0  0  0  0  0  0  0  # atno 10763 bound_to 10752
  153.0045  135.5419  154.6457 H   0  0  0  0  0  0  0  0  0  0  0  0  # atno 10764 bound_to 10752
  154.5835  135.2927  155.0681 H   0  0  0  0  0  0  0  0  0  0  0  0  # atno 10765 bound_to 10752
  140.9894  134.0561  157.3673 H   0  0  0  0  0  0  0  0  0  0  0  0  # atno 11005 bound_to 11000
  144.8973  139.4696  143.6649 LP  0  0  0  0  0  0  0  0  0  0  0  0  # atno 17320 bound_to 7965
  146.3098  139.7706  142.9028 LP  0  0  0  0  0  0  0  0  0  0  0  0  # atno 17321 bound_to 7965
  140.4163  143.2632  151.9770 LP  0  0  0  0  0  0  0  0  0  0  0  0  # atno 17342 bound_to 10162
  139.4800  144.5870  151.7836 LP  0  0  0  0  0  0  0  0  0  0  0  0  # atno 17343 bound_to 10162
  156.6795  130.4563  149.5632 LP  0  0  0  0  0  0  0  0  0  0  0  0  # atno 17370 bound_to 10713
  156.1939  130.6577  151.1092 LP  0  0  0  0  0  0  0  0  0  0  0  0  # atno 17371 bound_to 10713
  139.8985  135.0155  156.7152 LP  0  0  0  0  0  0  0  0  0  0  0  0  # atno 17394 bound_to 11000
  140.7064  133.9261  155.8056 LP  0  0  0  0  0  0  0  0  0  0  0  0  # atno 17395 bound_to 11000

$$$$
