AV-unprocessed.smi:1381|AV-procd|sdf|5612|dock2
  -GOLD-   22720 5223D 1   1.00000     0.00000
 Structure written by MMmdl.
 42 43  0  0  0  0  0  0  0  0  3 V2000
  152.2915  140.8530  159.1617 C   0  0  0  0  0  0  0  0  0  0  0  0
  151.9246  140.5087  157.7585 C   0  0  0  0  0  0  0  0  0  0  0  0
  150.8337  140.7971  156.9888 C   0  0  0  0  0  0  0  0  0  0  0  0
  151.1320  140.1635  155.7517 C   0  0  0  0  0  0  0  0  0  0  0  0
  150.3451  140.1504  154.6645 N   0  5  0  0  0  0  0  0  0  0  0  0
  149.0611  139.7355  154.7586 C   0  0  0  0  0  0  0  0  0  0  0  0
  148.4190  139.5661  155.7976 O   0  0  0  0  0  0  0  0  0  0  0  0
  148.4856  139.4966  153.5729 N   0  0  0  0  0  0  0  0  0  0  0  0
  147.1220  139.0223  153.3800 C   0  0  0  0  0  0  0  0  0  0  0  0
  146.8917  137.7305  154.1799 C   0  0  0  0  0  0  0  0  0  0  0  0
  146.7494  136.5365  153.3096 N   0  3  1  0  0  0  0  0  0  0  0  0
  146.7358  135.2754  154.0884 C   0  0  0  0  0  0  0  0  0  0  0  0
  146.6417  134.0568  153.1510 C   0  0  1  0  0  0  0  0  0  0  0  0
  146.5398  132.7385  153.9264 C   0  0  0  0  0  0  0  0  0  0  0  0
  145.4792  134.1829  152.3398 O   0  0  0  0  0  0  0  0  0  0  0  0
  145.5130  135.3411  151.5134 C   0  0  1  0  0  0  0  0  0  0  0  0
  144.2678  135.3274  150.6198 C   0  0  0  0  0  0  0  0  0  0  0  0
  145.5738  136.5952  152.4055 C   0  0  0  0  0  0  0  0  0  0  0  0
  152.2946  139.5333  155.7735 N   0  0  0  0  0  0  0  0  0  0  0  0
  152.8125  139.7552  157.0553 O   0  0  0  0  0  0  0  0  0  0  0  0
  151.5893  140.4038  159.8639 H   0  0  0  0  0  0  0  0  0  0  0  0
  152.2740  141.9325  159.3104 H   0  0  0  0  0  0  0  0  0  0  0  0
  153.2912  140.4943  159.4074 H   0  0  0  0  0  0  0  0  0  0  0  0
  149.9623  141.3714  157.2649 H   0  0  0  0  0  0  0  0  0  0  0  0
  149.0438  139.6515  152.7459 H   0  0  0  0  0  0  0  0  0  0  0  0
  146.4287  139.8016  153.6968 H   0  0  0  0  0  0  0  0  0  0  0  0
  146.9524  138.8477  152.3166 H   0  0  0  0  0  0  0  0  0  0  0  0
  147.7459  137.5854  154.8435 H   0  0  0  0  0  0  0  0  0  0  0  0
  146.0143  137.8258  154.8217 H   0  0  0  0  0  0  0  0  0  0  0  0
  147.6429  135.2053  154.6906 H   0  0  0  0  0  0  0  0  0  0  0  0
  145.8915  135.2859  154.7801 H   0  0  0  0  0  0  0  0  0  0  0  0
  147.5245  134.0156  152.5103 H   0  0  0  0  0  0  0  0  0  0  0  0
  147.4164  132.5833  154.5557 H   0  0  0  0  0  0  0  0  0  0  0  0
  146.4660  131.8902  153.2451 H   0  0  0  0  0  0  0  0  0  0  0  0
  145.6590  132.7254  154.5693 H   0  0  0  0  0  0  0  0  0  0  0  0
  146.3969  135.3008  150.8745 H   0  0  0  0  0  0  0  0  0  0  0  0
  144.2501  136.1938  149.9580 H   0  0  0  0  0  0  0  0  0  0  0  0
  143.3539  135.3415  151.2144 H   0  0  0  0  0  0  0  0  0  0  0  0
  144.2456  134.4332  149.9962 H   0  0  0  0  0  0  0  0  0  0  0  0
  144.6621  136.6801  152.9994 H   0  0  0  0  0  0  0  0  0  0  0  0
  145.6249  137.4795  151.7716 H   0  0  0  0  0  0  0  0  0  0  0  0
  147.5735  136.5032  152.7263 H   0  0  0  0  0  0  0  0  0  0  0  0
  1  2  1  0  0  0  0
  1 21  1  0  0  0  0
  1 22  1  0  0  0  0
  1 23  1  0  0  0  0
  2 20  1  0  0  0  0
  2  3  2  0  0  0  0
  3  4  1  0  0  0  0
  3 24  1  0  0  0  0
  4  5  1  0  0  0  0
  4 19  2  0  0  0  0
  5  6  1  0  0  0  0
  6  7  2  0  0  0  0
  6  8  1  0  0  0  0
  8  9  1  0  0  0  0
  8 25  1  0  0  0  0
  9 10  1  0  0  0  0
  9 26  1  0  0  0  0
  9 27  1  0  0  0  0
 10 11  1  0  0  0  0
 10 28  1  0  0  0  0
 10 29  1  0  0  0  0
 11 18  1  0  0  0  0
 11 12  1  0  0  0  0
 11 42  1  0  0  0  0
 12 13  1  0  0  0  0
 12 30  1  0  0  0  0
 12 31  1  0  0  0  0
 13 14  1  0  0  0  0
 13 15  1  0  0  0  0
 13 32  1  0  0  0  0
 14 33  1  0  0  0  0
 14 34  1  0  0  0  0
 14 35  1  0  0  0  0
 15 16  1  0  0  0  0
 16 17  1  0  0  0  0
 16 18  1  0  0  0  0
 16 36  1  0  0  0  0
 17 37  1  0  0  0  0
 17 38  1  0  0  0  0
 17 39  1  0  0  0  0
 18 40  1  0  0  0  0
 18 41  1  0  0  0  0
 19 20  1  0  0  0  0
M  CHG  1   5  -1
M  CHG  1  11   1
M  END
> <s_m_source_file>
AV-unprocessed.smi

> <i_m_source_file_index>
1381

> <i_lp_mmshare_version>
43012

> <i_f3d_flags>
0

> <s_epik_input>
W0NIM11jMVtjSF1jKG5vMSlbTkhdQyg9TylbTkhdW0NIMl1bQ0gyXU4yW0NIMl1bQ0BASF0oW0NIM10pT1tDQEBIXShbQ0gzXSlbQ0gyXTI=

> <s_epik_cmdline>
J2VwaWtfcHl0aG9uJywgJy1waCcsICc3LjAnLCAnLXRuJywgJzgnLCAnLW1hJywgJzIwMCcsICctbWV0YWxfYmluZGluZycsICctaW1hZScsICc8aW5maWxlLm1hZT4nLCAnLW9tYWUnLCAnPG91dGZpbGUubWFlPic=

> <r_epik_Ionization_Penalty>
6.73511

> <r_epik_Ionization_Penalty_Charging>
6.73502

> <r_epik_Ionization_Penalty_Neutral>
9.26583e-05

> <r_epik_State_Penalty>
6.93549

> <r_epik_Charging_Adjusted_Penalty>
13.6705

> <i_epik_Tot_Q>
0

> <i_epik_Tot_abs_Q>
2

> <r_epik_Metal_State_Penalty>
2.87211

> <b_epik_Metal_Only>
1

> <s_lp_Force_Field>
OPLS_2005

> <r_lp_Energy>
2.9367

> <b_lp_Chiralities_Consistent>
1

> <s_lp_Variant>
AV-unprocessed.smi:1381-11

> <Gold.Version>
5.8.1

> <Gold.Id.Protein>
6NUR|6NUR_protein|mol2

> <Gold.PLP.Fitness>
42.8563

> <Gold.PLP.PLP>
-29.6006

> <Gold.PLP.part.hbond>
-4.3969

> <Gold.PLP.part.metal>
0.0000

> <Gold.PLP.part.buried>
-4.5431

> <Gold.PLP.part.nonpolar>
-21.2730

> <Gold.PLP.part.repulsive>
0.3169

> <Gold.PLP.ligand.clash>
0.0000

> <Gold.PLP.ligand.torsion>
0.9203

> <Gold.PLP.Chemscore.Hbond>
5.0000

> <Gold.PLP.Chemscore.CHOScore>
0.0000

> <Gold.PLP.Chemscore.Metal>
0.0000

> <Gold.Chemscore.Hbonds>
donor molecule, donor type, donor heavy atom, donor atom, acceptor molecule, acceptor atom, score
      L1  H     8    25       P1  7957  1.00
      L1  H    11    42       P1  7948  2.00
      P1  H  7989  7998       L1     5  0.80
      P1  H  7997  8009       L1    20  1.00

> <Gold.PLP.Chemscore.Internal.Correction>
0.0962

> <Gold.Rescore>
     Score         DG    S(hbond)    S(metal)    S(lipo)     H(rot)  DE(clash)    DE(int)     intcor
     15.85     -17.84       3.05        0.00      53.16       1.58       0.03       1.97       ----

> <Gold.Chemscore.Fitness>
15.8507

> <Gold.Chemscore.DG>
-17.8425

> <Gold.Chemscore.ZeroCoef>
-5.4800

> <Gold.Chemscore.Hbond>
3.0496

> <Gold.Chemscore.Metal>
0.0000

> <Gold.Chemscore.Lipo>
53.1588

> <Gold.Chemscore.Internal_Hbond>
0.0000

> <Gold.Chemscore.DEClash>
0.0254

> <Gold.Chemscore.DEInternal>
1.9664

> <Gold.Chemscore.Rot>
1.5792

> <Gold.Chemscore.Internal.Correction>
   9.000000E+99

> <Gold.Chemscore.Hbonds>
donor molecule, donor type, donor heavy atom, donor atom, acceptor molecule, acceptor atom, score
      L1  H     8    25       P1  7957  1.00
      L1  H    11    42       P1  7948  1.00
      P1  H  7989  7998       L1     5  0.12
      P1  H  7997  8009       L1    20  0.57

> <Gold.Chemscore.Hbond.Weighted>
-10.1857

> <Gold.Chemscore.Metal.Weighted>
-0.0000

> <Gold.Chemscore.Lipo.Weighted>
-6.2196

> <Gold.Chemscore.Internal_Hbond.Weighted>
0.0000

> <Gold.Chemscore.DEClash.Weighted>
0.0254

> <Gold.Chemscore.DEInternal.Weighted>
1.9664

> <Gold.Chemscore.Rot.Weighted>
4.0428

> <Gold.Chemscore.Internal.Correction.Weighted>
   9.000000E+99

> <Gold.Protein.RotatedTorsions>
[ 6907 6896 6895 6894 ] final  150.88 input  -60.11 | X-H torsion
[ 7974 7965 7964 7962 ] final  124.01 input  175.53 | X-H torsion
[ 8008 7997 7996 7995 ] final  163.20 input   59.86 | X-H torsion
[ 10167 10162 10161 10158 ] final -136.85 input  -65.29 | X-H torsion
[ 10718 10713 10712 10709 ] final  110.19 input   66.30 | X-H torsion
[ 10763 10752 10751 10750 ] final   84.55 input  -60.55 | X-H torsion
[ 11005 11000 10999 10996 ] final   31.90 input  -57.11 | X-H torsion

> <Gold.Protein.ActiveResidues>
 VAL166  LYS551  ARG553  GLY616  TRP617  ASP618  TYR619  PRO620  LYS621  CYS622 
 ASP623  PHE694  ASN695  SER759  ASP760  ASP761  ALA762  ILE779  LEU786  VAL792 
 PHE793  MET794  SER795  GLU796  ALA797  LYS798  CYS799  TRP800  GLU811  SER814 

> <Gold.Protein.RotatedAtoms>
  152.1084  133.4287  159.4619 H   0  0  0  0  0  0  0  0  0  0  0  0  # atno 6907 bound_to 6896
  150.6866  134.2678  159.4585 H   0  0  0  0  0  0  0  0  0  0  0  0  # atno 6908 bound_to 6896
  152.0544  134.9633  160.0625 H   0  0  0  0  0  0  0  0  0  0  0  0  # atno 6909 bound_to 6896
  145.0893  139.3598  143.4869 H   0  0  0  0  0  0  0  0  0  0  0  0  # atno 7974 bound_to 7965
  156.1974  140.1730  156.7969 H   0  0  0  0  0  0  0  0  0  0  0  0  # atno 8008 bound_to 7997
  154.5548  140.0711  156.8756 H   0  0  0  0  0  0  0  0  0  0  0  0  # atno 8009 bound_to 7997
  155.2960  140.3358  155.4252 H   0  0  0  0  0  0  0  0  0  0  0  0  # atno 8010 bound_to 7997
  139.8636  143.7045  152.2647 H   0  0  0  0  0  0  0  0  0  0  0  0  # atno 10167 bound_to 10162
  157.6506  131.0928  150.6565 H   0  0  0  0  0  0  0  0  0  0  0  0  # atno 10718 bound_to 10713
  153.1392  135.4650  154.9469 H   0  0  0  0  0  0  0  0  0  0  0  0  # atno 10763 bound_to 10752
  154.7732  135.3165  154.8148 H   0  0  0  0  0  0  0  0  0  0  0  0  # atno 10764 bound_to 10752
  153.8674  135.6907  153.4831 H   0  0  0  0  0  0  0  0  0  0  0  0  # atno 10765 bound_to 10752
  140.2790  134.2994  155.7806 H   0  0  0  0  0  0  0  0  0  0  0  0  # atno 11005 bound_to 11000
  146.3531  140.0720  142.8622 LP  0  0  0  0  0  0  0  0  0  0  0  0  # atno 17320 bound_to 7965
  145.1085  140.9390  143.4671 LP  0  0  0  0  0  0  0  0  0  0  0  0  # atno 17321 bound_to 7965
  139.7350  144.7573  151.0742 LP  0  0  0  0  0  0  0  0  0  0  0  0  # atno 17342 bound_to 10162
  140.7771  143.5042  150.9734 LP  0  0  0  0  0  0  0  0  0  0  0  0  # atno 17343 bound_to 10162
  156.6877  130.4586  149.5609 LP  0  0  0  0  0  0  0  0  0  0  0  0  # atno 17370 bound_to 10713
  156.1884  130.6544  151.1033 LP  0  0  0  0  0  0  0  0  0  0  0  0  # atno 17371 bound_to 10713
  141.2166  133.7514  156.9452 LP  0  0  0  0  0  0  0  0  0  0  0  0  # atno 17394 bound_to 11000
  140.1301  134.9361  157.2325 LP  0  0  0  0  0  0  0  0  0  0  0  0  # atno 17395 bound_to 11000

$$$$
