AV-unprocessed.smi:1729|AV-procd|sdf|6969|dock1
  -GOLD-   22720 8183D 1   1.00000     0.00000
 Structure written by MMmdl.
 35 36  0  0  0  0  0  0  0  0  1 V2000
  152.2464  144.7634  161.5536 C   0  0  0  0  0  0  0  0  0  0  0  0
  152.2649  143.3129  161.0660 C   0  0  0  0  0  0  0  0  0  0  0  0
  151.9807  142.4278  161.8731 O   0  0  0  0  0  0  0  0  0  0  0  0
  152.5860  143.0517  159.7759 N   0  0  0  0  0  0  0  0  0  0  0  0
  152.5504  141.6993  159.2075 C   0  0  0  0  0  0  0  0  0  0  0  0
  151.3620  141.6017  158.2340 C   0  0  0  0  0  0  0  0  0  0  0  0
  151.4404  142.6887  157.1403 C   0  0  0  0  0  0  0  0  0  0  0  0
  150.2120  142.6789  156.3515 N   0  0  0  0  0  0  0  0  0  0  0  0
  149.7787  141.6506  155.6081 C   0  0  0  0  0  0  0  0  0  0  0  0
  150.3835  140.5833  155.5030 O   0  0  0  0  0  0  0  0  0  0  0  0
  148.6151  141.9418  155.0039 N   0  0  0  0  0  0  0  0  0  0  0  0
  147.8622  141.1077  154.1391 C   0  0  0  0  0  0  0  0  0  0  0  0
  148.1391  139.7354  153.8941 C   0  0  0  0  0  0  0  0  0  0  0  0
  147.2687  139.2104  153.0435 N   0  0  0  0  0  0  0  0  0  0  0  0
  146.4383  140.2346  152.7440 N   0  0  0  0  0  0  0  0  0  0  0  0
  146.7611  141.4088  153.3876 C   0  0  0  0  0  0  0  0  0  0  0  0
  151.6874  144.0877  157.7517 C   0  0  0  0  0  0  0  0  0  0  0  0
  152.8608  144.0624  158.7473 C   0  0  0  0  0  0  0  0  0  0  0  0
  145.6635  140.1178  152.1064 H   0  0  0  0  0  0  0  0  0  0  0  0
  151.5425  145.3588  160.9715 H   0  0  0  0  0  0  0  0  0  0  0  0
  153.2382  145.2094  161.4769 H   0  0  0  0  0  0  0  0  0  0  0  0
  151.9387  144.8137  162.5988 H   0  0  0  0  0  0  0  0  0  0  0  0
  153.4850  141.5027  158.6803 H   0  0  0  0  0  0  0  0  0  0  0  0
  152.4711  140.9224  159.9691 H   0  0  0  0  0  0  0  0  0  0  0  0
  151.3357  140.6119  157.7772 H   0  0  0  0  0  0  0  0  0  0  0  0
  150.4329  141.7076  158.7963 H   0  0  0  0  0  0  0  0  0  0  0  0
  152.2829  142.4426  156.4910 H   0  0  0  0  0  0  0  0  0  0  0  0
  149.6493  143.5167  156.3775 H   0  0  0  0  0  0  0  0  0  0  0  0
  148.2269  142.8570  155.1796 H   0  0  0  0  0  0  0  0  0  0  0  0
  148.9259  139.1151  154.2971 H   0  0  0  0  0  0  0  0  0  0  0  0
  146.1930  142.3172  153.2533 H   0  0  0  0  0  0  0  0  0  0  0  0
  151.8884  144.8138  156.9634 H   0  0  0  0  0  0  0  0  0  0  0  0
  150.7889  144.4313  158.2667 H   0  0  0  0  0  0  0  0  0  0  0  0
  153.0292  145.0606  159.1485 H   0  0  0  0  0  0  0  0  0  0  0  0
  153.7830  143.8009  158.2263 H   0  0  0  0  0  0  0  0  0  0  0  0
  1  2  1  0  0  0  0
  1 20  1  0  0  0  0
  1 21  1  0  0  0  0
  1 22  1  0  0  0  0
  2  3  2  0  0  0  0
  2  4  1  0  0  0  0
  4 18  1  0  0  0  0
  4  5  1  0  0  0  0
  5  6  1  0  0  0  0
  5 23  1  0  0  0  0
  5 24  1  0  0  0  0
  6  7  1  0  0  0  0
  6 25  1  0  0  0  0
  6 26  1  0  0  0  0
  7  8  1  0  0  0  0
  7 17  1  0  0  0  0
  7 27  1  0  0  0  0
  8  9  1  0  0  0  0
  8 28  1  0  0  0  0
  9 10  2  0  0  0  0
  9 11  1  0  0  0  0
 11 12  1  0  0  0  0
 11 29  1  0  0  0  0
 12 16  2  0  0  0  0
 12 13  1  0  0  0  0
 13 14  2  0  0  0  0
 13 30  1  0  0  0  0
 14 15  1  0  0  0  0
 15 19  1  0  0  0  0
 15 16  1  0  0  0  0
 16 31  1  0  0  0  0
 17 18  1  0  0  0  0
 17 32  1  0  0  0  0
 17 33  1  0  0  0  0
 18 34  1  0  0  0  0
 18 35  1  0  0  0  0
M  END
> <s_m_source_file>
AV-unprocessed.smi

> <i_m_source_file_index>
1729

> <i_lp_mmshare_version>
43012

> <i_f3d_flags>
0

> <s_epik_input>
W0NIM11DKD1PKU4xW0NIMl1bQ0gyXVtDSF0oW0NIMl1bQ0gyXTEpW05IXUMoPU8pW05IXWMyW2NIXW5bbkhdW2NIXTI=

> <s_epik_cmdline>
J2VwaWtfcHl0aG9uJywgJy1waCcsICc3LjAnLCAnLXRuJywgJzgnLCAnLW1hJywgJzIwMCcsICctbWV0YWxfYmluZGluZycsICctaW1hZScsICc8aW5maWxlLm1hZT4nLCAnLW9tYWUnLCAnPG91dGZpbGUubWFlPic=

> <r_lp_tautomer_probability>
1

> <r_epik_Ionization_Penalty>
5.29522e-05

> <r_epik_Ionization_Penalty_Charging>
0

> <r_epik_Ionization_Penalty_Neutral>
5.29522e-05

> <r_epik_State_Penalty>
-0

> <r_epik_Charging_Adjusted_Penalty>
0

> <i_epik_Tot_Q>
0

> <i_epik_Tot_abs_Q>
0

> <r_epik_Metal_State_Penalty>
-0

> <b_epik_Metal_Only>
0

> <s_lp_Force_Field>
OPLS_2005

> <r_lp_Energy>
24.3568

> <b_lp_Chiralities_Consistent>
1

> <s_lp_Variant>
AV-unprocessed.smi:1729-1

> <Gold.Version>
5.8.1

> <Gold.Id.Protein>
6NUR|6NUR_protein|mol2

> <Gold.PLP.Fitness>
47.5170

> <Gold.PLP.PLP>
-37.6133

> <Gold.PLP.part.hbond>
-4.4854

> <Gold.PLP.part.metal>
0.0000

> <Gold.PLP.part.buried>
-3.6360

> <Gold.PLP.part.nonpolar>
-31.2008

> <Gold.PLP.part.repulsive>
1.7857

> <Gold.PLP.ligand.clash>
0.0000

> <Gold.PLP.ligand.torsion>
0.0406

> <Gold.PLP.Chemscore.Hbond>
3.3225

> <Gold.PLP.Chemscore.CHOScore>
0.0000

> <Gold.PLP.Chemscore.Metal>
0.0000

> <Gold.Chemscore.Hbonds>
donor molecule, donor type, donor heavy atom, donor atom, acceptor molecule, acceptor atom, score
      L1  H     8    28       P1  8028  1.00
      L1  H    11    29       P1  8028  0.78
      L1  H    15    19       P1 10175  0.57
      P1  H  6933  6945       L1     3  0.76
      P1  H  7989  7998       L1    10  0.14

> <Gold.PLP.Chemscore.Internal.Correction>
0.0173

> <Gold.Rescore>
     Score         DG    S(hbond)    S(metal)    S(lipo)     H(rot)  DE(clash)    DE(int)     intcor
     20.70     -23.67       3.37        0.00      81.23       1.00       0.41       2.56       ----

> <Gold.Chemscore.Fitness>
20.6999

> <Gold.Chemscore.DG>
-23.6683

> <Gold.Chemscore.ZeroCoef>
-5.4800

> <Gold.Chemscore.Hbond>
3.3665

> <Gold.Chemscore.Metal>
0.0000

> <Gold.Chemscore.Lipo>
81.2337

> <Gold.Chemscore.Internal_Hbond>
0.0000

> <Gold.Chemscore.DEClash>
0.4116

> <Gold.Chemscore.DEInternal>
2.5568

> <Gold.Chemscore.Rot>
1.0000

> <Gold.Chemscore.Internal.Correction>
   9.000000E+99

> <Gold.Chemscore.Hbonds>
donor molecule, donor type, donor heavy atom, donor atom, acceptor molecule, acceptor atom, score
      L1  H     8    28       P1  8028  0.95
      L1  H    11    29       P1  8028  0.75
      L1  H    15    19       P1 10175  0.29
      P1  H  6933  6945       L1     3  0.71
      P1  H  7989  7998       L1    10  0.05

> <Gold.Chemscore.Hbond.Weighted>
-11.2440

> <Gold.Chemscore.Metal.Weighted>
-0.0000

> <Gold.Chemscore.Lipo.Weighted>
-9.5043

> <Gold.Chemscore.Internal_Hbond.Weighted>
0.0000

> <Gold.Chemscore.DEClash.Weighted>
0.4116

> <Gold.Chemscore.DEInternal.Weighted>
2.5568

> <Gold.Chemscore.Rot.Weighted>
2.5600

> <Gold.Chemscore.Internal.Correction.Weighted>
   9.000000E+99

> <Gold.Protein.RotatedTorsions>
[ 6907 6896 6895 6894 ] final  167.52 input  -60.11 | X-H torsion
[ 7974 7965 7964 7962 ] final   34.08 input  175.53 | X-H torsion
[ 8008 7997 7996 7995 ] final   88.65 input   59.86 | X-H torsion
[ 10167 10162 10161 10158 ] final -115.51 input  -65.29 | X-H torsion
[ 10718 10713 10712 10709 ] final  169.64 input   66.30 | X-H torsion
[ 10763 10752 10751 10750 ] final   90.65 input  -60.55 | X-H torsion
[ 11005 11000 10999 10996 ] final   15.96 input  -57.11 | X-H torsion

> <Gold.Protein.ActiveResidues>
 VAL166  LYS551  ARG553  GLY616  TRP617  ASP618  TYR619  PRO620  LYS621  CYS622 
 ASP623  PHE694  ASN695  SER759  ASP760  ASP761  ALA762  ILE779  LEU786  VAL792 
 PHE793  MET794  SER795  GLU796  ALA797  LYS798  CYS799  TRP800  GLU811  SER814 

> <Gold.Protein.RotatedAtoms>
  151.8620  133.3459  159.3706 H   0  0  0  0  0  0  0  0  0  0  0  0  # atno 6907 bound_to 6896
  150.7176  134.5197  159.5657 H   0  0  0  0  0  0  0  0  0  0  0  0  # atno 6908 bound_to 6896
  152.2712  134.7931  160.0465 H   0  0  0  0  0  0  0  0  0  0  0  0  # atno 6909 bound_to 6896
  146.1377  139.6314  142.9184 H   0  0  0  0  0  0  0  0  0  0  0  0  # atno 7974 bound_to 7965
  155.9904  140.3369  155.6747 H   0  0  0  0  0  0  0  0  0  0  0  0  # atno 8008 bound_to 7997
  155.6429  140.0697  157.2630 H   0  0  0  0  0  0  0  0  0  0  0  0  # atno 8009 bound_to 7997
  154.4217  140.1739  156.1579 H   0  0  0  0  0  0  0  0  0  0  0  0  # atno 8010 bound_to 7997
  140.0893  143.4714  152.1879 H   0  0  0  0  0  0  0  0  0  0  0  0  # atno 10167 bound_to 10162
  157.0198  131.0228  151.2778 H   0  0  0  0  0  0  0  0  0  0  0  0  # atno 10718 bound_to 10713
  153.1999  135.4426  155.0253 H   0  0  0  0  0  0  0  0  0  0  0  0  # atno 10763 bound_to 10752
  154.8140  135.3307  154.7229 H   0  0  0  0  0  0  0  0  0  0  0  0  # atno 10764 bound_to 10752
  153.7675  135.6987  153.4968 H   0  0  0  0  0  0  0  0  0  0  0  0  # atno 10765 bound_to 10752
  140.4524  134.1210  155.7704 H   0  0  0  0  0  0  0  0  0  0  0  0  # atno 11005 bound_to 11000
  145.5118  141.0435  143.2483 LP  0  0  0  0  0  0  0  0  0  0  0  0  # atno 17320 bound_to 7965
  144.7758  139.6634  143.7175 LP  0  0  0  0  0  0  0  0  0  0  0  0  # atno 17321 bound_to 7965
  139.5734  144.7474  151.3831 LP  0  0  0  0  0  0  0  0  0  0  0  0  # atno 17342 bound_to 10162
  140.7037  143.7568  150.7445 LP  0  0  0  0  0  0  0  0  0  0  0  0  # atno 17343 bound_to 10162
  157.5258  130.8027  149.7861 LP  0  0  0  0  0  0  0  0  0  0  0  0  # atno 17370 bound_to 10713
  156.0106  130.3835  150.2277 LP  0  0  0  0  0  0  0  0  0  0  0  0  # atno 17371 bound_to 10713
  141.1658  133.8706  157.1719 LP  0  0  0  0  0  0  0  0  0  0  0  0  # atno 17394 bound_to 11000
  139.9998  135.0032  157.0164 LP  0  0  0  0  0  0  0  0  0  0  0  0  # atno 17395 bound_to 11000

$$$$
