AV-unprocessed.smi:1830|AV-procd|sdf|7436|dock4
  -GOLD-   22720 9123D 1   1.00000     0.00000
 Structure written by MMmdl.
 53 56  0  0  0  0  0  0  0  0  2 V2000
  149.5481  133.1887  155.3077 O   0  0  0  0  0  0  0  0  0  0  0  0
  149.2708  134.0236  154.4469 C   0  0  0  0  0  0  0  0  0  0  0  0
  149.7097  135.2897  154.4741 N   0  0  0  0  0  0  0  0  0  0  0  0
  150.5497  135.8637  155.5199 C   0  0  0  0  0  0  0  0  0  0  0  0
  150.8988  137.3336  155.2258 C   0  0  2  0  0  0  0  0  0  0  0  0
  151.4852  138.0390  156.4598 C   0  0  0  0  0  0  0  0  0  0  0  0
  151.7807  139.4680  156.1830 N   0  3  2  0  0  0  0  0  0  0  0  0
  152.0604  140.2319  157.4186 C   0  0  0  0  0  0  0  0  0  0  0  0
  150.7410  140.9164  157.8209 C   0  0  0  0  0  0  0  0  0  0  0  0
  149.7576  140.6262  156.6810 C   0  0  0  0  0  0  0  0  0  0  0  0
  150.6585  140.1768  155.5303 C   0  0  2  0  0  0  0  0  0  0  0  0
  149.9766  139.3480  154.4234 C   0  0  0  0  0  0  0  0  0  0  0  0
  149.7099  138.0269  154.8682 O   0  0  0  0  0  0  0  0  0  0  0  0
  148.4813  133.8070  153.3822 N   0  0  0  0  0  0  0  0  0  0  0  0
  147.7739  132.6200  153.0394 C   0  0  0  0  0  0  0  0  0  0  0  0
  148.1348  131.3591  153.5743 C   0  0  0  0  0  0  0  0  0  0  0  0
  147.3913  130.2207  153.2188 C   0  0  0  0  0  0  0  0  0  0  0  0
  146.3112  130.3817  152.3354 C   0  0  0  0  0  0  0  0  0  0  0  0
  145.9675  131.5709  151.8020 N   0  0  0  0  0  0  0  0  0  0  0  0
  146.6849  132.6758  152.1229 C   0  0  0  0  0  0  0  0  0  0  0  0
  146.2927  133.8911  151.5164 N   0  0  0  0  0  0  0  0  0  0  0  0
  145.9252  135.0421  152.3345 C   0  0  0  0  0  0  0  0  0  0  0  0
  145.1962  135.9864  151.3829 C   0  0  0  0  0  0  0  0  0  0  0  0
  144.4531  135.0165  150.4699 C   0  0  0  0  0  0  0  0  0  0  0  0
  145.4068  133.8226  150.3581 C   0  0  0  0  0  0  0  0  0  0  0  0
  149.4325  135.9048  153.7231 H   0  0  0  0  0  0  0  0  0  0  0  0
  150.0751  135.7661  156.4978 H   0  0  0  0  0  0  0  0  0  0  0  0
  151.4643  135.2717  155.5630 H   0  0  0  0  0  0  0  0  0  0  0  0
  151.6164  137.3691  154.4034 H   0  0  0  0  0  0  0  0  0  0  0  0
  150.7794  137.9615  157.2889 H   0  0  0  0  0  0  0  0  0  0  0  0
  152.4029  137.5439  156.7796 H   0  0  0  0  0  0  0  0  0  0  0  0
  152.4694  139.6079  158.2148 H   0  0  0  0  0  0  0  0  0  0  0  0
  152.8089  140.9908  157.1875 H   0  0  0  0  0  0  0  0  0  0  0  0
  150.3607  140.5307  158.7673 H   0  0  0  0  0  0  0  0  0  0  0  0
  150.8931  141.9896  157.9413 H   0  0  0  0  0  0  0  0  0  0  0  0
  149.0839  139.8187  156.9711 H   0  0  0  0  0  0  0  0  0  0  0  0
  149.1468  141.4913  156.4215 H   0  0  0  0  0  0  0  0  0  0  0  0
  151.0722  141.0768  155.0720 H   0  0  0  0  0  0  0  0  0  0  0  0
  149.0422  139.8194  154.1180 H   0  0  0  0  0  0  0  0  0  0  0  0
  150.6089  139.3082  153.5349 H   0  0  0  0  0  0  0  0  0  0  0  0
  148.2681  134.6143  152.8151 H   0  0  0  0  0  0  0  0  0  0  0  0
  148.9730  131.2460  154.2447 H   0  0  0  0  0  0  0  0  0  0  0  0
  147.6427  129.2481  153.6155 H   0  0  0  0  0  0  0  0  0  0  0  0
  145.7115  129.5330  152.0424 H   0  0  0  0  0  0  0  0  0  0  0  0
  145.2500  134.7479  153.1390 H   0  0  0  0  0  0  0  0  0  0  0  0
  146.8039  135.5115  152.7778 H   0  0  0  0  0  0  0  0  0  0  0  0
  144.5340  136.6824  151.8980 H   0  0  0  0  0  0  0  0  0  0  0  0
  145.9174  136.5655  150.8044 H   0  0  0  0  0  0  0  0  0  0  0  0
  143.5255  134.7017  150.9500 H   0  0  0  0  0  0  0  0  0  0  0  0
  144.2005  135.4494  149.5017 H   0  0  0  0  0  0  0  0  0  0  0  0
  146.0072  133.9128  149.4526 H   0  0  0  0  0  0  0  0  0  0  0  0
  144.8607  132.8795  150.3115 H   0  0  0  0  0  0  0  0  0  0  0  0
  152.5867  139.4993  155.5751 H   0  0  0  0  0  0  0  0  0  0  0  0
  1  2  2  0  0  0  0
  2  3  1  0  0  0  0
  2 14  1  0  0  0  0
  3  4  1  0  0  0  0
  3 26  1  0  0  0  0
  4  5  1  0  0  0  0
  4 27  1  0  0  0  0
  4 28  1  0  0  0  0
  5 13  1  0  0  0  0
  5  6  1  0  0  0  0
  5 29  1  0  0  0  0
  6  7  1  0  0  0  0
  6 30  1  0  0  0  0
  6 31  1  0  0  0  0
  7 11  1  0  0  0  0
  7  8  1  0  0  0  0
  7 53  1  0  0  0  0
  8  9  1  0  0  0  0
  8 32  1  0  0  0  0
  8 33  1  0  0  0  0
  9 10  1  0  0  0  0
  9 34  1  0  0  0  0
  9 35  1  0  0  0  0
 10 11  1  0  0  0  0
 10 36  1  0  0  0  0
 10 37  1  0  0  0  0
 11 12  1  0  0  0  0
 11 38  1  0  0  0  0
 12 13  1  0  0  0  0
 12 39  1  0  0  0  0
 12 40  1  0  0  0  0
 14 15  1  0  0  0  0
 14 41  1  0  0  0  0
 15 20  1  0  0  0  0
 15 16  2  0  0  0  0
 16 17  1  0  0  0  0
 16 42  1  0  0  0  0
 17 18  2  0  0  0  0
 17 43  1  0  0  0  0
 18 19  1  0  0  0  0
 18 44  1  0  0  0  0
 19 20  2  0  0  0  0
 20 21  1  0  0  0  0
 21 25  1  0  0  0  0
 21 22  1  0  0  0  0
 22 23  1  0  0  0  0
 22 45  1  0  0  0  0
 22 46  1  0  0  0  0
 23 24  1  0  0  0  0
 23 47  1  0  0  0  0
 23 48  1  0  0  0  0
 24 25  1  0  0  0  0
 24 49  1  0  0  0  0
 24 50  1  0  0  0  0
 25 51  1  0  0  0  0
 25 52  1  0  0  0  0
M  CHG  1   7   1
M  END
> <s_m_source_file>
AV-unprocessed.smi

> <i_m_source_file_index>
1830

> <i_lp_mmshare_version>
43012

> <i_f3d_flags>
0

> <s_epik_input>
W0NIMl0xW0NIMl1bQ0gyXVtDQEhdKE4xMilbQ0gyXU9bQ0BASF0oW0NIMl0yKVtDSDJdW05IXUMoPU8pW05IXWMzW2NIXVtjSF1bY0hdbmMzTjRbQ0gyXVtDSDJdW0NIMl1bQ0gyXTQ=

> <s_epik_cmdline>
J2VwaWtfcHl0aG9uJywgJy1waCcsICc3LjAnLCAnLXRuJywgJzgnLCAnLW1hJywgJzIwMCcsICctbWV0YWxfYmluZGluZycsICctaW1hZScsICc8aW5maWxlLm1hZT4nLCAnLW9tYWUnLCAnPG91dGZpbGUubWFlPic=

> <r_lp_tautomer_probability>
1

> <r_epik_Ionization_Penalty>
0.193547

> <r_epik_Ionization_Penalty_Charging>
0.10673

> <r_epik_Ionization_Penalty_Neutral>
0.0868166

> <r_epik_State_Penalty>
0.173595

> <r_epik_Charging_Adjusted_Penalty>
0.280326

> <i_epik_Tot_Q>
1

> <i_epik_Tot_abs_Q>
1

> <r_epik_Metal_State_Penalty>
0.164683

> <b_epik_Metal_Only>
0

> <s_lp_Force_Field>
OPLS_2005

> <r_lp_Energy>
65.0875

> <b_lp_Chiralities_Consistent>
1

> <s_lp_Variant>
AV-unprocessed.smi:1830-5

> <Gold.Version>
5.8.1

> <Gold.Id.Protein>
6NUR|6NUR_protein|mol2

> <Gold.PLP.Fitness>
44.2293

> <Gold.PLP.PLP>
-38.8554

> <Gold.PLP.part.hbond>
-2.0841

> <Gold.PLP.part.metal>
0.0000

> <Gold.PLP.part.buried>
-4.0612

> <Gold.PLP.part.nonpolar>
-32.8857

> <Gold.PLP.part.repulsive>
0.6736

> <Gold.PLP.ligand.clash>
0.0000

> <Gold.PLP.ligand.torsion>
0.3696

> <Gold.PLP.Chemscore.Hbond>
1.9280

> <Gold.PLP.Chemscore.CHOScore>
0.0000

> <Gold.PLP.Chemscore.Metal>
0.0000

> <Gold.Chemscore.Hbonds>
donor molecule, donor type, donor heavy atom, donor atom, acceptor molecule, acceptor atom, score
      L1  H     3    26       P1  7948  1.00
      L1  H    14    41       P1  7948  0.93

> <Gold.PLP.Chemscore.Internal.Correction>
0.3291

> <Gold.Rescore>
     Score         DG    S(hbond)    S(metal)    S(lipo)     H(rot)  DE(clash)    DE(int)     intcor
     13.71     -16.45       1.33        0.00      86.68       1.41       0.05       2.69       ----

> <Gold.Chemscore.Fitness>
13.7134

> <Gold.Chemscore.DG>
-16.4530

> <Gold.Chemscore.ZeroCoef>
-5.4800

> <Gold.Chemscore.Hbond>
1.3272

> <Gold.Chemscore.Metal>
0.0000

> <Gold.Chemscore.Lipo>
86.6773

> <Gold.Chemscore.Internal_Hbond>
0.0000

> <Gold.Chemscore.DEClash>
0.0491

> <Gold.Chemscore.DEInternal>
2.6905

> <Gold.Chemscore.Rot>
1.4067

> <Gold.Chemscore.Internal.Correction>
   9.000000E+99

> <Gold.Chemscore.Hbonds>
donor molecule, donor type, donor heavy atom, donor atom, acceptor molecule, acceptor atom, score
      L1  H     3    26       P1  7948  0.52
      L1  H    14    41       P1  7948  0.40

> <Gold.Chemscore.Hbond.Weighted>
-4.4328

> <Gold.Chemscore.Metal.Weighted>
-0.0000

> <Gold.Chemscore.Lipo.Weighted>
-10.1412

> <Gold.Chemscore.Internal_Hbond.Weighted>
0.0000

> <Gold.Chemscore.DEClash.Weighted>
0.0491

> <Gold.Chemscore.DEInternal.Weighted>
2.6905

> <Gold.Chemscore.Rot.Weighted>
3.6011

> <Gold.Chemscore.Internal.Correction.Weighted>
   9.000000E+99

> <Gold.Protein.RotatedTorsions>
[ 6907 6896 6895 6894 ] final  152.57 input  -60.11 | X-H torsion
[ 7974 7965 7964 7962 ] final -103.35 input  175.53 | X-H torsion
[ 8008 7997 7996 7995 ] final   -9.72 input   59.86 | X-H torsion
[ 10167 10162 10161 10158 ] final -169.53 input  -65.29 | X-H torsion
[ 10718 10713 10712 10709 ] final  -41.27 input   66.30 | X-H torsion
[ 10763 10752 10751 10750 ] final  -98.53 input  -60.55 | X-H torsion
[ 11005 11000 10999 10996 ] final    0.72 input  -57.11 | X-H torsion

> <Gold.Protein.ActiveResidues>
 VAL166  LYS551  ARG553  GLY616  TRP617  ASP618  TYR619  PRO620  LYS621  CYS622 
 ASP623  PHE694  ASN695  SER759  ASP760  ASP761  ALA762  ILE779  LEU786  VAL792 
 PHE793  MET794  SER795  GLU796  ALA797  LYS798  CYS799  TRP800  GLU811  SER814 

> <Gold.Protein.RotatedAtoms>
  152.0848  133.4171  159.4517 H   0  0  0  0  0  0  0  0  0  0  0  0  # atno 6907 bound_to 6896
  150.6862  134.2940  159.4687 H   0  0  0  0  0  0  0  0  0  0  0  0  # atno 6908 bound_to 6896
  152.0785  134.9486  160.0624 H   0  0  0  0  0  0  0  0  0  0  0  0  # atno 6909 bound_to 6896
  145.2570  140.9257  143.3062 H   0  0  0  0  0  0  0  0  0  0  0  0  # atno 7974 bound_to 7965
  154.5621  140.2347  155.8320 H   0  0  0  0  0  0  0  0  0  0  0  0  # atno 8008 bound_to 7997
  156.2038  140.3045  155.9541 H   0  0  0  0  0  0  0  0  0  0  0  0  # atno 8009 bound_to 7997
  155.2870  140.0425  157.3010 H   0  0  0  0  0  0  0  0  0  0  0  0  # atno 8010 bound_to 7997
  139.5917  144.1200  152.1641 H   0  0  0  0  0  0  0  0  0  0  0  0  # atno 10167 bound_to 10162
  156.2722  130.4208  149.8426 H   0  0  0  0  0  0  0  0  0  0  0  0  # atno 10718 bound_to 10713
  154.7422  135.5006  153.9141 H   0  0  0  0  0  0  0  0  0  0  0  0  # atno 10763 bound_to 10752
  153.1054  135.6696  153.9604 H   0  0  0  0  0  0  0  0  0  0  0  0  # atno 10764 bound_to 10752
  153.9378  135.3071  155.3423 H   0  0  0  0  0  0  0  0  0  0  0  0  # atno 10765 bound_to 10752
  140.6234  133.9640  155.8236 H   0  0  0  0  0  0  0  0  0  0  0  0  # atno 11005 bound_to 11000
  144.9452  139.4144  143.6429 LP  0  0  0  0  0  0  0  0  0  0  0  0  # atno 17320 bound_to 7965
  146.3286  139.8431  142.8886 LP  0  0  0  0  0  0  0  0  0  0  0  0  # atno 17321 bound_to 7965
  140.0775  144.5728  150.7146 LP  0  0  0  0  0  0  0  0  0  0  0  0  # atno 17342 bound_to 10162
  140.7178  143.2560  151.4377 LP  0  0  0  0  0  0  0  0  0  0  0  0  # atno 17343 bound_to 10162
  156.5903  130.8503  151.3406 LP  0  0  0  0  0  0  0  0  0  0  0  0  # atno 17370 bound_to 10713
  157.7287  130.9661  150.1756 LP  0  0  0  0  0  0  0  0  0  0  0  0  # atno 17371 bound_to 10713
  141.0726  134.0182  157.3504 LP  0  0  0  0  0  0  0  0  0  0  0  0  # atno 17394 bound_to 11000
  139.9144  135.0195  156.7823 LP  0  0  0  0  0  0  0  0  0  0  0  0  # atno 17395 bound_to 11000

$$$$
