AV-unprocessed.smi:218|AV-procd|sdf|1667|dock1
  -GOLD-   2262020 73D 1   1.00000     0.00000
 Structure written by MMmdl.
 54 57  0  0  0  0  0  0  0  0  1 V2000
  151.6407  141.8135  158.9002 C   0  0  0  0  0  0  0  0  0  0  0  0
  152.0300  142.8495  157.8387 C   0  0  0  0  0  0  0  0  0  0  0  0
  152.3258  144.2170  158.4787 C   0  0  0  0  0  0  0  0  0  0  0  0
  150.9279  142.9512  156.9349 O   0  0  0  0  0  0  0  0  0  0  0  0
  150.6331  141.9072  156.0791 C   0  0  0  0  0  0  0  0  0  0  0  0
  149.4745  142.0051  155.2820 C   0  0  0  0  0  0  0  0  0  0  0  0
  149.1609  140.9502  154.3986 C   0  0  0  0  0  0  0  0  0  0  0  0
  147.9247  141.0010  153.5142 C   0  0  0  0  0  0  0  0  0  0  0  0
  147.7550  139.8683  152.6093 N   0  0  0  0  0  0  0  0  0  0  0  0
  147.1783  138.7238  153.0371 C   0  0  0  0  0  0  0  0  0  0  0  0
  147.1391  138.4064  154.3580 N   0  0  0  0  0  0  0  0  0  0  0  0
  146.5612  137.2687  154.7558 C   0  0  0  0  0  0  0  0  0  0  0  0
  145.9690  136.3293  154.0144 N   0  0  0  0  0  0  0  0  0  0  0  0
  146.0021  136.6486  152.6884 C   0  0  0  0  0  0  0  0  0  0  0  0
  146.5828  137.8169  152.1232 C   0  0  0  0  0  0  0  0  0  0  0  0
  146.4250  137.7993  150.7435 N   0  0  0  0  0  0  0  0  0  0  0  0
  145.7861  136.6835  150.5121 C   0  0  0  0  0  0  0  0  0  0  0  0
  145.4981  135.9265  151.6292 N   0  0  0  0  0  0  0  0  0  0  0  0
  144.7866  134.6110  151.7349 C   0  0  1  0  0  0  0  0  0  0  0  0
  144.1306  134.3677  150.5260 O   0  0  0  0  0  0  0  0  0  0  0  0
  144.8540  133.4019  149.7741 C   0  0  2  0  0  0  0  0  0  0  0  0
  143.9697  132.7707  148.6849 C   0  0  0  0  0  0  0  0  0  0  0  0
  142.8769  132.0985  149.2734 O   0  0  0  0  0  0  0  0  0  0  0  0
  145.4097  132.4647  150.8540 C   0  0  2  0  0  0  0  0  0  0  0  0
  144.4320  131.5323  151.2769 O   0  0  0  0  0  0  0  0  0  0  0  0
  145.7554  133.4269  151.9847 C   0  0  1  0  0  0  0  0  0  0  0  0
  147.1279  133.7766  151.9155 O   0  0  0  0  0  0  0  0  0  0  0  0
  150.0164  139.8316  154.3582 C   0  0  0  0  0  0  0  0  0  0  0  0
  151.1488  139.8219  155.1951 C   0  0  0  0  0  0  0  0  0  0  0  0
  151.4558  140.8296  156.0386 N   0  0  0  0  0  0  0  0  0  0  0  0
  144.0569  134.7556  152.5326 H   0  0  0  0  0  0  0  0  0  0  0  0
  145.6902  133.9154  149.2964 H   0  0  0  0  0  0  0  0  0  0  0  0
  146.2756  131.9034  150.4989 H   0  0  0  0  0  0  0  0  0  0  0  0
  145.5615  132.9951  152.9675 H   0  0  0  0  0  0  0  0  0  0  0  0
  152.4456  141.6680  159.6214 H   0  0  0  0  0  0  0  0  0  0  0  0
  151.4279  140.8473  158.4421 H   0  0  0  0  0  0  0  0  0  0  0  0
  150.7513  142.1246  159.4494 H   0  0  0  0  0  0  0  0  0  0  0  0
  152.9201  142.4732  157.3323 H   0  0  0  0  0  0  0  0  0  0  0  0
  153.1356  144.1410  159.2046 H   0  0  0  0  0  0  0  0  0  0  0  0
  151.4492  144.6056  158.9974 H   0  0  0  0  0  0  0  0  0  0  0  0
  152.6237  144.9561  157.7360 H   0  0  0  0  0  0  0  0  0  0  0  0
  148.8433  142.8792  155.3481 H   0  0  0  0  0  0  0  0  0  0  0  0
  147.0326  141.1005  154.1341 H   0  0  0  0  0  0  0  0  0  0  0  0
  147.9793  141.9074  152.9113 H   0  0  0  0  0  0  0  0  0  0  0  0
  148.2217  139.9461  151.7172 H   0  0  0  0  0  0  0  0  0  0  0  0
  146.5747  137.0855  155.8202 H   0  0  0  0  0  0  0  0  0  0  0  0
  145.5077  136.3880  149.5115 H   0  0  0  0  0  0  0  0  0  0  0  0
  143.6067  133.5157  147.9765 H   0  0  0  0  0  0  0  0  0  0  0  0
  144.5493  132.0463  148.1123 H   0  0  0  0  0  0  0  0  0  0  0  0
  142.1883  132.7262  149.4322 H   0  0  0  0  0  0  0  0  0  0  0  0
  143.5786  131.9231  151.1656 H   0  0  0  0  0  0  0  0  0  0  0  0
  147.1994  134.7180  151.9543 H   0  0  0  0  0  0  0  0  0  0  0  0
  149.8144  138.9996  153.6998 H   0  0  0  0  0  0  0  0  0  0  0  0
  151.8260  138.9805  155.1879 H   0  0  0  0  0  0  0  0  0  0  0  0
  1  2  1  0  0  0  0
  1 35  1  0  0  0  0
  1 36  1  0  0  0  0
  1 37  1  0  0  0  0
  2  3  1  0  0  0  0
  2  4  1  0  0  0  0
  2 38  1  0  0  0  0
  3 39  1  0  0  0  0
  3 40  1  0  0  0  0
  3 41  1  0  0  0  0
  4  5  1  0  0  0  0
  5 30  1  0  0  0  0
  5  6  2  0  0  0  0
  6  7  1  0  0  0  0
  6 42  1  0  0  0  0
  7  8  1  0  0  0  0
  7 28  2  0  0  0  0
  8  9  1  0  0  0  0
  8 43  1  0  0  0  0
  8 44  1  0  0  0  0
  9 10  1  0  0  0  0
  9 45  1  0  0  0  0
 10 15  1  0  0  0  0
 10 11  2  0  0  0  0
 11 12  1  0  0  0  0
 12 13  2  0  0  0  0
 12 46  1  0  0  0  0
 13 14  1  0  0  0  0
 14 18  1  0  0  0  0
 14 15  2  0  0  0  0
 15 16  1  0  0  0  0
 16 17  2  0  0  0  0
 17 18  1  0  0  0  0
 17 47  1  0  0  0  0
 18 19  1  0  0  0  0
 19 31  1  0  0  0  0
 19 26  1  0  0  0  0
 19 20  1  0  0  0  0
 20 21  1  0  0  0  0
 21 32  1  0  0  0  0
 21 22  1  0  0  0  0
 21 24  1  0  0  0  0
 22 23  1  0  0  0  0
 22 48  1  0  0  0  0
 22 49  1  0  0  0  0
 23 50  1  0  0  0  0
 24 33  1  0  0  0  0
 24 25  1  0  0  0  0
 24 26  1  0  0  0  0
 25 51  1  0  0  0  0
 26 34  1  0  0  0  0
 26 27  1  0  0  0  0
 27 52  1  0  0  0  0
 28 29  1  0  0  0  0
 28 53  1  0  0  0  0
 29 30  2  0  0  0  0
 29 54  1  0  0  0  0
M  END
> <s_m_source_file>
AV-unprocessed.smi

> <i_m_source_file_index>
218

> <i_lp_mmshare_version>
43012

> <i_f3d_flags>
0

> <s_epik_input>
W0NIM11bQ0hdKFtDSDNdKU9jMVtjSF1jKFtjSF1bY0hdbjEpW0NIMl1bTkhdYyhuW2NIXW4yKWMoYzIzKW5bY0hdbjNbQ0BASF00T1tDQEhdKFtDSDJdW09IXSlbQ0BASF0oW09IXSlbQ0BIXTRbT0hd

> <s_epik_cmdline>
J2VwaWtfcHl0aG9uJywgJy1waCcsICc3LjAnLCAnLXRuJywgJzgnLCAnLW1hJywgJzIwMCcsICctbWV0YWxfYmluZGluZycsICctaW1hZScsICc8aW5maWxlLm1hZT4nLCAnLW9tYWUnLCAnPG91dGZpbGUubWFlPic=

> <r_lp_tautomer_probability>
1

> <r_epik_Ionization_Penalty>
0.00457014

> <r_epik_Ionization_Penalty_Charging>
0

> <r_epik_Ionization_Penalty_Neutral>
0.00457014

> <r_epik_State_Penalty>
-0

> <r_epik_Charging_Adjusted_Penalty>
0

> <i_epik_Tot_Q>
0

> <i_epik_Tot_abs_Q>
0

> <r_epik_Metal_State_Penalty>
-0

> <b_epik_Metal_Only>
0

> <s_epik_Chemistry_Notes>
This compound contains an acetal/aminal-like group ( X-CH(R)-Y where X, Y are N, S, or O) that may be acid/base labile, releasing an aldehyde.

> <s_lp_Force_Field>
OPLS_2005

> <r_lp_Energy>
40.1019

> <b_lp_Chiralities_Consistent>
1

> <s_lp_Variant>
AV-unprocessed.smi:218-6

> <Gold.Version>
5.8.1

> <Gold.Id.Protein>
6NUR|6NUR_protein|mol2

> <Gold.PLP.Fitness>
61.6056

> <Gold.PLP.PLP>
-47.2859

> <Gold.PLP.part.hbond>
-5.5759

> <Gold.PLP.part.metal>
0.0000

> <Gold.PLP.part.buried>
2.4740

> <Gold.PLP.part.nonpolar>
-46.9857

> <Gold.PLP.part.repulsive>
2.9430

> <Gold.PLP.ligand.clash>
0.0000

> <Gold.PLP.ligand.torsion>
0.7651

> <Gold.PLP.Chemscore.Hbond>
4.0137

> <Gold.PLP.Chemscore.CHOScore>
1.0280

> <Gold.PLP.Chemscore.Metal>
0.0000

> <Gold.Chemscore.Hbonds>
donor molecule, donor type, donor heavy atom, donor atom, acceptor molecule, acceptor atom, score
      L1  H     9    45       P1  7957  0.70
      L1  H    23    50       P1 10186  0.93
      L1  H    27    52       P1  7948  0.26
      P1  H  7954  7966       L1    16  1.00
      P1  H 10785 10796       L1    23  0.94
      L1  C    17    47       P1  7921  1.00
      L1  C    17    47       P1 10171  0.02

> <Gold.PLP.Chemscore.Internal.Correction>
0.7248

> <Gold.Rescore>
     Score         DG    S(hbond)    S(metal)    S(lipo)     H(rot)  DE(clash)    DE(int)     intcor
     10.09     -15.68       3.02        0.00     108.26       4.90       4.73       0.85       ----

> <Gold.Chemscore.Fitness>
10.0922

> <Gold.Chemscore.DG>
-15.6775

> <Gold.Chemscore.ZeroCoef>
-5.4800

> <Gold.Chemscore.Hbond>
3.0186

> <Gold.Chemscore.Metal>
0.0000

> <Gold.Chemscore.Lipo>
108.2632

> <Gold.Chemscore.Internal_Hbond>
0.0000

> <Gold.Chemscore.DEClash>
4.7341

> <Gold.Chemscore.DEInternal>
0.8512

> <Gold.Chemscore.Rot>
4.9029

> <Gold.Chemscore.Internal.Correction>
   9.000000E+99

> <Gold.Chemscore.Hbonds>
donor molecule, donor type, donor heavy atom, donor atom, acceptor molecule, acceptor atom, score
      L1  H     9    45       P1  7957  0.68
      L1  H    23    50       P1 10186  0.89
      L1  H    27    52       P1  7948  0.23
      P1  H  7954  7966       L1    16  0.61
      P1  H 10785 10796       L1    23  0.36

> <Gold.Chemscore.Hbond.Weighted>
-10.0822

> <Gold.Chemscore.Metal.Weighted>
-0.0000

> <Gold.Chemscore.Lipo.Weighted>
-12.6668

> <Gold.Chemscore.Internal_Hbond.Weighted>
0.0000

> <Gold.Chemscore.DEClash.Weighted>
4.7341

> <Gold.Chemscore.DEInternal.Weighted>
0.8512

> <Gold.Chemscore.Rot.Weighted>
12.5515

> <Gold.Chemscore.Internal.Correction.Weighted>
   9.000000E+99

> <Gold.Protein.RotatedTorsions>
[ 6907 6896 6895 6894 ] final   -4.35 input  -60.11 | X-H torsion
[ 7974 7965 7964 7962 ] final  -91.26 input  175.53 | X-H torsion
[ 8008 7997 7996 7995 ] final  -99.35 input   59.86 | X-H torsion
[ 10167 10162 10161 10158 ] final   -5.71 input  -65.29 | X-H torsion
[ 10718 10713 10712 10709 ] final  -30.12 input   66.30 | X-H torsion
[ 10763 10752 10751 10750 ] final -117.92 input  -60.55 | X-H torsion
[ 11005 11000 10999 10996 ] final   66.61 input  -57.11 | X-H torsion

> <Gold.Protein.ActiveResidues>
 VAL166  LYS551  ARG553  GLY616  TRP617  ASP618  TYR619  PRO620  LYS621  CYS622 
 ASP623  PHE694  ASN695  SER759  ASP760  ASP761  ALA762  ILE779  LEU786  VAL792 
 PHE793  MET794  SER795  GLU796  ALA797  LYS798  CYS799  TRP800  GLU811  SER814 

> <Gold.Protein.RotatedAtoms>
  151.4991  135.1061  159.9823 H   0  0  0  0  0  0  0  0  0  0  0  0  # atno 6907 bound_to 6896
  152.4709  133.8024  159.6970 H   0  0  0  0  0  0  0  0  0  0  0  0  # atno 6908 bound_to 6896
  150.8718  133.7432  159.2985 H   0  0  0  0  0  0  0  0  0  0  0  0  # atno 6909 bound_to 6896
  145.4155  140.9548  143.2210 H   0  0  0  0  0  0  0  0  0  0  0  0  # atno 7974 bound_to 7965
  154.8136  140.0448  157.1360 H   0  0  0  0  0  0  0  0  0  0  0  0  # atno 8008 bound_to 7997
  154.9340  140.3043  155.5133 H   0  0  0  0  0  0  0  0  0  0  0  0  # atno 8009 bound_to 7997
  156.2974  140.2318  156.4402 H   0  0  0  0  0  0  0  0  0  0  0  0  # atno 8010 bound_to 7997
  140.6972  143.6277  150.8552 H   0  0  0  0  0  0  0  0  0  0  0  0  # atno 10167 bound_to 10162
  156.4038  130.4395  149.7302 H   0  0  0  0  0  0  0  0  0  0  0  0  # atno 10718 bound_to 10713
  154.8571  135.4292  154.2057 H   0  0  0  0  0  0  0  0  0  0  0  0  # atno 10763 bound_to 10752
  153.3094  135.6974  153.7135 H   0  0  0  0  0  0  0  0  0  0  0  0  # atno 10764 bound_to 10752
  153.6234  135.3498  155.2992 H   0  0  0  0  0  0  0  0  0  0  0  0  # atno 10765 bound_to 10752
  139.9821  134.6727  156.0243 H   0  0  0  0  0  0  0  0  0  0  0  0  # atno 11005 bound_to 11000
  144.8280  139.5677  143.6957 LP  0  0  0  0  0  0  0  0  0  0  0  0  # atno 17320 bound_to 7965
  146.2683  139.6573  142.9314 LP  0  0  0  0  0  0  0  0  0  0  0  0  # atno 17321 bound_to 7965
  139.9996  143.5758  152.2880 LP  0  0  0  0  0  0  0  0  0  0  0  0  # atno 17342 bound_to 10162
  139.6443  144.7657  151.2276 LP  0  0  0  0  0  0  0  0  0  0  0  0  # atno 17343 bound_to 10162
  156.4308  130.7814  151.2834 LP  0  0  0  0  0  0  0  0  0  0  0  0  # atno 17370 bound_to 10713
  157.7505  131.0154  150.3505 LP  0  0  0  0  0  0  0  0  0  0  0  0  # atno 17371 bound_to 10713
  141.1491  133.6551  156.3959 LP  0  0  0  0  0  0  0  0  0  0  0  0  # atno 17394 bound_to 11000
  140.5076  134.6426  157.5272 LP  0  0  0  0  0  0  0  0  0  0  0  0  # atno 17395 bound_to 11000

$$$$
