AV-unprocessed.smi:469|AV-procd|sdf|2653|dock10
  -GOLD-   2262023 63D 1   1.00000     0.00000
 Structure written by MMmdl.
 37 38  0  0  0  0  0  0  0  0  1 V2000
  151.9719  130.8387  156.1059 C   0  0  0  0  0  0  0  0  0  0  0  0
  151.2618  132.0007  155.5938 N   0  0  0  0  0  0  0  0  0  0  0  0
  151.2163  133.1900  156.2107 C   0  0  0  0  0  0  0  0  0  0  0  0
  151.7833  133.4132  157.2814 O   0  0  0  0  0  0  0  0  0  0  0  0
  150.4162  134.2862  155.4918 C   0  0  0  0  0  0  0  0  0  0  0  0
  150.2433  135.5115  156.2897 N   0  0  0  0  0  0  0  0  0  0  0  0
  150.7254  136.7096  155.7283 C   0  0  0  0  0  0  0  0  0  0  0  0
  150.5863  137.8904  156.3528 C   0  0  0  0  0  0  0  0  0  0  0  0
  151.3503  139.3836  155.6684 S   0  0  0  0  0  0  0  0  0  0  0  0
  152.8098  139.2227  155.7610 O   0  0  0  0  0  0  0  0  0  0  0  0
  150.7259  139.6522  154.3631 O   0  0  0  0  0  0  0  0  0  0  0  0
  150.9018  140.6709  156.7327 N   0  0  0  0  0  0  0  0  0  0  0  0
  151.3877  140.6218  158.1182 C   0  0  0  0  0  0  0  0  0  0  0  0
  152.0892  141.9581  158.3573 C   0  0  0  0  0  0  0  0  0  0  0  0
  151.3259  142.9131  157.4521 C   0  0  0  0  0  0  0  0  0  0  0  0
  151.0012  142.0503  156.2331 C   0  0  0  0  0  0  0  0  0  0  0  0
  149.9927  137.9036  157.6699 C   0  0  0  0  0  0  0  0  0  0  0  0
  149.5555  136.7569  158.2275 C   0  0  0  0  0  0  0  0  0  0  0  0
  149.6615  135.4706  157.5282 C   0  0  0  0  0  0  0  0  0  0  0  0
  149.2540  134.4208  158.0259 O   0  0  0  0  0  0  0  0  0  0  0  0
  151.8876  130.0109  155.4016 H   0  0  0  0  0  0  0  0  0  0  0  0
  151.5535  130.5189  157.0612 H   0  0  0  0  0  0  0  0  0  0  0  0
  153.0311  131.0602  156.2458 H   0  0  0  0  0  0  0  0  0  0  0  0
  150.7747  131.8952  154.7155 H   0  0  0  0  0  0  0  0  0  0  0  0
  150.9215  134.5188  154.5531 H   0  0  0  0  0  0  0  0  0  0  0  0
  149.4446  133.8838  155.1988 H   0  0  0  0  0  0  0  0  0  0  0  0
  151.2208  136.6005  154.7743 H   0  0  0  0  0  0  0  0  0  0  0  0
  150.5326  140.5082  158.7851 H   0  0  0  0  0  0  0  0  0  0  0  0
  152.0576  139.7763  158.2789 H   0  0  0  0  0  0  0  0  0  0  0  0
  152.0757  142.2625  159.4041 H   0  0  0  0  0  0  0  0  0  0  0  0
  153.1301  141.8944  158.0365 H   0  0  0  0  0  0  0  0  0  0  0  0
  150.4033  143.2296  157.9404 H   0  0  0  0  0  0  0  0  0  0  0  0
  151.8982  143.8058  157.1981 H   0  0  0  0  0  0  0  0  0  0  0  0
  151.8111  142.1171  155.5054 H   0  0  0  0  0  0  0  0  0  0  0  0
  150.0767  142.3521  155.7402 H   0  0  0  0  0  0  0  0  0  0  0  0
  149.8976  138.8328  158.2120 H   0  0  0  0  0  0  0  0  0  0  0  0
  149.1143  136.7839  159.2131 H   0  0  0  0  0  0  0  0  0  0  0  0
  1  2  1  0  0  0  0
  1 21  1  0  0  0  0
  1 22  1  0  0  0  0
  1 23  1  0  0  0  0
  2  3  1  0  0  0  0
  2 24  1  0  0  0  0
  3  4  2  0  0  0  0
  3  5  1  0  0  0  0
  5  6  1  0  0  0  0
  5 25  1  0  0  0  0
  5 26  1  0  0  0  0
  6 19  1  0  0  0  0
  6  7  1  0  0  0  0
  7  8  2  0  0  0  0
  7 27  1  0  0  0  0
  8  9  1  0  0  0  0
  8 17  1  0  0  0  0
  9 10  2  0  0  0  0
  9 11  2  0  0  0  0
  9 12  1  0  0  0  0
 12 16  1  0  0  0  0
 12 13  1  0  0  0  0
 13 14  1  0  0  0  0
 13 28  1  0  0  0  0
 13 29  1  0  0  0  0
 14 15  1  0  0  0  0
 14 30  1  0  0  0  0
 14 31  1  0  0  0  0
 15 16  1  0  0  0  0
 15 32  1  0  0  0  0
 15 33  1  0  0  0  0
 16 34  1  0  0  0  0
 16 35  1  0  0  0  0
 17 18  2  0  0  0  0
 17 36  1  0  0  0  0
 18 19  1  0  0  0  0
 18 37  1  0  0  0  0
 19 20  2  0  0  0  0
M  END
> <s_m_source_file>
AV-unprocessed.smi

> <i_m_source_file_index>
469

> <i_lp_mmshare_version>
43012

> <i_f3d_flags>
0

> <s_epik_input>
W0NIM11bTkhdQyg9TylbQ0gyXW4xW2NIXWMoW2NIXVtjSF1jMT1PKVMoPU8pKD1PKU4yW0NIMl1bQ0gyXVtDSDJdW0NIMl0y

> <s_epik_cmdline>
J2VwaWtfcHl0aG9uJywgJy1waCcsICc3LjAnLCAnLXRuJywgJzgnLCAnLW1hJywgJzIwMCcsICctbWV0YWxfYmluZGluZycsICctaW1hZScsICc8aW5maWxlLm1hZT4nLCAnLW9tYWUnLCAnPG91dGZpbGUubWFlPic=

> <r_lp_tautomer_probability>
1

> <r_epik_Ionization_Penalty>
2.91909e-08

> <r_epik_Ionization_Penalty_Charging>
9.91299e-09

> <r_epik_Ionization_Penalty_Neutral>
1.92779e-08

> <r_epik_State_Penalty>
-0

> <r_epik_Charging_Adjusted_Penalty>
9.91299e-09

> <i_epik_Tot_Q>
0

> <i_epik_Tot_abs_Q>
0

> <r_epik_Metal_State_Penalty>
-0

> <b_epik_Metal_Only>
0

> <s_lp_Force_Field>
OPLS_2005

> <r_lp_Energy>
18.9882

> <b_lp_Chiralities_Consistent>
1

> <s_lp_Variant>
AV-unprocessed.smi:469-1

> <Gold.Version>
5.8.1

> <Gold.Id.Protein>
6NUR|6NUR_protein|mol2

> <Gold.PLP.Fitness>
35.6419

> <Gold.PLP.PLP>
-27.3914

> <Gold.PLP.part.hbond>
-4.0000

> <Gold.PLP.part.metal>
0.0000

> <Gold.PLP.part.buried>
-5.5376

> <Gold.PLP.part.nonpolar>
-16.5744

> <Gold.PLP.part.repulsive>
0.1971

> <Gold.PLP.ligand.clash>
0.0000

> <Gold.PLP.ligand.torsion>
1.7416

> <Gold.PLP.Chemscore.Hbond>
3.0972

> <Gold.PLP.Chemscore.CHOScore>
0.0000

> <Gold.PLP.Chemscore.Metal>
0.0000

> <Gold.Chemscore.Hbonds>
donor molecule, donor type, donor heavy atom, donor atom, acceptor molecule, acceptor atom, score
      P1  H  6896  6908       L1     4  0.08
      P1  H  6896  6909       L1    20  1.00
      P1  H  7989  7998       L1    11  1.00
      P1  H  7997  8008       L1    10  1.00

> <Gold.PLP.Chemscore.Internal.Correction>
2.4419

> <Gold.Rescore>
     Score         DG    S(hbond)    S(metal)    S(lipo)     H(rot)  DE(clash)    DE(int)     intcor
     15.49     -17.46       2.74        0.00      59.55       1.62       0.13       1.84       ----

> <Gold.Chemscore.Fitness>
15.4913

> <Gold.Chemscore.DG>
-17.4596

> <Gold.Chemscore.ZeroCoef>
-5.4800

> <Gold.Chemscore.Hbond>
2.7443

> <Gold.Chemscore.Metal>
0.0000

> <Gold.Chemscore.Lipo>
59.5521

> <Gold.Chemscore.Internal_Hbond>
0.0000

> <Gold.Chemscore.DEClash>
0.1323

> <Gold.Chemscore.DEInternal>
1.8360

> <Gold.Chemscore.Rot>
1.6226

> <Gold.Chemscore.Internal.Correction>
   9.000000E+99

> <Gold.Chemscore.Hbonds>
donor molecule, donor type, donor heavy atom, donor atom, acceptor molecule, acceptor atom, score
      P1  H  6896  6908       L1     4  0.09
      P1  H  6896  6909       L1    20  0.25
      P1  H  7989  7998       L1    11  0.78
      P1  H  7997  8008       L1    10  1.00

> <Gold.Chemscore.Hbond.Weighted>
-9.1659

> <Gold.Chemscore.Metal.Weighted>
-0.0000

> <Gold.Chemscore.Lipo.Weighted>
-6.9676

> <Gold.Chemscore.Internal_Hbond.Weighted>
0.0000

> <Gold.Chemscore.DEClash.Weighted>
0.1323

> <Gold.Chemscore.DEInternal.Weighted>
1.8360

> <Gold.Chemscore.Rot.Weighted>
4.1539

> <Gold.Chemscore.Internal.Correction.Weighted>
   9.000000E+99

> <Gold.Protein.RotatedTorsions>
[ 6907 6896 6895 6894 ] final   20.37 input  -60.11 | X-H torsion
[ 7974 7965 7964 7962 ] final  -34.02 input  175.53 | X-H torsion
[ 8008 7997 7996 7995 ] final  -28.49 input   59.86 | X-H torsion
[ 10167 10162 10161 10158 ] final -111.73 input  -65.29 | X-H torsion
[ 10718 10713 10712 10709 ] final  -14.17 input   66.30 | X-H torsion
[ 10763 10752 10751 10750 ] final   47.34 input  -60.55 | X-H torsion
[ 11005 11000 10999 10996 ] final  -32.20 input  -57.11 | X-H torsion

> <Gold.Protein.ActiveResidues>
 VAL166  LYS551  ARG553  GLY616  TRP617  ASP618  TYR619  PRO620  LYS621  CYS622 
 ASP623  PHE694  ASN695  SER759  ASP760  ASP761  ALA762  ILE779  LEU786  VAL792 
 PHE793  MET794  SER795  GLU796  ALA797  LYS798  CYS799  TRP800  GLU811  SER814 

> <Gold.Protein.RotatedAtoms>
  151.8953  135.0400  160.0501 H   0  0  0  0  0  0  0  0  0  0  0  0  # atno 6907 bound_to 6896
  152.2402  133.5125  159.5274 H   0  0  0  0  0  0  0  0  0  0  0  0  # atno 6908 bound_to 6896
  150.7051  134.1015  159.4010 H   0  0  0  0  0  0  0  0  0  0  0  0  # atno 6909 bound_to 6896
  146.0863  140.5988  142.8885 H   0  0  0  0  0  0  0  0  0  0  0  0  # atno 7974 bound_to 7965
  154.4330  140.1844  156.1098 H   0  0  0  0  0  0  0  0  0  0  0  0  # atno 8008 bound_to 7997
  156.0226  140.3339  155.7029 H   0  0  0  0  0  0  0  0  0  0  0  0  # atno 8009 bound_to 7997
  155.5954  140.0635  157.2738 H   0  0  0  0  0  0  0  0  0  0  0  0  # atno 8010 bound_to 7997
  140.1304  143.4365  152.1631 H   0  0  0  0  0  0  0  0  0  0  0  0  # atno 10167 bound_to 10162
  156.6198  130.4872  149.6169 H   0  0  0  0  0  0  0  0  0  0  0  0  # atno 10718 bound_to 10713
  152.9801  135.5979  154.3747 H   0  0  0  0  0  0  0  0  0  0  0  0  # atno 10763 bound_to 10752
  154.3417  135.2767  155.2421 H   0  0  0  0  0  0  0  0  0  0  0  0  # atno 10764 bound_to 10752
  154.4499  135.5992  153.6240 H   0  0  0  0  0  0  0  0  0  0  0  0  # atno 10765 bound_to 10752
  140.9532  133.7208  156.1252 H   0  0  0  0  0  0  0  0  0  0  0  0  # atno 11005 bound_to 11000
  144.7328  140.4722  143.6925 LP  0  0  0  0  0  0  0  0  0  0  0  0  # atno 17320 bound_to 7965
  145.6123  139.1514  143.3069 LP  0  0  0  0  0  0  0  0  0  0  0  0  # atno 17321 bound_to 7965
  139.5522  144.7346  151.4399 LP  0  0  0  0  0  0  0  0  0  0  0  0  # atno 17342 bound_to 10162
  140.6820  143.8060  150.7134 LP  0  0  0  0  0  0  0  0  0  0  0  0  # atno 17343 bound_to 10162
  156.2321  130.6801  151.1474 LP  0  0  0  0  0  0  0  0  0  0  0  0  # atno 17370 bound_to 10713
  157.7231  131.0668  150.6051 LP  0  0  0  0  0  0  0  0  0  0  0  0  # atno 17371 bound_to 10713
  140.7573  134.3978  157.5531 LP  0  0  0  0  0  0  0  0  0  0  0  0  # atno 17394 bound_to 11000
  139.8854  134.8939  156.2646 LP  0  0  0  0  0  0  0  0  0  0  0  0  # atno 17395 bound_to 11000

$$$$
