AV-unprocessed.smi:195|AV-procd|sdf|1526|dock9
  -GOLD-   2262019373D 1   1.00000     0.00000
 Structure written by MMmdl.
 45 48  0  0  0  0  0  0  0  0  1 V2000
  152.1254  136.4663  155.6219 N   0  0  0  0  0  0  0  0  0  0  0  0
  151.3852  137.1622  155.0684 C   0  0  0  0  0  0  0  0  0  0  0  0
  150.4445  138.0471  154.3633 C   0  0  0  0  0  0  0  0  0  0  0  0
  150.1591  139.3528  155.1111 C   0  0  0  0  0  0  0  0  0  0  0  0
  151.3741  140.0711  155.0603 O   0  0  0  0  0  0  0  0  0  0  0  0
  148.9165  140.1456  154.6943 C   0  0  0  0  0  0  0  0  0  0  0  0
  148.2399  139.6003  155.8685 N   0  0  0  0  0  0  0  0  0  0  0  0
  147.3442  138.5261  155.5680 C   0  0  0  0  0  0  0  0  0  0  0  0
  146.9362  137.6635  156.5383 N   0  0  0  0  0  0  0  0  0  0  0  0
  146.0969  136.6601  156.2662 C   0  0  0  0  0  0  0  0  0  0  0  0
  145.5329  136.3390  155.1019 N   0  0  0  0  0  0  0  0  0  0  0  0
  145.9126  137.2064  154.1223 C   0  0  0  0  0  0  0  0  0  0  0  0
  146.7979  138.3122  154.2695 C   0  0  0  0  0  0  0  0  0  0  0  0
  146.9357  138.9685  153.0515 N   0  0  0  0  0  0  0  0  0  0  0  0
  146.1828  138.2861  152.2319 C   0  0  0  0  0  0  0  0  0  0  0  0
  145.5346  137.2094  152.7921 N   0  0  0  0  0  0  0  0  0  0  0  0
  144.6436  136.2795  152.1209 C   0  0  0  0  0  0  0  0  0  0  0  0
  145.3313  135.5517  150.9486 C   0  0  2  0  0  0  0  0  0  0  0  0
  144.7106  135.9375  149.7367 O   0  0  0  0  0  0  0  0  0  0  0  0
  145.2533  134.0193  151.0826 C   0  0  1  0  0  0  0  0  0  0  0  0
  143.8560  133.4362  150.8573 C   0  0  0  0  0  0  0  0  0  0  0  0
  144.1764  132.0274  150.4156 C   0  0  0  0  0  0  0  0  0  0  0  0
  145.4065  132.2547  149.5442 C   0  0  0  0  0  0  0  0  0  0  0  0
  146.0696  133.3892  150.0960 O   0  0  0  0  0  0  0  0  0  0  0  0
  149.5167  139.2646  156.4996 C   0  0  0  0  0  0  0  0  0  0  0  0
  150.8464  138.2422  153.3685 H   0  0  0  0  0  0  0  0  0  0  0  0
  149.5286  137.4757  154.2150 H   0  0  0  0  0  0  0  0  0  0  0  0
  151.4384  140.5620  155.8654 H   0  0  0  0  0  0  0  0  0  0  0  0
  149.0455  141.2263  154.7659 H   0  0  0  0  0  0  0  0  0  0  0  0
  148.5029  139.8498  153.7293 H   0  0  0  0  0  0  0  0  0  0  0  0
  145.8403  136.0256  157.1018 H   0  0  0  0  0  0  0  0  0  0  0  0
  146.0826  138.5488  151.1887 H   0  0  0  0  0  0  0  0  0  0  0  0
  144.2904  135.5595  152.8600 H   0  0  0  0  0  0  0  0  0  0  0  0
  143.7647  136.8243  151.7731 H   0  0  0  0  0  0  0  0  0  0  0  0
  146.3784  135.8543  150.9014 H   0  0  0  0  0  0  0  0  0  0  0  0
  144.4359  136.8384  149.8145 H   0  0  0  0  0  0  0  0  0  0  0  0
  145.6178  133.7048  152.0621 H   0  0  0  0  0  0  0  0  0  0  0  0
  143.2307  133.4716  151.7498 H   0  0  0  0  0  0  0  0  0  0  0  0
  143.3395  133.9683  150.0570 H   0  0  0  0  0  0  0  0  0  0  0  0
  144.4332  131.4125  151.2793 H   0  0  0  0  0  0  0  0  0  0  0  0
  143.3571  131.5454  149.8817 H   0  0  0  0  0  0  0  0  0  0  0  0
  146.0619  131.3838  149.5129 H   0  0  0  0  0  0  0  0  0  0  0  0
  145.1094  132.4922  148.5218 H   0  0  0  0  0  0  0  0  0  0  0  0
  149.5938  138.2902  156.9813 H   0  0  0  0  0  0  0  0  0  0  0  0
  149.8459  140.0586  157.1715 H   0  0  0  0  0  0  0  0  0  0  0  0
  1  2  3  0  0  0  0
  2  3  1  0  0  0  0
  3  4  1  0  0  0  0
  3 26  1  0  0  0  0
  3 27  1  0  0  0  0
  4 25  1  0  0  0  0
  4  5  1  0  0  0  0
  4  6  1  0  0  0  0
  5 28  1  0  0  0  0
  6  7  1  0  0  0  0
  6 29  1  0  0  0  0
  6 30  1  0  0  0  0
  7  8  1  0  0  0  0
  7 25  1  0  0  0  0
  8 13  1  0  0  0  0
  8  9  2  0  0  0  0
  9 10  1  0  0  0  0
 10 11  2  0  0  0  0
 10 31  1  0  0  0  0
 11 12  1  0  0  0  0
 12 16  1  0  0  0  0
 12 13  2  0  0  0  0
 13 14  1  0  0  0  0
 14 15  2  0  0  0  0
 15 16  1  0  0  0  0
 15 32  1  0  0  0  0
 16 17  1  0  0  0  0
 17 18  1  0  0  0  0
 17 33  1  0  0  0  0
 17 34  1  0  0  0  0
 18 19  1  0  0  0  0
 18 20  1  0  0  0  0
 18 35  1  0  0  0  0
 19 36  1  0  0  0  0
 20 24  1  0  0  0  0
 20 21  1  0  0  0  0
 20 37  1  0  0  0  0
 21 22  1  0  0  0  0
 21 38  1  0  0  0  0
 21 39  1  0  0  0  0
 22 23  1  0  0  0  0
 22 40  1  0  0  0  0
 22 41  1  0  0  0  0
 23 24  1  0  0  0  0
 23 42  1  0  0  0  0
 23 43  1  0  0  0  0
 25 44  1  0  0  0  0
 25 45  1  0  0  0  0
M  END
> <s_m_source_file>
AV-unprocessed.smi

> <i_m_source_file_index>
195

> <i_lp_mmshare_version>
43012

> <i_f3d_flags>
0

> <s_epik_input>
TiNDW0NIMl1DMShbT0hdKVtDSDJdTihbQ0gyXTEpYyhuW2NIXW4yKWMoYzIzKW5bY0hdbjNbQ0gyXVtDQEhdKFtPSF0pW0NAQEhdNFtDSDJdW0NIMl1bQ0gyXU80

> <s_epik_cmdline>
J2VwaWtfcHl0aG9uJywgJy1waCcsICc3LjAnLCAnLXRuJywgJzgnLCAnLW1hJywgJzIwMCcsICctbWV0YWxfYmluZGluZycsICctaW1hZScsICc8aW5maWxlLm1hZT4nLCAnLW9tYWUnLCAnPG91dGZpbGUubWFlPic=

> <r_lp_tautomer_probability>
1

> <r_epik_Ionization_Penalty>
0.00307146

> <r_epik_Ionization_Penalty_Charging>
0

> <r_epik_Ionization_Penalty_Neutral>
0.00307146

> <r_epik_State_Penalty>
0.0020279

> <r_epik_Charging_Adjusted_Penalty>
0.0020279

> <i_epik_Tot_Q>
0

> <i_epik_Tot_abs_Q>
0

> <r_epik_Metal_State_Penalty>
-0

> <b_epik_Metal_Only>
0

> <s_lp_Force_Field>
OPLS_2005

> <r_lp_Energy>
44.1004

> <b_lp_Chiralities_Consistent>
1

> <s_lp_Variant>
AV-unprocessed.smi:195-3

> <Gold.Version>
5.8.1

> <Gold.Id.Protein>
6NUR|6NUR_protein|mol2

> <Gold.PLP.Fitness>
47.1843

> <Gold.PLP.PLP>
-37.8734

> <Gold.PLP.part.hbond>
-3.8599

> <Gold.PLP.part.metal>
0.0000

> <Gold.PLP.part.buried>
-7.3206

> <Gold.PLP.part.nonpolar>
-29.4350

> <Gold.PLP.part.repulsive>
1.3630

> <Gold.PLP.ligand.clash>
0.0000

> <Gold.PLP.ligand.torsion>
1.2319

> <Gold.PLP.Chemscore.Hbond>
2.9913

> <Gold.PLP.Chemscore.CHOScore>
0.8221

> <Gold.PLP.Chemscore.Metal>
0.0000

> <Gold.Chemscore.Hbonds>
donor molecule, donor type, donor heavy atom, donor atom, acceptor molecule, acceptor atom, score
      L1  H    19    36       P1 10171  1.00
      P1  H  7989  7998       L1     5  1.00
      P1  H 10752 10763       L1     1  0.96
      L1  C    15    32       P1 10171  0.80

> <Gold.PLP.Chemscore.Internal.Correction>
0.3347

> <Gold.Rescore>
     Score         DG    S(hbond)    S(metal)    S(lipo)     H(rot)  DE(clash)    DE(int)     intcor
     10.84     -13.82       2.89        0.00      70.20       3.72       0.45       2.53       ----

> <Gold.Chemscore.Fitness>
10.8430

> <Gold.Chemscore.DG>
-13.8231

> <Gold.Chemscore.ZeroCoef>
-5.4800

> <Gold.Chemscore.Hbond>
2.8907

> <Gold.Chemscore.Metal>
0.0000

> <Gold.Chemscore.Lipo>
70.2030

> <Gold.Chemscore.Internal_Hbond>
0.0000

> <Gold.Chemscore.DEClash>
0.4464

> <Gold.Chemscore.DEInternal>
2.5337

> <Gold.Chemscore.Rot>
3.7210

> <Gold.Chemscore.Internal.Correction>
   9.000000E+99

> <Gold.Chemscore.Hbonds>
donor molecule, donor type, donor heavy atom, donor atom, acceptor molecule, acceptor atom, score
      L1  H    19    36       P1 10171  1.00
      P1  H  7989  7998       L1     5  0.82
      P1  H 10752 10763       L1     1  0.90

> <Gold.Chemscore.Hbond.Weighted>
-9.6550

> <Gold.Chemscore.Metal.Weighted>
-0.0000

> <Gold.Chemscore.Lipo.Weighted>
-8.2138

> <Gold.Chemscore.Internal_Hbond.Weighted>
0.0000

> <Gold.Chemscore.DEClash.Weighted>
0.4464

> <Gold.Chemscore.DEInternal.Weighted>
2.5337

> <Gold.Chemscore.Rot.Weighted>
9.5256

> <Gold.Chemscore.Internal.Correction.Weighted>
   9.000000E+99

> <Gold.Protein.RotatedTorsions>
[ 6907 6896 6895 6894 ] final   75.73 input  -60.11 | X-H torsion
[ 7974 7965 7964 7962 ] final  -69.44 input  175.53 | X-H torsion
[ 8008 7997 7996 7995 ] final   97.18 input   59.86 | X-H torsion
[ 10167 10162 10161 10158 ] final -174.17 input  -65.29 | X-H torsion
[ 10718 10713 10712 10709 ] final -158.94 input   66.30 | X-H torsion
[ 10763 10752 10751 10750 ] final   86.86 input  -60.55 | X-H torsion
[ 11005 11000 10999 10996 ] final  -31.29 input  -57.11 | X-H torsion

> <Gold.Protein.ActiveResidues>
 VAL166  LYS551  ARG553  GLY616  TRP617  ASP618  TYR619  PRO620  LYS621  CYS622 
 ASP623  PHE694  ASN695  SER759  ASP760  ASP761  ALA762  ILE779  LEU786  VAL792 
 PHE793  MET794  SER795  GLU796  ALA797  LYS798  CYS799  TRP800  GLU811  SER814 

> <Gold.Protein.RotatedAtoms>
  152.5040  134.4076  159.9437 H   0  0  0  0  0  0  0  0  0  0  0  0  # atno 6907 bound_to 6896
  151.4043  133.3741  159.2744 H   0  0  0  0  0  0  0  0  0  0  0  0  # atno 6908 bound_to 6896
  150.9338  134.8773  159.7628 H   0  0  0  0  0  0  0  0  0  0  0  0  # atno 6909 bound_to 6896
  145.7038  140.9106  143.0717 H   0  0  0  0  0  0  0  0  0  0  0  0  # atno 7974 bound_to 7965
  156.0875  140.3262  155.7772 H   0  0  0  0  0  0  0  0  0  0  0  0  # atno 8008 bound_to 7997
  155.5052  140.0572  157.2950 H   0  0  0  0  0  0  0  0  0  0  0  0  # atno 8009 bound_to 7997
  154.4618  140.1970  156.0242 H   0  0  0  0  0  0  0  0  0  0  0  0  # atno 8010 bound_to 7997
  139.5648  144.1781  152.1296 H   0  0  0  0  0  0  0  0  0  0  0  0  # atno 10167 bound_to 10162
  156.5612  130.8647  151.2810 H   0  0  0  0  0  0  0  0  0  0  0  0  # atno 10718 bound_to 10713
  153.1612  135.4564  154.9774 H   0  0  0  0  0  0  0  0  0  0  0  0  # atno 10763 bound_to 10752
  154.7899  135.3217  154.7804 H   0  0  0  0  0  0  0  0  0  0  0  0  # atno 10764 bound_to 10752
  153.8294  135.6940  153.4871 H   0  0  0  0  0  0  0  0  0  0  0  0  # atno 10765 bound_to 10752
  140.9455  133.7252  156.1140 H   0  0  0  0  0  0  0  0  0  0  0  0  # atno 11005 bound_to 11000
  144.6961  139.8982  143.7457 LP  0  0  0  0  0  0  0  0  0  0  0  0  # atno 17320 bound_to 7965
  146.0774  139.3762  143.0485 LP  0  0  0  0  0  0  0  0  0  0  0  0  # atno 17321 bound_to 7965
  140.1302  144.5295  150.6807 LP  0  0  0  0  0  0  0  0  0  0  0  0  # atno 17342 bound_to 10162
  140.6931  143.2387  151.5076 LP  0  0  0  0  0  0  0  0  0  0  0  0  # atno 17343 bound_to 10162
  157.7368  130.9785  150.2157 LP  0  0  0  0  0  0  0  0  0  0  0  0  # atno 17370 bound_to 10713
  156.2798  130.3732  149.7947 LP  0  0  0  0  0  0  0  0  0  0  0  0  # atno 17371 bound_to 10713
  140.7675  134.3870  157.5514 LP  0  0  0  0  0  0  0  0  0  0  0  0  # atno 17394 bound_to 11000
  139.8832  134.9001  156.2780 LP  0  0  0  0  0  0  0  0  0  0  0  0  # atno 17395 bound_to 11000

$$$$
