AV-unprocessed.smi:1075|AV-procd|sdf|4693|dock5
  -GOLD-   22720 3213D 1   1.00000     0.00000
 Structure written by MMmdl.
 50 51  0  0  0  0  0  0  0  0  1 V2000
  150.2369  137.3349  158.0387 C   0  0  0  0  0  0  0  0  0  0  0  0
  150.0066  136.1058  157.2064 C   0  0  0  0  0  0  0  0  0  0  0  0
  149.8012  134.9469  157.8081 N   0  0  0  0  0  0  0  0  0  0  0  0
  149.6429  134.0622  156.8045 N   0  0  0  0  0  0  0  0  0  0  0  0
  149.3975  132.6682  157.1200 C   0  0  0  0  0  0  0  0  0  0  0  0
  149.7524  134.6619  155.5648 C   0  0  0  0  0  0  0  0  0  0  0  0
  149.6270  133.8760  154.2976 C   0  0  0  0  0  0  0  0  0  0  0  0
  149.9838  135.9970  155.7842 C   0  0  0  0  0  0  0  0  0  0  0  0
  150.1911  137.1250  154.7903 C   0  0  2  0  0  0  0  0  0  0  0  0
  151.5102  137.8746  155.0574 C   0  0  0  0  0  0  0  0  0  0  0  0
  148.9630  138.0547  154.7581 C   0  0  0  0  0  0  0  0  0  0  0  0
  148.6230  138.6753  155.7655 O   0  0  0  0  0  0  0  0  0  0  0  0
  148.3188  138.1453  153.5796 N   0  0  0  0  0  0  0  0  0  0  0  0
  147.1268  138.9297  153.2327 C   0  0  1  0  0  0  0  0  0  0  0  0
  147.3141  140.3977  153.6735 C   0  0  0  0  0  0  0  0  0  0  0  0
  146.8211  138.8503  151.7144 C   0  0  0  0  0  0  0  0  0  0  0  0
  146.4840  137.4217  151.2491 C   0  0  0  0  0  0  0  0  0  0  0  0
  145.3018  136.8338  152.0411 C   0  0  1  0  0  0  0  0  0  0  0  0
  144.9764  135.4040  151.5872 C   0  0  0  0  0  0  0  0  0  0  0  0
  145.5835  136.8947  153.5534 C   0  0  0  0  0  0  0  0  0  0  0  0
  145.9323  138.3247  154.0082 C   0  0  0  0  0  0  0  0  0  0  0  0
  151.2034  137.7836  157.8080 H   0  0  0  0  0  0  0  0  0  0  0  0
  150.2226  137.1111  159.1061 H   0  0  0  0  0  0  0  0  0  0  0  0
  149.4679  138.0836  157.8472 H   0  0  0  0  0  0  0  0  0  0  0  0
  148.5117  132.3221  156.5873 H   0  0  0  0  0  0  0  0  0  0  0  0
  149.2358  132.5373  158.1909 H   0  0  0  0  0  0  0  0  0  0  0  0
  150.2548  132.0679  156.8149 H   0  0  0  0  0  0  0  0  0  0  0  0
  149.9913  134.4391  153.4394 H   0  0  0  0  0  0  0  0  0  0  0  0
  148.5861  133.6128  154.1094 H   0  0  0  0  0  0  0  0  0  0  0  0
  150.2061  132.9539  154.3506 H   0  0  0  0  0  0  0  0  0  0  0  0
  150.2660  136.7156  153.7824 H   0  0  0  0  0  0  0  0  0  0  0  0
  151.5180  138.3525  156.0371 H   0  0  0  0  0  0  0  0  0  0  0  0
  151.6881  138.6481  154.3096 H   0  0  0  0  0  0  0  0  0  0  0  0
  152.3574  137.1893  155.0191 H   0  0  0  0  0  0  0  0  0  0  0  0
  148.6977  137.5890  152.8267 H   0  0  0  0  0  0  0  0  0  0  0  0
  146.3994  140.9726  153.5260 H   0  0  0  0  0  0  0  0  0  0  0  0
  148.0983  140.9002  153.1078 H   0  0  0  0  0  0  0  0  0  0  0  0
  147.5752  140.4642  154.7304 H   0  0  0  0  0  0  0  0  0  0  0  0
  145.9752  139.4996  151.4843 H   0  0  0  0  0  0  0  0  0  0  0  0
  147.6535  139.2384  151.1276 H   0  0  0  0  0  0  0  0  0  0  0  0
  146.2463  137.4347  150.1848 H   0  0  0  0  0  0  0  0  0  0  0  0
  147.3600  136.7807  151.3567 H   0  0  0  0  0  0  0  0  0  0  0  0
  144.4244  137.4502  151.8393 H   0  0  0  0  0  0  0  0  0  0  0  0
  145.8159  134.7309  151.7644 H   0  0  0  0  0  0  0  0  0  0  0  0
  144.7444  135.3738  150.5223 H   0  0  0  0  0  0  0  0  0  0  0  0
  144.1132  135.0088  152.1236 H   0  0  0  0  0  0  0  0  0  0  0  0
  144.7124  136.5420  154.1066 H   0  0  0  0  0  0  0  0  0  0  0  0
  146.3984  136.2151  153.8071 H   0  0  0  0  0  0  0  0  0  0  0  0
  146.1406  138.3243  155.0792 H   0  0  0  0  0  0  0  0  0  0  0  0
  145.0526  138.9562  153.8751 H   0  0  0  0  0  0  0  0  0  0  0  0
  1  2  1  0  0  0  0
  1 22  1  0  0  0  0
  1 23  1  0  0  0  0
  1 24  1  0  0  0  0
  2  8  1  0  0  0  0
  2  3  2  0  0  0  0
  3  4  1  0  0  0  0
  4  5  1  0  0  0  0
  4  6  1  0  0  0  0
  5 25  1  0  0  0  0
  5 26  1  0  0  0  0
  5 27  1  0  0  0  0
  6  7  1  0  0  0  0
  6  8  2  0  0  0  0
  7 28  1  0  0  0  0
  7 29  1  0  0  0  0
  7 30  1  0  0  0  0
  8  9  1  0  0  0  0
  9 10  1  0  0  0  0
  9 11  1  0  0  0  0
  9 31  1  0  0  0  0
 10 32  1  0  0  0  0
 10 33  1  0  0  0  0
 10 34  1  0  0  0  0
 11 12  2  0  0  0  0
 11 13  1  0  0  0  0
 13 14  1  0  0  0  0
 13 35  1  0  0  0  0
 14 21  1  0  0  0  0
 14 15  1  0  0  0  0
 14 16  1  0  0  0  0
 15 36  1  0  0  0  0
 15 37  1  0  0  0  0
 15 38  1  0  0  0  0
 16 17  1  0  0  0  0
 16 39  1  0  0  0  0
 16 40  1  0  0  0  0
 17 18  1  0  0  0  0
 17 41  1  0  0  0  0
 17 42  1  0  0  0  0
 18 19  1  0  0  0  0
 18 20  1  0  0  0  0
 18 43  1  0  0  0  0
 19 44  1  0  0  0  0
 19 45  1  0  0  0  0
 19 46  1  0  0  0  0
 20 21  1  0  0  0  0
 20 47  1  0  0  0  0
 20 48  1  0  0  0  0
 21 49  1  0  0  0  0
 21 50  1  0  0  0  0
M  END
> <s_m_source_file>
AV-unprocessed.smi

> <i_m_source_file_index>
1075

> <i_lp_mmshare_version>
43012

> <i_f3d_flags>
0

> <s_epik_input>
W0NIM11jMW5uKFtDSDNdKWMoW0NIM10pYzFbQ0BIXShbQ0gzXSlDKD1PKVtOSF1bQ0BAXTIoW0NIM10pW0NIMl1bQ0gyXVtDQEBIXShbQ0gzXSlbQ0gyXVtDSDJdMg==

> <s_epik_cmdline>
J2VwaWtfcHl0aG9uJywgJy1waCcsICc3LjAnLCAnLXRuJywgJzgnLCAnLW1hJywgJzIwMCcsICctbWV0YWxfYmluZGluZycsICctaW1hZScsICc8aW5maWxlLm1hZT4nLCAnLW9tYWUnLCAnPG91dGZpbGUubWFlPic=

> <r_lp_tautomer_probability>
1

> <r_epik_Ionization_Penalty>
0.00502928

> <r_epik_Ionization_Penalty_Charging>
0

> <r_epik_Ionization_Penalty_Neutral>
0.00502928

> <r_epik_State_Penalty>
0.0036576

> <r_epik_Charging_Adjusted_Penalty>
0.0036576

> <i_epik_Tot_Q>
0

> <i_epik_Tot_abs_Q>
0

> <r_epik_Metal_State_Penalty>
-0

> <b_epik_Metal_Only>
0

> <s_lp_Force_Field>
OPLS_2005

> <r_lp_Energy>
4.57547

> <b_lp_Chiralities_Consistent>
1

> <s_lp_Variant>
AV-unprocessed.smi:1075-1

> <Gold.Version>
5.8.1

> <Gold.Id.Protein>
6NUR|6NUR_protein|mol2

> <Gold.PLP.Fitness>
34.3553

> <Gold.PLP.PLP>
-29.1698

> <Gold.PLP.part.hbond>
-2.1722

> <Gold.PLP.part.metal>
0.0000

> <Gold.PLP.part.buried>
1.7677

> <Gold.PLP.part.nonpolar>
-29.5381

> <Gold.PLP.part.repulsive>
0.0506

> <Gold.PLP.ligand.clash>
0.0000

> <Gold.PLP.ligand.torsion>
0.2719

> <Gold.PLP.Chemscore.Hbond>
1.8800

> <Gold.PLP.Chemscore.CHOScore>
0.0000

> <Gold.PLP.Chemscore.Metal>
0.0000

> <Gold.Chemscore.Hbonds>
donor molecule, donor type, donor heavy atom, donor atom, acceptor molecule, acceptor atom, score
      L1  H    13    35       P1  7948  1.00
      P1  H  6896  6909       L1     3  0.96

> <Gold.PLP.Chemscore.Internal.Correction>
0.0893

> <Gold.Rescore>
     Score         DG    S(hbond)    S(metal)    S(lipo)     H(rot)  DE(clash)    DE(int)     intcor
     17.28     -17.80       1.89        0.00      78.32       1.23       0.32       0.20       ----

> <Gold.Chemscore.Fitness>
17.2809

> <Gold.Chemscore.DG>
-17.8031

> <Gold.Chemscore.ZeroCoef>
-5.4800

> <Gold.Chemscore.Hbond>
1.8904

> <Gold.Chemscore.Metal>
0.0000

> <Gold.Chemscore.Lipo>
78.3187

> <Gold.Chemscore.Internal_Hbond>
0.0000

> <Gold.Chemscore.DEClash>
0.3223

> <Gold.Chemscore.DEInternal>
0.1999

> <Gold.Chemscore.Rot>
1.2321

> <Gold.Chemscore.Internal.Correction>
   9.000000E+99

> <Gold.Chemscore.Hbonds>
donor molecule, donor type, donor heavy atom, donor atom, acceptor molecule, acceptor atom, score
      L1  H    13    35       P1  7948  0.99
      P1  H  6896  6909       L1     3  0.85

> <Gold.Chemscore.Hbond.Weighted>
-6.3139

> <Gold.Chemscore.Metal.Weighted>
-0.0000

> <Gold.Chemscore.Lipo.Weighted>
-9.1633

> <Gold.Chemscore.Internal_Hbond.Weighted>
0.0000

> <Gold.Chemscore.DEClash.Weighted>
0.3223

> <Gold.Chemscore.DEInternal.Weighted>
0.1999

> <Gold.Chemscore.Rot.Weighted>
3.1541

> <Gold.Chemscore.Internal.Correction.Weighted>
   9.000000E+99

> <Gold.Protein.RotatedTorsions>
[ 6907 6896 6895 6894 ] final   30.14 input  -60.11 | X-H torsion
[ 7974 7965 7964 7962 ] final  153.58 input  175.53 | X-H torsion
[ 8008 7997 7996 7995 ] final -164.98 input   59.86 | X-H torsion
[ 10167 10162 10161 10158 ] final -158.43 input  -65.29 | X-H torsion
[ 10718 10713 10712 10709 ] final  -37.48 input   66.30 | X-H torsion
[ 10763 10752 10751 10750 ] final -156.46 input  -60.55 | X-H torsion
[ 11005 11000 10999 10996 ] final -132.95 input  -57.11 | X-H torsion

> <Gold.Protein.ActiveResidues>
 VAL166  LYS551  ARG553  GLY616  TRP617  ASP618  TYR619  PRO620  LYS621  CYS622 
 ASP623  PHE694  ASN695  SER759  ASP760  ASP761  ALA762  ILE779  LEU786  VAL792 
 PHE793  MET794  SER795  GLU796  ALA797  LYS798  CYS799  TRP800  GLU811  SER814 

> <Gold.Protein.RotatedAtoms>
  152.0417  134.9707  160.0573 H   0  0  0  0  0  0  0  0  0  0  0  0  # atno 6907 bound_to 6896
  152.1143  133.4313  159.4654 H   0  0  0  0  0  0  0  0  0  0  0  0  # atno 6908 bound_to 6896
  150.6845  134.2530  159.4561 H   0  0  0  0  0  0  0  0  0  0  0  0  # atno 6909 bound_to 6896
  144.8145  139.6820  143.6127 H   0  0  0  0  0  0  0  0  0  0  0  0  # atno 7974 bound_to 7965
  155.8434  140.0952  157.1720 H   0  0  0  0  0  0  0  0  0  0  0  0  # atno 8008 bound_to 7997
  154.3982  140.1397  156.3817 H   0  0  0  0  0  0  0  0  0  0  0  0  # atno 8009 bound_to 7997
  155.8040  140.3452  155.5421 H   0  0  0  0  0  0  0  0  0  0  0  0  # atno 8010 bound_to 7997
  139.6693  143.9773  152.2274 H   0  0  0  0  0  0  0  0  0  0  0  0  # atno 10167 bound_to 10162
  156.3148  130.4257  149.8016 H   0  0  0  0  0  0  0  0  0  0  0  0  # atno 10718 bound_to 10713
  154.7711  135.3145  154.8187 H   0  0  0  0  0  0  0  0  0  0  0  0  # atno 10763 bound_to 10752
  153.8922  135.6824  153.4764 H   0  0  0  0  0  0  0  0  0  0  0  0  # atno 10764 bound_to 10752
  153.1325  135.4774  154.9306 H   0  0  0  0  0  0  0  0  0  0  0  0  # atno 10765 bound_to 10752
  140.9124  134.1550  157.4378 H   0  0  0  0  0  0  0  0  0  0  0  0  # atno 11005 bound_to 11000
  146.2447  139.6073  142.9468 LP  0  0  0  0  0  0  0  0  0  0  0  0  # atno 17320 bound_to 7965
  145.5247  141.0430  143.2416 LP  0  0  0  0  0  0  0  0  0  0  0  0  # atno 17321 bound_to 7965
  139.9533  144.6606  150.8150 LP  0  0  0  0  0  0  0  0  0  0  0  0  # atno 17342 bound_to 10162
  140.7612  143.3168  151.2714 LP  0  0  0  0  0  0  0  0  0  0  0  0  # atno 17343 bound_to 10162
  156.5346  130.8273  151.3249 LP  0  0  0  0  0  0  0  0  0  0  0  0  # atno 17370 bound_to 10713
  157.7399  130.9840  150.2343 LP  0  0  0  0  0  0  0  0  0  0  0  0  # atno 17371 bound_to 10713
  139.8760  134.9941  156.5676 LP  0  0  0  0  0  0  0  0  0  0  0  0  # atno 17394 bound_to 11000
  140.8093  133.8442  155.8795 LP  0  0  0  0  0  0  0  0  0  0  0  0  # atno 17395 bound_to 11000

$$$$
