AV-unprocessed.smi:164|AV-procd|sdf|1382|dock3
  -GOLD-   2262019113D 1   1.00000     0.00000
 Structure written by MMmdl.
 53 55  0  0  0  0  0  0  0  0  1 V2000
  153.9181  142.1204  161.3333 C   0  0  0  0  0  0  0  0  0  0  0  0
  152.9347  142.0449  160.1778 C   0  0  0  0  0  0  0  0  0  0  0  0
  152.1356  143.1693  159.8872 C   0  0  0  0  0  0  0  0  0  0  0  0
  151.2166  143.1346  158.8238 C   0  0  0  0  0  0  0  0  0  0  0  0
  151.0912  141.9759  158.0332 C   0  0  0  0  0  0  0  0  0  0  0  0
  150.0912  141.9564  156.8917 C   0  0  0  0  0  0  0  0  0  0  0  0
  151.8984  140.8476  158.3078 C   0  0  0  0  0  0  0  0  0  0  0  0
  151.7803  139.7243  157.5304 O   0  0  0  0  0  0  0  0  0  0  0  0
  152.1803  139.9230  156.1822 C   0  0  0  0  0  0  0  0  0  0  0  0
  152.7971  138.6204  155.6475 C   0  0  2  0  0  0  0  0  0  0  0  0
  154.1494  138.8994  155.3428 O   0  0  0  0  0  0  0  0  0  0  0  0
  152.1003  138.1442  154.3528 C   0  0  0  0  0  0  0  0  0  0  0  0
  150.7046  137.7869  154.5512 N   0  0  0  0  0  0  0  0  0  0  0  0
  149.7404  138.8179  154.4377 C   0  0  0  0  0  0  0  0  0  0  0  0
  150.0502  139.9765  154.1539 O   0  0  0  0  0  0  0  0  0  0  0  0
  148.3711  138.3964  154.7080 C   0  0  0  0  0  0  0  0  0  0  0  0
  147.3779  139.3003  154.6658 F   0  0  0  0  0  0  0  0  0  0  0  0
  148.0842  137.1148  155.0224 C   0  0  0  0  0  0  0  0  0  0  0  0
  149.0437  136.1149  155.0945 N   0  0  0  0  0  0  0  0  0  0  0  0
  148.7200  134.6954  155.5368 C   0  0  2  0  0  0  0  0  0  0  0  0
  149.1402  133.6091  154.5376 C   0  0  0  0  0  0  0  0  0  0  0  0
  147.8551  133.3293  153.7622 C   0  0  0  0  0  0  0  0  0  0  0  0
  146.8115  134.2632  154.3840 C   0  0  0  0  0  0  0  0  0  0  0  0
  147.3390  134.5781  155.6652 O   0  0  0  0  0  0  0  0  0  0  0  0
  150.4035  136.4500  154.9030 C   0  0  0  0  0  0  0  0  0  0  0  0
  151.2881  135.6028  155.0471 O   0  0  0  0  0  0  0  0  0  0  0  0
  152.8103  140.8711  159.3928 C   0  0  0  0  0  0  0  0  0  0  0  0
  153.6549  139.6426  159.7046 C   0  0  0  0  0  0  0  0  0  0  0  0
  154.0012  143.1373  161.7180 H   0  0  0  0  0  0  0  0  0  0  0  0
  154.9121  141.8040  161.0162 H   0  0  0  0  0  0  0  0  0  0  0  0
  153.5929  141.4774  162.1514 H   0  0  0  0  0  0  0  0  0  0  0  0
  152.2217  144.0668  160.4822 H   0  0  0  0  0  0  0  0  0  0  0  0
  150.6090  144.0033  158.6161 H   0  0  0  0  0  0  0  0  0  0  0  0
  149.6116  140.9808  156.8082 H   0  0  0  0  0  0  0  0  0  0  0  0
  150.5912  142.1767  155.9484 H   0  0  0  0  0  0  0  0  0  0  0  0
  149.3085  142.7001  157.0439 H   0  0  0  0  0  0  0  0  0  0  0  0
  151.2891  140.1748  155.6066 H   0  0  0  0  0  0  0  0  0  0  0  0
  152.8719  140.7615  156.0767 H   0  0  0  0  0  0  0  0  0  0  0  0
  152.7395  137.8492  156.4165 H   0  0  0  0  0  0  0  0  0  0  0  0
  154.6650  138.1304  155.5329 H   0  0  0  0  0  0  0  0  0  0  0  0
  152.1054  138.9248  153.5900 H   0  0  0  0  0  0  0  0  0  0  0  0
  152.6185  137.3091  153.8784 H   0  0  0  0  0  0  0  0  0  0  0  0
  147.0524  136.8876  155.2390 H   0  0  0  0  0  0  0  0  0  0  0  0
  149.2251  134.5684  156.4958 H   0  0  0  0  0  0  0  0  0  0  0  0
  149.9960  133.9014  153.9296 H   0  0  0  0  0  0  0  0  0  0  0  0
  149.4267  132.7210  155.1023 H   0  0  0  0  0  0  0  0  0  0  0  0
  147.9679  133.5114  152.6930 H   0  0  0  0  0  0  0  0  0  0  0  0
  147.5611  132.2872  153.8923 H   0  0  0  0  0  0  0  0  0  0  0  0
  146.7044  135.1751  153.7951 H   0  0  0  0  0  0  0  0  0  0  0  0
  145.8285  133.7988  154.4634 H   0  0  0  0  0  0  0  0  0  0  0  0
  153.2437  138.7382  159.2568 H   0  0  0  0  0  0  0  0  0  0  0  0
  153.7106  139.4651  160.7784 H   0  0  0  0  0  0  0  0  0  0  0  0
  154.6676  139.7771  159.3241 H   0  0  0  0  0  0  0  0  0  0  0  0
  1  2  1  0  0  0  0
  1 29  1  0  0  0  0
  1 30  1  0  0  0  0
  1 31  1  0  0  0  0
  2 27  1  0  0  0  0
  2  3  2  0  0  0  0
  3  4  1  0  0  0  0
  3 32  1  0  0  0  0
  4  5  2  0  0  0  0
  4 33  1  0  0  0  0
  5  6  1  0  0  0  0
  5  7  1  0  0  0  0
  6 34  1  0  0  0  0
  6 35  1  0  0  0  0
  6 36  1  0  0  0  0
  7  8  1  0  0  0  0
  7 27  2  0  0  0  0
  8  9  1  0  0  0  0
  9 10  1  0  0  0  0
  9 37  1  0  0  0  0
  9 38  1  0  0  0  0
 10 11  1  0  0  0  0
 10 12  1  0  0  0  0
 10 39  1  0  0  0  0
 11 40  1  0  0  0  0
 12 13  1  0  0  0  0
 12 41  1  0  0  0  0
 12 42  1  0  0  0  0
 13 25  1  0  0  0  0
 13 14  1  0  0  0  0
 14 15  2  0  0  0  0
 14 16  1  0  0  0  0
 16 17  1  0  0  0  0
 16 18  2  0  0  0  0
 18 19  1  0  0  0  0
 18 43  1  0  0  0  0
 19 20  1  0  0  0  0
 19 25  1  0  0  0  0
 20 24  1  0  0  0  0
 20 21  1  0  0  0  0
 20 44  1  0  0  0  0
 21 22  1  0  0  0  0
 21 45  1  0  0  0  0
 21 46  1  0  0  0  0
 22 23  1  0  0  0  0
 22 47  1  0  0  0  0
 22 48  1  0  0  0  0
 23 24  1  0  0  0  0
 23 49  1  0  0  0  0
 23 50  1  0  0  0  0
 25 26  2  0  0  0  0
 27 28  1  0  0  0  0
 28 51  1  0  0  0  0
 28 52  1  0  0  0  0
 28 53  1  0  0  0  0
M  END
> <s_m_source_file>
AV-unprocessed.smi

> <i_m_source_file_index>
164

> <i_lp_mmshare_version>
43012

> <i_f3d_flags>
0

> <s_epik_input>
W0NIM11jMVtjSF1bY0hdYyhbQ0gzXSljKGMxW0NIM10pT1tDSDJdW0NASF0oW09IXSlbQ0gyXW4yYyg9TyljKEYpW2NIXW4oYzI9TylbQ0BASF0zW0NIMl1bQ0gyXVtDSDJdTzM=

> <s_epik_cmdline>
J2VwaWtfcHl0aG9uJywgJy1waCcsICc3LjAnLCAnLXRuJywgJzgnLCAnLW1hJywgJzIwMCcsICctbWV0YWxfYmluZGluZycsICctaW1hZScsICc8aW5maWxlLm1hZT4nLCAnLW9tYWUnLCAnPG91dGZpbGUubWFlPic=

> <r_lp_tautomer_probability>
1

> <r_epik_Ionization_Penalty>
1.45842e-07

> <r_epik_Ionization_Penalty_Charging>
2.86622e-08

> <r_epik_Ionization_Penalty_Neutral>
1.1718e-07

> <r_epik_State_Penalty>
-0

> <r_epik_Charging_Adjusted_Penalty>
2.86622e-08

> <i_epik_Tot_Q>
0

> <i_epik_Tot_abs_Q>
0

> <r_epik_Metal_State_Penalty>
-0

> <b_epik_Metal_Only>
0

> <s_epik_Chemistry_Notes>
This compound contains an acetal/aminal-like group ( X-CH(R)-Y where X, Y are N, S, or O) that may be acid/base labile, releasing an aldehyde.

> <s_lp_Force_Field>
OPLS_2005

> <r_lp_Energy>
44.8383

> <b_lp_Chiralities_Consistent>
1

> <s_lp_Variant>
AV-unprocessed.smi:164-1

> <Gold.Version>
5.8.1

> <Gold.Id.Protein>
6NUR|6NUR_protein|mol2

> <Gold.PLP.Fitness>
51.5786

> <Gold.PLP.PLP>
-46.6170

> <Gold.PLP.part.hbond>
-2.0322

> <Gold.PLP.part.metal>
0.0000

> <Gold.PLP.part.buried>
-3.8640

> <Gold.PLP.part.nonpolar>
-41.8764

> <Gold.PLP.part.repulsive>
1.1466

> <Gold.PLP.ligand.clash>
0.0000

> <Gold.PLP.ligand.torsion>
1.4018

> <Gold.PLP.Chemscore.Hbond>
2.4680

> <Gold.PLP.Chemscore.CHOScore>
0.0000

> <Gold.PLP.Chemscore.Metal>
0.0000

> <Gold.Chemscore.Hbonds>
donor molecule, donor type, donor heavy atom, donor atom, acceptor molecule, acceptor atom, score
      P1  H  7989  7998       L1    15  0.99
      P1  H  7997  8010       L1    11  0.45
      P1  H 10752 10765       L1    26  1.00

> <Gold.PLP.Chemscore.Internal.Correction>
0.3611

> <Gold.Rescore>
     Score         DG    S(hbond)    S(metal)    S(lipo)     H(rot)  DE(clash)    DE(int)     intcor
     15.59     -19.92       2.30        0.00     117.69       2.73       1.28       3.05       ----

> <Gold.Chemscore.Fitness>
15.5948

> <Gold.Chemscore.DG>
-19.9246

> <Gold.Chemscore.ZeroCoef>
-5.4800

> <Gold.Chemscore.Hbond>
2.2956

> <Gold.Chemscore.Metal>
0.0000

> <Gold.Chemscore.Lipo>
117.6914

> <Gold.Chemscore.Internal_Hbond>
0.0000

> <Gold.Chemscore.DEClash>
1.2781

> <Gold.Chemscore.DEInternal>
3.0517

> <Gold.Chemscore.Rot>
2.7315

> <Gold.Chemscore.Internal.Correction>
   9.000000E+99

> <Gold.Chemscore.Hbonds>
donor molecule, donor type, donor heavy atom, donor atom, acceptor molecule, acceptor atom, score
      P1  H  7989  7998       L1    15  0.94
      P1  H  7997  8010       L1    11  0.38
      P1  H 10752 10765       L1    26  0.99

> <Gold.Chemscore.Hbond.Weighted>
-7.6673

> <Gold.Chemscore.Metal.Weighted>
-0.0000

> <Gold.Chemscore.Lipo.Weighted>
-13.7699

> <Gold.Chemscore.Internal_Hbond.Weighted>
0.0000

> <Gold.Chemscore.DEClash.Weighted>
1.2781

> <Gold.Chemscore.DEInternal.Weighted>
3.0517

> <Gold.Chemscore.Rot.Weighted>
6.9925

> <Gold.Chemscore.Internal.Correction.Weighted>
   9.000000E+99

> <Gold.Protein.RotatedTorsions>
[ 6907 6896 6895 6894 ] final  140.12 input  -60.11 | X-H torsion
[ 7974 7965 7964 7962 ] final  166.57 input  175.53 | X-H torsion
[ 8008 7997 7996 7995 ] final  114.39 input   59.86 | X-H torsion
[ 10167 10162 10161 10158 ] final   14.82 input  -65.29 | X-H torsion
[ 10718 10713 10712 10709 ] final  -83.67 input   66.30 | X-H torsion
[ 10763 10752 10751 10750 ] final -174.86 input  -60.55 | X-H torsion
[ 11005 11000 10999 10996 ] final -122.27 input  -57.11 | X-H torsion

> <Gold.Protein.ActiveResidues>
 VAL166  LYS551  ARG553  GLY616  TRP617  ASP618  TYR619  PRO620  LYS621  CYS622 
 ASP623  PHE694  ASN695  SER759  ASP760  ASP761  ALA762  ILE779  LEU786  VAL792 
 PHE793  MET794  SER795  GLU796  ALA797  LYS798  CYS799  TRP800  GLU811  SER814 

> <Gold.Protein.RotatedAtoms>
  152.2468  133.5181  159.5301 H   0  0  0  0  0  0  0  0  0  0  0  0  # atno 6907 bound_to 6896
  150.7081  134.1014  159.3976 H   0  0  0  0  0  0  0  0  0  0  0  0  # atno 6908 bound_to 6896
  151.8934  135.0407  160.0550 H   0  0  0  0  0  0  0  0  0  0  0  0  # atno 6909 bound_to 6896
  144.7457  139.8634  143.6383 H   0  0  0  0  0  0  0  0  0  0  0  0  # atno 7974 bound_to 7965
  156.2318  140.2960  156.0208 H   0  0  0  0  0  0  0  0  0  0  0  0  # atno 8008 bound_to 7997
  155.2203  140.0415  157.2964 H   0  0  0  0  0  0  0  0  0  0  0  0  # atno 8009 bound_to 7997
  154.6009  140.2426  155.7801 H   0  0  0  0  0  0  0  0  0  0  0  0  # atno 8010 bound_to 7997
  140.5909  143.8797  150.6873 H   0  0  0  0  0  0  0  0  0  0  0  0  # atno 10167 bound_to 10162
  156.0015  130.4673  150.4293 H   0  0  0  0  0  0  0  0  0  0  0  0  # atno 10718 bound_to 10713
  154.5913  135.2845  155.0633 H   0  0  0  0  0  0  0  0  0  0  0  0  # atno 10763 bound_to 10752
  154.1932  135.6437  153.5069 H   0  0  0  0  0  0  0  0  0  0  0  0  # atno 10764 bound_to 10752
  153.0122  135.5451  154.6599 H   0  0  0  0  0  0  0  0  0  0  0  0  # atno 10765 bound_to 10752
  141.0008  134.0406  157.3540 H   0  0  0  0  0  0  0  0  0  0  0  0  # atno 11005 bound_to 11000
  146.1332  139.4371  143.0156 LP  0  0  0  0  0  0  0  0  0  0  0  0  # atno 17320 bound_to 7965
  145.7132  141.0099  143.1442 LP  0  0  0  0  0  0  0  0  0  0  0  0  # atno 17321 bound_to 7965
  140.2319  143.3729  152.1558 LP  0  0  0  0  0  0  0  0  0  0  0  0  # atno 17342 bound_to 10162
  139.5227  144.7062  151.5346 LP  0  0  0  0  0  0  0  0  0  0  0  0  # atno 17343 bound_to 10162
  157.2343  131.0511  151.2474 LP  0  0  0  0  0  0  0  0  0  0  0  0  # atno 17370 bound_to 10713
  157.3681  130.7167  149.6546 LP  0  0  0  0  0  0  0  0  0  0  0  0  # atno 17371 bound_to 10713
  139.9037  135.0173  156.7390 LP  0  0  0  0  0  0  0  0  0  0  0  0  # atno 17394 bound_to 11000
  140.6893  133.9405  155.7956 LP  0  0  0  0  0  0  0  0  0  0  0  0  # atno 17395 bound_to 11000

$$$$
