AV-unprocessed.smi:1433|AV-procd|sdf|5837|dock5
  -GOLD-   22720 5503D 1   1.00000     0.00000
 Structure written by MMmdl.
 44 45  0  0  0  0  0  0  0  0  1 V2000
  149.2293  141.4488  156.2490 C   0  0  0  0  0  0  0  0  0  0  0  0
  149.4610  141.2004  154.7485 C   0  0  2  0  0  0  0  0  0  0  0  0
  148.1811  140.7930  153.9916 C   0  0  0  0  0  0  0  0  0  0  0  0
  147.7478  139.4171  154.2615 N   0  0  0  0  0  0  0  0  0  0  0  0
  146.5351  139.0387  153.4979 C   0  0  1  0  0  0  0  0  0  0  0  0
  146.7912  138.9509  151.9705 C   0  0  0  0  0  0  0  0  0  0  0  0
  145.8990  137.7036  153.9749 C   0  0  0  0  0  0  0  0  0  0  0  0
  146.4572  136.5498  153.2808 N   0  0  0  0  0  0  0  0  0  0  0  0
  145.9212  135.3208  153.2750 C   0  0  0  0  0  0  0  0  0  0  0  0
  144.8593  135.0398  153.8304 O   0  0  0  0  0  0  0  0  0  0  0  0
  146.7061  134.2409  152.5282 C   0  0  0  0  0  0  0  0  0  0  0  0
  145.8791  133.5885  151.5278 N   0  0  0  0  0  0  0  0  0  0  0  0
  146.2052  132.5288  150.7072 C   0  0  0  0  0  0  0  0  0  0  0  0
  145.1169  132.2715  149.9239 C   0  0  0  0  0  0  0  0  0  0  0  0
  144.1616  133.2395  150.3429 C   0  0  0  0  0  0  0  0  0  0  0  0
  144.6198  134.0258  151.3035 N   0  0  0  0  0  0  0  0  0  0  0  0
  148.8814  138.5269  153.9937 C   0  0  0  0  0  0  0  0  0  0  0  0
  150.1404  138.9004  154.7965 C   0  0  1  0  0  0  0  0  0  0  0  0
  151.3361  138.0114  154.4382 C   0  0  0  0  0  0  0  0  0  0  0  0
  150.4984  140.2499  154.5199 O   0  0  0  0  0  0  0  0  0  0  0  0
  148.5234  142.2655  156.4013 H   0  0  0  0  0  0  0  0  0  0  0  0
  150.1605  141.7209  156.7464 H   0  0  0  0  0  0  0  0  0  0  0  0
  148.8238  140.5719  156.7532 H   0  0  0  0  0  0  0  0  0  0  0  0
  149.8128  142.1412  154.3244 H   0  0  0  0  0  0  0  0  0  0  0  0
  147.4081  141.5070  154.2676 H   0  0  0  0  0  0  0  0  0  0  0  0
  148.3504  140.9140  152.9205 H   0  0  0  0  0  0  0  0  0  0  0  0
  145.7868  139.8183  153.6501 H   0  0  0  0  0  0  0  0  0  0  0  0
  145.9157  138.6149  151.4156 H   0  0  0  0  0  0  0  0  0  0  0  0
  147.6034  138.2585  151.7468 H   0  0  0  0  0  0  0  0  0  0  0  0
  147.0429  139.9177  151.5371 H   0  0  0  0  0  0  0  0  0  0  0  0
  146.0326  137.5948  155.0528 H   0  0  0  0  0  0  0  0  0  0  0  0
  144.8287  137.6713  153.7785 H   0  0  0  0  0  0  0  0  0  0  0  0
  147.3336  136.6867  152.7975 H   0  0  0  0  0  0  0  0  0  0  0  0
  147.5716  134.6827  152.0327 H   0  0  0  0  0  0  0  0  0  0  0  0
  147.0824  133.4982  153.2335 H   0  0  0  0  0  0  0  0  0  0  0  0
  147.1749  132.0546  150.7480 H   0  0  0  0  0  0  0  0  0  0  0  0
  145.0184  131.5093  149.1653 H   0  0  0  0  0  0  0  0  0  0  0  0
  143.1560  133.3929  149.9800 H   0  0  0  0  0  0  0  0  0  0  0  0
  148.6335  137.5007  154.2579 H   0  0  0  0  0  0  0  0  0  0  0  0
  149.1106  138.5325  152.9269 H   0  0  0  0  0  0  0  0  0  0  0  0
  149.9390  138.7876  155.8622 H   0  0  0  0  0  0  0  0  0  0  0  0
  151.1211  136.9621  154.6423 H   0  0  0  0  0  0  0  0  0  0  0  0
  152.2158  138.2892  155.0192 H   0  0  0  0  0  0  0  0  0  0  0  0
  151.5927  138.1018  153.3822 H   0  0  0  0  0  0  0  0  0  0  0  0
  1  2  1  0  0  0  0
  1 21  1  0  0  0  0
  1 22  1  0  0  0  0
  1 23  1  0  0  0  0
  2 20  1  0  0  0  0
  2  3  1  0  0  0  0
  2 24  1  0  0  0  0
  3  4  1  0  0  0  0
  3 25  1  0  0  0  0
  3 26  1  0  0  0  0
  4  5  1  0  0  0  0
  4 17  1  0  0  0  0
  5  6  1  0  0  0  0
  5  7  1  0  0  0  0
  5 27  1  0  0  0  0
  6 28  1  0  0  0  0
  6 29  1  0  0  0  0
  6 30  1  0  0  0  0
  7  8  1  0  0  0  0
  7 31  1  0  0  0  0
  7 32  1  0  0  0  0
  8  9  1  0  0  0  0
  8 33  1  0  0  0  0
  9 10  2  0  0  0  0
  9 11  1  0  0  0  0
 11 12  1  0  0  0  0
 11 34  1  0  0  0  0
 11 35  1  0  0  0  0
 12 16  1  0  0  0  0
 12 13  1  0  0  0  0
 13 14  2  0  0  0  0
 13 36  1  0  0  0  0
 14 15  1  0  0  0  0
 14 37  1  0  0  0  0
 15 16  2  0  0  0  0
 15 38  1  0  0  0  0
 17 18  1  0  0  0  0
 17 39  1  0  0  0  0
 17 40  1  0  0  0  0
 18 19  1  0  0  0  0
 18 20  1  0  0  0  0
 18 41  1  0  0  0  0
 19 42  1  0  0  0  0
 19 43  1  0  0  0  0
 19 44  1  0  0  0  0
M  END
> <s_m_source_file>
AV-unprocessed.smi

> <i_m_source_file_index>
1433

> <i_lp_mmshare_version>
43012

> <i_f3d_flags>
0

> <s_epik_input>
W0NIM11bQ0BASF0xW0NIMl1OKFtDSDJdW0NASF0oTzEpW0NIM10pW0NASF0oW0NIM10pW0NIMl1bTkhdQyg9TylbQ0gyXW4yW2NIXVtjSF1bY0hdbjI=

> <s_epik_cmdline>
J2VwaWtfcHl0aG9uJywgJy1waCcsICc3LjAnLCAnLXRuJywgJzgnLCAnLW1hJywgJzIwMCcsICctbWV0YWxfYmluZGluZycsICctaW1hZScsICc8aW5maWxlLm1hZT4nLCAnLW9tYWUnLCAnPG91dGZpbGUubWFlPic=

> <r_lp_tautomer_probability>
1

> <r_epik_Ionization_Penalty>
0.196927

> <r_epik_Ionization_Penalty_Charging>
0

> <r_epik_Ionization_Penalty_Neutral>
0.196927

> <r_epik_State_Penalty>
0.186684

> <r_epik_Charging_Adjusted_Penalty>
0.186684

> <i_epik_Tot_Q>
0

> <i_epik_Tot_abs_Q>
0

> <r_epik_Metal_State_Penalty>
0.186682

> <b_epik_Metal_Only>
0

> <s_lp_Force_Field>
OPLS_2005

> <r_lp_Energy>
30.021

> <b_lp_Chiralities_Consistent>
1

> <s_lp_Variant>
AV-unprocessed.smi:1433-3

> <Gold.Version>
5.8.1

> <Gold.Id.Protein>
6NUR|6NUR_protein|mol2

> <Gold.PLP.Fitness>
44.7973

> <Gold.PLP.PLP>
-33.7607

> <Gold.PLP.part.hbond>
-2.0000

> <Gold.PLP.part.metal>
0.0000

> <Gold.PLP.part.buried>
-0.7487

> <Gold.PLP.part.nonpolar>
-31.3041

> <Gold.PLP.part.repulsive>
0.4282

> <Gold.PLP.ligand.clash>
0.0000

> <Gold.PLP.ligand.torsion>
0.5059

> <Gold.PLP.Chemscore.Hbond>
2.0000

> <Gold.PLP.Chemscore.CHOScore>
2.0000

> <Gold.PLP.Chemscore.Metal>
0.0000

> <Gold.Chemscore.Hbonds>
donor molecule, donor type, donor heavy atom, donor atom, acceptor molecule, acceptor atom, score
      L1  H     8    33       P1  7948  1.00
      P1  H  7989  7998       L1    20  1.00
      L1  C    13    36       P1 10747  1.00
      L1  C    15    38       P1 10186  1.00

> <Gold.PLP.Chemscore.Internal.Correction>
0.0485

> <Gold.Rescore>
     Score         DG    S(hbond)    S(metal)    S(lipo)     H(rot)  DE(clash)    DE(int)     intcor
     15.94     -17.87       1.93        0.00      90.18       1.80       0.29       1.64       ----

> <Gold.Chemscore.Fitness>
15.9391

> <Gold.Chemscore.DG>
-17.8669

> <Gold.Chemscore.ZeroCoef>
-5.4800

> <Gold.Chemscore.Hbond>
1.9323

> <Gold.Chemscore.Metal>
0.0000

> <Gold.Chemscore.Lipo>
90.1766

> <Gold.Chemscore.Internal_Hbond>
0.0000

> <Gold.Chemscore.DEClash>
0.2912

> <Gold.Chemscore.DEInternal>
1.6367

> <Gold.Chemscore.Rot>
1.8038

> <Gold.Chemscore.Internal.Correction>
   9.000000E+99

> <Gold.Chemscore.Hbonds>
donor molecule, donor type, donor heavy atom, donor atom, acceptor molecule, acceptor atom, score
      L1  H     8    33       P1  7948  0.99
      P1  H  7989  7998       L1    20  0.74

> <Gold.Chemscore.Hbond.Weighted>
-6.4540

> <Gold.Chemscore.Metal.Weighted>
-0.0000

> <Gold.Chemscore.Lipo.Weighted>
-10.5507

> <Gold.Chemscore.Internal_Hbond.Weighted>
0.0000

> <Gold.Chemscore.DEClash.Weighted>
0.2912

> <Gold.Chemscore.DEInternal.Weighted>
1.6367

> <Gold.Chemscore.Rot.Weighted>
4.6178

> <Gold.Chemscore.Internal.Correction.Weighted>
   9.000000E+99

> <Gold.Protein.RotatedTorsions>
[ 6907 6896 6895 6894 ] final -156.44 input  -60.11 | X-H torsion
[ 7974 7965 7964 7962 ] final  137.64 input  175.53 | X-H torsion
[ 8008 7997 7996 7995 ] final   98.20 input   59.86 | X-H torsion
[ 10167 10162 10161 10158 ] final   90.64 input  -65.29 | X-H torsion
[ 10718 10713 10712 10709 ] final  -20.68 input   66.30 | X-H torsion
[ 10763 10752 10751 10750 ] final   94.27 input  -60.55 | X-H torsion
[ 11005 11000 10999 10996 ] final    4.61 input  -57.11 | X-H torsion

> <Gold.Protein.ActiveResidues>
 VAL166  LYS551  ARG553  GLY616  TRP617  ASP618  TYR619  PRO620  LYS621  CYS622 
 ASP623  PHE694  ASN695  SER759  ASP760  ASP761  ALA762  ILE779  LEU786  VAL792 
 PHE793  MET794  SER795  GLU796  ALA797  LYS798  CYS799  TRP800  GLU811  SER814 

> <Gold.Protein.RotatedAtoms>
  151.2876  133.4180  159.2630 H   0  0  0  0  0  0  0  0  0  0  0  0  # atno 6907 bound_to 6896
  151.0305  134.9536  159.8119 H   0  0  0  0  0  0  0  0  0  0  0  0  # atno 6908 bound_to 6896
  152.5344  134.2837  159.9069 H   0  0  0  0  0  0  0  0  0  0  0  0  # atno 6909 bound_to 6896
  144.9448  139.4887  143.5554 H   0  0  0  0  0  0  0  0  0  0  0  0  # atno 7974 bound_to 7965
  156.0980  140.3247  155.7904 H   0  0  0  0  0  0  0  0  0  0  0  0  # atno 8008 bound_to 7997
  155.4884  140.0559  157.2974 H   0  0  0  0  0  0  0  0  0  0  0  0  # atno 8009 bound_to 7997
  154.4679  140.1997  156.0086 H   0  0  0  0  0  0  0  0  0  0  0  0  # atno 8010 bound_to 7997
  139.8453  144.6621  150.9234 H   0  0  0  0  0  0  0  0  0  0  0  0  # atno 10167 bound_to 10162
  156.5286  130.4649  149.6559 H   0  0  0  0  0  0  0  0  0  0  0  0  # atno 10718 bound_to 10713
  153.2398  135.4295  155.0685 H   0  0  0  0  0  0  0  0  0  0  0  0  # atno 10763 bound_to 10752
  154.8335  135.3400  154.6666 H   0  0  0  0  0  0  0  0  0  0  0  0  # atno 10764 bound_to 10752
  153.7090  135.7024  153.5099 H   0  0  0  0  0  0  0  0  0  0  0  0  # atno 10765 bound_to 10752
  140.5800  134.0021  155.8044 H   0  0  0  0  0  0  0  0  0  0  0  0  # atno 11005 bound_to 11000
  146.3299  139.8493  142.8876 LP  0  0  0  0  0  0  0  0  0  0  0  0  # atno 17320 bound_to 7965
  145.2934  141.0174  143.3650 LP  0  0  0  0  0  0  0  0  0  0  0  0  # atno 17321 bound_to 7965
  140.7794  143.3876  151.1367 LP  0  0  0  0  0  0  0  0  0  0  0  0  # atno 17342 bound_to 10162
  139.7518  143.8766  152.3079 LP  0  0  0  0  0  0  0  0  0  0  0  0  # atno 17343 bound_to 10162
  156.3081  130.7214  151.2101 LP  0  0  0  0  0  0  0  0  0  0  0  0  # atno 17370 bound_to 10713
  157.7425  131.0488  150.5016 LP  0  0  0  0  0  0  0  0  0  0  0  0  # atno 17371 bound_to 10713
  141.1002  133.9780  157.3092 LP  0  0  0  0  0  0  0  0  0  0  0  0  # atno 17394 bound_to 11000
  139.9321  135.0199  156.8436 LP  0  0  0  0  0  0  0  0  0  0  0  0  # atno 17395 bound_to 11000

$$$$
