AV-unprocessed.smi:1830|AV-procd|sdf|7443|dock9
  -GOLD-   22720 9133D 1   1.00000     0.00000
 Structure written by MMmdl.
 52 55  0  0  0  0  0  0  0  0  1 V2000
  150.7982  136.2269  156.2544 O   0  0  0  0  0  0  0  0  0  0  0  0
  150.5181  136.1343  155.0594 C   0  0  0  0  0  0  0  0  0  0  0  0
  150.9432  137.0012  154.1298 N   0  0  0  0  0  0  0  0  0  0  0  0
  151.7819  138.1713  154.3771 C   0  0  0  0  0  0  0  0  0  0  0  0
  151.1628  139.1321  155.4083 C   0  0  1  0  0  0  0  0  0  0  0  0
  152.1282  139.5495  156.5446 C   0  0  0  0  0  0  0  0  0  0  0  0
  151.4716  140.5049  157.4155 N   0  0  0  0  0  0  0  0  0  0  0  0
  152.2589  141.0580  158.4927 C   0  0  0  0  0  0  0  0  0  0  0  0
  151.4583  142.2894  158.9517 C   0  0  0  0  0  0  0  0  0  0  0  0
  150.5513  142.6298  157.7480 C   0  0  0  0  0  0  0  0  0  0  0  0
  151.0358  141.6562  156.6718 C   0  0  2  0  0  0  0  0  0  0  0  0
  150.0366  141.2511  155.5778 C   0  0  0  0  0  0  0  0  0  0  0  0
  150.6695  140.2922  154.7256 O   0  0  0  0  0  0  0  0  0  0  0  0
  149.7500  135.1782  154.5111 N   0  0  0  0  0  0  0  0  0  0  0  0
  149.0809  134.0929  155.1485 C   0  0  0  0  0  0  0  0  0  0  0  0
  149.5199  133.5351  156.3746 C   0  0  0  0  0  0  0  0  0  0  0  0
  148.8087  132.4587  156.9342 C   0  0  0  0  0  0  0  0  0  0  0  0
  147.6872  131.9686  156.2434 C   0  0  0  0  0  0  0  0  0  0  0  0
  147.2668  132.4756  155.0673 N   0  0  0  0  0  0  0  0  0  0  0  0
  147.9424  133.5167  154.5220 C   0  0  0  0  0  0  0  0  0  0  0  0
  147.5006  133.9995  153.2723 N   0  0  0  0  0  0  0  0  0  0  0  0
  147.6536  133.0300  152.1905 C   0  0  0  0  0  0  0  0  0  0  0  0
  146.4265  133.1854  151.2898 C   0  0  0  0  0  0  0  0  0  0  0  0
  145.3636  133.7171  152.2434 C   0  0  0  0  0  0  0  0  0  0  0  0
  146.1774  134.6137  153.1742 C   0  0  0  0  0  0  0  0  0  0  0  0
  150.6657  136.8423  153.1722 H   0  0  0  0  0  0  0  0  0  0  0  0
  152.7452  137.8176  154.7452 H   0  0  0  0  0  0  0  0  0  0  0  0
  151.9931  138.7049  153.4491 H   0  0  0  0  0  0  0  0  0  0  0  0
  150.3058  138.6259  155.8561 H   0  0  0  0  0  0  0  0  0  0  0  0
  152.4386  138.6749  157.1167 H   0  0  0  0  0  0  0  0  0  0  0  0
  153.0326  139.9952  156.1294 H   0  0  0  0  0  0  0  0  0  0  0  0
  152.4125  140.3335  159.2930 H   0  0  0  0  0  0  0  0  0  0  0  0
  153.2379  141.3682  158.1237 H   0  0  0  0  0  0  0  0  0  0  0  0
  150.8515  142.0558  159.8272 H   0  0  0  0  0  0  0  0  0  0  0  0
  152.1209  143.1148  159.2134 H   0  0  0  0  0  0  0  0  0  0  0  0
  149.5068  142.4405  157.9994 H   0  0  0  0  0  0  0  0  0  0  0  0
  150.6418  143.6698  157.4334 H   0  0  0  0  0  0  0  0  0  0  0  0
  151.9020  142.1088  156.1838 H   0  0  0  0  0  0  0  0  0  0  0  0
  149.1313  140.8226  156.0109 H   0  0  0  0  0  0  0  0  0  0  0  0
  149.7380  142.1176  154.9877 H   0  0  0  0  0  0  0  0  0  0  0  0
  149.5471  135.2869  153.5282 H   0  0  0  0  0  0  0  0  0  0  0  0
  150.3942  133.9004  156.8903 H   0  0  0  0  0  0  0  0  0  0  0  0
  149.1192  132.0164  157.8691 H   0  0  0  0  0  0  0  0  0  0  0  0
  147.1171  131.1420  156.6407 H   0  0  0  0  0  0  0  0  0  0  0  0
  148.5766  133.2031  151.6369 H   0  0  0  0  0  0  0  0  0  0  0  0
  147.6922  132.0162  152.5936 H   0  0  0  0  0  0  0  0  0  0  0  0
  146.6276  133.9247  150.5130 H   0  0  0  0  0  0  0  0  0  0  0  0
  146.1370  132.2534  150.8037 H   0  0  0  0  0  0  0  0  0  0  0  0
  144.5591  134.2499  151.7355 H   0  0  0  0  0  0  0  0  0  0  0  0
  144.9246  132.8938  152.8090 H   0  0  0  0  0  0  0  0  0  0  0  0
  145.6785  134.7661  154.1314 H   0  0  0  0  0  0  0  0  0  0  0  0
  146.3033  135.5987  152.7236 H   0  0  0  0  0  0  0  0  0  0  0  0
  1  2  2  0  0  0  0
  2  3  1  0  0  0  0
  2 14  1  0  0  0  0
  3  4  1  0  0  0  0
  3 26  1  0  0  0  0
  4  5  1  0  0  0  0
  4 27  1  0  0  0  0
  4 28  1  0  0  0  0
  5 13  1  0  0  0  0
  5  6  1  0  0  0  0
  5 29  1  0  0  0  0
  6  7  1  0  0  0  0
  6 30  1  0  0  0  0
  6 31  1  0  0  0  0
  7 11  1  0  0  0  0
  7  8  1  0  0  0  0
  8  9  1  0  0  0  0
  8 32  1  0  0  0  0
  8 33  1  0  0  0  0
  9 10  1  0  0  0  0
  9 34  1  0  0  0  0
  9 35  1  0  0  0  0
 10 11  1  0  0  0  0
 10 36  1  0  0  0  0
 10 37  1  0  0  0  0
 11 12  1  0  0  0  0
 11 38  1  0  0  0  0
 12 13  1  0  0  0  0
 12 39  1  0  0  0  0
 12 40  1  0  0  0  0
 14 15  1  0  0  0  0
 14 41  1  0  0  0  0
 15 20  1  0  0  0  0
 15 16  2  0  0  0  0
 16 17  1  0  0  0  0
 16 42  1  0  0  0  0
 17 18  2  0  0  0  0
 17 43  1  0  0  0  0
 18 19  1  0  0  0  0
 18 44  1  0  0  0  0
 19 20  2  0  0  0  0
 20 21  1  0  0  0  0
 21 25  1  0  0  0  0
 21 22  1  0  0  0  0
 22 23  1  0  0  0  0
 22 45  1  0  0  0  0
 22 46  1  0  0  0  0
 23 24  1  0  0  0  0
 23 47  1  0  0  0  0
 23 48  1  0  0  0  0
 24 25  1  0  0  0  0
 24 49  1  0  0  0  0
 24 50  1  0  0  0  0
 25 51  1  0  0  0  0
 25 52  1  0  0  0  0
M  END
> <s_m_source_file>
AV-unprocessed.smi

> <i_m_source_file_index>
1830

> <i_lp_mmshare_version>
43012

> <i_f3d_flags>
0

> <s_epik_input>
W0NIMl0xW0NIMl1bQ0gyXVtDQEhdKE4xMilbQ0gyXU9bQ0BASF0oW0NIMl0yKVtDSDJdW05IXUMoPU8pW05IXWMzW2NIXVtjSF1bY0hdbmMzTjRbQ0gyXVtDSDJdW0NIMl1bQ0gyXTQ=

> <s_epik_cmdline>
J2VwaWtfcHl0aG9uJywgJy1waCcsICc3LjAnLCAnLXRuJywgJzgnLCAnLW1hJywgJzIwMCcsICctbWV0YWxfYmluZGluZycsICctaW1hZScsICc8aW5maWxlLm1hZT4nLCAnLW9tYWUnLCAnPG91dGZpbGUubWFlPic=

> <r_lp_tautomer_probability>
1

> <r_epik_Ionization_Penalty>
1.16487

> <r_epik_Ionization_Penalty_Charging>
0

> <r_epik_Ionization_Penalty_Neutral>
1.16487

> <r_epik_State_Penalty>
1.21807

> <r_epik_Charging_Adjusted_Penalty>
1.21807

> <i_epik_Tot_Q>
0

> <i_epik_Tot_abs_Q>
0

> <r_epik_Metal_State_Penalty>
1.19922

> <b_epik_Metal_Only>
0

> <s_lp_Force_Field>
OPLS_2005

> <r_lp_Energy>
78.4181

> <b_lp_Chiralities_Consistent>
1

> <s_lp_Variant>
AV-unprocessed.smi:1830-12

> <Gold.Version>
5.8.1

> <Gold.Id.Protein>
6NUR|6NUR_protein|mol2

> <Gold.PLP.Fitness>
41.1185

> <Gold.PLP.PLP>
-36.3177

> <Gold.PLP.part.hbond>
-3.9362

> <Gold.PLP.part.metal>
0.0000

> <Gold.PLP.part.buried>
-5.6274

> <Gold.PLP.part.nonpolar>
-28.6621

> <Gold.PLP.part.repulsive>
1.4370

> <Gold.PLP.ligand.clash>
0.0000

> <Gold.PLP.ligand.torsion>
0.8722

> <Gold.PLP.Chemscore.Hbond>
2.1428

> <Gold.PLP.Chemscore.CHOScore>
0.0000

> <Gold.PLP.Chemscore.Metal>
0.0000

> <Gold.Chemscore.Hbonds>
donor molecule, donor type, donor heavy atom, donor atom, acceptor molecule, acceptor atom, score
      L1  H     3    26       P1  7949  0.49
      L1  H    14    41       P1  7948  0.70
      P1  H  7989  7998       L1    13  1.00

> <Gold.PLP.Chemscore.Internal.Correction>
0.1168

> <Gold.Rescore>
     Score         DG    S(hbond)    S(metal)    S(lipo)     H(rot)  DE(clash)    DE(int)     intcor
     15.37     -17.58       1.61        0.00      87.50       1.37       0.19       2.02       ----

> <Gold.Chemscore.Fitness>
15.3726

> <Gold.Chemscore.DG>
-17.5783

> <Gold.Chemscore.ZeroCoef>
-5.4800

> <Gold.Chemscore.Hbond>
1.6106

> <Gold.Chemscore.Metal>
0.0000

> <Gold.Chemscore.Lipo>
87.5017

> <Gold.Chemscore.Internal_Hbond>
0.0000

> <Gold.Chemscore.DEClash>
0.1894

> <Gold.Chemscore.DEInternal>
2.0164

> <Gold.Chemscore.Rot>
1.3746

> <Gold.Chemscore.Internal.Correction>
   9.000000E+99

> <Gold.Chemscore.Hbonds>
donor molecule, donor type, donor heavy atom, donor atom, acceptor molecule, acceptor atom, score
      L1  H     3    26       P1  7949  0.03
      L1  H    14    41       P1  7948  0.07
      P1  H  7989  7998       L1    13  0.87

> <Gold.Chemscore.Hbond.Weighted>
-5.3795

> <Gold.Chemscore.Metal.Weighted>
-0.0000

> <Gold.Chemscore.Lipo.Weighted>
-10.2377

> <Gold.Chemscore.Internal_Hbond.Weighted>
0.0000

> <Gold.Chemscore.DEClash.Weighted>
0.1894

> <Gold.Chemscore.DEInternal.Weighted>
2.0164

> <Gold.Chemscore.Rot.Weighted>
3.5189

> <Gold.Chemscore.Internal.Correction.Weighted>
   9.000000E+99

> <Gold.Protein.RotatedTorsions>
[ 6907 6896 6895 6894 ] final   64.01 input  -60.11 | X-H torsion
[ 7974 7965 7964 7962 ] final   16.02 input  175.53 | X-H torsion
[ 8008 7997 7996 7995 ] final  -38.25 input   59.86 | X-H torsion
[ 10167 10162 10161 10158 ] final  117.21 input  -65.29 | X-H torsion
[ 10718 10713 10712 10709 ] final   13.60 input   66.30 | X-H torsion
[ 10763 10752 10751 10750 ] final  -31.62 input  -60.55 | X-H torsion
[ 11005 11000 10999 10996 ] final  -42.67 input  -57.11 | X-H torsion

> <Gold.Protein.ActiveResidues>
 VAL166  LYS551  ARG553  GLY616  TRP617  ASP618  TYR619  PRO620  LYS621  CYS622 
 ASP623  PHE694  ASN695  SER759  ASP760  ASP761  ALA762  ILE779  LEU786  VAL792 
 PHE793  MET794  SER795  GLU796  ALA797  LYS798  CYS799  TRP800  GLU811  SER814 

> <Gold.Protein.RotatedAtoms>
  152.4298  134.5798  159.9944 H   0  0  0  0  0  0  0  0  0  0  0  0  # atno 6907 bound_to 6896
  151.5925  133.3359  159.3038 H   0  0  0  0  0  0  0  0  0  0  0  0  # atno 6908 bound_to 6896
  150.8190  134.7424  159.6821 H   0  0  0  0  0  0  0  0  0  0  0  0  # atno 6909 bound_to 6896
  146.2261  139.8808  142.8571 H   0  0  0  0  0  0  0  0  0  0  0  0  # atno 7974 bound_to 7965
  154.4040  140.1583  156.2669 H   0  0  0  0  0  0  0  0  0  0  0  0  # atno 8008 bound_to 7997
  155.8988  140.3434  155.5988 H   0  0  0  0  0  0  0  0  0  0  0  0  # atno 8009 bound_to 7997
  155.7473  140.0800  157.2208 H   0  0  0  0  0  0  0  0  0  0  0  0  # atno 8010 bound_to 7997
  139.6194  144.7098  151.2667 H   0  0  0  0  0  0  0  0  0  0  0  0  # atno 10167 bound_to 10162
  157.0270  130.6177  149.5729 H   0  0  0  0  0  0  0  0  0  0  0  0  # atno 10718 bound_to 10713
  153.8003  135.6890  153.4857 H   0  0  0  0  0  0  0  0  0  0  0  0  # atno 10763 bound_to 10752
  153.1693  135.4549  154.9878 H   0  0  0  0  0  0  0  0  0  0  0  0  # atno 10764 bound_to 10752
  154.8009  135.3337  154.7492 H   0  0  0  0  0  0  0  0  0  0  0  0  # atno 10765 bound_to 10752
  141.0331  133.6811  156.2626 H   0  0  0  0  0  0  0  0  0  0  0  0  # atno 11005 bound_to 11000
  145.2514  141.0045  143.3879 LP  0  0  0  0  0  0  0  0  0  0  0  0  # atno 17320 bound_to 7965
  144.9371  139.4231  143.6467 LP  0  0  0  0  0  0  0  0  0  0  0  0  # atno 17321 bound_to 7965
  140.7372  143.6684  150.8103 LP  0  0  0  0  0  0  0  0  0  0  0  0  # atno 17342 bound_to 10162
  140.0292  143.5461  152.2767 LP  0  0  0  0  0  0  0  0  0  0  0  0  # atno 17343 bound_to 10162
  156.0082  130.5171  150.7902 LP  0  0  0  0  0  0  0  0  0  0  0  0  # atno 17370 bound_to 10713
  157.5206  131.0931  151.0083 LP  0  0  0  0  0  0  0  0  0  0  0  0  # atno 17371 bound_to 10713
  140.6370  134.5205  157.5566 LP  0  0  0  0  0  0  0  0  0  0  0  0  # atno 17394 bound_to 11000
  139.9222  134.8127  156.1177 LP  0  0  0  0  0  0  0  0  0  0  0  0  # atno 17395 bound_to 11000

$$$$
