AV-unprocessed.smi:1248|AV-procd|sdf|5252|dock7
  -GOLD-   22720 4363D 1   1.00000     0.00000
 Structure written by MMmdl.
 43 45  0  0  0  0  0  0  0  0  1 V2000
  146.9520  133.2865  151.4276 C   0  0  0  0  0  0  0  0  0  0  0  0
  145.6313  133.7366  150.7915 C   0  0  0  0  0  0  0  0  0  0  0  0
  145.0910  134.9143  151.4430 N   0  0  0  0  0  0  0  0  0  0  0  0
  145.7087  136.1301  151.6599 C   0  0  0  0  0  0  0  0  0  0  0  0
  144.7922  136.9026  152.3076 C   0  0  0  0  0  0  0  0  0  0  0  0
  145.0102  138.2392  152.7258 N   0  0  0  0  0  0  0  0  0  0  0  0
  146.0361  138.7043  153.4567 C   0  0  0  0  0  0  0  0  0  0  0  0
  146.9683  138.0227  153.8826 O   0  0  0  0  0  0  0  0  0  0  0  0
  145.9212  140.0222  153.6749 N   0  0  0  0  0  0  0  0  0  0  0  0
  146.8643  140.8338  154.4389 C   0  0  0  0  0  0  0  0  0  0  0  0
  148.2722  140.7719  153.8197 C   0  0  0  0  0  0  0  0  0  0  0  0
  149.2998  141.4942  154.7086 C   0  0  0  0  0  0  0  0  0  0  0  0
  149.3183  140.9011  156.0459 N   0  0  0  0  0  0  0  0  0  0  0  0
  150.3307  141.5730  156.8441 C   0  0  0  0  0  0  0  0  0  0  0  0
  151.6319  140.8412  157.0829 C   0  0  0  0  0  0  0  0  0  0  0  0
  150.6386  140.9999  158.2086 C   0  0  0  0  0  0  0  0  0  0  0  0
  148.0147  141.0793  156.6854 C   0  0  0  0  0  0  0  0  0  0  0  0
  146.9285  140.3335  155.8905 C   0  0  0  0  0  0  0  0  0  0  0  0
  143.6334  136.0891  152.4556 C   0  0  0  0  0  0  0  0  0  0  0  0
  143.8259  134.8883  151.9306 N   0  0  0  0  0  0  0  0  0  0  0  0
  147.3330  132.3910  150.9366 H   0  0  0  0  0  0  0  0  0  0  0  0
  146.8213  133.0566  152.4853 H   0  0  0  0  0  0  0  0  0  0  0  0
  147.7155  134.0602  151.3443 H   0  0  0  0  0  0  0  0  0  0  0  0
  145.7755  133.9572  149.7332 H   0  0  0  0  0  0  0  0  0  0  0  0
  144.8942  132.9352  150.8507 H   0  0  0  0  0  0  0  0  0  0  0  0
  146.7206  136.3327  151.3410 H   0  0  0  0  0  0  0  0  0  0  0  0
  144.3106  138.9095  152.4433 H   0  0  0  0  0  0  0  0  0  0  0  0
  145.1217  140.5005  153.2867 H   0  0  0  0  0  0  0  0  0  0  0  0
  146.5238  141.8711  154.4485 H   0  0  0  0  0  0  0  0  0  0  0  0
  148.5770  139.7327  153.6860 H   0  0  0  0  0  0  0  0  0  0  0  0
  148.2677  141.2226  152.8268 H   0  0  0  0  0  0  0  0  0  0  0  0
  150.2899  141.4099  154.2591 H   0  0  0  0  0  0  0  0  0  0  0  0
  149.0657  142.5583  154.7708 H   0  0  0  0  0  0  0  0  0  0  0  0
  150.4177  142.6555  156.7664 H   0  0  0  0  0  0  0  0  0  0  0  0
  151.7460  139.8482  156.6522 H   0  0  0  0  0  0  0  0  0  0  0  0
  152.5410  141.4374  157.1257 H   0  0  0  0  0  0  0  0  0  0  0  0
  150.8868  141.7011  159.0026 H   0  0  0  0  0  0  0  0  0  0  0  0
  150.0934  140.1123  158.5245 H   0  0  0  0  0  0  0  0  0  0  0  0
  148.0521  140.6897  157.7033 H   0  0  0  0  0  0  0  0  0  0  0  0
  147.7714  142.1409  156.7576 H   0  0  0  0  0  0  0  0  0  0  0  0
  145.9606  140.4668  156.3750 H   0  0  0  0  0  0  0  0  0  0  0  0
  147.1396  139.2630  155.9091 H   0  0  0  0  0  0  0  0  0  0  0  0
  142.6811  136.3123  152.9129 H   0  0  0  0  0  0  0  0  0  0  0  0
  1  2  1  0  0  0  0
  1 21  1  0  0  0  0
  1 22  1  0  0  0  0
  1 23  1  0  0  0  0
  2  3  1  0  0  0  0
  2 24  1  0  0  0  0
  2 25  1  0  0  0  0
  3 20  1  0  0  0  0
  3  4  1  0  0  0  0
  4  5  2  0  0  0  0
  4 26  1  0  0  0  0
  5  6  1  0  0  0  0
  5 19  1  0  0  0  0
  6  7  1  0  0  0  0
  6 27  1  0  0  0  0
  7  8  2  0  0  0  0
  7  9  1  0  0  0  0
  9 10  1  0  0  0  0
  9 28  1  0  0  0  0
 10 18  1  0  0  0  0
 10 11  1  0  0  0  0
 10 29  1  0  0  0  0
 11 12  1  0  0  0  0
 11 30  1  0  0  0  0
 11 31  1  0  0  0  0
 12 13  1  0  0  0  0
 12 32  1  0  0  0  0
 12 33  1  0  0  0  0
 13 14  1  0  0  0  0
 13 17  1  0  0  0  0
 14 16  1  0  0  0  0
 14 15  1  0  0  0  0
 14 34  1  0  0  0  0
 15 16  1  0  0  0  0
 15 35  1  0  0  0  0
 15 36  1  0  0  0  0
 16 37  1  0  0  0  0
 16 38  1  0  0  0  0
 17 18  1  0  0  0  0
 17 39  1  0  0  0  0
 17 40  1  0  0  0  0
 18 41  1  0  0  0  0
 18 42  1  0  0  0  0
 19 20  2  0  0  0  0
 19 43  1  0  0  0  0
M  END
> <s_m_source_file>
AV-unprocessed.smi

> <i_m_source_file_index>
1248

> <i_lp_mmshare_version>
43012

> <i_f3d_flags>
0

> <s_epik_input>
W0NIM11bQ0gyXW4xW2NIXWMoW2NIXW4xKVtOSF1DKD1PKVtOSF1bQ0hdMltDSDJdW0NIMl1OKFtDSDJdW0NIMl0yKVtDSF0zW0NIMl1bQ0gyXTM=

> <s_epik_cmdline>
J2VwaWtfcHl0aG9uJywgJy1waCcsICc3LjAnLCAnLXRuJywgJzgnLCAnLW1hJywgJzIwMCcsICctbWV0YWxfYmluZGluZycsICctaW1hZScsICc8aW5maWxlLm1hZT4nLCAnLW9tYWUnLCAnPG91dGZpbGUubWFlPic=

> <r_lp_tautomer_probability>
1

> <r_epik_Ionization_Penalty>
1.02552

> <r_epik_Ionization_Penalty_Charging>
0

> <r_epik_Ionization_Penalty_Neutral>
1.02552

> <r_epik_State_Penalty>
1.07599

> <r_epik_Charging_Adjusted_Penalty>
1.07599

> <i_epik_Tot_Q>
0

> <i_epik_Tot_abs_Q>
0

> <r_epik_Metal_State_Penalty>
1.07597

> <b_epik_Metal_Only>
0

> <s_lp_Force_Field>
OPLS_2005

> <r_lp_Energy>
25.1211

> <b_lp_Chiralities_Consistent>
1

> <s_lp_Variant>
AV-unprocessed.smi:1248-3

> <Gold.Version>
5.8.1

> <Gold.Id.Protein>
6NUR|6NUR_protein|mol2

> <Gold.PLP.Fitness>
36.7407

> <Gold.PLP.PLP>
-28.8490

> <Gold.PLP.part.hbond>
-2.6468

> <Gold.PLP.part.metal>
0.0000

> <Gold.PLP.part.buried>
-1.8588

> <Gold.PLP.part.nonpolar>
-25.2591

> <Gold.PLP.part.repulsive>
0.3695

> <Gold.PLP.ligand.clash>
0.0000

> <Gold.PLP.ligand.torsion>
1.1443

> <Gold.PLP.Chemscore.Hbond>
2.0000

> <Gold.PLP.Chemscore.CHOScore>
1.0000

> <Gold.PLP.Chemscore.Metal>
0.0000

> <Gold.Chemscore.Hbonds>
donor molecule, donor type, donor heavy atom, donor atom, acceptor molecule, acceptor atom, score
      L1  H     6    27       P1 10175  1.00
      L1  H     9    28       P1 10175  1.00
      L1  C     4    26       P1  7948  1.00

> <Gold.PLP.Chemscore.Internal.Correction>
1.1803

> <Gold.Rescore>
     Score         DG    S(hbond)    S(metal)    S(lipo)     H(rot)  DE(clash)    DE(int)     intcor
     14.06     -16.54       1.91        0.00      68.84       1.32       0.25       2.23       ----

> <Gold.Chemscore.Fitness>
14.0567

> <Gold.Chemscore.DG>
-16.5351

> <Gold.Chemscore.ZeroCoef>
-5.4800

> <Gold.Chemscore.Hbond>
1.9076

> <Gold.Chemscore.Metal>
0.0000

> <Gold.Chemscore.Lipo>
68.8444

> <Gold.Chemscore.Internal_Hbond>
0.0000

> <Gold.Chemscore.DEClash>
0.2522

> <Gold.Chemscore.DEInternal>
2.2262

> <Gold.Chemscore.Rot>
1.3169

> <Gold.Chemscore.Internal.Correction>
   9.000000E+99

> <Gold.Chemscore.Hbonds>
donor molecule, donor type, donor heavy atom, donor atom, acceptor molecule, acceptor atom, score
      L1  H     6    27       P1 10175  0.96
      L1  H     9    28       P1 10175  0.94

> <Gold.Chemscore.Hbond.Weighted>
-6.3715

> <Gold.Chemscore.Metal.Weighted>
-0.0000

> <Gold.Chemscore.Lipo.Weighted>
-8.0548

> <Gold.Chemscore.Internal_Hbond.Weighted>
0.0000

> <Gold.Chemscore.DEClash.Weighted>
0.2522

> <Gold.Chemscore.DEInternal.Weighted>
2.2262

> <Gold.Chemscore.Rot.Weighted>
3.3712

> <Gold.Chemscore.Internal.Correction.Weighted>
   9.000000E+99

> <Gold.Protein.RotatedTorsions>
[ 6907 6896 6895 6894 ] final  162.41 input  -60.11 | X-H torsion
[ 7974 7965 7964 7962 ] final   -4.09 input  175.53 | X-H torsion
[ 8008 7997 7996 7995 ] final  -23.11 input   59.86 | X-H torsion
[ 10167 10162 10161 10158 ] final -176.72 input  -65.29 | X-H torsion
[ 10718 10713 10712 10709 ] final  -49.66 input   66.30 | X-H torsion
[ 10763 10752 10751 10750 ] final  179.00 input  -60.55 | X-H torsion
[ 11005 11000 10999 10996 ] final  152.58 input  -57.11 | X-H torsion

> <Gold.Protein.ActiveResidues>
 VAL166  LYS551  ARG553  GLY616  TRP617  ASP618  TYR619  PRO620  LYS621  CYS622 
 ASP623  PHE694  ASN695  SER759  ASP760  ASP761  ALA762  ILE779  LEU786  VAL792 
 PHE793  MET794  SER795  GLU796  ALA797  LYS798  CYS799  TRP800  GLU811  SER814 

> <Gold.Protein.RotatedAtoms>
  151.9408  133.3637  159.3964 H   0  0  0  0  0  0  0  0  0  0  0  0  # atno 6907 bound_to 6896
  150.6998  134.4441  159.5315 H   0  0  0  0  0  0  0  0  0  0  0  0  # atno 6908 bound_to 6896
  152.2097  134.8512  160.0549 H   0  0  0  0  0  0  0  0  0  0  0  0  # atno 6909 bound_to 6896
  146.2378  140.1820  142.8332 H   0  0  0  0  0  0  0  0  0  0  0  0  # atno 7974 bound_to 7965
  154.4604  140.1989  156.0260 H   0  0  0  0  0  0  0  0  0  0  0  0  # atno 8008 bound_to 7997
  156.0829  140.3269  155.7688 H   0  0  0  0  0  0  0  0  0  0  0  0  # atno 8009 bound_to 7997
  155.5082  140.0559  157.2918 H   0  0  0  0  0  0  0  0  0  0  0  0  # atno 8010 bound_to 7997
  139.5515  144.2096  152.1086 H   0  0  0  0  0  0  0  0  0  0  0  0  # atno 10167 bound_to 10162
  156.1873  130.4152  149.9421 H   0  0  0  0  0  0  0  0  0  0  0  0  # atno 10718 bound_to 10713
  154.5150  135.2790  155.1310 H   0  0  0  0  0  0  0  0  0  0  0  0  # atno 10763 bound_to 10752
  154.2891  135.6270  153.5381 H   0  0  0  0  0  0  0  0  0  0  0  0  # atno 10764 bound_to 10752
  152.9926  135.5669  154.5625 H   0  0  0  0  0  0  0  0  0  0  0  0  # atno 10765 bound_to 10752
  140.1321  134.8795  157.2217 H   0  0  0  0  0  0  0  0  0  0  0  0  # atno 11005 bound_to 11000
  144.9927  140.8561  143.5330 LP  0  0  0  0  0  0  0  0  0  0  0  0  # atno 17320 bound_to 7965
  145.1828  139.2342  143.5283 LP  0  0  0  0  0  0  0  0  0  0  0  0  # atno 17321 bound_to 7965
  140.1593  144.5041  150.6642 LP  0  0  0  0  0  0  0  0  0  0  0  0  # atno 17342 bound_to 10162
  140.6779  143.2313  151.5460 LP  0  0  0  0  0  0  0  0  0  0  0  0  # atno 17343 bound_to 10162
  156.7173  130.8993  151.3615 LP  0  0  0  0  0  0  0  0  0  0  0  0  # atno 17370 bound_to 10713
  157.6907  130.9230  150.0505 LP  0  0  0  0  0  0  0  0  0  0  0  0  # atno 17371 bound_to 10713
  140.2829  134.3329  155.7337 LP  0  0  0  0  0  0  0  0  0  0  0  0  # atno 17394 bound_to 11000
  141.2172  133.7489  156.9391 LP  0  0  0  0  0  0  0  0  0  0  0  0  # atno 17395 bound_to 11000

$$$$
