AV-unprocessed.smi:1842|AV-procd|sdf|7499|dock10
  -GOLD-   22720 9203D 1   1.00000     0.00000
 Structure written by MMmdl.
 38 39  0  0  0  0  0  0  0  0  1 V2000
  150.6944  141.6411  158.8486 O   0  0  0  0  0  0  0  0  0  0  0  0
  150.5357  142.6153  158.1132 C   0  0  0  0  0  0  0  0  0  0  0  0
  150.5860  144.0312  158.6897 C   0  0  0  0  0  0  0  0  0  0  0  0
  152.0258  144.5699  158.7697 C   0  0  0  0  0  0  0  0  0  0  0  0
  152.8193  144.0023  159.9597 C   0  0  0  0  0  0  0  0  0  0  0  0
  153.0948  142.4975  159.8826 C   0  0  0  0  0  0  0  0  0  0  0  0
  153.4218  142.0821  161.3206 C   0  0  0  0  0  0  0  0  0  0  0  0
  152.7582  143.1268  162.2307 C   0  0  0  0  0  0  0  0  0  0  0  0
  152.0946  144.1488  161.3002 C   0  0  0  0  0  0  0  0  0  0  0  0
  150.3217  142.5166  156.7926 N   0  0  0  0  0  0  0  0  0  0  0  0
  150.2969  141.2713  156.0310 C   0  0  0  0  0  0  0  0  0  0  0  0
  149.7739  141.4663  154.5944 C   0  0  0  0  0  0  0  0  0  0  0  0
  148.3297  141.3512  154.5124 N   0  0  0  0  0  0  0  0  0  0  0  0
  147.6016  140.4528  153.7438 C   0  0  0  0  0  0  0  0  0  0  0  0
  146.2723  140.7111  153.9924 C   0  0  0  0  0  0  0  0  0  0  0  0
  146.1601  141.7580  154.9046 N   0  0  0  0  0  0  0  0  0  0  0  0
  147.4188  142.0866  155.1651 C   0  0  0  0  0  0  0  0  0  0  0  0
  149.9699  144.6955  158.0819 H   0  0  0  0  0  0  0  0  0  0  0  0
  150.1385  144.0143  159.6840 H   0  0  0  0  0  0  0  0  0  0  0  0
  152.5551  144.3212  157.8485 H   0  0  0  0  0  0  0  0  0  0  0  0
  152.0097  145.6597  158.8255 H   0  0  0  0  0  0  0  0  0  0  0  0
  153.7740  144.5257  160.0339 H   0  0  0  0  0  0  0  0  0  0  0  0
  152.1991  141.9721  159.5478 H   0  0  0  0  0  0  0  0  0  0  0  0
  153.9000  142.2517  159.1898 H   0  0  0  0  0  0  0  0  0  0  0  0
  153.0730  141.0711  161.5335 H   0  0  0  0  0  0  0  0  0  0  0  0
  154.5014  142.0940  161.4755 H   0  0  0  0  0  0  0  0  0  0  0  0
  152.0297  142.6751  162.9050 H   0  0  0  0  0  0  0  0  0  0  0  0
  153.5150  143.6129  162.8477 H   0  0  0  0  0  0  0  0  0  0  0  0
  152.1461  145.1646  161.6931 H   0  0  0  0  0  0  0  0  0  0  0  0
  151.0399  143.8960  161.1809 H   0  0  0  0  0  0  0  0  0  0  0  0
  150.1973  143.3712  156.2692 H   0  0  0  0  0  0  0  0  0  0  0  0
  151.2969  140.8357  156.0098 H   0  0  0  0  0  0  0  0  0  0  0  0
  149.6635  140.5608  156.5627 H   0  0  0  0  0  0  0  0  0  0  0  0
  150.0734  142.4381  154.1994 H   0  0  0  0  0  0  0  0  0  0  0  0
  150.2135  140.7168  153.9355 H   0  0  0  0  0  0  0  0  0  0  0  0
  148.0759  139.7237  153.1036 H   0  0  0  0  0  0  0  0  0  0  0  0
  145.3948  140.2275  153.5889 H   0  0  0  0  0  0  0  0  0  0  0  0
  147.6851  142.8777  155.8512 H   0  0  0  0  0  0  0  0  0  0  0  0
  1  2  2  0  0  0  0
  2  3  1  0  0  0  0
  2 10  1  0  0  0  0
  3  4  1  0  0  0  0
  3 18  1  0  0  0  0
  3 19  1  0  0  0  0
  4  5  1  0  0  0  0
  4 20  1  0  0  0  0
  4 21  1  0  0  0  0
  5  9  1  0  0  0  0
  5  6  1  0  0  0  0
  5 22  1  0  0  0  0
  6  7  1  0  0  0  0
  6 23  1  0  0  0  0
  6 24  1  0  0  0  0
  7  8  1  0  0  0  0
  7 25  1  0  0  0  0
  7 26  1  0  0  0  0
  8  9  1  0  0  0  0
  8 27  1  0  0  0  0
  8 28  1  0  0  0  0
  9 29  1  0  0  0  0
  9 30  1  0  0  0  0
 10 11  1  0  0  0  0
 10 31  1  0  0  0  0
 11 12  1  0  0  0  0
 11 32  1  0  0  0  0
 11 33  1  0  0  0  0
 12 13  1  0  0  0  0
 12 34  1  0  0  0  0
 12 35  1  0  0  0  0
 13 17  1  0  0  0  0
 13 14  1  0  0  0  0
 14 15  2  0  0  0  0
 14 36  1  0  0  0  0
 15 16  1  0  0  0  0
 15 37  1  0  0  0  0
 16 17  2  0  0  0  0
 17 38  1  0  0  0  0
M  END
> <s_m_source_file>
AV-unprocessed.smi

> <i_m_source_file_index>
1842

> <i_lp_mmshare_version>
43012

> <i_f3d_flags>
0

> <s_epik_input>
W0NIMl0xW0NIMl1bQ0gyXVtDSDJdW0NIXTFbQ0gyXVtDSDJdQyg9TylbTkhdW0NIMl1bQ0gyXW4yW2NIXVtjSF1uW2NIXTI=

> <s_epik_cmdline>
J2VwaWtfcHl0aG9uJywgJy1waCcsICc3LjAnLCAnLXRuJywgJzgnLCAnLW1hJywgJzIwMCcsICctbWV0YWxfYmluZGluZycsICctaW1hZScsICc8aW5maWxlLm1hZT4nLCAnLW9tYWUnLCAnPG91dGZpbGUubWFlPic=

> <r_lp_tautomer_probability>
1

> <r_epik_Ionization_Penalty>
0.595716

> <r_epik_Ionization_Penalty_Charging>
0.595716

> <r_epik_Ionization_Penalty_Neutral>
2.42503e-08

> <r_epik_State_Penalty>
0.60967

> <r_epik_Charging_Adjusted_Penalty>
1.20539

> <i_epik_Tot_Q>
0

> <i_epik_Tot_abs_Q>
0

> <r_epik_Metal_State_Penalty>
0.299956

> <b_epik_Metal_Only>
0

> <s_lp_Force_Field>
OPLS_2005

> <r_lp_Energy>
23.0444

> <b_lp_Chiralities_Consistent>
1

> <s_lp_Variant>
AV-unprocessed.smi:1842-2

> <Gold.Version>
5.8.1

> <Gold.Id.Protein>
6NUR|6NUR_protein|mol2

> <Gold.PLP.Fitness>
50.6214

> <Gold.PLP.PLP>
-39.9360

> <Gold.PLP.part.hbond>
-1.1250

> <Gold.PLP.part.metal>
0.0000

> <Gold.PLP.part.buried>
-0.2261

> <Gold.PLP.part.nonpolar>
-37.4776

> <Gold.PLP.part.repulsive>
0.1800

> <Gold.PLP.ligand.clash>
0.0000

> <Gold.PLP.ligand.torsion>
0.6778

> <Gold.PLP.Chemscore.Hbond>
1.0000

> <Gold.PLP.Chemscore.CHOScore>
3.0000

> <Gold.PLP.Chemscore.Metal>
0.0000

> <Gold.Chemscore.Hbonds>
donor molecule, donor type, donor heavy atom, donor atom, acceptor molecule, acceptor atom, score
      L1  H    10    31       P1  8028  0.91
      L1  C    14    36       P1  7957  1.00
      L1  C    15    37       P1 10175  1.00
      L1  C    17    38       P1  8028  1.00

> <Gold.PLP.Chemscore.Internal.Correction>
0.0409

> <Gold.Rescore>
     Score         DG    S(hbond)    S(metal)    S(lipo)     H(rot)  DE(clash)    DE(int)     intcor
     12.78     -15.86       0.94        0.00     108.80       2.15       1.03       2.06       ----

> <Gold.Chemscore.Fitness>
12.7772

> <Gold.Chemscore.DG>
-15.8615

> <Gold.Chemscore.ZeroCoef>
-5.4800

> <Gold.Chemscore.Hbond>
0.9439

> <Gold.Chemscore.Metal>
0.0000

> <Gold.Chemscore.Lipo>
108.7950

> <Gold.Chemscore.Internal_Hbond>
0.0000

> <Gold.Chemscore.DEClash>
1.0272

> <Gold.Chemscore.DEInternal>
2.0571

> <Gold.Chemscore.Rot>
2.1484

> <Gold.Chemscore.Internal.Correction>
   9.000000E+99

> <Gold.Chemscore.Hbonds>
donor molecule, donor type, donor heavy atom, donor atom, acceptor molecule, acceptor atom, score
      L1  H    10    31       P1  8028  0.88

> <Gold.Chemscore.Hbond.Weighted>
-3.1525

> <Gold.Chemscore.Metal.Weighted>
-0.0000

> <Gold.Chemscore.Lipo.Weighted>
-12.7290

> <Gold.Chemscore.Internal_Hbond.Weighted>
0.0000

> <Gold.Chemscore.DEClash.Weighted>
1.0272

> <Gold.Chemscore.DEInternal.Weighted>
2.0571

> <Gold.Chemscore.Rot.Weighted>
5.5000

> <Gold.Chemscore.Internal.Correction.Weighted>
   9.000000E+99

> <Gold.Protein.RotatedTorsions>
[ 6907 6896 6895 6894 ] final  -58.36 input  -60.11 | X-H torsion
[ 7974 7965 7964 7962 ] final  165.29 input  175.53 | X-H torsion
[ 8008 7997 7996 7995 ] final -155.93 input   59.86 | X-H torsion
[ 10167 10162 10161 10158 ] final    6.73 input  -65.29 | X-H torsion
[ 10718 10713 10712 10709 ] final  142.68 input   66.30 | X-H torsion
[ 10763 10752 10751 10750 ] final   53.76 input  -60.55 | X-H torsion
[ 11005 11000 10999 10996 ] final  127.26 input  -57.11 | X-H torsion

> <Gold.Protein.ActiveResidues>
 VAL166  LYS551  ARG553  GLY616  TRP617  ASP618  TYR619  PRO620  LYS621  CYS622 
 ASP623  PHE694  ASN695  SER759  ASP760  ASP761  ALA762  ILE779  LEU786  VAL792 
 PHE793  MET794  SER795  GLU796  ALA797  LYS798  CYS799  TRP800  GLU811  SER814 

> <Gold.Protein.RotatedAtoms>
  150.8013  134.7109  159.6602 H   0  0  0  0  0  0  0  0  0  0  0  0  # atno 6907 bound_to 6896
  152.4130  134.6087  160.0029 H   0  0  0  0  0  0  0  0  0  0  0  0  # atno 6908 bound_to 6896
  151.6324  133.3294  159.3148 H   0  0  0  0  0  0  0  0  0  0  0  0  # atno 6909 bound_to 6896
  144.7509  139.8449  143.6366 H   0  0  0  0  0  0  0  0  0  0  0  0  # atno 7974 bound_to 7965
  155.7095  140.0776  157.2377 H   0  0  0  0  0  0  0  0  0  0  0  0  # atno 8008 bound_to 7997
  154.4060  140.1632  156.2333 H   0  0  0  0  0  0  0  0  0  0  0  0  # atno 8009 bound_to 7997
  155.9296  140.3392  155.6241 H   0  0  0  0  0  0  0  0  0  0  0  0  # atno 8010 bound_to 7997
  140.6411  143.7771  150.7430 H   0  0  0  0  0  0  0  0  0  0  0  0  # atno 10167 bound_to 10162
  157.3778  131.0988  151.0768 H   0  0  0  0  0  0  0  0  0  0  0  0  # atno 10718 bound_to 10713
  152.9798  135.5768  154.4793 H   0  0  0  0  0  0  0  0  0  0  0  0  # atno 10763 bound_to 10752
  154.4344  135.2774  155.1892 H   0  0  0  0  0  0  0  0  0  0  0  0  # atno 10764 bound_to 10752
  154.3587  135.6193  153.5733 H   0  0  0  0  0  0  0  0  0  0  0  0  # atno 10765 bound_to 10752
  139.9498  134.9624  156.8828 H   0  0  0  0  0  0  0  0  0  0  0  0  # atno 11005 bound_to 11000
  146.1456  139.4525  143.0081 LP  0  0  0  0  0  0  0  0  0  0  0  0  # atno 17320 bound_to 7965
  145.6949  141.0153  143.1535 LP  0  0  0  0  0  0  0  0  0  0  0  0  # atno 17321 bound_to 7965
  140.1403  143.4447  152.2198 LP  0  0  0  0  0  0  0  0  0  0  0  0  # atno 17342 bound_to 10162
  139.5621  144.7412  151.4127 LP  0  0  0  0  0  0  0  0  0  0  0  0  # atno 17343 bound_to 10162
  157.1848  130.6325  149.5684 LP  0  0  0  0  0  0  0  0  0  0  0  0  # atno 17370 bound_to 10713
  155.9769  130.4741  150.6558 LP  0  0  0  0  0  0  0  0  0  0  0  0  # atno 17371 bound_to 10713
  140.5746  134.0410  155.7442 LP  0  0  0  0  0  0  0  0  0  0  0  0  # atno 17394 bound_to 11000
  141.1158  133.9542  157.2825 LP  0  0  0  0  0  0  0  0  0  0  0  0  # atno 17395 bound_to 11000

$$$$
