AV-unprocessed.smi:1630|AV-procd|sdf|6525|dock2
  -GOLD-   22720 7203D 1   1.00000     0.00000
 Structure written by MMmdl.
 36 37  0  0  0  0  0  0  0  0  1 V2000
  147.9730  122.3171  151.7898 C   0  0  0  0  0  0  0  0  0  0  0  0
  149.2387  123.3380  152.6490 S   0  0  0  0  0  0  0  0  0  0  0  0
  149.0432  123.1908  154.0996 O   0  0  0  0  0  0  0  0  0  0  0  0
  150.5489  123.0243  152.0576 O   0  0  0  0  0  0  0  0  0  0  0  0
  148.8072  125.0168  152.2032 C   0  0  0  0  0  0  0  0  0  0  0  0
  149.1644  125.5356  150.9423 C   0  0  0  0  0  0  0  0  0  0  0  0
  148.7711  126.8510  150.6296 C   0  0  0  0  0  0  0  0  0  0  0  0
  148.0215  127.5868  151.5806 C   0  0  0  0  0  0  0  0  0  0  0  0
  147.5789  128.9255  151.3990 N   0  0  0  0  0  0  0  0  0  0  0  0
  146.4193  129.4991  151.7774 C   0  0  0  0  0  0  0  0  0  0  0  0
  145.5240  128.9309  152.3981 O   0  0  0  0  0  0  0  0  0  0  0  0
  146.3050  130.7923  151.4229 N   0  0  0  0  0  0  0  0  0  0  0  0
  145.1871  131.7060  151.6733 C   0  0  0  0  0  0  0  0  0  0  0  0
  144.3576  131.9133  150.3919 C   0  0  0  0  0  0  0  0  0  0  0  0
  144.1128  133.4189  150.2860 C   0  0  0  0  0  0  0  0  0  0  0  0
  145.3442  134.0437  150.9324 C   0  0  0  0  0  0  0  0  0  0  0  0
  145.6724  133.1086  152.0972 C   0  0  0  0  0  0  0  0  0  0  0  0
  147.7187  126.9596  152.8084 C   0  0  0  0  0  0  0  0  0  0  0  0
  148.0893  125.6998  153.1197 N   0  0  0  0  0  0  0  0  0  0  0  0
  148.1494  121.2637  152.0054 H   0  0  0  0  0  0  0  0  0  0  0  0
  148.0388  122.4843  150.7150 H   0  0  0  0  0  0  0  0  0  0  0  0
  146.9802  122.5979  152.1408 H   0  0  0  0  0  0  0  0  0  0  0  0
  149.7304  124.9501  150.2330 H   0  0  0  0  0  0  0  0  0  0  0  0
  149.0620  127.2648  149.6774 H   0  0  0  0  0  0  0  0  0  0  0  0
  148.2432  129.5404  150.9517 H   0  0  0  0  0  0  0  0  0  0  0  0
  147.0753  131.1812  150.8981 H   0  0  0  0  0  0  0  0  0  0  0  0
  144.5390  131.2938  152.4487 H   0  0  0  0  0  0  0  0  0  0  0  0
  144.9184  131.5861  149.5145 H   0  0  0  0  0  0  0  0  0  0  0  0
  143.4256  131.3475  150.4064 H   0  0  0  0  0  0  0  0  0  0  0  0
  143.9641  133.7493  149.2575 H   0  0  0  0  0  0  0  0  0  0  0  0
  143.2228  133.6887  150.8558 H   0  0  0  0  0  0  0  0  0  0  0  0
  146.1700  134.0481  150.2198 H   0  0  0  0  0  0  0  0  0  0  0  0
  145.1753  135.0717  151.2538 H   0  0  0  0  0  0  0  0  0  0  0  0
  145.1182  133.4264  152.9812 H   0  0  0  0  0  0  0  0  0  0  0  0
  146.7314  133.1440  152.3560 H   0  0  0  0  0  0  0  0  0  0  0  0
  147.1554  127.4843  153.5663 H   0  0  0  0  0  0  0  0  0  0  0  0
  1  2  1  0  0  0  0
  1 20  1  0  0  0  0
  1 21  1  0  0  0  0
  1 22  1  0  0  0  0
  2  3  2  0  0  0  0
  2  4  2  0  0  0  0
  2  5  1  0  0  0  0
  5 19  1  0  0  0  0
  5  6  2  0  0  0  0
  6  7  1  0  0  0  0
  6 23  1  0  0  0  0
  7  8  2  0  0  0  0
  7 24  1  0  0  0  0
  8  9  1  0  0  0  0
  8 18  1  0  0  0  0
  9 10  1  0  0  0  0
  9 25  1  0  0  0  0
 10 11  2  0  0  0  0
 10 12  1  0  0  0  0
 12 13  1  0  0  0  0
 12 26  1  0  0  0  0
 13 17  1  0  0  0  0
 13 14  1  0  0  0  0
 13 27  1  0  0  0  0
 14 15  1  0  0  0  0
 14 28  1  0  0  0  0
 14 29  1  0  0  0  0
 15 16  1  0  0  0  0
 15 30  1  0  0  0  0
 15 31  1  0  0  0  0
 16 17  1  0  0  0  0
 16 32  1  0  0  0  0
 16 33  1  0  0  0  0
 17 34  1  0  0  0  0
 17 35  1  0  0  0  0
 18 19  2  0  0  0  0
 18 36  1  0  0  0  0
M  END
> <s_m_source_file>
AV-unprocessed.smi

> <i_m_source_file_index>
1630

> <i_lp_mmshare_version>
43012

> <i_f3d_flags>
0

> <s_epik_input>
W0NIM11TKD1PKSg9TyljMVtjSF1bY0hdYyhbY0hdbjEpW05IXUMoPU8pW05IXVtDSF0yW0NIMl1bQ0gyXVtDSDJdW0NIMl0y

> <s_epik_cmdline>
J2VwaWtfcHl0aG9uJywgJy1waCcsICc3LjAnLCAnLXRuJywgJzgnLCAnLW1hJywgJzIwMCcsICctbWV0YWxfYmluZGluZycsICctaW1hZScsICc8aW5maWxlLm1hZT4nLCAnLW9tYWUnLCAnPG91dGZpbGUubWFlPic=

> <r_lp_tautomer_probability>
1

> <r_epik_Ionization_Penalty>
4.04514e-05

> <r_epik_Ionization_Penalty_Charging>
0

> <r_epik_Ionization_Penalty_Neutral>
4.04514e-05

> <r_epik_State_Penalty>
-0

> <r_epik_Charging_Adjusted_Penalty>
0

> <i_epik_Tot_Q>
0

> <i_epik_Tot_abs_Q>
0

> <r_epik_Metal_State_Penalty>
-0

> <b_epik_Metal_Only>
0

> <s_lp_Force_Field>
OPLS_2005

> <r_lp_Energy>
32.1208

> <b_lp_Chiralities_Consistent>
1

> <s_lp_Variant>
AV-unprocessed.smi:1630-1

> <Gold.Version>
5.8.1

> <Gold.Id.Protein>
6NUR|6NUR_protein|mol2

> <Gold.PLP.Fitness>
39.4122

> <Gold.PLP.PLP>
-34.7628

> <Gold.PLP.part.hbond>
-2.6162

> <Gold.PLP.part.metal>
0.0000

> <Gold.PLP.part.buried>
-6.4442

> <Gold.PLP.part.nonpolar>
-26.4799

> <Gold.PLP.part.repulsive>
0.2775

> <Gold.PLP.ligand.clash>
0.0000

> <Gold.PLP.ligand.torsion>
1.5324

> <Gold.PLP.Chemscore.Hbond>
1.8960

> <Gold.PLP.Chemscore.CHOScore>
0.0000

> <Gold.PLP.Chemscore.Metal>
0.0000

> <Gold.Chemscore.Hbonds>
donor molecule, donor type, donor heavy atom, donor atom, acceptor molecule, acceptor atom, score
      L1  H     9    25       P1 10747  1.00
      L1  H    12    26       P1 10747  0.88

> <Gold.PLP.Chemscore.Internal.Correction>
2.0263

> <Gold.Rescore>
     Score         DG    S(hbond)    S(metal)    S(lipo)     H(rot)  DE(clash)    DE(int)     intcor
     13.04     -15.74       1.32        0.00      71.89       1.00       0.02       2.68       ----

> <Gold.Chemscore.Fitness>
13.0389

> <Gold.Chemscore.DG>
-15.7359

> <Gold.Chemscore.ZeroCoef>
-5.4800

> <Gold.Chemscore.Hbond>
1.3190

> <Gold.Chemscore.Metal>
0.0000

> <Gold.Chemscore.Lipo>
71.8853

> <Gold.Chemscore.Internal_Hbond>
0.0000

> <Gold.Chemscore.DEClash>
0.0155

> <Gold.Chemscore.DEInternal>
2.6816

> <Gold.Chemscore.Rot>
1.0000

> <Gold.Chemscore.Internal.Correction>
   9.000000E+99

> <Gold.Chemscore.Hbonds>
donor molecule, donor type, donor heavy atom, donor atom, acceptor molecule, acceptor atom, score
      L1  H     9    25       P1 10747  0.39
      L1  H    12    26       P1 10747  0.81

> <Gold.Chemscore.Hbond.Weighted>
-4.4053

> <Gold.Chemscore.Metal.Weighted>
-0.0000

> <Gold.Chemscore.Lipo.Weighted>
-8.4106

> <Gold.Chemscore.Internal_Hbond.Weighted>
0.0000

> <Gold.Chemscore.DEClash.Weighted>
0.0155

> <Gold.Chemscore.DEInternal.Weighted>
2.6816

> <Gold.Chemscore.Rot.Weighted>
2.5600

> <Gold.Chemscore.Internal.Correction.Weighted>
   9.000000E+99

> <Gold.Protein.RotatedTorsions>
[ 6907 6896 6895 6894 ] final   -6.18 input  -60.11 | X-H torsion
[ 7974 7965 7964 7962 ] final   14.12 input  175.53 | X-H torsion
[ 8008 7997 7996 7995 ] final  -88.42 input   59.86 | X-H torsion
[ 10167 10162 10161 10158 ] final   37.51 input  -65.29 | X-H torsion
[ 10718 10713 10712 10709 ] final   65.07 input   66.30 | X-H torsion
[ 10763 10752 10751 10750 ] final  -16.25 input  -60.55 | X-H torsion
[ 11005 11000 10999 10996 ] final  -36.31 input  -57.11 | X-H torsion

> <Gold.Protein.ActiveResidues>
 VAL166  LYS551  ARG553  GLY616  TRP617  ASP618  TYR619  PRO620  LYS621  CYS622 
 ASP623  PHE694  ASN695  SER759  ASP760  ASP761  ALA762  ILE779  LEU786  VAL792 
 PHE793  MET794  SER795  GLU796  ALA797  LYS798  CYS799  TRP800  GLU811  SER814 

> <Gold.Protein.RotatedAtoms>
  151.4697  135.1045  159.9747 H   0  0  0  0  0  0  0  0  0  0  0  0  # atno 6907 bound_to 6896
  152.4821  133.8277  159.7097 H   0  0  0  0  0  0  0  0  0  0  0  0  # atno 6908 bound_to 6896
  150.8901  133.7193  159.2934 H   0  0  0  0  0  0  0  0  0  0  0  0  # atno 6909 bound_to 6896
  146.2313  139.9088  142.8527 H   0  0  0  0  0  0  0  0  0  0  0  0  # atno 7974 bound_to 7965
  154.6746  140.0554  157.0202 H   0  0  0  0  0  0  0  0  0  0  0  0  # atno 8008 bound_to 7997
  155.1039  140.3231  155.4521 H   0  0  0  0  0  0  0  0  0  0  0  0  # atno 8009 bound_to 7997
  156.2671  140.2026  156.6165 H   0  0  0  0  0  0  0  0  0  0  0  0  # atno 8010 bound_to 7997
  140.4025  144.1703  150.6134 H   0  0  0  0  0  0  0  0  0  0  0  0  # atno 10167 bound_to 10162
  157.6081  130.9194  149.9929 H   0  0  0  0  0  0  0  0  0  0  0  0  # atno 10718 bound_to 10713
  153.5557  135.7011  153.5571 H   0  0  0  0  0  0  0  0  0  0  0  0  # atno 10763 bound_to 10752
  153.3475  135.4004  155.1620 H   0  0  0  0  0  0  0  0  0  0  0  0  # atno 10764 bound_to 10752
  154.8655  135.3757  154.5070 H   0  0  0  0  0  0  0  0  0  0  0  0  # atno 10765 bound_to 10752
  140.9865  133.7028  156.1774 H   0  0  0  0  0  0  0  0  0  0  0  0  # atno 11005 bound_to 11000
  145.2250  140.9950  143.4023 LP  0  0  0  0  0  0  0  0  0  0  0  0  # atno 17320 bound_to 7965
  144.9578  139.4013  143.6371 LP  0  0  0  0  0  0  0  0  0  0  0  0  # atno 17321 bound_to 7965
  140.4724  143.2408  151.9070 LP  0  0  0  0  0  0  0  0  0  0  0  0  # atno 17342 bound_to 10162
  139.4784  144.5355  151.8604 LP  0  0  0  0  0  0  0  0  0  0  0  0  # atno 17343 bound_to 10162
  156.1175  130.3647  149.9944 LP  0  0  0  0  0  0  0  0  0  0  0  0  # atno 17370 bound_to 10713
  156.8030  130.9297  151.3645 LP  0  0  0  0  0  0  0  0  0  0  0  0  # atno 17371 bound_to 10713
  140.7106  134.4465  157.5582 LP  0  0  0  0  0  0  0  0  0  0  0  0  # atno 17394 bound_to 11000
  139.8973  134.8640  156.2051 LP  0  0  0  0  0  0  0  0  0  0  0  0  # atno 17395 bound_to 11000

$$$$
