AV-unprocessed.smi:39|AV-procd|sdf|360|dock7
  -GOLD-   2262016203D 1   1.00000     0.00000
 Structure written by MMmdl.
 31 32  0  0  0  0  0  0  0  0  4 V2000
  150.7565  142.6803  159.0313 C   0  0  0  0  0  0  0  0  0  0  0  0
  151.0458  141.7773  157.8448 C   0  0  0  0  0  0  0  0  0  0  0  0
  150.2873  141.7909  156.7260 C   0  0  0  0  0  0  0  0  0  0  0  0
  150.5562  140.9667  155.6455 N   0  0  0  0  0  0  0  0  0  0  0  0
  149.7055  140.9875  154.3907 C   0  0  2  0  0  0  0  0  0  0  0  0
  148.4600  141.8649  154.5973 C   0  0  0  0  0  0  0  0  0  0  0  0
  147.3335  140.9561  154.1324 C   0  0  2  0  0  0  0  0  0  0  0  0
  146.0584  141.2420  154.7942 N   0  0  0  0  0  0  0  0  0  0  0  0
  145.5787  142.3672  154.6033 N   0  3  0  0  0  0  0  0  0  0  0  0
  145.1946  143.4363  154.5348 N   0  5  0  0  0  0  0  0  0  0  0  0
  147.8837  139.5763  154.4939 C   0  0  1  0  0  0  0  0  0  0  0  0
  147.2235  138.4246  153.7216 C   0  0  0  0  0  0  0  0  0  0  0  0
  147.4524  138.5814  152.3379 O   0  0  0  0  0  0  0  0  0  0  0  0
  149.2466  139.6980  154.1012 O   0  0  0  0  0  0  0  0  0  0  0  0
  151.6526  140.0671  155.7086 C   0  0  0  0  0  0  0  0  0  0  0  0
  151.8608  139.3414  154.7358 O   0  0  0  0  0  0  0  0  0  0  0  0
  152.4232  140.0464  156.8328 N   0  5  0  0  0  0  0  0  0  0  0  0
  152.1849  140.8537  157.9058 C   0  0  0  0  0  0  0  0  0  0  0  0
  152.8916  140.8281  158.9128 O   0  0  0  0  0  0  0  0  0  0  0  0
  150.3656  141.3243  153.5896 H   0  0  0  0  0  0  0  0  0  0  0  0
  147.2389  141.0280  153.0467 H   0  0  0  0  0  0  0  0  0  0  0  0
  147.8121  139.4213  155.5724 H   0  0  0  0  0  0  0  0  0  0  0  0
  149.8893  143.3143  158.8454 H   0  0  0  0  0  0  0  0  0  0  0  0
  151.6104  143.3271  159.2345 H   0  0  0  0  0  0  0  0  0  0  0  0
  150.5552  142.0855  159.9226 H   0  0  0  0  0  0  0  0  0  0  0  0
  149.4501  142.4705  156.6899 H   0  0  0  0  0  0  0  0  0  0  0  0
  148.3506  142.1151  155.6544 H   0  0  0  0  0  0  0  0  0  0  0  0
  148.5334  142.7882  154.0220 H   0  0  0  0  0  0  0  0  0  0  0  0
  147.6599  137.4710  154.0202 H   0  0  0  0  0  0  0  0  0  0  0  0
  146.1540  138.3704  153.9266 H   0  0  0  0  0  0  0  0  0  0  0  0
  147.8610  137.7933  152.0133 H   0  0  0  0  0  0  0  0  0  0  0  0
  1  2  1  0  0  0  0
  1 23  1  0  0  0  0
  1 24  1  0  0  0  0
  1 25  1  0  0  0  0
  2 18  1  0  0  0  0
  2  3  2  0  0  0  0
  3  4  1  0  0  0  0
  3 26  1  0  0  0  0
  4  5  1  0  0  0  0
  4 15  1  0  0  0  0
  5 20  1  0  0  0  0
  5 14  1  0  0  0  0
  5  6  1  0  0  0  0
  6  7  1  0  0  0  0
  6 27  1  0  0  0  0
  6 28  1  0  0  0  0
  7 21  1  0  0  0  0
  7  8  1  0  0  0  0
  7 11  1  0  0  0  0
  8  9  2  0  0  0  0
  9 10  2  0  0  0  0
 11 22  1  0  0  0  0
 11 12  1  0  0  0  0
 11 14  1  0  0  0  0
 12 13  1  0  0  0  0
 12 29  1  0  0  0  0
 12 30  1  0  0  0  0
 13 31  1  0  0  0  0
 15 16  2  0  0  0  0
 15 17  1  0  0  0  0
 17 18  1  0  0  0  0
 18 19  2  0  0  0  0
M  CHG  1   9   1
M  CHG  1  10  -1
M  CHG  1  17  -1
M  END
> <s_m_source_file>
AV-unprocessed.smi

> <i_m_source_file_index>
39

> <i_lp_mmshare_version>
43012

> <i_f3d_flags>
0

> <s_epik_input>
Tz1jMVtuSF1jKD1PKW4oW2NIXWMxW0NIM10pW0NASF0yW0NIMl1bQ0BIXShOPVtOK109W04tXSlbQ0BIXShPMilbQ0gyXVtPSF0=

> <s_epik_cmdline>
J2VwaWtfcHl0aG9uJywgJy1waCcsICc3LjAnLCAnLXRuJywgJzgnLCAnLW1hJywgJzIwMCcsICctbWV0YWxfYmluZGluZycsICctaW1hZScsICc8aW5maWxlLm1hZT4nLCAnLW9tYWUnLCAnPG91dGZpbGUubWFlPic=

> <r_lp_tautomer_probability>
0.999537

> <r_epik_Ionization_Penalty>
3.6393

> <r_epik_Ionization_Penalty_Charging>
9.76484e-08

> <r_epik_Ionization_Penalty_Neutral>
3.6393

> <r_epik_State_Penalty>
3.63887

> <r_epik_Charging_Adjusted_Penalty>
3.63887

> <i_epik_Tot_Q>
-1

> <i_epik_Tot_abs_Q>
3

> <r_epik_Metal_State_Penalty>
0.225911

> <b_epik_Metal_Only>
1

> <s_epik_Chemistry_Notes>
This compound contains an acetal/aminal-like group ( X-CH(R)-Y where X, Y are N, S, or O) that may be acid/base labile, releasing an aldehyde.

> <s_lp_Force_Field>
OPLS_2005

> <r_lp_Energy>
32.3737

> <b_lp_Chiralities_Consistent>
1

> <s_lp_Variant>
AV-unprocessed.smi:39-10

> <Gold.Version>
5.8.1

> <Gold.Id.Protein>
6NUR|6NUR_protein|mol2

> <Gold.PLP.Fitness>
39.8891

> <Gold.PLP.PLP>
-26.4517

> <Gold.PLP.part.hbond>
-4.0000

> <Gold.PLP.part.metal>
0.0000

> <Gold.PLP.part.buried>
-1.8868

> <Gold.PLP.part.nonpolar>
-21.1105

> <Gold.PLP.part.repulsive>
1.5602

> <Gold.PLP.ligand.clash>
0.0000

> <Gold.PLP.ligand.torsion>
0.1239

> <Gold.PLP.Chemscore.Hbond>
3.5500

> <Gold.PLP.Chemscore.CHOScore>
1.0000

> <Gold.PLP.Chemscore.Metal>
0.0000

> <Gold.Chemscore.Hbonds>
donor molecule, donor type, donor heavy atom, donor atom, acceptor molecule, acceptor atom, score
      L1  H    13    31       P1  7948  1.00
      P1  H  7989  7998       L1    16  0.60
      P1  H  7997  8010       L1    17  2.00
      L1  C     3    26       P1  8028  0.98

> <Gold.PLP.Chemscore.Internal.Correction>
0.0351

> <Gold.Rescore>
     Score         DG    S(hbond)    S(metal)    S(lipo)     H(rot)  DE(clash)    DE(int)     intcor
      7.66      -9.37       1.90        0.00      38.38       2.72       0.32       1.39       ----

> <Gold.Chemscore.Fitness>
7.6556

> <Gold.Chemscore.DG>
-9.3740

> <Gold.Chemscore.ZeroCoef>
-5.4800

> <Gold.Chemscore.Hbond>
1.9027

> <Gold.Chemscore.Metal>
0.0000

> <Gold.Chemscore.Lipo>
38.3784

> <Gold.Chemscore.Internal_Hbond>
0.0000

> <Gold.Chemscore.DEClash>
0.3236

> <Gold.Chemscore.DEInternal>
1.3948

> <Gold.Chemscore.Rot>
2.7153

> <Gold.Chemscore.Internal.Correction>
   9.000000E+99

> <Gold.Chemscore.Hbonds>
donor molecule, donor type, donor heavy atom, donor atom, acceptor molecule, acceptor atom, score
      L1  H    13    31       P1  7948  1.00
      P1  H  7989  7998       L1    16  0.04
      P1  H  7997  8010       L1    17  0.52

> <Gold.Chemscore.Hbond.Weighted>
-6.3549

> <Gold.Chemscore.Metal.Weighted>
-0.0000

> <Gold.Chemscore.Lipo.Weighted>
-4.4903

> <Gold.Chemscore.Internal_Hbond.Weighted>
0.0000

> <Gold.Chemscore.DEClash.Weighted>
0.3236

> <Gold.Chemscore.DEInternal.Weighted>
1.3948

> <Gold.Chemscore.Rot.Weighted>
6.9512

> <Gold.Chemscore.Internal.Correction.Weighted>
   9.000000E+99

> <Gold.Protein.RotatedTorsions>
[ 6907 6896 6895 6894 ] final -105.39 input  -60.11 | X-H torsion
[ 7974 7965 7964 7962 ] final -112.69 input  175.53 | X-H torsion
[ 8008 7997 7996 7995 ] final   69.30 input   59.86 | X-H torsion
[ 10167 10162 10161 10158 ] final   80.60 input  -65.29 | X-H torsion
[ 10718 10713 10712 10709 ] final   63.15 input   66.30 | X-H torsion
[ 10763 10752 10751 10750 ] final    0.70 input  -60.55 | X-H torsion
[ 11005 11000 10999 10996 ] final  -34.93 input  -57.11 | X-H torsion

> <Gold.Protein.ActiveResidues>
 VAL166  LYS551  ARG553  GLY616  TRP617  ASP618  TYR619  PRO620  LYS621  CYS622 
 ASP623  PHE694  ASN695  SER759  ASP760  ASP761  ALA762  ILE779  LEU786  VAL792 
 PHE793  MET794  SER795  GLU796  ALA797  LYS798  CYS799  TRP800  GLU811  SER814 

> <Gold.Protein.RotatedAtoms>
  150.7334  134.0134  159.3676 H   0  0  0  0  0  0  0  0  0  0  0  0  # atno 6907 bound_to 6896
  151.8095  135.0683  160.0420 H   0  0  0  0  0  0  0  0  0  0  0  0  # atno 6908 bound_to 6896
  152.3083  133.5690  159.5700 H   0  0  0  0  0  0  0  0  0  0  0  0  # atno 6909 bound_to 6896
  145.1410  140.8777  143.3702 H   0  0  0  0  0  0  0  0  0  0  0  0  # atno 7974 bound_to 7965
  155.7216  140.3493  155.5018 H   0  0  0  0  0  0  0  0  0  0  0  0  # atno 8008 bound_to 7997
  155.9265  140.1076  157.1188 H   0  0  0  0  0  0  0  0  0  0  0  0  # atno 8009 bound_to 7997
  154.4078  140.1239  156.4733 H   0  0  0  0  0  0  0  0  0  0  0  0  # atno 8010 bound_to 7997
  139.9481  144.6045  150.8187 H   0  0  0  0  0  0  0  0  0  0  0  0  # atno 10167 bound_to 10162
  157.5951  130.9090  149.9679 H   0  0  0  0  0  0  0  0  0  0  0  0  # atno 10718 bound_to 10713
  153.3174  135.6967  153.7061 H   0  0  0  0  0  0  0  0  0  0  0  0  # atno 10763 bound_to 10752
  153.5915  135.3479  155.2913 H   0  0  0  0  0  0  0  0  0  0  0  0  # atno 10764 bound_to 10752
  154.8589  135.4319  154.2329 H   0  0  0  0  0  0  0  0  0  0  0  0  # atno 10765 bound_to 10752
  140.9756  133.7085  156.1596 H   0  0  0  0  0  0  0  0  0  0  0  0  # atno 11005 bound_to 11000
  145.0532  139.3164  143.5918 LP  0  0  0  0  0  0  0  0  0  0  0  0  # atno 17320 bound_to 7965
  146.3505  139.9948  142.8682 LP  0  0  0  0  0  0  0  0  0  0  0  0  # atno 17321 bound_to 7965
  140.7591  143.3122  151.2819 LP  0  0  0  0  0  0  0  0  0  0  0  0  # atno 17342 bound_to 10162
  139.6650  144.0121  152.2717 LP  0  0  0  0  0  0  0  0  0  0  0  0  # atno 17343 bound_to 10162
  156.1012  130.3655  150.0214 LP  0  0  0  0  0  0  0  0  0  0  0  0  # atno 17370 bound_to 10713
  156.8329  130.9398  151.3636 LP  0  0  0  0  0  0  0  0  0  0  0  0  # atno 17371 bound_to 10713
  140.7264  134.4302  157.5570 LP  0  0  0  0  0  0  0  0  0  0  0  0  # atno 17394 bound_to 11000
  139.8929  134.8743  156.2249 LP  0  0  0  0  0  0  0  0  0  0  0  0  # atno 17395 bound_to 11000

$$$$
