AV-unprocessed.smi:2693|AV-procd|sdf|10398|dock8
  -GOLD-   2272014433D 1   1.00000     0.00000
 Structure written by MMmdl.
 45 47  0  0  0  0  0  0  0  0  1 V2000
  151.5571  140.7087  158.4152 C   0  0  0  0  0  0  0  0  0  0  0  0
  150.9276  141.0103  157.1329 N   0  0  0  0  0  0  0  0  0  0  0  0
  150.9690  142.3936  156.6680 C   0  0  0  0  0  0  0  0  0  0  0  0
  150.3069  140.0109  156.3778 C   0  0  0  0  0  0  0  0  0  0  0  0
  150.5135  140.0185  155.0542 N   0  0  0  0  0  0  0  0  0  0  0  0
  149.9195  139.0520  154.3229 C   0  0  0  0  0  0  0  0  0  0  0  0
  149.1015  138.0665  154.9108 C   0  0  0  0  0  0  0  0  0  0  0  0
  148.5266  137.0627  154.0861 N   0  0  0  0  0  0  0  0  0  0  0  0
  147.4469  136.3020  154.3327 C   0  0  0  0  0  0  0  0  0  0  0  0
  146.6972  136.4237  155.3010 O   0  0  0  0  0  0  0  0  0  0  0  0
  147.2684  135.3853  153.3729 N   0  0  0  0  0  0  0  0  0  0  0  0
  146.2013  134.3915  153.3752 C   0  0  1  0  0  0  0  0  0  0  0  0
  145.7316  134.0325  151.9653 C   0  0  2  0  0  0  0  0  0  0  0  0
  144.4685  134.2229  151.2040 C   0  0  0  0  0  0  0  0  0  0  0  0
  144.3445  132.7840  150.6347 C   0  0  0  0  0  0  0  0  0  0  0  0
  145.3323  131.9914  151.3381 O   0  0  0  0  0  0  0  0  0  0  0  0
  145.4854  132.6641  152.5708 C   0  0  1  0  0  0  0  0  0  0  0  0
  146.7219  132.9063  153.4588 C   0  0  0  0  0  0  0  0  0  0  0  0
  148.1045  132.5461  152.8779 C   0  0  0  0  0  0  0  0  0  0  0  0
  146.6617  132.2687  154.8473 C   0  0  0  0  0  0  0  0  0  0  0  0
  148.9562  138.1467  156.3164 C   0  0  0  0  0  0  0  0  0  0  0  0
  149.5578  139.1170  157.0367 N   0  0  0  0  0  0  0  0  0  0  0  0
  150.8128  140.3536  159.1286 H   0  0  0  0  0  0  0  0  0  0  0  0
  152.0427  141.5840  158.8467 H   0  0  0  0  0  0  0  0  0  0  0  0
  152.3160  139.9349  158.2946 H   0  0  0  0  0  0  0  0  0  0  0  0
  149.9609  142.7622  156.4744 H   0  0  0  0  0  0  0  0  0  0  0  0
  151.5448  142.4662  155.7449 H   0  0  0  0  0  0  0  0  0  0  0  0
  151.4274  143.0569  157.4015 H   0  0  0  0  0  0  0  0  0  0  0  0
  150.1006  139.0677  153.2581 H   0  0  0  0  0  0  0  0  0  0  0  0
  148.9893  136.9094  153.2020 H   0  0  0  0  0  0  0  0  0  0  0  0
  147.9228  135.3562  152.6050 H   0  0  0  0  0  0  0  0  0  0  0  0
  145.3771  134.6196  154.0573 H   0  0  0  0  0  0  0  0  0  0  0  0
  146.5736  134.0478  151.2694 H   0  0  0  0  0  0  0  0  0  0  0  0
  143.6326  134.4777  151.8570 H   0  0  0  0  0  0  0  0  0  0  0  0
  144.5535  134.9771  150.4213 H   0  0  0  0  0  0  0  0  0  0  0  0
  143.3438  132.3846  150.8037 H   0  0  0  0  0  0  0  0  0  0  0  0
  144.5462  132.7504  149.5637 H   0  0  0  0  0  0  0  0  0  0  0  0
  144.5645  132.6006  153.1619 H   0  0  0  0  0  0  0  0  0  0  0  0
  148.2178  131.4660  152.7793 H   0  0  0  0  0  0  0  0  0  0  0  0
  148.9093  132.8965  153.5249 H   0  0  0  0  0  0  0  0  0  0  0  0
  148.2916  132.9691  151.8927 H   0  0  0  0  0  0  0  0  0  0  0  0
  146.7470  131.1832  154.7929 H   0  0  0  0  0  0  0  0  0  0  0  0
  145.7214  132.4937  155.3514 H   0  0  0  0  0  0  0  0  0  0  0  0
  147.4638  132.6313  155.4907 H   0  0  0  0  0  0  0  0  0  0  0  0
  148.3837  137.4331  156.8878 H   0  0  0  0  0  0  0  0  0  0  0  0
  1  2  1  0  0  0  0
  1 23  1  0  0  0  0
  1 24  1  0  0  0  0
  1 25  1  0  0  0  0
  2  3  1  0  0  0  0
  2  4  1  0  0  0  0
  3 26  1  0  0  0  0
  3 27  1  0  0  0  0
  3 28  1  0  0  0  0
  4 22  1  0  0  0  0
  4  5  2  0  0  0  0
  5  6  1  0  0  0  0
  6  7  2  0  0  0  0
  6 29  1  0  0  0  0
  7  8  1  0  0  0  0
  7 21  1  0  0  0  0
  8  9  1  0  0  0  0
  8 30  1  0  0  0  0
  9 10  2  0  0  0  0
  9 11  1  0  0  0  0
 11 12  1  0  0  0  0
 11 31  1  0  0  0  0
 12 18  1  0  0  0  0
 12 13  1  0  0  0  0
 12 32  1  0  0  0  0
 13 17  1  0  0  0  0
 13 14  1  0  0  0  0
 13 33  1  0  0  0  0
 14 15  1  0  0  0  0
 14 34  1  0  0  0  0
 14 35  1  0  0  0  0
 15 16  1  0  0  0  0
 15 36  1  0  0  0  0
 15 37  1  0  0  0  0
 16 17  1  0  0  0  0
 17 18  1  0  0  0  0
 17 38  1  0  0  0  0
 18 19  1  0  0  0  0
 18 20  1  0  0  0  0
 19 39  1  0  0  0  0
 19 40  1  0  0  0  0
 19 41  1  0  0  0  0
 20 42  1  0  0  0  0
 20 43  1  0  0  0  0
 20 44  1  0  0  0  0
 21 22  2  0  0  0  0
 21 45  1  0  0  0  0
M  END
> <s_m_source_file>
AV-unprocessed.smi

> <i_m_source_file_index>
2693

> <i_lp_mmshare_version>
43012

> <i_f3d_flags>
0

> <s_epik_input>
W0NIM11OKFtDSDNdKWMxbltjSF1jKFtjSF1uMSlbTkhdQyg9TylbTkhdW0NASF0yQyhbQ0gzXSkoW0NIM10pW0NAQEhdKFtDQEhdMjMpT1tDSDJdW0NIMl0z

> <s_epik_cmdline>
J2VwaWtfcHl0aG9uJywgJy1waCcsICc3LjAnLCAnLXRuJywgJzgnLCAnLW1hJywgJzIwMCcsICctbWV0YWxfYmluZGluZycsICctaW1hZScsICc8aW5maWxlLm1hZT4nLCAnLW9tYWUnLCAnPG91dGZpbGUubWFlPic=

> <r_lp_tautomer_probability>
1

> <r_epik_Ionization_Penalty>
0.00031779

> <r_epik_Ionization_Penalty_Charging>
0

> <r_epik_Ionization_Penalty_Neutral>
0.00031779

> <r_epik_State_Penalty>
-0

> <r_epik_Charging_Adjusted_Penalty>
0

> <i_epik_Tot_Q>
0

> <i_epik_Tot_abs_Q>
0

> <r_epik_Metal_State_Penalty>
-0

> <b_epik_Metal_Only>
0

> <s_lp_Force_Field>
OPLS_2005

> <r_lp_Energy>
52.7678

> <b_lp_Chiralities_Consistent>
1

> <s_lp_Variant>
AV-unprocessed.smi:2693-2

> <Gold.Version>
5.8.1

> <Gold.Id.Protein>
6NUR|6NUR_protein|mol2

> <Gold.PLP.Fitness>
36.3016

> <Gold.PLP.PLP>
-26.5694

> <Gold.PLP.part.hbond>
-2.5191

> <Gold.PLP.part.metal>
0.0000

> <Gold.PLP.part.buried>
-3.4315

> <Gold.PLP.part.nonpolar>
-21.0459

> <Gold.PLP.part.repulsive>
0.2103

> <Gold.PLP.ligand.clash>
0.0000

> <Gold.PLP.ligand.torsion>
0.9739

> <Gold.PLP.Chemscore.Hbond>
2.8041

> <Gold.PLP.Chemscore.CHOScore>
1.0000

> <Gold.PLP.Chemscore.Metal>
0.0000

> <Gold.Chemscore.Hbonds>
donor molecule, donor type, donor heavy atom, donor atom, acceptor molecule, acceptor atom, score
      L1  H     8    30       P1  7948  0.87
      L1  H    11    31       P1  7948  0.84
      P1  H  7989  7998       L1     5  0.70
      L1  C     6    29       P1  7957  1.00

> <Gold.PLP.Chemscore.Internal.Correction>
0.2675

> <Gold.Rescore>
     Score         DG    S(hbond)    S(metal)    S(lipo)     H(rot)  DE(clash)    DE(int)     intcor
     15.44     -17.51       2.29        0.00      59.47       1.00       0.06       2.01       ----

> <Gold.Chemscore.Fitness>
15.4375

> <Gold.Chemscore.DG>
-17.5101

> <Gold.Chemscore.ZeroCoef>
-5.4800

> <Gold.Chemscore.Hbond>
2.2852

> <Gold.Chemscore.Metal>
0.0000

> <Gold.Chemscore.Lipo>
59.4651

> <Gold.Chemscore.Internal_Hbond>
0.0000

> <Gold.Chemscore.DEClash>
0.0600

> <Gold.Chemscore.DEInternal>
2.0126

> <Gold.Chemscore.Rot>
1.0000

> <Gold.Chemscore.Internal.Correction>
   9.000000E+99

> <Gold.Chemscore.Hbonds>
donor molecule, donor type, donor heavy atom, donor atom, acceptor molecule, acceptor atom, score
      L1  H     8    30       P1  7948  0.80
      L1  H    11    31       P1  7948  0.77
      P1  H  7989  7998       L1     5  0.12

> <Gold.Chemscore.Hbond.Weighted>
-7.6327

> <Gold.Chemscore.Metal.Weighted>
-0.0000

> <Gold.Chemscore.Lipo.Weighted>
-6.9574

> <Gold.Chemscore.Internal_Hbond.Weighted>
0.0000

> <Gold.Chemscore.DEClash.Weighted>
0.0600

> <Gold.Chemscore.DEInternal.Weighted>
2.0126

> <Gold.Chemscore.Rot.Weighted>
2.5600

> <Gold.Chemscore.Internal.Correction.Weighted>
   9.000000E+99

> <Gold.Protein.RotatedTorsions>
[ 6907 6896 6895 6894 ] final  -57.25 input  -60.11 | X-H torsion
[ 7974 7965 7964 7962 ] final  160.81 input  175.53 | X-H torsion
[ 8008 7997 7996 7995 ] final -129.16 input   59.86 | X-H torsion
[ 10167 10162 10161 10158 ] final  179.82 input  -65.29 | X-H torsion
[ 10718 10713 10712 10709 ] final  -53.32 input   66.30 | X-H torsion
[ 10763 10752 10751 10750 ] final  159.56 input  -60.55 | X-H torsion
[ 11005 11000 10999 10996 ] final   82.97 input  -57.11 | X-H torsion

> <Gold.Protein.ActiveResidues>
 VAL166  LYS551  ARG553  GLY616  TRP617  ASP618  TYR619  PRO620  LYS621  CYS622 
 ASP623  PHE694  ASN695  SER759  ASP760  ASP761  ALA762  ILE779  LEU786  VAL792 
 PHE793  MET794  SER795  GLU796  ALA797  LYS798  CYS799  TRP800  GLU811  SER814 

> <Gold.Protein.RotatedAtoms>
  150.8101  134.7250  159.6679 H   0  0  0  0  0  0  0  0  0  0  0  0  # atno 6907 bound_to 6896
  152.4221  134.5933  159.9990 H   0  0  0  0  0  0  0  0  0  0  0  0  # atno 6908 bound_to 6896
  151.6145  133.3307  159.3110 H   0  0  0  0  0  0  0  0  0  0  0  0  # atno 6909 bound_to 6896
  144.7717  139.7810  143.6294 H   0  0  0  0  0  0  0  0  0  0  0  0  # atno 7974 bound_to 7965
  155.2746  140.0441  157.3010 H   0  0  0  0  0  0  0  0  0  0  0  0  # atno 8008 bound_to 7997
  154.5633  140.2352  155.8270 H   0  0  0  0  0  0  0  0  0  0  0  0  # atno 8009 bound_to 7997
  156.2065  140.3011  155.9645 H   0  0  0  0  0  0  0  0  0  0  0  0  # atno 8010 bound_to 7997
  139.5353  144.2515  152.0781 H   0  0  0  0  0  0  0  0  0  0  0  0  # atno 10167 bound_to 10162
  156.1545  130.4150  149.9891 H   0  0  0  0  0  0  0  0  0  0  0  0  # atno 10718 bound_to 10713
  154.2337  135.2777  155.2880 H   0  0  0  0  0  0  0  0  0  0  0  0  # atno 10763 bound_to 10752
  154.5603  135.5649  153.7004 H   0  0  0  0  0  0  0  0  0  0  0  0  # atno 10764 bound_to 10752
  153.0015  135.6296  154.2479 H   0  0  0  0  0  0  0  0  0  0  0  0  # atno 10765 bound_to 10752
  139.9046  134.8110  156.2246 H   0  0  0  0  0  0  0  0  0  0  0  0  # atno 11005 bound_to 11000
  146.1869  139.5089  142.9830 LP  0  0  0  0  0  0  0  0  0  0  0  0  # atno 17320 bound_to 7965
  145.6303  141.0305  143.1866 LP  0  0  0  0  0  0  0  0  0  0  0  0  # atno 17321 bound_to 7965
  140.1985  144.4682  150.6443 LP  0  0  0  0  0  0  0  0  0  0  0  0  # atno 17342 bound_to 10162
  140.6556  143.2237  151.5976 LP  0  0  0  0  0  0  0  0  0  0  0  0  # atno 17343 bound_to 10162
  156.7738  130.9196  151.3645 LP  0  0  0  0  0  0  0  0  0  0  0  0  # atno 17370 bound_to 10713
  157.6684  130.9028  149.9984 LP  0  0  0  0  0  0  0  0  0  0  0  0  # atno 17371 bound_to 10713
  141.0384  133.6951  156.1554 LP  0  0  0  0  0  0  0  0  0  0  0  0  # atno 17394 bound_to 11000
  140.6992  134.4582  157.5586 LP  0  0  0  0  0  0  0  0  0  0  0  0  # atno 17395 bound_to 11000

$$$$
