AV-unprocessed.smi:1412|AV-procd|sdf|5740|dock9
  -GOLD-   22720 5373D 1   1.00000     0.00000
 Structure written by MMmdl.
 41 42  0  0  0  0  0  0  0  0  1 V2000
  151.3670  137.7006  154.5976 C   0  0  0  0  0  0  0  0  0  0  0  0
  150.5507  138.9132  154.1101 C   0  0  0  0  0  0  0  0  0  0  0  0
  149.3842  139.4245  155.0227 C   0  0  1  0  0  0  0  0  0  0  0  0
  148.4367  140.2948  154.1580 C   0  0  0  0  0  0  0  0  0  0  0  0
  148.5629  138.1908  155.5069 C   0  0  0  0  0  0  0  0  0  0  0  0
  148.0965  137.3749  154.3884 N   0  0  0  0  0  0  0  0  0  0  0  0
  146.8443  136.9299  154.2224 C   0  0  0  0  0  0  0  0  0  0  0  0
  145.9363  137.1375  155.0271 O   0  0  0  0  0  0  0  0  0  0  0  0
  146.7241  136.2427  153.0751 N   0  0  0  0  0  0  0  0  0  0  0  0
  145.5562  135.6520  152.5310 C   0  0  0  0  0  0  0  0  0  0  0  0
  144.4715  135.5709  153.3104 N   0  0  0  0  0  0  0  0  0  0  0  0
  143.4038  134.9685  152.6559 N   0  0  0  0  0  0  0  0  0  0  0  0
  143.7261  134.6176  151.4073 C   0  0  0  0  0  0  0  0  0  0  0  0
  145.3660  134.9887  150.9052 S   0  0  0  0  0  0  0  0  0  0  0  0
  149.9416  140.1824  156.1860 N   0  0  0  0  0  0  0  0  0  0  0  0
  150.9217  139.4467  156.9966 C   0  0  0  0  0  0  0  0  0  0  0  0
  151.3589  140.2347  158.2433 C   0  0  0  0  0  0  0  0  0  0  0  0
  151.8840  141.4971  157.8545 O   0  0  0  0  0  0  0  0  0  0  0  0
  150.9404  142.2705  157.1254 C   0  0  0  0  0  0  0  0  0  0  0  0
  150.5034  141.5026  155.8665 C   0  0  0  0  0  0  0  0  0  0  0  0
  152.0791  137.3953  153.8310 H   0  0  0  0  0  0  0  0  0  0  0  0
  150.7362  136.8386  154.8107 H   0  0  0  0  0  0  0  0  0  0  0  0
  151.9495  137.9283  155.4898 H   0  0  0  0  0  0  0  0  0  0  0  0
  151.2484  139.7306  153.9221 H   0  0  0  0  0  0  0  0  0  0  0  0
  150.1552  138.6335  153.1341 H   0  0  0  0  0  0  0  0  0  0  0  0
  148.0001  139.7225  153.3401 H   0  0  0  0  0  0  0  0  0  0  0  0
  148.9531  141.1421  153.7076 H   0  0  0  0  0  0  0  0  0  0  0  0
  147.5989  140.6866  154.7337 H   0  0  0  0  0  0  0  0  0  0  0  0
  149.1414  137.5597  156.1803 H   0  0  0  0  0  0  0  0  0  0  0  0
  147.7214  138.5137  156.1206 H   0  0  0  0  0  0  0  0  0  0  0  0
  148.7803  137.1540  153.6790 H   0  0  0  0  0  0  0  0  0  0  0  0
  147.5599  136.1435  152.5181 H   0  0  0  0  0  0  0  0  0  0  0  0
  142.9925  134.1365  150.7775 H   0  0  0  0  0  0  0  0  0  0  0  0
  150.5140  138.4998  157.3437 H   0  0  0  0  0  0  0  0  0  0  0  0
  151.8046  139.2142  156.4012 H   0  0  0  0  0  0  0  0  0  0  0  0
  150.5186  140.3757  158.9249 H   0  0  0  0  0  0  0  0  0  0  0  0
  152.1247  139.6839  158.7894 H   0  0  0  0  0  0  0  0  0  0  0  0
  150.0800  142.4999  157.7561 H   0  0  0  0  0  0  0  0  0  0  0  0
  151.3973  143.2207  156.8491 H   0  0  0  0  0  0  0  0  0  0  0  0
  151.3637  141.3986  155.2056 H   0  0  0  0  0  0  0  0  0  0  0  0
  149.7774  142.1252  155.3487 H   0  0  0  0  0  0  0  0  0  0  0  0
  1  2  1  0  0  0  0
  1 21  1  0  0  0  0
  1 22  1  0  0  0  0
  1 23  1  0  0  0  0
  2  3  1  0  0  0  0
  2 24  1  0  0  0  0
  2 25  1  0  0  0  0
  3  4  1  0  0  0  0
  3  5  1  0  0  0  0
  3 15  1  0  0  0  0
  4 26  1  0  0  0  0
  4 27  1  0  0  0  0
  4 28  1  0  0  0  0
  5  6  1  0  0  0  0
  5 29  1  0  0  0  0
  5 30  1  0  0  0  0
  6  7  1  0  0  0  0
  6 31  1  0  0  0  0
  7  8  2  0  0  0  0
  7  9  1  0  0  0  0
  9 10  1  0  0  0  0
  9 32  1  0  0  0  0
 10 14  1  0  0  0  0
 10 11  2  0  0  0  0
 11 12  1  0  0  0  0
 12 13  2  0  0  0  0
 13 14  1  0  0  0  0
 13 33  1  0  0  0  0
 15 20  1  0  0  0  0
 15 16  1  0  0  0  0
 16 17  1  0  0  0  0
 16 34  1  0  0  0  0
 16 35  1  0  0  0  0
 17 18  1  0  0  0  0
 17 36  1  0  0  0  0
 17 37  1  0  0  0  0
 18 19  1  0  0  0  0
 19 20  1  0  0  0  0
 19 38  1  0  0  0  0
 19 39  1  0  0  0  0
 20 40  1  0  0  0  0
 20 41  1  0  0  0  0
M  END
> <s_m_source_file>
AV-unprocessed.smi

> <i_m_source_file_index>
1412

> <i_lp_mmshare_version>
43012

> <i_f3d_flags>
0

> <s_epik_input>
W0NIMl0xW0NIMl1PW0NIMl1bQ0gyXU4xW0NAQF0oW0NIM10pKFtDSDJdW0NIM10pW0NIMl1bTkhdQyg9TylbTkhdYzJubltjSF1zMg==

> <s_epik_cmdline>
J2VwaWtfcHl0aG9uJywgJy1waCcsICc3LjAnLCAnLXRuJywgJzgnLCAnLW1hJywgJzIwMCcsICctbWV0YWxfYmluZGluZycsICctaW1hZScsICc8aW5maWxlLm1hZT4nLCAnLW9tYWUnLCAnPG91dGZpbGUubWFlPic=

> <r_lp_tautomer_probability>
1

> <r_epik_Ionization_Penalty>
0.295854

> <r_epik_Ionization_Penalty_Charging>
0

> <r_epik_Ionization_Penalty_Neutral>
0.295854

> <r_epik_State_Penalty>
0.288723

> <r_epik_Charging_Adjusted_Penalty>
0.288723

> <i_epik_Tot_Q>
0

> <i_epik_Tot_abs_Q>
0

> <r_epik_Metal_State_Penalty>
0.510549

> <b_epik_Metal_Only>
0

> <s_lp_Force_Field>
OPLS_2005

> <r_lp_Energy>
43.1066

> <b_lp_Chiralities_Consistent>
1

> <s_lp_Variant>
AV-unprocessed.smi:1412-1

> <Gold.Version>
5.8.1

> <Gold.Id.Protein>
6NUR|6NUR_protein|mol2

> <Gold.PLP.Fitness>
34.1915

> <Gold.PLP.PLP>
-26.4100

> <Gold.PLP.part.hbond>
-1.9924

> <Gold.PLP.part.metal>
0.0000

> <Gold.PLP.part.buried>
-3.2936

> <Gold.PLP.part.nonpolar>
-21.2647

> <Gold.PLP.part.repulsive>
0.2518

> <Gold.PLP.ligand.clash>
0.0000

> <Gold.PLP.ligand.torsion>
0.4131

> <Gold.PLP.Chemscore.Hbond>
1.8480

> <Gold.PLP.Chemscore.CHOScore>
1.0000

> <Gold.PLP.Chemscore.Metal>
0.0000

> <Gold.Chemscore.Hbonds>
donor molecule, donor type, donor heavy atom, donor atom, acceptor molecule, acceptor atom, score
      L1  H     6    31       P1  7948  0.84
      L1  H     9    32       P1  7948  1.00
      L1  C    13    33       P1 10186  1.00

> <Gold.PLP.Chemscore.Internal.Correction>
0.0637

> <Gold.Rescore>
     Score         DG    S(hbond)    S(metal)    S(lipo)     H(rot)  DE(clash)    DE(int)     intcor
     12.92     -14.80       1.93        0.00      65.20       1.86       0.08       1.81       ----

> <Gold.Chemscore.Fitness>
12.9155

> <Gold.Chemscore.DG>
-14.7976

> <Gold.Chemscore.ZeroCoef>
-5.4800

> <Gold.Chemscore.Hbond>
1.9321

> <Gold.Chemscore.Metal>
0.0000

> <Gold.Chemscore.Lipo>
65.1993

> <Gold.Chemscore.Internal_Hbond>
0.0000

> <Gold.Chemscore.DEClash>
0.0756

> <Gold.Chemscore.DEInternal>
1.8066

> <Gold.Chemscore.Rot>
1.8609

> <Gold.Chemscore.Internal.Correction>
   9.000000E+99

> <Gold.Chemscore.Hbonds>
donor molecule, donor type, donor heavy atom, donor atom, acceptor molecule, acceptor atom, score
      L1  H     6    31       P1  7948  0.77
      L1  H     9    32       P1  7948  0.93

> <Gold.Chemscore.Hbond.Weighted>
-6.4531

> <Gold.Chemscore.Metal.Weighted>
-0.0000

> <Gold.Chemscore.Lipo.Weighted>
-7.6283

> <Gold.Chemscore.Internal_Hbond.Weighted>
0.0000

> <Gold.Chemscore.DEClash.Weighted>
0.0756

> <Gold.Chemscore.DEInternal.Weighted>
1.8066

> <Gold.Chemscore.Rot.Weighted>
4.7638

> <Gold.Chemscore.Internal.Correction.Weighted>
   9.000000E+99

> <Gold.Protein.RotatedTorsions>
[ 6907 6896 6895 6894 ] final  146.89 input  -60.11 | X-H torsion
[ 7974 7965 7964 7962 ] final   -6.95 input  175.53 | X-H torsion
[ 8008 7997 7996 7995 ] final   48.43 input   59.86 | X-H torsion
[ 10167 10162 10161 10158 ] final   90.28 input  -65.29 | X-H torsion
[ 10718 10713 10712 10709 ] final -148.80 input   66.30 | X-H torsion
[ 10763 10752 10751 10750 ] final  -93.99 input  -60.55 | X-H torsion
[ 11005 11000 10999 10996 ] final  157.25 input  -57.11 | X-H torsion

> <Gold.Protein.ActiveResidues>
 VAL166  LYS551  ARG553  GLY616  TRP617  ASP618  TYR619  PRO620  LYS621  CYS622 
 ASP623  PHE694  ASN695  SER759  ASP760  ASP761  ALA762  ILE779  LEU786  VAL792 
 PHE793  MET794  SER795  GLU796  ALA797  LYS798  CYS799  TRP800  GLU811  SER814 

> <Gold.Protein.RotatedAtoms>
  152.1619  133.4587  159.4865 H   0  0  0  0  0  0  0  0  0  0  0  0  # atno 6907 bound_to 6896
  150.6908  134.2060  159.4350 H   0  0  0  0  0  0  0  0  0  0  0  0  # atno 6908 bound_to 6896
  151.9963  134.9952  160.0614 H   0  0  0  0  0  0  0  0  0  0  0  0  # atno 6909 bound_to 6896
  146.2319  140.2247  142.8338 H   0  0  0  0  0  0  0  0  0  0  0  0  # atno 7974 bound_to 7965
  155.3855  140.3431  155.4249 H   0  0  0  0  0  0  0  0  0  0  0  0  # atno 8008 bound_to 7997
  156.1586  140.1593  156.8683 H   0  0  0  0  0  0  0  0  0  0  0  0  # atno 8009 bound_to 7997
  154.5118  140.0788  156.7987 H   0  0  0  0  0  0  0  0  0  0  0  0  # atno 8010 bound_to 7997
  139.8488  144.6604  150.9194 H   0  0  0  0  0  0  0  0  0  0  0  0  # atno 10167 bound_to 10162
  156.4249  130.8047  151.2272 H   0  0  0  0  0  0  0  0  0  0  0  0  # atno 10718 bound_to 10713
  154.7012  135.5174  153.8530 H   0  0  0  0  0  0  0  0  0  0  0  0  # atno 10763 bound_to 10752
  153.0706  135.6599  154.0266 H   0  0  0  0  0  0  0  0  0  0  0  0  # atno 10764 bound_to 10752
  154.0124  135.3001  155.3370 H   0  0  0  0  0  0  0  0  0  0  0  0  # atno 10765 bound_to 10752
  140.1752  134.8515  157.2738 H   0  0  0  0  0  0  0  0  0  0  0  0  # atno 11005 bound_to 11000
  144.9605  140.8270  143.5516 LP  0  0  0  0  0  0  0  0  0  0  0  0  # atno 17320 bound_to 7965
  145.2217  139.2156  143.5089 LP  0  0  0  0  0  0  0  0  0  0  0  0  # atno 17321 bound_to 7965
  140.7790  143.3846  151.1417 LP  0  0  0  0  0  0  0  0  0  0  0  0  # atno 17342 bound_to 10162
  139.7485  143.8814  152.3070 LP  0  0  0  0  0  0  0  0  0  0  0  0  # atno 17343 bound_to 10162
  157.7508  131.0216  150.3758 LP  0  0  0  0  0  0  0  0  0  0  0  0  # atno 17370 bound_to 10713
  156.4083  130.3929  149.6909 LP  0  0  0  0  0  0  0  0  0  0  0  0  # atno 17371 bound_to 10713
  140.2331  134.3885  155.7513 LP  0  0  0  0  0  0  0  0  0  0  0  0  # atno 17394 bound_to 11000
  141.2220  133.7225  156.8672 LP  0  0  0  0  0  0  0  0  0  0  0  0  # atno 17395 bound_to 11000

$$$$
