AV-unprocessed.smi:1449|AV-procd|sdf|5896|dock6
  -GOLD-   22720 5583D 1   1.00000     0.00000
 Structure written by MMmdl.
 34 35  0  0  0  0  0  0  0  0  1 V2000
  145.2233  131.8092  150.5643 C   0  0  0  0  0  0  0  0  0  0  0  0
  145.9158  133.0447  150.7046 O   0  0  0  0  0  0  0  0  0  0  0  0
  145.2127  134.1426  151.1566 C   0  0  0  0  0  0  0  0  0  0  0  0
  143.9617  133.9357  151.7704 C   0  0  0  0  0  0  0  0  0  0  0  0
  143.2364  135.0503  152.2334 C   0  0  0  0  0  0  0  0  0  0  0  0
  143.7924  136.3422  152.0746 C   0  0  0  0  0  0  0  0  0  0  0  0
  143.1571  137.5473  152.4794 N   0  0  0  0  0  0  0  0  0  0  0  0
  142.0324  137.7109  153.2037 C   0  0  0  0  0  0  0  0  0  0  0  0
  141.3710  136.7962  153.6892 O   0  0  0  0  0  0  0  0  0  0  0  0
  141.6818  138.9955  153.3953 N   0  0  0  0  0  0  0  0  0  0  0  0
  140.5295  139.5235  154.1274 C   0  0  1  0  0  0  0  0  0  0  0  0
  140.5947  141.0594  154.2216 C   0  0  0  0  0  0  0  0  0  0  0  0
  139.2236  141.5855  154.6638 C   0  0  0  0  0  0  0  0  0  0  0  0
  137.9882  140.4046  154.0010 S   0  0  0  0  0  0  0  0  0  0  0  0
  137.2028  139.8607  155.1192 O   0  0  0  0  0  0  0  0  0  0  0  0
  137.3274  140.9888  152.8243 O   0  0  0  0  0  0  0  0  0  0  0  0
  139.2032  139.1511  153.4453 C   0  0  0  0  0  0  0  0  0  0  0  0
  145.0461  136.4420  151.4367 C   0  0  0  0  0  0  0  0  0  0  0  0
  145.7463  135.3781  150.9903 N   0  0  0  0  0  0  0  0  0  0  0  0
  145.9144  131.0487  150.2012 H   0  0  0  0  0  0  0  0  0  0  0  0
  144.4095  131.8880  149.8422 H   0  0  0  0  0  0  0  0  0  0  0  0
  144.8240  131.4638  151.5190 H   0  0  0  0  0  0  0  0  0  0  0  0
  143.5617  132.9385  151.8802 H   0  0  0  0  0  0  0  0  0  0  0  0
  142.2698  134.8889  152.6840 H   0  0  0  0  0  0  0  0  0  0  0  0
  143.6389  138.3952  152.2185 H   0  0  0  0  0  0  0  0  0  0  0  0
  142.3039  139.6884  153.0044 H   0  0  0  0  0  0  0  0  0  0  0  0
  140.5232  139.1363  155.1479 H   0  0  0  0  0  0  0  0  0  0  0  0
  141.3860  141.3918  154.8943 H   0  0  0  0  0  0  0  0  0  0  0  0
  140.8220  141.4701  153.2367 H   0  0  0  0  0  0  0  0  0  0  0  0
  139.1403  141.5838  155.7508 H   0  0  0  0  0  0  0  0  0  0  0  0
  139.0171  142.5923  154.3004 H   0  0  0  0  0  0  0  0  0  0  0  0
  139.2831  139.2257  152.3600 H   0  0  0  0  0  0  0  0  0  0  0  0
  138.8526  138.1506  153.6997 H   0  0  0  0  0  0  0  0  0  0  0  0
  145.5058  137.4072  151.2805 H   0  0  0  0  0  0  0  0  0  0  0  0
  1  2  1  0  0  0  0
  1 20  1  0  0  0  0
  1 21  1  0  0  0  0
  1 22  1  0  0  0  0
  2  3  1  0  0  0  0
  3 19  1  0  0  0  0
  3  4  2  0  0  0  0
  4  5  1  0  0  0  0
  4 23  1  0  0  0  0
  5  6  2  0  0  0  0
  5 24  1  0  0  0  0
  6  7  1  0  0  0  0
  6 18  1  0  0  0  0
  7  8  1  0  0  0  0
  7 25  1  0  0  0  0
  8  9  2  0  0  0  0
  8 10  1  0  0  0  0
 10 11  1  0  0  0  0
 10 26  1  0  0  0  0
 11 17  1  0  0  0  0
 11 12  1  0  0  0  0
 11 27  1  0  0  0  0
 12 13  1  0  0  0  0
 12 28  1  0  0  0  0
 12 29  1  0  0  0  0
 13 14  1  0  0  0  0
 13 30  1  0  0  0  0
 13 31  1  0  0  0  0
 14 15  2  0  0  0  0
 14 16  2  0  0  0  0
 14 17  1  0  0  0  0
 17 32  1  0  0  0  0
 17 33  1  0  0  0  0
 18 19  2  0  0  0  0
 18 34  1  0  0  0  0
M  END
> <s_m_source_file>
AV-unprocessed.smi

> <i_m_source_file_index>
1449

> <i_lp_mmshare_version>
43012

> <i_f3d_flags>
0

> <s_epik_input>
W0NIM11PYzFbY0hdW2NIXWMoW2NIXW4xKVtOSF1DKD1PKVtOSF1bQ0BASF0oW0NIMl0yKVtDSDJdW0NIMl1TMig9Tyk9Tw==

> <s_epik_cmdline>
J2VwaWtfcHl0aG9uJywgJy1waCcsICc3LjAnLCAnLXRuJywgJzgnLCAnLW1hJywgJzIwMCcsICctbWV0YWxfYmluZGluZycsICctaW1hZScsICc8aW5maWxlLm1hZT4nLCAnLW9tYWUnLCAnPG91dGZpbGUubWFlPic=

> <r_lp_tautomer_probability>
1

> <r_epik_Ionization_Penalty>
7.6506e-05

> <r_epik_Ionization_Penalty_Charging>
0

> <r_epik_Ionization_Penalty_Neutral>
7.6506e-05

> <r_epik_State_Penalty>
-0

> <r_epik_Charging_Adjusted_Penalty>
0

> <i_epik_Tot_Q>
0

> <i_epik_Tot_abs_Q>
0

> <r_epik_Metal_State_Penalty>
-0

> <b_epik_Metal_Only>
0

> <s_lp_Force_Field>
OPLS_2005

> <r_lp_Energy>
18.5668

> <b_lp_Chiralities_Consistent>
1

> <s_lp_Variant>
AV-unprocessed.smi:1449-2

> <Gold.Version>
5.8.1

> <Gold.Id.Protein>
6NUR|6NUR_protein|mol2

> <Gold.PLP.Fitness>
34.2989

> <Gold.PLP.PLP>
-27.8363

> <Gold.PLP.part.hbond>
-3.3948

> <Gold.PLP.part.metal>
0.0000

> <Gold.PLP.part.buried>
-2.4425

> <Gold.PLP.part.nonpolar>
-22.0812

> <Gold.PLP.part.repulsive>
0.6218

> <Gold.PLP.ligand.clash>
0.0000

> <Gold.PLP.ligand.torsion>
0.2535

> <Gold.PLP.Chemscore.Hbond>
1.8437

> <Gold.PLP.Chemscore.CHOScore>
0.4785

> <Gold.PLP.Chemscore.Metal>
0.0000

> <Gold.Chemscore.Hbonds>
donor molecule, donor type, donor heavy atom, donor atom, acceptor molecule, acceptor atom, score
      L1  H     7    25       P1 10175  0.83
      L1  H    10    26       P1 10175  1.00
      L1  C    18    34       P1 10171  0.47

> <Gold.PLP.Chemscore.Internal.Correction>
0.0028

> <Gold.Rescore>
     Score         DG    S(hbond)    S(metal)    S(lipo)     H(rot)  DE(clash)    DE(int)     intcor
     12.34     -14.20       1.86        0.00      50.22       1.31       0.50       1.36       ----

> <Gold.Chemscore.Fitness>
12.3378

> <Gold.Chemscore.DG>
-14.1968

> <Gold.Chemscore.ZeroCoef>
-5.4800

> <Gold.Chemscore.Hbond>
1.8553

> <Gold.Chemscore.Metal>
0.0000

> <Gold.Chemscore.Lipo>
50.2223

> <Gold.Chemscore.Internal_Hbond>
0.0000

> <Gold.Chemscore.DEClash>
0.5025

> <Gold.Chemscore.DEInternal>
1.3564

> <Gold.Chemscore.Rot>
1.3109

> <Gold.Chemscore.Internal.Correction>
   9.000000E+99

> <Gold.Chemscore.Hbonds>
donor molecule, donor type, donor heavy atom, donor atom, acceptor molecule, acceptor atom, score
      L1  H     7    25       P1 10175  0.79
      L1  H    10    26       P1 10175  0.83

> <Gold.Chemscore.Hbond.Weighted>
-6.1967

> <Gold.Chemscore.Metal.Weighted>
-0.0000

> <Gold.Chemscore.Lipo.Weighted>
-5.8760

> <Gold.Chemscore.Internal_Hbond.Weighted>
0.0000

> <Gold.Chemscore.DEClash.Weighted>
0.5025

> <Gold.Chemscore.DEInternal.Weighted>
1.3564

> <Gold.Chemscore.Rot.Weighted>
3.3559

> <Gold.Chemscore.Internal.Correction.Weighted>
   9.000000E+99

> <Gold.Protein.RotatedTorsions>
[ 6907 6896 6895 6894 ] final -124.29 input  -60.11 | X-H torsion
[ 7974 7965 7964 7962 ] final  -21.16 input  175.53 | X-H torsion
[ 8008 7997 7996 7995 ] final -100.58 input   59.86 | X-H torsion
[ 10167 10162 10161 10158 ] final -163.21 input  -65.29 | X-H torsion
[ 10718 10713 10712 10709 ] final -173.82 input   66.30 | X-H torsion
[ 10763 10752 10751 10750 ] final -141.90 input  -60.55 | X-H torsion
[ 11005 11000 10999 10996 ] final -149.55 input  -57.11 | X-H torsion

> <Gold.Protein.ActiveResidues>
 VAL166  LYS551  ARG553  GLY616  TRP617  ASP618  TYR619  PRO620  LYS621  CYS622 
 ASP623  PHE694  ASN695  SER759  ASP760  ASP761  ALA762  ILE779  LEU786  VAL792 
 PHE793  MET794  SER795  GLU796  ALA797  LYS798  CYS799  TRP800  GLU811  SER814 

> <Gold.Protein.RotatedAtoms>
  150.8753  133.7447  159.2948 H   0  0  0  0  0  0  0  0  0  0  0  0  # atno 6907 bound_to 6896
  151.5046  135.1061  159.9847 H   0  0  0  0  0  0  0  0  0  0  0  0  # atno 6908 bound_to 6896
  152.4723  133.8013  159.7010 H   0  0  0  0  0  0  0  0  0  0  0  0  # atno 6909 bound_to 6896
  146.1749  140.4302  142.8518 H   0  0  0  0  0  0  0  0  0  0  0  0  # atno 7974 bound_to 7965
  154.8307  140.0440  157.1474 H   0  0  0  0  0  0  0  0  0  0  0  0  # atno 8008 bound_to 7997
  154.9156  140.3019  155.5223 H   0  0  0  0  0  0  0  0  0  0  0  0  # atno 8009 bound_to 7997
  156.2987  140.2350  156.4200 H   0  0  0  0  0  0  0  0  0  0  0  0  # atno 8010 bound_to 7997
  139.6337  144.0391  152.2036 H   0  0  0  0  0  0  0  0  0  0  0  0  # atno 10167 bound_to 10162
  156.7759  130.9466  151.3120 H   0  0  0  0  0  0  0  0  0  0  0  0  # atno 10718 bound_to 10713
  154.8528  135.3511  154.5942 H   0  0  0  0  0  0  0  0  0  0  0  0  # atno 10763 bound_to 10752
  153.6551  135.6992  153.5200 H   0  0  0  0  0  0  0  0  0  0  0  0  # atno 10764 bound_to 10752
  153.2862  135.4248  155.1083 H   0  0  0  0  0  0  0  0  0  0  0  0  # atno 10765 bound_to 10752
  140.7495  134.3422  157.5129 H   0  0  0  0  0  0  0  0  0  0  0  0  # atno 11005 bound_to 11000
  144.8220  140.6565  143.6347 LP  0  0  0  0  0  0  0  0  0  0  0  0  # atno 17320 bound_to 7965
  145.4240  139.1559  143.4058 LP  0  0  0  0  0  0  0  0  0  0  0  0  # atno 17321 bound_to 7965
  140.0063  144.6256  150.7686 LP  0  0  0  0  0  0  0  0  0  0  0  0  # atno 17342 bound_to 10162
  140.7453  143.2874  151.3426 LP  0  0  0  0  0  0  0  0  0  0  0  0  # atno 17343 bound_to 10162
  157.6669  130.9016  149.9952 LP  0  0  0  0  0  0  0  0  0  0  0  0  # atno 17370 bound_to 10713
  156.1248  130.3645  149.9827 LP  0  0  0  0  0  0  0  0  0  0  0  0  # atno 17371 bound_to 10713
  139.8790  134.9133  156.3080 LP  0  0  0  0  0  0  0  0  0  0  0  0  # atno 17394 bound_to 11000
  140.9763  133.7295  156.0607 LP  0  0  0  0  0  0  0  0  0  0  0  0  # atno 17395 bound_to 11000

$$$$
