AV-unprocessed.smi:1552|AV-procd|sdf|6237|dock3
  -GOLD-   22720 6423D 1   1.00000     0.00000
 Structure written by MMmdl.
 49 50  0  0  0  0  0  0  0  0  3 V2000
  149.1026  136.0587  155.5460 C   0  0  0  0  0  0  0  0  0  0  0  0
  148.1562  135.8641  154.4240 N   0  3  0  0  0  0  0  0  0  0  0  0
  147.2333  137.0190  154.2913 C   0  0  0  0  0  0  0  0  0  0  0  0
  147.5231  134.5070  154.4279 C   0  0  1  0  0  0  0  0  0  0  0  0
  146.5228  134.2944  155.5931 C   0  0  0  0  0  0  0  0  0  0  0  0
  147.2066  134.0204  156.8512 N   0  0  0  0  0  0  0  0  0  0  0  0
  146.9048  134.5326  158.0549 C   0  0  0  0  0  0  0  0  0  0  0  0
  145.9857  135.3405  158.1781 O   0  0  0  0  0  0  0  0  0  0  0  0
  147.7463  134.1235  159.2802 C   0  0  0  0  0  0  0  0  0  0  0  0
  147.6860  135.1073  160.3729 N   0  0  0  0  0  0  0  0  0  0  0  0
  147.2565  134.6609  161.6350 C   0  0  0  0  0  0  0  0  0  0  0  0
  147.1718  135.4924  162.6910 C   0  0  0  0  0  0  0  0  0  0  0  0
  147.5394  136.8902  162.5007 C   0  0  0  0  0  0  0  0  0  0  0  0
  147.4627  137.6647  163.4526 O   0  0  0  0  0  0  0  0  0  0  0  0
  147.9553  137.2736  161.2582 N   0  5  0  0  0  0  0  0  0  0  0  0
  148.0391  136.4163  160.1940 C   0  0  0  0  0  0  0  0  0  0  0  0
  148.4192  136.7816  159.0805 O   0  0  0  0  0  0  0  0  0  0  0  0
  146.9702  134.1283  153.0232 C   0  0  0  0  0  0  0  0  0  0  0  0
  145.7558  134.9953  152.6220 C   0  0  0  0  0  0  0  0  0  0  0  0
  145.2927  134.6932  151.1872 C   0  0  0  0  0  0  0  0  0  0  0  0
  144.9847  133.1996  151.0015 C   0  0  0  0  0  0  0  0  0  0  0  0
  146.1899  132.3322  151.3961 C   0  0  0  0  0  0  0  0  0  0  0  0
  146.6408  132.6304  152.8350 C   0  0  0  0  0  0  0  0  0  0  0  0
  148.5841  136.0194  156.5049 H   0  0  0  0  0  0  0  0  0  0  0  0
  149.6026  137.0246  155.4671 H   0  0  0  0  0  0  0  0  0  0  0  0
  149.8759  135.2898  155.5403 H   0  0  0  0  0  0  0  0  0  0  0  0
  146.6567  137.1751  155.2040 H   0  0  0  0  0  0  0  0  0  0  0  0
  146.5348  136.8939  153.4656 H   0  0  0  0  0  0  0  0  0  0  0  0
  147.8002  137.9307  154.1001 H   0  0  0  0  0  0  0  0  0  0  0  0
  148.3234  133.7865  154.6077 H   0  0  0  0  0  0  0  0  0  0  0  0
  145.9150  135.1915  155.7206 H   0  0  0  0  0  0  0  0  0  0  0  0
  145.8426  133.4693  155.3798 H   0  0  0  0  0  0  0  0  0  0  0  0
  147.9907  133.3853  156.8092 H   0  0  0  0  0  0  0  0  0  0  0  0
  147.4340  133.1520  159.6645 H   0  0  0  0  0  0  0  0  0  0  0  0
  148.7768  133.9831  158.9505 H   0  0  0  0  0  0  0  0  0  0  0  0
  147.0089  133.6111  161.6923 H   0  0  0  0  0  0  0  0  0  0  0  0
  146.8428  135.1334  163.6552 H   0  0  0  0  0  0  0  0  0  0  0  0
  147.7520  134.3657  152.3006 H   0  0  0  0  0  0  0  0  0  0  0  0
  144.9265  134.8221  153.3085 H   0  0  0  0  0  0  0  0  0  0  0  0
  146.0069  136.0535  152.7028 H   0  0  0  0  0  0  0  0  0  0  0  0
  144.4094  135.2867  150.9490 H   0  0  0  0  0  0  0  0  0  0  0  0
  146.0671  134.9962  150.4813 H   0  0  0  0  0  0  0  0  0  0  0  0
  144.1216  132.9253  151.6094 H   0  0  0  0  0  0  0  0  0  0  0  0
  144.7078  133.0033  149.9654 H   0  0  0  0  0  0  0  0  0  0  0  0
  145.9350  131.2767  151.2972 H   0  0  0  0  0  0  0  0  0  0  0  0
  147.0154  132.5158  150.7072 H   0  0  0  0  0  0  0  0  0  0  0  0
  147.5073  132.0136  153.0735 H   0  0  0  0  0  0  0  0  0  0  0  0
  145.8432  132.3320  153.5150 H   0  0  0  0  0  0  0  0  0  0  0  0
  148.7318  135.8780  153.5941 H   0  0  0  0  0  0  0  0  0  0  0  0
  1  2  1  0  0  0  0
  1 24  1  0  0  0  0
  1 25  1  0  0  0  0
  1 26  1  0  0  0  0
  2  3  1  0  0  0  0
  2  4  1  0  0  0  0
  2 49  1  0  0  0  0
  3 27  1  0  0  0  0
  3 28  1  0  0  0  0
  3 29  1  0  0  0  0
  4  5  1  0  0  0  0
  4 18  1  0  0  0  0
  4 30  1  0  0  0  0
  5  6  1  0  0  0  0
  5 31  1  0  0  0  0
  5 32  1  0  0  0  0
  6  7  1  0  0  0  0
  6 33  1  0  0  0  0
  7  8  2  0  0  0  0
  7  9  1  0  0  0  0
  9 10  1  0  0  0  0
  9 34  1  0  0  0  0
  9 35  1  0  0  0  0
 10 16  1  0  0  0  0
 10 11  1  0  0  0  0
 11 12  2  0  0  0  0
 11 36  1  0  0  0  0
 12 13  1  0  0  0  0
 12 37  1  0  0  0  0
 13 14  2  0  0  0  0
 13 15  1  0  0  0  0
 15 16  1  0  0  0  0
 16 17  2  0  0  0  0
 18 23  1  0  0  0  0
 18 19  1  0  0  0  0
 18 38  1  0  0  0  0
 19 20  1  0  0  0  0
 19 39  1  0  0  0  0
 19 40  1  0  0  0  0
 20 21  1  0  0  0  0
 20 41  1  0  0  0  0
 20 42  1  0  0  0  0
 21 22  1  0  0  0  0
 21 43  1  0  0  0  0
 21 44  1  0  0  0  0
 22 23  1  0  0  0  0
 22 45  1  0  0  0  0
 22 46  1  0  0  0  0
 23 47  1  0  0  0  0
 23 48  1  0  0  0  0
M  CHG  1   2   1
M  CHG  1  15  -1
M  END
> <s_m_source_file>
AV-unprocessed.smi

> <i_m_source_file_index>
1552

> <i_lp_mmshare_version>
43012

> <i_f3d_flags>
0

> <s_epik_input>
W0NIMl0xW0NIMl1bQ0gyXVtDSDJdW0NIMl1bQ0hdMVtDQEhdKE4oW0NIM10pW0NIM10pW0NIMl1bTkhdQyg9TylbQ0gyXW4yW2NIXVtjSF1jKD1PKVtuSF1jMj1P

> <s_epik_cmdline>
J2VwaWtfcHl0aG9uJywgJy1waCcsICc3LjAnLCAnLXRuJywgJzgnLCAnLW1hJywgJzIwMCcsICctbWV0YWxfYmluZGluZycsICctaW1hZScsICc8aW5maWxlLm1hZT4nLCAnLW9tYWUnLCAnPG91dGZpbGUubWFlPic=

> <r_lp_tautomer_probability>
1

> <r_epik_Ionization_Penalty>
2.93575

> <r_epik_Ionization_Penalty_Charging>
0.00331645

> <r_epik_Ionization_Penalty_Neutral>
2.93244

> <r_epik_State_Penalty>
2.92822

> <r_epik_Charging_Adjusted_Penalty>
2.93154

> <i_epik_Tot_Q>
0

> <i_epik_Tot_abs_Q>
2

> <r_epik_Metal_State_Penalty>
0.448509

> <b_epik_Metal_Only>
1

> <s_lp_Force_Field>
OPLS_2005

> <r_lp_Energy>
36.4882

> <b_lp_Chiralities_Consistent>
1

> <s_lp_Variant>
AV-unprocessed.smi:1552-4

> <Gold.Version>
5.8.1

> <Gold.Id.Protein>
6NUR|6NUR_protein|mol2

> <Gold.PLP.Fitness>
44.4756

> <Gold.PLP.PLP>
-28.6125

> <Gold.PLP.part.hbond>
-3.0441

> <Gold.PLP.part.metal>
0.0000

> <Gold.PLP.part.buried>
-2.2362

> <Gold.PLP.part.nonpolar>
-24.2767

> <Gold.PLP.part.repulsive>
0.0219

> <Gold.PLP.ligand.clash>
0.0000

> <Gold.PLP.ligand.torsion>
0.9275

> <Gold.PLP.Chemscore.Hbond>
5.7160

> <Gold.PLP.Chemscore.CHOScore>
0.0000

> <Gold.PLP.Chemscore.Metal>
0.0000

> <Gold.Chemscore.Hbonds>
donor molecule, donor type, donor heavy atom, donor atom, acceptor molecule, acceptor atom, score
      L1  H     2    49       P1  7948  2.00
      P1  H  6931  6943       L1    15  1.09
      P1  H  6934  6947       L1    15  1.38

> <Gold.PLP.Chemscore.Internal.Correction>
0.5700

> <Gold.Rescore>
     Score         DG    S(hbond)    S(metal)    S(lipo)     H(rot)  DE(clash)    DE(int)     intcor
      7.98     -12.20       1.83        0.00      58.45       2.43       0.07       4.15       ----

> <Gold.Chemscore.Fitness>
7.9820

> <Gold.Chemscore.DG>
-12.2038

> <Gold.Chemscore.ZeroCoef>
-5.4800

> <Gold.Chemscore.Hbond>
1.8287

> <Gold.Chemscore.Metal>
0.0000

> <Gold.Chemscore.Lipo>
58.4453

> <Gold.Chemscore.Internal_Hbond>
0.0000

> <Gold.Chemscore.DEClash>
0.0672

> <Gold.Chemscore.DEInternal>
4.1546

> <Gold.Chemscore.Rot>
2.4305

> <Gold.Chemscore.Internal.Correction>
   9.000000E+99

> <Gold.Chemscore.Hbonds>
donor molecule, donor type, donor heavy atom, donor atom, acceptor molecule, acceptor atom, score
      L1  H     2    49       P1  7948  0.96
      P1  H  6931  6943       L1    15  0.03
      P1  H  6934  6947       L1    15  0.40

> <Gold.Chemscore.Hbond.Weighted>
-6.1077

> <Gold.Chemscore.Metal.Weighted>
-0.0000

> <Gold.Chemscore.Lipo.Weighted>
-6.8381

> <Gold.Chemscore.Internal_Hbond.Weighted>
0.0000

> <Gold.Chemscore.DEClash.Weighted>
0.0672

> <Gold.Chemscore.DEInternal.Weighted>
4.1546

> <Gold.Chemscore.Rot.Weighted>
6.2220

> <Gold.Chemscore.Internal.Correction.Weighted>
   9.000000E+99

> <Gold.Protein.RotatedTorsions>
[ 6907 6896 6895 6894 ] final -146.27 input  -60.11 | X-H torsion
[ 7974 7965 7964 7962 ] final -162.43 input  175.53 | X-H torsion
[ 8008 7997 7996 7995 ] final  149.02 input   59.86 | X-H torsion
[ 10167 10162 10161 10158 ] final  134.32 input  -65.29 | X-H torsion
[ 10718 10713 10712 10709 ] final -121.92 input   66.30 | X-H torsion
[ 10763 10752 10751 10750 ] final  104.04 input  -60.55 | X-H torsion
[ 11005 11000 10999 10996 ] final  -11.57 input  -57.11 | X-H torsion

> <Gold.Protein.ActiveResidues>
 VAL166  LYS551  ARG553  GLY616  TRP617  ASP618  TYR619  PRO620  LYS621  CYS622 
 ASP623  PHE694  ASN695  SER759  ASP760  ASP761  ALA762  ILE779  LEU786  VAL792 
 PHE793  MET794  SER795  GLU796  ALA797  LYS798  CYS799  TRP800  GLU811  SER814 

> <Gold.Protein.RotatedAtoms>
  151.1393  133.4982  159.2597 H   0  0  0  0  0  0  0  0  0  0  0  0  # atno 6907 bound_to 6896
  151.1672  135.0301  159.8746 H   0  0  0  0  0  0  0  0  0  0  0  0  # atno 6908 bound_to 6896
  152.5462  134.1260  159.8472 H   0  0  0  0  0  0  0  0  0  0  0  0  # atno 6909 bound_to 6896
  144.7357  140.3253  143.6163 H   0  0  0  0  0  0  0  0  0  0  0  0  # atno 7974 bound_to 7965
  156.2770  140.2113  156.5792 H   0  0  0  0  0  0  0  0  0  0  0  0  # atno 8008 bound_to 7997
  154.7073  140.0515  157.0539 H   0  0  0  0  0  0  0  0  0  0  0  0  # atno 8009 bound_to 7997
  155.0654  140.3171  155.4650 H   0  0  0  0  0  0  0  0  0  0  0  0  # atno 8010 bound_to 7997
  139.5261  144.6573  151.5123 H   0  0  0  0  0  0  0  0  0  0  0  0  # atno 10167 bound_to 10162
  156.1376  130.6442  150.9721 H   0  0  0  0  0  0  0  0  0  0  0  0  # atno 10718 bound_to 10713
  153.3607  135.3956  155.1716 H   0  0  0  0  0  0  0  0  0  0  0  0  # atno 10763 bound_to 10752
  154.8678  135.3679  154.5103 H   0  0  0  0  0  0  0  0  0  0  0  0  # atno 10764 bound_to 10752
  153.5563  135.7082  153.5628 H   0  0  0  0  0  0  0  0  0  0  0  0  # atno 10765 bound_to 10752
  140.7566  133.8549  155.9089 H   0  0  0  0  0  0  0  0  0  0  0  0  # atno 11005 bound_to 11000
  145.7527  139.1799  143.2312 LP  0  0  0  0  0  0  0  0  0  0  0  0  # atno 17320 bound_to 7965
  146.1048  140.7500  142.9531 LP  0  0  0  0  0  0  0  0  0  0  0  0  # atno 17321 bound_to 7965
  140.6405  143.8899  150.6687 LP  0  0  0  0  0  0  0  0  0  0  0  0  # atno 17342 bound_to 10162
  140.2232  143.3793  152.1626 LP  0  0  0  0  0  0  0  0  0  0  0  0  # atno 17343 bound_to 10162
  157.6547  131.0891  150.7974 LP  0  0  0  0  0  0  0  0  0  0  0  0  # atno 17370 bound_to 10713
  156.8053  130.4934  149.5364 LP  0  0  0  0  0  0  0  0  0  0  0  0  # atno 17371 bound_to 10713
  140.9702  134.1541  157.4583 LP  0  0  0  0  0  0  0  0  0  0  0  0  # atno 17394 bound_to 11000
  139.8778  134.9976  156.5853 LP  0  0  0  0  0  0  0  0  0  0  0  0  # atno 17395 bound_to 11000

$$$$
