AV-unprocessed.smi:1421|AV-procd|sdf|5790|dock6
  -GOLD-   22720 5433D 1   1.00000     0.00000
 Structure written by MMmdl.
 45 46  0  0  0  0  0  0  0  0  1 V2000
  146.8166  135.0854  161.9398 C   0  0  0  0  0  0  0  0  0  0  0  0
  147.1736  136.8880  161.9207 S   0  0  0  0  0  0  0  0  0  0  0  0
  145.9088  137.6137  162.1126 O   0  0  0  0  0  0  0  0  0  0  0  0
  148.3204  137.1585  162.8007 O   0  0  0  0  0  0  0  0  0  0  0  0
  147.6979  137.1432  160.2955 N   0  0  0  0  0  0  0  0  0  0  0  0
  148.9123  136.4710  159.8294 C   0  0  0  0  0  0  0  0  0  0  0  0
  149.5360  137.2196  158.6365 C   0  0  0  0  0  0  0  0  0  0  0  0
  150.9523  137.7251  158.9263 C   0  0  0  0  0  0  0  0  0  0  0  0
  151.8642  136.9289  159.1501 O   0  0  0  0  0  0  0  0  0  0  0  0
  151.1222  139.0563  158.9034 N   0  0  0  0  0  0  0  0  0  0  0  0
  152.3884  139.7590  159.0910 C   0  0  0  0  0  0  0  0  0  0  0  0
  152.2475  141.2664  158.9208 C   0  0  0  0  0  0  0  0  0  0  0  0
  152.8142  142.1289  159.8838 C   0  0  0  0  0  0  0  0  0  0  0  0
  152.6714  143.5200  159.7311 C   0  0  0  0  0  0  0  0  0  0  0  0
  151.9627  143.9984  158.6143 C   0  0  0  0  0  0  0  0  0  0  0  0
  151.4165  143.1886  157.6841 N   0  0  0  0  0  0  0  0  0  0  0  0
  151.5514  141.8474  157.8277 C   0  0  0  0  0  0  0  0  0  0  0  0
  150.9918  141.0324  156.8295 N   0  0  0  0  0  0  0  0  0  0  0  0
  150.0762  141.6939  155.9076 C   0  0  0  0  0  0  0  0  0  0  0  0
  149.4111  140.6489  154.9963 C   0  0  0  0  0  0  0  0  0  0  0  0
  150.4175  139.9056  154.3147 O   0  0  0  0  0  0  0  0  0  0  0  0
  151.2697  139.2034  155.2158 C   0  0  0  0  0  0  0  0  0  0  0  0
  151.9763  140.2002  156.1517 C   0  0  0  0  0  0  0  0  0  0  0  0
  146.4726  134.7950  162.9323 H   0  0  0  0  0  0  0  0  0  0  0  0
  147.7216  134.5305  161.6945 H   0  0  0  0  0  0  0  0  0  0  0  0
  146.0415  134.8590  161.2080 H   0  0  0  0  0  0  0  0  0  0  0  0
  146.9298  136.9943  159.6413 H   0  0  0  0  0  0  0  0  0  0  0  0
  149.6196  136.3862  160.6558 H   0  0  0  0  0  0  0  0  0  0  0  0
  148.6443  135.4557  159.5354 H   0  0  0  0  0  0  0  0  0  0  0  0
  149.5827  136.5607  157.7688 H   0  0  0  0  0  0  0  0  0  0  0  0
  148.9089  138.0644  158.3516 H   0  0  0  0  0  0  0  0  0  0  0  0
  150.3127  139.6295  158.7147 H   0  0  0  0  0  0  0  0  0  0  0  0
  152.7487  139.5345  160.0952 H   0  0  0  0  0  0  0  0  0  0  0  0
  153.1612  139.3981  158.4112 H   0  0  0  0  0  0  0  0  0  0  0  0
  153.3502  141.7323  160.7336 H   0  0  0  0  0  0  0  0  0  0  0  0
  153.0934  144.2031  160.4534 H   0  0  0  0  0  0  0  0  0  0  0  0
  151.8312  145.0597  158.4631 H   0  0  0  0  0  0  0  0  0  0  0  0
  149.3177  142.2394  156.4698 H   0  0  0  0  0  0  0  0  0  0  0  0
  150.6185  142.4203  155.3004 H   0  0  0  0  0  0  0  0  0  0  0  0
  148.7735  139.9769  155.5735 H   0  0  0  0  0  0  0  0  0  0  0  0
  148.7740  141.1413  154.2617 H   0  0  0  0  0  0  0  0  0  0  0  0
  150.6896  138.4768  155.7861 H   0  0  0  0  0  0  0  0  0  0  0  0
  152.0062  138.6404  154.6426 H   0  0  0  0  0  0  0  0  0  0  0  0
  152.6526  140.8357  155.5785 H   0  0  0  0  0  0  0  0  0  0  0  0
  152.5811  139.6624  156.8826 H   0  0  0  0  0  0  0  0  0  0  0  0
  1  2  1  0  0  0  0
  1 24  1  0  0  0  0
  1 25  1  0  0  0  0
  1 26  1  0  0  0  0
  2  3  2  0  0  0  0
  2  4  2  0  0  0  0
  2  5  1  0  0  0  0
  5  6  1  0  0  0  0
  5 27  1  0  0  0  0
  6  7  1  0  0  0  0
  6 28  1  0  0  0  0
  6 29  1  0  0  0  0
  7  8  1  0  0  0  0
  7 30  1  0  0  0  0
  7 31  1  0  0  0  0
  8  9  2  0  0  0  0
  8 10  1  0  0  0  0
 10 11  1  0  0  0  0
 10 32  1  0  0  0  0
 11 12  1  0  0  0  0
 11 33  1  0  0  0  0
 11 34  1  0  0  0  0
 12 17  1  0  0  0  0
 12 13  2  0  0  0  0
 13 14  1  0  0  0  0
 13 35  1  0  0  0  0
 14 15  2  0  0  0  0
 14 36  1  0  0  0  0
 15 16  1  0  0  0  0
 15 37  1  0  0  0  0
 16 17  2  0  0  0  0
 17 18  1  0  0  0  0
 18 23  1  0  0  0  0
 18 19  1  0  0  0  0
 19 20  1  0  0  0  0
 19 38  1  0  0  0  0
 19 39  1  0  0  0  0
 20 21  1  0  0  0  0
 20 40  1  0  0  0  0
 20 41  1  0  0  0  0
 21 22  1  0  0  0  0
 22 23  1  0  0  0  0
 22 42  1  0  0  0  0
 22 43  1  0  0  0  0
 23 44  1  0  0  0  0
 23 45  1  0  0  0  0
M  END
> <s_m_source_file>
AV-unprocessed.smi

> <i_m_source_file_index>
1421

> <i_lp_mmshare_version>
43012

> <i_f3d_flags>
0

> <s_epik_input>
W0NIM11TKD1PKSg9TylbTkhdW0NIMl1bQ0gyXUMoPU8pW05IXVtDSDJdYzFbY0hdW2NIXVtjSF1uYzFOMltDSDJdW0NIMl1PW0NIMl1bQ0gyXTI=

> <s_epik_cmdline>
J2VwaWtfcHl0aG9uJywgJy1waCcsICc3LjAnLCAnLXRuJywgJzgnLCAnLW1hJywgJzIwMCcsICctbWV0YWxfYmluZGluZycsICctaW1hZScsICc8aW5maWxlLm1hZT4nLCAnLW9tYWUnLCAnPG91dGZpbGUubWFlPic=

> <r_lp_tautomer_probability>
1

> <r_epik_Ionization_Penalty>
0.00479902

> <r_epik_Ionization_Penalty_Charging>
0

> <r_epik_Ionization_Penalty_Neutral>
0.00479902

> <r_epik_State_Penalty>
0.00346804

> <r_epik_Charging_Adjusted_Penalty>
0.00346804

> <i_epik_Tot_Q>
0

> <i_epik_Tot_abs_Q>
0

> <r_epik_Metal_State_Penalty>
0.0135183

> <b_epik_Metal_Only>
0

> <s_lp_Force_Field>
OPLS_2005

> <r_lp_Energy>
16.2215

> <b_lp_Chiralities_Consistent>
1

> <s_lp_Variant>
AV-unprocessed.smi:1421-1

> <Gold.Version>
5.8.1

> <Gold.Id.Protein>
6NUR|6NUR_protein|mol2

> <Gold.PLP.Fitness>
54.4810

> <Gold.PLP.PLP>
-47.3775

> <Gold.PLP.part.hbond>
-5.1576

> <Gold.PLP.part.metal>
0.0000

> <Gold.PLP.part.buried>
-5.6050

> <Gold.PLP.part.nonpolar>
-35.6447

> <Gold.PLP.part.repulsive>
0.4218

> <Gold.PLP.ligand.clash>
0.0000

> <Gold.PLP.ligand.torsion>
0.8423

> <Gold.PLP.Chemscore.Hbond>
2.8160

> <Gold.PLP.Chemscore.CHOScore>
0.0000

> <Gold.PLP.Chemscore.Metal>
0.0000

> <Gold.Chemscore.Hbonds>
donor molecule, donor type, donor heavy atom, donor atom, acceptor molecule, acceptor atom, score
      P1  H  6896  6909       L1     9  0.99
      P1  H  6931  6943       L1     4  0.82
      P1  H  7989  7998       L1    21  0.95

> <Gold.PLP.Chemscore.Internal.Correction>
0.3401

> <Gold.Rescore>
     Score         DG    S(hbond)    S(metal)    S(lipo)     H(rot)  DE(clash)    DE(int)     intcor
     13.66     -16.76       2.52        0.00      87.92       2.90       0.00       3.10       ----

> <Gold.Chemscore.Fitness>
13.6600

> <Gold.Chemscore.DG>
-16.7635

> <Gold.Chemscore.ZeroCoef>
-5.4800

> <Gold.Chemscore.Hbond>
2.5222

> <Gold.Chemscore.Metal>
0.0000

> <Gold.Chemscore.Lipo>
87.9238

> <Gold.Chemscore.Internal_Hbond>
0.0000

> <Gold.Chemscore.DEClash>
0.0015

> <Gold.Chemscore.DEInternal>
3.1021

> <Gold.Chemscore.Rot>
2.9015

> <Gold.Chemscore.Internal.Correction>
   9.000000E+99

> <Gold.Chemscore.Hbonds>
donor molecule, donor type, donor heavy atom, donor atom, acceptor molecule, acceptor atom, score
      P1  H  6896  6909       L1     9  0.90
      P1  H  6931  6943       L1     4  0.20
      P1  H  7989  7998       L1    21  0.19

> <Gold.Chemscore.Hbond.Weighted>
-8.4243

> <Gold.Chemscore.Metal.Weighted>
-0.0000

> <Gold.Chemscore.Lipo.Weighted>
-10.2871

> <Gold.Chemscore.Internal_Hbond.Weighted>
0.0000

> <Gold.Chemscore.DEClash.Weighted>
0.0015

> <Gold.Chemscore.DEInternal.Weighted>
3.1021

> <Gold.Chemscore.Rot.Weighted>
7.4278

> <Gold.Chemscore.Internal.Correction.Weighted>
   9.000000E+99

> <Gold.Protein.RotatedTorsions>
[ 6907 6896 6895 6894 ] final  111.89 input  -60.11 | X-H torsion
[ 7974 7965 7964 7962 ] final -175.48 input  175.53 | X-H torsion
[ 8008 7997 7996 7995 ] final  -92.84 input   59.86 | X-H torsion
[ 10167 10162 10161 10158 ] final   55.02 input  -65.29 | X-H torsion
[ 10718 10713 10712 10709 ] final   47.14 input   66.30 | X-H torsion
[ 10763 10752 10751 10750 ] final -125.12 input  -60.55 | X-H torsion
[ 11005 11000 10999 10996 ] final   71.50 input  -57.11 | X-H torsion

> <Gold.Protein.ActiveResidues>
 VAL166  LYS551  ARG553  GLY616  TRP617  ASP618  TYR619  PRO620  LYS621  CYS622 
 ASP623  PHE694  ASN695  SER759  ASP760  ASP761  ALA762  ILE779  LEU786  VAL792 
 PHE793  MET794  SER795  GLU796  ALA797  LYS798  CYS799  TRP800  GLU811  SER814 

> <Gold.Protein.RotatedAtoms>
  152.4946  133.8594  159.7242 H   0  0  0  0  0  0  0  0  0  0  0  0  # atno 6907 bound_to 6896
  150.9110  133.6989  159.2861 H   0  0  0  0  0  0  0  0  0  0  0  0  # atno 6908 bound_to 6896
  151.4398  135.1023  159.9719 H   0  0  0  0  0  0  0  0  0  0  0  0  # atno 6909 bound_to 6896
  144.7128  140.1314  143.6398 H   0  0  0  0  0  0  0  0  0  0  0  0  # atno 7974 bound_to 7965
  154.7282  140.0505  157.0702 H   0  0  0  0  0  0  0  0  0  0  0  0  # atno 8008 bound_to 7997
  155.0337  140.3161  155.4730 H   0  0  0  0  0  0  0  0  0  0  0  0  # atno 8009 bound_to 7997
  156.2834  140.2145  156.5459 H   0  0  0  0  0  0  0  0  0  0  0  0  # atno 8010 bound_to 7997
  140.2239  144.3759  150.6440 H   0  0  0  0  0  0  0  0  0  0  0  0  # atno 10167 bound_to 10162
  157.4554  130.8164  149.7831 H   0  0  0  0  0  0  0  0  0  0  0  0  # atno 10718 bound_to 10713
  154.8732  135.4040  154.3217 H   0  0  0  0  0  0  0  0  0  0  0  0  # atno 10763 bound_to 10752
  153.4044  135.7019  153.6408 H   0  0  0  0  0  0  0  0  0  0  0  0  # atno 10764 bound_to 10752
  153.5137  135.3702  155.2570 H   0  0  0  0  0  0  0  0  0  0  0  0  # atno 10765 bound_to 10752
  139.9540  134.7176  156.0795 H   0  0  0  0  0  0  0  0  0  0  0  0  # atno 11005 bound_to 11000
  145.9283  139.2589  143.1340 LP  0  0  0  0  0  0  0  0  0  0  0  0  # atno 17320 bound_to 7965
  145.9549  140.8880  143.0240 LP  0  0  0  0  0  0  0  0  0  0  0  0  # atno 17321 bound_to 7965
  140.6234  143.2178  151.6646 LP  0  0  0  0  0  0  0  0  0  0  0  0  # atno 17342 bound_to 10162
  139.5134  144.3444  152.0710 LP  0  0  0  0  0  0  0  0  0  0  0  0  # atno 17343 bound_to 10162
  156.0005  130.3883  150.2625 LP  0  0  0  0  0  0  0  0  0  0  0  0  # atno 17370 bound_to 10713
  157.0799  131.0140  151.3160 LP  0  0  0  0  0  0  0  0  0  0  0  0  # atno 17371 bound_to 10713
  141.1208  133.6613  156.3211 LP  0  0  0  0  0  0  0  0  0  0  0  0  # atno 17394 bound_to 11000
  140.5652  134.5895  157.5444 LP  0  0  0  0  0  0  0  0  0  0  0  0  # atno 17395 bound_to 11000

$$$$
