AV-unprocessed.smi:1001|AV-procd|sdf|4357|dock9
  -GOLD-   22720 2253D 1   1.00000     0.00000
 Structure written by MMmdl.
 47 48  0  0  0  0  0  0  0  0  1 V2000
  155.9898  140.5544  160.9001 N   0  0  0  0  0  0  0  0  0  0  0  0
  155.1526  140.5963  159.8563 C   0  0  0  0  0  0  0  0  0  0  0  0
  155.2468  139.8034  158.9201 O   0  0  0  0  0  0  0  0  0  0  0  0
  154.1082  141.6570  159.9008 C   0  0  0  0  0  0  0  0  0  0  0  0
  153.9175  142.3527  161.1623 C   0  0  0  0  0  0  0  0  0  0  0  0
  152.9734  143.3169  161.2271 C   0  0  0  0  0  0  0  0  0  0  0  0
  152.1496  143.6732  160.0709 C   0  0  0  0  0  0  0  0  0  0  0  0
  151.2821  144.5457  160.1053 O   0  0  0  0  0  0  0  0  0  0  0  0
  152.4310  142.9489  158.9447 N   0  0  0  0  0  0  0  0  0  0  0  0
  151.7103  143.1912  157.6865 C   0  0  0  0  0  0  0  0  0  0  0  0
  151.0356  141.9304  157.1264 C   0  0  0  0  0  0  0  0  0  0  0  0
  151.4229  140.8097  157.4604 O   0  0  0  0  0  0  0  0  0  0  0  0
  150.0126  142.1323  156.2821 N   0  0  0  0  0  0  0  0  0  0  0  0
  149.2571  141.0767  155.6179 C   0  0  0  0  0  0  0  0  0  0  0  0
  148.0575  141.6491  154.8448 C   0  0  0  0  0  0  0  0  0  0  0  0
  146.9567  142.1848  155.7756 C   0  0  0  0  0  0  0  0  0  0  0  0
  145.7367  142.7672  155.0320 C   0  0  0  0  0  0  0  0  0  0  0  0
  146.1375  143.5928  153.7892 C   0  0  0  0  0  0  0  0  0  0  0  0
  144.9085  144.1731  153.0703 C   0  0  0  0  0  0  0  0  0  0  0  0
  144.0506  145.0182  154.0232 C   0  0  0  0  0  0  0  0  0  0  0  0
  143.6440  144.2081  155.2631 C   0  0  0  0  0  0  0  0  0  0  0  0
  144.8751  143.6283  155.9789 C   0  0  0  0  0  0  0  0  0  0  0  0
  153.3924  141.9540  158.8647 N   0  0  0  0  0  0  0  0  0  0  0  0
  156.7189  139.8567  160.9316 H   0  0  0  0  0  0  0  0  0  0  0  0
  155.8870  141.2193  161.6532 H   0  0  0  0  0  0  0  0  0  0  0  0
  154.5123  142.1109  162.0311 H   0  0  0  0  0  0  0  0  0  0  0  0
  152.8214  143.8426  162.1582 H   0  0  0  0  0  0  0  0  0  0  0  0
  150.9397  143.9501  157.8320 H   0  0  0  0  0  0  0  0  0  0  0  0
  152.3930  143.6063  156.9423 H   0  0  0  0  0  0  0  0  0  0  0  0
  149.7536  143.0843  156.0670 H   0  0  0  0  0  0  0  0  0  0  0  0
  149.9098  140.5103  154.9516 H   0  0  0  0  0  0  0  0  0  0  0  0
  148.9093  140.3779  156.3792 H   0  0  0  0  0  0  0  0  0  0  0  0
  148.4088  142.4432  154.1862 H   0  0  0  0  0  0  0  0  0  0  0  0
  147.6363  140.8767  154.1999 H   0  0  0  0  0  0  0  0  0  0  0  0
  146.6212  141.3642  156.4112 H   0  0  0  0  0  0  0  0  0  0  0  0
  147.3735  142.9354  156.4483 H   0  0  0  0  0  0  0  0  0  0  0  0
  145.1192  141.9316  154.6990 H   0  0  0  0  0  0  0  0  0  0  0  0
  146.8025  144.4054  154.0849 H   0  0  0  0  0  0  0  0  0  0  0  0
  146.6970  142.9784  153.0847 H   0  0  0  0  0  0  0  0  0  0  0  0
  145.2267  144.7787  152.2215 H   0  0  0  0  0  0  0  0  0  0  0  0
  144.3078  143.3597  152.6611 H   0  0  0  0  0  0  0  0  0  0  0  0
  144.6089  145.9031  154.3307 H   0  0  0  0  0  0  0  0  0  0  0  0
  143.1613  145.3772  153.5041 H   0  0  0  0  0  0  0  0  0  0  0  0
  143.0782  144.8390  155.9491 H   0  0  0  0  0  0  0  0  0  0  0  0
  142.9775  143.3968  154.9676 H   0  0  0  0  0  0  0  0  0  0  0  0
  144.5474  143.0326  156.8314 H   0  0  0  0  0  0  0  0  0  0  0  0
  145.4761  144.4430  156.3853 H   0  0  0  0  0  0  0  0  0  0  0  0
  1  2  1  0  0  0  0
  1 24  1  0  0  0  0
  1 25  1  0  0  0  0
  2  3  2  0  0  0  0
  2  4  1  0  0  0  0
  4 23  2  0  0  0  0
  4  5  1  0  0  0  0
  5  6  2  0  0  0  0
  5 26  1  0  0  0  0
  6  7  1  0  0  0  0
  6 27  1  0  0  0  0
  7  8  2  0  0  0  0
  7  9  1  0  0  0  0
  9 10  1  0  0  0  0
  9 23  1  0  0  0  0
 10 11  1  0  0  0  0
 10 28  1  0  0  0  0
 10 29  1  0  0  0  0
 11 12  2  0  0  0  0
 11 13  1  0  0  0  0
 13 14  1  0  0  0  0
 13 30  1  0  0  0  0
 14 15  1  0  0  0  0
 14 31  1  0  0  0  0
 14 32  1  0  0  0  0
 15 16  1  0  0  0  0
 15 33  1  0  0  0  0
 15 34  1  0  0  0  0
 16 17  1  0  0  0  0
 16 35  1  0  0  0  0
 16 36  1  0  0  0  0
 17 22  1  0  0  0  0
 17 18  1  0  0  0  0
 17 37  1  0  0  0  0
 18 19  1  0  0  0  0
 18 38  1  0  0  0  0
 18 39  1  0  0  0  0
 19 20  1  0  0  0  0
 19 40  1  0  0  0  0
 19 41  1  0  0  0  0
 20 21  1  0  0  0  0
 20 42  1  0  0  0  0
 20 43  1  0  0  0  0
 21 22  1  0  0  0  0
 21 44  1  0  0  0  0
 21 45  1  0  0  0  0
 22 46  1  0  0  0  0
 22 47  1  0  0  0  0
M  END
> <s_m_source_file>
AV-unprocessed.smi

> <i_m_source_file_index>
1001

> <i_lp_mmshare_version>
43012

> <i_f3d_flags>
0

> <s_epik_input>
W05IMl1DKD1PKWMxW2NIXVtjSF1jKD1PKW4objEpW0NIMl1DKD1PKVtOSF1bQ0gyXVtDSDJdW0NIMl1bQ0hdMltDSDJdW0NIMl1bQ0gyXVtDSDJdW0NIMl0y

> <s_epik_cmdline>
J2VwaWtfcHl0aG9uJywgJy1waCcsICc3LjAnLCAnLXRuJywgJzgnLCAnLW1hJywgJzIwMCcsICctbWV0YWxfYmluZGluZycsICctaW1hZScsICc8aW5maWxlLm1hZT4nLCAnLW9tYWUnLCAnPG91dGZpbGUubWFlPic=

> <r_lp_tautomer_probability>
1

> <r_epik_Ionization_Penalty>
2.90452e-06

> <r_epik_Ionization_Penalty_Charging>
3.08996e-10

> <r_epik_Ionization_Penalty_Neutral>
2.90421e-06

> <r_epik_State_Penalty>
-0

> <r_epik_Charging_Adjusted_Penalty>
3.08996e-10

> <i_epik_Tot_Q>
0

> <i_epik_Tot_abs_Q>
0

> <r_epik_Metal_State_Penalty>
-0

> <b_epik_Metal_Only>
0

> <s_lp_Force_Field>
OPLS_2005

> <r_lp_Energy>
27.0219

> <b_lp_Chiralities_Consistent>
1

> <s_lp_Variant>
AV-unprocessed.smi:1001-1

> <Gold.Version>
5.8.1

> <Gold.Id.Protein>
6NUR|6NUR_protein|mol2

> <Gold.PLP.Fitness>
52.1090

> <Gold.PLP.PLP>
-47.1152

> <Gold.PLP.part.hbond>
-3.0000

> <Gold.PLP.part.metal>
0.0000

> <Gold.PLP.part.buried>
-2.3324

> <Gold.PLP.part.nonpolar>
-41.7162

> <Gold.PLP.part.repulsive>
0.2388

> <Gold.PLP.ligand.clash>
0.0000

> <Gold.PLP.ligand.torsion>
0.5888

> <Gold.PLP.Chemscore.Hbond>
2.0000

> <Gold.PLP.Chemscore.CHOScore>
0.0000

> <Gold.PLP.Chemscore.Metal>
0.0000

> <Gold.Chemscore.Hbonds>
donor molecule, donor type, donor heavy atom, donor atom, acceptor molecule, acceptor atom, score
      L1  H    13    30       P1  8028  1.00
      P1  H  7997  8009       L1     3  0.86

> <Gold.PLP.Chemscore.Internal.Correction>
0.1715

> <Gold.Rescore>
     Score         DG    S(hbond)    S(metal)    S(lipo)     H(rot)  DE(clash)    DE(int)     intcor
     14.28     -16.93       1.98        0.00      95.29       2.46       0.52       2.13       ----

> <Gold.Chemscore.Fitness>
14.2800

> <Gold.Chemscore.DG>
-16.9343

> <Gold.Chemscore.ZeroCoef>
-5.4800

> <Gold.Chemscore.Hbond>
1.9763

> <Gold.Chemscore.Metal>
0.0000

> <Gold.Chemscore.Lipo>
95.2943

> <Gold.Chemscore.Internal_Hbond>
0.0000

> <Gold.Chemscore.DEClash>
0.5199

> <Gold.Chemscore.DEInternal>
2.1345

> <Gold.Chemscore.Rot>
2.4593

> <Gold.Chemscore.Internal.Correction>
   9.000000E+99

> <Gold.Chemscore.Hbonds>
donor molecule, donor type, donor heavy atom, donor atom, acceptor molecule, acceptor atom, score
      L1  H    13    30       P1  8028  1.00
      P1  H  7997  8009       L1     3  0.85

> <Gold.Chemscore.Hbond.Weighted>
-6.6007

> <Gold.Chemscore.Metal.Weighted>
-0.0000

> <Gold.Chemscore.Lipo.Weighted>
-11.1494

> <Gold.Chemscore.Internal_Hbond.Weighted>
0.0000

> <Gold.Chemscore.DEClash.Weighted>
0.5199

> <Gold.Chemscore.DEInternal.Weighted>
2.1345

> <Gold.Chemscore.Rot.Weighted>
6.2958

> <Gold.Chemscore.Internal.Correction.Weighted>
   9.000000E+99

> <Gold.Protein.RotatedTorsions>
[ 6907 6896 6895 6894 ] final  -83.61 input  -60.11 | X-H torsion
[ 7974 7965 7964 7962 ] final -137.57 input  175.53 | X-H torsion
[ 8008 7997 7996 7995 ] final  129.24 input   59.86 | X-H torsion
[ 10167 10162 10161 10158 ] final  150.98 input  -65.29 | X-H torsion
[ 10718 10713 10712 10709 ] final  175.21 input   66.30 | X-H torsion
[ 10763 10752 10751 10750 ] final   -1.93 input  -60.55 | X-H torsion
[ 11005 11000 10999 10996 ] final  179.54 input  -57.11 | X-H torsion

> <Gold.Protein.ActiveResidues>
 VAL166  LYS551  ARG553  GLY616  TRP617  ASP618  TYR619  PRO620  LYS621  CYS622 
 ASP623  PHE694  ASN695  SER759  ASP760  ASP761  ALA762  ILE779  LEU786  VAL792 
 PHE793  MET794  SER795  GLU796  ALA797  LYS798  CYS799  TRP800  GLU811  SER814 

> <Gold.Protein.RotatedAtoms>
  150.6884  134.3485  159.4898 H   0  0  0  0  0  0  0  0  0  0  0  0  # atno 6907 bound_to 6896
  152.1329  134.9118  160.0567 H   0  0  0  0  0  0  0  0  0  0  0  0  # atno 6908 bound_to 6896
  152.0281  133.3891  159.4323 H   0  0  0  0  0  0  0  0  0  0  0  0  # atno 6909 bound_to 6896
  144.8831  140.6536  143.5193 H   0  0  0  0  0  0  0  0  0  0  0  0  # atno 7974 bound_to 7965
  156.2932  140.2625  156.2567 H   0  0  0  0  0  0  0  0  0  0  0  0  # atno 8008 bound_to 7997
  154.9829  140.0389  157.2304 H   0  0  0  0  0  0  0  0  0  0  0  0  # atno 8009 bound_to 7997
  154.7755  140.2786  155.6109 H   0  0  0  0  0  0  0  0  0  0  0  0  # atno 8010 bound_to 7997
  139.4845  144.5478  151.7454 H   0  0  0  0  0  0  0  0  0  0  0  0  # atno 10167 bound_to 10162
  156.9382  130.9993  151.2974 H   0  0  0  0  0  0  0  0  0  0  0  0  # atno 10718 bound_to 10713
  153.3513  135.6986  153.6786 H   0  0  0  0  0  0  0  0  0  0  0  0  # atno 10763 bound_to 10752
  153.5511  135.3553  155.2760 H   0  0  0  0  0  0  0  0  0  0  0  0  # atno 10764 bound_to 10752
  154.8654  135.4227  154.2750 H   0  0  0  0  0  0  0  0  0  0  0  0  # atno 10765 bound_to 10752
  140.4073  134.6723  157.4595 H   0  0  0  0  0  0  0  0  0  0  0  0  # atno 11005 bound_to 11000
  145.3918  139.1615  143.4225 LP  0  0  0  0  0  0  0  0  0  0  0  0  # atno 17320 bound_to 7965
  146.3007  140.4008  142.8705 LP  0  0  0  0  0  0  0  0  0  0  0  0  # atno 17321 bound_to 7965
  140.5027  144.1144  150.5975 LP  0  0  0  0  0  0  0  0  0  0  0  0  # atno 17342 bound_to 10162
  140.4043  143.2688  151.9910 LP  0  0  0  0  0  0  0  0  0  0  0  0  # atno 17343 bound_to 10162
  157.5802  130.8371  149.8512 LP  0  0  0  0  0  0  0  0  0  0  0  0  # atno 17370 bound_to 10713
  156.0416  130.3737  150.1421 LP  0  0  0  0  0  0  0  0  0  0  0  0  # atno 17371 bound_to 10713
  140.0292  134.6431  155.9129 LP  0  0  0  0  0  0  0  0  0  0  0  0  # atno 17394 bound_to 11000
  141.1834  133.6551  156.5116 LP  0  0  0  0  0  0  0  0  0  0  0  0  # atno 17395 bound_to 11000

$$$$
