AV-unprocessed.smi:3148|AV-procd|sdf|11992|dock6
  -GOLD-   2272017393D 1   1.00000     0.00000
 Structure written by MMmdl.
 34 36  0  0  0  0  0  0  0  0  1 V2000
  151.4229  137.5043  154.4345 C   0  0  0  0  0  0  0  0  0  0  0  0
  151.6854  138.6466  155.2420 O   0  0  0  0  0  0  0  0  0  0  0  0
  150.7609  139.6704  155.2390 C   0  0  0  0  0  0  0  0  0  0  0  0
  149.6751  139.6223  154.3411 C   0  0  0  0  0  0  0  0  0  0  0  0
  148.7683  140.7014  154.3948 C   0  0  0  0  0  0  0  0  0  0  0  0
  147.5575  140.7638  153.4882 C   0  0  0  0  0  0  0  0  0  0  0  0
  148.9307  141.7266  155.2600 N   0  0  0  0  0  0  0  0  0  0  0  0
  149.9915  141.6746  156.0683 C   0  0  0  0  0  0  0  0  0  0  0  0
  150.1232  142.7347  156.9459 N   0  0  0  0  0  0  0  0  0  0  0  0
  150.4041  142.5910  158.3699 C   0  0  1  0  0  0  0  0  0  0  0  0
  151.7919  142.0130  158.6551 C   0  0  0  0  0  0  0  0  0  0  0  0
  152.3776  143.0607  159.6127 C   0  0  1  0  0  0  0  0  0  0  0  0
  152.7832  144.3395  158.8684 C   0  0  0  0  0  0  0  0  0  0  0  0
  151.4233  144.9549  158.5449 C   0  0  0  0  0  0  0  0  0  0  0  0
  150.4551  143.9217  159.1465 C   0  0  2  0  0  0  0  0  0  0  0  0
  151.2065  143.5082  160.2753 O   0  0  0  0  0  0  0  0  0  0  0  0
  150.9123  140.7049  156.1026 N   0  0  0  0  0  0  0  0  0  0  0  0
  152.2425  136.7934  154.5385 H   0  0  0  0  0  0  0  0  0  0  0  0
  151.3472  137.7707  153.3793 H   0  0  0  0  0  0  0  0  0  0  0  0
  150.5061  136.9996  154.7425 H   0  0  0  0  0  0  0  0  0  0  0  0
  149.5476  138.8003  153.6523 H   0  0  0  0  0  0  0  0  0  0  0  0
  147.5922  139.9794  152.7317 H   0  0  0  0  0  0  0  0  0  0  0  0
  147.5108  141.7265  152.9784 H   0  0  0  0  0  0  0  0  0  0  0  0
  146.6443  140.6375  154.0700 H   0  0  0  0  0  0  0  0  0  0  0  0
  149.8282  143.6409  156.6131 H   0  0  0  0  0  0  0  0  0  0  0  0
  149.6533  141.9378  158.8172 H   0  0  0  0  0  0  0  0  0  0  0  0
  151.7026  141.0432  159.1456 H   0  0  0  0  0  0  0  0  0  0  0  0
  152.4086  141.8854  157.7642 H   0  0  0  0  0  0  0  0  0  0  0  0
  153.1502  142.6715  160.2761 H   0  0  0  0  0  0  0  0  0  0  0  0
  153.3579  145.0018  159.5169 H   0  0  0  0  0  0  0  0  0  0  0  0
  153.3777  144.1320  157.9780 H   0  0  0  0  0  0  0  0  0  0  0  0
  151.3149  145.9170  159.0463 H   0  0  0  0  0  0  0  0  0  0  0  0
  151.2707  145.1150  157.4773 H   0  0  0  0  0  0  0  0  0  0  0  0
  149.4739  144.3289  159.3920 H   0  0  0  0  0  0  0  0  0  0  0  0
  1  2  1  0  0  0  0
  1 18  1  0  0  0  0
  1 19  1  0  0  0  0
  1 20  1  0  0  0  0
  2  3  1  0  0  0  0
  3 17  1  0  0  0  0
  3  4  2  0  0  0  0
  4  5  1  0  0  0  0
  4 21  1  0  0  0  0
  5  6  1  0  0  0  0
  5  7  2  0  0  0  0
  6 22  1  0  0  0  0
  6 23  1  0  0  0  0
  6 24  1  0  0  0  0
  7  8  1  0  0  0  0
  8  9  1  0  0  0  0
  8 17  2  0  0  0  0
  9 10  1  0  0  0  0
  9 25  1  0  0  0  0
 10 15  1  0  0  0  0
 10 11  1  0  0  0  0
 10 26  1  0  0  0  0
 11 12  1  0  0  0  0
 11 27  1  0  0  0  0
 11 28  1  0  0  0  0
 12 16  1  0  0  0  0
 12 13  1  0  0  0  0
 12 29  1  0  0  0  0
 13 14  1  0  0  0  0
 13 30  1  0  0  0  0
 13 31  1  0  0  0  0
 14 15  1  0  0  0  0
 14 32  1  0  0  0  0
 14 33  1  0  0  0  0
 15 16  1  0  0  0  0
 15 34  1  0  0  0  0
M  END
> <s_m_source_file>
AV-unprocessed.smi

> <i_m_source_file_index>
3148

> <i_lp_mmshare_version>
43012

> <i_f3d_flags>
0

> <s_epik_input>
W0NIM11PYzFbY0hdYyhbQ0gzXSluYyhuMSlbTkhdW0NASF0oW0NIMl1bQ0BASF0yMylbQ0BASF0oTzMpW0NIMl1bQ0gyXTI=

> <s_epik_cmdline>
J2VwaWtfcHl0aG9uJywgJy1waCcsICc3LjAnLCAnLXRuJywgJzgnLCAnLW1hJywgJzIwMCcsICctbWV0YWxfYmluZGluZycsICctaW1hZScsICc8aW5maWxlLm1hZT4nLCAnLW9tYWUnLCAnPG91dGZpbGUubWFlPic=

> <r_lp_tautomer_probability>
1

> <r_epik_Ionization_Penalty>
0.101645

> <r_epik_Ionization_Penalty_Charging>
0

> <r_epik_Ionization_Penalty_Neutral>
0.101645

> <r_epik_State_Penalty>
0.0916212

> <r_epik_Charging_Adjusted_Penalty>
0.0916212

> <i_epik_Tot_Q>
0

> <i_epik_Tot_abs_Q>
0

> <r_epik_Metal_State_Penalty>
0.0781

> <b_epik_Metal_Only>
0

> <s_lp_Force_Field>
OPLS_2005

> <r_lp_Energy>
31.5885

> <b_lp_Chiralities_Consistent>
1

> <s_lp_Variant>
AV-unprocessed.smi:3148-2

> <Gold.Version>
5.8.1

> <Gold.Id.Protein>
6NUR|6NUR_protein|mol2

> <Gold.PLP.Fitness>
39.1266

> <Gold.PLP.PLP>
-37.1437

> <Gold.PLP.part.hbond>
-1.4373

> <Gold.PLP.part.metal>
0.0000

> <Gold.PLP.part.buried>
-4.8995

> <Gold.PLP.part.nonpolar>
-31.6589

> <Gold.PLP.part.repulsive>
0.9835

> <Gold.PLP.ligand.clash>
0.0852

> <Gold.PLP.ligand.torsion>
0.4710

> <Gold.PLP.Chemscore.Hbond>
1.0000

> <Gold.PLP.Chemscore.CHOScore>
0.0000

> <Gold.PLP.Chemscore.Metal>
0.0000

> <Gold.Chemscore.Hbonds>
donor molecule, donor type, donor heavy atom, donor atom, acceptor molecule, acceptor atom, score
      L1  H     9    25       P1  8028  1.00

> <Gold.PLP.Chemscore.Internal.Correction>
0.0100

> <Gold.Rescore>
     Score         DG    S(hbond)    S(metal)    S(lipo)     H(rot)  DE(clash)    DE(int)     intcor
     16.32     -17.04       1.00        0.00      97.17       1.22       0.26       0.47       ----

> <Gold.Chemscore.Fitness>
16.3214

> <Gold.Chemscore.DG>
-17.0443

> <Gold.Chemscore.ZeroCoef>
-5.4800

> <Gold.Chemscore.Hbond>
0.9961

> <Gold.Chemscore.Metal>
0.0000

> <Gold.Chemscore.Lipo>
97.1683

> <Gold.Chemscore.Internal_Hbond>
0.0000

> <Gold.Chemscore.DEClash>
0.2552

> <Gold.Chemscore.DEInternal>
0.4678

> <Gold.Chemscore.Rot>
1.2232

> <Gold.Chemscore.Internal.Correction>
   9.000000E+99

> <Gold.Chemscore.Hbonds>
donor molecule, donor type, donor heavy atom, donor atom, acceptor molecule, acceptor atom, score
      L1  H     9    25       P1  8028  0.98

> <Gold.Chemscore.Hbond.Weighted>
-3.3270

> <Gold.Chemscore.Metal.Weighted>
-0.0000

> <Gold.Chemscore.Lipo.Weighted>
-11.3687

> <Gold.Chemscore.Internal_Hbond.Weighted>
0.0000

> <Gold.Chemscore.DEClash.Weighted>
0.2552

> <Gold.Chemscore.DEInternal.Weighted>
0.4678

> <Gold.Chemscore.Rot.Weighted>
3.1314

> <Gold.Chemscore.Internal.Correction.Weighted>
   9.000000E+99

> <Gold.Protein.RotatedTorsions>
[ 6907 6896 6895 6894 ] final  116.92 input  -60.11 | X-H torsion
[ 7974 7965 7964 7962 ] final -108.89 input  175.53 | X-H torsion
[ 8008 7997 7996 7995 ] final -106.35 input   59.86 | X-H torsion
[ 10167 10162 10161 10158 ] final   86.47 input  -65.29 | X-H torsion
[ 10718 10713 10712 10709 ] final   46.58 input   66.30 | X-H torsion
[ 10763 10752 10751 10750 ] final  -28.21 input  -60.55 | X-H torsion
[ 11005 11000 10999 10996 ] final    1.97 input  -57.11 | X-H torsion

> <Gold.Protein.ActiveResidues>
 VAL166  LYS551  ARG553  GLY616  TRP617  ASP618  TYR619  PRO620  LYS621  CYS622 
 ASP623  PHE694  ASN695  SER759  ASP760  ASP761  ALA762  ILE779  LEU786  VAL792 
 PHE793  MET794  SER795  GLU796  ALA797  LYS798  CYS799  TRP800  GLU811  SER814 

> <Gold.Protein.RotatedAtoms>
  152.4646  133.7896  159.6894 H   0  0  0  0  0  0  0  0  0  0  0  0  # atno 6907 bound_to 6896
  150.8605  133.7641  159.3000 H   0  0  0  0  0  0  0  0  0  0  0  0  # atno 6908 bound_to 6896
  151.5208  135.1070  159.9930 H   0  0  0  0  0  0  0  0  0  0  0  0  # atno 6909 bound_to 6896
  145.1872  140.8998  143.3445 H   0  0  0  0  0  0  0  0  0  0  0  0  # atno 7974 bound_to 7965
  154.9132  140.0409  157.1958 H   0  0  0  0  0  0  0  0  0  0  0  0  # atno 8008 bound_to 7997
  154.8327  140.2901  155.5690 H   0  0  0  0  0  0  0  0  0  0  0  0  # atno 8009 bound_to 7997
  156.2988  140.2497  156.3255 H   0  0  0  0  0  0  0  0  0  0  0  0  # atno 8010 bound_to 7997
  139.8872  144.6406  150.8778 H   0  0  0  0  0  0  0  0  0  0  0  0  # atno 10167 bound_to 10162
  157.4496  130.8130  149.7775 H   0  0  0  0  0  0  0  0  0  0  0  0  # atno 10718 bound_to 10713
  153.7446  135.6930  153.4959 H   0  0  0  0  0  0  0  0  0  0  0  0  # atno 10763 bound_to 10752
  153.2045  135.4424  155.0305 H   0  0  0  0  0  0  0  0  0  0  0  0  # atno 10764 bound_to 10752
  154.8208  135.3421  154.6970 H   0  0  0  0  0  0  0  0  0  0  0  0  # atno 10765 bound_to 10752
  140.6095  133.9761  155.8170 H   0  0  0  0  0  0  0  0  0  0  0  0  # atno 11005 bound_to 11000
  145.0077  139.3539  143.6136 LP  0  0  0  0  0  0  0  0  0  0  0  0  # atno 17320 bound_to 7965
  146.3442  139.9326  142.8751 LP  0  0  0  0  0  0  0  0  0  0  0  0  # atno 17321 bound_to 7965
  140.7733  143.3538  151.1961 LP  0  0  0  0  0  0  0  0  0  0  0  0  # atno 17342 bound_to 10162
  139.7142  143.9327  152.2960 LP  0  0  0  0  0  0  0  0  0  0  0  0  # atno 17343 bound_to 10162
  155.9982  130.3896  150.2712 LP  0  0  0  0  0  0  0  0  0  0  0  0  # atno 17370 bound_to 10713
  157.0883  131.0162  151.3131 LP  0  0  0  0  0  0  0  0  0  0  0  0  # atno 17371 bound_to 10713
  141.0818  134.0051  157.3375 LP  0  0  0  0  0  0  0  0  0  0  0  0  # atno 17394 bound_to 11000
  139.9198  135.0200  156.8021 LP  0  0  0  0  0  0  0  0  0  0  0  0  # atno 17395 bound_to 11000

$$$$
