AV-unprocessed.smi:1582|AV-procd|sdf|6362|dock6
  -GOLD-   22720 6583D 1   1.00000     0.00000
 Structure written by MMmdl.
 41 42  0  0  0  0  0  0  0  0  2 V2000
  144.1644  135.3327  152.3558 O   0  0  0  0  0  0  0  0  0  0  0  0
  144.8503  135.6139  151.3735 C   0  0  0  0  0  0  0  0  0  0  0  0
  145.6597  136.6809  151.3173 N   0  0  0  0  0  0  0  0  0  0  0  0
  145.8821  137.6272  152.4066 C   0  0  0  0  0  0  0  0  0  0  0  0
  146.9539  138.6883  152.0794 C   0  0  1  0  0  0  0  0  0  0  0  0
  146.3152  139.7413  151.3856 O   0  0  0  0  0  0  0  0  0  0  0  0
  147.6433  139.2693  153.3331 C   0  0  0  0  0  0  0  0  0  0  0  0
  148.7008  138.3731  153.8680 N   0  3  0  0  0  0  0  0  0  0  0  0
  149.9453  139.1119  154.2067 C   0  0  0  0  0  0  0  0  0  0  0  0
  151.0709  138.1486  154.6196 C   0  0  0  0  0  0  0  0  0  0  0  0
  150.6318  137.2563  155.7876 C   0  0  0  0  0  0  0  0  0  0  0  0
  149.3292  136.5294  155.4291 C   0  0  0  0  0  0  0  0  0  0  0  0
  148.2397  137.5282  155.0031 C   0  0  0  0  0  0  0  0  0  0  0  0
  144.8906  134.9104  150.2306 N   0  0  0  0  0  0  0  0  0  0  0  0
  144.1886  133.7154  149.9336 C   0  0  0  0  0  0  0  0  0  0  0  0
  144.1432  132.9736  148.7166 C   0  0  0  0  0  0  0  0  0  0  0  0
  143.3687  131.9044  148.8355 N   0  0  0  0  0  0  0  0  0  0  0  0
  142.9211  131.9561  150.1103 N   0  0  0  0  0  0  0  0  0  0  0  0
  143.3958  133.0412  150.8136 C   0  0  0  0  0  0  0  0  0  0  0  0
  142.2992  131.2512  150.4806 H   0  0  0  0  0  0  0  0  0  0  0  0
  146.1878  136.8308  150.4700 H   0  0  0  0  0  0  0  0  0  0  0  0
  144.9362  138.1097  152.6598 H   0  0  0  0  0  0  0  0  0  0  0  0
  146.1797  137.0551  153.2862 H   0  0  0  0  0  0  0  0  0  0  0  0
  147.6893  138.2495  151.4064 H   0  0  0  0  0  0  0  0  0  0  0  0
  145.5995  140.0632  151.9127 H   0  0  0  0  0  0  0  0  0  0  0  0
  148.0736  140.2370  153.0706 H   0  0  0  0  0  0  0  0  0  0  0  0
  146.9186  139.4668  154.1241 H   0  0  0  0  0  0  0  0  0  0  0  0
  150.2748  139.6937  153.3450 H   0  0  0  0  0  0  0  0  0  0  0  0
  149.7409  139.8217  155.0102 H   0  0  0  0  0  0  0  0  0  0  0  0
  151.3510  137.5267  153.7684 H   0  0  0  0  0  0  0  0  0  0  0  0
  151.9617  138.7130  154.8969 H   0  0  0  0  0  0  0  0  0  0  0  0
  151.4136  136.5348  156.0266 H   0  0  0  0  0  0  0  0  0  0  0  0
  150.4823  137.8638  156.6813 H   0  0  0  0  0  0  0  0  0  0  0  0
  149.5144  135.8220  154.6196 H   0  0  0  0  0  0  0  0  0  0  0  0
  148.9844  135.9416  156.2805 H   0  0  0  0  0  0  0  0  0  0  0  0
  147.9670  138.1652  155.8459 H   0  0  0  0  0  0  0  0  0  0  0  0
  147.3437  136.9733  154.7276 H   0  0  0  0  0  0  0  0  0  0  0  0
  145.5009  135.2542  149.5037 H   0  0  0  0  0  0  0  0  0  0  0  0
  144.6298  133.1612  147.7710 H   0  0  0  0  0  0  0  0  0  0  0  0
  143.1341  133.2306  151.8443 H   0  0  0  0  0  0  0  0  0  0  0  0
  148.9439  137.7459  153.1138 H   0  0  0  0  0  0  0  0  0  0  0  0
  1  2  2  0  0  0  0
  2  3  1  0  0  0  0
  2 14  1  0  0  0  0
  3  4  1  0  0  0  0
  3 21  1  0  0  0  0
  4  5  1  0  0  0  0
  4 22  1  0  0  0  0
  4 23  1  0  0  0  0
  5  6  1  0  0  0  0
  5  7  1  0  0  0  0
  5 24  1  0  0  0  0
  6 25  1  0  0  0  0
  7  8  1  0  0  0  0
  7 26  1  0  0  0  0
  7 27  1  0  0  0  0
  8 13  1  0  0  0  0
  8  9  1  0  0  0  0
  8 41  1  0  0  0  0
  9 10  1  0  0  0  0
  9 28  1  0  0  0  0
  9 29  1  0  0  0  0
 10 11  1  0  0  0  0
 10 30  1  0  0  0  0
 10 31  1  0  0  0  0
 11 12  1  0  0  0  0
 11 32  1  0  0  0  0
 11 33  1  0  0  0  0
 12 13  1  0  0  0  0
 12 34  1  0  0  0  0
 12 35  1  0  0  0  0
 13 36  1  0  0  0  0
 13 37  1  0  0  0  0
 14 15  1  0  0  0  0
 14 38  1  0  0  0  0
 15 19  2  0  0  0  0
 15 16  1  0  0  0  0
 16 17  2  0  0  0  0
 16 39  1  0  0  0  0
 17 18  1  0  0  0  0
 18 20  1  0  0  0  0
 18 19  1  0  0  0  0
 19 40  1  0  0  0  0
M  CHG  1   8   1
M  END
> <s_m_source_file>
AV-unprocessed.smi

> <i_m_source_file_index>
1582

> <i_lp_mmshare_version>
43012

> <i_f3d_flags>
0

> <s_epik_input>
W2NIXTFbbkhdbltjSF1jMVtOSF1DKD1PKVtOSF1bQ0gyXVtDQEhdKFtPSF0pW0NIMl1OMltDSDJdW0NIMl1bQ0gyXVtDSDJdW0NIMl0y

> <s_epik_cmdline>
J2VwaWtfcHl0aG9uJywgJy1waCcsICc3LjAnLCAnLXRuJywgJzgnLCAnLW1hJywgJzIwMCcsICctbWV0YWxfYmluZGluZycsICctaW1hZScsICc8aW5maWxlLm1hZT4nLCAnLW9tYWUnLCAnPG91dGZpbGUubWFlPic=

> <r_lp_tautomer_probability>
0.5

> <r_epik_Ionization_Penalty>
0.00519658

> <r_epik_Ionization_Penalty_Charging>
0.00515354

> <r_epik_Ionization_Penalty_Neutral>
4.30332e-05

> <r_epik_State_Penalty>
0.00375424

> <r_epik_Charging_Adjusted_Penalty>
0.00890779

> <i_epik_Tot_Q>
1

> <i_epik_Tot_abs_Q>
1

> <r_epik_Metal_State_Penalty>
-0

> <b_epik_Metal_Only>
0

> <s_lp_Force_Field>
OPLS_2005

> <r_lp_Energy>
21.3928

> <b_lp_Chiralities_Consistent>
1

> <s_lp_Variant>
AV-unprocessed.smi:1582-2

> <Gold.Version>
5.8.1

> <Gold.Id.Protein>
6NUR|6NUR_protein|mol2

> <Gold.PLP.Fitness>
46.6600

> <Gold.PLP.PLP>
-30.9547

> <Gold.PLP.part.hbond>
-7.7258

> <Gold.PLP.part.metal>
0.0000

> <Gold.PLP.part.buried>
1.1385

> <Gold.PLP.part.nonpolar>
-27.1460

> <Gold.PLP.part.repulsive>
1.1987

> <Gold.PLP.ligand.clash>
0.0000

> <Gold.PLP.ligand.torsion>
1.0669

> <Gold.PLP.Chemscore.Hbond>
5.1112

> <Gold.PLP.Chemscore.CHOScore>
0.8085

> <Gold.PLP.Chemscore.Metal>
0.0000

> <Gold.Chemscore.Hbonds>
donor molecule, donor type, donor heavy atom, donor atom, acceptor molecule, acceptor atom, score
      L1  H     6    25       P1 10175  1.00
      L1  H     8    41       P1  7948  2.00
      L1  H    14    38       P1  7921  0.85
      L1  H    18    20       P1 10952  0.58
      P1  H 10785 10796       L1    17  0.63
      L1  C    16    39       P1  7921  0.81

> <Gold.PLP.Chemscore.Internal.Correction>
0.0803

> <Gold.Rescore>
     Score         DG    S(hbond)    S(metal)    S(lipo)     H(rot)  DE(clash)    DE(int)     intcor
     13.48     -16.56       2.65        0.00      75.78       2.59       0.90       2.18       ----

> <Gold.Chemscore.Fitness>
13.4766

> <Gold.Chemscore.DG>
-16.5583

> <Gold.Chemscore.ZeroCoef>
-5.4800

> <Gold.Chemscore.Hbond>
2.6455

> <Gold.Chemscore.Metal>
0.0000

> <Gold.Chemscore.Lipo>
75.7826

> <Gold.Chemscore.Internal_Hbond>
0.0000

> <Gold.Chemscore.DEClash>
0.9031

> <Gold.Chemscore.DEInternal>
2.1786

> <Gold.Chemscore.Rot>
2.5876

> <Gold.Chemscore.Internal.Correction>
   9.000000E+99

> <Gold.Chemscore.Hbonds>
donor molecule, donor type, donor heavy atom, donor atom, acceptor molecule, acceptor atom, score
      L1  H     6    25       P1 10175  0.42
      L1  H     8    41       P1  7948  0.99
      L1  H    14    38       P1  7921  0.78
      L1  H    18    20       P1 10952  0.17
      P1  H 10785 10796       L1    17  0.06

> <Gold.Chemscore.Hbond.Weighted>
-8.8359

> <Gold.Chemscore.Metal.Weighted>
-0.0000

> <Gold.Chemscore.Lipo.Weighted>
-8.8666

> <Gold.Chemscore.Internal_Hbond.Weighted>
0.0000

> <Gold.Chemscore.DEClash.Weighted>
0.9031

> <Gold.Chemscore.DEInternal.Weighted>
2.1786

> <Gold.Chemscore.Rot.Weighted>
6.6242

> <Gold.Chemscore.Internal.Correction.Weighted>
   9.000000E+99

> <Gold.Protein.RotatedTorsions>
[ 6907 6896 6895 6894 ] final  -38.85 input  -60.11 | X-H torsion
[ 7974 7965 7964 7962 ] final  166.66 input  175.53 | X-H torsion
[ 8008 7997 7996 7995 ] final   43.21 input   59.86 | X-H torsion
[ 10167 10162 10161 10158 ] final   -6.71 input  -65.29 | X-H torsion
[ 10718 10713 10712 10709 ] final  105.58 input   66.30 | X-H torsion
[ 10763 10752 10751 10750 ] final  138.34 input  -60.55 | X-H torsion
[ 11005 11000 10999 10996 ] final  152.47 input  -57.11 | X-H torsion

> <Gold.Protein.ActiveResidues>
 VAL166  LYS551  ARG553  GLY616  TRP617  ASP618  TYR619  PRO620  LYS621  CYS622 
 ASP623  PHE694  ASN695  SER759  ASP760  ASP761  ALA762  ILE779  LEU786  VAL792 
 PHE793  MET794  SER795  GLU796  ALA797  LYS798  CYS799  TRP800  GLU811  SER814 

> <Gold.Protein.RotatedAtoms>
  150.9974  134.9294  159.7934 H   0  0  0  0  0  0  0  0  0  0  0  0  # atno 6907 bound_to 6896
  152.5268  134.3200  159.9155 H   0  0  0  0  0  0  0  0  0  0  0  0  # atno 6908 bound_to 6896
  151.3205  133.4000  159.2688 H   0  0  0  0  0  0  0  0  0  0  0  0  # atno 6909 bound_to 6896
  144.7454  139.8647  143.6384 H   0  0  0  0  0  0  0  0  0  0  0  0  # atno 7974 bound_to 7965
  155.2990  140.3384  155.4248 H   0  0  0  0  0  0  0  0  0  0  0  0  # atno 8008 bound_to 7997
  156.2010  140.1733  156.7938 H   0  0  0  0  0  0  0  0  0  0  0  0  # atno 8009 bound_to 7997
  154.5559  140.0696  156.8727 H   0  0  0  0  0  0  0  0  0  0  0  0  # atno 8010 bound_to 7997
  140.7006  143.6163  150.8655 H   0  0  0  0  0  0  0  0  0  0  0  0  # atno 10167 bound_to 10162
  157.6700  131.0831  150.5878 H   0  0  0  0  0  0  0  0  0  0  0  0  # atno 10718 bound_to 10713
  153.8880  135.3036  155.3447 H   0  0  0  0  0  0  0  0  0  0  0  0  # atno 10763 bound_to 10752
  154.7730  135.4876  153.9690 H   0  0  0  0  0  0  0  0  0  0  0  0  # atno 10764 bound_to 10752
  153.1314  135.6804  153.9271 H   0  0  0  0  0  0  0  0  0  0  0  0  # atno 10765 bound_to 10752
  140.1311  134.8801  157.2205 H   0  0  0  0  0  0  0  0  0  0  0  0  # atno 11005 bound_to 11000
  146.1323  139.4361  143.0161 LP  0  0  0  0  0  0  0  0  0  0  0  0  # atno 17320 bound_to 7965
  145.7144  141.0095  143.1436 LP  0  0  0  0  0  0  0  0  0  0  0  0  # atno 17321 bound_to 7965
  139.9885  143.5873  152.2918 LP  0  0  0  0  0  0  0  0  0  0  0  0  # atno 17342 bound_to 10162
  139.6520  144.7661  151.2130 LP  0  0  0  0  0  0  0  0  0  0  0  0  # atno 17343 bound_to 10162
  156.6178  130.4397  149.5834 LP  0  0  0  0  0  0  0  0  0  0  0  0  # atno 17370 bound_to 10713
  156.2379  130.6834  151.1527 LP  0  0  0  0  0  0  0  0  0  0  0  0  # atno 17371 bound_to 10713
  140.2841  134.3316  155.7334 LP  0  0  0  0  0  0  0  0  0  0  0  0  # atno 17394 bound_to 11000
  141.2170  133.7496  156.9407 LP  0  0  0  0  0  0  0  0  0  0  0  0  # atno 17395 bound_to 11000

$$$$
