AV-unprocessed.smi:2264|AV-procd|sdf|9142|dock9
  -GOLD-   2272012353D 1   1.00000     0.00000
 Structure written by MMmdl.
 44 45  0  0  0  0  0  0  0  0  1 V2000
  152.7092  144.0202  161.9047 C   0  0  0  0  0  0  0  0  0  0  0  0
  152.4426  143.1118  160.7221 C   0  0  0  0  0  0  0  0  0  0  0  0
  151.6606  143.5583  159.6393 C   0  0  0  0  0  0  0  0  0  0  0  0
  151.4168  142.7089  158.5434 C   0  0  0  0  0  0  0  0  0  0  0  0
  151.9537  141.3972  158.5154 C   0  0  0  0  0  0  0  0  0  0  0  0
  151.7563  140.5110  157.4779 O   0  0  0  0  0  0  0  0  0  0  0  0
  151.5762  141.0261  156.1658 C   0  0  0  0  0  0  0  0  0  0  0  0
  150.9789  139.9119  155.2934 C   0  0  1  0  0  0  0  0  0  0  0  0
  151.8550  138.8056  155.3657 O   0  0  0  0  0  0  0  0  0  0  0  0
  149.5757  139.4782  155.7786 C   0  0  0  0  0  0  0  0  0  0  0  0
  148.5581  140.5040  155.5005 N   0  0  0  0  0  0  0  0  0  0  0  0
  148.3717  140.8463  154.1503 C   0  0  0  0  0  0  0  0  0  0  0  0
  147.5029  141.7325  153.7883 N   0  0  0  0  0  0  0  0  0  0  0  0
  146.7195  142.3743  154.7519 C   0  0  0  0  0  0  0  0  0  0  0  0
  145.7371  143.4026  154.2194 C   0  0  0  0  0  0  0  0  0  0  0  0
  146.8453  142.0815  156.0751 C   0  0  0  0  0  0  0  0  0  0  0  0
  146.0212  142.7499  157.1685 C   0  0  0  0  0  0  0  0  0  0  0  0
  147.8245  141.0686  156.5019 C   0  0  0  0  0  0  0  0  0  0  0  0
  147.9815  140.7462  157.6811 O   0  0  0  0  0  0  0  0  0  0  0  0
  152.7356  140.9547  159.6071 C   0  0  0  0  0  0  0  0  0  0  0  0
  153.3236  139.5557  159.6019 C   0  0  0  0  0  0  0  0  0  0  0  0
  152.9774  141.8094  160.7029 C   0  0  0  0  0  0  0  0  0  0  0  0
  152.3291  145.0268  161.7274 H   0  0  0  0  0  0  0  0  0  0  0  0
  153.7805  144.0904  162.0948 H   0  0  0  0  0  0  0  0  0  0  0  0
  152.2266  143.6262  162.7994 H   0  0  0  0  0  0  0  0  0  0  0  0
  151.2430  144.5547  159.6440 H   0  0  0  0  0  0  0  0  0  0  0  0
  150.8102  143.0878  157.7352 H   0  0  0  0  0  0  0  0  0  0  0  0
  150.8937  141.8771  156.2009 H   0  0  0  0  0  0  0  0  0  0  0  0
  152.5251  141.3655  155.7461 H   0  0  0  0  0  0  0  0  0  0  0  0
  150.9473  140.2576  154.2591 H   0  0  0  0  0  0  0  0  0  0  0  0
  152.1265  138.6943  156.2639 H   0  0  0  0  0  0  0  0  0  0  0  0
  149.3009  138.5079  155.3602 H   0  0  0  0  0  0  0  0  0  0  0  0
  149.5969  139.2950  156.8549 H   0  0  0  0  0  0  0  0  0  0  0  0
  149.0032  140.3107  153.4390 H   0  0  0  0  0  0  0  0  0  0  0  0
  145.9655  144.3910  154.6187 H   0  0  0  0  0  0  0  0  0  0  0  0
  144.7170  143.1394  154.5003 H   0  0  0  0  0  0  0  0  0  0  0  0
  145.7777  143.4640  153.1311 H   0  0  0  0  0  0  0  0  0  0  0  0
  145.4288  142.0051  157.7008 H   0  0  0  0  0  0  0  0  0  0  0  0
  145.3350  143.5050  156.7885 H   0  0  0  0  0  0  0  0  0  0  0  0
  146.6783  143.2382  157.8888 H   0  0  0  0  0  0  0  0  0  0  0  0
  153.9296  139.3732  160.4897 H   0  0  0  0  0  0  0  0  0  0  0  0
  153.9566  139.4138  158.7255 H   0  0  0  0  0  0  0  0  0  0  0  0
  152.5277  138.8111  159.5748 H   0  0  0  0  0  0  0  0  0  0  0  0
  153.5767  141.4669  161.5341 H   0  0  0  0  0  0  0  0  0  0  0  0
  1  2  1  0  0  0  0
  1 23  1  0  0  0  0
  1 24  1  0  0  0  0
  1 25  1  0  0  0  0
  2 22  1  0  0  0  0
  2  3  2  0  0  0  0
  3  4  1  0  0  0  0
  3 26  1  0  0  0  0
  4  5  2  0  0  0  0
  4 27  1  0  0  0  0
  5  6  1  0  0  0  0
  5 20  1  0  0  0  0
  6  7  1  0  0  0  0
  7  8  1  0  0  0  0
  7 28  1  0  0  0  0
  7 29  1  0  0  0  0
  8  9  1  0  0  0  0
  8 10  1  0  0  0  0
  8 30  1  0  0  0  0
  9 31  1  0  0  0  0
 10 11  1  0  0  0  0
 10 32  1  0  0  0  0
 10 33  1  0  0  0  0
 11 18  1  0  0  0  0
 11 12  1  0  0  0  0
 12 13  2  0  0  0  0
 12 34  1  0  0  0  0
 13 14  1  0  0  0  0
 14 15  1  0  0  0  0
 14 16  2  0  0  0  0
 15 35  1  0  0  0  0
 15 36  1  0  0  0  0
 15 37  1  0  0  0  0
 16 17  1  0  0  0  0
 16 18  1  0  0  0  0
 17 38  1  0  0  0  0
 17 39  1  0  0  0  0
 17 40  1  0  0  0  0
 18 19  2  0  0  0  0
 20 21  1  0  0  0  0
 20 22  2  0  0  0  0
 21 41  1  0  0  0  0
 21 42  1  0  0  0  0
 21 43  1  0  0  0  0
 22 44  1  0  0  0  0
M  END
> <s_m_source_file>
AV-unprocessed.smi

> <i_m_source_file_index>
2264

> <i_lp_mmshare_version>
43012

> <i_f3d_flags>
0

> <s_epik_input>
W0NIM11jMVtjSF1bY0hdYyhjKFtDSDNdKVtjSF0xKU9bQ0gyXVtDQEhdKFtPSF0pW0NIMl1uMltjSF1uYyhbQ0gzXSljKFtDSDNdKWMyPU8=

> <s_epik_cmdline>
J2VwaWtfcHl0aG9uJywgJy1waCcsICc3LjAnLCAnLXRuJywgJzgnLCAnLW1hJywgJzIwMCcsICctbWV0YWxfYmluZGluZycsICctaW1hZScsICc8aW5maWxlLm1hZT4nLCAnLW9tYWUnLCAnPG91dGZpbGUubWFlPic=

> <r_lp_tautomer_probability>
1

> <r_epik_Ionization_Penalty>
3.7476e-05

> <r_epik_Ionization_Penalty_Charging>
8.44705e-08

> <r_epik_Ionization_Penalty_Neutral>
3.73915e-05

> <r_epik_State_Penalty>
-0

> <r_epik_Charging_Adjusted_Penalty>
8.44705e-08

> <i_epik_Tot_Q>
0

> <i_epik_Tot_abs_Q>
0

> <r_epik_Metal_State_Penalty>
-0

> <b_epik_Metal_Only>
0

> <s_lp_Force_Field>
OPLS_2005

> <r_lp_Energy>
22.0846

> <b_lp_Chiralities_Consistent>
1

> <s_lp_Variant>
AV-unprocessed.smi:2264-2

> <Gold.Version>
5.8.1

> <Gold.Id.Protein>
6NUR|6NUR_protein|mol2

> <Gold.PLP.Fitness>
42.6093

> <Gold.PLP.PLP>
-40.5910

> <Gold.PLP.part.hbond>
0.0000

> <Gold.PLP.part.metal>
0.0000

> <Gold.PLP.part.buried>
-5.7137

> <Gold.PLP.part.nonpolar>
-33.9281

> <Gold.PLP.part.repulsive>
0.1915

> <Gold.PLP.ligand.clash>
0.0000

> <Gold.PLP.ligand.torsion>
0.5073

> <Gold.PLP.Chemscore.Hbond>
0.0000

> <Gold.PLP.Chemscore.CHOScore>
1.0000

> <Gold.PLP.Chemscore.Metal>
0.0000

> <Gold.Chemscore.Hbonds>
donor molecule, donor type, donor heavy atom, donor atom, acceptor molecule, acceptor atom, score
      L1  C    12    34       P1  7957  1.00

> <Gold.PLP.Chemscore.Internal.Correction>
0.0330

> <Gold.Rescore>
     Score         DG    S(hbond)    S(metal)    S(lipo)     H(rot)  DE(clash)    DE(int)     intcor
     11.93     -12.78       0.00        0.00     113.26       2.32       0.34       0.51       ----

> <Gold.Chemscore.Fitness>
11.9319

> <Gold.Chemscore.DG>
-12.7825

> <Gold.Chemscore.ZeroCoef>
-5.4800

> <Gold.Chemscore.Hbond>
0.0000

> <Gold.Chemscore.Metal>
0.0000

> <Gold.Chemscore.Lipo>
113.2552

> <Gold.Chemscore.Internal_Hbond>
0.0000

> <Gold.Chemscore.DEClash>
0.3446

> <Gold.Chemscore.DEInternal>
0.5060

> <Gold.Chemscore.Rot>
2.3236

> <Gold.Chemscore.Internal.Correction>
   9.000000E+99

> <Gold.Chemscore.Hbond.Weighted>
-0.0000

> <Gold.Chemscore.Metal.Weighted>
-0.0000

> <Gold.Chemscore.Lipo.Weighted>
-13.2509

> <Gold.Chemscore.Internal_Hbond.Weighted>
0.0000

> <Gold.Chemscore.DEClash.Weighted>
0.3446

> <Gold.Chemscore.DEInternal.Weighted>
0.5060

> <Gold.Chemscore.Rot.Weighted>
5.9484

> <Gold.Chemscore.Internal.Correction.Weighted>
   9.000000E+99

> <Gold.Protein.RotatedTorsions>
[ 6907 6896 6895 6894 ] final   67.21 input  -60.11 | X-H torsion
[ 7974 7965 7964 7962 ] final -154.36 input  175.53 | X-H torsion
[ 8008 7997 7996 7995 ] final   18.04 input   59.86 | X-H torsion
[ 10167 10162 10161 10158 ] final  177.84 input  -65.29 | X-H torsion
[ 10718 10713 10712 10709 ] final -108.97 input   66.30 | X-H torsion
[ 10763 10752 10751 10750 ] final    2.70 input  -60.55 | X-H torsion
[ 11005 11000 10999 10996 ] final  149.81 input  -57.11 | X-H torsion

> <Gold.Protein.ActiveResidues>
 VAL166  LYS551  ARG553  GLY616  TRP617  ASP618  TYR619  PRO620  LYS621  CYS622 
 ASP623  PHE694  ASN695  SER759  ASP760  ASP761  ALA762  ILE779  LEU786  VAL792 
 PHE793  MET794  SER795  GLU796  ALA797  LYS798  CYS799  TRP800  GLU811  SER814 

> <Gold.Protein.RotatedAtoms>
  152.4535  134.5341  159.9819 H   0  0  0  0  0  0  0  0  0  0  0  0  # atno 6907 bound_to 6896
  151.5408  133.3427  159.2943 H   0  0  0  0  0  0  0  0  0  0  0  0  # atno 6908 bound_to 6896
  150.8472  134.7816  159.7043 H   0  0  0  0  0  0  0  0  0  0  0  0  # atno 6909 bound_to 6896
  144.7693  140.4399  143.5918 H   0  0  0  0  0  0  0  0  0  0  0  0  # atno 7974 bound_to 7965
  154.9001  140.2999  155.5322 H   0  0  0  0  0  0  0  0  0  0  0  0  # atno 8008 bound_to 7997
  156.3019  140.2408  156.3963 H   0  0  0  0  0  0  0  0  0  0  0  0  # atno 8009 bound_to 7997
  154.8530  140.0408  157.1605 H   0  0  0  0  0  0  0  0  0  0  0  0  # atno 8010 bound_to 7997
  139.5269  144.2751  152.0595 H   0  0  0  0  0  0  0  0  0  0  0  0  # atno 10167 bound_to 10162
  156.0513  130.5740  150.8035 H   0  0  0  0  0  0  0  0  0  0  0  0  # atno 10718 bound_to 10713
  153.2923  135.6949  153.7281 H   0  0  0  0  0  0  0  0  0  0  0  0  # atno 10763 bound_to 10752
  153.6227  135.3424  155.3017 H   0  0  0  0  0  0  0  0  0  0  0  0  # atno 10764 bound_to 10752
  154.8527  135.4390  154.2010 H   0  0  0  0  0  0  0  0  0  0  0  0  # atno 10765 bound_to 10752
  140.1077  134.8944  157.1890 H   0  0  0  0  0  0  0  0  0  0  0  0  # atno 11005 bound_to 11000
  145.6371  139.1544  143.2936 LP  0  0  0  0  0  0  0  0  0  0  0  0  # atno 17320 bound_to 7965
  146.1827  140.6471  142.9181 LP  0  0  0  0  0  0  0  0  0  0  0  0  # atno 17321 bound_to 7965
  140.2209  144.4467  150.6342 LP  0  0  0  0  0  0  0  0  0  0  0  0  # atno 17342 bound_to 10162
  140.6419  143.2205  151.6271 LP  0  0  0  0  0  0  0  0  0  0  0  0  # atno 17343 bound_to 10162
  157.5441  131.0942  150.9787 LP  0  0  0  0  0  0  0  0  0  0  0  0  # atno 17370 bound_to 10713
  157.0063  130.5619  149.5316 LP  0  0  0  0  0  0  0  0  0  0  0  0  # atno 17371 bound_to 10713
  140.3133  134.2999  155.7262 LP  0  0  0  0  0  0  0  0  0  0  0  0  # atno 17394 bound_to 11000
  141.2122  133.7664  156.9808 LP  0  0  0  0  0  0  0  0  0  0  0  0  # atno 17395 bound_to 11000

$$$$
