AV-unprocessed.smi:1|AV-procd|sdf|5|dock4
  -GOLD-   2262015 93D 1   1.00000     0.00000
 Structure written by MMmdl.
 57 62  0  0  0  0  0  0  0  0  1 V2000
  154.9435  140.4727  162.2724 O   0  0  0  0  0  0  0  0  0  0  0  0
  154.4572  140.6132  161.1497 C   0  0  0  0  0  0  0  0  0  0  0  0
  154.7402  139.6912  160.0638 N   0  0  0  0  0  0  0  0  0  0  0  0
  155.4676  138.5501  160.1030 C   0  0  0  0  0  0  0  0  0  0  0  0
  155.5603  137.7815  161.2199 N   0  0  0  0  0  0  0  0  0  0  0  0
  156.2919  136.6637  161.2084 C   0  0  0  0  0  0  0  0  0  0  0  0
  156.9993  136.1412  160.2048 N   0  0  0  0  0  0  0  0  0  0  0  0
  156.9095  136.9037  159.0774 C   0  0  0  0  0  0  0  0  0  0  0  0
  156.1690  138.1124  158.9493 C   0  0  0  0  0  0  0  0  0  0  0  0
  156.3064  138.6140  157.6621 N   0  0  0  0  0  0  0  0  0  0  0  0
  157.0820  137.7483  157.0671 C   0  0  0  0  0  0  0  0  0  0  0  0
  157.4967  136.6904  157.8459 N   0  0  0  0  0  0  0  0  0  0  0  0
  158.3746  135.5530  157.4338 C   0  0  2  0  0  0  0  0  0  0  0  0
  157.7856  134.8787  156.3612 O   0  0  0  0  0  0  0  0  0  0  0  0
  157.4966  133.5277  156.7131 C   0  0  1  0  0  0  0  0  0  0  0  0
  157.6119  132.6025  155.4963 C   0  0  0  0  0  0  0  0  0  0  0  0
  158.4346  133.2231  154.5226 O   0  0  0  0  0  0  0  0  0  0  0  0
  158.5524  132.6834  153.2945 C   0  0  0  0  0  0  0  0  0  0  0  0
  157.9689  131.6564  152.9416 O   0  0  0  0  0  0  0  0  0  0  0  0
  159.4608  133.4621  152.4042 C   0  0  0  0  0  0  0  0  0  0  0  0
  159.8631  132.9061  151.1672 C   0  0  0  0  0  0  0  0  0  0  0  0
  160.7185  133.6191  150.3047 C   0  0  0  0  0  0  0  0  0  0  0  0
  161.1828  134.8964  150.6689 C   0  0  0  0  0  0  0  0  0  0  0  0
  160.7915  135.4598  151.8972 C   0  0  0  0  0  0  0  0  0  0  0  0
  159.9355  134.7487  152.7610 C   0  0  0  0  0  0  0  0  0  0  0  0
  158.4763  133.2145  157.8421 C   0  0  1  0  0  0  0  0  0  0  0  0
  159.7616  132.8880  157.3393 O   0  0  0  0  0  0  0  0  0  0  0  0
  160.9049  133.6670  158.2757 S   0  0  0  0  0  0  0  0  0  0  0  0
  161.4806  132.6894  159.2116 O   0  0  0  0  0  0  0  0  0  0  0  0
  161.7322  134.5020  157.3915 O   0  0  0  0  0  0  0  0  0  0  0  0
  159.8761  134.6674  159.1330 O   0  0  0  0  0  0  0  0  0  0  0  0
  158.5771  134.5515  158.5799 C   0  0  1  0  0  0  0  0  0  0  0  0
  153.6026  141.7975  160.8028 C   0  0  0  0  0  0  0  0  0  0  0  0
  153.1710  141.9920  159.4713 C   0  0  0  0  0  0  0  0  0  0  0  0
  152.3831  143.1093  159.1331 C   0  0  0  0  0  0  0  0  0  0  0  0
  152.0256  144.0455  160.1216 C   0  0  0  0  0  0  0  0  0  0  0  0
  152.4607  143.8661  161.4482 C   0  0  0  0  0  0  0  0  0  0  0  0
  153.2494  142.7493  161.7878 C   0  0  0  0  0  0  0  0  0  0  0  0
  154.3282  139.9211  159.1711 H   0  0  0  0  0  0  0  0  0  0  0  0
  156.3132  136.1096  162.1351 H   0  0  0  0  0  0  0  0  0  0  0  0
  157.3769  137.8609  156.0338 H   0  0  0  0  0  0  0  0  0  0  0  0
  159.3005  136.0217  157.0980 H   0  0  0  0  0  0  0  0  0  0  0  0
  156.4850  133.4754  157.1150 H   0  0  0  0  0  0  0  0  0  0  0  0
  158.0186  131.6321  155.7839 H   0  0  0  0  0  0  0  0  0  0  0  0
  156.6230  132.4336  155.0678 H   0  0  0  0  0  0  0  0  0  0  0  0
  159.5189  131.9270  150.8657 H   0  0  0  0  0  0  0  0  0  0  0  0
  161.0182  133.1847  149.3624 H   0  0  0  0  0  0  0  0  0  0  0  0
  161.8385  135.4429  150.0073 H   0  0  0  0  0  0  0  0  0  0  0  0
  161.1477  136.4399  152.1786 H   0  0  0  0  0  0  0  0  0  0  0  0
  159.6546  135.2106  153.6962 H   0  0  0  0  0  0  0  0  0  0  0  0
  158.1281  132.4065  158.4864 H   0  0  0  0  0  0  0  0  0  0  0  0
  157.7972  134.6507  159.3355 H   0  0  0  0  0  0  0  0  0  0  0  0
  153.4378  141.2833  158.7005 H   0  0  0  0  0  0  0  0  0  0  0  0
  152.0538  143.2484  158.1138 H   0  0  0  0  0  0  0  0  0  0  0  0
  151.4219  144.9024  159.8615 H   0  0  0  0  0  0  0  0  0  0  0  0
  152.1918  144.5875  162.2059 H   0  0  0  0  0  0  0  0  0  0  0  0
  153.5806  142.6366  162.8099 H   0  0  0  0  0  0  0  0  0  0  0  0
  1  2  2  0  0  0  0
  2  3  1  0  0  0  0
  2 33  1  0  0  0  0
  3  4  1  0  0  0  0
  3 39  1  0  0  0  0
  4  9  1  0  0  0  0
  4  5  2  0  0  0  0
  5  6  1  0  0  0  0
  6  7  2  0  0  0  0
  6 40  1  0  0  0  0
  7  8  1  0  0  0  0
  8 12  1  0  0  0  0
  8  9  2  0  0  0  0
  9 10  1  0  0  0  0
 10 11  2  0  0  0  0
 11 12  1  0  0  0  0
 11 41  1  0  0  0  0
 12 13  1  0  0  0  0
 13 32  1  0  0  0  0
 13 14  1  0  0  0  0
 13 42  1  0  0  0  0
 14 15  1  0  0  0  0
 15 16  1  0  0  0  0
 15 26  1  0  0  0  0
 15 43  1  0  0  0  0
 16 17  1  0  0  0  0
 16 44  1  0  0  0  0
 16 45  1  0  0  0  0
 17 18  1  0  0  0  0
 18 19  2  0  0  0  0
 18 20  1  0  0  0  0
 20 25  1  0  0  0  0
 20 21  2  0  0  0  0
 21 22  1  0  0  0  0
 21 46  1  0  0  0  0
 22 23  2  0  0  0  0
 22 47  1  0  0  0  0
 23 24  1  0  0  0  0
 23 48  1  0  0  0  0
 24 25  2  0  0  0  0
 24 49  1  0  0  0  0
 25 50  1  0  0  0  0
 26 32  1  0  0  0  0
 26 27  1  0  0  0  0
 26 51  1  0  0  0  0
 27 28  1  0  0  0  0
 28 29  2  0  0  0  0
 28 30  2  0  0  0  0
 28 31  1  0  0  0  0
 31 32  1  0  0  0  0
 32 52  1  0  0  0  0
 33 38  1  0  0  0  0
 33 34  2  0  0  0  0
 34 35  1  0  0  0  0
 34 53  1  0  0  0  0
 35 36  2  0  0  0  0
 35 54  1  0  0  0  0
 36 37  1  0  0  0  0
 36 55  1  0  0  0  0
 37 38  2  0  0  0  0
 37 56  1  0  0  0  0
 38 57  1  0  0  0  0
M  END
> <s_m_source_file>
AV-unprocessed.smi

> <i_m_source_file_index>
1

> <i_lp_mmshare_version>
43012

> <i_f3d_flags>
0

> <s_epik_input>
W2NIXTFbY0hdW2NIXVtjSF1bY0hdYzFDKD1PKVtOSF1jKG5bY0hdbjIpYyhjMjMpbltjSF1uM1tDQEBIXShbQ0BIXShbQ0BIXTQ1KU9TKE81KSg9Tyk9TylPW0NASF00W0NIMl1PQyg9TyljNltjSF1bY0hdW2NIXVtjSF1bY0hdNg==

> <s_epik_cmdline>
J2VwaWtfcHl0aG9uJywgJy1waCcsICc3LjAnLCAnLXRuJywgJzgnLCAnLW1hJywgJzIwMCcsICctbWV0YWxfYmluZGluZycsICctaW1hZScsICc8aW5maWxlLm1hZT4nLCAnLW9tYWUnLCAnPG91dGZpbGUubWFlPic=

> <r_lp_tautomer_probability>
1

> <r_epik_Ionization_Penalty>
0.00195722

> <r_epik_Ionization_Penalty_Charging>
0

> <r_epik_Ionization_Penalty_Neutral>
0.00195722

> <r_epik_State_Penalty>
0.00633741

> <r_epik_Charging_Adjusted_Penalty>
0.00633741

> <i_epik_Tot_Q>
0

> <i_epik_Tot_abs_Q>
0

> <r_epik_Metal_State_Penalty>
0.341185

> <b_epik_Metal_Only>
0

> <s_epik_Chemistry_Notes>
This compound has an ester and may undergo hydrolysis at high or low pH. This compound contains an acetal/aminal-like group ( X-CH(R)-Y where X, Y are N, S, or O) that may be acid/base labile, releasing an aldehyde.

> <s_lp_Force_Field>
OPLS_2005

> <r_lp_Energy>
45.5474

> <b_lp_Chiralities_Consistent>
1

> <s_lp_Variant>
AV-unprocessed.smi:1-5

> <Gold.Version>
5.8.1

> <Gold.Id.Protein>
6NUR|6NUR_protein|mol2

> <Gold.PLP.Fitness>
54.5725

> <Gold.PLP.PLP>
-50.4648

> <Gold.PLP.part.hbond>
-1.8600

> <Gold.PLP.part.metal>
0.0000

> <Gold.PLP.part.buried>
-5.2106

> <Gold.PLP.part.nonpolar>
-44.2931

> <Gold.PLP.part.repulsive>
0.1885

> <Gold.PLP.ligand.clash>
0.0000

> <Gold.PLP.ligand.torsion>
0.7802

> <Gold.PLP.Chemscore.Hbond>
1.7840

> <Gold.PLP.Chemscore.CHOScore>
0.0000

> <Gold.PLP.Chemscore.Metal>
0.0000

> <Gold.Chemscore.Hbonds>
donor molecule, donor type, donor heavy atom, donor atom, acceptor molecule, acceptor atom, score
      P1  H  7997  8008       L1    10  0.74
      P1  H 10713 10718       L1    19  1.00

> <Gold.PLP.Chemscore.Internal.Correction>
0.3160

> <Gold.Rescore>
     Score         DG    S(hbond)    S(metal)    S(lipo)     H(rot)  DE(clash)    DE(int)     intcor
     19.21     -22.59       1.83        0.00     140.78       2.13       0.02       3.36       ----

> <Gold.Chemscore.Fitness>
19.2108

> <Gold.Chemscore.DG>
-22.5889

> <Gold.Chemscore.ZeroCoef>
-5.4800

> <Gold.Chemscore.Hbond>
1.8260

> <Gold.Chemscore.Metal>
0.0000

> <Gold.Chemscore.Lipo>
140.7820

> <Gold.Chemscore.Internal_Hbond>
0.0000

> <Gold.Chemscore.DEClash>
0.0202

> <Gold.Chemscore.DEInternal>
3.3579

> <Gold.Chemscore.Rot>
2.1333

> <Gold.Chemscore.Internal.Correction>
   9.000000E+99

> <Gold.Chemscore.Hbonds>
donor molecule, donor type, donor heavy atom, donor atom, acceptor molecule, acceptor atom, score
      P1  H  7997  8008       L1    10  0.71
      P1  H 10713 10718       L1    19  0.99

> <Gold.Chemscore.Hbond.Weighted>
-6.0988

> <Gold.Chemscore.Metal.Weighted>
-0.0000

> <Gold.Chemscore.Lipo.Weighted>
-16.4715

> <Gold.Chemscore.Internal_Hbond.Weighted>
0.0000

> <Gold.Chemscore.DEClash.Weighted>
0.0202

> <Gold.Chemscore.DEInternal.Weighted>
3.3579

> <Gold.Chemscore.Rot.Weighted>
5.4614

> <Gold.Chemscore.Internal.Correction.Weighted>
   9.000000E+99

> <Gold.Protein.RotatedTorsions>
[ 6907 6896 6895 6894 ] final  -25.44 input  -60.11 | X-H torsion
[ 7974 7965 7964 7962 ] final -153.12 input  175.53 | X-H torsion
[ 8008 7997 7996 7995 ] final -152.40 input   59.86 | X-H torsion
[ 10167 10162 10161 10158 ] final  -28.54 input  -65.29 | X-H torsion
[ 10718 10713 10712 10709 ] final  158.96 input   66.30 | X-H torsion
[ 10763 10752 10751 10750 ] final   89.33 input  -60.55 | X-H torsion
[ 11005 11000 10999 10996 ] final   57.44 input  -57.11 | X-H torsion

> <Gold.Protein.ActiveResidues>
 VAL166  LYS551  ARG553  GLY616  TRP617  ASP618  TYR619  PRO620  LYS621  CYS622 
 ASP623  PHE694  ASN695  SER759  ASP760  ASP761  ALA762  ILE779  LEU786  VAL792 
 PHE793  MET794  SER795  GLU796  ALA797  LYS798  CYS799  TRP800  GLU811  SER814 

> <Gold.Protein.RotatedAtoms>
  151.1752  135.0336  159.8768 H   0  0  0  0  0  0  0  0  0  0  0  0  # atno 6907 bound_to 6896
  152.5447  134.1125  159.8375 H   0  0  0  0  0  0  0  0  0  0  0  0  # atno 6908 bound_to 6896
  151.1236  133.5040  159.2633 H   0  0  0  0  0  0  0  0  0  0  0  0  # atno 6909 bound_to 6896
  144.7757  140.4569  143.5875 H   0  0  0  0  0  0  0  0  0  0  0  0  # atno 7974 bound_to 7965
  155.6546  140.0716  157.2575 H   0  0  0  0  0  0  0  0  0  0  0  0  # atno 8008 bound_to 7997
  154.4155  140.1727  156.1761 H   0  0  0  0  0  0  0  0  0  0  0  0  # atno 8009 bound_to 7997
  155.9748  140.3359  155.6612 H   0  0  0  0  0  0  0  0  0  0  0  0  # atno 8010 bound_to 7997
  140.7269  143.4001  151.1279 H   0  0  0  0  0  0  0  0  0  0  0  0  # atno 10167 bound_to 10162
  157.1708  131.0609  151.2184 H   0  0  0  0  0  0  0  0  0  0  0  0  # atno 10718 bound_to 10713
  153.1860  135.4474  155.0089 H   0  0  0  0  0  0  0  0  0  0  0  0  # atno 10763 bound_to 10752
  154.8060  135.3275  154.7431 H   0  0  0  0  0  0  0  0  0  0  0  0  # atno 10764 bound_to 10752
  153.7890  135.6971  153.4930 H   0  0  0  0  0  0  0  0  0  0  0  0  # atno 10765 bound_to 10752
  140.0452  134.5816  155.9331 H   0  0  0  0  0  0  0  0  0  0  0  0  # atno 11005 bound_to 11000
  145.6192  139.1522  143.3032 LP  0  0  0  0  0  0  0  0  0  0  0  0  # atno 17320 bound_to 7965
  146.1935  140.6303  142.9135 LP  0  0  0  0  0  0  0  0  0  0  0  0  # atno 17321 bound_to 7965
  139.7620  143.8621  152.3102 LP  0  0  0  0  0  0  0  0  0  0  0  0  # atno 17342 bound_to 10162
  139.8510  144.7164  150.9214 LP  0  0  0  0  0  0  0  0  0  0  0  0  # atno 17343 bound_to 10162
  157.4045  130.7351  149.6792 LP  0  0  0  0  0  0  0  0  0  0  0  0  # atno 17370 bound_to 10713
  155.9739  130.4112  150.3967 LP  0  0  0  0  0  0  0  0  0  0  0  0  # atno 17371 bound_to 10713
  141.1903  133.6568  156.5407 LP  0  0  0  0  0  0  0  0  0  0  0  0  # atno 17394 bound_to 11000
  140.4005  134.7361  157.4776 LP  0  0  0  0  0  0  0  0  0  0  0  0  # atno 17395 bound_to 11000

$$$$
