AV-unprocessed.smi:278|AV-procd|sdf|2093|dock9
  -GOLD-   2262021373D 1   1.00000     0.00000
 Structure written by MMmdl.
 50 54  0  0  0  0  0  0  0  0  1 V2000
  147.0757  133.3318  157.8224 O   0  0  0  0  0  0  0  0  0  0  0  0
  148.3312  133.8586  157.2668 S   0  0  0  0  0  0  0  0  0  0  0  0
  149.2807  134.5917  158.1186 O   0  0  0  0  0  0  0  0  0  0  0  0
  149.2204  132.5002  156.4121 C   0  0  0  0  0  0  0  0  0  0  0  0
  148.9727  132.7014  154.9114 C   0  0  0  0  0  0  0  0  0  0  0  0
  148.7699  134.2015  154.6297 C   0  0  2  0  0  0  0  0  0  0  0  0
  150.0649  135.0202  154.6538 C   0  0  0  0  0  0  0  0  0  0  0  0
  149.6646  136.3517  155.0856 N   0  0  0  0  0  0  0  0  0  0  0  0
  150.5844  137.3208  155.3328 C   0  0  0  0  0  0  0  0  0  0  0  0
  151.7327  137.3300  154.6044 N   0  0  0  0  0  0  0  0  0  0  0  0
  152.6618  138.2673  154.8108 C   0  0  0  0  0  0  0  0  0  0  0  0
  152.6460  139.2802  155.6776 N   0  0  0  0  0  0  0  0  0  0  0  0
  151.4936  139.2878  156.4059 C   0  0  0  0  0  0  0  0  0  0  0  0
  150.4200  138.3563  156.3010 C   0  0  0  0  0  0  0  0  0  0  0  0
  149.4163  138.7008  157.2010 N   0  0  0  0  0  0  0  0  0  0  0  0
  149.8718  139.7639  157.8046 C   0  0  0  0  0  0  0  0  0  0  0  0
  151.1107  140.1878  157.3848 N   0  0  0  0  0  0  0  0  0  0  0  0
  151.8431  141.3426  157.8749 C   0  0  0  0  0  0  0  0  0  0  0  0
  150.9647  142.6071  157.9517 C   0  0  2  0  0  0  0  0  0  0  0  0
  151.1641  143.3904  156.7899 O   0  0  0  0  0  0  0  0  0  0  0  0
  151.2574  143.4391  159.2174 C   0  0  1  0  0  0  0  0  0  0  0  0
  152.5890  144.1957  159.2681 C   0  0  0  0  0  0  0  0  0  0  0  0
  152.2670  145.2870  160.2640 C   0  0  0  0  0  0  0  0  0  0  0  0
  150.8236  145.6266  159.8992 C   0  0  0  0  0  0  0  0  0  0  0  0
  150.2390  144.4111  159.4377 O   0  0  0  0  0  0  0  0  0  0  0  0
  148.4143  136.2917  155.8305 C   0  0  0  0  0  0  0  0  0  0  0  0
  147.9419  134.8328  155.7508 C   0  0  2  0  0  0  0  0  0  0  0  0
  148.2736  134.3536  153.6701 H   0  0  0  0  0  0  0  0  0  0  0  0
  146.8706  134.7529  155.5645 H   0  0  0  0  0  0  0  0  0  0  0  0
  150.2810  132.5944  156.6457 H   0  0  0  0  0  0  0  0  0  0  0  0
  148.8704  131.5338  156.7755 H   0  0  0  0  0  0  0  0  0  0  0  0
  149.7767  132.2775  154.3089 H   0  0  0  0  0  0  0  0  0  0  0  0
  148.0598  132.1720  154.6358 H   0  0  0  0  0  0  0  0  0  0  0  0
  150.7793  134.6098  155.3689 H   0  0  0  0  0  0  0  0  0  0  0  0
  150.5397  135.0428  153.6722 H   0  0  0  0  0  0  0  0  0  0  0  0
  153.5436  138.1963  154.1910 H   0  0  0  0  0  0  0  0  0  0  0  0
  149.3102  140.2757  158.5724 H   0  0  0  0  0  0  0  0  0  0  0  0
  152.2393  141.0979  158.8612 H   0  0  0  0  0  0  0  0  0  0  0  0
  152.7046  141.5133  157.2279 H   0  0  0  0  0  0  0  0  0  0  0  0
  149.9182  142.3000  157.9722 H   0  0  0  0  0  0  0  0  0  0  0  0
  150.3583  143.8446  156.5951 H   0  0  0  0  0  0  0  0  0  0  0  0
  151.2126  142.7778  160.0844 H   0  0  0  0  0  0  0  0  0  0  0  0
  153.4239  143.5664  159.5780 H   0  0  0  0  0  0  0  0  0  0  0  0
  152.8391  144.6439  158.3063 H   0  0  0  0  0  0  0  0  0  0  0  0
  152.3162  144.8937  161.2802 H   0  0  0  0  0  0  0  0  0  0  0  0
  152.9377  146.1439  160.1949 H   0  0  0  0  0  0  0  0  0  0  0  0
  150.2675  146.0430  160.7393 H   0  0  0  0  0  0  0  0  0  0  0  0
  150.7996  146.3517  159.0849 H   0  0  0  0  0  0  0  0  0  0  0  0
  148.5273  136.6295  156.8606 H   0  0  0  0  0  0  0  0  0  0  0  0
  147.6912  136.9463  155.3432 H   0  0  0  0  0  0  0  0  0  0  0  0
  1  2  2  0  0  0  0
  2 27  1  0  0  0  0
  2  3  2  0  0  0  0
  2  4  1  0  0  0  0
  4  5  1  0  0  0  0
  4 30  1  0  0  0  0
  4 31  1  0  0  0  0
  5  6  1  0  0  0  0
  5 32  1  0  0  0  0
  5 33  1  0  0  0  0
  6 28  1  0  0  0  0
  6 27  1  0  0  0  0
  6  7  1  0  0  0  0
  7  8  1  0  0  0  0
  7 34  1  0  0  0  0
  7 35  1  0  0  0  0
  8  9  1  0  0  0  0
  8 26  1  0  0  0  0
  9 14  1  0  0  0  0
  9 10  2  0  0  0  0
 10 11  1  0  0  0  0
 11 12  2  0  0  0  0
 11 36  1  0  0  0  0
 12 13  1  0  0  0  0
 13 17  1  0  0  0  0
 13 14  2  0  0  0  0
 14 15  1  0  0  0  0
 15 16  2  0  0  0  0
 16 17  1  0  0  0  0
 16 37  1  0  0  0  0
 17 18  1  0  0  0  0
 18 19  1  0  0  0  0
 18 38  1  0  0  0  0
 18 39  1  0  0  0  0
 19 20  1  0  0  0  0
 19 21  1  0  0  0  0
 19 40  1  0  0  0  0
 20 41  1  0  0  0  0
 21 25  1  0  0  0  0
 21 22  1  0  0  0  0
 21 42  1  0  0  0  0
 22 23  1  0  0  0  0
 22 43  1  0  0  0  0
 22 44  1  0  0  0  0
 23 24  1  0  0  0  0
 23 45  1  0  0  0  0
 23 46  1  0  0  0  0
 24 25  1  0  0  0  0
 24 47  1  0  0  0  0
 24 48  1  0  0  0  0
 26 27  1  0  0  0  0
 26 49  1  0  0  0  0
 26 50  1  0  0  0  0
 27 29  1  0  0  0  0
M  END
> <s_m_source_file>
AV-unprocessed.smi

> <i_m_source_file_index>
278

> <i_lp_mmshare_version>
43012

> <i_f3d_flags>
0

> <s_epik_input>
W0NIMl0xW0NIMl1TKD1PKSg9TylbQ0BASF0oW0NAQEhdMTIpW0NIMl1OKFtDSDJdMiljKG5bY0hdbjMpYyhjMzQpbltjSF1uNFtDSDJdW0NASF0oW09IXSlbQ0BASF01W0NIMl1bQ0gyXVtDSDJdTzU=

> <s_epik_cmdline>
J2VwaWtfcHl0aG9uJywgJy1waCcsICc3LjAnLCAnLXRuJywgJzgnLCAnLW1hJywgJzIwMCcsICctbWV0YWxfYmluZGluZycsICctaW1hZScsICc8aW5maWxlLm1hZT4nLCAnLW9tYWUnLCAnPG91dGZpbGUubWFlPic=

> <r_lp_tautomer_probability>
1

> <r_epik_Ionization_Penalty>
0.000636766

> <r_epik_Ionization_Penalty_Charging>
0

> <r_epik_Ionization_Penalty_Neutral>
0.000636766

> <r_epik_State_Penalty>
0.000329976

> <r_epik_Charging_Adjusted_Penalty>
0.000329976

> <i_epik_Tot_Q>
0

> <i_epik_Tot_abs_Q>
0

> <r_epik_Metal_State_Penalty>
-0

> <b_epik_Metal_Only>
0

> <s_lp_Force_Field>
OPLS_2005

> <r_lp_Energy>
51.4583

> <b_lp_Chiralities_Consistent>
1

> <s_lp_Variant>
AV-unprocessed.smi:278-7

> <Gold.Version>
5.8.1

> <Gold.Id.Protein>
6NUR|6NUR_protein|mol2

> <Gold.PLP.Fitness>
51.0623

> <Gold.PLP.PLP>
-40.9245

> <Gold.PLP.part.hbond>
-3.9028

> <Gold.PLP.part.metal>
0.0000

> <Gold.PLP.part.buried>
-6.2522

> <Gold.PLP.part.nonpolar>
-31.3284

> <Gold.PLP.part.repulsive>
0.3018

> <Gold.PLP.ligand.clash>
0.0000

> <Gold.PLP.ligand.torsion>
1.0179

> <Gold.PLP.Chemscore.Hbond>
3.9760

> <Gold.PLP.Chemscore.CHOScore>
0.0000

> <Gold.PLP.Chemscore.Metal>
0.0000

> <Gold.Chemscore.Hbonds>
donor molecule, donor type, donor heavy atom, donor atom, acceptor molecule, acceptor atom, score
      L1  H    20    41       P1  8028  1.00
      P1  H  6896  6909       L1     3  1.00
      P1  H  7997  8009       L1    12  1.00
      P1  H 10752 10765       L1    10  0.88

> <Gold.PLP.Chemscore.Internal.Correction>
0.2455

> <Gold.Rescore>
     Score         DG    S(hbond)    S(metal)    S(lipo)     H(rot)  DE(clash)    DE(int)     intcor
     19.65     -21.93       3.51        0.00      87.12       2.13       0.07       2.21       ----

> <Gold.Chemscore.Fitness>
19.6467

> <Gold.Chemscore.DG>
-21.9270

> <Gold.Chemscore.ZeroCoef>
-5.4800

> <Gold.Chemscore.Hbond>
3.5086

> <Gold.Chemscore.Metal>
0.0000

> <Gold.Chemscore.Lipo>
87.1183

> <Gold.Chemscore.Internal_Hbond>
0.0000

> <Gold.Chemscore.DEClash>
0.0726

> <Gold.Chemscore.DEInternal>
2.2077

> <Gold.Chemscore.Rot>
2.1346

> <Gold.Chemscore.Internal.Correction>
   9.000000E+99

> <Gold.Chemscore.Hbonds>
donor molecule, donor type, donor heavy atom, donor atom, acceptor molecule, acceptor atom, score
      L1  H    20    41       P1  8028  0.99
      P1  H  6896  6909       L1     3  1.00
      P1  H  7997  8009       L1    12  0.94
      P1  H 10752 10765       L1    10  0.21

> <Gold.Chemscore.Hbond.Weighted>
-11.7187

> <Gold.Chemscore.Metal.Weighted>
-0.0000

> <Gold.Chemscore.Lipo.Weighted>
-10.1928

> <Gold.Chemscore.Internal_Hbond.Weighted>
0.0000

> <Gold.Chemscore.DEClash.Weighted>
0.0726

> <Gold.Chemscore.DEInternal.Weighted>
2.2077

> <Gold.Chemscore.Rot.Weighted>
5.4646

> <Gold.Chemscore.Internal.Correction.Weighted>
   9.000000E+99

> <Gold.Protein.RotatedTorsions>
[ 6907 6896 6895 6894 ] final   20.06 input  -60.11 | X-H torsion
[ 7974 7965 7964 7962 ] final   86.38 input  175.53 | X-H torsion
[ 8008 7997 7996 7995 ] final -151.56 input   59.86 | X-H torsion
[ 10167 10162 10161 10158 ] final  124.47 input  -65.29 | X-H torsion
[ 10718 10713 10712 10709 ] final -106.98 input   66.30 | X-H torsion
[ 10763 10752 10751 10750 ] final  161.66 input  -60.55 | X-H torsion
[ 11005 11000 10999 10996 ] final -164.49 input  -57.11 | X-H torsion

> <Gold.Protein.ActiveResidues>
 VAL166  LYS551  ARG553  GLY616  TRP617  ASP618  TYR619  PRO620  LYS621  CYS622 
 ASP623  PHE694  ASN695  SER759  ASP760  ASP761  ALA762  ILE779  LEU786  VAL792 
 PHE793  MET794  SER795  GLU796  ALA797  LYS798  CYS799  TRP800  GLU811  SER814 

> <Gold.Protein.RotatedAtoms>
  151.8905  135.0418  160.0497 H   0  0  0  0  0  0  0  0  0  0  0  0  # atno 6907 bound_to 6896
  152.2439  133.5154  159.5294 H   0  0  0  0  0  0  0  0  0  0  0  0  # atno 6908 bound_to 6896
  150.7062  134.0967  159.3994 H   0  0  0  0  0  0  0  0  0  0  0  0  # atno 6909 bound_to 6896
  145.5731  139.2316  143.2395 H   0  0  0  0  0  0  0  0  0  0  0  0  # atno 7974 bound_to 7965
  155.6413  140.0702  157.2617 H   0  0  0  0  0  0  0  0  0  0  0  0  # atno 8008 bound_to 7997
  154.4183  140.1750  156.1626 H   0  0  0  0  0  0  0  0  0  0  0  0  # atno 8009 bound_to 7997
  155.9853  140.3350  155.6704 H   0  0  0  0  0  0  0  0  0  0  0  0  # atno 8010 bound_to 7997
  139.5740  144.6954  151.3702 H   0  0  0  0  0  0  0  0  0  0  0  0  # atno 10167 bound_to 10162
  156.0415  130.5639  150.7757 H   0  0  0  0  0  0  0  0  0  0  0  0  # atno 10718 bound_to 10713
  154.2664  135.2767  155.2756 H   0  0  0  0  0  0  0  0  0  0  0  0  # atno 10763 bound_to 10752
  154.5339  135.5722  153.6786 H   0  0  0  0  0  0  0  0  0  0  0  0  # atno 10764 bound_to 10752
  152.9953  135.6234  154.2817 H   0  0  0  0  0  0  0  0  0  0  0  0  # atno 10765 bound_to 10752
  140.5864  134.5090  157.5186 H   0  0  0  0  0  0  0  0  0  0  0  0  # atno 11005 bound_to 11000
  146.1770  140.6557  142.9207 LP  0  0  0  0  0  0  0  0  0  0  0  0  # atno 17320 bound_to 7965
  144.7428  140.4989  143.6857 LP  0  0  0  0  0  0  0  0  0  0  0  0  # atno 17321 bound_to 7965
  140.7023  143.7600  150.7424 LP  0  0  0  0  0  0  0  0  0  0  0  0  # atno 17342 bound_to 10162
  140.1114  143.4696  152.2368 LP  0  0  0  0  0  0  0  0  0  0  0  0  # atno 17343 bound_to 10162
  157.5238  131.0933  151.0044 LP  0  0  0  0  0  0  0  0  0  0  0  0  # atno 17370 bound_to 10713
  157.0368  130.5733  149.5350 LP  0  0  0  0  0  0  0  0  0  0  0  0  # atno 17371 bound_to 10713
  139.9294  134.7993  156.0974 LP  0  0  0  0  0  0  0  0  0  0  0  0  # atno 17394 bound_to 11000
  141.0963  133.6694  156.2653 LP  0  0  0  0  0  0  0  0  0  0  0  0  # atno 17395 bound_to 11000

$$$$
