AV-unprocessed.smi:762|AV-procd|sdf|3633|dock2
  -GOLD-   22720 1 23D 1   1.00000     0.00000
 Structure written by MMmdl.
 42 44  0  0  0  0  0  0  0  0  1 V2000
  151.2156  140.1041  155.3066 O   0  0  0  0  0  0  0  0  0  0  0  0
  150.7254  140.6154  156.3134 C   0  0  0  0  0  0  0  0  0  0  0  0
  150.8012  142.1287  156.5163 C   0  0  0  0  0  0  0  0  0  0  0  0
  151.5543  142.5709  157.7588 C   0  0  0  0  0  0  0  0  0  0  0  0
  152.1611  141.6902  158.5782 C   0  0  0  0  0  0  0  0  0  0  0  0
  152.8777  142.0738  159.8602 C   0  0  0  0  0  0  0  0  0  0  0  0
  152.5167  143.4943  160.3253 C   0  0  0  0  0  0  0  0  0  0  0  0
  152.5287  144.4804  159.1508 C   0  0  0  0  0  0  0  0  0  0  0  0
  151.5305  144.0664  158.0539 C   0  0  0  0  0  0  0  0  0  0  0  0
  150.1176  139.9095  157.2792 N   0  0  0  0  0  0  0  0  0  0  0  0
  149.9633  138.4602  157.2829 C   0  0  0  0  0  0  0  0  0  0  0  0
  148.8600  138.0096  158.2550 C   0  0  0  0  0  0  0  0  0  0  0  0
  148.9077  136.5782  158.4897 N   0  0  0  0  0  0  0  0  0  0  0  0
  149.4798  135.6306  157.7314 C   0  0  0  0  0  0  0  0  0  0  0  0
  149.3483  134.3862  158.1886 N   0  0  0  0  0  0  0  0  0  0  0  0
  148.6181  134.5195  159.3527 N   0  0  0  0  0  0  0  0  0  0  0  0
  148.3954  135.8322  159.4900 C   0  0  0  0  0  0  0  0  0  0  0  0
  147.6038  136.4235  160.6125 C   0  0  0  0  0  0  0  0  0  0  0  0
  148.0683  136.2990  162.0469 C   0  0  0  0  0  0  0  0  0  0  0  0
  146.8488  135.5448  161.5852 C   0  0  0  0  0  0  0  0  0  0  0  0
  151.2996  142.5460  155.6402 H   0  0  0  0  0  0  0  0  0  0  0  0
  149.8021  142.5667  156.5228 H   0  0  0  0  0  0  0  0  0  0  0  0
  152.1552  140.6379  158.3334 H   0  0  0  0  0  0  0  0  0  0  0  0
  152.6278  141.3543  160.6403 H   0  0  0  0  0  0  0  0  0  0  0  0
  153.9509  141.9936  159.6852 H   0  0  0  0  0  0  0  0  0  0  0  0
  151.5237  143.4884  160.7771 H   0  0  0  0  0  0  0  0  0  0  0  0
  153.2082  143.8194  161.1031 H   0  0  0  0  0  0  0  0  0  0  0  0
  152.3003  145.4882  159.4993 H   0  0  0  0  0  0  0  0  0  0  0  0
  153.5343  144.5208  158.7302 H   0  0  0  0  0  0  0  0  0  0  0  0
  151.7444  144.6240  157.1415 H   0  0  0  0  0  0  0  0  0  0  0  0
  150.5170  144.3328  158.3554 H   0  0  0  0  0  0  0  0  0  0  0  0
  149.7461  140.4114  158.0730 H   0  0  0  0  0  0  0  0  0  0  0  0
  149.7531  138.1072  156.2716 H   0  0  0  0  0  0  0  0  0  0  0  0
  150.9184  138.0211  157.5705 H   0  0  0  0  0  0  0  0  0  0  0  0
  148.9491  138.5342  159.2066 H   0  0  0  0  0  0  0  0  0  0  0  0
  147.8745  138.2524  157.8558 H   0  0  0  0  0  0  0  0  0  0  0  0
  150.0053  135.8575  156.8153 H   0  0  0  0  0  0  0  0  0  0  0  0
  147.1396  137.3584  160.3048 H   0  0  0  0  0  0  0  0  0  0  0  0
  148.9668  135.7181  162.2436 H   0  0  0  0  0  0  0  0  0  0  0  0
  147.9144  137.1564  162.6989 H   0  0  0  0  0  0  0  0  0  0  0  0
  145.8787  135.8966  161.9301 H   0  0  0  0  0  0  0  0  0  0  0  0
  146.9406  134.4662  161.4728 H   0  0  0  0  0  0  0  0  0  0  0  0
  1  2  2  0  0  0  0
  2  3  1  0  0  0  0
  2 10  1  0  0  0  0
  3  4  1  0  0  0  0
  3 21  1  0  0  0  0
  3 22  1  0  0  0  0
  4  9  1  0  0  0  0
  4  5  2  0  0  0  0
  5  6  1  0  0  0  0
  5 23  1  0  0  0  0
  6  7  1  0  0  0  0
  6 24  1  0  0  0  0
  6 25  1  0  0  0  0
  7  8  1  0  0  0  0
  7 26  1  0  0  0  0
  7 27  1  0  0  0  0
  8  9  1  0  0  0  0
  8 28  1  0  0  0  0
  8 29  1  0  0  0  0
  9 30  1  0  0  0  0
  9 31  1  0  0  0  0
 10 11  1  0  0  0  0
 10 32  1  0  0  0  0
 11 12  1  0  0  0  0
 11 33  1  0  0  0  0
 11 34  1  0  0  0  0
 12 13  1  0  0  0  0
 12 35  1  0  0  0  0
 12 36  1  0  0  0  0
 13 17  1  0  0  0  0
 13 14  1  0  0  0  0
 14 15  2  0  0  0  0
 14 37  1  0  0  0  0
 15 16  1  0  0  0  0
 16 17  2  0  0  0  0
 17 18  1  0  0  0  0
 18 20  1  0  0  0  0
 18 19  1  0  0  0  0
 18 38  1  0  0  0  0
 19 20  1  0  0  0  0
 19 39  1  0  0  0  0
 19 40  1  0  0  0  0
 20 41  1  0  0  0  0
 20 42  1  0  0  0  0
M  END
> <s_m_source_file>
AV-unprocessed.smi

> <i_m_source_file_index>
762

> <i_lp_mmshare_version>
43012

> <i_f3d_flags>
0

> <s_epik_input>
W0NIMl0xW0NIMl1bQ0gyXVtDSDJdW0NIXT1DMVtDSDJdQyg9TylbTkhdW0NIMl1bQ0gyXW4yW2NIXW5uYzJbQ0hdM1tDSDJdW0NIMl0z

> <s_epik_cmdline>
J2VwaWtfcHl0aG9uJywgJy1waCcsICc3LjAnLCAnLXRuJywgJzgnLCAnLW1hJywgJzIwMCcsICctbWV0YWxfYmluZGluZycsICctaW1hZScsICc8aW5maWxlLm1hZT4nLCAnLW9tYWUnLCAnPG91dGZpbGUubWFlPic=

> <r_lp_tautomer_probability>
1

> <r_epik_Ionization_Penalty>
0.000270947

> <r_epik_Ionization_Penalty_Charging>
0

> <r_epik_Ionization_Penalty_Neutral>
0.000270947

> <r_epik_State_Penalty>
-0

> <r_epik_Charging_Adjusted_Penalty>
0

> <i_epik_Tot_Q>
0

> <i_epik_Tot_abs_Q>
0

> <r_epik_Metal_State_Penalty>
-0

> <b_epik_Metal_Only>
0

> <s_lp_Force_Field>
OPLS_2005

> <r_lp_Energy>
11.3747

> <b_lp_Chiralities_Consistent>
1

> <s_lp_Variant>
AV-unprocessed.smi:762-1

> <Gold.Version>
5.8.1

> <Gold.Id.Protein>
6NUR|6NUR_protein|mol2

> <Gold.PLP.Fitness>
42.6800

> <Gold.PLP.PLP>
-40.5616

> <Gold.PLP.part.hbond>
-3.0000

> <Gold.PLP.part.metal>
0.0000

> <Gold.PLP.part.buried>
-5.1797

> <Gold.PLP.part.nonpolar>
-32.9388

> <Gold.PLP.part.repulsive>
0.0619

> <Gold.PLP.ligand.clash>
0.0000

> <Gold.PLP.ligand.torsion>
0.5587

> <Gold.PLP.Chemscore.Hbond>
1.0000

> <Gold.PLP.Chemscore.CHOScore>
0.0000

> <Gold.PLP.Chemscore.Metal>
0.0000

> <Gold.Chemscore.Hbonds>
donor molecule, donor type, donor heavy atom, donor atom, acceptor molecule, acceptor atom, score
      P1  H  7989  7998       L1     1  1.00

> <Gold.PLP.Chemscore.Internal.Correction>
0.2359

> <Gold.Rescore>
     Score         DG    S(hbond)    S(metal)    S(lipo)     H(rot)  DE(clash)    DE(int)     intcor
     14.87     -15.53       0.98        0.00     103.88       2.10       0.10       0.56       ----

> <Gold.Chemscore.Fitness>
14.8652

> <Gold.Chemscore.DG>
-15.5293

> <Gold.Chemscore.ZeroCoef>
-5.4800

> <Gold.Chemscore.Hbond>
0.9817

> <Gold.Chemscore.Metal>
0.0000

> <Gold.Chemscore.Lipo>
103.8830

> <Gold.Chemscore.Internal_Hbond>
0.0000

> <Gold.Chemscore.DEClash>
0.0998

> <Gold.Chemscore.DEInternal>
0.5642

> <Gold.Chemscore.Rot>
2.1031

> <Gold.Chemscore.Internal.Correction>
   9.000000E+99

> <Gold.Chemscore.Hbonds>
donor molecule, donor type, donor heavy atom, donor atom, acceptor molecule, acceptor atom, score
      P1  H  7989  7998       L1     1  0.94

> <Gold.Chemscore.Hbond.Weighted>
-3.2788

> <Gold.Chemscore.Metal.Weighted>
-0.0000

> <Gold.Chemscore.Lipo.Weighted>
-12.1543

> <Gold.Chemscore.Internal_Hbond.Weighted>
0.0000

> <Gold.Chemscore.DEClash.Weighted>
0.0998

> <Gold.Chemscore.DEInternal.Weighted>
0.5642

> <Gold.Chemscore.Rot.Weighted>
5.3838

> <Gold.Chemscore.Internal.Correction.Weighted>
   9.000000E+99

> <Gold.Protein.RotatedTorsions>
[ 6907 6896 6895 6894 ] final   35.32 input  -60.11 | X-H torsion
[ 7974 7965 7964 7962 ] final   -6.01 input  175.53 | X-H torsion
[ 8008 7997 7996 7995 ] final -144.42 input   59.86 | X-H torsion
[ 10167 10162 10161 10158 ] final   89.25 input  -65.29 | X-H torsion
[ 10718 10713 10712 10709 ] final   33.81 input   66.30 | X-H torsion
[ 10763 10752 10751 10750 ] final   47.52 input  -60.55 | X-H torsion
[ 11005 11000 10999 10996 ] final  119.82 input  -57.11 | X-H torsion

> <Gold.Protein.ActiveResidues>
 VAL166  LYS551  ARG553  GLY616  TRP617  ASP618  TYR619  PRO620  LYS621  CYS622 
 ASP623  PHE694  ASN695  SER759  ASP760  ASP761  ALA762  ILE779  LEU786  VAL792 
 PHE793  MET794  SER795  GLU796  ALA797  LYS798  CYS799  TRP800  GLU811  SER814 

> <Gold.Protein.RotatedAtoms>
  152.1146  134.9250  160.0565 H   0  0  0  0  0  0  0  0  0  0  0  0  # atno 6907 bound_to 6896
  152.0414  133.3974  159.4347 H   0  0  0  0  0  0  0  0  0  0  0  0  # atno 6908 bound_to 6896
  150.6845  134.3331  159.4879 H   0  0  0  0  0  0  0  0  0  0  0  0  # atno 6909 bound_to 6896
  146.2340  140.2107  142.8335 H   0  0  0  0  0  0  0  0  0  0  0  0  # atno 7974 bound_to 7965
  155.5266  140.0596  157.2897 H   0  0  0  0  0  0  0  0  0  0  0  0  # atno 8008 bound_to 7997
  154.4499  140.1943  156.0497 H   0  0  0  0  0  0  0  0  0  0  0  0  # atno 8009 bound_to 7997
  156.0682  140.3263  155.7547 H   0  0  0  0  0  0  0  0  0  0  0  0  # atno 8010 bound_to 7997
  139.8592  144.6553  150.9079 H   0  0  0  0  0  0  0  0  0  0  0  0  # atno 10167 bound_to 10162
  157.3026  130.7358  149.6676 H   0  0  0  0  0  0  0  0  0  0  0  0  # atno 10718 bound_to 10713
  152.9799  135.5973  154.3776 H   0  0  0  0  0  0  0  0  0  0  0  0  # atno 10763 bound_to 10752
  154.3444  135.2767  155.2407 H   0  0  0  0  0  0  0  0  0  0  0  0  # atno 10764 bound_to 10752
  154.4475  135.5998  153.6224 H   0  0  0  0  0  0  0  0  0  0  0  0  # atno 10765 bound_to 10752
  139.9161  134.9631  156.7713 H   0  0  0  0  0  0  0  0  0  0  0  0  # atno 11005 bound_to 11000
  144.9709  140.8368  143.5456 LP  0  0  0  0  0  0  0  0  0  0  0  0  # atno 17320 bound_to 7965
  145.2088  139.2215  143.5154 LP  0  0  0  0  0  0  0  0  0  0  0  0  # atno 17321 bound_to 7965
  140.7777  143.3759  151.1563 LP  0  0  0  0  0  0  0  0  0  0  0  0  # atno 17342 bound_to 10162
  139.7390  143.8953  152.3044 LP  0  0  0  0  0  0  0  0  0  0  0  0  # atno 17343 bound_to 10162
  155.9672  130.4275  150.4748 LP  0  0  0  0  0  0  0  0  0  0  0  0  # atno 17370 bound_to 10713
  157.2732  131.0591  151.2246 LP  0  0  0  0  0  0  0  0  0  0  0  0  # atno 17371 bound_to 10713
  140.6619  133.9638  155.7809 LP  0  0  0  0  0  0  0  0  0  0  0  0  # atno 17394 bound_to 11000
  141.0638  134.0308  157.3623 LP  0  0  0  0  0  0  0  0  0  0  0  0  # atno 17395 bound_to 11000

$$$$
