AV-unprocessed.smi:3142|AV-procd|sdf|11972|dock2
  -GOLD-   2272017373D 1   1.00000     0.00000
 Structure written by MMmdl.
 37 39  0  0  0  0  0  0  0  0  2 V2000
  148.0544  141.7876  154.2999 C   0  0  0  0  0  0  0  0  0  0  0  0
  148.5424  140.9169  155.4739 C   0  0  2  0  0  0  0  0  0  0  0  0
  149.9711  141.2700  155.9134 C   0  0  0  0  0  0  0  0  0  0  0  0
  150.9393  140.8043  155.3117 O   0  0  0  0  0  0  0  0  0  0  0  0
  150.0824  142.0805  156.9778 N   0  0  0  0  0  0  0  0  0  0  0  0
  151.3327  142.5147  157.5913 C   0  0  0  0  0  0  0  0  0  0  0  0
  151.4583  142.0016  159.0139 C   0  0  0  0  0  0  0  0  0  0  0  0
  152.7842  141.9950  159.7367 C   0  0  0  0  0  0  0  0  0  0  0  0
  152.1471  140.6914  159.3105 C   0  0  0  0  0  0  0  0  0  0  0  0
  151.5074  144.0240  157.5567 C   0  0  0  0  0  0  0  0  0  0  0  0
  152.5059  144.7242  158.4477 C   0  0  0  0  0  0  0  0  0  0  0  0
  151.0241  144.8951  158.6926 C   0  0  0  0  0  0  0  0  0  0  0  0
  148.4392  139.4791  155.1734 N   0  0  0  0  0  0  0  0  0  0  0  0
  147.7661  138.5323  155.9042 C   0  0  0  0  0  0  0  0  0  0  0  0
  147.9588  137.3330  155.2682 C   0  0  0  0  0  0  0  0  0  0  0  0
  148.7469  137.5934  154.1798 N   0  3  0  0  0  0  0  0  0  0  0  0
  149.0413  138.8960  154.1250 C   0  0  0  0  0  0  0  0  0  0  0  0
  148.0911  142.8469  154.5567 H   0  0  0  0  0  0  0  0  0  0  0  0
  147.0211  141.5510  154.0441 H   0  0  0  0  0  0  0  0  0  0  0  0
  148.6572  141.6460  153.4019 H   0  0  0  0  0  0  0  0  0  0  0  0
  147.8765  141.1074  156.3174 H   0  0  0  0  0  0  0  0  0  0  0  0
  149.2319  142.4169  157.4057 H   0  0  0  0  0  0  0  0  0  0  0  0
  152.1588  142.0771  157.0266 H   0  0  0  0  0  0  0  0  0  0  0  0
  150.5906  142.2259  159.6319 H   0  0  0  0  0  0  0  0  0  0  0  0
  153.6664  142.3207  159.1899 H   0  0  0  0  0  0  0  0  0  0  0  0
  152.7784  142.2351  160.7978 H   0  0  0  0  0  0  0  0  0  0  0  0
  151.7174  140.0629  160.0877 H   0  0  0  0  0  0  0  0  0  0  0  0
  152.6033  140.1584  158.4787 H   0  0  0  0  0  0  0  0  0  0  0  0
  151.3890  144.4484  156.5611 H   0  0  0  0  0  0  0  0  0  0  0  0
  153.0640  144.1217  159.1614 H   0  0  0  0  0  0  0  0  0  0  0  0
  153.0477  145.5682  158.0259 H   0  0  0  0  0  0  0  0  0  0  0  0
  150.5786  145.8541  158.4363 H   0  0  0  0  0  0  0  0  0  0  0  0
  150.6062  144.4065  159.5705 H   0  0  0  0  0  0  0  0  0  0  0  0
  147.2136  138.7748  156.8004 H   0  0  0  0  0  0  0  0  0  0  0  0
  147.6065  136.3394  155.5046 H   0  0  0  0  0  0  0  0  0  0  0  0
  149.6501  139.3809  153.3824 H   0  0  0  0  0  0  0  0  0  0  0  0
  149.0662  136.9015  153.5134 H   0  0  0  0  0  0  0  0  0  0  0  0
  1  2  1  0  0  0  0
  1 18  1  0  0  0  0
  1 19  1  0  0  0  0
  1 20  1  0  0  0  0
  2  3  1  0  0  0  0
  2 13  1  0  0  0  0
  2 21  1  0  0  0  0
  3  4  2  0  0  0  0
  3  5  1  0  0  0  0
  5  6  1  0  0  0  0
  5 22  1  0  0  0  0
  6  7  1  0  0  0  0
  6 10  1  0  0  0  0
  6 23  1  0  0  0  0
  7  9  1  0  0  0  0
  7  8  1  0  0  0  0
  7 24  1  0  0  0  0
  8  9  1  0  0  0  0
  8 25  1  0  0  0  0
  8 26  1  0  0  0  0
  9 27  1  0  0  0  0
  9 28  1  0  0  0  0
 10 12  1  0  0  0  0
 10 11  1  0  0  0  0
 10 29  1  0  0  0  0
 11 12  1  0  0  0  0
 11 30  1  0  0  0  0
 11 31  1  0  0  0  0
 12 32  1  0  0  0  0
 12 33  1  0  0  0  0
 13 17  1  0  0  0  0
 13 14  1  0  0  0  0
 14 15  2  0  0  0  0
 14 34  1  0  0  0  0
 15 16  1  0  0  0  0
 15 35  1  0  0  0  0
 16 17  2  0  0  0  0
 16 37  1  0  0  0  0
 17 36  1  0  0  0  0
M  CHG  1  16   1
M  END
> <s_m_source_file>
AV-unprocessed.smi

> <i_m_source_file_index>
3142

> <i_lp_mmshare_version>
43012

> <i_f3d_flags>
0

> <s_epik_input>
W2NIXTFuW2NIXVtjSF1uMVtDQEhdKFtDSDNdKUMoPU8pW05IXVtDSF0oW0NIXTJbQ0gyXVtDSDJdMilbQ0hdM1tDSDJdW0NIMl0z

> <s_epik_cmdline>
J2VwaWtfcHl0aG9uJywgJy1waCcsICc3LjAnLCAnLXRuJywgJzgnLCAnLW1hJywgJzIwMCcsICctbWV0YWxfYmluZGluZycsICctaW1hZScsICc8aW5maWxlLm1hZT4nLCAnLW9tYWUnLCAnPG91dGZpbGUubWFlPic=

> <r_lp_tautomer_probability>
1

> <r_epik_Ionization_Penalty>
0.513834

> <r_epik_Ionization_Penalty_Charging>
0

> <r_epik_Ionization_Penalty_Neutral>
0.513834

> <r_epik_State_Penalty>
0.521297

> <r_epik_Charging_Adjusted_Penalty>
0.521297

> <i_epik_Tot_Q>
1

> <i_epik_Tot_abs_Q>
1

> <r_epik_Metal_State_Penalty>
0.730424

> <b_epik_Metal_Only>
0

> <s_lp_Force_Field>
OPLS_2005

> <r_lp_Energy>
30.7563

> <b_lp_Chiralities_Consistent>
1

> <s_lp_Variant>
AV-unprocessed.smi:3142-3

> <Gold.Version>
5.8.1

> <Gold.Id.Protein>
6NUR|6NUR_protein|mol2

> <Gold.PLP.Fitness>
45.1927

> <Gold.PLP.PLP>
-35.0163

> <Gold.PLP.part.hbond>
-2.5565

> <Gold.PLP.part.metal>
0.0000

> <Gold.PLP.part.buried>
-3.0528

> <Gold.PLP.part.nonpolar>
-29.9092

> <Gold.PLP.part.repulsive>
0.0783

> <Gold.PLP.ligand.clash>
0.0000

> <Gold.PLP.ligand.torsion>
1.7229

> <Gold.PLP.Chemscore.Hbond>
2.8000

> <Gold.PLP.Chemscore.CHOScore>
1.0000

> <Gold.PLP.Chemscore.Metal>
0.0000

> <Gold.Chemscore.Hbonds>
donor molecule, donor type, donor heavy atom, donor atom, acceptor molecule, acceptor atom, score
      L1  H    16    37       P1  7948  1.95
      P1  H  7989  7998       L1     4  0.80
      L1  C    17    36       P1  7957  1.00

> <Gold.PLP.Chemscore.Internal.Correction>
2.2221

> <Gold.Rescore>
     Score         DG    S(hbond)    S(metal)    S(lipo)     H(rot)  DE(clash)    DE(int)     intcor
     14.77     -16.98       1.82        0.00      88.33       1.92       0.10       2.10       ----

> <Gold.Chemscore.Fitness>
14.7726

> <Gold.Chemscore.DG>
-16.9809

> <Gold.Chemscore.ZeroCoef>
-5.4800

> <Gold.Chemscore.Hbond>
1.8231

> <Gold.Chemscore.Metal>
0.0000

> <Gold.Chemscore.Lipo>
88.3334

> <Gold.Chemscore.Internal_Hbond>
0.0000

> <Gold.Chemscore.DEClash>
0.1045

> <Gold.Chemscore.DEInternal>
2.1039

> <Gold.Chemscore.Rot>
1.9232

> <Gold.Chemscore.Internal.Correction>
   9.000000E+99

> <Gold.Chemscore.Hbonds>
donor molecule, donor type, donor heavy atom, donor atom, acceptor molecule, acceptor atom, score
      L1  H    16    37       P1  7948  0.93
      P1  H  7989  7998       L1     4  0.79

> <Gold.Chemscore.Hbond.Weighted>
-6.0893

> <Gold.Chemscore.Metal.Weighted>
-0.0000

> <Gold.Chemscore.Lipo.Weighted>
-10.3350

> <Gold.Chemscore.Internal_Hbond.Weighted>
0.0000

> <Gold.Chemscore.DEClash.Weighted>
0.1045

> <Gold.Chemscore.DEInternal.Weighted>
2.1039

> <Gold.Chemscore.Rot.Weighted>
4.9233

> <Gold.Chemscore.Internal.Correction.Weighted>
   9.000000E+99

> <Gold.Protein.RotatedTorsions>
[ 6907 6896 6895 6894 ] final  -31.81 input  -60.11 | X-H torsion
[ 7974 7965 7964 7962 ] final  -44.14 input  175.53 | X-H torsion
[ 8008 7997 7996 7995 ] final   89.97 input   59.86 | X-H torsion
[ 10167 10162 10161 10158 ] final -146.36 input  -65.29 | X-H torsion
[ 10718 10713 10712 10709 ] final  -14.10 input   66.30 | X-H torsion
[ 10763 10752 10751 10750 ] final  173.80 input  -60.55 | X-H torsion
[ 11005 11000 10999 10996 ] final   83.36 input  -57.11 | X-H torsion

> <Gold.Protein.ActiveResidues>
 VAL166  LYS551  ARG553  GLY616  TRP617  ASP618  TYR619  PRO620  LYS621  CYS622 
 ASP623  PHE694  ASN695  SER759  ASP760  ASP761  ALA762  ILE779  LEU786  VAL792 
 PHE793  MET794  SER795  GLU796  ALA797  LYS798  CYS799  TRP800  GLU811  SER814 

> <Gold.Protein.RotatedAtoms>
  151.0871  134.9893  159.8384 H   0  0  0  0  0  0  0  0  0  0  0  0  # atno 6907 bound_to 6896
  152.5425  134.2111  159.8760 H   0  0  0  0  0  0  0  0  0  0  0  0  # atno 6908 bound_to 6896
  151.2145  133.4493  159.2632 H   0  0  0  0  0  0  0  0  0  0  0  0  # atno 6909 bound_to 6896
  145.9950  140.7138  142.9298 H   0  0  0  0  0  0  0  0  0  0  0  0  # atno 7974 bound_to 7965
  156.0064  140.3354  155.6896 H   0  0  0  0  0  0  0  0  0  0  0  0  # atno 8008 bound_to 7997
  155.6219  140.0676  157.2693 H   0  0  0  0  0  0  0  0  0  0  0  0  # atno 8009 bound_to 7997
  154.4266  140.1775  156.1368 H   0  0  0  0  0  0  0  0  0  0  0  0  # atno 8010 bound_to 7997
  139.7720  143.8223  152.2626 H   0  0  0  0  0  0  0  0  0  0  0  0  # atno 10167 bound_to 10162
  156.6208  130.4875  149.6165 H   0  0  0  0  0  0  0  0  0  0  0  0  # atno 10718 bound_to 10713
  154.4450  135.2763  155.1821 H   0  0  0  0  0  0  0  0  0  0  0  0  # atno 10763 bound_to 10752
  154.3671  135.6116  153.5724 H   0  0  0  0  0  0  0  0  0  0  0  0  # atno 10764 bound_to 10752
  152.9843  135.5848  154.4785 H   0  0  0  0  0  0  0  0  0  0  0  0  # atno 10765 bound_to 10752
  139.9033  134.8139  156.2299 H   0  0  0  0  0  0  0  0  0  0  0  0  # atno 11005 bound_to 11000
  144.6901  140.3135  143.7244 LP  0  0  0  0  0  0  0  0  0  0  0  0  # atno 17320 bound_to 7965
  145.7573  139.1813  143.2287 LP  0  0  0  0  0  0  0  0  0  0  0  0  # atno 17321 bound_to 7965
  139.8261  144.7274  150.9510 LP  0  0  0  0  0  0  0  0  0  0  0  0  # atno 17342 bound_to 10162
  140.7814  143.4113  151.0987 LP  0  0  0  0  0  0  0  0  0  0  0  0  # atno 17343 bound_to 10162
  156.2313  130.6796  151.1466 LP  0  0  0  0  0  0  0  0  0  0  0  0  # atno 17370 bound_to 10713
  157.7228  131.0670  150.6062 LP  0  0  0  0  0  0  0  0  0  0  0  0  # atno 17371 bound_to 10713
  141.0352  133.6967  156.1499 LP  0  0  0  0  0  0  0  0  0  0  0  0  # atno 17394 bound_to 11000
  140.7038  134.4536  157.5585 LP  0  0  0  0  0  0  0  0  0  0  0  0  # atno 17395 bound_to 11000

$$$$
