AV-unprocessed.smi:2068|AV-procd|sdf|8427|dock9
  -GOLD-   2272011123D 1   1.00000     0.00000
 Structure written by MMmdl.
 33 34  0  0  0  0  0  0  0  0  1 V2000
  147.5192  138.0618  151.8859 N   0  0  0  0  0  0  0  0  0  0  0  0
  146.9380  138.4236  153.0332 C   0  0  0  0  0  0  0  0  0  0  0  0
  146.0907  137.7274  153.5890 O   0  0  0  0  0  0  0  0  0  0  0  0
  147.3730  139.7550  153.6486 C   0  0  0  0  0  0  0  0  0  0  0  0
  148.6603  139.5866  154.4024 C   0  0  0  0  0  0  0  0  0  0  0  0
  149.7057  138.7566  154.0757 C   0  0  0  0  0  0  0  0  0  0  0  0
  151.0139  138.8678  155.2226 S   0  0  0  0  0  0  0  0  0  0  0  0
  150.0792  140.0581  156.1141 C   0  0  0  0  0  0  0  0  0  0  0  0
  150.5705  140.6653  157.2992 N   0  0  0  0  0  0  0  0  0  0  0  0
  151.8029  140.5755  157.8337 C   0  0  0  0  0  0  0  0  0  0  0  0
  152.7359  139.9435  157.3374 O   0  0  0  0  0  0  0  0  0  0  0  0
  152.0167  141.3388  159.1464 C   0  0  0  0  0  0  0  0  0  0  0  0
  152.5225  142.7855  158.9518 C   0  0  2  0  0  0  0  0  0  0  0  0
  152.4955  143.6138  160.2142 C   0  0  0  0  0  0  0  0  0  0  0  0
  151.8342  144.7589  160.0641 C   0  0  0  0  0  0  0  0  0  0  0  0
  151.2847  144.9287  158.6751 C   0  0  0  0  0  0  0  0  0  0  0  0
  151.6534  143.6069  157.9650 C   0  0  0  0  0  0  0  0  0  0  0  0
  148.8889  140.3280  155.5666 N   0  0  0  0  0  0  0  0  0  0  0  0
  147.2544  137.1949  151.4411 H   0  0  0  0  0  0  0  0  0  0  0  0
  148.2141  138.6603  151.4630 H   0  0  0  0  0  0  0  0  0  0  0  0
  147.4889  140.4961  152.8567 H   0  0  0  0  0  0  0  0  0  0  0  0
  146.5823  140.1263  154.3020 H   0  0  0  0  0  0  0  0  0  0  0  0
  149.7821  138.0857  153.2327 H   0  0  0  0  0  0  0  0  0  0  0  0
  149.9046  141.2309  157.8049 H   0  0  0  0  0  0  0  0  0  0  0  0
  151.0676  141.3538  159.6834 H   0  0  0  0  0  0  0  0  0  0  0  0
  152.7175  140.7892  159.7773 H   0  0  0  0  0  0  0  0  0  0  0  0
  153.5532  142.7706  158.5938 H   0  0  0  0  0  0  0  0  0  0  0  0
  152.9842  143.2973  161.1242 H   0  0  0  0  0  0  0  0  0  0  0  0
  151.7022  145.5073  160.8314 H   0  0  0  0  0  0  0  0  0  0  0  0
  150.2064  145.0867  158.7051 H   0  0  0  0  0  0  0  0  0  0  0  0
  151.7511  145.7889  158.1941 H   0  0  0  0  0  0  0  0  0  0  0  0
  152.1882  143.7959  157.0336 H   0  0  0  0  0  0  0  0  0  0  0  0
  150.7430  143.0664  157.7030 H   0  0  0  0  0  0  0  0  0  0  0  0
  1  2  1  0  0  0  0
  1 19  1  0  0  0  0
  1 20  1  0  0  0  0
  2  3  2  0  0  0  0
  2  4  1  0  0  0  0
  4  5  1  0  0  0  0
  4 21  1  0  0  0  0
  4 22  1  0  0  0  0
  5 18  1  0  0  0  0
  5  6  2  0  0  0  0
  6  7  1  0  0  0  0
  6 23  1  0  0  0  0
  7  8  1  0  0  0  0
  8  9  1  0  0  0  0
  8 18  2  0  0  0  0
  9 10  1  0  0  0  0
  9 24  1  0  0  0  0
 10 11  2  0  0  0  0
 10 12  1  0  0  0  0
 12 13  1  0  0  0  0
 12 25  1  0  0  0  0
 12 26  1  0  0  0  0
 13 17  1  0  0  0  0
 13 14  1  0  0  0  0
 13 27  1  0  0  0  0
 14 15  2  0  0  0  0
 14 28  1  0  0  0  0
 15 16  1  0  0  0  0
 15 29  1  0  0  0  0
 16 17  1  0  0  0  0
 16 30  1  0  0  0  0
 16 31  1  0  0  0  0
 17 32  1  0  0  0  0
 17 33  1  0  0  0  0
M  END
> <s_m_source_file>
AV-unprocessed.smi

> <i_m_source_file_index>
2068

> <i_lp_mmshare_version>
43012

> <i_f3d_flags>
0

> <s_epik_input>
W05IMl1DKD1PKVtDSDJdYzFbY0hdc2MobjEpW05IXUMoPU8pW0NIMl1bQ0BASF0yW0NIXT1bQ0hdW0NIMl1bQ0gyXTI=

> <s_epik_cmdline>
J2VwaWtfcHl0aG9uJywgJy1waCcsICc3LjAnLCAnLXRuJywgJzgnLCAnLW1hJywgJzIwMCcsICctbWV0YWxfYmluZGluZycsICctaW1hZScsICc8aW5maWxlLm1hZT4nLCAnLW9tYWUnLCAnPG91dGZpbGUubWFlPic=

> <r_lp_tautomer_probability>
1

> <r_epik_Ionization_Penalty>
0.000253249

> <r_epik_Ionization_Penalty_Charging>
0

> <r_epik_Ionization_Penalty_Neutral>
0.000253249

> <r_epik_State_Penalty>
-0

> <r_epik_Charging_Adjusted_Penalty>
0

> <i_epik_Tot_Q>
0

> <i_epik_Tot_abs_Q>
0

> <r_epik_Metal_State_Penalty>
0.148671

> <b_epik_Metal_Only>
0

> <s_lp_Force_Field>
OPLS_2005

> <r_lp_Energy>
16.3977

> <b_lp_Chiralities_Consistent>
1

> <s_lp_Variant>
AV-unprocessed.smi:2068-1

> <Gold.Version>
5.8.1

> <Gold.Id.Protein>
6NUR|6NUR_protein|mol2

> <Gold.PLP.Fitness>
47.1717

> <Gold.PLP.PLP>
-39.0637

> <Gold.PLP.part.hbond>
-3.0000

> <Gold.PLP.part.metal>
0.0000

> <Gold.PLP.part.buried>
-3.6815

> <Gold.PLP.part.nonpolar>
-33.3802

> <Gold.PLP.part.repulsive>
1.1063

> <Gold.PLP.ligand.clash>
0.0000

> <Gold.PLP.ligand.torsion>
1.0827

> <Gold.PLP.Chemscore.Hbond>
2.0000

> <Gold.PLP.Chemscore.CHOScore>
1.4177

> <Gold.PLP.Chemscore.Metal>
0.0000

> <Gold.Chemscore.Hbonds>
donor molecule, donor type, donor heavy atom, donor atom, acceptor molecule, acceptor atom, score
      L1  H     1    20       P1  7957  1.00
      P1  H  7997  8009       L1    11  1.00
      L1  C     6    23       P1  7948  1.00
      L1  C     6    23       P1  7957  0.09

> <Gold.PLP.Chemscore.Internal.Correction>
0.0203

> <Gold.Rescore>
     Score         DG    S(hbond)    S(metal)    S(lipo)     H(rot)  DE(clash)    DE(int)     intcor
     16.16     -18.42       2.12        0.00      98.29       2.21       0.03       2.22       ----

> <Gold.Chemscore.Fitness>
16.1646

> <Gold.Chemscore.DG>
-18.4167

> <Gold.Chemscore.ZeroCoef>
-5.4800

> <Gold.Chemscore.Hbond>
2.1206

> <Gold.Chemscore.Metal>
0.0000

> <Gold.Chemscore.Lipo>
98.2861

> <Gold.Chemscore.Internal_Hbond>
0.0000

> <Gold.Chemscore.DEClash>
0.0329

> <Gold.Chemscore.DEInternal>
2.2191

> <Gold.Chemscore.Rot>
2.2053

> <Gold.Chemscore.Internal.Correction>
   9.000000E+99

> <Gold.Chemscore.Hbonds>
donor molecule, donor type, donor heavy atom, donor atom, acceptor molecule, acceptor atom, score
      L1  H     1    19       P1  7948  0.02
      L1  H     1    20       P1  7957  0.39
      P1  H  7997  8009       L1    11  0.95

> <Gold.Chemscore.Hbond.Weighted>
-7.0828

> <Gold.Chemscore.Metal.Weighted>
-0.0000

> <Gold.Chemscore.Lipo.Weighted>
-11.4995

> <Gold.Chemscore.Internal_Hbond.Weighted>
0.0000

> <Gold.Chemscore.DEClash.Weighted>
0.0329

> <Gold.Chemscore.DEInternal.Weighted>
2.2191

> <Gold.Chemscore.Rot.Weighted>
5.6456

> <Gold.Chemscore.Internal.Correction.Weighted>
   9.000000E+99

> <Gold.Protein.RotatedTorsions>
[ 6907 6896 6895 6894 ] final   43.92 input  -60.11 | X-H torsion
[ 7974 7965 7964 7962 ] final  127.86 input  175.53 | X-H torsion
[ 8008 7997 7996 7995 ] final  161.96 input   59.86 | X-H torsion
[ 10167 10162 10161 10158 ] final   74.35 input  -65.29 | X-H torsion
[ 10718 10713 10712 10709 ] final -102.20 input   66.30 | X-H torsion
[ 10763 10752 10751 10750 ] final   90.25 input  -60.55 | X-H torsion
[ 11005 11000 10999 10996 ] final  -44.25 input  -57.11 | X-H torsion

> <Gold.Protein.ActiveResidues>
 VAL166  LYS551  ARG553  GLY616  TRP617  ASP618  TYR619  PRO620  LYS621  CYS622 
 ASP623  PHE694  ASN695  SER759  ASP760  ASP761  ALA762  ILE779  LEU786  VAL792 
 PHE793  MET794  SER795  GLU796  ALA797  LYS798  CYS799  TRP800  GLU811  SER814 

> <Gold.Protein.RotatedAtoms>
  152.2262  134.8366  160.0479 H   0  0  0  0  0  0  0  0  0  0  0  0  # atno 6907 bound_to 6896
  151.9131  133.3561  159.3879 H   0  0  0  0  0  0  0  0  0  0  0  0  # atno 6908 bound_to 6896
  150.7013  134.4637  159.5437 H   0  0  0  0  0  0  0  0  0  0  0  0  # atno 6909 bound_to 6896
  145.0459  139.3923  143.5078 H   0  0  0  0  0  0  0  0  0  0  0  0  # atno 7974 bound_to 7965
  156.2066  140.1763  156.7786 H   0  0  0  0  0  0  0  0  0  0  0  0  # atno 8008 bound_to 7997
  154.5663  140.0690  156.8927 H   0  0  0  0  0  0  0  0  0  0  0  0  # atno 8009 bound_to 7997
  155.2754  140.3345  155.4264 H   0  0  0  0  0  0  0  0  0  0  0  0  # atno 8010 bound_to 7997
  140.0147  144.5587  150.7630 H   0  0  0  0  0  0  0  0  0  0  0  0  # atno 10167 bound_to 10162
  156.0220  130.5409  150.7073 H   0  0  0  0  0  0  0  0  0  0  0  0  # atno 10718 bound_to 10713
  153.1956  135.4440  155.0204 H   0  0  0  0  0  0  0  0  0  0  0  0  # atno 10763 bound_to 10752
  154.8117  135.3297  154.7290 H   0  0  0  0  0  0  0  0  0  0  0  0  # atno 10764 bound_to 10752
  153.7740  135.6982  153.4956 H   0  0  0  0  0  0  0  0  0  0  0  0  # atno 10765 bound_to 10752
  141.0438  133.6769  156.2846 H   0  0  0  0  0  0  0  0  0  0  0  0  # atno 11005 bound_to 11000
  146.3514  140.0084  142.8669 LP  0  0  0  0  0  0  0  0  0  0  0  0  # atno 17320 bound_to 7965
  145.1588  140.9662  143.4389 LP  0  0  0  0  0  0  0  0  0  0  0  0  # atno 17321 bound_to 7965
  140.7367  143.2756  151.3752 LP  0  0  0  0  0  0  0  0  0  0  0  0  # atno 17342 bound_to 10162
  139.6181  144.0963  152.2365 LP  0  0  0  0  0  0  0  0  0  0  0  0  # atno 17343 bound_to 10162
  157.4720  131.0894  151.0632 LP  0  0  0  0  0  0  0  0  0  0  0  0  # atno 17370 bound_to 10713
  157.1090  130.6013  149.5477 LP  0  0  0  0  0  0  0  0  0  0  0  0  # atno 17371 bound_to 10713
  140.6185  134.5386  157.5544 LP  0  0  0  0  0  0  0  0  0  0  0  0  # atno 17394 bound_to 11000
  139.9296  134.7989  156.0969 LP  0  0  0  0  0  0  0  0  0  0  0  0  # atno 17395 bound_to 11000

$$$$
