AV-unprocessed.smi:1508|AV-procd|sdf|6086|dock3
  -GOLD-   22720 6213D 1   1.00000     0.00000
 Structure written by MMmdl.
 38 39  0  0  0  0  0  0  0  0  2 V2000
  148.9023  141.4490  154.4180 C   0  0  0  0  0  0  0  0  0  0  0  0
  147.7692  140.4108  154.4413 C   0  0  0  0  0  0  0  0  0  0  0  0
  147.9006  139.2790  153.3861 C   0  0  2  0  0  0  0  0  0  0  0  0
  146.5345  138.6152  153.0596 C   0  0  0  0  0  0  0  0  0  0  0  0
  146.6719  137.2896  152.4640 N   0  0  0  0  0  0  0  0  0  0  0  0
  145.6552  136.4492  152.2250 C   0  0  0  0  0  0  0  0  0  0  0  0
  144.4827  136.7177  152.4862 O   0  0  0  0  0  0  0  0  0  0  0  0
  146.0887  135.3012  151.6801 N   0  0  0  0  0  0  0  0  0  0  0  0
  145.3212  134.1696  151.3069 C   0  0  0  0  0  0  0  0  0  0  0  0
  145.8990  133.2486  150.5267 N   0  0  0  0  0  0  0  0  0  0  0  0
  145.0394  132.1949  150.2412 N   0  0  0  0  0  0  0  0  0  0  0  0
  143.8452  132.3632  150.8174 C   0  0  0  0  0  0  0  0  0  0  0  0
  143.6510  133.8259  151.7670 S   0  0  0  0  0  0  0  0  0  0  0  0
  148.9148  138.2570  153.7806 N   0  3  0  0  0  0  0  0  0  0  0  0
  150.2985  138.7700  153.9487 C   0  0  0  0  0  0  0  0  0  0  0  0
  150.9384  137.9896  155.1057 C   0  0  0  0  0  0  0  0  0  0  0  0
  149.9421  136.8834  155.4334 C   0  0  0  0  0  0  0  0  0  0  0  0
  148.6079  137.4797  155.0013 C   0  0  0  0  0  0  0  0  0  0  0  0
  148.7177  142.2325  155.1532 H   0  0  0  0  0  0  0  0  0  0  0  0
  148.9885  141.9286  153.4431 H   0  0  0  0  0  0  0  0  0  0  0  0
  149.8652  140.9991  154.6591 H   0  0  0  0  0  0  0  0  0  0  0  0
  147.7201  139.9752  155.4395 H   0  0  0  0  0  0  0  0  0  0  0  0
  146.8148  140.9241  154.3254 H   0  0  0  0  0  0  0  0  0  0  0  0
  148.2729  139.7440  152.4716 H   0  0  0  0  0  0  0  0  0  0  0  0
  145.9142  138.5223  153.9518 H   0  0  0  0  0  0  0  0  0  0  0  0
  145.9665  139.2385  152.3690 H   0  0  0  0  0  0  0  0  0  0  0  0
  147.6054  136.9926  152.2182 H   0  0  0  0  0  0  0  0  0  0  0  0
  147.0820  135.2219  151.5190 H   0  0  0  0  0  0  0  0  0  0  0  0
  143.0735  131.6198  150.6825 H   0  0  0  0  0  0  0  0  0  0  0  0
  150.8525  138.6321  153.0196 H   0  0  0  0  0  0  0  0  0  0  0  0
  150.3039  139.8353  154.1848 H   0  0  0  0  0  0  0  0  0  0  0  0
  151.9234  137.5965  154.8514 H   0  0  0  0  0  0  0  0  0  0  0  0
  151.0578  138.6453  155.9693 H   0  0  0  0  0  0  0  0  0  0  0  0
  150.1619  135.9971  154.8363 H   0  0  0  0  0  0  0  0  0  0  0  0
  149.9578  136.5948  156.4848 H   0  0  0  0  0  0  0  0  0  0  0  0
  148.2325  138.1467  155.7794 H   0  0  0  0  0  0  0  0  0  0  0  0
  147.8594  136.7078  154.8213 H   0  0  0  0  0  0  0  0  0  0  0  0
  148.9584  137.5808  153.0315 H   0  0  0  0  0  0  0  0  0  0  0  0
  1  2  1  0  0  0  0
  1 19  1  0  0  0  0
  1 20  1  0  0  0  0
  1 21  1  0  0  0  0
  2  3  1  0  0  0  0
  2 22  1  0  0  0  0
  2 23  1  0  0  0  0
  3  4  1  0  0  0  0
  3 14  1  0  0  0  0
  3 24  1  0  0  0  0
  4  5  1  0  0  0  0
  4 25  1  0  0  0  0
  4 26  1  0  0  0  0
  5  6  1  0  0  0  0
  5 27  1  0  0  0  0
  6  7  2  0  0  0  0
  6  8  1  0  0  0  0
  8  9  1  0  0  0  0
  8 28  1  0  0  0  0
  9 13  1  0  0  0  0
  9 10  2  0  0  0  0
 10 11  1  0  0  0  0
 11 12  2  0  0  0  0
 12 13  1  0  0  0  0
 12 29  1  0  0  0  0
 14 18  1  0  0  0  0
 14 15  1  0  0  0  0
 14 38  1  0  0  0  0
 15 16  1  0  0  0  0
 15 30  1  0  0  0  0
 15 31  1  0  0  0  0
 16 17  1  0  0  0  0
 16 32  1  0  0  0  0
 16 33  1  0  0  0  0
 17 18  1  0  0  0  0
 17 34  1  0  0  0  0
 17 35  1  0  0  0  0
 18 36  1  0  0  0  0
 18 37  1  0  0  0  0
M  CHG  1  14   1
M  END
> <s_m_source_file>
AV-unprocessed.smi

> <i_m_source_file_index>
1508

> <i_lp_mmshare_version>
43012

> <i_f3d_flags>
0

> <s_epik_input>
W0NIMl0xW0NIMl1bQ0gyXVtDSDJdTjFbQ0BIXShbQ0gyXVtDSDNdKVtDSDJdW05IXUMoPU8pW05IXWMybm5bY0hdczI=

> <s_epik_cmdline>
J2VwaWtfcHl0aG9uJywgJy1waCcsICc3LjAnLCAnLXRuJywgJzgnLCAnLW1hJywgJzIwMCcsICctbWV0YWxfYmluZGluZycsICctaW1hZScsICc8aW5maWxlLm1hZT4nLCAnLW9tYWUnLCAnPG91dGZpbGUubWFlPic=

> <r_lp_tautomer_probability>
1

> <r_epik_Ionization_Penalty>
0.00193711

> <r_epik_Ionization_Penalty_Charging>
0.00115997

> <r_epik_Ionization_Penalty_Neutral>
0.000777142

> <r_epik_State_Penalty>
-0

> <r_epik_Charging_Adjusted_Penalty>
0.00115997

> <i_epik_Tot_Q>
1

> <i_epik_Tot_abs_Q>
1

> <r_epik_Metal_State_Penalty>
0.264283

> <b_epik_Metal_Only>
0

> <s_lp_Force_Field>
OPLS_2005

> <r_lp_Energy>
30.1882

> <b_lp_Chiralities_Consistent>
1

> <s_lp_Variant>
AV-unprocessed.smi:1508-1

> <Gold.Version>
5.8.1

> <Gold.Id.Protein>
6NUR|6NUR_protein|mol2

> <Gold.PLP.Fitness>
38.8406

> <Gold.PLP.PLP>
-27.2126

> <Gold.PLP.part.hbond>
-3.1324

> <Gold.PLP.part.metal>
0.0000

> <Gold.PLP.part.buried>
-4.7470

> <Gold.PLP.part.nonpolar>
-21.5731

> <Gold.PLP.part.repulsive>
1.0282

> <Gold.PLP.ligand.clash>
0.0000

> <Gold.PLP.ligand.torsion>
0.5320

> <Gold.PLP.Chemscore.Hbond>
3.7579

> <Gold.PLP.Chemscore.CHOScore>
0.4266

> <Gold.PLP.Chemscore.Metal>
0.0000

> <Gold.Chemscore.Hbonds>
donor molecule, donor type, donor heavy atom, donor atom, acceptor molecule, acceptor atom, score
      L1  H     5    27       P1  7948  1.00
      L1  H     8    28       P1  7948  0.71
      L1  H    14    38       P1  7948  2.00
      L1  C    12    29       P1 10952  0.29

> <Gold.PLP.Chemscore.Internal.Correction>
0.1387

> <Gold.Rescore>
     Score         DG    S(hbond)    S(metal)    S(lipo)     H(rot)  DE(clash)    DE(int)     intcor
     16.31     -17.16       2.88        0.00      59.16       1.89       0.16       0.69       ----

> <Gold.Chemscore.Fitness>
16.3106

> <Gold.Chemscore.DG>
-17.1622

> <Gold.Chemscore.ZeroCoef>
-5.4800

> <Gold.Chemscore.Hbond>
2.8777

> <Gold.Chemscore.Metal>
0.0000

> <Gold.Chemscore.Lipo>
59.1614

> <Gold.Chemscore.Internal_Hbond>
0.0000

> <Gold.Chemscore.DEClash>
0.1600

> <Gold.Chemscore.DEInternal>
0.6915

> <Gold.Chemscore.Rot>
1.8950

> <Gold.Chemscore.Internal.Correction>
   9.000000E+99

> <Gold.Chemscore.Hbonds>
donor molecule, donor type, donor heavy atom, donor atom, acceptor molecule, acceptor atom, score
      L1  H     5    27       P1  7948  0.97
      L1  H     8    28       P1  7948  0.64
      L1  H    14    38       P1  7948  1.00

> <Gold.Chemscore.Hbond.Weighted>
-9.6114

> <Gold.Chemscore.Metal.Weighted>
-0.0000

> <Gold.Chemscore.Lipo.Weighted>
-6.9219

> <Gold.Chemscore.Internal_Hbond.Weighted>
0.0000

> <Gold.Chemscore.DEClash.Weighted>
0.1600

> <Gold.Chemscore.DEInternal.Weighted>
0.6915

> <Gold.Chemscore.Rot.Weighted>
4.8511

> <Gold.Chemscore.Internal.Correction.Weighted>
   9.000000E+99

> <Gold.Protein.RotatedTorsions>
[ 6907 6896 6895 6894 ] final  127.94 input  -60.11 | X-H torsion
[ 7974 7965 7964 7962 ] final  170.97 input  175.53 | X-H torsion
[ 8008 7997 7996 7995 ] final  -22.57 input   59.86 | X-H torsion
[ 10167 10162 10161 10158 ] final  -37.07 input  -65.29 | X-H torsion
[ 10718 10713 10712 10709 ] final -142.93 input   66.30 | X-H torsion
[ 10763 10752 10751 10750 ] final -159.91 input  -60.55 | X-H torsion
[ 11005 11000 10999 10996 ] final   28.46 input  -57.11 | X-H torsion

> <Gold.Protein.ActiveResidues>
 VAL166  LYS551  ARG553  GLY616  TRP617  ASP618  TYR619  PRO620  LYS621  CYS622 
 ASP623  PHE694  ASN695  SER759  ASP760  ASP761  ALA762  ILE779  LEU786  VAL792 
 PHE793  MET794  SER795  GLU796  ALA797  LYS798  CYS799  TRP800  GLU811  SER814 

> <Gold.Protein.RotatedAtoms>
  152.3766  133.6489  159.6127 H   0  0  0  0  0  0  0  0  0  0  0  0  # atno 6907 bound_to 6896
  150.7708  133.9184  159.3399 H   0  0  0  0  0  0  0  0  0  0  0  0  # atno 6908 bound_to 6896
  151.6997  135.0933  160.0300 H   0  0  0  0  0  0  0  0  0  0  0  0  # atno 6909 bound_to 6896
  144.7308  139.9281  143.6423 H   0  0  0  0  0  0  0  0  0  0  0  0  # atno 7974 bound_to 7965
  154.4636  140.2004  156.0177 H   0  0  0  0  0  0  0  0  0  0  0  0  # atno 8008 bound_to 7997
  156.0886  140.3261  155.7758 H   0  0  0  0  0  0  0  0  0  0  0  0  # atno 8009 bound_to 7997
  155.4993  140.0552  157.2932 H   0  0  0  0  0  0  0  0  0  0  0  0  # atno 8010 bound_to 7997
  140.7127  143.3366  151.2449 H   0  0  0  0  0  0  0  0  0  0  0  0  # atno 10167 bound_to 10162
  156.3519  130.7692  151.1846 H   0  0  0  0  0  0  0  0  0  0  0  0  # atno 10718 bound_to 10713
  154.7435  135.3074  154.8687 H   0  0  0  0  0  0  0  0  0  0  0  0  # atno 10763 bound_to 10752
  153.9494  135.6765  153.4748 H   0  0  0  0  0  0  0  0  0  0  0  0  # atno 10764 bound_to 10752
  153.1032  135.4902  154.8830 H   0  0  0  0  0  0  0  0  0  0  0  0  # atno 10765 bound_to 10752
  140.3153  134.2604  155.7726 H   0  0  0  0  0  0  0  0  0  0  0  0  # atno 11005 bound_to 11000
  146.0878  139.3867  143.0424 LP  0  0  0  0  0  0  0  0  0  0  0  0  # atno 17320 bound_to 7965
  145.7752  140.9880  143.1128 LP  0  0  0  0  0  0  0  0  0  0  0  0  # atno 17321 bound_to 7965
  139.6863  143.9769  152.2835 LP  0  0  0  0  0  0  0  0  0  0  0  0  # atno 17342 bound_to 10162
  139.9415  144.6678  150.8261 LP  0  0  0  0  0  0  0  0  0  0  0  0  # atno 17343 bound_to 10162
  157.7462  131.0425  150.4698 LP  0  0  0  0  0  0  0  0  0  0  0  0  # atno 17370 bound_to 10713
  156.4894  130.4092  149.6415 LP  0  0  0  0  0  0  0  0  0  0  0  0  # atno 17371 bound_to 10713
  141.2099  133.7735  156.9967 LP  0  0  0  0  0  0  0  0  0  0  0  0  # atno 17394 bound_to 11000
  140.0989  134.9547  157.1892 LP  0  0  0  0  0  0  0  0  0  0  0  0  # atno 17395 bound_to 11000

$$$$
