AV-unprocessed.smi:227|AV-procd|sdf|1729|dock5
  -GOLD-   2262020213D 1   1.00000     0.00000
 Structure written by MMmdl.
 54 58  0  0  0  0  0  0  0  0  1 V2000
  150.3499  138.0690  153.7064 O   0  0  0  0  0  0  0  0  0  0  0  0
  149.2843  138.3455  154.5911 C   0  0  0  0  0  0  0  0  0  0  0  0
  149.0043  137.1557  155.5451 C   0  0  2  0  0  0  0  0  0  0  0  0
  147.5070  136.7547  155.5211 C   0  0  0  0  0  0  0  0  0  0  0  0
  147.1519  135.8944  154.4057 N   0  0  0  0  0  0  0  0  0  0  0  0
  147.5261  134.5835  154.2227 C   0  0  0  0  0  0  0  0  0  0  0  0
  147.0769  134.0272  153.1318 N   0  0  0  0  0  0  0  0  0  0  0  0
  146.3402  135.0285  152.5078 C   0  0  0  0  0  0  0  0  0  0  0  0
  145.5859  135.1143  151.2998 C   0  0  0  0  0  0  0  0  0  0  0  0
  145.4191  134.0891  150.4181 N   0  0  0  0  0  0  0  0  0  0  0  0
  146.2201  132.8790  150.5119 C   0  0  1  0  0  0  0  0  0  0  0  0
  145.6415  132.1411  151.7354 C   0  0  0  0  0  0  0  0  0  0  0  0
  144.1525  132.5077  151.6296 C   0  0  0  0  0  0  0  0  0  0  0  0
  144.1464  133.3803  150.3555 C   0  0  2  0  0  0  0  0  0  0  0  0
  144.3181  132.4643  149.1257 C   0  0  1  0  0  0  0  0  0  0  0  0
  143.9308  133.1583  147.8074 C   0  0  0  0  0  0  0  0  0  0  0  0
  142.5256  133.2196  147.6834 O   0  0  0  0  0  0  0  0  0  0  0  0
  145.8200  132.1280  149.2311 C   0  0  0  0  0  0  0  0  0  0  0  0
  145.0203  136.3161  151.0075 N   0  0  0  0  0  0  0  0  0  0  0  0
  145.1535  137.3524  151.8391 C   0  0  0  0  0  0  0  0  0  0  0  0
  145.8071  137.4107  152.9996 N   0  0  0  0  0  0  0  0  0  0  0  0
  146.3923  136.2156  153.2951 C   0  0  0  0  0  0  0  0  0  0  0  0
  149.4514  137.4497  157.0035 C   0  0  2  0  0  0  0  0  0  0  0  0
  150.9491  137.5687  157.2291 C   0  0  0  0  0  0  0  0  0  0  0  0
  151.0680  137.3880  158.7380 C   0  0  0  0  0  0  0  0  0  0  0  0
  150.0174  136.5007  159.1014 O   0  0  0  0  0  0  0  0  0  0  0  0
  149.1174  136.3414  158.0097 C   0  0  0  0  0  0  0  0  0  0  0  0
  150.1712  138.4890  152.8789 H   0  0  0  0  0  0  0  0  0  0  0  0
  149.5028  139.2519  155.1564 H   0  0  0  0  0  0  0  0  0  0  0  0
  148.4240  138.5688  153.9621 H   0  0  0  0  0  0  0  0  0  0  0  0
  149.5724  136.2978  155.1817 H   0  0  0  0  0  0  0  0  0  0  0  0
  147.2332  136.2238  156.4328 H   0  0  0  0  0  0  0  0  0  0  0  0
  146.8807  137.6471  155.4836 H   0  0  0  0  0  0  0  0  0  0  0  0
  148.1407  134.0475  154.9309 H   0  0  0  0  0  0  0  0  0  0  0  0
  147.2971  133.0248  150.5659 H   0  0  0  0  0  0  0  0  0  0  0  0
  145.8183  131.0656  151.7001 H   0  0  0  0  0  0  0  0  0  0  0  0
  146.0675  132.5253  152.6631 H   0  0  0  0  0  0  0  0  0  0  0  0
  143.5039  131.6348  151.5503 H   0  0  0  0  0  0  0  0  0  0  0  0
  143.8365  133.0818  152.5013 H   0  0  0  0  0  0  0  0  0  0  0  0
  143.2649  134.0184  150.2800 H   0  0  0  0  0  0  0  0  0  0  0  0
  143.7090  131.5660  149.2392 H   0  0  0  0  0  0  0  0  0  0  0  0
  144.3223  134.1757  147.7870 H   0  0  0  0  0  0  0  0  0  0  0  0
  144.3494  132.6353  146.9470 H   0  0  0  0  0  0  0  0  0  0  0  0
  142.3093  133.3089  146.7678 H   0  0  0  0  0  0  0  0  0  0  0  0
  146.3770  132.5148  148.3764 H   0  0  0  0  0  0  0  0  0  0  0  0
  146.0093  131.0560  149.2952 H   0  0  0  0  0  0  0  0  0  0  0  0
  144.6665  138.2657  151.5301 H   0  0  0  0  0  0  0  0  0  0  0  0
  148.9818  138.3747  157.3425 H   0  0  0  0  0  0  0  0  0  0  0  0
  151.4777  136.7657  156.7131 H   0  0  0  0  0  0  0  0  0  0  0  0
  151.3615  138.5214  156.8968 H   0  0  0  0  0  0  0  0  0  0  0  0
  152.0418  136.9999  159.0371 H   0  0  0  0  0  0  0  0  0  0  0  0
  150.9101  138.3389  159.2482 H   0  0  0  0  0  0  0  0  0  0  0  0
  148.0836  136.3849  158.3530 H   0  0  0  0  0  0  0  0  0  0  0  0
  149.2863  135.3572  157.5703 H   0  0  0  0  0  0  0  0  0  0  0  0
  1  2  1  0  0  0  0
  1 28  1  0  0  0  0
  2  3  1  0  0  0  0
  2 29  1  0  0  0  0
  2 30  1  0  0  0  0
  3  4  1  0  0  0  0
  3 23  1  0  0  0  0
  3 31  1  0  0  0  0
  4  5  1  0  0  0  0
  4 32  1  0  0  0  0
  4 33  1  0  0  0  0
  5 22  1  0  0  0  0
  5  6  1  0  0  0  0
  6  7  2  0  0  0  0
  6 34  1  0  0  0  0
  7  8  1  0  0  0  0
  8 22  2  0  0  0  0
  8  9  1  0  0  0  0
  9 10  1  0  0  0  0
  9 19  2  0  0  0  0
 10 14  1  0  0  0  0
 10 11  1  0  0  0  0
 11 18  1  0  0  0  0
 11 12  1  0  0  0  0
 11 35  1  0  0  0  0
 12 13  1  0  0  0  0
 12 36  1  0  0  0  0
 12 37  1  0  0  0  0
 13 14  1  0  0  0  0
 13 38  1  0  0  0  0
 13 39  1  0  0  0  0
 14 15  1  0  0  0  0
 14 40  1  0  0  0  0
 15 16  1  0  0  0  0
 15 18  1  0  0  0  0
 15 41  1  0  0  0  0
 16 17  1  0  0  0  0
 16 42  1  0  0  0  0
 16 43  1  0  0  0  0
 17 44  1  0  0  0  0
 18 45  1  0  0  0  0
 18 46  1  0  0  0  0
 19 20  1  0  0  0  0
 20 21  2  0  0  0  0
 20 47  1  0  0  0  0
 21 22  1  0  0  0  0
 23 27  1  0  0  0  0
 23 24  1  0  0  0  0
 23 48  1  0  0  0  0
 24 25  1  0  0  0  0
 24 49  1  0  0  0  0
 24 50  1  0  0  0  0
 25 26  1  0  0  0  0
 25 51  1  0  0  0  0
 25 52  1  0  0  0  0
 26 27  1  0  0  0  0
 27 53  1  0  0  0  0
 27 54  1  0  0  0  0
M  END
> <s_m_source_file>
AV-unprocessed.smi

> <i_m_source_file_index>
227

> <i_lp_mmshare_version>
43012

> <i_f3d_flags>
0

> <s_epik_input>
W0NIMl0xT1tDSDJdW0NIMl1bQ0BIXTFbQ0BIXShbQ0gyXVtPSF0pW0NIMl1uKFtjSF1uMiljKGMyMyluW2NIXW5jM04oW0NASF00NSlbQ0BASF0oW0NIMl1bQ0gyXTQpW0NASF0oW0NIMl01KVtDSDJdW09IXQ==

> <s_epik_cmdline>
J2VwaWtfcHl0aG9uJywgJy1waCcsICc3LjAnLCAnLXRuJywgJzgnLCAnLW1hJywgJzIwMCcsICctbWV0YWxfYmluZGluZycsICctaW1hZScsICc8aW5maWxlLm1hZT4nLCAnLW9tYWUnLCAnPG91dGZpbGUubWFlPic=

> <r_lp_tautomer_probability>
1

> <r_epik_Ionization_Penalty>
0.0055791

> <r_epik_Ionization_Penalty_Charging>
0

> <r_epik_Ionization_Penalty_Neutral>
0.0055791

> <r_epik_State_Penalty>
0.00401299

> <r_epik_Charging_Adjusted_Penalty>
0.00401299

> <i_epik_Tot_Q>
0

> <i_epik_Tot_abs_Q>
0

> <r_epik_Metal_State_Penalty>
-0

> <b_epik_Metal_Only>
0

> <s_lp_Force_Field>
OPLS_2005

> <r_lp_Energy>
88.7609

> <b_lp_Chiralities_Consistent>
1

> <s_lp_Variant>
AV-unprocessed.smi:227-3

> <Gold.Version>
5.8.1

> <Gold.Id.Protein>
6NUR|6NUR_protein|mol2

> <Gold.PLP.Fitness>
47.2619

> <Gold.PLP.PLP>
-37.1974

> <Gold.PLP.part.hbond>
-5.8593

> <Gold.PLP.part.metal>
0.0000

> <Gold.PLP.part.buried>
0.0564

> <Gold.PLP.part.nonpolar>
-29.7402

> <Gold.PLP.part.repulsive>
1.0374

> <Gold.PLP.ligand.clash>
0.0000

> <Gold.PLP.ligand.torsion>
1.5846

> <Gold.PLP.Chemscore.Hbond>
2.9913

> <Gold.PLP.Chemscore.CHOScore>
1.3884

> <Gold.PLP.Chemscore.Metal>
0.0000

> <Gold.Chemscore.Hbonds>
donor molecule, donor type, donor heavy atom, donor atom, acceptor molecule, acceptor atom, score
      L1  H     1    28       P1  7957  0.18
      L1  H    17    44       P1 10195  0.50
      P1  H  6896  6909       L1    26  1.00
      L1  C    20    47       P1 10171  0.66
      L1  C    20    47       P1 10175  0.93

> <Gold.PLP.Chemscore.Internal.Correction>
0.0949

> <Gold.Rescore>
     Score         DG    S(hbond)    S(metal)    S(lipo)     H(rot)  DE(clash)    DE(int)     intcor
     11.93     -16.05       2.66        0.00      93.24       3.61       0.69       3.43       ----

> <Gold.Chemscore.Fitness>
11.9349

> <Gold.Chemscore.DG>
-16.0505

> <Gold.Chemscore.ZeroCoef>
-5.4800

> <Gold.Chemscore.Hbond>
2.6634

> <Gold.Chemscore.Metal>
0.0000

> <Gold.Chemscore.Lipo>
93.2389

> <Gold.Chemscore.Internal_Hbond>
0.0000

> <Gold.Chemscore.DEClash>
0.6895

> <Gold.Chemscore.DEInternal>
3.4261

> <Gold.Chemscore.Rot>
3.6071

> <Gold.Chemscore.Internal.Correction>
   9.000000E+99

> <Gold.Chemscore.Hbonds>
donor molecule, donor type, donor heavy atom, donor atom, acceptor molecule, acceptor atom, score
      L1  H     1    28       P1  7957  0.07
      L1  H    17    44       P1 10195  0.49
      P1  H  6896  6909       L1    26  0.55

> <Gold.Chemscore.Hbond.Weighted>
-8.8958

> <Gold.Chemscore.Metal.Weighted>
-0.0000

> <Gold.Chemscore.Lipo.Weighted>
-10.9089

> <Gold.Chemscore.Internal_Hbond.Weighted>
0.0000

> <Gold.Chemscore.DEClash.Weighted>
0.6895

> <Gold.Chemscore.DEInternal.Weighted>
3.4261

> <Gold.Chemscore.Rot.Weighted>
9.2342

> <Gold.Chemscore.Internal.Correction.Weighted>
   9.000000E+99

> <Gold.Protein.RotatedTorsions>
[ 6907 6896 6895 6894 ] final   66.86 input  -60.11 | X-H torsion
[ 7974 7965 7964 7962 ] final   18.64 input  175.53 | X-H torsion
[ 8008 7997 7996 7995 ] final   81.86 input   59.86 | X-H torsion
[ 10167 10162 10161 10158 ] final -170.56 input  -65.29 | X-H torsion
[ 10718 10713 10712 10709 ] final  -69.55 input   66.30 | X-H torsion
[ 10763 10752 10751 10750 ] final  163.84 input  -60.55 | X-H torsion
[ 11005 11000 10999 10996 ] final  -40.89 input  -57.11 | X-H torsion

> <Gold.Protein.ActiveResidues>
 VAL166  LYS551  ARG553  GLY616  TRP617  ASP618  TYR619  PRO620  LYS621  CYS622 
 ASP623  PHE694  ASN695  SER759  ASP760  ASP761  ALA762  ILE779  LEU786  VAL792 
 PHE793  MET794  SER795  GLU796  ALA797  LYS798  CYS799  TRP800  GLU811  SER814 

> <Gold.Protein.RotatedAtoms>
  152.4511  134.5392  159.9833 H   0  0  0  0  0  0  0  0  0  0  0  0  # atno 6907 bound_to 6896
  151.5464  133.3418  159.2953 H   0  0  0  0  0  0  0  0  0  0  0  0  # atno 6908 bound_to 6896
  150.8440  134.7774  159.7018 H   0  0  0  0  0  0  0  0  0  0  0  0  # atno 6909 bound_to 6896
  146.2178  139.8428  142.8638 H   0  0  0  0  0  0  0  0  0  0  0  0  # atno 7974 bound_to 7965
  155.9028  140.3432  155.6039 H   0  0  0  0  0  0  0  0  0  0  0  0  # atno 8008 bound_to 7997
  155.7480  140.0816  157.2234 H   0  0  0  0  0  0  0  0  0  0  0  0  # atno 8009 bound_to 7997
  154.4046  140.1558  156.2678 H   0  0  0  0  0  0  0  0  0  0  0  0  # atno 8010 bound_to 7997
  139.5854  144.1329  152.1569 H   0  0  0  0  0  0  0  0  0  0  0  0  # atno 10167 bound_to 10162
  156.0450  130.4315  150.2165 H   0  0  0  0  0  0  0  0  0  0  0  0  # atno 10718 bound_to 10713
  154.2998  135.2759  155.2616 H   0  0  0  0  0  0  0  0  0  0  0  0  # atno 10763 bound_to 10752
  154.5058  135.5796  153.6570 H   0  0  0  0  0  0  0  0  0  0  0  0  # atno 10764 bound_to 10752
  152.9902  135.6169  154.3167 H   0  0  0  0  0  0  0  0  0  0  0  0  # atno 10765 bound_to 10752
  141.0207  133.6864  156.2383 H   0  0  0  0  0  0  0  0  0  0  0  0  # atno 11005 bound_to 11000
  145.2882  141.0159  143.3678 LP  0  0  0  0  0  0  0  0  0  0  0  0  # atno 17320 bound_to 7965
  144.9098  139.4543  143.6592 LP  0  0  0  0  0  0  0  0  0  0  0  0  # atno 17321 bound_to 7965
  140.0891  144.5635  150.7067 LP  0  0  0  0  0  0  0  0  0  0  0  0  # atno 17342 bound_to 10162
  140.7127  143.2518  151.4531 LP  0  0  0  0  0  0  0  0  0  0  0  0  # atno 17343 bound_to 10162
  157.0255  130.9992  151.3327 LP  0  0  0  0  0  0  0  0  0  0  0  0  # atno 17370 bound_to 10713
  157.5314  130.8061  149.7921 LP  0  0  0  0  0  0  0  0  0  0  0  0  # atno 17371 bound_to 10713
  140.6577  134.5000  157.5581 LP  0  0  0  0  0  0  0  0  0  0  0  0  # atno 17394 bound_to 11000
  139.9144  134.8276  156.1415 LP  0  0  0  0  0  0  0  0  0  0  0  0  # atno 17395 bound_to 11000

$$$$
