AV-unprocessed.smi:532|AV-procd|sdf|2852|dock8
  -GOLD-   2262023343D 1   1.00000     0.00000
 Structure written by MMmdl.
 48 50  0  0  0  0  0  0  0  0  2 V2000
  152.8269  139.0529  154.6749 C   0  0  0  0  0  0  0  0  0  0  0  0
  151.7376  139.9109  154.9636 O   0  0  0  0  0  0  0  0  0  0  0  0
  150.4934  139.2326  154.9370 C   0  0  0  0  0  0  0  0  0  0  0  0
  150.0064  139.0340  156.3768 C   0  0  0  0  0  0  0  0  0  0  0  0
  150.4636  140.1112  157.2474 N   0  0  0  0  0  0  0  0  0  0  0  0
  149.8478  141.2931  157.5271 C   0  0  0  0  0  0  0  0  0  0  0  0
  148.5993  141.6441  157.0028 N   0  0  0  0  0  0  0  0  0  0  0  0
  148.4007  141.8330  155.5650 C   0  0  0  0  0  0  0  0  0  0  0  0
  147.0347  141.3140  155.0815 C   0  0  2  0  0  0  0  0  0  0  0  0
  146.8809  141.4768  153.5634 C   0  0  0  0  0  0  0  0  0  0  0  0
  145.9103  142.0354  155.8404 C   0  0  0  0  0  0  0  0  0  0  0  0
  146.1161  141.9318  157.3608 C   0  0  1  0  0  0  0  0  0  0  0  0
  145.7206  140.5518  157.9122 C   0  0  0  0  0  0  0  0  0  0  0  0
  147.5533  142.3610  157.7404 C   0  0  0  0  0  0  0  0  0  0  0  0
  150.5525  142.1084  158.3157 N   0  0  0  0  0  0  0  0  0  0  0  0
  151.7048  141.3830  158.5718 C   0  0  0  0  0  0  0  0  0  0  0  0
  151.6819  140.1837  157.9322 C   0  0  0  0  0  0  0  0  0  0  0  0
  152.7933  139.2069  157.9790 C   0  0  0  0  0  0  0  0  0  0  0  0
  152.7389  138.1501  157.3536 O   0  0  0  0  0  0  0  0  0  0  0  0
  153.8274  139.6374  158.7690 N   0  5  0  0  0  0  0  0  0  0  0  0
  153.8868  140.8387  159.4424 C   0  0  0  0  0  0  0  0  0  0  0  0
  154.8581  141.1492  160.1335 O   0  0  0  0  0  0  0  0  0  0  0  0
  152.8447  141.7231  159.3498 N   0  0  0  0  0  0  0  0  0  0  0  0
  152.8857  143.0129  160.0449 C   0  0  0  0  0  0  0  0  0  0  0  0
  153.7569  139.6206  154.7012 H   0  0  0  0  0  0  0  0  0  0  0  0
  152.7293  138.6112  153.6823 H   0  0  0  0  0  0  0  0  0  0  0  0
  152.9015  138.2506  155.4101 H   0  0  0  0  0  0  0  0  0  0  0  0
  149.7627  139.8078  154.3664 H   0  0  0  0  0  0  0  0  0  0  0  0
  150.6078  138.2654  154.4445 H   0  0  0  0  0  0  0  0  0  0  0  0
  148.9250  138.9779  156.3977 H   0  0  0  0  0  0  0  0  0  0  0  0
  150.3397  138.0758  156.7717 H   0  0  0  0  0  0  0  0  0  0  0  0
  148.5134  142.8913  155.3255 H   0  0  0  0  0  0  0  0  0  0  0  0
  149.1917  141.3095  155.0263 H   0  0  0  0  0  0  0  0  0  0  0  0
  146.9784  140.2474  155.3018 H   0  0  0  0  0  0  0  0  0  0  0  0
  146.9320  142.5257  153.2697 H   0  0  0  0  0  0  0  0  0  0  0  0
  145.9245  141.0806  153.2211 H   0  0  0  0  0  0  0  0  0  0  0  0
  147.6681  140.9433  153.0303 H   0  0  0  0  0  0  0  0  0  0  0  0
  145.9024  143.0883  155.5545 H   0  0  0  0  0  0  0  0  0  0  0  0
  144.9362  141.6349  155.5574 H   0  0  0  0  0  0  0  0  0  0  0  0
  145.4351  142.6457  157.8255 H   0  0  0  0  0  0  0  0  0  0  0  0
  146.3645  139.7613  157.5289 H   0  0  0  0  0  0  0  0  0  0  0  0
  144.6952  140.3013  157.6393 H   0  0  0  0  0  0  0  0  0  0  0  0
  145.7774  140.5334  159.0005 H   0  0  0  0  0  0  0  0  0  0  0  0
  147.7091  142.2744  158.8149 H   0  0  0  0  0  0  0  0  0  0  0  0
  147.6719  143.4234  157.5229 H   0  0  0  0  0  0  0  0  0  0  0  0
  152.9830  142.8639  161.1211 H   0  0  0  0  0  0  0  0  0  0  0  0
  151.9892  143.6096  159.8789 H   0  0  0  0  0  0  0  0  0  0  0  0
  153.7371  143.6031  159.7034 H   0  0  0  0  0  0  0  0  0  0  0  0
  1  2  1  0  0  0  0
  1 25  1  0  0  0  0
  1 26  1  0  0  0  0
  1 27  1  0  0  0  0
  2  3  1  0  0  0  0
  3  4  1  0  0  0  0
  3 28  1  0  0  0  0
  3 29  1  0  0  0  0
  4  5  1  0  0  0  0
  4 30  1  0  0  0  0
  4 31  1  0  0  0  0
  5 17  1  0  0  0  0
  5  6  1  0  0  0  0
  6  7  1  0  0  0  0
  6 15  2  0  0  0  0
  7 14  1  0  0  0  0
  7  8  1  0  0  0  0
  8  9  1  0  0  0  0
  8 32  1  0  0  0  0
  8 33  1  0  0  0  0
  9 10  1  0  0  0  0
  9 11  1  0  0  0  0
  9 34  1  0  0  0  0
 10 35  1  0  0  0  0
 10 36  1  0  0  0  0
 10 37  1  0  0  0  0
 11 12  1  0  0  0  0
 11 38  1  0  0  0  0
 11 39  1  0  0  0  0
 12 13  1  0  0  0  0
 12 14  1  0  0  0  0
 12 40  1  0  0  0  0
 13 41  1  0  0  0  0
 13 42  1  0  0  0  0
 13 43  1  0  0  0  0
 14 44  1  0  0  0  0
 14 45  1  0  0  0  0
 15 16  1  0  0  0  0
 16 23  1  0  0  0  0
 16 17  2  0  0  0  0
 17 18  1  0  0  0  0
 18 19  2  0  0  0  0
 18 20  1  0  0  0  0
 20 21  1  0  0  0  0
 21 22  2  0  0  0  0
 21 23  1  0  0  0  0
 23 24  1  0  0  0  0
 24 46  1  0  0  0  0
 24 47  1  0  0  0  0
 24 48  1  0  0  0  0
M  CHG  1  20  -1
M  END
> <s_m_source_file>
AV-unprocessed.smi

> <i_m_source_file_index>
532

> <i_lp_mmshare_version>
43012

> <i_f3d_flags>
0

> <s_epik_input>
W0NIM11uMWMoPU8pW25IXWMoPU8pYyhjMTIpbihbQ0gyXVtDSDJdT1tDSDNdKWMobjIpTjNbQ0gyXVtDQEBIXShbQ0gzXSlbQ0gyXVtDQEBIXShbQ0gzXSlbQ0gyXTM=

> <s_epik_cmdline>
J2VwaWtfcHl0aG9uJywgJy1waCcsICc3LjAnLCAnLXRuJywgJzgnLCAnLW1hJywgJzIwMCcsICctbWV0YWxfYmluZGluZycsICctaW1hZScsICc8aW5maWxlLm1hZT4nLCAnLW9tYWUnLCAnPG91dGZpbGUubWFlPic=

> <r_lp_tautomer_probability>
1

> <r_epik_Ionization_Penalty>
5.12128

> <r_epik_Ionization_Penalty_Charging>
0.0789629

> <r_epik_Ionization_Penalty_Neutral>
5.04232

> <r_epik_State_Penalty>
5.03111

> <r_epik_Charging_Adjusted_Penalty>
5.11007

> <i_epik_Tot_Q>
-1

> <i_epik_Tot_abs_Q>
1

> <r_epik_Metal_State_Penalty>
1.14201

> <b_epik_Metal_Only>
1

> <s_lp_Force_Field>
OPLS_2005

> <r_lp_Energy>
45.9264

> <b_lp_Chiralities_Consistent>
1

> <s_lp_Variant>
AV-unprocessed.smi:532-5

> <Gold.Version>
5.8.1

> <Gold.Id.Protein>
6NUR|6NUR_protein|mol2

> <Gold.PLP.Fitness>
40.7041

> <Gold.PLP.PLP>
-36.1234

> <Gold.PLP.part.hbond>
-2.0000

> <Gold.PLP.part.metal>
0.0000

> <Gold.PLP.part.buried>
-4.7156

> <Gold.PLP.part.nonpolar>
-28.7393

> <Gold.PLP.part.repulsive>
0.0951

> <Gold.PLP.ligand.clash>
0.0000

> <Gold.PLP.ligand.torsion>
1.7945

> <Gold.PLP.Chemscore.Hbond>
2.5762

> <Gold.PLP.Chemscore.CHOScore>
0.0000

> <Gold.PLP.Chemscore.Metal>
0.0000

> <Gold.Chemscore.Hbonds>
donor molecule, donor type, donor heavy atom, donor atom, acceptor molecule, acceptor atom, score
      P1  H  7989  7998       L1     2  1.00
      P1  H  7997  8009       L1    20  1.55

> <Gold.PLP.Chemscore.Internal.Correction>
0.4410

> <Gold.Rescore>
     Score         DG    S(hbond)    S(metal)    S(lipo)     H(rot)  DE(clash)    DE(int)     intcor
      9.95     -11.66       0.72        0.00      63.24       1.41       0.02       1.69       ----

> <Gold.Chemscore.Fitness>
9.9474

> <Gold.Chemscore.DG>
-11.6590

> <Gold.Chemscore.ZeroCoef>
-5.4800

> <Gold.Chemscore.Hbond>
0.7189

> <Gold.Chemscore.Metal>
0.0000

> <Gold.Chemscore.Lipo>
63.2436

> <Gold.Chemscore.Internal_Hbond>
0.0000

> <Gold.Chemscore.DEClash>
0.0197

> <Gold.Chemscore.DEInternal>
1.6919

> <Gold.Chemscore.Rot>
1.4147

> <Gold.Chemscore.Internal.Correction>
   9.000000E+99

> <Gold.Chemscore.Hbonds>
donor molecule, donor type, donor heavy atom, donor atom, acceptor molecule, acceptor atom, score
      P1  H  7989  7998       L1     2  0.10
      P1  H  7997  8009       L1    20  0.03

> <Gold.Chemscore.Hbond.Weighted>
-2.4010

> <Gold.Chemscore.Metal.Weighted>
-0.0000

> <Gold.Chemscore.Lipo.Weighted>
-7.3995

> <Gold.Chemscore.Internal_Hbond.Weighted>
0.0000

> <Gold.Chemscore.DEClash.Weighted>
0.0197

> <Gold.Chemscore.DEInternal.Weighted>
1.6919

> <Gold.Chemscore.Rot.Weighted>
3.6216

> <Gold.Chemscore.Internal.Correction.Weighted>
   9.000000E+99

> <Gold.Protein.RotatedTorsions>
[ 6907 6896 6895 6894 ] final   39.10 input  -60.11 | X-H torsion
[ 7974 7965 7964 7962 ] final -153.99 input  175.53 | X-H torsion
[ 8008 7997 7996 7995 ] final  119.04 input   59.86 | X-H torsion
[ 10167 10162 10161 10158 ] final -138.12 input  -65.29 | X-H torsion
[ 10718 10713 10712 10709 ] final  146.13 input   66.30 | X-H torsion
[ 10763 10752 10751 10750 ] final   49.93 input  -60.55 | X-H torsion
[ 11005 11000 10999 10996 ] final -138.51 input  -57.11 | X-H torsion

> <Gold.Protein.ActiveResidues>
 VAL166  LYS551  ARG553  GLY616  TRP617  ASP618  TYR619  PRO620  LYS621  CYS622 
 ASP623  PHE694  ASN695  SER759  ASP760  ASP761  ALA762  ILE779  LEU786  VAL792 
 PHE793  MET794  SER795  GLU796  ALA797  LYS798  CYS799  TRP800  GLU811  SER814 

> <Gold.Protein.RotatedAtoms>
  152.1651  134.8880  160.0538 H   0  0  0  0  0  0  0  0  0  0  0  0  # atno 6907 bound_to 6896
  151.9861  133.3769  159.4134 H   0  0  0  0  0  0  0  0  0  0  0  0  # atno 6908 bound_to 6896
  150.6893  134.3909  159.5120 H   0  0  0  0  0  0  0  0  0  0  0  0  # atno 6909 bound_to 6896
  144.7712  140.4449  143.5906 H   0  0  0  0  0  0  0  0  0  0  0  0  # atno 7974 bound_to 7965
  156.2576  140.2861  156.0929 H   0  0  0  0  0  0  0  0  0  0  0  0  # atno 8008 bound_to 7997
  155.1443  140.0396  157.2823 H   0  0  0  0  0  0  0  0  0  0  0  0  # atno 8009 bound_to 7997
  154.6507  140.2544  155.7223 H   0  0  0  0  0  0  0  0  0  0  0  0  # atno 8010 bound_to 7997
  139.8510  143.7199  152.2658 H   0  0  0  0  0  0  0  0  0  0  0  0  # atno 10167 bound_to 10162
  157.3370  131.0929  151.1115 H   0  0  0  0  0  0  0  0  0  0  0  0  # atno 10718 bound_to 10713
  152.9785  135.5895  154.4169 H   0  0  0  0  0  0  0  0  0  0  0  0  # atno 10763 bound_to 10752
  154.3798  135.2767  155.2220 H   0  0  0  0  0  0  0  0  0  0  0  0  # atno 10764 bound_to 10752
  154.4138  135.6075  153.6023 H   0  0  0  0  0  0  0  0  0  0  0  0  # atno 10765 bound_to 10752
  140.8609  134.2170  157.4708 H   0  0  0  0  0  0  0  0  0  0  0  0  # atno 11005 bound_to 11000
  145.6319  139.1537  143.2964 LP  0  0  0  0  0  0  0  0  0  0  0  0  # atno 17320 bound_to 7965
  146.1860  140.6422  142.9167 LP  0  0  0  0  0  0  0  0  0  0  0  0  # atno 17321 bound_to 7965
  139.7465  144.7545  151.0571 LP  0  0  0  0  0  0  0  0  0  0  0  0  # atno 17342 bound_to 10162
  140.7787  143.4910  150.9894 LP  0  0  0  0  0  0  0  0  0  0  0  0  # atno 17343 bound_to 10162
  157.2341  130.6539  149.5862 LP  0  0  0  0  0  0  0  0  0  0  0  0  # atno 17370 bound_to 10713
  155.9702  130.4589  150.6017 LP  0  0  0  0  0  0  0  0  0  0  0  0  # atno 17371 bound_to 10713
  139.8707  134.9729  156.4789 LP  0  0  0  0  0  0  0  0  0  0  0  0  # atno 17394 bound_to 11000
  140.8684  133.8007  155.9338 LP  0  0  0  0  0  0  0  0  0  0  0  0  # atno 17395 bound_to 11000

$$$$
