AV-unprocessed.smi:2212|AV-procd|sdf|8954|dock4
  -GOLD-   2272012173D 1   1.00000     0.00000
 Structure written by MMmdl.
 31 32  0  0  0  0  0  0  0  0  1 V2000
  149.7682  144.3808  159.8387 C   0  0  0  0  0  0  0  0  0  0  0  0
  149.8810  143.3846  158.8308 O   0  0  0  0  0  0  0  0  0  0  0  0
  151.1649  143.2553  158.2189 C   0  0  0  0  0  0  0  0  0  0  0  0
  151.2093  142.0952  157.2147 C   0  0  0  0  0  0  0  0  0  0  0  0
  150.0847  142.1685  156.2912 N   0  0  0  0  0  0  0  0  0  0  0  0
  149.8166  141.2698  155.3343 C   0  0  0  0  0  0  0  0  0  0  0  0
  150.5434  140.2891  155.1457 O   0  0  0  0  0  0  0  0  0  0  0  0
  148.6776  141.6398  154.6350 N   0  0  0  0  0  0  0  0  0  0  0  0
  148.0275  140.7483  153.9515 C   0  0  0  0  0  0  0  0  0  0  0  0
  148.2419  139.3927  153.7161 N   0  0  0  0  0  0  0  0  0  0  0  0
  147.2386  138.9372  152.9071 C   0  0  0  0  0  0  0  0  0  0  0  0
  146.4282  139.9574  152.6420 C   0  0  0  0  0  0  0  0  0  0  0  0
  146.8857  141.0788  153.2664 O   0  0  0  0  0  0  0  0  0  0  0  0
  151.5961  144.6478  157.7210 C   0  0  0  0  0  0  0  0  0  0  0  0
  152.9728  144.4010  158.3409 C   0  0  0  0  0  0  0  0  0  0  0  0
  152.2974  143.3800  159.2579 C   0  0  0  0  0  0  0  0  0  0  0  0
  148.7278  144.4519  160.1552 H   0  0  0  0  0  0  0  0  0  0  0  0
  150.0722  145.3632  159.4769 H   0  0  0  0  0  0  0  0  0  0  0  0
  150.3581  144.1328  160.7207 H   0  0  0  0  0  0  0  0  0  0  0  0
  152.1400  142.1292  156.6462 H   0  0  0  0  0  0  0  0  0  0  0  0
  151.2017  141.1297  157.7209 H   0  0  0  0  0  0  0  0  0  0  0  0
  149.4601  142.9557  156.3947 H   0  0  0  0  0  0  0  0  0  0  0  0
  148.9913  138.8096  154.0603 H   0  0  0  0  0  0  0  0  0  0  0  0
  147.2113  137.9024  152.5990 H   0  0  0  0  0  0  0  0  0  0  0  0
  145.5262  140.0441  152.0543 H   0  0  0  0  0  0  0  0  0  0  0  0
  151.6045  144.7672  156.6373 H   0  0  0  0  0  0  0  0  0  0  0  0
  151.0598  145.4647  158.2076 H   0  0  0  0  0  0  0  0  0  0  0  0
  153.6774  143.9454  157.6432 H   0  0  0  0  0  0  0  0  0  0  0  0
  153.4051  145.2609  158.8528 H   0  0  0  0  0  0  0  0  0  0  0  0
  151.9730  143.8217  160.2019 H   0  0  0  0  0  0  0  0  0  0  0  0
  152.8728  142.4681  159.4198 H   0  0  0  0  0  0  0  0  0  0  0  0
  1  2  1  0  0  0  0
  1 17  1  0  0  0  0
  1 18  1  0  0  0  0
  1 19  1  0  0  0  0
  2  3  1  0  0  0  0
  3 16  1  0  0  0  0
  3  4  1  0  0  0  0
  3 14  1  0  0  0  0
  4  5  1  0  0  0  0
  4 20  1  0  0  0  0
  4 21  1  0  0  0  0
  5 22  1  0  0  0  0
  5  6  1  0  0  0  0
  6  8  1  0  0  0  0
  6  7  2  0  0  0  0
  8  9  2  0  0  0  0
  9 13  1  0  0  0  0
  9 10  1  0  0  0  0
 10 23  1  0  0  0  0
 10 11  1  0  0  0  0
 11 24  1  0  0  0  0
 11 12  2  0  0  0  0
 12 25  1  0  0  0  0
 12 13  1  0  0  0  0
 14 15  1  0  0  0  0
 14 26  1  0  0  0  0
 14 27  1  0  0  0  0
 15 16  1  0  0  0  0
 15 28  1  0  0  0  0
 15 29  1  0  0  0  0
 16 30  1  0  0  0  0
 16 31  1  0  0  0  0
M  END
> <s_m_source_file>
AV-unprocessed.smi

> <i_m_source_file_index>
2212

> <i_lp_mmshare_version>
43012

> <i_f3d_flags>
0

> <s_epik_input>
W0NIMl0xW0NIMl1bQ0gyXUMxKE9bQ0gzXSlbQ0gyXVtOSF1DKD1PKVtOSF1jMm5bY0hdW2NIXW8y

> <s_epik_cmdline>
J2VwaWtfcHl0aG9uJywgJy1waCcsICc3LjAnLCAnLXRuJywgJzgnLCAnLW1hJywgJzIwMCcsICctbWV0YWxfYmluZGluZycsICctaW1hZScsICc8aW5maWxlLm1hZT4nLCAnLW9tYWUnLCAnPG91dGZpbGUubWFlPic=

> <r_lp_tautomer_probability>
0.107061

> <r_epik_Ionization_Penalty>
1.29244

> <r_epik_Ionization_Penalty_Charging>
1.29208

> <r_epik_Ionization_Penalty_Neutral>
0.000357989

> <r_epik_State_Penalty>
2.59896

> <r_epik_Charging_Adjusted_Penalty>
3.89105

> <i_epik_Tot_Q>
0

> <i_epik_Tot_abs_Q>
0

> <r_epik_Metal_State_Penalty>
3.62496

> <b_epik_Metal_Only>
0

> <s_lp_Force_Field>
OPLS_2005

> <r_lp_Energy>
41.2438

> <b_lp_Chiralities_Consistent>
1

> <s_lp_Variant>
AV-unprocessed.smi:2212-4

> <Gold.Version>
5.8.1

> <Gold.Id.Protein>
6NUR|6NUR_protein|mol2

> <Gold.PLP.Fitness>
41.6000

> <Gold.PLP.PLP>
-29.9260

> <Gold.PLP.part.hbond>
-3.2776

> <Gold.PLP.part.metal>
0.0000

> <Gold.PLP.part.buried>
-0.3553

> <Gold.PLP.part.nonpolar>
-27.1003

> <Gold.PLP.part.repulsive>
0.7185

> <Gold.PLP.ligand.clash>
0.0000

> <Gold.PLP.ligand.torsion>
0.2931

> <Gold.PLP.Chemscore.Hbond>
1.9920

> <Gold.PLP.Chemscore.CHOScore>
2.0000

> <Gold.PLP.Chemscore.Metal>
0.0000

> <Gold.Chemscore.Hbonds>
donor molecule, donor type, donor heavy atom, donor atom, acceptor molecule, acceptor atom, score
      L1  H     5    22       P1  8028  0.93
      P1  H  7989  7998       L1     7  0.94
      L1  C    11    24       P1  7948  1.00
      L1  C    12    25       P1 10175  0.73

> <Gold.PLP.Chemscore.Internal.Correction>
0.2841

> <Gold.Rescore>
     Score         DG    S(hbond)    S(metal)    S(lipo)     H(rot)  DE(clash)    DE(int)     intcor
     13.02     -14.20       1.01        0.00      81.72       1.64       0.88       0.31       ----

> <Gold.Chemscore.Fitness>
13.0177

> <Gold.Chemscore.DG>
-14.1997

> <Gold.Chemscore.ZeroCoef>
-5.4800

> <Gold.Chemscore.Hbond>
1.0060

> <Gold.Chemscore.Metal>
0.0000

> <Gold.Chemscore.Lipo>
81.7152

> <Gold.Chemscore.Internal_Hbond>
0.0000

> <Gold.Chemscore.DEClash>
0.8751

> <Gold.Chemscore.DEInternal>
0.3069

> <Gold.Chemscore.Rot>
1.6411

> <Gold.Chemscore.Internal.Correction>
   9.000000E+99

> <Gold.Chemscore.Hbonds>
donor molecule, donor type, donor heavy atom, donor atom, acceptor molecule, acceptor atom, score
      L1  H     5    22       P1  8028  0.87
      P1  H  7989  7998       L1     7  0.31

> <Gold.Chemscore.Hbond.Weighted>
-3.3601

> <Gold.Chemscore.Metal.Weighted>
-0.0000

> <Gold.Chemscore.Lipo.Weighted>
-9.5607

> <Gold.Chemscore.Internal_Hbond.Weighted>
0.0000

> <Gold.Chemscore.DEClash.Weighted>
0.8751

> <Gold.Chemscore.DEInternal.Weighted>
0.3069

> <Gold.Chemscore.Rot.Weighted>
4.2011

> <Gold.Chemscore.Internal.Correction.Weighted>
   9.000000E+99

> <Gold.Protein.RotatedTorsions>
[ 6907 6896 6895 6894 ] final -129.20 input  -60.11 | X-H torsion
[ 7974 7965 7964 7962 ] final   90.17 input  175.53 | X-H torsion
[ 8008 7997 7996 7995 ] final -115.07 input   59.86 | X-H torsion
[ 10167 10162 10161 10158 ] final   -7.45 input  -65.29 | X-H torsion
[ 10718 10713 10712 10709 ] final   83.31 input   66.30 | X-H torsion
[ 10763 10752 10751 10750 ] final  -82.68 input  -60.55 | X-H torsion
[ 11005 11000 10999 10996 ] final  -62.34 input  -57.11 | X-H torsion

> <Gold.Protein.ActiveResidues>
 VAL166  LYS551  ARG553  GLY616  TRP617  ASP618  TYR619  PRO620  LYS621  CYS622 
 ASP623  PHE694  ASN695  SER759  ASP760  ASP761  ALA762  ILE779  LEU786  VAL792 
 PHE793  MET794  SER795  GLU796  ALA797  LYS798  CYS799  TRP800  GLU811  SER814 

> <Gold.Protein.RotatedAtoms>
  150.9261  133.6822  159.2820 H   0  0  0  0  0  0  0  0  0  0  0  0  # atno 6907 bound_to 6896
  151.4260  135.1002  159.9637 H   0  0  0  0  0  0  0  0  0  0  0  0  # atno 6908 bound_to 6896
  152.5003  133.8702  159.7349 H   0  0  0  0  0  0  0  0  0  0  0  0  # atno 6909 bound_to 6896
  145.5226  139.2280  143.2663 H   0  0  0  0  0  0  0  0  0  0  0  0  # atno 7974 bound_to 7965
  155.0463  140.0392  157.2527 H   0  0  0  0  0  0  0  0  0  0  0  0  # atno 8008 bound_to 7997
  154.7175  140.2705  155.6548 H   0  0  0  0  0  0  0  0  0  0  0  0  # atno 8009 bound_to 7997
  156.2807  140.2709  156.1836 H   0  0  0  0  0  0  0  0  0  0  0  0  # atno 8010 bound_to 7997
  140.7029  143.6080  150.8732 H   0  0  0  0  0  0  0  0  0  0  0  0  # atno 10167 bound_to 10162
  157.6876  131.0085  150.2504 H   0  0  0  0  0  0  0  0  0  0  0  0  # atno 10718 bound_to 10713
  154.5786  135.5583  153.7163 H   0  0  0  0  0  0  0  0  0  0  0  0  # atno 10763 bound_to 10752
  153.0073  135.6314  154.2014 H   0  0  0  0  0  0  0  0  0  0  0  0  # atno 10764 bound_to 10752
  154.1954  135.2880  155.2988 H   0  0  0  0  0  0  0  0  0  0  0  0  # atno 10765 bound_to 10752
  141.1356  133.6639  156.5513 H   0  0  0  0  0  0  0  0  0  0  0  0  # atno 11005 bound_to 11000
  146.2096  140.6038  142.9065 LP  0  0  0  0  0  0  0  0  0  0  0  0  # atno 17320 bound_to 7965
  144.7668  140.5548  143.6697 LP  0  0  0  0  0  0  0  0  0  0  0  0  # atno 17321 bound_to 7965
  139.9803  143.5958  152.2945 LP  0  0  0  0  0  0  0  0  0  0  0  0  # atno 17342 bound_to 10162
  139.6577  144.7662  151.2023 LP  0  0  0  0  0  0  0  0  0  0  0  0  # atno 17343 bound_to 10162
  156.3101  130.3771  149.7669 LP  0  0  0  0  0  0  0  0  0  0  0  0  # atno 17370 bound_to 10713
  156.5272  130.8241  151.3224 LP  0  0  0  0  0  0  0  0  0  0  0  0  # atno 17371 bound_to 10713
  140.4061  134.7313  157.4809 LP  0  0  0  0  0  0  0  0  0  0  0  0  # atno 17394 bound_to 11000
  140.0461  134.6198  155.8920 LP  0  0  0  0  0  0  0  0  0  0  0  0  # atno 17395 bound_to 11000

$$$$
