AV-unprocessed.smi:3101|AV-procd|sdf|11809|dock10
  -GOLD-   2272017183D 1   1.00000     0.00000
 Structure written by MMmdl.
 28 29  0  0  0  0  0  0  0  0  1 V2000
  151.6354  138.9846  154.7513 C   0  0  0  0  0  0  0  0  0  0  0  0
  150.2250  139.5972  154.6943 C   0  0  1  0  0  0  0  0  0  0  0  0
  149.1713  138.8423  155.4886 C   0  0  0  0  0  0  0  0  0  0  0  0
  148.1158  139.9129  155.7850 C   0  0  0  0  0  0  0  0  0  0  0  0
  148.6743  141.1642  155.3806 O   0  0  0  0  0  0  0  0  0  0  0  0
  150.0808  141.0460  155.1926 C   0  0  1  0  0  0  0  0  0  0  0  0
  150.7971  141.3941  156.5140 C   0  0  0  0  0  0  0  0  0  0  0  0
  151.4318  140.5352  157.1277 O   0  0  0  0  0  0  0  0  0  0  0  0
  150.6553  142.6675  156.9259 N   0  0  0  0  0  0  0  0  0  0  0  0
  151.2086  143.2841  158.0789 C   0  0  0  0  0  0  0  0  0  0  0  0
  151.2424  144.6986  158.0629 C   0  0  0  0  0  0  0  0  0  0  0  0
  151.7432  145.4283  159.0846 N   0  0  0  0  0  0  0  0  0  0  0  0
  152.2204  144.7381  160.1421 C   0  0  0  0  0  0  0  0  0  0  0  0
  152.1958  143.3294  160.1756 C   0  0  0  0  0  0  0  0  0  0  0  0
  151.6934  142.6064  159.1510 N   0  0  0  0  0  0  0  0  0  0  0  0
  152.0007  138.8880  155.7736 H   0  0  0  0  0  0  0  0  0  0  0  0
  152.3479  139.5964  154.1979 H   0  0  0  0  0  0  0  0  0  0  0  0
  151.6412  137.9885  154.3085 H   0  0  0  0  0  0  0  0  0  0  0  0
  149.9107  139.5923  153.6493 H   0  0  0  0  0  0  0  0  0  0  0  0
  148.7635  137.9963  154.9345 H   0  0  0  0  0  0  0  0  0  0  0  0
  149.5858  138.4574  156.4212 H   0  0  0  0  0  0  0  0  0  0  0  0
  147.1950  139.7332  155.2296 H   0  0  0  0  0  0  0  0  0  0  0  0
  147.8689  139.9359  156.8469 H   0  0  0  0  0  0  0  0  0  0  0  0
  150.3989  141.7440  154.4166 H   0  0  0  0  0  0  0  0  0  0  0  0
  150.0877  143.2649  156.3425 H   0  0  0  0  0  0  0  0  0  0  0  0
  150.8622  145.2556  157.2189 H   0  0  0  0  0  0  0  0  0  0  0  0
  152.6236  145.3106  160.9642 H   0  0  0  0  0  0  0  0  0  0  0  0
  152.5791  142.7822  161.0241 H   0  0  0  0  0  0  0  0  0  0  0  0
  1  2  1  0  0  0  0
  1 16  1  0  0  0  0
  1 17  1  0  0  0  0
  1 18  1  0  0  0  0
  2  6  1  0  0  0  0
  2  3  1  0  0  0  0
  2 19  1  0  0  0  0
  3  4  1  0  0  0  0
  3 20  1  0  0  0  0
  3 21  1  0  0  0  0
  4  5  1  0  0  0  0
  4 22  1  0  0  0  0
  4 23  1  0  0  0  0
  5  6  1  0  0  0  0
  6  7  1  0  0  0  0
  6 24  1  0  0  0  0
  7  8  2  0  0  0  0
  7  9  1  0  0  0  0
  9 10  1  0  0  0  0
  9 25  1  0  0  0  0
 10 15  1  0  0  0  0
 10 11  2  0  0  0  0
 11 12  1  0  0  0  0
 11 26  1  0  0  0  0
 12 13  2  0  0  0  0
 13 14  1  0  0  0  0
 13 27  1  0  0  0  0
 14 15  2  0  0  0  0
 14 28  1  0  0  0  0
M  END
> <s_m_source_file>
AV-unprocessed.smi

> <i_m_source_file_index>
3101

> <i_lp_mmshare_version>
43012

> <i_f3d_flags>
0

> <s_epik_input>
W0NIM11bQ0BASF0xW0NIMl1bQ0gyXU9bQ0BIXTFDKD1PKVtOSF1jMltjSF1uW2NIXVtjSF1uMg==

> <s_epik_cmdline>
J2VwaWtfcHl0aG9uJywgJy1waCcsICc3LjAnLCAnLXRuJywgJzgnLCAnLW1hJywgJzIwMCcsICctbWV0YWxfYmluZGluZycsICctaW1hZScsICc8aW5maWxlLm1hZT4nLCAnLW9tYWUnLCAnPG91dGZpbGUubWFlPic=

> <r_lp_tautomer_probability>
1

> <r_epik_Ionization_Penalty>
2.83174e-06

> <r_epik_Ionization_Penalty_Charging>
0

> <r_epik_Ionization_Penalty_Neutral>
2.83174e-06

> <r_epik_State_Penalty>
-0

> <r_epik_Charging_Adjusted_Penalty>
0

> <i_epik_Tot_Q>
0

> <i_epik_Tot_abs_Q>
0

> <r_epik_Metal_State_Penalty>
-0

> <b_epik_Metal_Only>
0

> <s_lp_Force_Field>
OPLS_2005

> <r_lp_Energy>
27.517

> <b_lp_Chiralities_Consistent>
1

> <s_lp_Variant>
AV-unprocessed.smi:3101-2

> <Gold.Version>
5.8.1

> <Gold.Id.Protein>
6NUR|6NUR_protein|mol2

> <Gold.PLP.Fitness>
34.0346

> <Gold.PLP.PLP>
-28.2187

> <Gold.PLP.part.hbond>
-1.4264

> <Gold.PLP.part.metal>
0.0000

> <Gold.PLP.part.buried>
-3.6943

> <Gold.PLP.part.nonpolar>
-22.6409

> <Gold.PLP.part.repulsive>
0.2430

> <Gold.PLP.ligand.clash>
0.0000

> <Gold.PLP.ligand.torsion>
0.1045

> <Gold.PLP.Chemscore.Hbond>
1.0000

> <Gold.PLP.Chemscore.CHOScore>
1.0000

> <Gold.PLP.Chemscore.Metal>
0.0000

> <Gold.Chemscore.Hbonds>
donor molecule, donor type, donor heavy atom, donor atom, acceptor molecule, acceptor atom, score
      L1  H     9    25       P1  8028  1.00
      L1  C    11    26       P1  8028  1.00

> <Gold.PLP.Chemscore.Internal.Correction>
0.0249

> <Gold.Rescore>
     Score         DG    S(hbond)    S(metal)    S(lipo)     H(rot)  DE(clash)    DE(int)     intcor
     10.99     -13.79       1.00        0.00      64.32       1.00       0.11       2.68       ----

> <Gold.Chemscore.Fitness>
10.9945

> <Gold.Chemscore.DG>
-13.7852

> <Gold.Chemscore.ZeroCoef>
-5.4800

> <Gold.Chemscore.Hbond>
0.9998

> <Gold.Chemscore.Metal>
0.0000

> <Gold.Chemscore.Lipo>
64.3245

> <Gold.Chemscore.Internal_Hbond>
0.0000

> <Gold.Chemscore.DEClash>
0.1124

> <Gold.Chemscore.DEInternal>
2.6782

> <Gold.Chemscore.Rot>
1.0000

> <Gold.Chemscore.Internal.Correction>
   9.000000E+99

> <Gold.Chemscore.Hbonds>
donor molecule, donor type, donor heavy atom, donor atom, acceptor molecule, acceptor atom, score
      L1  H     9    25       P1  8028  0.96

> <Gold.Chemscore.Hbond.Weighted>
-3.3393

> <Gold.Chemscore.Metal.Weighted>
-0.0000

> <Gold.Chemscore.Lipo.Weighted>
-7.5260

> <Gold.Chemscore.Internal_Hbond.Weighted>
0.0000

> <Gold.Chemscore.DEClash.Weighted>
0.1124

> <Gold.Chemscore.DEInternal.Weighted>
2.6782

> <Gold.Chemscore.Rot.Weighted>
2.5600

> <Gold.Chemscore.Internal.Correction.Weighted>
   9.000000E+99

> <Gold.Protein.RotatedTorsions>
[ 6907 6896 6895 6894 ] final  -28.49 input  -60.11 | X-H torsion
[ 7974 7965 7964 7962 ] final  -75.77 input  175.53 | X-H torsion
[ 8008 7997 7996 7995 ] final  -49.15 input   59.86 | X-H torsion
[ 10167 10162 10161 10158 ] final  -53.32 input  -65.29 | X-H torsion
[ 10718 10713 10712 10709 ] final  -34.17 input   66.30 | X-H torsion
[ 10763 10752 10751 10750 ] final   18.30 input  -60.55 | X-H torsion
[ 11005 11000 10999 10996 ] final   62.28 input  -57.11 | X-H torsion

> <Gold.Protein.ActiveResidues>
 VAL166  LYS551  ARG553  GLY616  TRP617  ASP618  TYR619  PRO620  LYS621  CYS622 
 ASP623  PHE694  ASN695  SER759  ASP760  ASP761  ALA762  ILE779  LEU786  VAL792 
 PHE793  MET794  SER795  GLU796  ALA797  LYS798  CYS799  TRP800  GLU811  SER814 

> <Gold.Protein.RotatedAtoms>
  151.1323  135.0137  159.8587 H   0  0  0  0  0  0  0  0  0  0  0  0  # atno 6907 bound_to 6896
  152.5451  134.1596  159.8562 H   0  0  0  0  0  0  0  0  0  0  0  0  # atno 6908 bound_to 6896
  151.1663  133.4767  159.2627 H   0  0  0  0  0  0  0  0  0  0  0  0  # atno 6909 bound_to 6896
  145.6216  140.9361  143.1135 H   0  0  0  0  0  0  0  0  0  0  0  0  # atno 7974 bound_to 7965
  154.4039  140.1304  156.4456 H   0  0  0  0  0  0  0  0  0  0  0  0  # atno 8008 bound_to 7997
  155.7416  140.3489  155.5087 H   0  0  0  0  0  0  0  0  0  0  0  0  # atno 8009 bound_to 7997
  155.9033  140.1023  157.1324 H   0  0  0  0  0  0  0  0  0  0  0  0  # atno 8010 bound_to 7997
  140.6491  143.2554  151.4776 H   0  0  0  0  0  0  0  0  0  0  0  0  # atno 10167 bound_to 10162
  156.3538  130.4312  149.7682 H   0  0  0  0  0  0  0  0  0  0  0  0  # atno 10718 bound_to 10713
  153.1262  135.6730  153.9253 H   0  0  0  0  0  0  0  0  0  0  0  0  # atno 10763 bound_to 10752
  153.8754  135.3064  155.3445 H   0  0  0  0  0  0  0  0  0  0  0  0  # atno 10764 bound_to 10752
  154.7666  135.4961  153.9648 H   0  0  0  0  0  0  0  0  0  0  0  0  # atno 10765 bound_to 10752
  140.0103  134.6307  155.9791 H   0  0  0  0  0  0  0  0  0  0  0  0  # atno 11005 bound_to 11000
  144.7229  139.7971  143.7375 LP  0  0  0  0  0  0  0  0  0  0  0  0  # atno 17320 bound_to 7965
  146.1427  139.4488  143.0099 LP  0  0  0  0  0  0  0  0  0  0  0  0  # atno 17321 bound_to 7965
  139.5704  144.1942  152.1827 LP  0  0  0  0  0  0  0  0  0  0  0  0  # atno 17342 bound_to 10162
  140.1237  144.5350  150.6846 LP  0  0  0  0  0  0  0  0  0  0  0  0  # atno 17343 bound_to 10162
  156.4872  130.8068  151.3080 LP  0  0  0  0  0  0  0  0  0  0  0  0  # atno 17370 bound_to 10713
  157.7465  130.9987  150.2862 LP  0  0  0  0  0  0  0  0  0  0  0  0  # atno 17371 bound_to 10713
  141.1706  133.6537  156.4637 LP  0  0  0  0  0  0  0  0  0  0  0  0  # atno 17394 bound_to 11000
  140.4567  134.6879  157.5066 LP  0  0  0  0  0  0  0  0  0  0  0  0  # atno 17395 bound_to 11000

$$$$
