AV-unprocessed.smi:978|AV-procd|sdf|4309|dock8
  -GOLD-   22720 2213D 1   1.00000     0.00000
 Structure written by MMmdl.
 39 40  0  0  0  0  0  0  0  0  2 V2000
  151.4081  138.0225  154.5635 C   0  0  0  0  0  0  0  0  0  0  0  0
  150.4197  139.1514  154.4697 C   0  0  0  0  0  0  0  0  0  0  0  0
  150.7756  140.3546  154.8953 N   0  0  0  0  0  0  0  0  0  0  0  0
  149.6510  141.1820  154.7535 O   0  0  0  0  0  0  0  0  0  0  0  0
  148.6290  140.4503  154.2378 C   0  0  0  0  0  0  0  0  0  0  0  0
  147.3312  141.1539  154.0257 C   0  0  0  0  0  0  0  0  0  0  0  0
  149.0678  139.1782  154.0163 C   0  0  0  0  0  0  0  0  0  0  0  0
  148.2659  138.1261  153.5076 N   0  0  0  0  0  0  0  0  0  0  0  0
  146.9826  137.8766  153.8091 C   0  0  0  0  0  0  0  0  0  0  0  0
  146.3073  138.5258  154.6069 O   0  0  0  0  0  0  0  0  0  0  0  0
  146.5222  136.8064  153.1456 N   0  0  0  0  0  0  0  0  0  0  0  0
  145.1763  136.2486  153.2748 C   0  0  2  0  0  0  0  0  0  0  0  0
  145.2448  134.7667  153.6852 C   0  0  0  0  0  0  0  0  0  0  0  0
  145.7383  133.8697  152.5350 C   0  0  0  0  0  0  0  0  0  0  0  0
  144.9029  134.0474  151.3213 N   0  3  2  0  0  0  0  0  0  0  0  0
  145.2745  133.1101  150.2396 C   0  0  0  0  0  0  0  0  0  0  0  0
  144.8810  135.4584  150.8624 C   0  0  0  0  0  0  0  0  0  0  0  0
  144.3640  136.3921  151.9711 C   0  0  0  0  0  0  0  0  0  0  0  0
  150.9096  137.0799  154.7897 H   0  0  0  0  0  0  0  0  0  0  0  0
  152.1415  138.1982  155.3510 H   0  0  0  0  0  0  0  0  0  0  0  0
  151.9530  137.9001  153.6273 H   0  0  0  0  0  0  0  0  0  0  0  0
  146.5438  140.4524  153.7502 H   0  0  0  0  0  0  0  0  0  0  0  0
  147.4199  141.8917  153.2283 H   0  0  0  0  0  0  0  0  0  0  0  0
  147.0194  141.6715  154.9330 H   0  0  0  0  0  0  0  0  0  0  0  0
  148.7421  137.4433  152.9366 H   0  0  0  0  0  0  0  0  0  0  0  0
  147.1558  136.3312  152.5197 H   0  0  0  0  0  0  0  0  0  0  0  0
  144.6643  136.7949  154.0693 H   0  0  0  0  0  0  0  0  0  0  0  0
  145.8859  134.6443  154.5591 H   0  0  0  0  0  0  0  0  0  0  0  0
  144.2514  134.4357  153.9914 H   0  0  0  0  0  0  0  0  0  0  0  0
  146.7798  134.0939  152.2987 H   0  0  0  0  0  0  0  0  0  0  0  0
  145.7047  132.8261  152.8507 H   0  0  0  0  0  0  0  0  0  0  0  0
  146.2883  133.3027  149.8859 H   0  0  0  0  0  0  0  0  0  0  0  0
  144.5921  133.2075  149.3946 H   0  0  0  0  0  0  0  0  0  0  0  0
  145.2241  132.0785  150.5893 H   0  0  0  0  0  0  0  0  0  0  0  0
  145.8823  135.7592  150.5503 H   0  0  0  0  0  0  0  0  0  0  0  0
  144.2376  135.5469  149.9863 H   0  0  0  0  0  0  0  0  0  0  0  0
  143.3196  136.1531  152.1762 H   0  0  0  0  0  0  0  0  0  0  0  0
  144.3702  137.4256  151.6230 H   0  0  0  0  0  0  0  0  0  0  0  0
  143.9561  133.8162  151.5868 H   0  0  0  0  0  0  0  0  0  0  0  0
  1  2  1  0  0  0  0
  1 19  1  0  0  0  0
  1 20  1  0  0  0  0
  1 21  1  0  0  0  0
  2  7  1  0  0  0  0
  2  3  2  0  0  0  0
  3  4  1  0  0  0  0
  4  5  1  0  0  0  0
  5  6  1  0  0  0  0
  5  7  2  0  0  0  0
  6 22  1  0  0  0  0
  6 23  1  0  0  0  0
  6 24  1  0  0  0  0
  7  8  1  0  0  0  0
  8  9  1  0  0  0  0
  8 25  1  0  0  0  0
  9 10  2  0  0  0  0
  9 11  1  0  0  0  0
 11 12  1  0  0  0  0
 11 26  1  0  0  0  0
 12 18  1  0  0  0  0
 12 13  1  0  0  0  0
 12 27  1  0  0  0  0
 13 14  1  0  0  0  0
 13 28  1  0  0  0  0
 13 29  1  0  0  0  0
 14 15  1  0  0  0  0
 14 30  1  0  0  0  0
 14 31  1  0  0  0  0
 15 16  1  0  0  0  0
 15 17  1  0  0  0  0
 15 39  1  0  0  0  0
 16 32  1  0  0  0  0
 16 33  1  0  0  0  0
 16 34  1  0  0  0  0
 17 18  1  0  0  0  0
 17 35  1  0  0  0  0
 17 36  1  0  0  0  0
 18 37  1  0  0  0  0
 18 38  1  0  0  0  0
M  CHG  1  15   1
M  END
> <s_m_source_file>
AV-unprocessed.smi

> <i_m_source_file_index>
978

> <i_lp_mmshare_version>
43012

> <i_f3d_flags>
0

> <s_epik_input>
W0NIM11jMW5vYyhbQ0gzXSljMVtOSF1DKD1PKVtOSF1bQ0hdMltDSDJdW0NIMl1OKFtDSDNdKVtDSDJdW0NIMl0y

> <s_epik_cmdline>
J2VwaWtfcHl0aG9uJywgJy1waCcsICc3LjAnLCAnLXRuJywgJzgnLCAnLW1hJywgJzIwMCcsICctbWV0YWxfYmluZGluZycsICctaW1hZScsICc8aW5maWxlLm1hZT4nLCAnLW9tYWUnLCAnPG91dGZpbGUubWFlPic=

> <r_epik_Ionization_Penalty>
0.00369783

> <r_epik_Ionization_Penalty_Charging>
0.00366825

> <r_epik_Ionization_Penalty_Neutral>
2.95799e-05

> <r_epik_State_Penalty>
0.00261101

> <r_epik_Charging_Adjusted_Penalty>
0.00627926

> <i_epik_Tot_Q>
1

> <i_epik_Tot_abs_Q>
1

> <r_epik_Metal_State_Penalty>
-0

> <b_epik_Metal_Only>
0

> <s_lp_Force_Field>
OPLS_2005

> <r_lp_Energy>
17.545

> <b_lp_Chiralities_Consistent>
1

> <s_lp_Variant>
AV-unprocessed.smi:978-2

> <Gold.Version>
5.8.1

> <Gold.Id.Protein>
6NUR|6NUR_protein|mol2

> <Gold.PLP.Fitness>
36.3432

> <Gold.PLP.PLP>
-27.9861

> <Gold.PLP.part.hbond>
-4.1675

> <Gold.PLP.part.metal>
0.0000

> <Gold.PLP.part.buried>
-1.4892

> <Gold.PLP.part.nonpolar>
-21.8132

> <Gold.PLP.part.repulsive>
0.3483

> <Gold.PLP.ligand.clash>
0.0000

> <Gold.PLP.ligand.torsion>
0.3480

> <Gold.PLP.Chemscore.Hbond>
2.9280

> <Gold.PLP.Chemscore.CHOScore>
0.0000

> <Gold.PLP.Chemscore.Metal>
0.0000

> <Gold.Chemscore.Hbonds>
donor molecule, donor type, donor heavy atom, donor atom, acceptor molecule, acceptor atom, score
      L1  H     8    25       P1  7948  1.00
      L1  H    11    26       P1  7948  0.93
      P1  H  7989  7998       L1     3  0.86

> <Gold.PLP.Chemscore.Internal.Correction>
0.2691

> <Gold.Rescore>
     Score         DG    S(hbond)    S(metal)    S(lipo)     H(rot)  DE(clash)    DE(int)     intcor
     16.22     -16.69       1.94        0.00      62.22       1.00       0.00       0.47       ----

> <Gold.Chemscore.Fitness>
16.2180

> <Gold.Chemscore.DG>
-16.6891

> <Gold.Chemscore.ZeroCoef>
-5.4800

> <Gold.Chemscore.Hbond>
1.9430

> <Gold.Chemscore.Metal>
0.0000

> <Gold.Chemscore.Lipo>
62.2165

> <Gold.Chemscore.Internal_Hbond>
0.0000

> <Gold.Chemscore.DEClash>
0.0044

> <Gold.Chemscore.DEInternal>
0.4666

> <Gold.Chemscore.Rot>
1.0000

> <Gold.Chemscore.Internal.Correction>
   9.000000E+99

> <Gold.Chemscore.Hbonds>
donor molecule, donor type, donor heavy atom, donor atom, acceptor molecule, acceptor atom, score
      L1  H     8    25       P1  7948  0.99
      L1  H    11    26       P1  7948  0.91
      P1  H  7989  7998       L1     3  0.04

> <Gold.Chemscore.Hbond.Weighted>
-6.4897

> <Gold.Chemscore.Metal.Weighted>
-0.0000

> <Gold.Chemscore.Lipo.Weighted>
-7.2793

> <Gold.Chemscore.Internal_Hbond.Weighted>
0.0000

> <Gold.Chemscore.DEClash.Weighted>
0.0044

> <Gold.Chemscore.DEInternal.Weighted>
0.4666

> <Gold.Chemscore.Rot.Weighted>
2.5600

> <Gold.Chemscore.Internal.Correction.Weighted>
   9.000000E+99

> <Gold.Protein.RotatedTorsions>
[ 6907 6896 6895 6894 ] final  -18.62 input  -60.11 | X-H torsion
[ 7974 7965 7964 7962 ] final  -98.47 input  175.53 | X-H torsion
[ 8008 7997 7996 7995 ] final   41.51 input   59.86 | X-H torsion
[ 10167 10162 10161 10158 ] final  -18.55 input  -65.29 | X-H torsion
[ 10718 10713 10712 10709 ] final -168.22 input   66.30 | X-H torsion
[ 10763 10752 10751 10750 ] final  -82.01 input  -60.55 | X-H torsion
[ 11005 11000 10999 10996 ] final -105.28 input  -57.11 | X-H torsion

> <Gold.Protein.ActiveResidues>
 VAL166  LYS551  ARG553  GLY616  TRP617  ASP618  TYR619  PRO620  LYS621  CYS622 
 ASP623  PHE694  ASN695  SER759  ASP760  ASP761  ALA762  ILE779  LEU786  VAL792 
 PHE793  MET794  SER795  GLU796  ALA797  LYS798  CYS799  TRP800  GLU811  SER814 

> <Gold.Protein.RotatedAtoms>
  151.2754  135.0697  159.9149 H   0  0  0  0  0  0  0  0  0  0  0  0  # atno 6907 bound_to 6896
  152.5343  134.0087  159.7938 H   0  0  0  0  0  0  0  0  0  0  0  0  # atno 6908 bound_to 6896
  151.0332  133.5721  159.2689 H   0  0  0  0  0  0  0  0  0  0  0  0  # atno 6909 bound_to 6896
  145.3201  140.9420  143.2720 H   0  0  0  0  0  0  0  0  0  0  0  0  # atno 7974 bound_to 7965
  155.2709  140.3366  155.4265 H   0  0  0  0  0  0  0  0  0  0  0  0  # atno 8008 bound_to 7997
  156.2133  140.1779  156.7687 H   0  0  0  0  0  0  0  0  0  0  0  0  # atno 8009 bound_to 7997
  154.5717  140.0669  156.8959 H   0  0  0  0  0  0  0  0  0  0  0  0  # atno 8010 bound_to 7997
  140.7260  143.4905  150.9998 H   0  0  0  0  0  0  0  0  0  0  0  0  # atno 10167 bound_to 10162
  156.6937  130.9169  151.3072 H   0  0  0  0  0  0  0  0  0  0  0  0  # atno 10718 bound_to 10713
  154.5705  135.5606  153.7091 H   0  0  0  0  0  0  0  0  0  0  0  0  # atno 10763 bound_to 10752
  153.0047  135.6296  154.2121 H   0  0  0  0  0  0  0  0  0  0  0  0  # atno 10764 bound_to 10752
  154.2060  135.2876  155.2954 H   0  0  0  0  0  0  0  0  0  0  0  0  # atno 10765 bound_to 10752
  141.1061  133.8794  157.1715 H   0  0  0  0  0  0  0  0  0  0  0  0  # atno 11005 bound_to 11000
  144.8946  139.4729  143.6662 LP  0  0  0  0  0  0  0  0  0  0  0  0  # atno 17320 bound_to 7965
  146.3085  139.7664  142.9038 LP  0  0  0  0  0  0  0  0  0  0  0  0  # atno 17321 bound_to 7965
  139.8609  143.7315  152.3173 LP  0  0  0  0  0  0  0  0  0  0  0  0  # atno 17342 bound_to 10162
  139.7530  144.7528  151.0477 LP  0  0  0  0  0  0  0  0  0  0  0  0  # atno 17343 bound_to 10162
  157.6999  130.9322  150.0754 LP  0  0  0  0  0  0  0  0  0  0  0  0  # atno 17370 bound_to 10713
  156.1779  130.3649  149.9076 LP  0  0  0  0  0  0  0  0  0  0  0  0  # atno 17371 bound_to 10713
  139.9932  135.0057  157.0022 LP  0  0  0  0  0  0  0  0  0  0  0  0  # atno 17394 bound_to 11000
  140.4899  134.1204  155.7231 LP  0  0  0  0  0  0  0  0  0  0  0  0  # atno 17395 bound_to 11000

$$$$
