AV-unprocessed.smi:3306|AV-procd|sdf|12701|dock2
  -GOLD-   2272019 33D 1   1.00000     0.00000
 Structure written by MMmdl.
 45 46  0  0  0  0  0  0  0  0  3 V2000
  147.7898  132.9551  152.7653 C   0  0  0  0  0  0  0  0  0  0  0  0
  146.5594  133.6327  152.1395 C   0  0  0  0  0  0  0  0  0  0  0  0
  146.4242  133.2957  150.6418 C   0  0  0  0  0  0  0  0  0  0  0  0
  146.5452  135.0977  152.4254 N   0  3  2  0  0  0  0  0  0  0  0  0
  146.5373  135.4162  153.8777 C   0  0  0  0  0  0  0  0  0  0  0  0
  146.7685  136.9192  154.1118 C   0  0  0  0  0  0  0  0  0  0  0  0
  145.7187  137.7684  153.3759 C   0  0  1  0  0  0  0  0  0  0  0  0
  145.9883  139.2089  153.5895 N   0  3  0  0  0  0  0  0  0  0  0  0
  147.2589  139.7031  153.0191 C   0  0  0  0  0  0  0  0  0  0  0  0
  147.8259  140.8576  153.8566 C   0  0  0  0  0  0  0  0  0  0  0  0
  149.1342  140.4880  154.5293 C   0  0  0  0  0  0  0  0  0  0  0  0
  149.7657  141.3809  155.4208 C   0  0  0  0  0  0  0  0  0  0  0  0
  150.9791  140.9860  156.0178 C   0  0  0  0  0  0  0  0  0  0  0  0
  151.5086  139.7194  155.7040 C   0  0  0  0  0  0  0  0  0  0  0  0
  150.7990  138.9001  154.8035 C   0  0  0  0  0  0  0  0  0  0  0  0
  149.6355  139.2698  154.2248 N   0  0  0  0  0  0  0  0  0  0  0  0
  145.7280  137.3925  151.8808 C   0  0  0  0  0  0  0  0  0  0  0  0
  145.5164  135.8803  151.6867 C   0  0  0  0  0  0  0  0  0  0  0  0
  147.7215  131.8704  152.6760 H   0  0  0  0  0  0  0  0  0  0  0  0
  147.8724  133.1898  153.8271 H   0  0  0  0  0  0  0  0  0  0  0  0
  148.7173  133.2599  152.2810 H   0  0  0  0  0  0  0  0  0  0  0  0
  145.6948  133.2021  152.6469 H   0  0  0  0  0  0  0  0  0  0  0  0
  146.3277  132.2190  150.4984 H   0  0  0  0  0  0  0  0  0  0  0  0
  147.2961  133.6168  150.0714 H   0  0  0  0  0  0  0  0  0  0  0  0
  145.5426  133.7586  150.1991 H   0  0  0  0  0  0  0  0  0  0  0  0
  145.5879  135.1126  154.3206 H   0  0  0  0  0  0  0  0  0  0  0  0
  147.3195  134.8525  154.3874 H   0  0  0  0  0  0  0  0  0  0  0  0
  146.7379  137.1314  155.1813 H   0  0  0  0  0  0  0  0  0  0  0  0
  147.7702  137.1882  153.7723 H   0  0  0  0  0  0  0  0  0  0  0  0
  144.7392  137.5380  153.7987 H   0  0  0  0  0  0  0  0  0  0  0  0
  145.2436  139.7276  153.1456 H   0  0  0  0  0  0  0  0  0  0  0  0
  147.9855  138.8918  152.9749 H   0  0  0  0  0  0  0  0  0  0  0  0
  147.0857  140.0395  151.9959 H   0  0  0  0  0  0  0  0  0  0  0  0
  147.9905  141.7331  153.2268 H   0  0  0  0  0  0  0  0  0  0  0  0
  147.1034  141.1575  154.6171 H   0  0  0  0  0  0  0  0  0  0  0  0
  149.3357  142.3466  155.6433 H   0  0  0  0  0  0  0  0  0  0  0  0
  151.4942  141.6426  156.7032 H   0  0  0  0  0  0  0  0  0  0  0  0
  152.4368  139.3839  156.1426 H   0  0  0  0  0  0  0  0  0  0  0  0
  151.1749  137.9220  154.5419 H   0  0  0  0  0  0  0  0  0  0  0  0
  144.9465  137.9302  151.3439 H   0  0  0  0  0  0  0  0  0  0  0  0
  146.6749  137.6894  151.4273 H   0  0  0  0  0  0  0  0  0  0  0  0
  145.5561  135.6506  150.6225 H   0  0  0  0  0  0  0  0  0  0  0  0
  144.5188  135.6077  152.0338 H   0  0  0  0  0  0  0  0  0  0  0  0
  147.4378  135.4305  152.0895 H   0  0  0  0  0  0  0  0  0  0  0  0
  145.9682  139.4083  154.5796 H   0  0  0  0  0  0  0  0  0  0  0  0
  1  2  1  0  0  0  0
  1 19  1  0  0  0  0
  1 20  1  0  0  0  0
  1 21  1  0  0  0  0
  2  3  1  0  0  0  0
  2  4  1  0  0  0  0
  2 22  1  0  0  0  0
  3 23  1  0  0  0  0
  3 24  1  0  0  0  0
  3 25  1  0  0  0  0
  4 18  1  0  0  0  0
  4  5  1  0  0  0  0
  4 44  1  0  0  0  0
  5  6  1  0  0  0  0
  5 26  1  0  0  0  0
  5 27  1  0  0  0  0
  6  7  1  0  0  0  0
  6 28  1  0  0  0  0
  6 29  1  0  0  0  0
  7  8  1  0  0  0  0
  7 17  1  0  0  0  0
  7 30  1  0  0  0  0
  8  9  1  0  0  0  0
  8 31  1  0  0  0  0
  8 45  1  0  0  0  0
  9 10  1  0  0  0  0
  9 32  1  0  0  0  0
  9 33  1  0  0  0  0
 10 11  1  0  0  0  0
 10 34  1  0  0  0  0
 10 35  1  0  0  0  0
 11 16  1  0  0  0  0
 11 12  2  0  0  0  0
 12 13  1  0  0  0  0
 12 36  1  0  0  0  0
 13 14  2  0  0  0  0
 13 37  1  0  0  0  0
 14 15  1  0  0  0  0
 14 38  1  0  0  0  0
 15 16  2  0  0  0  0
 15 39  1  0  0  0  0
 17 18  1  0  0  0  0
 17 40  1  0  0  0  0
 17 41  1  0  0  0  0
 18 42  1  0  0  0  0
 18 43  1  0  0  0  0
M  CHG  1   4   1
M  CHG  1   8   1
M  END
> <s_m_source_file>
AV-unprocessed.smi

> <i_m_source_file_index>
3306

> <i_lp_mmshare_version>
43012

> <i_f3d_flags>
0

> <s_epik_input>
W0NIM11bQ0hdKFtDSDNdKU4xW0NIMl1bQ0gyXVtDSF0oW0NIMl1bQ0gyXTEpW05IXVtDSDJdW0NIMl1jMltjSF1bY0hdW2NIXVtjSF1uMg==

> <s_epik_cmdline>
J2VwaWtfcHl0aG9uJywgJy1waCcsICc3LjAnLCAnLXRuJywgJzgnLCAnLW1hJywgJzIwMCcsICctbWV0YWxfYmluZGluZycsICctaW1hZScsICc8aW5maWxlLm1hZT4nLCAnLW9tYWUnLCAnPG91dGZpbGUubWFlPic=

> <r_epik_Ionization_Penalty>
0.0800465

> <r_epik_Ionization_Penalty_Charging>
0.0790817

> <r_epik_Ionization_Penalty_Neutral>
0.000964829

> <r_epik_State_Penalty>
0.0665964

> <r_epik_Charging_Adjusted_Penalty>
0.145678

> <i_epik_Tot_Q>
2

> <i_epik_Tot_abs_Q>
2

> <r_epik_Metal_State_Penalty>
0.0683331

> <b_epik_Metal_Only>
0

> <s_lp_Force_Field>
OPLS_2005

> <r_lp_Energy>
27.4923

> <b_lp_Chiralities_Consistent>
1

> <s_lp_Variant>
AV-unprocessed.smi:3306-1

> <Gold.Version>
5.8.1

> <Gold.Id.Protein>
6NUR|6NUR_protein|mol2

> <Gold.PLP.Fitness>
45.7403

> <Gold.PLP.PLP>
-34.9195

> <Gold.PLP.part.hbond>
-2.0000

> <Gold.PLP.part.metal>
0.0000

> <Gold.PLP.part.buried>
0.4324

> <Gold.PLP.part.nonpolar>
-33.0249

> <Gold.PLP.part.repulsive>
0.6505

> <Gold.PLP.ligand.clash>
0.0000

> <Gold.PLP.ligand.torsion>
0.6826

> <Gold.PLP.Chemscore.Hbond>
4.0000

> <Gold.PLP.Chemscore.CHOScore>
0.0000

> <Gold.PLP.Chemscore.Metal>
0.0000

> <Gold.Chemscore.Hbonds>
donor molecule, donor type, donor heavy atom, donor atom, acceptor molecule, acceptor atom, score
      L1  H     4    44       P1  7948  2.00
      L1  H     8    31       P1 10175  2.00

> <Gold.PLP.Chemscore.Internal.Correction>
0.1861

> <Gold.Rescore>
     Score         DG    S(hbond)    S(metal)    S(lipo)     H(rot)  DE(clash)    DE(int)     intcor
     17.40     -18.35       1.99        0.00      85.27       1.47       0.04       0.90       ----

> <Gold.Chemscore.Fitness>
17.4005

> <Gold.Chemscore.DG>
-18.3456

> <Gold.Chemscore.ZeroCoef>
-5.4800

> <Gold.Chemscore.Hbond>
1.9900

> <Gold.Chemscore.Metal>
0.0000

> <Gold.Chemscore.Lipo>
85.2713

> <Gold.Chemscore.Internal_Hbond>
0.0000

> <Gold.Chemscore.DEClash>
0.0402

> <Gold.Chemscore.DEInternal>
0.9049

> <Gold.Chemscore.Rot>
1.4679

> <Gold.Chemscore.Internal.Correction>
   9.000000E+99

> <Gold.Chemscore.Hbonds>
donor molecule, donor type, donor heavy atom, donor atom, acceptor molecule, acceptor atom, score
      L1  H     4    44       P1  7948  1.00
      L1  H     8    31       P1 10175  1.00

> <Gold.Chemscore.Hbond.Weighted>
-6.6468

> <Gold.Chemscore.Metal.Weighted>
-0.0000

> <Gold.Chemscore.Lipo.Weighted>
-9.9767

> <Gold.Chemscore.Internal_Hbond.Weighted>
0.0000

> <Gold.Chemscore.DEClash.Weighted>
0.0402

> <Gold.Chemscore.DEInternal.Weighted>
0.9049

> <Gold.Chemscore.Rot.Weighted>
3.7579

> <Gold.Chemscore.Internal.Correction.Weighted>
   9.000000E+99

> <Gold.Protein.RotatedTorsions>
[ 6907 6896 6895 6894 ] final  -33.24 input  -60.11 | X-H torsion
[ 7974 7965 7964 7962 ] final   36.91 input  175.53 | X-H torsion
[ 8008 7997 7996 7995 ] final   66.83 input   59.86 | X-H torsion
[ 10167 10162 10161 10158 ] final   83.19 input  -65.29 | X-H torsion
[ 10718 10713 10712 10709 ] final   59.32 input   66.30 | X-H torsion
[ 10763 10752 10751 10750 ] final  132.44 input  -60.55 | X-H torsion
[ 11005 11000 10999 10996 ] final -153.21 input  -57.11 | X-H torsion

> <Gold.Protein.ActiveResidues>
 VAL166  LYS551  ARG553  GLY616  TRP617  ASP618  TYR619  PRO620  LYS621  CYS622 
 ASP623  PHE694  ASN695  SER759  ASP760  ASP761  ALA762  ILE779  LEU786  VAL792 
 PHE793  MET794  SER795  GLU796  ALA797  LYS798  CYS799  TRP800  GLU811  SER814 

> <Gold.Protein.RotatedAtoms>
  151.0682  134.9781  159.8294 H   0  0  0  0  0  0  0  0  0  0  0  0  # atno 6907 bound_to 6896
  152.5405  134.2333  159.8843 H   0  0  0  0  0  0  0  0  0  0  0  0  # atno 6908 bound_to 6896
  151.2356  133.4383  159.2639 H   0  0  0  0  0  0  0  0  0  0  0  0  # atno 6909 bound_to 6896
  146.1176  139.5959  142.9311 H   0  0  0  0  0  0  0  0  0  0  0  0  # atno 7974 bound_to 7965
  155.6834  140.3496  155.4864 H   0  0  0  0  0  0  0  0  0  0  0  0  # atno 8008 bound_to 7997
  155.9587  140.1133  157.0937 H   0  0  0  0  0  0  0  0  0  0  0  0  # atno 8009 bound_to 7997
  154.4138  140.1180  156.5135 H   0  0  0  0  0  0  0  0  0  0  0  0  # atno 8010 bound_to 7997
  139.9210  144.6213  150.8440 H   0  0  0  0  0  0  0  0  0  0  0  0  # atno 10167 bound_to 10162
  157.5666  130.8876  149.9198 H   0  0  0  0  0  0  0  0  0  0  0  0  # atno 10718 bound_to 10713
  153.7907  135.3155  155.3378 H   0  0  0  0  0  0  0  0  0  0  0  0  # atno 10763 bound_to 10752
  154.8127  135.4657  154.0562 H   0  0  0  0  0  0  0  0  0  0  0  0  # atno 10764 bound_to 10752
  153.1879  135.6904  153.8478 H   0  0  0  0  0  0  0  0  0  0  0  0  # atno 10765 bound_to 10752
  140.7105  134.3837  157.5198 H   0  0  0  0  0  0  0  0  0  0  0  0  # atno 11005 bound_to 11000
  145.5533  141.0411  143.2266 LP  0  0  0  0  0  0  0  0  0  0  0  0  # atno 17320 bound_to 7965
  144.7568  139.7056  143.7251 LP  0  0  0  0  0  0  0  0  0  0  0  0  # atno 17321 bound_to 7965
  140.7662  143.3297  151.2437 LP  0  0  0  0  0  0  0  0  0  0  0  0  # atno 17342 bound_to 10162
  139.6862  143.9770  152.2835 LP  0  0  0  0  0  0  0  0  0  0  0  0  # atno 17343 bound_to 10162
  156.0714  130.3684  150.0768 LP  0  0  0  0  0  0  0  0  0  0  0  0  # atno 17370 bound_to 10713
  156.8926  130.9593  151.3586 LP  0  0  0  0  0  0  0  0  0  0  0  0  # atno 17371 bound_to 10713
  139.8873  134.8887  156.2537 LP  0  0  0  0  0  0  0  0  0  0  0  0  # atno 17394 bound_to 11000
  141.0088  133.7108  156.1078 LP  0  0  0  0  0  0  0  0  0  0  0  0  # atno 17395 bound_to 11000

$$$$
