AV-unprocessed.smi:1247|AV-procd|sdf|5248|dock7
  -GOLD-   22720 4363D 1   1.00000     0.00000
 Structure written by MMmdl.
 47 48  0  0  0  0  0  0  0  0  2 V2000
  150.6694  142.0183  156.4244 C   0  0  0  0  0  0  0  0  0  0  0  0
  150.3898  140.8290  155.5535 C   0  0  0  0  0  0  0  0  0  0  0  0
  149.1937  140.5259  154.8405 C   0  0  0  0  0  0  0  0  0  0  0  0
  149.4998  139.3415  154.2278 C   0  0  0  0  0  0  0  0  0  0  0  0
  148.7266  138.5765  153.4116 N   0  0  0  0  0  0  0  0  0  0  0  0
  147.4148  138.6986  153.1423 C   0  0  0  0  0  0  0  0  0  0  0  0
  146.6649  139.5553  153.6109 O   0  0  0  0  0  0  0  0  0  0  0  0
  147.0031  137.7554  152.2825 N   0  0  0  0  0  0  0  0  0  0  0  0
  145.6398  137.6327  151.7792 C   0  0  0  0  0  0  0  0  0  0  0  0
  145.6045  136.9591  150.3938 C   0  0  0  0  0  0  0  0  0  0  0  0
  145.4958  135.4822  150.4908 N   0  3  1  0  0  0  0  0  0  0  0  0
  146.4477  134.9049  151.4677 C   0  0  0  0  0  0  0  0  0  0  0  0
  146.3666  133.3678  151.4537 C   0  0  1  0  0  0  0  0  0  0  0  0
  147.2757  132.7341  152.5124 C   0  0  0  0  0  0  0  0  0  0  0  0
  145.0281  132.9614  151.7260 O   0  0  0  0  0  0  0  0  0  0  0  0
  144.0496  133.4736  150.8217 C   0  0  2  0  0  0  0  0  0  0  0  0
  144.1363  132.8155  149.4331 C   0  0  0  0  0  0  0  0  0  0  0  0
  144.1176  135.0129  150.7785 C   0  0  0  0  0  0  0  0  0  0  0  0
  150.7883  138.9874  154.5630 N   0  0  0  0  0  0  0  0  0  0  0  0
  151.5591  137.8247  154.1671 C   0  0  0  0  0  0  0  0  0  0  0  0
  151.3335  139.9093  155.3859 N   0  0  0  0  0  0  0  0  0  0  0  0
  149.8151  142.6950  156.4529 H   0  0  0  0  0  0  0  0  0  0  0  0
  151.5264  142.5824  156.0559 H   0  0  0  0  0  0  0  0  0  0  0  0
  150.8846  141.7131  157.4485 H   0  0  0  0  0  0  0  0  0  0  0  0
  148.2783  141.0967  154.8003 H   0  0  0  0  0  0  0  0  0  0  0  0
  149.2093  137.8204  152.9486 H   0  0  0  0  0  0  0  0  0  0  0  0
  147.6800  137.0872  151.9433 H   0  0  0  0  0  0  0  0  0  0  0  0
  145.0395  137.0855  152.5066 H   0  0  0  0  0  0  0  0  0  0  0  0
  145.2107  138.6330  151.7155 H   0  0  0  0  0  0  0  0  0  0  0  0
  144.7418  137.3493  149.8517 H   0  0  0  0  0  0  0  0  0  0  0  0
  146.4827  137.2223  149.8021 H   0  0  0  0  0  0  0  0  0  0  0  0
  147.4636  135.2175  151.2224 H   0  0  0  0  0  0  0  0  0  0  0  0
  146.2257  135.2897  152.4647 H   0  0  0  0  0  0  0  0  0  0  0  0
  146.6741  132.9930  150.4771 H   0  0  0  0  0  0  0  0  0  0  0  0
  148.3191  133.0031  152.3465 H   0  0  0  0  0  0  0  0  0  0  0  0
  147.2057  131.6465  152.4854 H   0  0  0  0  0  0  0  0  0  0  0  0
  147.0008  133.0600  153.5161 H   0  0  0  0  0  0  0  0  0  0  0  0
  143.0811  133.1968  151.2394 H   0  0  0  0  0  0  0  0  0  0  0  0
  143.2933  133.1159  148.8103 H   0  0  0  0  0  0  0  0  0  0  0  0
  144.1115  131.7287  149.5168 H   0  0  0  0  0  0  0  0  0  0  0  0
  145.0458  133.0899  148.8996 H   0  0  0  0  0  0  0  0  0  0  0  0
  143.7992  135.4168  151.7410 H   0  0  0  0  0  0  0  0  0  0  0  0
  143.4150  135.3890  150.0356 H   0  0  0  0  0  0  0  0  0  0  0  0
  151.4538  137.6591  153.0946 H   0  0  0  0  0  0  0  0  0  0  0  0
  151.1957  136.9469  154.7022 H   0  0  0  0  0  0  0  0  0  0  0  0
  152.6156  137.9694  154.3970 H   0  0  0  0  0  0  0  0  0  0  0  0
  145.7565  135.1118  149.5880 H   0  0  0  0  0  0  0  0  0  0  0  0
  1  2  1  0  0  0  0
  1 22  1  0  0  0  0
  1 23  1  0  0  0  0
  1 24  1  0  0  0  0
  2 21  2  0  0  0  0
  2  3  1  0  0  0  0
  3  4  2  0  0  0  0
  3 25  1  0  0  0  0
  4  5  1  0  0  0  0
  4 19  1  0  0  0  0
  5  6  1  0  0  0  0
  5 26  1  0  0  0  0
  6  7  2  0  0  0  0
  6  8  1  0  0  0  0
  8  9  1  0  0  0  0
  8 27  1  0  0  0  0
  9 10  1  0  0  0  0
  9 28  1  0  0  0  0
  9 29  1  0  0  0  0
 10 11  1  0  0  0  0
 10 30  1  0  0  0  0
 10 31  1  0  0  0  0
 11 18  1  0  0  0  0
 11 12  1  0  0  0  0
 11 47  1  0  0  0  0
 12 13  1  0  0  0  0
 12 32  1  0  0  0  0
 12 33  1  0  0  0  0
 13 14  1  0  0  0  0
 13 15  1  0  0  0  0
 13 34  1  0  0  0  0
 14 35  1  0  0  0  0
 14 36  1  0  0  0  0
 14 37  1  0  0  0  0
 15 16  1  0  0  0  0
 16 17  1  0  0  0  0
 16 18  1  0  0  0  0
 16 38  1  0  0  0  0
 17 39  1  0  0  0  0
 17 40  1  0  0  0  0
 17 41  1  0  0  0  0
 18 42  1  0  0  0  0
 18 43  1  0  0  0  0
 19 20  1  0  0  0  0
 19 21  1  0  0  0  0
 20 44  1  0  0  0  0
 20 45  1  0  0  0  0
 20 46  1  0  0  0  0
M  CHG  1  11   1
M  END
> <s_m_source_file>
AV-unprocessed.smi

> <i_m_source_file_index>
1247

> <i_lp_mmshare_version>
43012

> <i_f3d_flags>
0

> <s_epik_input>
W0NIM11jMVtjSF1jKG4objEpW0NIM10pW05IXUMoPU8pW05IXVtDSDJdW0NIMl1OMltDSDJdW0NAQEhdKFtDSDNdKU9bQ0BASF0oW0NIM10pW0NIMl0y

> <s_epik_cmdline>
J2VwaWtfcHl0aG9uJywgJy1waCcsICc3LjAnLCAnLXRuJywgJzgnLCAnLW1hJywgJzIwMCcsICctbWV0YWxfYmluZGluZycsICctaW1hZScsICc8aW5maWxlLm1hZT4nLCAnLW9tYWUnLCAnPG91dGZpbGUubWFlPic=

> <r_lp_tautomer_probability>
1

> <r_epik_Ionization_Penalty>
0.663902

> <r_epik_Ionization_Penalty_Charging>
0.663826

> <r_epik_Ionization_Penalty_Neutral>
7.65444e-05

> <r_epik_State_Penalty>
0.683414

> <r_epik_Charging_Adjusted_Penalty>
1.34724

> <i_epik_Tot_Q>
1

> <i_epik_Tot_abs_Q>
1

> <r_epik_Metal_State_Penalty>
0.683419

> <b_epik_Metal_Only>
0

> <s_lp_Force_Field>
OPLS_2005

> <r_lp_Energy>
18.4757

> <b_lp_Chiralities_Consistent>
1

> <s_lp_Variant>
AV-unprocessed.smi:1247-6

> <Gold.Version>
5.8.1

> <Gold.Id.Protein>
6NUR|6NUR_protein|mol2

> <Gold.PLP.Fitness>
44.9144

> <Gold.PLP.PLP>
-37.2216

> <Gold.PLP.part.hbond>
-4.7997

> <Gold.PLP.part.metal>
0.0000

> <Gold.PLP.part.buried>
5.6173

> <Gold.PLP.part.nonpolar>
-39.3753

> <Gold.PLP.part.repulsive>
0.5207

> <Gold.PLP.ligand.clash>
0.0000

> <Gold.PLP.ligand.torsion>
0.5099

> <Gold.PLP.Chemscore.Hbond>
2.8951

> <Gold.PLP.Chemscore.CHOScore>
0.0000

> <Gold.PLP.Chemscore.Metal>
0.0000

> <Gold.Chemscore.Hbonds>
donor molecule, donor type, donor heavy atom, donor atom, acceptor molecule, acceptor atom, score
      L1  H     5    26       P1  7948  0.90
      L1  H     8    27       P1  7948  0.96
      L1  H    11    47       P1  7921  1.00

> <Gold.PLP.Chemscore.Internal.Correction>
0.0273

> <Gold.Rescore>
     Score         DG    S(hbond)    S(metal)    S(lipo)     H(rot)  DE(clash)    DE(int)     intcor
     15.97     -21.87       2.89        0.00      90.85       1.52       3.42       2.48       ----

> <Gold.Chemscore.Fitness>
15.9659

> <Gold.Chemscore.DG>
-21.8707

> <Gold.Chemscore.ZeroCoef>
-5.4800

> <Gold.Chemscore.Hbond>
2.8914

> <Gold.Chemscore.Metal>
0.0000

> <Gold.Chemscore.Lipo>
90.8546

> <Gold.Chemscore.Internal_Hbond>
0.0000

> <Gold.Chemscore.DEClash>
3.4236

> <Gold.Chemscore.DEInternal>
2.4813

> <Gold.Chemscore.Rot>
1.5221

> <Gold.Chemscore.Internal.Correction>
   9.000000E+99

> <Gold.Chemscore.Hbonds>
donor molecule, donor type, donor heavy atom, donor atom, acceptor molecule, acceptor atom, score
      L1  H     5    26       P1  7948  0.86
      L1  H     8    27       P1  7948  0.91
      L1  H    11    47       P1  7921  0.93

> <Gold.Chemscore.Hbond.Weighted>
-9.6574

> <Gold.Chemscore.Metal.Weighted>
-0.0000

> <Gold.Chemscore.Lipo.Weighted>
-10.6300

> <Gold.Chemscore.Internal_Hbond.Weighted>
0.0000

> <Gold.Chemscore.DEClash.Weighted>
3.4236

> <Gold.Chemscore.DEInternal.Weighted>
2.4813

> <Gold.Chemscore.Rot.Weighted>
3.8967

> <Gold.Chemscore.Internal.Correction.Weighted>
   9.000000E+99

> <Gold.Protein.RotatedTorsions>
[ 6907 6896 6895 6894 ] final   56.83 input  -60.11 | X-H torsion
[ 7974 7965 7964 7962 ] final  -81.43 input  175.53 | X-H torsion
[ 8008 7997 7996 7995 ] final  -69.16 input   59.86 | X-H torsion
[ 10167 10162 10161 10158 ] final  106.37 input  -65.29 | X-H torsion
[ 10718 10713 10712 10709 ] final  170.99 input   66.30 | X-H torsion
[ 10763 10752 10751 10750 ] final  114.69 input  -60.55 | X-H torsion
[ 11005 11000 10999 10996 ] final -167.58 input  -57.11 | X-H torsion

> <Gold.Protein.ActiveResidues>
 VAL166  LYS551  ARG553  GLY616  TRP617  ASP618  TYR619  PRO620  LYS621  CYS622 
 ASP623  PHE694  ASN695  SER759  ASP760  ASP761  ALA762  ILE779  LEU786  VAL792 
 PHE793  MET794  SER795  GLU796  ALA797  LYS798  CYS799  TRP800  GLU811  SER814 

> <Gold.Protein.RotatedAtoms>
  152.3674  134.6784  160.0187 H   0  0  0  0  0  0  0  0  0  0  0  0  # atno 6907 bound_to 6896
  151.7088  133.3306  159.3293 H   0  0  0  0  0  0  0  0  0  0  0  0  # atno 6908 bound_to 6896
  150.7648  134.6485  159.6320 H   0  0  0  0  0  0  0  0  0  0  0  0  # atno 6909 bound_to 6896
  145.5468  140.9502  143.1521 H   0  0  0  0  0  0  0  0  0  0  0  0  # atno 7974 bound_to 7965
  154.4919  140.0859  156.7612 H   0  0  0  0  0  0  0  0  0  0  0  0  # atno 8008 bound_to 7997
  155.4211  140.3445  155.4253 H   0  0  0  0  0  0  0  0  0  0  0  0  # atno 8009 bound_to 7997
  156.1341  140.1510  156.9009 H   0  0  0  0  0  0  0  0  0  0  0  0  # atno 8010 bound_to 7997
  139.7015  144.7093  151.1178 H   0  0  0  0  0  0  0  0  0  0  0  0  # atno 10167 bound_to 10162
  157.0000  131.0173  151.2833 H   0  0  0  0  0  0  0  0  0  0  0  0  # atno 10718 bound_to 10713
  153.5110  135.3618  155.2586 H   0  0  0  0  0  0  0  0  0  0  0  0  # atno 10763 bound_to 10752
  154.8742  135.4022  154.3369 H   0  0  0  0  0  0  0  0  0  0  0  0  # atno 10764 bound_to 10752
  153.4022  135.7075  153.6484 H   0  0  0  0  0  0  0  0  0  0  0  0  # atno 10765 bound_to 10752
  140.5516  134.5422  157.5123 H   0  0  0  0  0  0  0  0  0  0  0  0  # atno 11005 bound_to 11000
  144.7549  139.7099  143.7258 LP  0  0  0  0  0  0  0  0  0  0  0  0  # atno 17320 bound_to 7965
  146.1944  139.5202  142.9784 LP  0  0  0  0  0  0  0  0  0  0  0  0  # atno 17321 bound_to 7965
  140.7710  143.5418  150.9304 LP  0  0  0  0  0  0  0  0  0  0  0  0  # atno 17342 bound_to 10162
  139.9099  143.6732  152.3117 LP  0  0  0  0  0  0  0  0  0  0  0  0  # atno 17343 bound_to 10162
  157.5397  130.8112  149.8014 LP  0  0  0  0  0  0  0  0  0  0  0  0  # atno 17370 bound_to 10713
  156.0174  130.3808  150.2066 LP  0  0  0  0  0  0  0  0  0  0  0  0  # atno 17371 bound_to 10713
  139.9452  134.7715  156.0579 LP  0  0  0  0  0  0  0  0  0  0  0  0  # atno 17394 bound_to 11000
  141.1168  133.6625  156.3114 LP  0  0  0  0  0  0  0  0  0  0  0  0  # atno 17395 bound_to 11000

$$$$
