AV-unprocessed.smi:557|AV-procd|sdf|2916|dock4
  -GOLD-   2262023403D 1   1.00000     0.00000
 Structure written by MMmdl.
 47 49  0  0  0  0  0  0  0  0  2 V2000
  153.6103  138.4720  154.4318 C   0  0  0  0  0  0  0  0  0  0  0  0
  152.2542  138.8451  154.7723 N   0  0  0  0  0  0  0  0  0  0  0  0
  151.1161  138.0686  154.7419 C   0  0  0  0  0  0  0  0  0  0  0  0
  150.0735  138.8534  155.1480 C   0  0  0  0  0  0  0  0  0  0  0  0
  148.6235  138.4868  155.2951 C   0  0  0  0  0  0  0  0  0  0  0  0
  147.7901  139.0089  154.1176 C   0  0  0  0  0  0  0  0  0  0  0  0
  147.3373  137.9032  153.2781 N   0  0  0  0  0  0  0  0  0  0  0  0
  146.0687  137.5228  153.0511 C   0  0  0  0  0  0  0  0  0  0  0  0
  145.1118  138.1063  153.5566 O   0  0  0  0  0  0  0  0  0  0  0  0
  145.9396  136.4658  152.2318 N   0  0  0  0  0  0  0  0  0  0  0  0
  144.6664  135.8714  151.8360 C   0  0  2  0  0  0  0  0  0  0  0  0
  143.8942  135.2643  152.9998 C   0  0  0  0  0  0  0  0  0  0  0  0
  142.8994  134.3303  152.3027 C   0  0  0  0  0  0  0  0  0  0  0  0
  143.5122  133.9365  151.0096 N   0  3  2  0  0  0  0  0  0  0  0  0
  143.6178  132.4656  150.8133 C   0  0  0  0  0  0  0  0  0  0  0  0
  144.6028  132.1304  149.6837 C   0  0  0  0  0  0  0  0  0  0  0  0
  146.0252  132.6222  150.0125 C   0  0  0  0  0  0  0  0  0  0  0  0
  146.0275  133.7918  151.0157 C   0  0  0  0  0  0  0  0  0  0  0  0
  144.7831  134.6980  150.8445 C   0  0  2  0  0  0  0  0  0  0  0  0
  150.6878  140.1125  155.4037 C   0  0  0  0  0  0  0  0  0  0  0  0
  151.9914  140.1045  155.1781 N   0  0  0  0  0  0  0  0  0  0  0  0
  153.6947  137.3866  154.3725 H   0  0  0  0  0  0  0  0  0  0  0  0
  154.3003  138.8384  155.1926 H   0  0  0  0  0  0  0  0  0  0  0  0
  153.8779  138.9031  153.4668 H   0  0  0  0  0  0  0  0  0  0  0  0
  151.1409  137.0322  154.4387 H   0  0  0  0  0  0  0  0  0  0  0  0
  148.5100  137.4042  155.3647 H   0  0  0  0  0  0  0  0  0  0  0  0
  148.2229  138.8874  156.2272 H   0  0  0  0  0  0  0  0  0  0  0  0
  146.9248  139.5601  154.4900 H   0  0  0  0  0  0  0  0  0  0  0  0
  148.3860  139.7003  153.5193 H   0  0  0  0  0  0  0  0  0  0  0  0
  148.0624  137.3613  152.8301 H   0  0  0  0  0  0  0  0  0  0  0  0
  146.7798  136.0445  151.8627 H   0  0  0  0  0  0  0  0  0  0  0  0
  144.0385  136.6461  151.3902 H   0  0  0  0  0  0  0  0  0  0  0  0
  144.5629  134.6832  153.6369 H   0  0  0  0  0  0  0  0  0  0  0  0
  143.4036  136.0135  153.6222 H   0  0  0  0  0  0  0  0  0  0  0  0
  142.6403  133.4789  152.9337 H   0  0  0  0  0  0  0  0  0  0  0  0
  141.9743  134.8650  152.0850 H   0  0  0  0  0  0  0  0  0  0  0  0
  143.9544  131.9859  151.7339 H   0  0  0  0  0  0  0  0  0  0  0  0
  142.6280  132.0652  150.5925 H   0  0  0  0  0  0  0  0  0  0  0  0
  144.6151  131.0570  149.4915 H   0  0  0  0  0  0  0  0  0  0  0  0
  144.2575  132.6007  148.7619 H   0  0  0  0  0  0  0  0  0  0  0  0
  146.6189  131.8042  150.4219 H   0  0  0  0  0  0  0  0  0  0  0  0
  146.5195  132.9212  149.0874 H   0  0  0  0  0  0  0  0  0  0  0  0
  146.0467  133.3949  152.0317 H   0  0  0  0  0  0  0  0  0  0  0  0
  146.9507  134.3592  150.8956 H   0  0  0  0  0  0  0  0  0  0  0  0
  144.8068  135.0979  149.8295 H   0  0  0  0  0  0  0  0  0  0  0  0
  150.2267  141.0272  155.7463 H   0  0  0  0  0  0  0  0  0  0  0  0
  142.8938  134.2797  150.2883 H   0  0  0  0  0  0  0  0  0  0  0  0
  1  2  1  0  0  0  0
  1 22  1  0  0  0  0
  1 23  1  0  0  0  0
  1 24  1  0  0  0  0
  2 21  1  0  0  0  0
  2  3  1  0  0  0  0
  3  4  2  0  0  0  0
  3 25  1  0  0  0  0
  4  5  1  0  0  0  0
  4 20  1  0  0  0  0
  5  6  1  0  0  0  0
  5 26  1  0  0  0  0
  5 27  1  0  0  0  0
  6  7  1  0  0  0  0
  6 28  1  0  0  0  0
  6 29  1  0  0  0  0
  7  8  1  0  0  0  0
  7 30  1  0  0  0  0
  8  9  2  0  0  0  0
  8 10  1  0  0  0  0
 10 11  1  0  0  0  0
 10 31  1  0  0  0  0
 11 19  1  0  0  0  0
 11 12  1  0  0  0  0
 11 32  1  0  0  0  0
 12 13  1  0  0  0  0
 12 33  1  0  0  0  0
 12 34  1  0  0  0  0
 13 14  1  0  0  0  0
 13 35  1  0  0  0  0
 13 36  1  0  0  0  0
 14 19  1  0  0  0  0
 14 15  1  0  0  0  0
 14 47  1  0  0  0  0
 15 16  1  0  0  0  0
 15 37  1  0  0  0  0
 15 38  1  0  0  0  0
 16 17  1  0  0  0  0
 16 39  1  0  0  0  0
 16 40  1  0  0  0  0
 17 18  1  0  0  0  0
 17 41  1  0  0  0  0
 17 42  1  0  0  0  0
 18 19  1  0  0  0  0
 18 43  1  0  0  0  0
 18 44  1  0  0  0  0
 19 45  1  0  0  0  0
 20 21  2  0  0  0  0
 20 46  1  0  0  0  0
M  CHG  1  14   1
M  END
> <s_m_source_file>
AV-unprocessed.smi

> <i_m_source_file_index>
557

> <i_lp_mmshare_version>
43012

> <i_f3d_flags>
0

> <s_epik_input>
W0NIM11uMVtjSF1jKFtjSF1uMSlbQ0gyXVtDSDJdW05IXUMoPU8pW05IXVtDQEhdKFtDSDJdW0NIMl0yKVtDQEhdKE4yMylbQ0gyXVtDSDJdW0NIMl1bQ0gyXTM=

> <s_epik_cmdline>
J2VwaWtfcHl0aG9uJywgJy1waCcsICc3LjAnLCAnLXRuJywgJzgnLCAnLW1hJywgJzIwMCcsICctbWV0YWxfYmluZGluZycsICctaW1hZScsICc8aW5maWxlLm1hZT4nLCAnLW9tYWUnLCAnPG91dGZpbGUubWFlPic=

> <r_lp_tautomer_probability>
1

> <r_epik_Ionization_Penalty>
0.000956547

> <r_epik_Ionization_Penalty_Charging>
0.000435796

> <r_epik_Ionization_Penalty_Neutral>
0.000520752

> <r_epik_State_Penalty>
-0

> <r_epik_Charging_Adjusted_Penalty>
0.000435796

> <i_epik_Tot_Q>
1

> <i_epik_Tot_abs_Q>
1

> <r_epik_Metal_State_Penalty>
-0

> <b_epik_Metal_Only>
0

> <s_lp_Force_Field>
OPLS_2005

> <r_lp_Energy>
46.1315

> <b_lp_Chiralities_Consistent>
1

> <s_lp_Variant>
AV-unprocessed.smi:557-3

> <Gold.Version>
5.8.1

> <Gold.Id.Protein>
6NUR|6NUR_protein|mol2

> <Gold.PLP.Fitness>
50.1848

> <Gold.PLP.PLP>
-39.6720

> <Gold.PLP.part.hbond>
-4.0000

> <Gold.PLP.part.metal>
0.0000

> <Gold.PLP.part.buried>
-5.4037

> <Gold.PLP.part.nonpolar>
-32.1440

> <Gold.PLP.part.repulsive>
1.7277

> <Gold.PLP.ligand.clash>
0.0000

> <Gold.PLP.ligand.torsion>
0.6117

> <Gold.PLP.Chemscore.Hbond>
3.9089

> <Gold.PLP.Chemscore.CHOScore>
0.0000

> <Gold.PLP.Chemscore.Metal>
0.0000

> <Gold.Chemscore.Hbonds>
donor molecule, donor type, donor heavy atom, donor atom, acceptor molecule, acceptor atom, score
      L1  H     7    30       P1  7948  1.00
      L1  H    10    31       P1  7948  0.61
      L1  H    14    47       P1 10186  1.95
      P1  H  7989  7998       L1    21  0.34

> <Gold.PLP.Chemscore.Internal.Correction>
0.0095

> <Gold.Rescore>
     Score         DG    S(hbond)    S(metal)    S(lipo)     H(rot)  DE(clash)    DE(int)     intcor
     18.21     -20.14       2.37        0.00      92.74       1.60       1.33       0.60       ----

> <Gold.Chemscore.Fitness>
18.2149

> <Gold.Chemscore.DG>
-20.1369

> <Gold.Chemscore.ZeroCoef>
-5.4800

> <Gold.Chemscore.Hbond>
2.3675

> <Gold.Chemscore.Metal>
0.0000

> <Gold.Chemscore.Lipo>
92.7355

> <Gold.Chemscore.Internal_Hbond>
0.0000

> <Gold.Chemscore.DEClash>
1.3268

> <Gold.Chemscore.DEInternal>
0.5952

> <Gold.Chemscore.Rot>
1.6018

> <Gold.Chemscore.Internal.Correction>
   9.000000E+99

> <Gold.Chemscore.Hbonds>
donor molecule, donor type, donor heavy atom, donor atom, acceptor molecule, acceptor atom, score
      L1  H     7    30       P1  7948  1.00
      L1  H    10    31       P1  7948  0.59
      L1  H    14    47       P1 10186  0.74

> <Gold.Chemscore.Hbond.Weighted>
-7.9075

> <Gold.Chemscore.Metal.Weighted>
-0.0000

> <Gold.Chemscore.Lipo.Weighted>
-10.8500

> <Gold.Chemscore.Internal_Hbond.Weighted>
0.0000

> <Gold.Chemscore.DEClash.Weighted>
1.3268

> <Gold.Chemscore.DEInternal.Weighted>
0.5952

> <Gold.Chemscore.Rot.Weighted>
4.1006

> <Gold.Chemscore.Internal.Correction.Weighted>
   9.000000E+99

> <Gold.Protein.RotatedTorsions>
[ 6907 6896 6895 6894 ] final  137.36 input  -60.11 | X-H torsion
[ 7974 7965 7964 7962 ] final  -30.11 input  175.53 | X-H torsion
[ 8008 7997 7996 7995 ] final  -89.98 input   59.86 | X-H torsion
[ 10167 10162 10161 10158 ] final -139.43 input  -65.29 | X-H torsion
[ 10718 10713 10712 10709 ] final   -3.75 input   66.30 | X-H torsion
[ 10763 10752 10751 10750 ] final  170.92 input  -60.55 | X-H torsion
[ 11005 11000 10999 10996 ] final   -3.28 input  -57.11 | X-H torsion

> <Gold.Protein.ActiveResidues>
 VAL166  LYS551  ARG553  GLY616  TRP617  ASP618  TYR619  PRO620  LYS621  CYS622 
 ASP623  PHE694  ASN695  SER759  ASP760  ASP761  ALA762  ILE779  LEU786  VAL792 
 PHE793  MET794  SER795  GLU796  ALA797  LYS798  CYS799  TRP800  GLU811  SER814 

> <Gold.Protein.RotatedAtoms>
  152.2789  133.5452  159.5485 H   0  0  0  0  0  0  0  0  0  0  0  0  # atno 6907 bound_to 6896
  150.7188  134.0592  159.3834 H   0  0  0  0  0  0  0  0  0  0  0  0  # atno 6908 bound_to 6896
  151.8503  135.0560  160.0509 H   0  0  0  0  0  0  0  0  0  0  0  0  # atno 6909 bound_to 6896
  146.1167  140.5498  142.8753 H   0  0  0  0  0  0  0  0  0  0  0  0  # atno 7974 bound_to 7965
  154.6930  140.0535  157.0383 H   0  0  0  0  0  0  0  0  0  0  0  0  # atno 8008 bound_to 7997
  155.0790  140.3207  155.4588 H   0  0  0  0  0  0  0  0  0  0  0  0  # atno 8009 bound_to 7997
  156.2735  140.2068  156.5917 H   0  0  0  0  0  0  0  0  0  0  0  0  # atno 8010 bound_to 7997
  139.8380  143.7359  152.2664 H   0  0  0  0  0  0  0  0  0  0  0  0  # atno 10167 bound_to 10162
  156.7714  130.5301  149.5767 H   0  0  0  0  0  0  0  0  0  0  0  0  # atno 10718 bound_to 10713
  154.4045  135.2755  155.2076 H   0  0  0  0  0  0  0  0  0  0  0  0  # atno 10763 bound_to 10752
  154.4088  135.6027  153.5944 H   0  0  0  0  0  0  0  0  0  0  0  0  # atno 10764 bound_to 10752
  152.9831  135.5944  154.4317 H   0  0  0  0  0  0  0  0  0  0  0  0  # atno 10765 bound_to 10752
  140.6676  133.9265  155.8474 H   0  0  0  0  0  0  0  0  0  0  0  0  # atno 11005 bound_to 11000
  144.7560  140.5307  143.6769 LP  0  0  0  0  0  0  0  0  0  0  0  0  # atno 17320 bound_to 7965
  145.5551  139.1477  143.3372 LP  0  0  0  0  0  0  0  0  0  0  0  0  # atno 17321 bound_to 7965
  139.7587  144.7513  151.0396 LP  0  0  0  0  0  0  0  0  0  0  0  0  # atno 17342 bound_to 10162
  140.7801  143.4775  151.0062 LP  0  0  0  0  0  0  0  0  0  0  0  0  # atno 17343 bound_to 10162
  156.1276  130.6155  151.0286 LP  0  0  0  0  0  0  0  0  0  0  0  0  # atno 17370 bound_to 10713
  157.6689  131.0865  150.7660 LP  0  0  0  0  0  0  0  0  0  0  0  0  # atno 17371 bound_to 10713
  141.0417  134.0612  157.3893 LP  0  0  0  0  0  0  0  0  0  0  0  0  # atno 17394 bound_to 11000
  139.8992  135.0158  156.7185 LP  0  0  0  0  0  0  0  0  0  0  0  0  # atno 17395 bound_to 11000

$$$$
