AV-unprocessed.smi:3173|AV-procd|sdf|12117|dock5
  -GOLD-   2272017553D 1   1.00000     0.00000
 Structure written by MMmdl.
 35 36  0  0  0  0  0  0  0  0  1 V2000
  152.7636  139.4803  155.0846 O   0  0  0  0  0  0  0  0  0  0  0  0
  151.5840  139.6048  155.4150 C   0  0  0  0  0  0  0  0  0  0  0  0
  150.4630  139.1857  154.4576 C   0  0  0  0  0  0  0  0  0  0  0  0
  149.1011  139.8260  154.7988 C   0  0  2  0  0  0  0  0  0  0  0  0
  148.0093  139.3890  153.8566 C   0  0  0  0  0  0  0  0  0  0  0  0
  147.3257  140.4129  153.3501 C   0  0  0  0  0  0  0  0  0  0  0  0
  147.8242  141.7404  153.8498 C   0  0  0  0  0  0  0  0  0  0  0  0
  149.0712  141.3741  154.6844 C   0  0  0  0  0  0  0  0  0  0  0  0
  151.2011  140.0962  156.6033 N   0  0  0  0  0  0  0  0  0  0  0  0
  152.1071  140.5110  157.6679 C   0  0  0  0  0  0  0  0  0  0  0  0
  151.7979  141.9412  158.1412 C   0  0  0  0  0  0  0  0  0  0  0  0
  152.3350  142.2165  159.5328 C   0  0  0  0  0  0  0  0  0  0  0  0
  152.0357  143.4272  160.1931 C   0  0  0  0  0  0  0  0  0  0  0  0
  152.5566  143.6335  161.4851 C   0  0  0  0  0  0  0  0  0  0  0  0
  153.3514  142.6260  162.0647 C   0  0  0  0  0  0  0  0  0  0  0  0
  153.5895  141.4511  161.3237 C   0  0  0  0  0  0  0  0  0  0  0  0
  153.0945  141.2429  160.0844 N   0  0  0  0  0  0  0  0  0  0  0  0
  150.7415  139.4377  153.4329 H   0  0  0  0  0  0  0  0  0  0  0  0
  150.3790  138.0990  154.4951 H   0  0  0  0  0  0  0  0  0  0  0  0
  148.7907  139.5252  155.8005 H   0  0  0  0  0  0  0  0  0  0  0  0
  147.8124  138.3478  153.6471 H   0  0  0  0  0  0  0  0  0  0  0  0
  146.4921  140.3295  152.6685 H   0  0  0  0  0  0  0  0  0  0  0  0
  148.0705  142.4013  153.0183 H   0  0  0  0  0  0  0  0  0  0  0  0
  147.0560  142.2164  154.4601 H   0  0  0  0  0  0  0  0  0  0  0  0
  149.0518  141.8473  155.6667 H   0  0  0  0  0  0  0  0  0  0  0  0
  149.9623  141.7401  154.1725 H   0  0  0  0  0  0  0  0  0  0  0  0
  150.2118  140.1686  156.7918 H   0  0  0  0  0  0  0  0  0  0  0  0
  152.0513  139.8114  158.5036 H   0  0  0  0  0  0  0  0  0  0  0  0
  153.1264  140.4565  157.2849 H   0  0  0  0  0  0  0  0  0  0  0  0
  152.2269  142.6653  157.4470 H   0  0  0  0  0  0  0  0  0  0  0  0
  150.7211  142.1158  158.1367 H   0  0  0  0  0  0  0  0  0  0  0  0
  151.4211  144.1806  159.7225 H   0  0  0  0  0  0  0  0  0  0  0  0
  152.3497  144.5479  162.0214 H   0  0  0  0  0  0  0  0  0  0  0  0
  153.7678  142.7500  163.0534 H   0  0  0  0  0  0  0  0  0  0  0  0
  154.1936  140.6573  161.7376 H   0  0  0  0  0  0  0  0  0  0  0  0
  1  2  2  0  0  0  0
  2  3  1  0  0  0  0
  2  9  1  0  0  0  0
  3  4  1  0  0  0  0
  3 18  1  0  0  0  0
  3 19  1  0  0  0  0
  4  8  1  0  0  0  0
  4  5  1  0  0  0  0
  4 20  1  0  0  0  0
  5  6  2  0  0  0  0
  5 21  1  0  0  0  0
  6  7  1  0  0  0  0
  6 22  1  0  0  0  0
  7  8  1  0  0  0  0
  7 23  1  0  0  0  0
  7 24  1  0  0  0  0
  8 25  1  0  0  0  0
  8 26  1  0  0  0  0
  9 10  1  0  0  0  0
  9 27  1  0  0  0  0
 10 11  1  0  0  0  0
 10 28  1  0  0  0  0
 10 29  1  0  0  0  0
 11 12  1  0  0  0  0
 11 30  1  0  0  0  0
 11 31  1  0  0  0  0
 12 17  1  0  0  0  0
 12 13  2  0  0  0  0
 13 14  1  0  0  0  0
 13 32  1  0  0  0  0
 14 15  2  0  0  0  0
 14 33  1  0  0  0  0
 15 16  1  0  0  0  0
 15 34  1  0  0  0  0
 16 17  2  0  0  0  0
 16 35  1  0  0  0  0
M  END
> <s_m_source_file>
AV-unprocessed.smi

> <i_m_source_file_index>
3173

> <i_lp_mmshare_version>
43012

> <i_f3d_flags>
0

> <s_epik_input>
W0NIMl0xW0NIMl1bQ0hdPVtDSF1bQ0BIXTFbQ0gyXUMoPU8pW05IXVtDSDJdW0NIMl1jMltjSF1bY0hdW2NIXVtjSF1uMg==

> <s_epik_cmdline>
J2VwaWtfcHl0aG9uJywgJy1waCcsICc3LjAnLCAnLXRuJywgJzgnLCAnLW1hJywgJzIwMCcsICctbWV0YWxfYmluZGluZycsICctaW1hZScsICc8aW5maWxlLm1hZT4nLCAnLW9tYWUnLCAnPG91dGZpbGUubWFlPic=

> <r_epik_Ionization_Penalty>
0.0258754

> <r_epik_Ionization_Penalty_Charging>
0

> <r_epik_Ionization_Penalty_Neutral>
0.0258754

> <r_epik_State_Penalty>
0.0210899

> <r_epik_Charging_Adjusted_Penalty>
0.0210899

> <i_epik_Tot_Q>
0

> <i_epik_Tot_abs_Q>
0

> <r_epik_Metal_State_Penalty>
0.0202045

> <b_epik_Metal_Only>
0

> <s_lp_Force_Field>
OPLS_2005

> <r_lp_Energy>
13.7226

> <b_lp_Chiralities_Consistent>
1

> <s_lp_Variant>
AV-unprocessed.smi:3173-1

> <Gold.Version>
5.8.1

> <Gold.Id.Protein>
6NUR|6NUR_protein|mol2

> <Gold.PLP.Fitness>
45.1381

> <Gold.PLP.PLP>
-43.0035

> <Gold.PLP.part.hbond>
-2.0000

> <Gold.PLP.part.metal>
0.0000

> <Gold.PLP.part.buried>
-2.7328

> <Gold.PLP.part.nonpolar>
-36.1573

> <Gold.PLP.part.repulsive>
0.1077

> <Gold.PLP.ligand.clash>
0.0000

> <Gold.PLP.ligand.torsion>
0.4451

> <Gold.PLP.Chemscore.Hbond>
1.0000

> <Gold.PLP.Chemscore.CHOScore>
0.0000

> <Gold.PLP.Chemscore.Metal>
0.0000

> <Gold.Chemscore.Hbonds>
donor molecule, donor type, donor heavy atom, donor atom, acceptor molecule, acceptor atom, score
      P1  H  7997  8010       L1     1  1.00

> <Gold.PLP.Chemscore.Internal.Correction>
0.0248

> <Gold.Rescore>
     Score         DG    S(hbond)    S(metal)    S(lipo)     H(rot)  DE(clash)    DE(int)     intcor
     17.82     -18.44       1.00        0.00     115.16       1.50       0.20       0.42       ----

> <Gold.Chemscore.Fitness>
17.8244

> <Gold.Chemscore.DG>
-18.4439

> <Gold.Chemscore.ZeroCoef>
-5.4800

> <Gold.Chemscore.Hbond>
1.0000

> <Gold.Chemscore.Metal>
0.0000

> <Gold.Chemscore.Lipo>
115.1563

> <Gold.Chemscore.Internal_Hbond>
0.0000

> <Gold.Chemscore.DEClash>
0.2035

> <Gold.Chemscore.DEInternal>
0.4160

> <Gold.Chemscore.Rot>
1.5037

> <Gold.Chemscore.Internal.Correction>
   9.000000E+99

> <Gold.Chemscore.Hbonds>
donor molecule, donor type, donor heavy atom, donor atom, acceptor molecule, acceptor atom, score
      P1  H  7997  8010       L1     1  0.96

> <Gold.Chemscore.Hbond.Weighted>
-3.3400

> <Gold.Chemscore.Metal.Weighted>
-0.0000

> <Gold.Chemscore.Lipo.Weighted>
-13.4733

> <Gold.Chemscore.Internal_Hbond.Weighted>
0.0000

> <Gold.Chemscore.DEClash.Weighted>
0.2035

> <Gold.Chemscore.DEInternal.Weighted>
0.4160

> <Gold.Chemscore.Rot.Weighted>
3.8494

> <Gold.Chemscore.Internal.Correction.Weighted>
   9.000000E+99

> <Gold.Protein.RotatedTorsions>
[ 6907 6896 6895 6894 ] final -126.12 input  -60.11 | X-H torsion
[ 7974 7965 7964 7962 ] final   -9.05 input  175.53 | X-H torsion
[ 8008 7997 7996 7995 ] final  101.09 input   59.86 | X-H torsion
[ 10167 10162 10161 10158 ] final  -69.62 input  -65.29 | X-H torsion
[ 10718 10713 10712 10709 ] final   75.66 input   66.30 | X-H torsion
[ 10763 10752 10751 10750 ] final -113.58 input  -60.55 | X-H torsion
[ 11005 11000 10999 10996 ] final  -67.69 input  -57.11 | X-H torsion

> <Gold.Protein.ActiveResidues>
 VAL166  LYS551  ARG553  GLY616  TRP617  ASP618  TYR619  PRO620  LYS621  CYS622 
 ASP623  PHE694  ASN695  SER759  ASP760  ASP761  ALA762  ILE779  LEU786  VAL792 
 PHE793  MET794  SER795  GLU796  ALA797  LYS798  CYS799  TRP800  GLU811  SER814 

> <Gold.Protein.RotatedAtoms>
  150.8937  133.7209  159.2897 H   0  0  0  0  0  0  0  0  0  0  0  0  # atno 6907 bound_to 6896
  151.4751  135.1047  159.9772 H   0  0  0  0  0  0  0  0  0  0  0  0  # atno 6908 bound_to 6896
  152.4835  133.8267  159.7137 H   0  0  0  0  0  0  0  0  0  0  0  0  # atno 6909 bound_to 6896
  146.2263  140.2559  142.8349 H   0  0  0  0  0  0  0  0  0  0  0  0  # atno 7974 bound_to 7965
  156.1266  140.3203  155.8286 H   0  0  0  0  0  0  0  0  0  0  0  0  # atno 8008 bound_to 7997
  155.4409  140.0525  157.3027 H   0  0  0  0  0  0  0  0  0  0  0  0  # atno 8009 bound_to 7997
  154.4867  140.2075  155.9653 H   0  0  0  0  0  0  0  0  0  0  0  0  # atno 8010 bound_to 7997
  140.5416  143.2315  151.7079 H   0  0  0  0  0  0  0  0  0  0  0  0  # atno 10167 bound_to 10162
  157.6643  130.9737  150.1385 H   0  0  0  0  0  0  0  0  0  0  0  0  # atno 10718 bound_to 10713
  154.8403  135.4449  154.1372 H   0  0  0  0  0  0  0  0  0  0  0  0  # atno 10763 bound_to 10752
  153.2567  135.6932  153.7628 H   0  0  0  0  0  0  0  0  0  0  0  0  # atno 10764 bound_to 10752
  153.6920  135.3386  155.3180 H   0  0  0  0  0  0  0  0  0  0  0  0  # atno 10765 bound_to 10752
  141.1514  133.6724  156.6331 H   0  0  0  0  0  0  0  0  0  0  0  0  # atno 11005 bound_to 11000
  144.9376  140.8043  143.5650 LP  0  0  0  0  0  0  0  0  0  0  0  0  # atno 17320 bound_to 7965
  145.2508  139.2032  143.4943 LP  0  0  0  0  0  0  0  0  0  0  0  0  # atno 17321 bound_to 7965
  139.4991  144.3960  152.0231 LP  0  0  0  0  0  0  0  0  0  0  0  0  # atno 17342 bound_to 10162
  140.3069  144.3582  150.6044 LP  0  0  0  0  0  0  0  0  0  0  0  0  # atno 17343 bound_to 10162
  156.2213  130.3674  149.8552 LP  0  0  0  0  0  0  0  0  0  0  0  0  # atno 17370 bound_to 10713
  156.6404  130.8702  151.3513 LP  0  0  0  0  0  0  0  0  0  0  0  0  # atno 17371 bound_to 10713
  140.3452  134.7816  157.4426 LP  0  0  0  0  0  0  0  0  0  0  0  0  # atno 17394 bound_to 11000
  140.0906  134.5607  155.8448 LP  0  0  0  0  0  0  0  0  0  0  0  0  # atno 17395 bound_to 11000

$$$$
