AV-unprocessed.smi:240|AV-procd|sdf|1835|dock3
  -GOLD-   2262020443D 1   1.00000     0.00000
 Structure written by MMmdl.
 55 59  0  0  0  0  0  0  0  0  1 V2000
  151.5608  136.7625  153.5427 O   0  0  0  0  0  0  0  0  0  0  0  0
  150.4793  136.9599  154.4315 C   0  0  1  0  0  0  0  0  0  0  0  0
  150.6399  136.0592  155.6699 C   0  0  0  0  0  0  0  0  0  0  0  0
  150.8567  137.0006  156.8565 C   0  0  0  0  0  0  0  0  0  0  0  0
  150.1418  138.2865  156.4519 C   0  0  0  0  0  0  0  0  0  0  0  0
  150.4488  138.4170  154.9535 C   0  0  2  0  0  0  0  0  0  0  0  0
  149.5423  139.4241  154.1767 C   0  0  2  0  0  0  0  0  0  0  0  0
  150.0876  140.8774  154.1891 C   0  0  0  0  0  0  0  0  0  0  0  0
  149.2116  141.7494  153.4859 O   0  0  0  0  0  0  0  0  0  0  0  0
  147.9277  141.8030  154.0900 C   0  0  0  0  0  0  0  0  0  0  0  0
  147.2931  140.4100  154.0123 C   0  0  0  0  0  0  0  0  0  0  0  0
  148.1498  139.4178  154.6534 N   0  0  0  0  0  0  0  0  0  0  0  0
  147.5103  138.2246  154.6917 C   0  0  0  0  0  0  0  0  0  0  0  0
  147.5873  137.4367  155.7970 N   0  0  0  0  0  0  0  0  0  0  0  0
  146.9578  136.2582  155.8211 C   0  0  0  0  0  0  0  0  0  0  0  0
  146.2150  135.6888  154.8689 N   0  0  0  0  0  0  0  0  0  0  0  0
  146.1398  136.4769  153.7575 C   0  0  0  0  0  0  0  0  0  0  0  0
  146.7669  137.7418  153.5834 C   0  0  0  0  0  0  0  0  0  0  0  0
  146.4933  138.2427  152.3184 N   0  0  0  0  0  0  0  0  0  0  0  0
  145.7427  137.3248  151.7738 C   0  0  0  0  0  0  0  0  0  0  0  0
  145.4552  136.2419  152.5761 N   0  0  0  0  0  0  0  0  0  0  0  0
  144.6433  135.0856  152.2217 C   0  0  0  0  0  0  0  0  0  0  0  0
  145.0926  134.3315  150.9420 C   0  0  2  0  0  0  0  0  0  0  0  0
  144.8338  135.1952  149.8502 O   0  0  0  0  0  0  0  0  0  0  0  0
  144.3683  133.0090  150.6754 C   0  0  0  0  0  0  0  0  0  0  0  0
  145.4358  132.1534  150.0069 C   0  0  0  0  0  0  0  0  0  0  0  0
  146.6030  132.5167  150.7211 O   0  0  0  0  0  0  0  0  0  0  0  0
  146.5834  133.9279  150.8929 C   0  0  0  0  0  0  0  0  0  0  0  0
  151.2398  136.8394  152.6571 H   0  0  0  0  0  0  0  0  0  0  0  0
  149.5633  136.6901  153.9091 H   0  0  0  0  0  0  0  0  0  0  0  0
  149.7192  135.4946  155.8231 H   0  0  0  0  0  0  0  0  0  0  0  0
  151.4484  135.3329  155.5750 H   0  0  0  0  0  0  0  0  0  0  0  0
  150.4828  136.5866  157.7934 H   0  0  0  0  0  0  0  0  0  0  0  0
  151.9226  137.1972  156.9802 H   0  0  0  0  0  0  0  0  0  0  0  0
  149.0757  138.1649  156.6375 H   0  0  0  0  0  0  0  0  0  0  0  0
  150.4830  139.1495  157.0243 H   0  0  0  0  0  0  0  0  0  0  0  0
  151.4740  138.7893  154.9292 H   0  0  0  0  0  0  0  0  0  0  0  0
  149.5228  139.1074  153.1326 H   0  0  0  0  0  0  0  0  0  0  0  0
  150.2248  141.2562  155.2015 H   0  0  0  0  0  0  0  0  0  0  0  0
  151.0571  140.9349  153.6973 H   0  0  0  0  0  0  0  0  0  0  0  0
  148.0044  142.1445  155.1239 H   0  0  0  0  0  0  0  0  0  0  0  0
  147.3125  142.5280  153.5570 H   0  0  0  0  0  0  0  0  0  0  0  0
  146.3137  140.4280  154.4930 H   0  0  0  0  0  0  0  0  0  0  0  0
  147.1339  140.1345  152.9684 H   0  0  0  0  0  0  0  0  0  0  0  0
  147.0622  135.6914  156.7347 H   0  0  0  0  0  0  0  0  0  0  0  0
  145.3693  137.4181  150.7643 H   0  0  0  0  0  0  0  0  0  0  0  0
  144.6443  134.4029  153.0727 H   0  0  0  0  0  0  0  0  0  0  0  0
  143.6121  135.4230  152.1084 H   0  0  0  0  0  0  0  0  0  0  0  0
  145.2705  134.8515  149.0859 H   0  0  0  0  0  0  0  0  0  0  0  0
  144.0806  132.5177  151.6020 H   0  0  0  0  0  0  0  0  0  0  0  0
  143.4662  133.1137  150.0709 H   0  0  0  0  0  0  0  0  0  0  0  0
  145.2315  131.0852  150.0830 H   0  0  0  0  0  0  0  0  0  0  0  0
  145.5490  132.4124  148.9530 H   0  0  0  0  0  0  0  0  0  0  0  0
  147.0996  134.3886  150.0488 H   0  0  0  0  0  0  0  0  0  0  0  0
  147.1400  134.1971  151.7870 H   0  0  0  0  0  0  0  0  0  0  0  0
  1  2  1  0  0  0  0
  1 29  1  0  0  0  0
  2  6  1  0  0  0  0
  2  3  1  0  0  0  0
  2 30  1  0  0  0  0
  3  4  1  0  0  0  0
  3 31  1  0  0  0  0
  3 32  1  0  0  0  0
  4  5  1  0  0  0  0
  4 33  1  0  0  0  0
  4 34  1  0  0  0  0
  5  6  1  0  0  0  0
  5 35  1  0  0  0  0
  5 36  1  0  0  0  0
  6  7  1  0  0  0  0
  6 37  1  0  0  0  0
  7 12  1  0  0  0  0
  7  8  1  0  0  0  0
  7 38  1  0  0  0  0
  8  9  1  0  0  0  0
  8 39  1  0  0  0  0
  8 40  1  0  0  0  0
  9 10  1  0  0  0  0
 10 11  1  0  0  0  0
 10 41  1  0  0  0  0
 10 42  1  0  0  0  0
 11 12  1  0  0  0  0
 11 43  1  0  0  0  0
 11 44  1  0  0  0  0
 12 13  1  0  0  0  0
 13 18  1  0  0  0  0
 13 14  2  0  0  0  0
 14 15  1  0  0  0  0
 15 16  2  0  0  0  0
 15 45  1  0  0  0  0
 16 17  1  0  0  0  0
 17 21  1  0  0  0  0
 17 18  2  0  0  0  0
 18 19  1  0  0  0  0
 19 20  2  0  0  0  0
 20 21  1  0  0  0  0
 20 46  1  0  0  0  0
 21 22  1  0  0  0  0
 22 23  1  0  0  0  0
 22 47  1  0  0  0  0
 22 48  1  0  0  0  0
 23 28  1  0  0  0  0
 23 24  1  0  0  0  0
 23 25  1  0  0  0  0
 24 49  1  0  0  0  0
 25 26  1  0  0  0  0
 25 50  1  0  0  0  0
 25 51  1  0  0  0  0
 26 27  1  0  0  0  0
 26 52  1  0  0  0  0
 26 53  1  0  0  0  0
 27 28  1  0  0  0  0
 28 54  1  0  0  0  0
 28 55  1  0  0  0  0
M  END
> <s_m_source_file>
AV-unprocessed.smi

> <i_m_source_file_index>
240

> <i_lp_mmshare_version>
43012

> <i_f3d_flags>
0

> <s_epik_input>
W09IXVtDQEBIXTFbQ0gyXVtDSDJdW0NIMl1bQ0BIXTFbQ0BASF0yW0NIMl1PW0NIMl1bQ0gyXU4yYyhuW2NIXW4zKWMoYzM0KW5bY0hdbjRbQ0gyXVtDQEBdNShbT0hdKVtDSDJdW0NIMl1PW0NIMl01

> <s_epik_cmdline>
J2VwaWtfcHl0aG9uJywgJy1waCcsICc3LjAnLCAnLXRuJywgJzgnLCAnLW1hJywgJzIwMCcsICctbWV0YWxfYmluZGluZycsICctaW1hZScsICc8aW5maWxlLm1hZT4nLCAnLW9tYWUnLCAnPG91dGZpbGUubWFlPic=

> <r_lp_tautomer_probability>
1

> <r_epik_Ionization_Penalty>
0.000130618

> <r_epik_Ionization_Penalty_Charging>
0

> <r_epik_Ionization_Penalty_Neutral>
0.000130618

> <r_epik_State_Penalty>
-0

> <r_epik_Charging_Adjusted_Penalty>
0

> <i_epik_Tot_Q>
0

> <i_epik_Tot_abs_Q>
0

> <r_epik_Metal_State_Penalty>
-0

> <b_epik_Metal_Only>
0

> <s_lp_Force_Field>
OPLS_2005

> <r_lp_Energy>
63.043

> <b_lp_Chiralities_Consistent>
1

> <s_lp_Variant>
AV-unprocessed.smi:240-12

> <Gold.Version>
5.8.1

> <Gold.Id.Protein>
6NUR|6NUR_protein|mol2

> <Gold.PLP.Fitness>
46.1249

> <Gold.PLP.PLP>
-34.5561

> <Gold.PLP.part.hbond>
-5.2036

> <Gold.PLP.part.metal>
0.0000

> <Gold.PLP.part.buried>
-4.5590

> <Gold.PLP.part.nonpolar>
-26.2740

> <Gold.PLP.part.repulsive>
1.5733

> <Gold.PLP.ligand.clash>
0.0000

> <Gold.PLP.ligand.torsion>
1.3477

> <Gold.PLP.Chemscore.Hbond>
3.6880

> <Gold.PLP.Chemscore.CHOScore>
0.9943

> <Gold.PLP.Chemscore.Metal>
0.0000

> <Gold.Chemscore.Hbonds>
donor molecule, donor type, donor heavy atom, donor atom, acceptor molecule, acceptor atom, score
      L1  H     1    29       P1  7949  0.57
      L1  H    24    49       P1  7921  1.00
      P1  H  8011  8017       L1     9  0.56
      P1  H 10752 10765       L1     1  1.00
      L1  C    20    46       P1 10171  1.00

> <Gold.PLP.Chemscore.Internal.Correction>
0.2175

> <Gold.Rescore>
     Score         DG    S(hbond)    S(metal)    S(lipo)     H(rot)  DE(clash)    DE(int)     intcor
     10.50     -14.33       2.31        0.00      75.41       3.00       0.53       3.30       ----

> <Gold.Chemscore.Fitness>
10.4963

> <Gold.Chemscore.DG>
-14.3334

> <Gold.Chemscore.ZeroCoef>
-5.4800

> <Gold.Chemscore.Hbond>
2.3115

> <Gold.Chemscore.Metal>
0.0000

> <Gold.Chemscore.Lipo>
75.4084

> <Gold.Chemscore.Internal_Hbond>
0.0000

> <Gold.Chemscore.DEClash>
0.5342

> <Gold.Chemscore.DEInternal>
3.3030

> <Gold.Chemscore.Rot>
3.0039

> <Gold.Chemscore.Internal.Correction>
   9.000000E+99

> <Gold.Chemscore.Hbonds>
donor molecule, donor type, donor heavy atom, donor atom, acceptor molecule, acceptor atom, score
      L1  H     1    29       P1  7949  0.37
      L1  H    24    49       P1  7921  1.00
      P1  H  8011  8017       L1     9  0.51
      P1  H 10752 10765       L1     1  0.96

> <Gold.Chemscore.Hbond.Weighted>
-7.7206

> <Gold.Chemscore.Metal.Weighted>
-0.0000

> <Gold.Chemscore.Lipo.Weighted>
-8.8228

> <Gold.Chemscore.Internal_Hbond.Weighted>
0.0000

> <Gold.Chemscore.DEClash.Weighted>
0.5342

> <Gold.Chemscore.DEInternal.Weighted>
3.3030

> <Gold.Chemscore.Rot.Weighted>
7.6899

> <Gold.Chemscore.Internal.Correction.Weighted>
   9.000000E+99

> <Gold.Protein.RotatedTorsions>
[ 6907 6896 6895 6894 ] final  -82.15 input  -60.11 | X-H torsion
[ 7974 7965 7964 7962 ] final  125.84 input  175.53 | X-H torsion
[ 8008 7997 7996 7995 ] final -104.73 input   59.86 | X-H torsion
[ 10167 10162 10161 10158 ] final   29.03 input  -65.29 | X-H torsion
[ 10718 10713 10712 10709 ] final   28.86 input   66.30 | X-H torsion
[ 10763 10752 10751 10750 ] final  151.39 input  -60.55 | X-H torsion
[ 11005 11000 10999 10996 ] final   14.73 input  -57.11 | X-H torsion

> <Gold.Protein.ActiveResidues>
 VAL166  LYS551  ARG553  GLY616  TRP617  ASP618  TYR619  PRO620  LYS621  CYS622 
 ASP623  PHE694  ASN695  SER759  ASP760  ASP761  ALA762  ILE779  LEU786  VAL792 
 PHE793  MET794  SER795  GLU796  ALA797  LYS798  CYS799  TRP800  GLU811  SER814 

> <Gold.Protein.RotatedAtoms>
  150.6901  134.3708  159.4991 H   0  0  0  0  0  0  0  0  0  0  0  0  # atno 6907 bound_to 6896
  152.1524  134.8975  160.0556 H   0  0  0  0  0  0  0  0  0  0  0  0  # atno 6908 bound_to 6896
  152.0067  133.3811  159.4240 H   0  0  0  0  0  0  0  0  0  0  0  0  # atno 6909 bound_to 6896
  145.0684  139.3749  143.4970 H   0  0  0  0  0  0  0  0  0  0  0  0  # atno 7974 bound_to 7965
  154.8895  140.0416  157.1830 H   0  0  0  0  0  0  0  0  0  0  0  0  # atno 8008 bound_to 7997
  154.8556  140.2936  155.5550 H   0  0  0  0  0  0  0  0  0  0  0  0  # atno 8009 bound_to 7997
  156.2997  140.2456  156.3521 H   0  0  0  0  0  0  0  0  0  0  0  0  # atno 8010 bound_to 7997
  140.4801  144.0629  150.6263 H   0  0  0  0  0  0  0  0  0  0  0  0  # atno 10167 bound_to 10162
  157.2390  130.7060  149.6349 H   0  0  0  0  0  0  0  0  0  0  0  0  # atno 10718 bound_to 10713
  154.1030  135.2844  155.3247 H   0  0  0  0  0  0  0  0  0  0  0  0  # atno 10763 bound_to 10752
  154.6542  135.5358  153.7942 H   0  0  0  0  0  0  0  0  0  0  0  0  # atno 10764 bound_to 10752
  153.0372  135.6517  154.1193 H   0  0  0  0  0  0  0  0  0  0  0  0  # atno 10765 bound_to 10752
  140.4663  134.1076  155.7725 H   0  0  0  0  0  0  0  0  0  0  0  0  # atno 11005 bound_to 11000
  146.3528  140.0417  142.8642 LP  0  0  0  0  0  0  0  0  0  0  0  0  # atno 17320 bound_to 7965
  145.1322  140.9524  143.4538 LP  0  0  0  0  0  0  0  0  0  0  0  0  # atno 17321 bound_to 7965
  140.3868  143.2773  152.0106 LP  0  0  0  0  0  0  0  0  0  0  0  0  # atno 17342 bound_to 10162
  139.4832  144.6110  151.7434 LP  0  0  0  0  0  0  0  0  0  0  0  0  # atno 17343 bound_to 10162
  155.9671  130.4464  150.5540 LP  0  0  0  0  0  0  0  0  0  0  0  0  # atno 17370 bound_to 10713
  157.3398  131.0715  151.1796 LP  0  0  0  0  0  0  0  0  0  0  0  0  # atno 17371 bound_to 10713
  141.1598  133.8814  157.1879 LP  0  0  0  0  0  0  0  0  0  0  0  0  # atno 17394 bound_to 11000
  139.9913  135.0063  156.9982 LP  0  0  0  0  0  0  0  0  0  0  0  0  # atno 17395 bound_to 11000

$$$$
