AV-unprocessed.smi:1178|AV-procd|sdf|4957|dock10
  -GOLD-   22720 3553D 1   1.00000     0.00000
 Structure written by MMmdl.
 32 33  0  0  0  0  0  0  0  0  2 V2000
  149.8232  143.4936  159.2685 O   0  0  0  0  0  0  0  0  0  0  0  0
  150.0682  142.7748  158.3000 C   0  0  0  0  0  0  0  0  0  0  0  0
  151.5328  142.4336  157.9732 C   0  0  0  0  0  0  0  0  0  0  0  0
  152.3444  142.0025  159.1265 N   0  0  0  0  0  0  0  0  0  0  0  0
  152.3724  142.8442  160.2526 C   0  0  0  0  0  0  0  0  0  0  0  0
  153.0801  142.5332  161.3551 C   0  0  0  0  0  0  0  0  0  0  0  0
  153.8320  141.2846  161.3631 C   0  0  0  0  0  0  0  0  0  0  0  0
  154.4836  140.9842  162.3614 O   0  0  0  0  0  0  0  0  0  0  0  0
  153.7724  140.5008  160.2469 N   0  5  0  0  0  0  0  0  0  0  0  0
  153.0475  140.8293  159.1330 C   0  0  0  0  0  0  0  0  0  0  0  0
  153.0002  140.1032  158.1400 O   0  0  0  0  0  0  0  0  0  0  0  0
  149.1058  142.2676  157.5134 N   0  0  0  0  0  0  0  0  0  0  0  0
  147.6817  142.5064  157.6870 C   0  0  0  0  0  0  0  0  0  0  0  0
  146.8781  141.7754  156.5998 C   0  0  0  0  0  0  0  0  0  0  0  0
  146.2364  142.7257  155.6825 N   0  0  0  0  0  0  0  0  0  0  0  0
  146.5839  142.8335  154.3793 C   0  0  0  0  0  0  0  0  0  0  0  0
  147.4496  142.1580  153.8236 O   0  0  0  0  0  0  0  0  0  0  0  0
  145.8059  143.9018  153.6016 C   0  0  0  0  0  0  0  0  0  0  0  0
  144.6931  144.6307  154.8063 S   0  0  0  0  0  0  0  0  0  0  0  0
  145.2813  143.5869  156.0724 C   0  0  0  0  0  0  0  0  0  0  0  0
  144.8365  143.6691  157.2169 O   0  0  0  0  0  0  0  0  0  0  0  0
  151.5439  141.6667  157.1970 H   0  0  0  0  0  0  0  0  0  0  0  0
  151.9858  143.3097  157.5071 H   0  0  0  0  0  0  0  0  0  0  0  0
  151.7849  143.7465  160.1666 H   0  0  0  0  0  0  0  0  0  0  0  0
  153.0897  143.1900  162.2123 H   0  0  0  0  0  0  0  0  0  0  0  0
  149.3864  141.6916  156.7324 H   0  0  0  0  0  0  0  0  0  0  0  0
  147.3782  142.1644  158.6777 H   0  0  0  0  0  0  0  0  0  0  0  0
  147.4878  143.5793  157.6402 H   0  0  0  0  0  0  0  0  0  0  0  0
  147.5332  141.1020  156.0439 H   0  0  0  0  0  0  0  0  0  0  0  0
  146.1295  141.1293  157.0621 H   0  0  0  0  0  0  0  0  0  0  0  0
  146.4830  144.6558  153.1997 H   0  0  0  0  0  0  0  0  0  0  0  0
  145.2445  143.4519  152.7825 H   0  0  0  0  0  0  0  0  0  0  0  0
  1  2  2  0  0  0  0
  2  3  1  0  0  0  0
  2 12  1  0  0  0  0
  3  4  1  0  0  0  0
  3 22  1  0  0  0  0
  3 23  1  0  0  0  0
  4 10  1  0  0  0  0
  4  5  1  0  0  0  0
  5  6  2  0  0  0  0
  5 24  1  0  0  0  0
  6  7  1  0  0  0  0
  6 25  1  0  0  0  0
  7  8  2  0  0  0  0
  7  9  1  0  0  0  0
  9 10  1  0  0  0  0
 10 11  2  0  0  0  0
 12 13  1  0  0  0  0
 12 26  1  0  0  0  0
 13 14  1  0  0  0  0
 13 27  1  0  0  0  0
 13 28  1  0  0  0  0
 14 15  1  0  0  0  0
 14 29  1  0  0  0  0
 14 30  1  0  0  0  0
 15 20  1  0  0  0  0
 15 16  1  0  0  0  0
 16 17  2  0  0  0  0
 16 18  1  0  0  0  0
 18 19  1  0  0  0  0
 18 31  1  0  0  0  0
 18 32  1  0  0  0  0
 19 20  1  0  0  0  0
 20 21  2  0  0  0  0
M  CHG  1   9  -1
M  END
> <s_m_source_file>
AV-unprocessed.smi

> <i_m_source_file_index>
1178

> <i_lp_mmshare_version>
43012

> <i_f3d_flags>
0

> <s_epik_input>
Tz1jMVtuSF1jKD1PKVtjSF1bY0hdbjFbQ0gyXUMoPU8pW05IXVtDSDJdW0NIMl1OMkMoPU8pW0NIMl1TQzI9Tw==

> <s_epik_cmdline>
J2VwaWtfcHl0aG9uJywgJy1waCcsICc3LjAnLCAnLXRuJywgJzgnLCAnLW1hJywgJzIwMCcsICctbWV0YWxfYmluZGluZycsICctaW1hZScsICc8aW5maWxlLm1hZT4nLCAnLW9tYWUnLCAnPG91dGZpbGUubWFlPic=

> <r_lp_tautomer_probability>
0.999537

> <r_epik_Ionization_Penalty>
3.05962

> <r_epik_Ionization_Penalty_Charging>
2.46074e-08

> <r_epik_Ionization_Penalty_Neutral>
3.05962

> <r_epik_State_Penalty>
3.05863

> <r_epik_Charging_Adjusted_Penalty>
3.05863

> <i_epik_Tot_Q>
-1

> <i_epik_Tot_abs_Q>
1

> <r_epik_Metal_State_Penalty>
0.458209

> <b_epik_Metal_Only>
1

> <s_lp_Force_Field>
OPLS_2005

> <r_lp_Energy>
17.4268

> <b_lp_Chiralities_Consistent>
1

> <s_lp_Variant>
AV-unprocessed.smi:1178-2

> <Gold.Version>
5.8.1

> <Gold.Id.Protein>
6NUR|6NUR_protein|mol2

> <Gold.PLP.Fitness>
40.8996

> <Gold.PLP.PLP>
-39.1082

> <Gold.PLP.part.hbond>
-2.7158

> <Gold.PLP.part.metal>
0.0000

> <Gold.PLP.part.buried>
-6.8061

> <Gold.PLP.part.nonpolar>
-28.2866

> <Gold.PLP.part.repulsive>
0.4462

> <Gold.PLP.ligand.clash>
0.0000

> <Gold.PLP.ligand.torsion>
0.5796

> <Gold.PLP.Chemscore.Hbond>
0.9760

> <Gold.PLP.Chemscore.CHOScore>
0.0000

> <Gold.PLP.Chemscore.Metal>
0.0000

> <Gold.Chemscore.Hbonds>
donor molecule, donor type, donor heavy atom, donor atom, acceptor molecule, acceptor atom, score
      P1  H  7997  8008       L1    11  0.94

> <Gold.PLP.Chemscore.Internal.Correction>
0.0225

> <Gold.Rescore>
     Score         DG    S(hbond)    S(metal)    S(lipo)     H(rot)  DE(clash)    DE(int)     intcor
      4.87      -6.81       0.91        0.00      49.19       2.91       0.02       1.92       ----

> <Gold.Chemscore.Fitness>
4.8729

> <Gold.Chemscore.DG>
-6.8108

> <Gold.Chemscore.ZeroCoef>
-5.4800

> <Gold.Chemscore.Hbond>
0.9051

> <Gold.Chemscore.Metal>
0.0000

> <Gold.Chemscore.Lipo>
49.1886

> <Gold.Chemscore.Internal_Hbond>
0.0000

> <Gold.Chemscore.DEClash>
0.0173

> <Gold.Chemscore.DEInternal>
1.9206

> <Gold.Chemscore.Rot>
2.9092

> <Gold.Chemscore.Internal.Correction>
   9.000000E+99

> <Gold.Chemscore.Hbonds>
donor molecule, donor type, donor heavy atom, donor atom, acceptor molecule, acceptor atom, score
      P1  H  7997  8008       L1    11  0.79

> <Gold.Chemscore.Hbond.Weighted>
-3.0232

> <Gold.Chemscore.Metal.Weighted>
-0.0000

> <Gold.Chemscore.Lipo.Weighted>
-5.7551

> <Gold.Chemscore.Internal_Hbond.Weighted>
0.0000

> <Gold.Chemscore.DEClash.Weighted>
0.0173

> <Gold.Chemscore.DEInternal.Weighted>
1.9206

> <Gold.Chemscore.Rot.Weighted>
7.4474

> <Gold.Chemscore.Internal.Correction.Weighted>
   9.000000E+99

> <Gold.Protein.RotatedTorsions>
[ 6907 6896 6895 6894 ] final  -98.45 input  -60.11 | X-H torsion
[ 7974 7965 7964 7962 ] final   20.19 input  175.53 | X-H torsion
[ 8008 7997 7996 7995 ] final  -92.83 input   59.86 | X-H torsion
[ 10167 10162 10161 10158 ] final  146.53 input  -65.29 | X-H torsion
[ 10718 10713 10712 10709 ] final -136.40 input   66.30 | X-H torsion
[ 10763 10752 10751 10750 ] final -174.10 input  -60.55 | X-H torsion
[ 11005 11000 10999 10996 ] final -178.28 input  -57.11 | X-H torsion

> <Gold.Protein.ActiveResidues>
 VAL166  LYS551  ARG553  GLY616  TRP617  ASP618  TYR619  PRO620  LYS621  CYS622 
 ASP623  PHE694  ASN695  SER759  ASP760  ASP761  ALA762  ILE779  LEU786  VAL792 
 PHE793  MET794  SER795  GLU796  ALA797  LYS798  CYS799  TRP800  GLU811  SER814 

> <Gold.Protein.RotatedAtoms>
  150.7047  134.1192  159.4028 H   0  0  0  0  0  0  0  0  0  0  0  0  # atno 6907 bound_to 6896
  151.9179  135.0309  160.0529 H   0  0  0  0  0  0  0  0  0  0  0  0  # atno 6908 bound_to 6896
  152.2281  133.5001  159.5237 H   0  0  0  0  0  0  0  0  0  0  0  0  # atno 6909 bound_to 6896
  146.2121  139.8205  142.8681 H   0  0  0  0  0  0  0  0  0  0  0  0  # atno 7974 bound_to 7965
  154.7280  140.0505  157.0700 H   0  0  0  0  0  0  0  0  0  0  0  0  # atno 8008 bound_to 7997
  155.0339  140.3161  155.4729 H   0  0  0  0  0  0  0  0  0  0  0  0  # atno 8009 bound_to 7997
  156.2834  140.2145  156.5461 H   0  0  0  0  0  0  0  0  0  0  0  0  # atno 8010 bound_to 7997
  139.4905  144.5823  151.6848 H   0  0  0  0  0  0  0  0  0  0  0  0  # atno 10167 bound_to 10162
  156.2767  130.7297  151.1281 H   0  0  0  0  0  0  0  0  0  0  0  0  # atno 10718 bound_to 10713
  154.6002  135.2854  155.0543 H   0  0  0  0  0  0  0  0  0  0  0  0  # atno 10763 bound_to 10752
  154.1811  135.6456  153.5038 H   0  0  0  0  0  0  0  0  0  0  0  0  # atno 10764 bound_to 10752
  153.0154  135.5424  154.6718 H   0  0  0  0  0  0  0  0  0  0  0  0  # atno 10765 bound_to 10752
  140.4316  134.6514  157.4714 H   0  0  0  0  0  0  0  0  0  0  0  0  # atno 11005 bound_to 11000
  145.3101  141.0217  143.3559 LP  0  0  0  0  0  0  0  0  0  0  0  0  # atno 17320 bound_to 7965
  144.8942  139.4734  143.6663 LP  0  0  0  0  0  0  0  0  0  0  0  0  # atno 17321 bound_to 7965
  140.5431  144.0547  150.6096 LP  0  0  0  0  0  0  0  0  0  0  0  0  # atno 17342 bound_to 10162
  140.3576  143.2927  152.0419 LP  0  0  0  0  0  0  0  0  0  0  0  0  # atno 17343 bound_to 10162
  157.7301  131.0619  150.5741 LP  0  0  0  0  0  0  0  0  0  0  0  0  # atno 17370 bound_to 10713
  156.5843  130.4312  149.5964 LP  0  0  0  0  0  0  0  0  0  0  0  0  # atno 17371 bound_to 10713
  140.0131  134.6661  155.9351 LP  0  0  0  0  0  0  0  0  0  0  0  0  # atno 17394 bound_to 11000
  141.1743  133.6539  156.4769 LP  0  0  0  0  0  0  0  0  0  0  0  0  # atno 17395 bound_to 11000

$$$$
