AV-unprocessed.smi:2519|AV-procd|sdf|9903|dock10
  -GOLD-   2272013543D 1   1.00000     0.00000
 Structure written by MMmdl.
 43 44  0  0  0  0  0  0  0  0  1 V2000
  151.0625  143.6459  158.1630 C   0  0  0  0  0  0  0  0  0  0  0  0
  151.2284  142.4831  157.3050 N   0  0  0  0  0  0  0  0  0  0  0  0
  150.2164  141.7496  156.8126 C   0  0  0  0  0  0  0  0  0  0  0  0
  149.0324  142.0047  157.0384 O   0  0  0  0  0  0  0  0  0  0  0  0
  150.6070  140.5810  155.9445 C   0  0  0  0  0  0  0  0  0  0  0  0
  151.9516  140.1496  155.9010 C   0  0  0  0  0  0  0  0  0  0  0  0
  152.2868  139.0612  155.0763 C   0  0  0  0  0  0  0  0  0  0  0  0
  151.2729  138.4400  154.3242 C   0  0  0  0  0  0  0  0  0  0  0  0
  149.9501  138.9232  154.4161 C   0  0  0  0  0  0  0  0  0  0  0  0
  148.9972  138.2293  153.6253 N   0  0  0  0  0  0  0  0  0  0  0  0
  147.6581  138.3832  153.6039 C   0  0  0  0  0  0  0  0  0  0  0  0
  147.0392  139.2250  154.2528 O   0  0  0  0  0  0  0  0  0  0  0  0
  147.0161  137.5277  152.7870 N   0  0  0  0  0  0  0  0  0  0  0  0
  145.5775  137.4150  152.5228 C   0  0  2  0  0  0  0  0  0  0  0  0
  144.7980  137.3978  153.8516 C   0  0  0  0  0  0  0  0  0  0  0  0
  145.0112  136.0901  154.6331 C   0  0  0  0  0  0  0  0  0  0  0  0
  144.6736  134.8605  153.7753 C   0  0  0  0  0  0  0  0  0  0  0  0
  145.4755  134.8446  152.4572 C   0  0  1  0  0  0  0  0  0  0  0  0
  145.1512  133.6057  151.5975 C   0  0  0  0  0  0  0  0  0  0  0  0
  145.9397  133.5533  150.5236 F   0  0  0  0  0  0  0  0  0  0  0  0
  145.3245  132.4949  152.3140 F   0  0  0  0  0  0  0  0  0  0  0  0
  143.8801  133.6478  151.1975 F   0  0  0  0  0  0  0  0  0  0  0  0
  145.2446  136.1613  151.6820 C   0  0  0  0  0  0  0  0  0  0  0  0
  149.6402  139.9737  155.2140 N   0  0  0  0  0  0  0  0  0  0  0  0
  152.0324  144.1025  158.3606 H   0  0  0  0  0  0  0  0  0  0  0  0
  150.6181  143.3610  159.1174 H   0  0  0  0  0  0  0  0  0  0  0  0
  150.4241  144.3930  157.6901 H   0  0  0  0  0  0  0  0  0  0  0  0
  152.1715  142.2079  157.0690 H   0  0  0  0  0  0  0  0  0  0  0  0
  152.7186  140.6374  156.4849 H   0  0  0  0  0  0  0  0  0  0  0  0
  153.3058  138.7080  155.0208 H   0  0  0  0  0  0  0  0  0  0  0  0
  151.5130  137.6019  153.6859 H   0  0  0  0  0  0  0  0  0  0  0  0
  149.3729  137.5109  153.0242 H   0  0  0  0  0  0  0  0  0  0  0  0
  147.6010  136.8874  152.2697 H   0  0  0  0  0  0  0  0  0  0  0  0
  145.2599  138.3024  151.9726 H   0  0  0  0  0  0  0  0  0  0  0  0
  145.0806  138.2522  154.4679 H   0  0  0  0  0  0  0  0  0  0  0  0
  143.7340  137.5157  153.6423 H   0  0  0  0  0  0  0  0  0  0  0  0
  146.0455  136.0260  154.9731 H   0  0  0  0  0  0  0  0  0  0  0  0
  144.3943  136.0932  155.5320 H   0  0  0  0  0  0  0  0  0  0  0  0
  144.8759  133.9554  154.3485 H   0  0  0  0  0  0  0  0  0  0  0  0
  143.6050  134.8538  153.5572 H   0  0  0  0  0  0  0  0  0  0  0  0
  146.5346  134.7880  152.7144 H   0  0  0  0  0  0  0  0  0  0  0  0
  144.2003  136.2146  151.3718 H   0  0  0  0  0  0  0  0  0  0  0  0
  145.8259  136.1589  150.7598 H   0  0  0  0  0  0  0  0  0  0  0  0
  1  2  1  0  0  0  0
  1 25  1  0  0  0  0
  1 26  1  0  0  0  0
  1 27  1  0  0  0  0
  2  3  1  0  0  0  0
  2 28  1  0  0  0  0
  3  4  2  0  0  0  0
  3  5  1  0  0  0  0
  5 24  1  0  0  0  0
  5  6  2  0  0  0  0
  6  7  1  0  0  0  0
  6 29  1  0  0  0  0
  7  8  2  0  0  0  0
  7 30  1  0  0  0  0
  8  9  1  0  0  0  0
  8 31  1  0  0  0  0
  9 10  1  0  0  0  0
  9 24  2  0  0  0  0
 10 11  1  0  0  0  0
 10 32  1  0  0  0  0
 11 12  2  0  0  0  0
 11 13  1  0  0  0  0
 13 14  1  0  0  0  0
 13 33  1  0  0  0  0
 14 23  1  0  0  0  0
 14 15  1  0  0  0  0
 14 34  1  0  0  0  0
 15 16  1  0  0  0  0
 15 35  1  0  0  0  0
 15 36  1  0  0  0  0
 16 17  1  0  0  0  0
 16 37  1  0  0  0  0
 16 38  1  0  0  0  0
 17 18  1  0  0  0  0
 17 39  1  0  0  0  0
 17 40  1  0  0  0  0
 18 19  1  0  0  0  0
 18 23  1  0  0  0  0
 18 41  1  0  0  0  0
 19 20  1  0  0  0  0
 19 21  1  0  0  0  0
 19 22  1  0  0  0  0
 23 42  1  0  0  0  0
 23 43  1  0  0  0  0
M  END
> <s_m_source_file>
AV-unprocessed.smi

> <i_m_source_file_index>
2519

> <i_lp_mmshare_version>
43012

> <i_f3d_flags>
0

> <s_epik_input>
W0NIM11bTkhdQyg9TyljMVtjSF1bY0hdW2NIXWMobjEpW05IXUMoPU8pW05IXVtDQEBIXTJbQ0gyXVtDSDJdW0NIMl1bQ0BASF0oQyhGKShGKUYpW0NIMl0y

> <s_epik_cmdline>
J2VwaWtfcHl0aG9uJywgJy1waCcsICc3LjAnLCAnLXRuJywgJzgnLCAnLW1hJywgJzIwMCcsICctbWV0YWxfYmluZGluZycsICctaW1hZScsICc8aW5maWxlLm1hZT4nLCAnLW9tYWUnLCAnPG91dGZpbGUubWFlPic=

> <r_lp_tautomer_probability>
1

> <r_epik_Ionization_Penalty>
3.74915e-05

> <r_epik_Ionization_Penalty_Charging>
0

> <r_epik_Ionization_Penalty_Neutral>
3.74915e-05

> <r_epik_State_Penalty>
-0

> <r_epik_Charging_Adjusted_Penalty>
0

> <i_epik_Tot_Q>
0

> <i_epik_Tot_abs_Q>
0

> <r_epik_Metal_State_Penalty>
-0

> <b_epik_Metal_Only>
0

> <s_lp_Force_Field>
OPLS_2005

> <r_lp_Energy>
26.8043

> <b_lp_Chiralities_Consistent>
1

> <s_lp_Variant>
AV-unprocessed.smi:2519-1

> <Gold.Version>
5.8.1

> <Gold.Id.Protein>
6NUR|6NUR_protein|mol2

> <Gold.PLP.Fitness>
41.3116

> <Gold.PLP.PLP>
-35.9129

> <Gold.PLP.part.hbond>
-2.6405

> <Gold.PLP.part.metal>
0.0000

> <Gold.PLP.part.buried>
-5.3992

> <Gold.PLP.part.nonpolar>
-29.9826

> <Gold.PLP.part.repulsive>
1.0006

> <Gold.PLP.ligand.clash>
0.0000

> <Gold.PLP.ligand.torsion>
0.2030

> <Gold.PLP.Chemscore.Hbond>
1.9280

> <Gold.PLP.Chemscore.CHOScore>
0.0000

> <Gold.PLP.Chemscore.Metal>
0.0000

> <Gold.Chemscore.Hbonds>
donor molecule, donor type, donor heavy atom, donor atom, acceptor molecule, acceptor atom, score
      L1  H    10    32       P1  7948  0.93
      L1  H    13    33       P1  7948  1.00

> <Gold.PLP.Chemscore.Internal.Correction>
0.0207

> <Gold.Rescore>
     Score         DG    S(hbond)    S(metal)    S(lipo)     H(rot)  DE(clash)    DE(int)     intcor
     14.11     -16.80       1.91        0.00      64.15       1.00       0.02       2.67       ----

> <Gold.Chemscore.Fitness>
14.1124

> <Gold.Chemscore.DG>
-16.8008

> <Gold.Chemscore.ZeroCoef>
-5.4800

> <Gold.Chemscore.Hbond>
1.9088

> <Gold.Chemscore.Metal>
0.0000

> <Gold.Chemscore.Lipo>
64.1478

> <Gold.Chemscore.Internal_Hbond>
0.0000

> <Gold.Chemscore.DEClash>
0.0166

> <Gold.Chemscore.DEInternal>
2.6718

> <Gold.Chemscore.Rot>
1.0000

> <Gold.Chemscore.Internal.Correction>
   9.000000E+99

> <Gold.Chemscore.Hbonds>
donor molecule, donor type, donor heavy atom, donor atom, acceptor molecule, acceptor atom, score
      L1  H    10    32       P1  7948  0.83
      L1  H    13    33       P1  7948  0.93

> <Gold.Chemscore.Hbond.Weighted>
-6.3755

> <Gold.Chemscore.Metal.Weighted>
-0.0000

> <Gold.Chemscore.Lipo.Weighted>
-7.5053

> <Gold.Chemscore.Internal_Hbond.Weighted>
0.0000

> <Gold.Chemscore.DEClash.Weighted>
0.0166

> <Gold.Chemscore.DEInternal.Weighted>
2.6718

> <Gold.Chemscore.Rot.Weighted>
2.5600

> <Gold.Chemscore.Internal.Correction.Weighted>
   9.000000E+99

> <Gold.Protein.RotatedTorsions>
[ 6907 6896 6895 6894 ] final   10.87 input  -60.11 | X-H torsion
[ 7974 7965 7964 7962 ] final  -34.53 input  175.53 | X-H torsion
[ 8008 7997 7996 7995 ] final  -49.95 input   59.86 | X-H torsion
[ 10167 10162 10161 10158 ] final  176.28 input  -65.29 | X-H torsion
[ 10718 10713 10712 10709 ] final -160.47 input   66.30 | X-H torsion
[ 10763 10752 10751 10750 ] final  -90.45 input  -60.55 | X-H torsion
[ 11005 11000 10999 10996 ] final -176.30 input  -57.11 | X-H torsion

> <Gold.Protein.ActiveResidues>
 VAL166  LYS551  ARG553  GLY616  TRP617  ASP618  TYR619  PRO620  LYS621  CYS622 
 ASP623  PHE694  ASN695  SER759  ASP760  ASP761  ALA762  ILE779  LEU786  VAL792 
 PHE793  MET794  SER795  GLU796  ALA797  LYS798  CYS799  TRP800  GLU811  SER814 

> <Gold.Protein.RotatedAtoms>
  151.7452  135.0845  160.0321 H   0  0  0  0  0  0  0  0  0  0  0  0  # atno 6907 bound_to 6896
  152.3453  133.6111  159.5914 H   0  0  0  0  0  0  0  0  0  0  0  0  # atno 6908 bound_to 6896
  150.7505  133.9574  159.3546 H   0  0  0  0  0  0  0  0  0  0  0  0  # atno 6909 bound_to 6896
  146.0822  140.6049  142.8903 H   0  0  0  0  0  0  0  0  0  0  0  0  # atno 7974 bound_to 7965
  154.4053  140.1284  156.4587 H   0  0  0  0  0  0  0  0  0  0  0  0  # atno 8008 bound_to 7997
  155.7295  140.3491  155.5033 H   0  0  0  0  0  0  0  0  0  0  0  0  # atno 8009 bound_to 7997
  155.9141  140.1041  157.1247 H   0  0  0  0  0  0  0  0  0  0  0  0  # atno 8010 bound_to 7997
  139.5208  144.2933  152.0444 H   0  0  0  0  0  0  0  0  0  0  0  0  # atno 10167 bound_to 10162
  156.5826  130.8736  151.2868 H   0  0  0  0  0  0  0  0  0  0  0  0  # atno 10718 bound_to 10713
  154.6659  135.5304  153.8076 H   0  0  0  0  0  0  0  0  0  0  0  0  # atno 10763 bound_to 10752
  153.0470  135.6517  154.0800 H   0  0  0  0  0  0  0  0  0  0  0  0  # atno 10764 bound_to 10752
  154.0704  135.2954  155.3289 H   0  0  0  0  0  0  0  0  0  0  0  0  # atno 10765 bound_to 10752
  140.4536  134.6320  157.4812 H   0  0  0  0  0  0  0  0  0  0  0  0  # atno 11005 bound_to 11000
  144.7301  140.4645  143.6944 LP  0  0  0  0  0  0  0  0  0  0  0  0  # atno 17320 bound_to 7965
  145.6197  139.1522  143.3029 LP  0  0  0  0  0  0  0  0  0  0  0  0  # atno 17321 bound_to 7965
  140.2384  144.4295  150.6270 LP  0  0  0  0  0  0  0  0  0  0  0  0  # atno 17342 bound_to 10162
  140.6308  143.2187  151.6500 LP  0  0  0  0  0  0  0  0  0  0  0  0  # atno 17343 bound_to 10162
  157.7323  130.9713  150.1920 LP  0  0  0  0  0  0  0  0  0  0  0  0  # atno 17370 bound_to 10713
  156.2618  130.3711  149.8122 LP  0  0  0  0  0  0  0  0  0  0  0  0  # atno 17371 bound_to 10713
  139.9991  134.6865  155.9560 LP  0  0  0  0  0  0  0  0  0  0  0  0  # atno 17394 bound_to 11000
  141.1653  133.6537  156.4458 LP  0  0  0  0  0  0  0  0  0  0  0  0  # atno 17395 bound_to 11000

$$$$
