AV-unprocessed.smi:281|AV-procd|sdf|2110|dock3
  -GOLD-   2262021403D 1   1.00000     0.00000
 Structure written by MMmdl.
 55 59  0  0  0  0  0  0  0  0  1 V2000
  154.2404  141.0832  160.6054 C   0  0  0  0  0  0  0  0  0  0  0  0
  153.3639  141.6999  159.5109 C   0  0  1  0  0  0  0  0  0  0  0  0
  152.4679  140.6542  158.8324 C   0  0  0  0  0  0  0  0  0  0  0  0
  151.5935  141.3019  157.8602 N   0  0  0  0  0  0  0  0  0  0  0  0
  150.9137  140.5044  156.9951 C   0  0  0  0  0  0  0  0  0  0  0  0
  150.7685  140.8813  155.6956 N   0  0  0  0  0  0  0  0  0  0  0  0
  150.1111  140.1015  154.8327 C   0  0  0  0  0  0  0  0  0  0  0  0
  149.5249  138.9241  155.0525 N   0  0  0  0  0  0  0  0  0  0  0  0
  149.6555  138.5427  156.3550 C   0  0  0  0  0  0  0  0  0  0  0  0
  150.3303  139.2635  157.3815 C   0  0  0  0  0  0  0  0  0  0  0  0
  150.2497  138.5608  158.5778 N   0  0  0  0  0  0  0  0  0  0  0  0
  149.5769  137.4850  158.2751 C   0  0  0  0  0  0  0  0  0  0  0  0
  149.1705  137.3974  156.9632 N   0  0  0  0  0  0  0  0  0  0  0  0
  148.4061  136.3195  156.3538 C   0  0  0  0  0  0  0  0  0  0  0  0
  149.2444  135.4133  155.4213 C   0  0  1  0  0  0  0  0  0  0  0  0
  149.9060  136.2187  154.4609 O   0  0  0  0  0  0  0  0  0  0  0  0
  150.2938  134.6046  156.1734 C   0  0  0  0  0  0  0  0  0  0  0  0
  150.4468  133.3631  155.3057 C   0  0  0  0  0  0  0  0  0  0  0  0
  149.1144  133.0924  154.9051 O   0  0  0  0  0  0  0  0  0  0  0  0
  148.4401  134.3267  154.6775 C   0  0  0  0  0  0  0  0  0  0  0  0
  150.8033  142.3844  158.4390 C   0  0  0  0  0  0  0  0  0  0  0  0
  151.6879  143.4029  159.2053 C   0  0  2  0  0  0  0  0  0  0  0  0
  150.8196  144.3191  160.0625 C   0  0  0  0  0  0  0  0  0  0  0  0
  151.6179  145.6100  160.1231 C   0  0  0  0  0  0  0  0  0  0  0  0
  152.0969  145.7168  158.7968 O   0  0  0  0  0  0  0  0  0  0  0  0
  152.5197  144.4256  158.3717 C   0  0  2  0  0  0  0  0  0  0  0  0
  152.3924  144.3574  156.8435 C   0  0  0  0  0  0  0  0  0  0  0  0
  152.5422  142.6991  160.1136 O   0  0  0  0  0  0  0  0  0  0  0  0
  154.8964  140.3144  160.1968 H   0  0  0  0  0  0  0  0  0  0  0  0
  153.6328  140.6253  161.3864 H   0  0  0  0  0  0  0  0  0  0  0  0
  154.8689  141.8412  161.0735 H   0  0  0  0  0  0  0  0  0  0  0  0
  154.0175  142.1511  158.7639 H   0  0  0  0  0  0  0  0  0  0  0  0
  153.0891  139.9066  158.3369 H   0  0  0  0  0  0  0  0  0  0  0  0
  151.8632  140.1361  159.5785 H   0  0  0  0  0  0  0  0  0  0  0  0
  150.0445  140.4748  153.8214 H   0  0  0  0  0  0  0  0  0  0  0  0
  149.3556  136.7239  159.0088 H   0  0  0  0  0  0  0  0  0  0  0  0
  147.9579  135.7248  157.1511 H   0  0  0  0  0  0  0  0  0  0  0  0
  147.5763  136.7623  155.8014 H   0  0  0  0  0  0  0  0  0  0  0  0
  149.6339  135.9432  153.5989 H   0  0  0  0  0  0  0  0  0  0  0  0
  151.2321  135.1387  156.3297 H   0  0  0  0  0  0  0  0  0  0  0  0
  149.9133  134.3088  157.1525 H   0  0  0  0  0  0  0  0  0  0  0  0
  151.0597  133.5713  154.4272 H   0  0  0  0  0  0  0  0  0  0  0  0
  150.8854  132.5218  155.8425 H   0  0  0  0  0  0  0  0  0  0  0  0
  147.4251  134.2281  155.0610 H   0  0  0  0  0  0  0  0  0  0  0  0
  148.3671  134.5247  153.6070 H   0  0  0  0  0  0  0  0  0  0  0  0
  150.2028  142.8964  157.6887 H   0  0  0  0  0  0  0  0  0  0  0  0
  150.0930  141.9334  159.1338 H   0  0  0  0  0  0  0  0  0  0  0  0
  149.8691  144.5165  159.5643 H   0  0  0  0  0  0  0  0  0  0  0  0
  150.5980  143.9080  161.0480 H   0  0  0  0  0  0  0  0  0  0  0  0
  151.0117  146.4710  160.4050 H   0  0  0  0  0  0  0  0  0  0  0  0
  152.4548  145.5264  160.8183 H   0  0  0  0  0  0  0  0  0  0  0  0
  153.5745  144.3488  158.6367 H   0  0  0  0  0  0  0  0  0  0  0  0
  152.7285  143.3954  156.4571 H   0  0  0  0  0  0  0  0  0  0  0  0
  153.0044  145.1269  156.3730 H   0  0  0  0  0  0  0  0  0  0  0  0
  151.3639  144.5187  156.5214 H   0  0  0  0  0  0  0  0  0  0  0  0
  1  2  1  0  0  0  0
  1 29  1  0  0  0  0
  1 30  1  0  0  0  0
  1 31  1  0  0  0  0
  2 28  1  0  0  0  0
  2  3  1  0  0  0  0
  2 32  1  0  0  0  0
  3  4  1  0  0  0  0
  3 33  1  0  0  0  0
  3 34  1  0  0  0  0
  4  5  1  0  0  0  0
  4 21  1  0  0  0  0
  5 10  1  0  0  0  0
  5  6  2  0  0  0  0
  6  7  1  0  0  0  0
  7  8  2  0  0  0  0
  7 35  1  0  0  0  0
  8  9  1  0  0  0  0
  9 13  1  0  0  0  0
  9 10  2  0  0  0  0
 10 11  1  0  0  0  0
 11 12  2  0  0  0  0
 12 13  1  0  0  0  0
 12 36  1  0  0  0  0
 13 14  1  0  0  0  0
 14 15  1  0  0  0  0
 14 37  1  0  0  0  0
 14 38  1  0  0  0  0
 15 20  1  0  0  0  0
 15 16  1  0  0  0  0
 15 17  1  0  0  0  0
 16 39  1  0  0  0  0
 17 18  1  0  0  0  0
 17 40  1  0  0  0  0
 17 41  1  0  0  0  0
 18 19  1  0  0  0  0
 18 42  1  0  0  0  0
 18 43  1  0  0  0  0
 19 20  1  0  0  0  0
 20 44  1  0  0  0  0
 20 45  1  0  0  0  0
 21 22  1  0  0  0  0
 21 46  1  0  0  0  0
 21 47  1  0  0  0  0
 22 26  1  0  0  0  0
 22 23  1  0  0  0  0
 22 28  1  0  0  0  0
 23 24  1  0  0  0  0
 23 48  1  0  0  0  0
 23 49  1  0  0  0  0
 24 25  1  0  0  0  0
 24 50  1  0  0  0  0
 24 51  1  0  0  0  0
 25 26  1  0  0  0  0
 26 27  1  0  0  0  0
 26 52  1  0  0  0  0
 27 53  1  0  0  0  0
 27 54  1  0  0  0  0
 27 55  1  0  0  0  0
M  END
> <s_m_source_file>
AV-unprocessed.smi

> <i_m_source_file_index>
281

> <i_lp_mmshare_version>
43012

> <i_f3d_flags>
0

> <s_epik_input>
W0NIM11bQ0BASF0xT1tDSDJdW0NIMl1bQ0BAXTEyW0NIMl1OKFtDSDJdW0NASF0oTzIpW0NIM10pYyhuW2NIXW4zKWMoYzM0KW5bY0hdbjRbQ0gyXVtDQEBdNShbT0hdKVtDSDJdW0NIMl1PW0NIMl01

> <s_epik_cmdline>
J2VwaWtfcHl0aG9uJywgJy1waCcsICc3LjAnLCAnLXRuJywgJzgnLCAnLW1hJywgJzIwMCcsICctbWV0YWxfYmluZGluZycsICctaW1hZScsICc8aW5maWxlLm1hZT4nLCAnLW9tYWUnLCAnPG91dGZpbGUubWFlPic=

> <r_lp_tautomer_probability>
1

> <r_epik_Ionization_Penalty>
0.00571331

> <r_epik_Ionization_Penalty_Charging>
0

> <r_epik_Ionization_Penalty_Neutral>
0.00571331

> <r_epik_State_Penalty>
0.00399586

> <r_epik_Charging_Adjusted_Penalty>
0.00399586

> <i_epik_Tot_Q>
0

> <i_epik_Tot_abs_Q>
0

> <r_epik_Metal_State_Penalty>
-0

> <b_epik_Metal_Only>
0

> <s_lp_Force_Field>
OPLS_2005

> <r_lp_Energy>
52.955

> <b_lp_Chiralities_Consistent>
1

> <s_lp_Variant>
AV-unprocessed.smi:281-10

> <Gold.Version>
5.8.1

> <Gold.Id.Protein>
6NUR|6NUR_protein|mol2

> <Gold.PLP.Fitness>
45.6438

> <Gold.PLP.PLP>
-42.4405

> <Gold.PLP.part.hbond>
-2.9315

> <Gold.PLP.part.metal>
0.0000

> <Gold.PLP.part.buried>
-6.1566

> <Gold.PLP.part.nonpolar>
-33.0426

> <Gold.PLP.part.repulsive>
0.2699

> <Gold.PLP.ligand.clash>
0.0000

> <Gold.PLP.ligand.torsion>
0.7928

> <Gold.PLP.Chemscore.Hbond>
1.0000

> <Gold.PLP.Chemscore.CHOScore>
0.5092

> <Gold.PLP.Chemscore.Metal>
0.0000

> <Gold.Chemscore.Hbonds>
donor molecule, donor type, donor heavy atom, donor atom, acceptor molecule, acceptor atom, score
      L1  H    16    39       P1  7948  1.00
      L1  C     7    35       P1  7957  0.51

> <Gold.PLP.Chemscore.Internal.Correction>
0.2612

> <Gold.Rescore>
     Score         DG    S(hbond)    S(metal)    S(lipo)     H(rot)  DE(clash)    DE(int)     intcor
     14.18     -16.99       0.95        0.00     117.16       2.09       0.25       2.56       ----

> <Gold.Chemscore.Fitness>
14.1805

> <Gold.Chemscore.DG>
-16.9905

> <Gold.Chemscore.ZeroCoef>
-5.4800

> <Gold.Chemscore.Hbond>
0.9463

> <Gold.Chemscore.Metal>
0.0000

> <Gold.Chemscore.Lipo>
117.1563

> <Gold.Chemscore.Internal_Hbond>
0.0000

> <Gold.Chemscore.DEClash>
0.2520

> <Gold.Chemscore.DEInternal>
2.5580

> <Gold.Chemscore.Rot>
2.0927

> <Gold.Chemscore.Internal.Correction>
   9.000000E+99

> <Gold.Chemscore.Hbonds>
donor molecule, donor type, donor heavy atom, donor atom, acceptor molecule, acceptor atom, score
      L1  H    16    39       P1  7948  0.25

> <Gold.Chemscore.Hbond.Weighted>
-3.1606

> <Gold.Chemscore.Metal.Weighted>
-0.0000

> <Gold.Chemscore.Lipo.Weighted>
-13.7073

> <Gold.Chemscore.Internal_Hbond.Weighted>
0.0000

> <Gold.Chemscore.DEClash.Weighted>
0.2520

> <Gold.Chemscore.DEInternal.Weighted>
2.5580

> <Gold.Chemscore.Rot.Weighted>
5.3573

> <Gold.Chemscore.Internal.Correction.Weighted>
   9.000000E+99

> <Gold.Protein.RotatedTorsions>
[ 6907 6896 6895 6894 ] final  163.92 input  -60.11 | X-H torsion
[ 7974 7965 7964 7962 ] final  151.82 input  175.53 | X-H torsion
[ 8008 7997 7996 7995 ] final  145.40 input   59.86 | X-H torsion
[ 10167 10162 10161 10158 ] final  -45.81 input  -65.29 | X-H torsion
[ 10718 10713 10712 10709 ] final  -68.09 input   66.30 | X-H torsion
[ 10763 10752 10751 10750 ] final   76.64 input  -60.55 | X-H torsion
[ 11005 11000 10999 10996 ] final   72.27 input  -57.11 | X-H torsion

> <Gold.Protein.ActiveResidues>
 VAL166  LYS551  ARG553  GLY616  TRP617  ASP618  TYR619  PRO620  LYS621  CYS622 
 ASP623  PHE694  ASN695  SER759  ASP760  ASP761  ALA762  ILE779  LEU786  VAL792 
 PHE793  MET794  SER795  GLU796  ALA797  LYS798  CYS799  TRP800  GLU811  SER814 

> <Gold.Protein.RotatedAtoms>
  151.9178  133.3578  159.3886 H   0  0  0  0  0  0  0  0  0  0  0  0  # atno 6907 bound_to 6896
  150.7043  134.4666  159.5415 H   0  0  0  0  0  0  0  0  0  0  0  0  # atno 6908 bound_to 6896
  152.2284  134.8346  160.0528 H   0  0  0  0  0  0  0  0  0  0  0  0  # atno 6909 bound_to 6896
  144.8266  139.6587  143.6077 H   0  0  0  0  0  0  0  0  0  0  0  0  # atno 7974 bound_to 7965
  156.2884  140.2210  156.5208 H   0  0  0  0  0  0  0  0  0  0  0  0  # atno 8008 bound_to 7997
  154.7530  140.0479  157.0931 H   0  0  0  0  0  0  0  0  0  0  0  0  # atno 8009 bound_to 7997
  155.0086  140.3110  155.4842 H   0  0  0  0  0  0  0  0  0  0  0  0  # atno 8010 bound_to 7997
  140.6843  143.2861  151.3692 H   0  0  0  0  0  0  0  0  0  0  0  0  # atno 10167 bound_to 10162
  156.0523  130.4289  150.1950 H   0  0  0  0  0  0  0  0  0  0  0  0  # atno 10718 bound_to 10713
  153.0740  135.4944  154.8366 H   0  0  0  0  0  0  0  0  0  0  0  0  # atno 10763 bound_to 10752
  154.7062  135.3011  154.9269 H   0  0  0  0  0  0  0  0  0  0  0  0  # atno 10764 bound_to 10752
  153.9977  135.6770  153.4810 H   0  0  0  0  0  0  0  0  0  0  0  0  # atno 10765 bound_to 10752
  139.9499  134.7245  156.0887 H   0  0  0  0  0  0  0  0  0  0  0  0  # atno 11005 bound_to 11000
  146.2570  139.6326  142.9388 LP  0  0  0  0  0  0  0  0  0  0  0  0  # atno 17320 bound_to 7965
  145.4988  141.0438  143.2552 LP  0  0  0  0  0  0  0  0  0  0  0  0  # atno 17321 bound_to 7965
  139.6189  144.0947  152.2372 LP  0  0  0  0  0  0  0  0  0  0  0  0  # atno 17342 bound_to 10162
  140.0385  144.6026  150.7430 LP  0  0  0  0  0  0  0  0  0  0  0  0  # atno 17343 bound_to 10162
  157.0031  130.9928  151.3385 LP  0  0  0  0  0  0  0  0  0  0  0  0  # atno 17370 bound_to 10713
  157.5461  130.8152  149.8088 LP  0  0  0  0  0  0  0  0  0  0  0  0  # atno 17371 bound_to 10713
  141.1160  133.6628  156.3094 LP  0  0  0  0  0  0  0  0  0  0  0  0  # atno 17394 bound_to 11000
  140.5743  134.5809  157.5465 LP  0  0  0  0  0  0  0  0  0  0  0  0  # atno 17395 bound_to 11000

$$$$
