AV-unprocessed.smi:2482|AV-procd|sdf|9784|dock9
  -GOLD-   2272013423D 1   1.00000     0.00000
 Structure written by MMmdl.
 34 35  0  0  0  0  0  0  0  0  3 V2000
  152.0488  145.8398  159.7251 C   0  0  0  0  0  0  0  0  0  0  0  0
  152.2720  144.3517  159.9206 C   0  0  0  0  0  0  0  0  0  0  0  0
  152.6279  143.9753  161.1678 N   0  0  0  0  0  0  0  0  0  0  0  0
  152.8334  142.6626  161.3926 C   0  0  0  0  0  0  0  0  0  0  0  0
  152.6974  141.6774  160.3965 C   0  0  0  0  0  0  0  0  0  0  0  0
  152.3337  142.0570  159.0852 C   0  0  0  0  0  0  0  0  0  0  0  0
  152.1942  141.1282  158.1248 N   0  5  0  0  0  0  0  0  0  0  0  0
  152.9826  140.0256  158.1315 C   0  0  0  0  0  0  0  0  0  0  0  0
  153.9495  139.7764  158.8541 O   0  0  0  0  0  0  0  0  0  0  0  0
  152.5377  139.0154  157.0630 C   0  0  1  0  0  0  0  0  0  0  0  0
  151.0307  138.6803  157.1378 C   0  0  0  0  0  0  0  0  0  0  0  0
  150.6589  137.7518  156.0464 N   0  3  1  0  0  0  0  0  0  0  0  0
  149.2375  137.3503  156.0985 C   0  0  0  0  0  0  0  0  0  0  0  0
  151.0498  138.3042  154.7295 C   0  0  0  0  0  0  0  0  0  0  0  0
  152.5453  138.6619  154.7248 C   0  0  0  0  0  0  0  0  0  0  0  0
  152.8222  139.5714  155.7817 O   0  0  0  0  0  0  0  0  0  0  0  0
  152.1096  143.4387  158.8511 C   0  0  0  0  0  0  0  0  0  0  0  0
  151.6435  144.0101  157.2815 Cl  0  0  0  0  0  0  0  0  0  0  0  0
  152.7246  146.2275  158.9625 H   0  0  0  0  0  0  0  0  0  0  0  0
  152.2256  146.3968  160.6462 H   0  0  0  0  0  0  0  0  0  0  0  0
  151.0234  146.0303  159.4075 H   0  0  0  0  0  0  0  0  0  0  0  0
  153.1145  142.3873  162.3982 H   0  0  0  0  0  0  0  0  0  0  0  0
  152.8751  140.6398  160.6387 H   0  0  0  0  0  0  0  0  0  0  0  0
  153.1104  138.0937  157.1920 H   0  0  0  0  0  0  0  0  0  0  0  0
  150.7969  138.2218  158.1000 H   0  0  0  0  0  0  0  0  0  0  0  0
  150.4276  139.5867  157.0564 H   0  0  0  0  0  0  0  0  0  0  0  0
  148.5819  138.2115  155.9625 H   0  0  0  0  0  0  0  0  0  0  0  0
  149.0035  136.8902  157.0591 H   0  0  0  0  0  0  0  0  0  0  0  0
  149.0146  136.6231  155.3172 H   0  0  0  0  0  0  0  0  0  0  0  0
  150.8392  137.5755  153.9459 H   0  0  0  0  0  0  0  0  0  0  0  0
  150.4538  139.1920  154.5121 H   0  0  0  0  0  0  0  0  0  0  0  0
  153.1616  137.7674  154.8276 H   0  0  0  0  0  0  0  0  0  0  0  0
  152.8171  139.1282  153.7776 H   0  0  0  0  0  0  0  0  0  0  0  0
  151.2049  136.9131  156.1838 H   0  0  0  0  0  0  0  0  0  0  0  0
  1  2  1  0  0  0  0
  1 19  1  0  0  0  0
  1 20  1  0  0  0  0
  1 21  1  0  0  0  0
  2 17  1  0  0  0  0
  2  3  2  0  0  0  0
  3  4  1  0  0  0  0
  4  5  2  0  0  0  0
  4 22  1  0  0  0  0
  5  6  1  0  0  0  0
  5 23  1  0  0  0  0
  6  7  1  0  0  0  0
  6 17  2  0  0  0  0
  7  8  1  0  0  0  0
  8  9  2  0  0  0  0
  8 10  1  0  0  0  0
 10 16  1  0  0  0  0
 10 11  1  0  0  0  0
 10 24  1  0  0  0  0
 11 12  1  0  0  0  0
 11 25  1  0  0  0  0
 11 26  1  0  0  0  0
 12 13  1  0  0  0  0
 12 14  1  0  0  0  0
 12 34  1  0  0  0  0
 13 27  1  0  0  0  0
 13 28  1  0  0  0  0
 13 29  1  0  0  0  0
 14 15  1  0  0  0  0
 14 30  1  0  0  0  0
 14 31  1  0  0  0  0
 15 16  1  0  0  0  0
 15 32  1  0  0  0  0
 15 33  1  0  0  0  0
 17 18  1  0  0  0  0
M  CHG  1   7  -1
M  CHG  1  12   1
M  END
> <s_m_source_file>
AV-unprocessed.smi

> <i_m_source_file_index>
2482

> <i_lp_mmshare_version>
43012

> <i_f3d_flags>
0

> <s_epik_input>
W0NIM11jMW5bY0hdW2NIXWMoYzFDbClbTkhdQyg9TylbQ0BASF0yW0NIMl1OKFtDSDNdKVtDSDJdW0NIMl1PMg==

> <s_epik_cmdline>
J2VwaWtfcHl0aG9uJywgJy1waCcsICc3LjAnLCAnLXRuJywgJzgnLCAnLW1hJywgJzIwMCcsICctbWV0YWxfYmluZGluZycsICctaW1hZScsICc8aW5maWxlLm1hZT4nLCAnLW9tYWUnLCAnPG91dGZpbGUubWFlPic=

> <r_epik_Ionization_Penalty>
6.9249

> <r_epik_Ionization_Penalty_Charging>
6.74596

> <r_epik_Ionization_Penalty_Neutral>
0.178941

> <r_epik_State_Penalty>
6.78185

> <r_epik_Charging_Adjusted_Penalty>
13.5278

> <i_epik_Tot_Q>
0

> <i_epik_Tot_abs_Q>
2

> <r_epik_Metal_State_Penalty>
2.70608

> <b_epik_Metal_Only>
1

> <s_lp_Force_Field>
OPLS_2005

> <r_lp_Energy>
14.2833

> <b_lp_Chiralities_Consistent>
1

> <s_lp_Variant>
AV-unprocessed.smi:2482-10

> <Gold.Version>
5.8.1

> <Gold.Id.Protein>
6NUR|6NUR_protein|mol2

> <Gold.PLP.Fitness>
38.6037

> <Gold.PLP.PLP>
-35.8576

> <Gold.PLP.part.hbond>
-2.0000

> <Gold.PLP.part.metal>
0.0000

> <Gold.PLP.part.buried>
-1.5529

> <Gold.PLP.part.nonpolar>
-31.3777

> <Gold.PLP.part.repulsive>
0.1485

> <Gold.PLP.ligand.clash>
0.0132

> <Gold.PLP.ligand.torsion>
0.3808

> <Gold.PLP.Chemscore.Hbond>
1.0278

> <Gold.PLP.Chemscore.CHOScore>
0.0000

> <Gold.PLP.Chemscore.Metal>
0.0000

> <Gold.Chemscore.Hbonds>
donor molecule, donor type, donor heavy atom, donor atom, acceptor molecule, acceptor atom, score
      P1  H  7997  8009       L1     9  0.11
      P1  H  7997  8010       L1    16  0.85

> <Gold.PLP.Chemscore.Internal.Correction>
0.4374

> <Gold.Rescore>
     Score         DG    S(hbond)    S(metal)    S(lipo)     H(rot)  DE(clash)    DE(int)     intcor
     16.36     -18.44       0.91        0.00     106.61       1.00       0.10       1.98       ----

> <Gold.Chemscore.Fitness>
16.3638

> <Gold.Chemscore.DG>
-18.4410

> <Gold.Chemscore.ZeroCoef>
-5.4800

> <Gold.Chemscore.Hbond>
0.9125

> <Gold.Chemscore.Metal>
0.0000

> <Gold.Chemscore.Lipo>
106.6088

> <Gold.Chemscore.Internal_Hbond>
0.0000

> <Gold.Chemscore.DEClash>
0.1008

> <Gold.Chemscore.DEInternal>
1.9765

> <Gold.Chemscore.Rot>
1.0000

> <Gold.Chemscore.Internal.Correction>
   9.000000E+99

> <Gold.Chemscore.Hbonds>
donor molecule, donor type, donor heavy atom, donor atom, acceptor molecule, acceptor atom, score
      P1  H  7997  8009       L1     9  0.02
      P1  H  7997  8010       L1    16  0.15

> <Gold.Chemscore.Hbond.Weighted>
-3.0478

> <Gold.Chemscore.Metal.Weighted>
-0.0000

> <Gold.Chemscore.Lipo.Weighted>
-12.4732

> <Gold.Chemscore.Internal_Hbond.Weighted>
0.0000

> <Gold.Chemscore.DEClash.Weighted>
0.1008

> <Gold.Chemscore.DEInternal.Weighted>
1.9765

> <Gold.Chemscore.Rot.Weighted>
2.5600

> <Gold.Chemscore.Internal.Correction.Weighted>
   9.000000E+99

> <Gold.Protein.RotatedTorsions>
[ 6907 6896 6895 6894 ] final -136.39 input  -60.11 | X-H torsion
[ 7974 7965 7964 7962 ] final  153.43 input  175.53 | X-H torsion
[ 8008 7997 7996 7995 ] final   88.98 input   59.86 | X-H torsion
[ 10167 10162 10161 10158 ] final  160.99 input  -65.29 | X-H torsion
[ 10718 10713 10712 10709 ] final  177.47 input   66.30 | X-H torsion
[ 10763 10752 10751 10750 ] final -111.90 input  -60.55 | X-H torsion
[ 11005 11000 10999 10996 ] final  142.15 input  -57.11 | X-H torsion

> <Gold.Protein.ActiveResidues>
 VAL166  LYS551  ARG553  GLY616  TRP617  ASP618  TYR619  PRO620  LYS621  CYS622 
 ASP623  PHE694  ASN695  SER759  ASP760  ASP761  ALA762  ILE779  LEU786  VAL792 
 PHE793  MET794  SER795  GLU796  ALA797  LYS798  CYS799  TRP800  GLU811  SER814 

> <Gold.Protein.RotatedAtoms>
  151.0095  133.5978  159.2684 H   0  0  0  0  0  0  0  0  0  0  0  0  # atno 6907 bound_to 6896
  151.3135  135.0799  159.9290 H   0  0  0  0  0  0  0  0  0  0  0  0  # atno 6908 bound_to 6896
  152.5296  133.9756  159.7836 H   0  0  0  0  0  0  0  0  0  0  0  0  # atno 6909 bound_to 6896
  144.8155  139.6800  143.6123 H   0  0  0  0  0  0  0  0  0  0  0  0  # atno 7974 bound_to 7965
  155.9943  140.3366  155.6784 H   0  0  0  0  0  0  0  0  0  0  0  0  # atno 8008 bound_to 7997
  155.6377  140.0692  157.2646 H   0  0  0  0  0  0  0  0  0  0  0  0  # atno 8009 bound_to 7997
  154.4229  140.1748  156.1527 H   0  0  0  0  0  0  0  0  0  0  0  0  # atno 8010 bound_to 7997
  139.4845  144.4580  151.8743 H   0  0  0  0  0  0  0  0  0  0  0  0  # atno 10167 bound_to 10162
  156.9049  130.9891  151.3030 H   0  0  0  0  0  0  0  0  0  0  0  0  # atno 10718 bound_to 10713
  154.8323  135.4510  154.1111 H   0  0  0  0  0  0  0  0  0  0  0  0  # atno 10763 bound_to 10752
  153.2373  135.6912  153.7829 H   0  0  0  0  0  0  0  0  0  0  0  0  # atno 10764 bound_to 10752
  153.7190  135.3345  155.3238 H   0  0  0  0  0  0  0  0  0  0  0  0  # atno 10765 bound_to 10752
  140.0455  134.9283  157.0922 H   0  0  0  0  0  0  0  0  0  0  0  0  # atno 11005 bound_to 11000
  146.2457  139.6094  142.9461 LP  0  0  0  0  0  0  0  0  0  0  0  0  # atno 17320 bound_to 7965
  145.5225  141.0431  143.2427 LP  0  0  0  0  0  0  0  0  0  0  0  0  # atno 17321 bound_to 7965
  140.4040  144.2455  150.5891 LP  0  0  0  0  0  0  0  0  0  0  0  0  # atno 17342 bound_to 10162
  140.5029  143.2312  151.8651 LP  0  0  0  0  0  0  0  0  0  0  0  0  # atno 17343 bound_to 10162
  157.6003  130.8508  149.8792 LP  0  0  0  0  0  0  0  0  0  0  0  0  # atno 17370 bound_to 10713
  156.0564  130.3707  150.1082 LP  0  0  0  0  0  0  0  0  0  0  0  0  # atno 17371 bound_to 10713
  140.4000  134.2093  155.7164 LP  0  0  0  0  0  0  0  0  0  0  0  0  # atno 17394 bound_to 11000
  141.1905  133.8216  157.0917 LP  0  0  0  0  0  0  0  0  0  0  0  0  # atno 17395 bound_to 11000

$$$$
