AV-unprocessed.smi:3229|AV-procd|sdf|12327|dock4
  -GOLD-   2272018173D 1   1.00000     0.00000
 Structure written by MMmdl.
 35 36  0  0  0  0  0  0  0  0  1 V2000
  151.4513  145.3494  159.6726 C   0  0  0  0  0  0  0  0  0  0  0  0
  151.9929  144.4860  158.5280 C   0  0  0  0  0  0  0  0  0  0  0  0
  152.4006  143.1172  158.9638 C   0  0  0  0  0  0  0  0  0  0  0  0
  152.0313  141.9176  158.4075 C   0  0  0  0  0  0  0  0  0  0  0  0
  152.5822  140.8052  159.0465 N   0  0  0  0  0  0  0  0  0  0  0  0
  153.3556  141.1418  160.0823 C   0  0  0  0  0  0  0  0  0  0  0  0
  154.0965  140.1489  160.9199 C   0  0  0  0  0  0  0  0  0  0  0  0
  153.7166  138.6825  160.6338 C   0  0  0  0  0  0  0  0  0  0  0  0
  154.2089  137.7603  161.6523 N   0  0  0  0  0  0  0  0  0  0  0  0
  154.2674  136.4256  161.5241 C   0  0  0  0  0  0  0  0  0  0  0  0
  153.8756  135.8296  160.5203 O   0  0  0  0  0  0  0  0  0  0  0  0
  154.8903  135.6510  162.6927 C   0  0  2  0  0  0  0  0  0  0  0  0
  154.8417  134.1270  162.5431 C   0  0  0  0  0  0  0  0  0  0  0  0
  154.8544  133.6781  163.9868 C   0  0  0  0  0  0  0  0  0  0  0  0
  153.9850  134.7396  164.6523 C   0  0  0  0  0  0  0  0  0  0  0  0
  154.1843  135.9346  163.9019 O   0  0  0  0  0  0  0  0  0  0  0  0
  153.4694  142.8807  160.3235 S   0  0  0  0  0  0  0  0  0  0  0  0
  151.1771  146.3417  159.3138 H   0  0  0  0  0  0  0  0  0  0  0  0
  152.1975  145.4735  160.4581 H   0  0  0  0  0  0  0  0  0  0  0  0
  150.5640  144.9013  160.1202 H   0  0  0  0  0  0  0  0  0  0  0  0
  151.2364  144.4052  157.7469 H   0  0  0  0  0  0  0  0  0  0  0  0
  152.8449  144.9907  158.0710 H   0  0  0  0  0  0  0  0  0  0  0  0
  151.3832  141.7636  157.5574 H   0  0  0  0  0  0  0  0  0  0  0  0
  155.1655  140.2878  160.7572 H   0  0  0  0  0  0  0  0  0  0  0  0
  153.9174  140.3809  161.9706 H   0  0  0  0  0  0  0  0  0  0  0  0
  152.6309  138.5890  160.6061 H   0  0  0  0  0  0  0  0  0  0  0  0
  154.0762  138.3824  159.6485 H   0  0  0  0  0  0  0  0  0  0  0  0
  154.5560  138.1663  162.5094 H   0  0  0  0  0  0  0  0  0  0  0  0
  155.9239  135.9750  162.8239 H   0  0  0  0  0  0  0  0  0  0  0  0
  153.9185  133.8023  162.0597 H   0  0  0  0  0  0  0  0  0  0  0  0
  155.6842  133.7317  161.9746 H   0  0  0  0  0  0  0  0  0  0  0  0
  154.4753  132.6653  164.1268 H   0  0  0  0  0  0  0  0  0  0  0  0
  155.8700  133.7221  164.3825 H   0  0  0  0  0  0  0  0  0  0  0  0
  152.9320  134.4630  164.5865 H   0  0  0  0  0  0  0  0  0  0  0  0
  154.2322  134.8820  165.7045 H   0  0  0  0  0  0  0  0  0  0  0  0
  1  2  1  0  0  0  0
  1 18  1  0  0  0  0
  1 19  1  0  0  0  0
  1 20  1  0  0  0  0
  2  3  1  0  0  0  0
  2 21  1  0  0  0  0
  2 22  1  0  0  0  0
  3 17  1  0  0  0  0
  3  4  2  0  0  0  0
  4  5  1  0  0  0  0
  4 23  1  0  0  0  0
  5  6  2  0  0  0  0
  6  7  1  0  0  0  0
  6 17  1  0  0  0  0
  7  8  1  0  0  0  0
  7 24  1  0  0  0  0
  7 25  1  0  0  0  0
  8  9  1  0  0  0  0
  8 26  1  0  0  0  0
  8 27  1  0  0  0  0
  9 10  1  0  0  0  0
  9 28  1  0  0  0  0
 10 11  2  0  0  0  0
 10 12  1  0  0  0  0
 12 16  1  0  0  0  0
 12 13  1  0  0  0  0
 12 29  1  0  0  0  0
 13 14  1  0  0  0  0
 13 30  1  0  0  0  0
 13 31  1  0  0  0  0
 14 15  1  0  0  0  0
 14 32  1  0  0  0  0
 14 33  1  0  0  0  0
 15 16  1  0  0  0  0
 15 34  1  0  0  0  0
 15 35  1  0  0  0  0
M  END
> <s_m_source_file>
AV-unprocessed.smi

> <i_m_source_file_index>
3229

> <i_lp_mmshare_version>
43012

> <i_f3d_flags>
0

> <s_epik_input>
W0NIM11bQ0gyXWMxW2NIXW5jKHMxKVtDSDJdW0NIMl1bTkhdQyg9TylbQ0BASF0yW0NIMl1bQ0gyXVtDSDJdTzI=

> <s_epik_cmdline>
J2VwaWtfcHl0aG9uJywgJy1waCcsICc3LjAnLCAnLXRuJywgJzgnLCAnLW1hJywgJzIwMCcsICctbWV0YWxfYmluZGluZycsICctaW1hZScsICc8aW5maWxlLm1hZT4nLCAnLW9tYWUnLCAnPG91dGZpbGUubWFlPic=

> <r_epik_Ionization_Penalty>
0.000508191

> <r_epik_Ionization_Penalty_Charging>
0

> <r_epik_Ionization_Penalty_Neutral>
0.000508191

> <r_epik_State_Penalty>
0.000316483

> <r_epik_Charging_Adjusted_Penalty>
0.000316483

> <i_epik_Tot_Q>
0

> <i_epik_Tot_abs_Q>
0

> <r_epik_Metal_State_Penalty>
-0

> <b_epik_Metal_Only>
0

> <s_lp_Force_Field>
OPLS_2005

> <r_lp_Energy>
9.62318

> <b_lp_Chiralities_Consistent>
1

> <s_lp_Variant>
AV-unprocessed.smi:3229-1

> <Gold.Version>
5.8.1

> <Gold.Id.Protein>
6NUR|6NUR_protein|mol2

> <Gold.PLP.Fitness>
38.7929

> <Gold.PLP.PLP>
-36.3833

> <Gold.PLP.part.hbond>
-1.0000

> <Gold.PLP.part.metal>
0.0000

> <Gold.PLP.part.buried>
-5.0675

> <Gold.PLP.part.nonpolar>
-30.8033

> <Gold.PLP.part.repulsive>
0.0706

> <Gold.PLP.ligand.clash>
0.0000

> <Gold.PLP.ligand.torsion>
0.3124

> <Gold.PLP.Chemscore.Hbond>
1.0000

> <Gold.PLP.Chemscore.CHOScore>
0.0000

> <Gold.PLP.Chemscore.Metal>
0.0000

> <Gold.Chemscore.Hbonds>
donor molecule, donor type, donor heavy atom, donor atom, acceptor molecule, acceptor atom, score
      P1  H  6896  6908       L1    11  1.00

> <Gold.PLP.Chemscore.Internal.Correction>
0.0344

> <Gold.Rescore>
     Score         DG    S(hbond)    S(metal)    S(lipo)     H(rot)  DE(clash)    DE(int)     intcor
     17.49     -17.70       1.00        0.00     111.03       1.60       0.04       0.17       ----

> <Gold.Chemscore.Fitness>
17.4903

> <Gold.Chemscore.DG>
-17.7042

> <Gold.Chemscore.ZeroCoef>
-5.4800

> <Gold.Chemscore.Hbond>
0.9998

> <Gold.Chemscore.Metal>
0.0000

> <Gold.Chemscore.Lipo>
111.0337

> <Gold.Chemscore.Internal_Hbond>
0.0000

> <Gold.Chemscore.DEClash>
0.0423

> <Gold.Chemscore.DEInternal>
0.1717

> <Gold.Chemscore.Rot>
1.6040

> <Gold.Chemscore.Internal.Correction>
   9.000000E+99

> <Gold.Chemscore.Hbonds>
donor molecule, donor type, donor heavy atom, donor atom, acceptor molecule, acceptor atom, score
      P1  H  6896  6908       L1    11  1.00

> <Gold.Chemscore.Hbond.Weighted>
-3.3395

> <Gold.Chemscore.Metal.Weighted>
-0.0000

> <Gold.Chemscore.Lipo.Weighted>
-12.9909

> <Gold.Chemscore.Internal_Hbond.Weighted>
0.0000

> <Gold.Chemscore.DEClash.Weighted>
0.0423

> <Gold.Chemscore.DEInternal.Weighted>
0.1717

> <Gold.Chemscore.Rot.Weighted>
4.1062

> <Gold.Chemscore.Internal.Correction.Weighted>
   9.000000E+99

> <Gold.Protein.RotatedTorsions>
[ 6907 6896 6895 6894 ] final  -75.06 input  -60.11 | X-H torsion
[ 7974 7965 7964 7962 ] final  151.38 input  175.53 | X-H torsion
[ 8008 7997 7996 7995 ] final   96.33 input   59.86 | X-H torsion
[ 10167 10162 10161 10158 ] final  -42.91 input  -65.29 | X-H torsion
[ 10718 10713 10712 10709 ] final   18.98 input   66.30 | X-H torsion
[ 10763 10752 10751 10750 ] final -159.05 input  -60.55 | X-H torsion
[ 11005 11000 10999 10996 ] final  142.71 input  -57.11 | X-H torsion

> <Gold.Protein.ActiveResidues>
 VAL166  LYS551  ARG553  GLY616  TRP617  ASP618  TYR619  PRO620  LYS621  CYS622 
 ASP623  PHE694  ASN695  SER759  ASP760  ASP761  ALA762  ILE779  LEU786  VAL792 
 PHE793  MET794  SER795  GLU796  ALA797  LYS798  CYS799  TRP800  GLU811  SER814 

> <Gold.Protein.RotatedAtoms>
  150.7071  134.4776  159.5454 H   0  0  0  0  0  0  0  0  0  0  0  0  # atno 6907 bound_to 6896
  152.2420  134.8216  160.0468 H   0  0  0  0  0  0  0  0  0  0  0  0  # atno 6908 bound_to 6896
  151.8994  133.3499  159.3862 H   0  0  0  0  0  0  0  0  0  0  0  0  # atno 6909 bound_to 6896
  144.8297  139.6530  143.6064 H   0  0  0  0  0  0  0  0  0  0  0  0  # atno 7974 bound_to 7965
  156.0785  140.3274  155.7663 H   0  0  0  0  0  0  0  0  0  0  0  0  # atno 8008 bound_to 7997
  155.5192  140.0583  157.2927 H   0  0  0  0  0  0  0  0  0  0  0  0  # atno 8009 bound_to 7997
  154.4568  140.1947  156.0372 H   0  0  0  0  0  0  0  0  0  0  0  0  # atno 8010 bound_to 7997
  140.6952  143.3011  151.3277 H   0  0  0  0  0  0  0  0  0  0  0  0  # atno 10167 bound_to 10162
  157.1040  130.6480  149.5879 H   0  0  0  0  0  0  0  0  0  0  0  0  # atno 10718 bound_to 10713
  154.7506  135.3091  154.8564 H   0  0  0  0  0  0  0  0  0  0  0  0  # atno 10763 bound_to 10752
  153.9352  135.6781  153.4749 H   0  0  0  0  0  0  0  0  0  0  0  0  # atno 10764 bound_to 10752
  153.1102  135.4870  154.8950 H   0  0  0  0  0  0  0  0  0  0  0  0  # atno 10765 bound_to 10752
  140.0498  134.9262  157.0995 H   0  0  0  0  0  0  0  0  0  0  0  0  # atno 11005 bound_to 11000
  146.2600  139.6389  142.9368 LP  0  0  0  0  0  0  0  0  0  0  0  0  # atno 17320 bound_to 7965
  145.4923  141.0438  143.2586 LP  0  0  0  0  0  0  0  0  0  0  0  0  # atno 17321 bound_to 7965
  139.6400  144.0558  152.2546 LP  0  0  0  0  0  0  0  0  0  0  0  0  # atno 17342 bound_to 10162
  140.0060  144.6259  150.7688 LP  0  0  0  0  0  0  0  0  0  0  0  0  # atno 17343 bound_to 10162
  155.9867  130.4902  150.7089 LP  0  0  0  0  0  0  0  0  0  0  0  0  # atno 17370 bound_to 10713
  157.4617  131.0884  151.0739 LP  0  0  0  0  0  0  0  0  0  0  0  0  # atno 17371 bound_to 10713
  140.3936  134.2158  155.7165 LP  0  0  0  0  0  0  0  0  0  0  0  0  # atno 17394 bound_to 11000
  141.1924  133.8173  157.0839 LP  0  0  0  0  0  0  0  0  0  0  0  0  # atno 17395 bound_to 11000

$$$$
