AV-unprocessed.smi:614|AV-procd|sdf|3069|dock6
  -GOLD-   2262023593D 1   1.00000     0.00000
 Structure written by MMmdl.
 44 45  0  0  0  0  0  0  0  0  1 V2000
  153.2166  142.2460  160.7480 C   0  0  0  0  0  0  0  0  0  0  0  0
  152.5616  142.9212  159.6486 N   0  0  0  0  0  0  0  0  0  0  0  0
  152.7048  144.2298  159.2340 C   0  0  0  0  0  0  0  0  0  0  0  0
  151.8827  144.4111  158.1580 C   0  0  0  0  0  0  0  0  0  0  0  0
  151.2738  143.1362  157.9931 C   0  0  0  0  0  0  0  0  0  0  0  0
  150.3284  142.9151  156.9589 N   0  0  0  0  0  0  0  0  0  0  0  0
  149.7633  141.7504  156.5980 C   0  0  0  0  0  0  0  0  0  0  0  0
  150.0197  140.6579  157.1027 O   0  0  0  0  0  0  0  0  0  0  0  0
  148.8806  141.9363  155.6016 N   0  0  0  0  0  0  0  0  0  0  0  0
  148.0297  140.9468  154.9225 C   0  0  2  0  0  0  0  0  0  0  0  0
  148.9543  139.7210  154.7342 C   0  0  0  0  0  0  0  0  0  0  0  0
  147.6792  141.4658  153.4942 C   0  0  0  0  0  0  0  0  0  0  0  0
  147.1385  140.4830  152.6340 O   0  0  0  0  0  0  0  0  0  0  0  0
  146.7703  140.5683  155.7851 C   0  0  0  0  0  0  0  0  0  0  0  0
  145.6900  141.6788  155.8601 C   0  0  0  0  0  0  0  0  0  0  0  0
  144.4370  141.2029  156.6136 C   0  0  0  0  0  0  0  0  0  0  0  0
  144.7869  140.7080  158.0244 C   0  0  0  0  0  0  0  0  0  0  0  0
  145.8593  139.6105  157.9716 C   0  0  0  0  0  0  0  0  0  0  0  0
  147.1113  140.0911  157.2198 C   0  0  0  0  0  0  0  0  0  0  0  0
  151.6797  142.2426  158.8849 N   0  0  0  0  0  0  0  0  0  0  0  0
  153.9052  142.9271  161.2489 H   0  0  0  0  0  0  0  0  0  0  0  0
  153.7756  141.3880  160.3735 H   0  0  0  0  0  0  0  0  0  0  0  0
  152.4714  141.9034  161.4665 H   0  0  0  0  0  0  0  0  0  0  0  0
  153.3721  144.9160  159.7345 H   0  0  0  0  0  0  0  0  0  0  0  0
  151.7406  145.3136  157.5824 H   0  0  0  0  0  0  0  0  0  0  0  0
  150.0405  143.7355  156.4468 H   0  0  0  0  0  0  0  0  0  0  0  0
  148.7740  142.8846  155.2729 H   0  0  0  0  0  0  0  0  0  0  0  0
  148.4595  138.9067  154.2057 H   0  0  0  0  0  0  0  0  0  0  0  0
  149.3165  139.3264  155.6833 H   0  0  0  0  0  0  0  0  0  0  0  0
  149.8353  139.9831  154.1464 H   0  0  0  0  0  0  0  0  0  0  0  0
  146.9956  142.3146  153.5421 H   0  0  0  0  0  0  0  0  0  0  0  0
  148.5785  141.8342  152.9994 H   0  0  0  0  0  0  0  0  0  0  0  0
  147.7617  140.3091  151.9456 H   0  0  0  0  0  0  0  0  0  0  0  0
  146.2865  139.7230  155.2955 H   0  0  0  0  0  0  0  0  0  0  0  0
  146.0868  142.5608  156.3623 H   0  0  0  0  0  0  0  0  0  0  0  0
  145.3916  142.0001  154.8625 H   0  0  0  0  0  0  0  0  0  0  0  0
  143.7105  142.0135  156.6753 H   0  0  0  0  0  0  0  0  0  0  0  0
  143.9569  140.4001  156.0529 H   0  0  0  0  0  0  0  0  0  0  0  0
  145.1471  141.5430  158.6267 H   0  0  0  0  0  0  0  0  0  0  0  0
  143.8917  140.3311  158.5197 H   0  0  0  0  0  0  0  0  0  0  0  0
  146.1281  139.3060  158.9835 H   0  0  0  0  0  0  0  0  0  0  0  0
  145.4544  138.7251  157.4798 H   0  0  0  0  0  0  0  0  0  0  0  0
  147.8378  139.2795  157.1955 H   0  0  0  0  0  0  0  0  0  0  0  0
  147.5704  140.8984  157.7898 H   0  0  0  0  0  0  0  0  0  0  0  0
  1  2  1  0  0  0  0
  1 21  1  0  0  0  0
  1 22  1  0  0  0  0
  1 23  1  0  0  0  0
  2 20  1  0  0  0  0
  2  3  1  0  0  0  0
  3  4  2  0  0  0  0
  3 24  1  0  0  0  0
  4  5  1  0  0  0  0
  4 25  1  0  0  0  0
  5  6  1  0  0  0  0
  5 20  2  0  0  0  0
  6  7  1  0  0  0  0
  6 26  1  0  0  0  0
  7  8  2  0  0  0  0
  7  9  1  0  0  0  0
  9 10  1  0  0  0  0
  9 27  1  0  0  0  0
 10 11  1  0  0  0  0
 10 12  1  0  0  0  0
 10 14  1  0  0  0  0
 11 28  1  0  0  0  0
 11 29  1  0  0  0  0
 11 30  1  0  0  0  0
 12 13  1  0  0  0  0
 12 31  1  0  0  0  0
 12 32  1  0  0  0  0
 13 33  1  0  0  0  0
 14 19  1  0  0  0  0
 14 15  1  0  0  0  0
 14 34  1  0  0  0  0
 15 16  1  0  0  0  0
 15 35  1  0  0  0  0
 15 36  1  0  0  0  0
 16 17  1  0  0  0  0
 16 37  1  0  0  0  0
 16 38  1  0  0  0  0
 17 18  1  0  0  0  0
 17 39  1  0  0  0  0
 17 40  1  0  0  0  0
 18 19  1  0  0  0  0
 18 41  1  0  0  0  0
 18 42  1  0  0  0  0
 19 43  1  0  0  0  0
 19 44  1  0  0  0  0
M  END
> <s_m_source_file>
AV-unprocessed.smi

> <i_m_source_file_index>
614

> <i_lp_mmshare_version>
43012

> <i_f3d_flags>
0

> <s_epik_input>
W0NIM11uMVtjSF1bY0hdYyhuMSlbTkhdQyg9TylbTkhdW0NAQF0oW0NIM10pKFtDSDJdW09IXSlbQ0hdMltDSDJdW0NIMl1bQ0gyXVtDSDJdW0NIMl0y

> <s_epik_cmdline>
J2VwaWtfcHl0aG9uJywgJy1waCcsICc3LjAnLCAnLXRuJywgJzgnLCAnLW1hJywgJzIwMCcsICctbWV0YWxfYmluZGluZycsICctaW1hZScsICc8aW5maWxlLm1hZT4nLCAnLW9tYWUnLCAnPG91dGZpbGUubWFlPic=

> <r_lp_tautomer_probability>
1

> <r_epik_Ionization_Penalty>
3.66621e-05

> <r_epik_Ionization_Penalty_Charging>
0

> <r_epik_Ionization_Penalty_Neutral>
3.66621e-05

> <r_epik_State_Penalty>
-0

> <r_epik_Charging_Adjusted_Penalty>
0

> <i_epik_Tot_Q>
0

> <i_epik_Tot_abs_Q>
0

> <r_epik_Metal_State_Penalty>
-0

> <b_epik_Metal_Only>
0

> <s_lp_Force_Field>
OPLS_2005

> <r_lp_Energy>
19.716

> <b_lp_Chiralities_Consistent>
1

> <s_lp_Variant>
AV-unprocessed.smi:614-2

> <Gold.Version>
5.8.1

> <Gold.Id.Protein>
6NUR|6NUR_protein|mol2

> <Gold.PLP.Fitness>
42.2136

> <Gold.PLP.PLP>
-34.3675

> <Gold.PLP.part.hbond>
-3.0000

> <Gold.PLP.part.metal>
0.0000

> <Gold.PLP.part.buried>
-5.3920

> <Gold.PLP.part.nonpolar>
-26.0774

> <Gold.PLP.part.repulsive>
0.1753

> <Gold.PLP.ligand.clash>
0.0000

> <Gold.PLP.ligand.torsion>
0.5974

> <Gold.PLP.Chemscore.Hbond>
2.9760

> <Gold.PLP.Chemscore.CHOScore>
0.0000

> <Gold.PLP.Chemscore.Metal>
0.0000

> <Gold.Chemscore.Hbonds>
donor molecule, donor type, donor heavy atom, donor atom, acceptor molecule, acceptor atom, score
      L1  H     6    26       P1  8028  1.00
      L1  H     9    27       P1  8028  0.98
      L1  H    13    33       P1  7957  1.00

> <Gold.PLP.Chemscore.Internal.Correction>
0.1128

> <Gold.Rescore>
     Score         DG    S(hbond)    S(metal)    S(lipo)     H(rot)  DE(clash)    DE(int)     intcor
     13.82     -17.30       2.93        0.00      62.78       2.07       0.02       3.47       ----

> <Gold.Chemscore.Fitness>
13.8152

> <Gold.Chemscore.DG>
-17.3007

> <Gold.Chemscore.ZeroCoef>
-5.4800

> <Gold.Chemscore.Hbond>
2.9274

> <Gold.Chemscore.Metal>
0.0000

> <Gold.Chemscore.Lipo>
62.7779

> <Gold.Chemscore.Internal_Hbond>
0.0000

> <Gold.Chemscore.DEClash>
0.0174

> <Gold.Chemscore.DEInternal>
3.4680

> <Gold.Chemscore.Rot>
2.0710

> <Gold.Chemscore.Internal.Correction>
   9.000000E+99

> <Gold.Chemscore.Hbonds>
donor molecule, donor type, donor heavy atom, donor atom, acceptor molecule, acceptor atom, score
      L1  H     6    26       P1  8028  0.98
      L1  H     9    27       P1  8028  0.93
      L1  H    13    33       P1  7957  0.96

> <Gold.Chemscore.Hbond.Weighted>
-9.7773

> <Gold.Chemscore.Metal.Weighted>
-0.0000

> <Gold.Chemscore.Lipo.Weighted>
-7.3450

> <Gold.Chemscore.Internal_Hbond.Weighted>
0.0000

> <Gold.Chemscore.DEClash.Weighted>
0.0174

> <Gold.Chemscore.DEInternal.Weighted>
3.4680

> <Gold.Chemscore.Rot.Weighted>
5.3017

> <Gold.Chemscore.Internal.Correction.Weighted>
   9.000000E+99

> <Gold.Protein.RotatedTorsions>
[ 6907 6896 6895 6894 ] final   61.09 input  -60.11 | X-H torsion
[ 7974 7965 7964 7962 ] final   58.15 input  175.53 | X-H torsion
[ 8008 7997 7996 7995 ] final  -31.41 input   59.86 | X-H torsion
[ 10167 10162 10161 10158 ] final  120.00 input  -65.29 | X-H torsion
[ 10718 10713 10712 10709 ] final  136.51 input   66.30 | X-H torsion
[ 10763 10752 10751 10750 ] final  136.26 input  -60.55 | X-H torsion
[ 11005 11000 10999 10996 ] final  129.66 input  -57.11 | X-H torsion

> <Gold.Protein.ActiveResidues>
 VAL166  LYS551  ARG553  GLY616  TRP617  ASP618  TYR619  PRO620  LYS621  CYS622 
 ASP623  PHE694  ASN695  SER759  ASP760  ASP761  ALA762  ILE779  LEU786  VAL792 
 PHE793  MET794  SER795  GLU796  ALA797  LYS798  CYS799  TRP800  GLU811  SER814 

> <Gold.Protein.RotatedAtoms>
  152.4059  134.6207  160.0049 H   0  0  0  0  0  0  0  0  0  0  0  0  # atno 6907 bound_to 6896
  151.6398  133.3321  159.3135 H   0  0  0  0  0  0  0  0  0  0  0  0  # atno 6908 bound_to 6896
  150.7954  134.7051  159.6617 H   0  0  0  0  0  0  0  0  0  0  0  0  # atno 6909 bound_to 6896
  145.9214  139.3732  143.0476 H   0  0  0  0  0  0  0  0  0  0  0  0  # atno 7974 bound_to 7965
  154.4215  140.1765  156.1562 H   0  0  0  0  0  0  0  0  0  0  0  0  # atno 8008 bound_to 7997
  155.9875  140.3372  155.6697 H   0  0  0  0  0  0  0  0  0  0  0  0  # atno 8009 bound_to 7997
  155.6417  140.0680  157.2607 H   0  0  0  0  0  0  0  0  0  0  0  0  # atno 8010 bound_to 7997
  139.6010  144.7056  151.3062 H   0  0  0  0  0  0  0  0  0  0  0  0  # atno 10167 bound_to 10162
  157.4459  131.1062  151.0090 H   0  0  0  0  0  0  0  0  0  0  0  0  # atno 10718 bound_to 10713
  153.8535  135.3076  155.3434 H   0  0  0  0  0  0  0  0  0  0  0  0  # atno 10763 bound_to 10752
  154.7880  135.4798  153.9993 H   0  0  0  0  0  0  0  0  0  0  0  0  # atno 10764 bound_to 10752
  153.1504  135.6842  153.8985 H   0  0  0  0  0  0  0  0  0  0  0  0  # atno 10765 bound_to 10752
  139.9628  134.9598  156.9181 H   0  0  0  0  0  0  0  0  0  0  0  0  # atno 11005 bound_to 11000
  145.8545  140.9510  143.0732 LP  0  0  0  0  0  0  0  0  0  0  0  0  # atno 17320 bound_to 7965
  144.6753  140.0451  143.7480 LP  0  0  0  0  0  0  0  0  0  0  0  0  # atno 17321 bound_to 7965
  140.7249  143.7031  150.7829 LP  0  0  0  0  0  0  0  0  0  0  0  0  # atno 17342 bound_to 10162
  140.0607  143.5158  152.2629 LP  0  0  0  0  0  0  0  0  0  0  0  0  # atno 17343 bound_to 10162
  157.0937  130.5953  149.5445 LP  0  0  0  0  0  0  0  0  0  0  0  0  # atno 17370 bound_to 10713
  155.9967  130.5037  150.7507 LP  0  0  0  0  0  0  0  0  0  0  0  0  # atno 17371 bound_to 10713
  140.5462  134.0671  155.7356 LP  0  0  0  0  0  0  0  0  0  0  0  0  # atno 17394 bound_to 11000
  141.1306  133.9308  157.2543 LP  0  0  0  0  0  0  0  0  0  0  0  0  # atno 17395 bound_to 11000

$$$$
