AV-unprocessed.smi:1762|AV-procd|sdf|7110|dock9
  -GOLD-   22720 8333D 1   1.00000     0.00000
 Structure written by MMmdl.
 53 54  0  0  0  0  0  0  0  0  2 V2000
  149.5813  133.2712  154.2241 C   0  0  0  0  0  0  0  0  0  0  0  0
  149.2599  134.5992  154.9189 C   0  0  1  0  0  0  0  0  0  0  0  0
  150.3018  135.6862  154.5998 C   0  0  0  0  0  0  0  0  0  0  0  0
  149.9652  136.9880  155.1863 N   0  0  0  0  0  0  0  0  0  0  0  0
  151.0197  138.0145  154.9482 C   0  0  1  0  0  0  0  0  0  0  0  0
  150.6060  139.4425  155.3810 C   0  0  0  0  0  0  0  0  0  0  0  0
  150.5611  140.3592  154.5612 O   0  0  0  0  0  0  0  0  0  0  0  0
  150.3428  139.6221  156.6857 N   0  0  0  0  0  0  0  0  0  0  0  0
  150.0105  140.9020  157.3043 C   0  0  0  0  0  0  0  0  0  0  0  0
  151.0133  142.0217  156.9648 C   0  0  0  0  0  0  0  0  0  0  0  0
  151.2657  142.9829  158.1130 C   0  0  0  0  0  0  0  0  0  0  0  0
  151.9979  142.6030  159.2587 C   0  0  0  0  0  0  0  0  0  0  0  0
  152.1896  143.5391  160.2963 C   0  0  0  0  0  0  0  0  0  0  0  0
  151.6446  144.8335  160.1678 C   0  0  0  0  0  0  0  0  0  0  0  0
  150.9214  145.1595  159.0026 C   0  0  0  0  0  0  0  0  0  0  0  0
  150.7598  144.2346  158.0312 N   0  3  0  0  0  0  0  0  0  0  0  0
  152.4346  137.6315  155.5026 C   0  0  0  0  0  0  0  0  0  0  0  0
  152.5136  137.5768  157.0416 C   0  0  0  0  0  0  0  0  0  0  0  0
  153.5773  138.4974  154.9381 C   0  0  0  0  0  0  0  0  0  0  0  0
  148.6133  137.3661  154.7371 C   0  0  0  0  0  0  0  0  0  0  0  0
  147.5503  136.2811  155.0030 C   0  0  2  0  0  0  0  0  0  0  0  0
  147.1428  136.1756  156.4833 C   0  0  0  0  0  0  0  0  0  0  0  0
  147.9759  135.0262  154.4776 O   0  0  0  0  0  0  0  0  0  0  0  0
  150.5508  132.8869  154.5416 H   0  0  0  0  0  0  0  0  0  0  0  0
  149.6063  133.3883  153.1402 H   0  0  0  0  0  0  0  0  0  0  0  0
  148.8314  132.5161  154.4602 H   0  0  0  0  0  0  0  0  0  0  0  0
  149.2357  134.4230  155.9945 H   0  0  0  0  0  0  0  0  0  0  0  0
  151.2568  135.3254  154.9751 H   0  0  0  0  0  0  0  0  0  0  0  0
  150.4081  135.7844  153.5179 H   0  0  0  0  0  0  0  0  0  0  0  0
  151.1477  138.0804  153.8654 H   0  0  0  0  0  0  0  0  0  0  0  0
  150.4196  138.8231  157.2984 H   0  0  0  0  0  0  0  0  0  0  0  0
  149.0155  141.1873  156.9620 H   0  0  0  0  0  0  0  0  0  0  0  0
  149.9364  140.7814  158.3862 H   0  0  0  0  0  0  0  0  0  0  0  0
  151.9631  141.5781  156.6644 H   0  0  0  0  0  0  0  0  0  0  0  0
  150.6611  142.5862  156.1001 H   0  0  0  0  0  0  0  0  0  0  0  0
  152.4064  141.6064  159.3437 H   0  0  0  0  0  0  0  0  0  0  0  0
  152.7472  143.2666  161.1805 H   0  0  0  0  0  0  0  0  0  0  0  0
  151.7799  145.5650  160.9512 H   0  0  0  0  0  0  0  0  0  0  0  0
  150.4701  146.1238  158.8194 H   0  0  0  0  0  0  0  0  0  0  0  0
  152.6668  136.6302  155.1441 H   0  0  0  0  0  0  0  0  0  0  0  0
  152.3869  138.5590  157.4949 H   0  0  0  0  0  0  0  0  0  0  0  0
  153.4826  137.1959  157.3657 H   0  0  0  0  0  0  0  0  0  0  0  0
  151.7542  136.9166  157.4601 H   0  0  0  0  0  0  0  0  0  0  0  0
  153.5424  139.5189  155.3171 H   0  0  0  0  0  0  0  0  0  0  0  0
  153.5386  138.5360  153.8494 H   0  0  0  0  0  0  0  0  0  0  0  0
  154.5485  138.0861  155.2144 H   0  0  0  0  0  0  0  0  0  0  0  0
  148.2654  138.2745  155.2281 H   0  0  0  0  0  0  0  0  0  0  0  0
  148.6363  137.5823  153.6676 H   0  0  0  0  0  0  0  0  0  0  0  0
  146.6514  136.5515  154.4484 H   0  0  0  0  0  0  0  0  0  0  0  0
  146.6965  137.1082  156.8291 H   0  0  0  0  0  0  0  0  0  0  0  0
  147.9942  135.9649  157.1303 H   0  0  0  0  0  0  0  0  0  0  0  0
  146.4067  135.3849  156.6289 H   0  0  0  0  0  0  0  0  0  0  0  0
  150.2315  144.4912  157.1968 H   0  0  0  0  0  0  0  0  0  0  0  0
  1  2  1  0  0  0  0
  1 24  1  0  0  0  0
  1 25  1  0  0  0  0
  1 26  1  0  0  0  0
  2 23  1  0  0  0  0
  2  3  1  0  0  0  0
  2 27  1  0  0  0  0
  3  4  1  0  0  0  0
  3 28  1  0  0  0  0
  3 29  1  0  0  0  0
  4  5  1  0  0  0  0
  4 20  1  0  0  0  0
  5  6  1  0  0  0  0
  5 17  1  0  0  0  0
  5 30  1  0  0  0  0
  6  7  2  0  0  0  0
  6  8  1  0  0  0  0
  8  9  1  0  0  0  0
  8 31  1  0  0  0  0
  9 10  1  0  0  0  0
  9 32  1  0  0  0  0
  9 33  1  0  0  0  0
 10 11  1  0  0  0  0
 10 34  1  0  0  0  0
 10 35  1  0  0  0  0
 11 16  1  0  0  0  0
 11 12  2  0  0  0  0
 12 13  1  0  0  0  0
 12 36  1  0  0  0  0
 13 14  2  0  0  0  0
 13 37  1  0  0  0  0
 14 15  1  0  0  0  0
 14 38  1  0  0  0  0
 15 16  2  0  0  0  0
 15 39  1  0  0  0  0
 16 53  1  0  0  0  0
 17 18  1  0  0  0  0
 17 19  1  0  0  0  0
 17 40  1  0  0  0  0
 18 41  1  0  0  0  0
 18 42  1  0  0  0  0
 18 43  1  0  0  0  0
 19 44  1  0  0  0  0
 19 45  1  0  0  0  0
 19 46  1  0  0  0  0
 20 21  1  0  0  0  0
 20 47  1  0  0  0  0
 20 48  1  0  0  0  0
 21 22  1  0  0  0  0
 21 23  1  0  0  0  0
 21 49  1  0  0  0  0
 22 50  1  0  0  0  0
 22 51  1  0  0  0  0
 22 52  1  0  0  0  0
M  CHG  1  16   1
M  END
> <s_m_source_file>
AV-unprocessed.smi

> <i_m_source_file_index>
1762

> <i_lp_mmshare_version>
43012

> <i_f3d_flags>
0

> <s_epik_input>
W0NIM11bQ0BASF0xW0NIMl1OKFtDSDJdW0NASF0oTzEpW0NIM10pW0NAQEhdKFtDSF0oW0NIM10pW0NIM10pQyg9TylbTkhdW0NIMl1bQ0gyXWMyW2NIXVtjSF1bY0hdW2NIXW4y

> <s_epik_cmdline>
J2VwaWtfcHl0aG9uJywgJy1waCcsICc3LjAnLCAnLXRuJywgJzgnLCAnLW1hJywgJzIwMCcsICctbWV0YWxfYmluZGluZycsICctaW1hZScsICc8aW5maWxlLm1hZT4nLCAnLW9tYWUnLCAnPG91dGZpbGUubWFlPic=

> <r_epik_Ionization_Penalty>
1.86475

> <r_epik_Ionization_Penalty_Charging>
1.85347

> <r_epik_Ionization_Penalty_Neutral>
0.0112771

> <r_epik_State_Penalty>
1.99714

> <r_epik_Charging_Adjusted_Penalty>
3.85061

> <i_epik_Tot_Q>
1

> <i_epik_Tot_abs_Q>
1

> <r_epik_Metal_State_Penalty>
2.02271

> <b_epik_Metal_Only>
0

> <s_lp_Force_Field>
OPLS_2005

> <r_lp_Energy>
36.5288

> <b_lp_Chiralities_Consistent>
1

> <s_lp_Variant>
AV-unprocessed.smi:1762-12

> <Gold.Version>
5.8.1

> <Gold.Id.Protein>
6NUR|6NUR_protein|mol2

> <Gold.PLP.Fitness>
48.3558

> <Gold.PLP.PLP>
-40.2942

> <Gold.PLP.part.hbond>
-2.0760

> <Gold.PLP.part.metal>
0.0000

> <Gold.PLP.part.buried>
-3.9161

> <Gold.PLP.part.nonpolar>
-33.9397

> <Gold.PLP.part.repulsive>
0.3846

> <Gold.PLP.ligand.clash>
0.0000

> <Gold.PLP.ligand.torsion>
0.6436

> <Gold.PLP.Chemscore.Hbond>
3.0000

> <Gold.PLP.Chemscore.CHOScore>
0.0000

> <Gold.PLP.Chemscore.Metal>
0.0000

> <Gold.Chemscore.Hbonds>
donor molecule, donor type, donor heavy atom, donor atom, acceptor molecule, acceptor atom, score
      L1  H    16    53       P1  8028  2.00
      P1  H  7989  7998       L1     7  1.00

> <Gold.PLP.Chemscore.Internal.Correction>
0.3488

> <Gold.Rescore>
     Score         DG    S(hbond)    S(metal)    S(lipo)     H(rot)  DE(clash)    DE(int)     intcor
     19.84     -21.09       1.86        0.00     117.86       1.72       0.75       0.49       ----

> <Gold.Chemscore.Fitness>
19.8446

> <Gold.Chemscore.DG>
-21.0923

> <Gold.Chemscore.ZeroCoef>
-5.4800

> <Gold.Chemscore.Hbond>
1.8620

> <Gold.Chemscore.Metal>
0.0000

> <Gold.Chemscore.Lipo>
117.8615

> <Gold.Chemscore.Internal_Hbond>
0.0000

> <Gold.Chemscore.DEClash>
0.7541

> <Gold.Chemscore.DEInternal>
0.4936

> <Gold.Chemscore.Rot>
1.7174

> <Gold.Chemscore.Internal.Correction>
   9.000000E+99

> <Gold.Chemscore.Hbonds>
donor molecule, donor type, donor heavy atom, donor atom, acceptor molecule, acceptor atom, score
      L1  H    16    53       P1  8028  0.57
      P1  H  7989  7998       L1     7  0.97

> <Gold.Chemscore.Hbond.Weighted>
-6.2191

> <Gold.Chemscore.Metal.Weighted>
-0.0000

> <Gold.Chemscore.Lipo.Weighted>
-13.7898

> <Gold.Chemscore.Internal_Hbond.Weighted>
0.0000

> <Gold.Chemscore.DEClash.Weighted>
0.7541

> <Gold.Chemscore.DEInternal.Weighted>
0.4936

> <Gold.Chemscore.Rot.Weighted>
4.3966

> <Gold.Chemscore.Internal.Correction.Weighted>
   9.000000E+99

> <Gold.Protein.RotatedTorsions>
[ 6907 6896 6895 6894 ] final   53.50 input  -60.11 | X-H torsion
[ 7974 7965 7964 7962 ] final -118.77 input  175.53 | X-H torsion
[ 8008 7997 7996 7995 ] final  -71.91 input   59.86 | X-H torsion
[ 10167 10162 10161 10158 ] final -169.59 input  -65.29 | X-H torsion
[ 10718 10713 10712 10709 ] final -112.67 input   66.30 | X-H torsion
[ 10763 10752 10751 10750 ] final  108.03 input  -60.55 | X-H torsion
[ 11005 11000 10999 10996 ] final  100.97 input  -57.11 | X-H torsion

> <Gold.Protein.ActiveResidues>
 VAL166  LYS551  ARG553  GLY616  TRP617  ASP618  TYR619  PRO620  LYS621  CYS622 
 ASP623  PHE694  ASN695  SER759  ASP760  ASP761  ALA762  ILE779  LEU786  VAL792 
 PHE793  MET794  SER795  GLU796  ALA797  LYS798  CYS799  TRP800  GLU811  SER814 

> <Gold.Protein.RotatedAtoms>
  152.3343  134.7218  160.0280 H   0  0  0  0  0  0  0  0  0  0  0  0  # atno 6907 bound_to 6896
  151.7624  133.3329  159.3429 H   0  0  0  0  0  0  0  0  0  0  0  0  # atno 6908 bound_to 6896
  150.7441  134.6025  159.6089 H   0  0  0  0  0  0  0  0  0  0  0  0  # atno 6909 bound_to 6896
  145.0700  140.8352  143.4101 H   0  0  0  0  0  0  0  0  0  0  0  0  # atno 7974 bound_to 7965
  154.5124  140.0807  156.8016 H   0  0  0  0  0  0  0  0  0  0  0  0  # atno 8008 bound_to 7997
  155.3755  140.3425  155.4226 H   0  0  0  0  0  0  0  0  0  0  0  0  # atno 8009 bound_to 7997
  156.1589  140.1582  156.8633 H   0  0  0  0  0  0  0  0  0  0  0  0  # atno 8010 bound_to 7997
  139.5913  144.1207  152.1638 H   0  0  0  0  0  0  0  0  0  0  0  0  # atno 10167 bound_to 10162
  156.0719  130.5932  150.8539 H   0  0  0  0  0  0  0  0  0  0  0  0  # atno 10718 bound_to 10713
  153.4150  135.3825  155.2074 H   0  0  0  0  0  0  0  0  0  0  0  0  # atno 10763 bound_to 10752
  154.8740  135.3803  154.4455 H   0  0  0  0  0  0  0  0  0  0  0  0  # atno 10764 bound_to 10752
  153.4967  135.7088  153.5916 H   0  0  0  0  0  0  0  0  0  0  0  0  # atno 10765 bound_to 10752
  139.8772  134.9163  156.4837 H   0  0  0  0  0  0  0  0  0  0  0  0  # atno 11005 bound_to 11000
  145.1304  139.2635  143.5542 LP  0  0  0  0  0  0  0  0  0  0  0  0  # atno 17320 bound_to 7965
  146.3528  140.0953  142.8610 LP  0  0  0  0  0  0  0  0  0  0  0  0  # atno 17321 bound_to 7965
  140.0782  144.5723  150.7142 LP  0  0  0  0  0  0  0  0  0  0  0  0  # atno 17342 bound_to 10162
  140.7175  143.2558  151.4385 LP  0  0  0  0  0  0  0  0  0  0  0  0  # atno 17343 bound_to 10162
  157.5795  131.0946  150.9293 LP  0  0  0  0  0  0  0  0  0  0  0  0  # atno 17370 bound_to 10713
  156.9492  130.5413  149.5282 LP  0  0  0  0  0  0  0  0  0  0  0  0  # atno 17371 bound_to 10713
  140.8709  133.7989  155.9363 LP  0  0  0  0  0  0  0  0  0  0  0  0  # atno 17394 bound_to 11000
  140.8954  134.2444  157.5072 LP  0  0  0  0  0  0  0  0  0  0  0  0  # atno 17395 bound_to 11000

$$$$
