AV-unprocessed.smi:1218|AV-procd|sdf|5108|dock4
  -GOLD-   22720 4163D 1   1.00000     0.00000
 Structure written by MMmdl.
 45 46  0  0  0  0  0  0  0  0  2 V2000
  144.5534  137.5512  154.6097 C   0  0  0  0  0  0  0  0  0  0  0  0
  145.7158  137.6258  153.6056 C   0  0  0  0  0  0  0  0  0  0  0  0
  145.9011  136.2745  152.8995 C   0  0  0  0  0  0  0  0  0  0  0  0
  147.0326  138.0699  154.2786 C   0  0  0  0  0  0  0  0  0  0  0  0
  147.9953  138.6919  153.3285 N   0  3  1  0  0  0  0  0  0  0  0  0
  147.4053  139.7851  152.5181 C   0  0  0  0  0  0  0  0  0  0  0  0
  147.2922  141.0843  153.3359 C   0  0  0  0  0  0  0  0  0  0  0  0
  148.5763  141.4440  153.8305 O   0  0  0  0  0  0  0  0  0  0  0  0
  149.1175  140.4618  154.7093 C   0  0  2  0  0  0  0  0  0  0  0  0
  150.4681  140.9750  155.2397 C   0  0  0  0  0  0  0  0  0  0  0  0
  150.3017  142.0278  156.2360 N   0  0  0  0  0  0  0  0  0  0  0  0
  150.5865  141.9041  157.5415 C   0  0  0  0  0  0  0  0  0  0  0  0
  151.0105  140.8605  158.0402 O   0  0  0  0  0  0  0  0  0  0  0  0
  150.3612  143.1527  158.4017 C   0  0  0  0  0  0  0  0  0  0  0  0
  151.3177  143.2553  159.4914 N   0  0  0  0  0  0  0  0  0  0  0  0
  152.4590  142.5097  159.7047 C   0  0  0  0  0  0  0  0  0  0  0  0
  153.0331  142.9648  160.8570 C   0  0  0  0  0  0  0  0  0  0  0  0
  152.1577  144.0026  161.2835 C   0  0  0  0  0  0  0  0  0  0  0  0
  151.1318  144.1731  160.4653 N   0  0  0  0  0  0  0  0  0  0  0  0
  149.2775  139.1347  153.9350 C   0  0  0  0  0  0  0  0  0  0  0  0
  144.7631  136.8387  155.4082 H   0  0  0  0  0  0  0  0  0  0  0  0
  143.6320  137.2363  154.1188 H   0  0  0  0  0  0  0  0  0  0  0  0
  144.3587  138.5202  155.0701 H   0  0  0  0  0  0  0  0  0  0  0  0
  145.4452  138.3450  152.8334 H   0  0  0  0  0  0  0  0  0  0  0  0
  146.1696  135.4893  153.6069 H   0  0  0  0  0  0  0  0  0  0  0  0
  146.6886  136.3280  152.1470 H   0  0  0  0  0  0  0  0  0  0  0  0
  144.9861  135.9667  152.3924 H   0  0  0  0  0  0  0  0  0  0  0  0
  146.7850  138.7878  155.0619 H   0  0  0  0  0  0  0  0  0  0  0  0
  147.5009  137.2271  154.7868 H   0  0  0  0  0  0  0  0  0  0  0  0
  148.0499  139.9583  151.6553 H   0  0  0  0  0  0  0  0  0  0  0  0
  146.4346  139.4902  152.1182 H   0  0  0  0  0  0  0  0  0  0  0  0
  146.9217  141.8922  152.7048 H   0  0  0  0  0  0  0  0  0  0  0  0
  146.5847  140.9765  154.1595 H   0  0  0  0  0  0  0  0  0  0  0  0
  148.4395  140.3183  155.5512 H   0  0  0  0  0  0  0  0  0  0  0  0
  151.0408  140.1540  155.6747 H   0  0  0  0  0  0  0  0  0  0  0  0
  151.0688  141.3689  154.4192 H   0  0  0  0  0  0  0  0  0  0  0  0
  149.9580  142.9184  155.9064 H   0  0  0  0  0  0  0  0  0  0  0  0
  150.4312  144.0405  157.7711 H   0  0  0  0  0  0  0  0  0  0  0  0
  149.3572  143.1397  158.8285 H   0  0  0  0  0  0  0  0  0  0  0  0
  152.7636  141.7269  159.0257 H   0  0  0  0  0  0  0  0  0  0  0  0
  153.9396  142.6104  161.3249 H   0  0  0  0  0  0  0  0  0  0  0  0
  152.2361  144.6323  162.1574 H   0  0  0  0  0  0  0  0  0  0  0  0
  149.6947  138.3627  154.5801 H   0  0  0  0  0  0  0  0  0  0  0  0
  149.9985  139.2738  153.1281 H   0  0  0  0  0  0  0  0  0  0  0  0
  148.2242  137.9577  152.6734 H   0  0  0  0  0  0  0  0  0  0  0  0
  1  2  1  0  0  0  0
  1 21  1  0  0  0  0
  1 22  1  0  0  0  0
  1 23  1  0  0  0  0
  2  3  1  0  0  0  0
  2  4  1  0  0  0  0
  2 24  1  0  0  0  0
  3 25  1  0  0  0  0
  3 26  1  0  0  0  0
  3 27  1  0  0  0  0
  4  5  1  0  0  0  0
  4 28  1  0  0  0  0
  4 29  1  0  0  0  0
  5 20  1  0  0  0  0
  5  6  1  0  0  0  0
  5 45  1  0  0  0  0
  6  7  1  0  0  0  0
  6 30  1  0  0  0  0
  6 31  1  0  0  0  0
  7  8  1  0  0  0  0
  7 32  1  0  0  0  0
  7 33  1  0  0  0  0
  8  9  1  0  0  0  0
  9 10  1  0  0  0  0
  9 20  1  0  0  0  0
  9 34  1  0  0  0  0
 10 11  1  0  0  0  0
 10 35  1  0  0  0  0
 10 36  1  0  0  0  0
 11 12  1  0  0  0  0
 11 37  1  0  0  0  0
 12 13  2  0  0  0  0
 12 14  1  0  0  0  0
 14 15  1  0  0  0  0
 14 38  1  0  0  0  0
 14 39  1  0  0  0  0
 15 19  1  0  0  0  0
 15 16  1  0  0  0  0
 16 17  2  0  0  0  0
 16 40  1  0  0  0  0
 17 18  1  0  0  0  0
 17 41  1  0  0  0  0
 18 19  2  0  0  0  0
 18 42  1  0  0  0  0
 20 43  1  0  0  0  0
 20 44  1  0  0  0  0
M  CHG  1   5   1
M  END
> <s_m_source_file>
AV-unprocessed.smi

> <i_m_source_file_index>
1218

> <i_lp_mmshare_version>
43012

> <i_f3d_flags>
0

> <s_epik_input>
W0NIM11bQ0hdKFtDSDNdKVtDSDJdTjFbQ0gyXVtDSDJdT1tDQEhdKFtDSDJdMSlbQ0gyXVtOSF1DKD1PKVtDSDJdbjJbY0hdW2NIXVtjSF1uMg==

> <s_epik_cmdline>
J2VwaWtfcHl0aG9uJywgJy1waCcsICc3LjAnLCAnLXRuJywgJzgnLCAnLW1hJywgJzIwMCcsICctbWV0YWxfYmluZGluZycsICctaW1hZScsICc8aW5maWxlLm1hZT4nLCAnLW9tYWUnLCAnPG91dGZpbGUubWFlPic=

> <r_lp_tautomer_probability>
1

> <r_epik_Ionization_Penalty>
0.0995066

> <r_epik_Ionization_Penalty_Charging>
0.0994921

> <r_epik_Ionization_Penalty_Neutral>
1.44634e-05

> <r_epik_State_Penalty>
0.0895432

> <r_epik_Charging_Adjusted_Penalty>
0.189035

> <i_epik_Tot_Q>
1

> <i_epik_Tot_abs_Q>
1

> <r_epik_Metal_State_Penalty>
0.0895432

> <b_epik_Metal_Only>
0

> <s_lp_Force_Field>
OPLS_2005

> <r_lp_Energy>
21.49

> <b_lp_Chiralities_Consistent>
1

> <s_lp_Variant>
AV-unprocessed.smi:1218-3

> <Gold.Version>
5.8.1

> <Gold.Id.Protein>
6NUR|6NUR_protein|mol2

> <Gold.PLP.Fitness>
40.7185

> <Gold.PLP.PLP>
-32.1540

> <Gold.PLP.part.hbond>
-3.8209

> <Gold.PLP.part.metal>
0.0000

> <Gold.PLP.part.buried>
2.0282

> <Gold.PLP.part.nonpolar>
-29.4118

> <Gold.PLP.part.repulsive>
0.4145

> <Gold.PLP.ligand.clash>
0.0000

> <Gold.PLP.ligand.torsion>
0.8458

> <Gold.PLP.Chemscore.Hbond>
3.3779

> <Gold.PLP.Chemscore.CHOScore>
0.0000

> <Gold.PLP.Chemscore.Metal>
0.0000

> <Gold.Chemscore.Hbonds>
donor molecule, donor type, donor heavy atom, donor atom, acceptor molecule, acceptor atom, score
      L1  H     5    45       P1  7948  2.00
      L1  H    11    37       P1  8028  0.80
      P1  H  8011  8017       L1     8  0.48

> <Gold.PLP.Chemscore.Internal.Correction>
0.1225

> <Gold.Rescore>
     Score         DG    S(hbond)    S(metal)    S(lipo)     H(rot)  DE(clash)    DE(int)     intcor
     14.29     -19.78       2.47        0.00      94.72       1.96       3.36       2.13       ----

> <Gold.Chemscore.Fitness>
14.2909

> <Gold.Chemscore.DG>
-19.7790

> <Gold.Chemscore.ZeroCoef>
-5.4800

> <Gold.Chemscore.Hbond>
2.4671

> <Gold.Chemscore.Metal>
0.0000

> <Gold.Chemscore.Lipo>
94.7218

> <Gold.Chemscore.Internal_Hbond>
0.0000

> <Gold.Chemscore.DEClash>
3.3565

> <Gold.Chemscore.DEInternal>
2.1315

> <Gold.Chemscore.Rot>
1.9624

> <Gold.Chemscore.Internal.Correction>
   9.000000E+99

> <Gold.Chemscore.Hbonds>
donor molecule, donor type, donor heavy atom, donor atom, acceptor molecule, acceptor atom, score
      L1  H     5    45       P1  7948  0.94
      L1  H    11    37       P1  8028  0.79
      P1  H  8011  8017       L1     8  0.40

> <Gold.Chemscore.Hbond.Weighted>
-8.2402

> <Gold.Chemscore.Metal.Weighted>
-0.0000

> <Gold.Chemscore.Lipo.Weighted>
-11.0825

> <Gold.Chemscore.Internal_Hbond.Weighted>
0.0000

> <Gold.Chemscore.DEClash.Weighted>
3.3565

> <Gold.Chemscore.DEInternal.Weighted>
2.1315

> <Gold.Chemscore.Rot.Weighted>
5.0237

> <Gold.Chemscore.Internal.Correction.Weighted>
   9.000000E+99

> <Gold.Protein.RotatedTorsions>
[ 6907 6896 6895 6894 ] final  -43.26 input  -60.11 | X-H torsion
[ 7974 7965 7964 7962 ] final  111.68 input  175.53 | X-H torsion
[ 8008 7997 7996 7995 ] final -176.17 input   59.86 | X-H torsion
[ 10167 10162 10161 10158 ] final  -35.11 input  -65.29 | X-H torsion
[ 10718 10713 10712 10709 ] final   84.46 input   66.30 | X-H torsion
[ 10763 10752 10751 10750 ] final  -65.15 input  -60.55 | X-H torsion
[ 11005 11000 10999 10996 ] final   25.53 input  -57.11 | X-H torsion

> <Gold.Protein.ActiveResidues>
 VAL166  LYS551  ARG553  GLY616  TRP617  ASP618  TYR619  PRO620  LYS621  CYS622 
 ASP623  PHE694  ASN695  SER759  ASP760  ASP761  ALA762  ILE779  LEU786  VAL792 
 PHE793  MET794  SER795  GLU796  ALA797  LYS798  CYS799  TRP800  GLU811  SER814 

> <Gold.Protein.RotatedAtoms>
  150.9460  134.8864  159.7641 H   0  0  0  0  0  0  0  0  0  0  0  0  # atno 6907 bound_to 6896
  152.5100  134.3874  159.9382 H   0  0  0  0  0  0  0  0  0  0  0  0  # atno 6908 bound_to 6896
  151.3893  133.3754  159.2754 H   0  0  0  0  0  0  0  0  0  0  0  0  # atno 6909 bound_to 6896
  145.2391  139.2786  143.4127 H   0  0  0  0  0  0  0  0  0  0  0  0  # atno 7974 bound_to 7965
  155.9916  140.1202  157.0633 H   0  0  0  0  0  0  0  0  0  0  0  0  # atno 8008 bound_to 7997
  154.4213  140.1124  156.5641 H   0  0  0  0  0  0  0  0  0  0  0  0  # atno 8009 bound_to 7997
  155.6335  140.3473  155.4693 H   0  0  0  0  0  0  0  0  0  0  0  0  # atno 8010 bound_to 7997
  140.7172  143.3500  151.2176 H   0  0  0  0  0  0  0  0  0  0  0  0  # atno 10167 bound_to 10162
  157.6898  131.0134  150.2677 H   0  0  0  0  0  0  0  0  0  0  0  0  # atno 10718 bound_to 10713
  154.3407  135.6157  153.5595 H   0  0  0  0  0  0  0  0  0  0  0  0  # atno 10763 bound_to 10752
  152.9804  135.5769  154.4856 H   0  0  0  0  0  0  0  0  0  0  0  0  # atno 10764 bound_to 10752
  154.4559  135.2854  155.1724 H   0  0  0  0  0  0  0  0  0  0  0  0  # atno 10765 bound_to 10752
  140.3469  134.2272  155.7684 H   0  0  0  0  0  0  0  0  0  0  0  0  # atno 11005 bound_to 11000
  146.3333  140.2750  142.8607 LP  0  0  0  0  0  0  0  0  0  0  0  0  # atno 17320 bound_to 7965
  144.9605  140.8270  143.5516 LP  0  0  0  0  0  0  0  0  0  0  0  0  # atno 17321 bound_to 7965
  139.7028  143.9504  152.2913 LP  0  0  0  0  0  0  0  0  0  0  0  0  # atno 17342 bound_to 10162
  139.9203  144.6804  150.8469 LP  0  0  0  0  0  0  0  0  0  0  0  0  # atno 17343 bound_to 10162
  156.3245  130.3791  149.7545 LP  0  0  0  0  0  0  0  0  0  0  0  0  # atno 17370 bound_to 10713
  156.5105  130.8170  151.3167 LP  0  0  0  0  0  0  0  0  0  0  0  0  # atno 17371 bound_to 10713
  141.2023  133.7941  157.0397 LP  0  0  0  0  0  0  0  0  0  0  0  0  # atno 17394 bound_to 11000
  140.0735  134.9689  157.1507 LP  0  0  0  0  0  0  0  0  0  0  0  0  # atno 17395 bound_to 11000

$$$$
