AV-unprocessed.smi:1884|AV-procd|sdf|7648|dock7
  -GOLD-   22720 9373D 1   1.00000     0.00000
 Structure written by MMmdl.
 41 43  0  0  0  0  0  0  0  0  2 V2000
  149.0716  140.9278  155.0178 C   0  0  0  0  0  0  0  0  0  0  0  0
  150.0457  141.4082  156.0405 C   0  0  0  0  0  0  0  0  0  0  0  0
  150.3160  142.7091  156.3425 N   0  3  0  0  0  0  0  0  0  0  0  0
  151.2804  142.7694  157.3495 C   0  0  0  0  0  0  0  0  0  0  0  0
  151.8688  143.8602  157.9822 C   0  0  0  0  0  0  0  0  0  0  0  0
  152.8241  143.5738  158.9793 C   0  0  0  0  0  0  0  0  0  0  0  0
  153.1608  142.2461  159.3136 C   0  0  0  0  0  0  0  0  0  0  0  0
  152.5584  141.1481  158.6646 C   0  0  0  0  0  0  0  0  0  0  0  0
  151.6155  141.4395  157.6784 C   0  0  0  0  0  0  0  0  0  0  0  0
  150.8298  140.6344  156.8440 N   0  0  0  0  0  0  0  0  0  0  0  0
  150.9383  139.1689  156.9242 C   0  0  0  0  0  0  0  0  0  0  0  0
  151.8442  138.5757  155.8269 C   0  0  2  0  0  0  0  0  0  0  0  0
  151.9993  139.5046  154.7733 O   0  0  0  0  0  0  0  0  0  0  0  0
  151.2855  137.2687  155.2463 C   0  0  0  0  0  0  0  0  0  0  0  0
  151.7130  136.1846  156.0606 O   0  0  0  0  0  0  0  0  0  0  0  0
  151.0841  134.9676  155.9103 C   0  0  0  0  0  0  0  0  0  0  0  0
  151.5297  133.9115  156.7315 C   0  0  0  0  0  0  0  0  0  0  0  0
  150.9442  132.6335  156.6460 C   0  0  0  0  0  0  0  0  0  0  0  0
  149.8991  132.3971  155.7314 C   0  0  0  0  0  0  0  0  0  0  0  0
  149.2913  131.0801  155.6411 C   0  0  0  0  0  0  0  0  0  0  0  0
  148.8075  130.0315  155.5694 N   0  0  0  0  0  0  0  0  0  0  0  0
  149.4453  133.4435  154.9047 C   0  0  0  0  0  0  0  0  0  0  0  0
  150.0323  134.7211  154.9919 C   0  0  0  0  0  0  0  0  0  0  0  0
  148.5673  141.7698  154.5428 H   0  0  0  0  0  0  0  0  0  0  0  0
  148.3193  140.2912  155.4833 H   0  0  0  0  0  0  0  0  0  0  0  0
  149.5870  140.3532  154.2480 H   0  0  0  0  0  0  0  0  0  0  0  0
  151.6113  144.8782  157.7288 H   0  0  0  0  0  0  0  0  0  0  0  0
  153.3075  144.3885  159.4992 H   0  0  0  0  0  0  0  0  0  0  0  0
  153.8959  142.0655  160.0847 H   0  0  0  0  0  0  0  0  0  0  0  0
  152.8213  140.1358  158.9335 H   0  0  0  0  0  0  0  0  0  0  0  0
  151.3422  138.9319  157.9090 H   0  0  0  0  0  0  0  0  0  0  0  0
  149.9413  138.7291  156.8959 H   0  0  0  0  0  0  0  0  0  0  0  0
  152.8361  138.3818  156.2367 H   0  0  0  0  0  0  0  0  0  0  0  0
  152.6397  140.1482  155.0350 H   0  0  0  0  0  0  0  0  0  0  0  0
  150.1958  137.3132  155.2001 H   0  0  0  0  0  0  0  0  0  0  0  0
  151.6629  137.1287  154.2316 H   0  0  0  0  0  0  0  0  0  0  0  0
  152.3301  134.0830  157.4365 H   0  0  0  0  0  0  0  0  0  0  0  0
  151.3021  131.8396  157.2859 H   0  0  0  0  0  0  0  0  0  0  0  0
  148.6449  133.2735  154.1990 H   0  0  0  0  0  0  0  0  0  0  0  0
  149.6566  135.4959  154.3411 H   0  0  0  0  0  0  0  0  0  0  0  0
  149.8713  143.4975  155.8900 H   0  0  0  0  0  0  0  0  0  0  0  0
  1  2  1  0  0  0  0
  1 24  1  0  0  0  0
  1 25  1  0  0  0  0
  1 26  1  0  0  0  0
  2 10  1  0  0  0  0
  2  3  2  0  0  0  0
  3  4  1  0  0  0  0
  3 41  1  0  0  0  0
  4  9  2  0  0  0  0
  4  5  1  0  0  0  0
  5  6  2  0  0  0  0
  5 27  1  0  0  0  0
  6  7  1  0  0  0  0
  6 28  1  0  0  0  0
  7  8  2  0  0  0  0
  7 29  1  0  0  0  0
  8  9  1  0  0  0  0
  8 30  1  0  0  0  0
  9 10  1  0  0  0  0
 10 11  1  0  0  0  0
 11 12  1  0  0  0  0
 11 31  1  0  0  0  0
 11 32  1  0  0  0  0
 12 13  1  0  0  0  0
 12 14  1  0  0  0  0
 12 33  1  0  0  0  0
 13 34  1  0  0  0  0
 14 15  1  0  0  0  0
 14 35  1  0  0  0  0
 14 36  1  0  0  0  0
 15 16  1  0  0  0  0
 16 23  1  0  0  0  0
 16 17  2  0  0  0  0
 17 18  1  0  0  0  0
 17 37  1  0  0  0  0
 18 19  2  0  0  0  0
 18 38  1  0  0  0  0
 19 20  1  0  0  0  0
 19 22  1  0  0  0  0
 20 21  3  0  0  0  0
 22 23  2  0  0  0  0
 22 39  1  0  0  0  0
 23 40  1  0  0  0  0
M  CHG  1   3   1
M  END
> <s_m_source_file>
AV-unprocessed.smi

> <i_m_source_file_index>
1884

> <i_lp_mmshare_version>
43012

> <i_f3d_flags>
0

> <s_epik_input>
W2NIXTFbY0hdW2NIXVtjSF1jKGMxMiluKGMobjIpW0NIM10pW0NIMl1bQ0BIXShbT0hdKVtDSDJdT2MzW2NIXVtjSF1jKEMjTilbY0hdW2NIXTM=

> <s_epik_cmdline>
J2VwaWtfcHl0aG9uJywgJy1waCcsICc3LjAnLCAnLXRuJywgJzgnLCAnLW1hJywgJzIwMCcsICctbWV0YWxfYmluZGluZycsICctaW1hZScsICc8aW5maWxlLm1hZT4nLCAnLW9tYWUnLCAnPG91dGZpbGUubWFlPic=

> <r_epik_Ionization_Penalty>
1.04791

> <r_epik_Ionization_Penalty_Charging>
1.04791

> <r_epik_Ionization_Penalty_Neutral>
2.3993e-06

> <r_epik_State_Penalty>
1.10051

> <r_epik_Charging_Adjusted_Penalty>
2.14841

> <i_epik_Tot_Q>
1

> <i_epik_Tot_abs_Q>
1

> <r_epik_Metal_State_Penalty>
5.09283

> <b_epik_Metal_Only>
0

> <s_lp_Force_Field>
OPLS_2005

> <r_lp_Energy>
18.2912

> <b_lp_Chiralities_Consistent>
1

> <s_lp_Variant>
AV-unprocessed.smi:1884-3

> <Gold.Version>
5.8.1

> <Gold.Id.Protein>
6NUR|6NUR_protein|mol2

> <Gold.PLP.Fitness>
52.5969

> <Gold.PLP.PLP>
-45.4973

> <Gold.PLP.part.hbond>
-3.0000

> <Gold.PLP.part.metal>
0.0000

> <Gold.PLP.part.buried>
-4.7294

> <Gold.PLP.part.nonpolar>
-39.5885

> <Gold.PLP.part.repulsive>
0.1538

> <Gold.PLP.ligand.clash>
0.0000

> <Gold.PLP.ligand.torsion>
1.2436

> <Gold.PLP.Chemscore.Hbond>
3.1740

> <Gold.PLP.Chemscore.CHOScore>
0.0000

> <Gold.PLP.Chemscore.Metal>
0.0000

> <Gold.Chemscore.Hbonds>
donor molecule, donor type, donor heavy atom, donor atom, acceptor molecule, acceptor atom, score
      L1  H     3    41       P1  8028  2.00
      P1  H 10752 10764       L1    15  0.40

> <Gold.PLP.Chemscore.Internal.Correction>
0.0648

> <Gold.Rescore>
     Score         DG    S(hbond)    S(metal)    S(lipo)     H(rot)  DE(clash)    DE(int)     intcor
     15.40     -16.84       1.03        0.00     119.97       2.39       0.11       1.34       ----

> <Gold.Chemscore.Fitness>
15.3962

> <Gold.Chemscore.DG>
-16.8401

> <Gold.Chemscore.ZeroCoef>
-5.4800

> <Gold.Chemscore.Hbond>
1.0319

> <Gold.Chemscore.Metal>
0.0000

> <Gold.Chemscore.Lipo>
119.9685

> <Gold.Chemscore.Internal_Hbond>
0.0000

> <Gold.Chemscore.DEClash>
0.1069

> <Gold.Chemscore.DEInternal>
1.3370

> <Gold.Chemscore.Rot>
2.3917

> <Gold.Chemscore.Internal.Correction>
   9.000000E+99

> <Gold.Chemscore.Hbonds>
donor molecule, donor type, donor heavy atom, donor atom, acceptor molecule, acceptor atom, score
      L1  H     3    41       P1  8028  0.97

> <Gold.Chemscore.Hbond.Weighted>
-3.4466

> <Gold.Chemscore.Metal.Weighted>
-0.0000

> <Gold.Chemscore.Lipo.Weighted>
-14.0363

> <Gold.Chemscore.Internal_Hbond.Weighted>
0.0000

> <Gold.Chemscore.DEClash.Weighted>
0.1069

> <Gold.Chemscore.DEInternal.Weighted>
1.3370

> <Gold.Chemscore.Rot.Weighted>
6.1229

> <Gold.Chemscore.Internal.Correction.Weighted>
   9.000000E+99

> <Gold.Protein.RotatedTorsions>
[ 6907 6896 6895 6894 ] final   46.23 input  -60.11 | X-H torsion
[ 7974 7965 7964 7962 ] final -140.79 input  175.53 | X-H torsion
[ 8008 7997 7996 7995 ] final  137.84 input   59.86 | X-H torsion
[ 10167 10162 10161 10158 ] final   42.23 input  -65.29 | X-H torsion
[ 10718 10713 10712 10709 ] final -129.53 input   66.30 | X-H torsion
[ 10763 10752 10751 10750 ] final  -24.66 input  -60.55 | X-H torsion
[ 11005 11000 10999 10996 ] final  171.51 input  -57.11 | X-H torsion

> <Gold.Protein.ActiveResidues>
 VAL166  LYS551  ARG553  GLY616  TRP617  ASP618  TYR619  PRO620  LYS621  CYS622 
 ASP623  PHE694  ASN695  SER759  ASP760  ASP761  ALA762  ILE779  LEU786  VAL792 
 PHE793  MET794  SER795  GLU796  ALA797  LYS798  CYS799  TRP800  GLU811  SER814 

> <Gold.Protein.RotatedAtoms>
  152.2539  134.8104  160.0441 H   0  0  0  0  0  0  0  0  0  0  0  0  # atno 6907 bound_to 6896
  151.8774  133.3483  159.3763 H   0  0  0  0  0  0  0  0  0  0  0  0  # atno 6908 bound_to 6896
  150.7093  134.4979  159.5591 H   0  0  0  0  0  0  0  0  0  0  0  0  # atno 6909 bound_to 6896
  144.8570  140.6158  143.5353 H   0  0  0  0  0  0  0  0  0  0  0  0  # atno 7974 bound_to 7965
  156.3000  140.2409  156.3976 H   0  0  0  0  0  0  0  0  0  0  0  0  # atno 8008 bound_to 7997
  154.8556  140.0422  157.1652 H   0  0  0  0  0  0  0  0  0  0  0  0  # atno 8009 bound_to 7997
  154.8951  140.2969  155.5352 H   0  0  0  0  0  0  0  0  0  0  0  0  # atno 8010 bound_to 7997
  140.3564  144.2284  150.6141 H   0  0  0  0  0  0  0  0  0  0  0  0  # atno 10167 bound_to 10162
  156.2056  130.6885  151.0590 H   0  0  0  0  0  0  0  0  0  0  0  0  # atno 10718 bound_to 10713
  153.6873  135.6963  153.5100 H   0  0  0  0  0  0  0  0  0  0  0  0  # atno 10763 bound_to 10752
  153.2439  135.4297  155.0726 H   0  0  0  0  0  0  0  0  0  0  0  0  # atno 10764 bound_to 10752
  154.8383  135.3514  154.6416 H   0  0  0  0  0  0  0  0  0  0  0  0  # atno 10765 bound_to 10752
  140.3197  134.7447  157.4055 H   0  0  0  0  0  0  0  0  0  0  0  0  # atno 11005 bound_to 11000
  145.4387  139.1538  143.3982 LP  0  0  0  0  0  0  0  0  0  0  0  0  # atno 17320 bound_to 7965
  146.2831  140.4507  142.8769 LP  0  0  0  0  0  0  0  0  0  0  0  0  # atno 17321 bound_to 7965
  140.5169  143.2275  151.8449 LP  0  0  0  0  0  0  0  0  0  0  0  0  # atno 17342 bound_to 10162
  139.4819  144.4883  151.9218 LP  0  0  0  0  0  0  0  0  0  0  0  0  # atno 17343 bound_to 10162
  157.7010  131.0776  150.6819 LP  0  0  0  0  0  0  0  0  0  0  0  0  # atno 17370 bound_to 10713
  156.6878  130.4586  149.5609 LP  0  0  0  0  0  0  0  0  0  0  0  0  # atno 17371 bound_to 10713
  140.0952  134.5547  155.8405 LP  0  0  0  0  0  0  0  0  0  0  0  0  # atno 17394 bound_to 11000
  141.2089  133.6678  156.6404 LP  0  0  0  0  0  0  0  0  0  0  0  0  # atno 17395 bound_to 11000

$$$$
