AV-unprocessed.smi:101|AV-procd|sdf|919|dock5
  -GOLD-   2262017423D 1   1.00000     0.00000
 Structure written by MMmdl.
 44 46  0  0  0  0  0  0  0  0  1 V2000
  146.3715  135.2198  154.6623 C   0  0  0  0  0  0  0  0  0  0  0  0
  147.4627  135.5396  155.6705 C   0  0  0  0  0  0  0  0  0  0  0  0
  148.5493  136.2889  155.3533 C   0  0  0  0  0  0  0  0  0  0  0  0
  149.5626  136.5953  156.2517 N   0  0  0  0  0  0  0  0  0  0  0  0
  150.7571  137.4214  155.8354 C   0  0  2  0  0  0  0  0  0  0  0  0
  150.5921  138.7177  156.3238 O   0  0  0  0  0  0  0  0  0  0  0  0
  150.9711  139.6550  155.3254 C   0  0  2  0  0  0  0  0  0  0  0  0
  150.3168  141.0204  155.5777 C   0  0  0  0  0  0  0  0  0  0  0  0
  151.0098  141.6788  156.6248 O   0  0  0  0  0  0  0  0  0  0  0  0
  150.7937  141.3220  157.9056 C   0  0  0  0  0  0  0  0  0  0  0  0
  150.1868  140.3012  158.2360 O   0  0  0  0  0  0  0  0  0  0  0  0
  151.3673  142.2920  158.8827 C   0  0  0  0  0  0  0  0  0  0  0  0
  152.2339  141.8230  159.8973 C   0  0  0  0  0  0  0  0  0  0  0  0
  152.7927  142.7153  160.8330 C   0  0  0  0  0  0  0  0  0  0  0  0
  152.4931  144.0883  160.7642 C   0  0  0  0  0  0  0  0  0  0  0  0
  151.6330  144.5679  159.7591 C   0  0  0  0  0  0  0  0  0  0  0  0
  151.0719  143.6767  158.8238 C   0  0  0  0  0  0  0  0  0  0  0  0
  150.5900  138.9664  154.0087 C   0  0  2  0  0  0  0  0  0  0  0  0
  149.2240  139.1704  153.6965 O   0  0  0  0  0  0  0  0  0  0  0  0
  150.8589  137.4942  154.3001 C   0  0  1  0  0  0  0  0  0  0  0  0
  152.1541  137.1421  153.8546 O   0  0  0  0  0  0  0  0  0  0  0  0
  149.4987  136.0877  157.5655 C   0  0  0  0  0  0  0  0  0  0  0  0
  150.3763  136.2869  158.4045 O   0  0  0  0  0  0  0  0  0  0  0  0
  148.3802  135.3238  157.8938 N   0  0  0  0  0  0  0  0  0  0  0  0
  147.3289  135.0076  157.0295 C   0  0  0  0  0  0  0  0  0  0  0  0
  146.3906  134.3259  157.4388 O   0  0  0  0  0  0  0  0  0  0  0  0
  148.3275  134.9639  158.8354 H   0  0  0  0  0  0  0  0  0  0  0  0
  146.5789  135.6624  153.6875 H   0  0  0  0  0  0  0  0  0  0  0  0
  145.4104  135.6037  155.0061 H   0  0  0  0  0  0  0  0  0  0  0  0
  146.2817  134.1414  154.5269 H   0  0  0  0  0  0  0  0  0  0  0  0
  148.6271  136.6604  154.3420 H   0  0  0  0  0  0  0  0  0  0  0  0
  151.6335  136.9861  156.3197 H   0  0  0  0  0  0  0  0  0  0  0  0
  152.0576  139.7562  155.3556 H   0  0  0  0  0  0  0  0  0  0  0  0
  150.3721  141.6328  154.6767 H   0  0  0  0  0  0  0  0  0  0  0  0
  149.2629  140.8993  155.8331 H   0  0  0  0  0  0  0  0  0  0  0  0
  152.4806  140.7733  159.9686 H   0  0  0  0  0  0  0  0  0  0  0  0
  153.4529  142.3452  161.6034 H   0  0  0  0  0  0  0  0  0  0  0  0
  152.9228  144.7726  161.4809 H   0  0  0  0  0  0  0  0  0  0  0  0
  151.4034  145.6218  159.7044 H   0  0  0  0  0  0  0  0  0  0  0  0
  150.4158  144.0783  158.0653 H   0  0  0  0  0  0  0  0  0  0  0  0
  151.1795  139.3420  153.1710 H   0  0  0  0  0  0  0  0  0  0  0  0
  149.1504  139.3635  152.7743 H   0  0  0  0  0  0  0  0  0  0  0  0
  150.1346  136.8329  153.8210 H   0  0  0  0  0  0  0  0  0  0  0  0
  152.1304  137.0328  152.9163 H   0  0  0  0  0  0  0  0  0  0  0  0
  1  2  1  0  0  0  0
  1 28  1  0  0  0  0
  1 29  1  0  0  0  0
  1 30  1  0  0  0  0
  2 25  1  0  0  0  0
  2  3  2  0  0  0  0
  3  4  1  0  0  0  0
  3 31  1  0  0  0  0
  4  5  1  0  0  0  0
  4 22  1  0  0  0  0
  5 20  1  0  0  0  0
  5  6  1  0  0  0  0
  5 32  1  0  0  0  0
  6  7  1  0  0  0  0
  7  8  1  0  0  0  0
  7 18  1  0  0  0  0
  7 33  1  0  0  0  0
  8  9  1  0  0  0  0
  8 34  1  0  0  0  0
  8 35  1  0  0  0  0
  9 10  1  0  0  0  0
 10 11  2  0  0  0  0
 10 12  1  0  0  0  0
 12 17  1  0  0  0  0
 12 13  2  0  0  0  0
 13 14  1  0  0  0  0
 13 36  1  0  0  0  0
 14 15  2  0  0  0  0
 14 37  1  0  0  0  0
 15 16  1  0  0  0  0
 15 38  1  0  0  0  0
 16 17  2  0  0  0  0
 16 39  1  0  0  0  0
 17 40  1  0  0  0  0
 18 19  1  0  0  0  0
 18 20  1  0  0  0  0
 18 41  1  0  0  0  0
 19 42  1  0  0  0  0
 20 21  1  0  0  0  0
 20 43  1  0  0  0  0
 21 44  1  0  0  0  0
 22 23  2  0  0  0  0
 22 24  1  0  0  0  0
 24 27  1  0  0  0  0
 24 25  1  0  0  0  0
 25 26  2  0  0  0  0
M  END
> <s_m_source_file>
AV-unprocessed.smi

> <i_m_source_file_index>
101

> <i_lp_mmshare_version>
43012

> <i_f3d_flags>
0

> <s_epik_input>
Tz1jMVtuSF1jKD1PKW4oW2NIXWMxW0NIM10pW0NAQEhdMk9bQ0BIXShbQ0BASF0oW09IXSlbQ0BIXTJbT0hdKVtDSDJdT0MoPU8pYzNbY0hdW2NIXVtjSF1bY0hdW2NIXTM=

> <s_epik_cmdline>
J2VwaWtfcHl0aG9uJywgJy1waCcsICc3LjAnLCAnLXRuJywgJzgnLCAnLW1hJywgJzIwMCcsICctbWV0YWxfYmluZGluZycsICctaW1hZScsICc8aW5maWxlLm1hZT4nLCAnLW9tYWUnLCAnPG91dGZpbGUubWFlPic=

> <r_lp_tautomer_probability>
0.999537

> <r_epik_Ionization_Penalty>
0.00263537

> <r_epik_Ionization_Penalty_Charging>
0.00263428

> <r_epik_Ionization_Penalty_Neutral>
1.09111e-06

> <r_epik_State_Penalty>
0.00183335

> <r_epik_Charging_Adjusted_Penalty>
0.00446763

> <i_epik_Tot_Q>
0

> <i_epik_Tot_abs_Q>
0

> <r_epik_Metal_State_Penalty>
1.00528

> <b_epik_Metal_Only>
0

> <s_epik_Chemistry_Notes>
This compound has an ester and may undergo hydrolysis at high or low pH. This compound contains an acetal/aminal-like group ( X-CH(R)-Y where X, Y are N, S, or O) that may be acid/base labile, releasing an aldehyde.

> <s_lp_Force_Field>
OPLS_2005

> <r_lp_Energy>
30.9331

> <b_lp_Chiralities_Consistent>
1

> <s_lp_Variant>
AV-unprocessed.smi:101-7

> <Gold.Version>
5.8.1

> <Gold.Id.Protein>
6NUR|6NUR_protein|mol2

> <Gold.PLP.Fitness>
48.2866

> <Gold.PLP.PLP>
-38.0879

> <Gold.PLP.part.hbond>
-4.0000

> <Gold.PLP.part.metal>
0.0000

> <Gold.PLP.part.buried>
-4.6661

> <Gold.PLP.part.nonpolar>
-28.2935

> <Gold.PLP.part.repulsive>
0.1193

> <Gold.PLP.ligand.clash>
0.0000

> <Gold.PLP.ligand.torsion>
1.7670

> <Gold.PLP.Chemscore.Hbond>
3.5760

> <Gold.PLP.Chemscore.CHOScore>
0.9891

> <Gold.PLP.Chemscore.Metal>
0.0000

> <Gold.Chemscore.Hbonds>
donor molecule, donor type, donor heavy atom, donor atom, acceptor molecule, acceptor atom, score
      L1  H    19    42       P1  7957  1.00
      L1  H    21    44       P1  7949  0.83
      P1  H  6896  6909       L1    23  0.93
      P1  H 10752 10765       L1    21  0.82
      L1  C     3    31       P1  7948  1.00

> <Gold.PLP.Chemscore.Internal.Correction>
0.0373

> <Gold.Rescore>
     Score         DG    S(hbond)    S(metal)    S(lipo)     H(rot)  DE(clash)    DE(int)     intcor
     14.62     -18.29       2.96        0.00      97.53       3.32       0.04       3.62       ----

> <Gold.Chemscore.Fitness>
14.6246

> <Gold.Chemscore.DG>
-18.2899

> <Gold.Chemscore.ZeroCoef>
-5.4800

> <Gold.Chemscore.Hbond>
2.9613

> <Gold.Chemscore.Metal>
0.0000

> <Gold.Chemscore.Lipo>
97.5315

> <Gold.Chemscore.Internal_Hbond>
0.0000

> <Gold.Chemscore.DEClash>
0.0443

> <Gold.Chemscore.DEInternal>
3.6211

> <Gold.Chemscore.Rot>
3.3172

> <Gold.Chemscore.Internal.Correction>
   9.000000E+99

> <Gold.Chemscore.Hbonds>
donor molecule, donor type, donor heavy atom, donor atom, acceptor molecule, acceptor atom, score
      L1  H    19    42       P1  7957  0.99
      L1  H    21    44       P1  7949  0.80
      P1  H  6896  6909       L1    23  0.89
      P1  H 10752 10765       L1    21  0.13

> <Gold.Chemscore.Hbond.Weighted>
-9.8908

> <Gold.Chemscore.Metal.Weighted>
-0.0000

> <Gold.Chemscore.Lipo.Weighted>
-11.4112

> <Gold.Chemscore.Internal_Hbond.Weighted>
0.0000

> <Gold.Chemscore.DEClash.Weighted>
0.0443

> <Gold.Chemscore.DEInternal.Weighted>
3.6211

> <Gold.Chemscore.Rot.Weighted>
8.4920

> <Gold.Chemscore.Internal.Correction.Weighted>
   9.000000E+99

> <Gold.Protein.RotatedTorsions>
[ 6907 6896 6895 6894 ] final   76.02 input  -60.11 | X-H torsion
[ 7974 7965 7964 7962 ] final  -40.85 input  175.53 | X-H torsion
[ 8008 7997 7996 7995 ] final -118.80 input   59.86 | X-H torsion
[ 10167 10162 10161 10158 ] final -107.56 input  -65.29 | X-H torsion
[ 10718 10713 10712 10709 ] final -137.83 input   66.30 | X-H torsion
[ 10763 10752 10751 10750 ] final  157.46 input  -60.55 | X-H torsion
[ 11005 11000 10999 10996 ] final    9.82 input  -57.11 | X-H torsion

> <Gold.Protein.ActiveResidues>
 VAL166  LYS551  ARG553  GLY616  TRP617  ASP618  TYR619  PRO620  LYS621  CYS622 
 ASP623  PHE694  ASN695  SER759  ASP760  ASP761  ALA762  ILE779  LEU786  VAL792 
 PHE793  MET794  SER795  GLU796  ALA797  LYS798  CYS799  TRP800  GLU811  SER814 

> <Gold.Protein.RotatedAtoms>
  152.5053  134.4032  159.9423 H   0  0  0  0  0  0  0  0  0  0  0  0  # atno 6907 bound_to 6896
  151.3997  133.3755  159.2738 H   0  0  0  0  0  0  0  0  0  0  0  0  # atno 6908 bound_to 6896
  150.9371  134.8804  159.7647 H   0  0  0  0  0  0  0  0  0  0  0  0  # atno 6909 bound_to 6896
  146.0266  140.6784  142.9152 H   0  0  0  0  0  0  0  0  0  0  0  0  # atno 7974 bound_to 7965
  155.1055  140.0396  157.2709 H   0  0  0  0  0  0  0  0  0  0  0  0  # atno 8008 bound_to 7997
  154.6725  140.2615  155.6967 H   0  0  0  0  0  0  0  0  0  0  0  0  # atno 8009 bound_to 7997
  156.2664  140.2795  156.1239 H   0  0  0  0  0  0  0  0  0  0  0  0  # atno 8010 bound_to 7997
  140.1757  143.4007  152.1321 H   0  0  0  0  0  0  0  0  0  0  0  0  # atno 10167 bound_to 10162
  156.2925  130.7383  151.1412 H   0  0  0  0  0  0  0  0  0  0  0  0  # atno 10718 bound_to 10713
  154.2005  135.2790  155.2992 H   0  0  0  0  0  0  0  0  0  0  0  0  # atno 10763 bound_to 10752
  154.5858  135.5575  153.7232 H   0  0  0  0  0  0  0  0  0  0  0  0  # atno 10764 bound_to 10752
  153.0089  135.6356  154.2144 H   0  0  0  0  0  0  0  0  0  0  0  0  # atno 10765 bound_to 10752
  140.5214  134.0555  155.7846 H   0  0  0  0  0  0  0  0  0  0  0  0  # atno 11005 bound_to 11000
  144.7012  140.3661  143.7154 LP  0  0  0  0  0  0  0  0  0  0  0  0  # atno 17320 bound_to 7965
  145.7108  139.1684  143.2540 LP  0  0  0  0  0  0  0  0  0  0  0  0  # atno 17321 bound_to 7965
  139.5318  144.7167  151.5029 LP  0  0  0  0  0  0  0  0  0  0  0  0  # atno 17342 bound_to 10162
  140.6553  143.8612  150.6828 LP  0  0  0  0  0  0  0  0  0  0  0  0  # atno 17343 bound_to 10162
  157.7346  131.0580  150.5514 LP  0  0  0  0  0  0  0  0  0  0  0  0  # atno 17370 bound_to 10713
  156.5632  130.4261  149.6053 LP  0  0  0  0  0  0  0  0  0  0  0  0  # atno 17371 bound_to 10713
  141.1332  133.9267  157.2491 LP  0  0  0  0  0  0  0  0  0  0  0  0  # atno 17394 bound_to 11000
  139.9603  135.0155  156.9244 LP  0  0  0  0  0  0  0  0  0  0  0  0  # atno 17395 bound_to 11000

$$$$
