AV-unprocessed.smi:1692|AV-procd|sdf|6782|dock9
  -GOLD-   22720 7543D 1   1.00000     0.00000
 Structure written by MMmdl.
 45 46  0  0  0  0  0  0  0  0  1 V2000
  150.7020  134.6079  155.6659 C   0  0  0  0  0  0  0  0  0  0  0  0
  150.6989  136.1365  155.5575 C   0  0  2  0  0  0  0  0  0  0  0  0
  149.3259  136.6843  155.1288 C   0  0  0  0  0  0  0  0  0  0  0  0
  149.3453  138.1305  154.9498 N   0  0  0  0  0  0  0  0  0  0  0  0
  148.0198  138.6268  154.5826 C   0  0  0  0  0  0  0  0  0  0  0  0
  147.7700  140.1141  154.8858 C   0  0  0  0  0  0  0  0  0  0  0  0
  148.7978  141.0226  154.1925 C   0  0  0  0  0  0  0  0  0  0  0  0
  149.4612  141.9088  155.1421 N   0  0  0  0  0  0  0  0  0  0  0  0
  150.2228  141.5056  156.1695 C   0  0  0  0  0  0  0  0  0  0  0  0
  150.4530  140.3220  156.4197 O   0  0  0  0  0  0  0  0  0  0  0  0
  150.6884  142.5546  156.8704 N   0  0  0  0  0  0  0  0  0  0  0  0
  151.5083  142.5422  158.0305 C   0  0  0  0  0  0  0  0  0  0  0  0
  151.8165  143.8165  158.5585 C   0  0  0  0  0  0  0  0  0  0  0  0
  152.6220  143.9133  159.7098 C   0  0  0  0  0  0  0  0  0  0  0  0
  153.0991  142.7317  160.3044 C   0  0  0  0  0  0  0  0  0  0  0  0
  152.7460  141.5036  159.7155 C   0  0  0  0  0  0  0  0  0  0  0  0
  151.9742  141.4085  158.6121 N   0  0  0  0  0  0  0  0  0  0  0  0
  150.3665  138.4728  153.9620 C   0  0  0  0  0  0  0  0  0  0  0  0
  151.7584  137.9149  154.3227 C   0  0  1  0  0  0  0  0  0  0  0  0
  152.4425  138.6784  155.4693 C   0  0  0  0  0  0  0  0  0  0  0  0
  151.6793  136.5144  154.5929 O   0  0  0  0  0  0  0  0  0  0  0  0
  149.9714  134.2650  156.3988 H   0  0  0  0  0  0  0  0  0  0  0  0
  151.6807  134.2414  155.9763 H   0  0  0  0  0  0  0  0  0  0  0  0
  150.4605  134.1436  154.7093 H   0  0  0  0  0  0  0  0  0  0  0  0
  150.9683  136.5490  156.5303 H   0  0  0  0  0  0  0  0  0  0  0  0
  149.0146  136.2023  154.2005 H   0  0  0  0  0  0  0  0  0  0  0  0
  148.5837  136.4168  155.8817 H   0  0  0  0  0  0  0  0  0  0  0  0
  147.8331  138.4335  153.5251 H   0  0  0  0  0  0  0  0  0  0  0  0
  147.2704  138.0515  155.1281 H   0  0  0  0  0  0  0  0  0  0  0  0
  146.7640  140.3838  154.5612 H   0  0  0  0  0  0  0  0  0  0  0  0
  147.8098  140.2934  155.9600 H   0  0  0  0  0  0  0  0  0  0  0  0
  149.5627  140.4143  153.7094 H   0  0  0  0  0  0  0  0  0  0  0  0
  148.3223  141.6064  153.4025 H   0  0  0  0  0  0  0  0  0  0  0  0
  149.3249  142.9001  155.0097 H   0  0  0  0  0  0  0  0  0  0  0  0
  150.4186  143.4692  156.5401 H   0  0  0  0  0  0  0  0  0  0  0  0
  151.4412  144.7146  158.0894 H   0  0  0  0  0  0  0  0  0  0  0  0
  152.8686  144.8778  160.1287 H   0  0  0  0  0  0  0  0  0  0  0  0
  153.7191  142.7649  161.1880 H   0  0  0  0  0  0  0  0  0  0  0  0
  153.0918  140.5730  160.1405 H   0  0  0  0  0  0  0  0  0  0  0  0
  150.0720  138.0791  152.9880 H   0  0  0  0  0  0  0  0  0  0  0  0
  150.4408  139.5536  153.8471 H   0  0  0  0  0  0  0  0  0  0  0  0
  152.3977  138.0209  153.4459 H   0  0  0  0  0  0  0  0  0  0  0  0
  152.5994  139.7228  155.1996 H   0  0  0  0  0  0  0  0  0  0  0  0
  153.4171  138.2460  155.6968 H   0  0  0  0  0  0  0  0  0  0  0  0
  151.8488  138.6645  156.3829 H   0  0  0  0  0  0  0  0  0  0  0  0
  1  2  1  0  0  0  0
  1 22  1  0  0  0  0
  1 23  1  0  0  0  0
  1 24  1  0  0  0  0
  2 21  1  0  0  0  0
  2  3  1  0  0  0  0
  2 25  1  0  0  0  0
  3  4  1  0  0  0  0
  3 26  1  0  0  0  0
  3 27  1  0  0  0  0
  4  5  1  0  0  0  0
  4 18  1  0  0  0  0
  5  6  1  0  0  0  0
  5 28  1  0  0  0  0
  5 29  1  0  0  0  0
  6  7  1  0  0  0  0
  6 30  1  0  0  0  0
  6 31  1  0  0  0  0
  7  8  1  0  0  0  0
  7 32  1  0  0  0  0
  7 33  1  0  0  0  0
  8  9  1  0  0  0  0
  8 34  1  0  0  0  0
  9 10  2  0  0  0  0
  9 11  1  0  0  0  0
 11 12  1  0  0  0  0
 11 35  1  0  0  0  0
 12 17  1  0  0  0  0
 12 13  2  0  0  0  0
 13 14  1  0  0  0  0
 13 36  1  0  0  0  0
 14 15  2  0  0  0  0
 14 37  1  0  0  0  0
 15 16  1  0  0  0  0
 15 38  1  0  0  0  0
 16 17  2  0  0  0  0
 16 39  1  0  0  0  0
 18 19  1  0  0  0  0
 18 40  1  0  0  0  0
 18 41  1  0  0  0  0
 19 20  1  0  0  0  0
 19 21  1  0  0  0  0
 19 42  1  0  0  0  0
 20 43  1  0  0  0  0
 20 44  1  0  0  0  0
 20 45  1  0  0  0  0
M  END
> <s_m_source_file>
AV-unprocessed.smi

> <i_m_source_file_index>
1692

> <i_lp_mmshare_version>
43012

> <i_f3d_flags>
0

> <s_epik_input>
W0NIM11bQ0BASF0xW0NIMl1OKFtDSDJdW0NASF0oTzEpW0NIM10pW0NIMl1bQ0gyXVtDSDJdW05IXUMoPU8pW05IXWMyW2NIXVtjSF1bY0hdW2NIXW4y

> <s_epik_cmdline>
J2VwaWtfcHl0aG9uJywgJy1waCcsICc3LjAnLCAnLXRuJywgJzgnLCAnLW1hJywgJzIwMCcsICctbWV0YWxfYmluZGluZycsICctaW1hZScsICc8aW5maWxlLm1hZT4nLCAnLW9tYWUnLCAnPG91dGZpbGUubWFlPic=

> <r_epik_Ionization_Penalty>
0.594711

> <r_epik_Ionization_Penalty_Charging>
0

> <r_epik_Ionization_Penalty_Neutral>
0.594711

> <r_epik_State_Penalty>
0.608529

> <r_epik_Charging_Adjusted_Penalty>
0.608529

> <i_epik_Tot_Q>
0

> <i_epik_Tot_abs_Q>
0

> <r_epik_Metal_State_Penalty>
0.608528

> <b_epik_Metal_Only>
0

> <s_lp_Force_Field>
OPLS_2005

> <r_lp_Energy>
25.8915

> <b_lp_Chiralities_Consistent>
1

> <s_lp_Variant>
AV-unprocessed.smi:1692-5

> <Gold.Version>
5.8.1

> <Gold.Id.Protein>
6NUR|6NUR_protein|mol2

> <Gold.PLP.Fitness>
50.5014

> <Gold.PLP.PLP>
-43.0063

> <Gold.PLP.part.hbond>
-2.9991

> <Gold.PLP.part.metal>
0.0000

> <Gold.PLP.part.buried>
-6.6840

> <Gold.PLP.part.nonpolar>
-34.5110

> <Gold.PLP.part.repulsive>
0.5546

> <Gold.PLP.ligand.clash>
0.0000

> <Gold.PLP.ligand.torsion>
0.5790

> <Gold.PLP.Chemscore.Hbond>
2.8800

> <Gold.PLP.Chemscore.CHOScore>
0.0000

> <Gold.PLP.Chemscore.Metal>
0.0000

> <Gold.Chemscore.Hbonds>
donor molecule, donor type, donor heavy atom, donor atom, acceptor molecule, acceptor atom, score
      L1  H     8    34       P1  8028  1.00
      L1  H    11    35       P1  8028  0.67
      P1  H 10752 10764       L1    21  1.00

> <Gold.PLP.Chemscore.Internal.Correction>
0.0130

> <Gold.Rescore>
     Score         DG    S(hbond)    S(metal)    S(lipo)     H(rot)  DE(clash)    DE(int)     intcor
     18.53     -22.13       2.84        0.00      98.94       1.73       0.02       3.58       ----

> <Gold.Chemscore.Fitness>
18.5342

> <Gold.Chemscore.DG>
-22.1323

> <Gold.Chemscore.ZeroCoef>
-5.4800

> <Gold.Chemscore.Hbond>
2.8432

> <Gold.Chemscore.Metal>
0.0000

> <Gold.Chemscore.Lipo>
98.9394

> <Gold.Chemscore.Internal_Hbond>
0.0000

> <Gold.Chemscore.DEClash>
0.0208

> <Gold.Chemscore.DEInternal>
3.5773

> <Gold.Chemscore.Rot>
1.7266

> <Gold.Chemscore.Internal.Correction>
   9.000000E+99

> <Gold.Chemscore.Hbonds>
donor molecule, donor type, donor heavy atom, donor atom, acceptor molecule, acceptor atom, score
      L1  H     8    34       P1  8028  0.96
      L1  H    11    35       P1  8028  0.64
      P1  H 10752 10764       L1    21  0.83

> <Gold.Chemscore.Hbond.Weighted>
-9.4964

> <Gold.Chemscore.Metal.Weighted>
-0.0000

> <Gold.Chemscore.Lipo.Weighted>
-11.5759

> <Gold.Chemscore.Internal_Hbond.Weighted>
0.0000

> <Gold.Chemscore.DEClash.Weighted>
0.0208

> <Gold.Chemscore.DEInternal.Weighted>
3.5773

> <Gold.Chemscore.Rot.Weighted>
4.4200

> <Gold.Chemscore.Internal.Correction.Weighted>
   9.000000E+99

> <Gold.Protein.RotatedTorsions>
[ 6907 6896 6895 6894 ] final  -25.30 input  -60.11 | X-H torsion
[ 7974 7965 7964 7962 ] final   77.22 input  175.53 | X-H torsion
[ 8008 7997 7996 7995 ] final -153.20 input   59.86 | X-H torsion
[ 10167 10162 10161 10158 ] final  -25.54 input  -65.29 | X-H torsion
[ 10718 10713 10712 10709 ] final    4.64 input   66.30 | X-H torsion
[ 10763 10752 10751 10750 ] final  -59.55 input  -60.55 | X-H torsion
[ 11005 11000 10999 10996 ] final -126.30 input  -57.11 | X-H torsion

> <Gold.Protein.ActiveResidues>
 VAL166  LYS551  ARG553  GLY616  TRP617  ASP618  TYR619  PRO620  LYS621  CYS622 
 ASP623  PHE694  ASN695  SER759  ASP760  ASP761  ALA762  ILE779  LEU786  VAL792 
 PHE793  MET794  SER795  GLU796  ALA797  LYS798  CYS799  TRP800  GLU811  SER814 

> <Gold.Protein.RotatedAtoms>
  151.1772  135.0345  159.8776 H   0  0  0  0  0  0  0  0  0  0  0  0  # atno 6907 bound_to 6896
  152.5446  134.1104  159.8366 H   0  0  0  0  0  0  0  0  0  0  0  0  # atno 6908 bound_to 6896
  151.1216  133.5053  159.2634 H   0  0  0  0  0  0  0  0  0  0  0  0  # atno 6909 bound_to 6896
  145.6929  139.2558  143.1749 H   0  0  0  0  0  0  0  0  0  0  0  0  # atno 7974 bound_to 7965
  155.6672  140.0729  157.2533 H   0  0  0  0  0  0  0  0  0  0  0  0  # atno 8008 bound_to 7997
  154.4130  140.1705  156.1890 H   0  0  0  0  0  0  0  0  0  0  0  0  # atno 8009 bound_to 7997
  155.9648  140.3367  155.6525 H   0  0  0  0  0  0  0  0  0  0  0  0  # atno 8010 bound_to 7997
  140.7286  143.4256  151.0882 H   0  0  0  0  0  0  0  0  0  0  0  0  # atno 10167 bound_to 10162
  156.8957  130.5703  149.5649 H   0  0  0  0  0  0  0  0  0  0  0  0  # atno 10718 bound_to 10713
  154.2555  135.6318  153.5255 H   0  0  0  0  0  0  0  0  0  0  0  0  # atno 10763 bound_to 10752
  152.9905  135.5575  154.5761 H   0  0  0  0  0  0  0  0  0  0  0  0  # atno 10764 bound_to 10752
  154.5298  135.2887  155.1165 H   0  0  0  0  0  0  0  0  0  0  0  0  # atno 10765 bound_to 10752
  140.9692  134.0829  157.3887 H   0  0  0  0  0  0  0  0  0  0  0  0  # atno 11005 bound_to 11000
  146.0866  140.7703  142.9615 LP  0  0  0  0  0  0  0  0  0  0  0  0  # atno 17320 bound_to 7965
  144.6991  140.3572  143.7170 LP  0  0  0  0  0  0  0  0  0  0  0  0  # atno 17321 bound_to 7965
  139.7907  143.8222  152.3151 LP  0  0  0  0  0  0  0  0  0  0  0  0  # atno 17342 bound_to 10162
  139.8205  144.7297  150.9578 LP  0  0  0  0  0  0  0  0  0  0  0  0  # atno 17343 bound_to 10162
  156.0607  130.5660  150.9186 LP  0  0  0  0  0  0  0  0  0  0  0  0  # atno 17370 bound_to 10713
  157.6057  131.0939  150.8883 LP  0  0  0  0  0  0  0  0  0  0  0  0  # atno 17371 bound_to 10713
  139.8906  135.0113  156.6744 LP  0  0  0  0  0  0  0  0  0  0  0  0  # atno 17394 bound_to 11000
  140.7354  133.9023  155.8240 LP  0  0  0  0  0  0  0  0  0  0  0  0  # atno 17395 bound_to 11000

$$$$
