AV-unprocessed.smi:3083|AV-procd|sdf|11744|dock1
  -GOLD-   2272017133D 1   1.00000     0.00000
 Structure written by MMmdl.
 28 29  0  0  0  0  0  0  0  0  2 V2000
  151.3157  144.0438  156.4686 N   0  3  0  0  0  0  0  0  0  0  0  0
  151.3098  143.1367  157.6311 C   0  0  2  0  0  0  0  0  0  0  0  0
  152.4677  143.4887  158.5838 C   0  0  0  0  0  0  0  0  0  0  0  0
  152.4999  142.5499  159.7998 C   0  0  0  0  0  0  0  0  0  0  0  0
  152.5847  141.0795  159.3635 C   0  0  0  0  0  0  0  0  0  0  0  0
  151.4347  140.7154  158.4117 C   0  0  0  0  0  0  0  0  0  0  0  0
  151.3934  141.6529  157.1871 C   0  0  1  0  0  0  0  0  0  0  0  0
  150.3089  141.2712  156.2899 N   0  0  0  0  0  0  0  0  0  0  0  0
  148.9523  141.4386  156.4786 C   0  0  0  0  0  0  0  0  0  0  0  0
  148.3218  140.9608  155.3657 C   0  0  0  0  0  0  0  0  0  0  0  0
  149.3898  140.5306  154.5305 C   0  0  0  0  0  0  0  0  0  0  0  0
  150.5766  140.7225  155.0831 N   0  0  0  0  0  0  0  0  0  0  0  0
  150.3995  144.0579  156.0442 H   0  0  0  0  0  0  0  0  0  0  0  0
  151.9961  143.7236  155.7944 H   0  0  0  0  0  0  0  0  0  0  0  0
  150.3721  143.3035  158.1634 H   0  0  0  0  0  0  0  0  0  0  0  0
  153.4185  143.4239  158.0523 H   0  0  0  0  0  0  0  0  0  0  0  0
  152.3738  144.5212  158.9230 H   0  0  0  0  0  0  0  0  0  0  0  0
  153.3487  142.7976  160.4380 H   0  0  0  0  0  0  0  0  0  0  0  0
  151.6042  142.7014  160.4034 H   0  0  0  0  0  0  0  0  0  0  0  0
  153.5403  140.8980  158.8699 H   0  0  0  0  0  0  0  0  0  0  0  0
  152.5616  140.4302  160.2394 H   0  0  0  0  0  0  0  0  0  0  0  0
  151.5446  139.6802  158.0862 H   0  0  0  0  0  0  0  0  0  0  0  0
  150.4888  140.7682  158.9532 H   0  0  0  0  0  0  0  0  0  0  0  0
  152.3247  141.5181  156.6339 H   0  0  0  0  0  0  0  0  0  0  0  0
  148.5511  141.8797  157.3792 H   0  0  0  0  0  0  0  0  0  0  0  0
  147.2594  140.9311  155.1736 H   0  0  0  0  0  0  0  0  0  0  0  0
  149.3388  140.0904  153.5454 H   0  0  0  0  0  0  0  0  0  0  0  0
  151.5595  144.9749  156.7756 H   0  0  0  0  0  0  0  0  0  0  0  0
  1  2  1  0  0  0  0
  1 13  1  0  0  0  0
  1 14  1  0  0  0  0
  1 28  1  0  0  0  0
  2  7  1  0  0  0  0
  2  3  1  0  0  0  0
  2 15  1  0  0  0  0
  3  4  1  0  0  0  0
  3 16  1  0  0  0  0
  3 17  1  0  0  0  0
  4  5  1  0  0  0  0
  4 18  1  0  0  0  0
  4 19  1  0  0  0  0
  5  6  1  0  0  0  0
  5 20  1  0  0  0  0
  5 21  1  0  0  0  0
  6  7  1  0  0  0  0
  6 22  1  0  0  0  0
  6 23  1  0  0  0  0
  7  8  1  0  0  0  0
  7 24  1  0  0  0  0
  8 12  1  0  0  0  0
  8  9  1  0  0  0  0
  9 10  2  0  0  0  0
  9 25  1  0  0  0  0
 10 11  1  0  0  0  0
 10 26  1  0  0  0  0
 11 12  2  0  0  0  0
 11 27  1  0  0  0  0
M  CHG  1   1   1
M  END
> <s_m_source_file>
AV-unprocessed.smi

> <i_m_source_file_index>
3083

> <i_lp_mmshare_version>
43012

> <i_f3d_flags>
0

> <s_epik_input>
W05IMl1bQ0BASF0xW0NIMl1bQ0gyXVtDSDJdW0NIMl1bQ0BIXTFuMltjSF1bY0hdW2NIXW4y

> <s_epik_cmdline>
J2VwaWtfcHl0aG9uJywgJy1waCcsICc3LjAnLCAnLXRuJywgJzgnLCAnLW1hJywgJzIwMCcsICctbWV0YWxfYmluZGluZycsICctaW1hZScsICc8aW5maWxlLm1hZT4nLCAnLW9tYWUnLCAnPG91dGZpbGUubWFlPic=

> <r_lp_tautomer_probability>
1

> <r_epik_Ionization_Penalty>
0.00385053

> <r_epik_Ionization_Penalty_Charging>
0.0038389

> <r_epik_Ionization_Penalty_Neutral>
1.16305e-05

> <r_epik_State_Penalty>
-0

> <r_epik_Charging_Adjusted_Penalty>
0.0038389

> <i_epik_Tot_Q>
1

> <i_epik_Tot_abs_Q>
1

> <r_epik_Metal_State_Penalty>
-0

> <b_epik_Metal_Only>
0

> <s_lp_Force_Field>
OPLS_2005

> <r_lp_Energy>
13.574

> <b_lp_Chiralities_Consistent>
1

> <s_lp_Variant>
AV-unprocessed.smi:3083-1

> <Gold.Version>
5.8.1

> <Gold.Id.Protein>
6NUR|6NUR_protein|mol2

> <Gold.PLP.Fitness>
38.2057

> <Gold.PLP.PLP>
-26.9419

> <Gold.PLP.part.hbond>
-2.0000

> <Gold.PLP.part.metal>
0.0000

> <Gold.PLP.part.buried>
-2.8133

> <Gold.PLP.part.nonpolar>
-21.6148

> <Gold.PLP.part.repulsive>
0.1672

> <Gold.PLP.ligand.clash>
0.0000

> <Gold.PLP.ligand.torsion>
0.1543

> <Gold.PLP.Chemscore.Hbond>
2.8480

> <Gold.PLP.Chemscore.CHOScore>
1.0000

> <Gold.PLP.Chemscore.Metal>
0.0000

> <Gold.Chemscore.Hbonds>
donor molecule, donor type, donor heavy atom, donor atom, acceptor molecule, acceptor atom, score
      L1  H     1    13       P1  8028  2.00
      P1  H  7989  7998       L1    12  0.84
      L1  C    11    27       P1  7957  1.00

> <Gold.PLP.Chemscore.Internal.Correction>
0.0284

> <Gold.Rescore>
     Score         DG    S(hbond)    S(metal)    S(lipo)     H(rot)  DE(clash)    DE(int)     intcor
     16.46     -16.75       1.64        0.00      71.36       1.00       0.14       0.15       ----

> <Gold.Chemscore.Fitness>
16.4584

> <Gold.Chemscore.DG>
-16.7500

> <Gold.Chemscore.ZeroCoef>
-5.4800

> <Gold.Chemscore.Hbond>
1.6410

> <Gold.Chemscore.Metal>
0.0000

> <Gold.Chemscore.Lipo>
71.3584

> <Gold.Chemscore.Internal_Hbond>
0.0000

> <Gold.Chemscore.DEClash>
0.1432

> <Gold.Chemscore.DEInternal>
0.1484

> <Gold.Chemscore.Rot>
1.0000

> <Gold.Chemscore.Internal.Correction>
   9.000000E+99

> <Gold.Chemscore.Hbonds>
donor molecule, donor type, donor heavy atom, donor atom, acceptor molecule, acceptor atom, score
      L1  H     1    13       P1  8028  0.97
      P1  H  7989  7998       L1    12  0.19

> <Gold.Chemscore.Hbond.Weighted>
-5.4811

> <Gold.Chemscore.Metal.Weighted>
-0.0000

> <Gold.Chemscore.Lipo.Weighted>
-8.3489

> <Gold.Chemscore.Internal_Hbond.Weighted>
0.0000

> <Gold.Chemscore.DEClash.Weighted>
0.1432

> <Gold.Chemscore.DEInternal.Weighted>
0.1484

> <Gold.Chemscore.Rot.Weighted>
2.5600

> <Gold.Chemscore.Internal.Correction.Weighted>
   9.000000E+99

> <Gold.Protein.RotatedTorsions>
[ 6907 6896 6895 6894 ] final  173.56 input  -60.11 | X-H torsion
[ 7974 7965 7964 7962 ] final   75.83 input  175.53 | X-H torsion
[ 8008 7997 7996 7995 ] final  168.77 input   59.86 | X-H torsion
[ 10167 10162 10161 10158 ] final  -35.16 input  -65.29 | X-H torsion
[ 10718 10713 10712 10709 ] final  -71.72 input   66.30 | X-H torsion
[ 10763 10752 10751 10750 ] final  172.91 input  -60.55 | X-H torsion
[ 11005 11000 10999 10996 ] final   59.36 input  -57.11 | X-H torsion

> <Gold.Protein.ActiveResidues>
 VAL166  LYS551  ARG553  GLY616  TRP617  ASP618  TYR619  PRO620  LYS621  CYS622 
 ASP623  PHE694  ASN695  SER759  ASP760  ASP761  ALA762  ILE779  LEU786  VAL792 
 PHE793  MET794  SER795  GLU796  ALA797  LYS798  CYS799  TRP800  GLU811  SER814 

> <Gold.Protein.RotatedAtoms>
  151.7663  133.3337  159.3431 H   0  0  0  0  0  0  0  0  0  0  0  0  # atno 6907 bound_to 6896
  150.7478  134.6059  159.6070 H   0  0  0  0  0  0  0  0  0  0  0  0  # atno 6908 bound_to 6896
  152.3371  134.7185  160.0325 H   0  0  0  0  0  0  0  0  0  0  0  0  # atno 6909 bound_to 6896
  145.7105  139.2613  143.1653 H   0  0  0  0  0  0  0  0  0  0  0  0  # atno 7974 bound_to 7965
  156.1517  140.1581  156.8759 H   0  0  0  0  0  0  0  0  0  0  0  0  # atno 8008 bound_to 7997
  154.5077  140.0809  156.7964 H   0  0  0  0  0  0  0  0  0  0  0  0  # atno 8009 bound_to 7997
  155.3883  140.3408  155.4252 H   0  0  0  0  0  0  0  0  0  0  0  0  # atno 8010 bound_to 7997
  140.7171  143.3497  151.2181 H   0  0  0  0  0  0  0  0  0  0  0  0  # atno 10167 bound_to 10162
  156.0351  130.4357  150.2486 H   0  0  0  0  0  0  0  0  0  0  0  0  # atno 10718 bound_to 10713
  154.4327  135.2760  155.1901 H   0  0  0  0  0  0  0  0  0  0  0  0  # atno 10763 bound_to 10752
  154.3800  135.6089  153.5789 H   0  0  0  0  0  0  0  0  0  0  0  0  # atno 10764 bound_to 10752
  152.9837  135.5878  154.4641 H   0  0  0  0  0  0  0  0  0  0  0  0  # atno 10765 bound_to 10752
  140.0309  134.6013  155.9508 H   0  0  0  0  0  0  0  0  0  0  0  0  # atno 11005 bound_to 11000
  146.0716  140.7862  142.9685 LP  0  0  0  0  0  0  0  0  0  0  0  0  # atno 17320 bound_to 7965
  144.6943  140.3351  143.7209 LP  0  0  0  0  0  0  0  0  0  0  0  0  # atno 17321 bound_to 7965
  139.7025  143.9510  152.2912 LP  0  0  0  0  0  0  0  0  0  0  0  0  # atno 17342 bound_to 10162
  139.9207  144.6801  150.8464 LP  0  0  0  0  0  0  0  0  0  0  0  0  # atno 17343 bound_to 10162
  157.0585  131.0083  151.3230 LP  0  0  0  0  0  0  0  0  0  0  0  0  # atno 17370 bound_to 10713
  157.5088  130.7925  149.7682 LP  0  0  0  0  0  0  0  0  0  0  0  0  # atno 17371 bound_to 10713
  141.1830  133.6550  156.5101 LP  0  0  0  0  0  0  0  0  0  0  0  0  # atno 17394 bound_to 11000
  140.4227  134.7173  157.4899 LP  0  0  0  0  0  0  0  0  0  0  0  0  # atno 17395 bound_to 11000

$$$$
