AV-unprocessed.smi:1758|AV-procd|sdf|7081|dock6
  -GOLD-   22720 8303D 1   1.00000     0.00000
 Structure written by MMmdl.
 44 46  0  0  0  0  0  0  0  0  2 V2000
  137.2414  139.9230  153.6561 C   0  0  0  0  0  0  0  0  0  0  0  0
  137.3309  138.4048  153.8497 C   0  0  0  0  0  0  0  0  0  0  0  0
  138.6687  137.9086  153.5938 N   0  0  0  0  0  0  0  0  0  0  0  0
  139.7941  138.6291  153.2457 C   0  0  0  0  0  0  0  0  0  0  0  0
  140.7963  137.7092  153.1180 C   0  0  0  0  0  0  0  0  0  0  0  0
  142.1567  137.9027  152.7682 N   0  0  0  0  0  0  0  0  0  0  0  0
  143.0587  136.9599  152.4497 C   0  0  0  0  0  0  0  0  0  0  0  0
  142.8257  135.7535  152.3790 O   0  0  0  0  0  0  0  0  0  0  0  0
  144.2616  137.5008  152.2100 N   0  0  0  0  0  0  0  0  0  0  0  0
  145.4646  136.7619  151.8361 C   0  0  2  0  0  0  0  0  0  0  0  0
  145.3131  135.9770  150.5209 C   0  0  0  0  0  0  0  0  0  0  0  0
  146.0662  134.6506  150.7494 C   0  0  0  0  0  0  0  0  0  0  0  0
  146.6742  134.7722  152.0886 N   0  3  2  0  0  0  0  0  0  0  0  0
  146.9801  133.5174  152.8094 C   0  0  0  0  0  0  0  0  0  0  0  0
  147.6758  133.8538  154.1443 C   0  0  0  0  0  0  0  0  0  0  0  0
  146.8637  134.8669  154.9778 C   0  0  0  0  0  0  0  0  0  0  0  0
  146.4987  136.1097  154.1427 C   0  0  0  0  0  0  0  0  0  0  0  0
  145.7924  135.6682  152.8511 C   0  0  1  0  0  0  0  0  0  0  0  0
  140.2058  136.4510  153.4048 C   0  0  0  0  0  0  0  0  0  0  0  0
  138.9195  136.5795  153.6921 N   0  0  0  0  0  0  0  0  0  0  0  0
  136.2261  140.2770  153.8355 H   0  0  0  0  0  0  0  0  0  0  0  0
  137.5188  140.2068  152.6405 H   0  0  0  0  0  0  0  0  0  0  0  0
  137.9033  140.4488  154.3451 H   0  0  0  0  0  0  0  0  0  0  0  0
  137.0428  138.1332  154.8663 H   0  0  0  0  0  0  0  0  0  0  0  0
  136.6366  137.8984  153.1780 H   0  0  0  0  0  0  0  0  0  0  0  0
  139.7731  139.7021  153.1243 H   0  0  0  0  0  0  0  0  0  0  0  0
  142.4778  138.8596  152.7720 H   0  0  0  0  0  0  0  0  0  0  0  0
  144.3520  138.5028  152.2947 H   0  0  0  0  0  0  0  0  0  0  0  0
  146.3286  137.4233  151.7440 H   0  0  0  0  0  0  0  0  0  0  0  0
  144.2653  135.7724  150.2959 H   0  0  0  0  0  0  0  0  0  0  0  0
  145.7240  136.5384  149.6810 H   0  0  0  0  0  0  0  0  0  0  0  0
  145.3648  133.8149  150.7295 H   0  0  0  0  0  0  0  0  0  0  0  0
  146.8305  134.4697  149.9933 H   0  0  0  0  0  0  0  0  0  0  0  0
  146.0613  132.9566  152.9877 H   0  0  0  0  0  0  0  0  0  0  0  0
  147.6276  132.8907  152.1950 H   0  0  0  0  0  0  0  0  0  0  0  0
  147.8395  132.9423  154.7204 H   0  0  0  0  0  0  0  0  0  0  0  0
  148.6639  134.2687  153.9401 H   0  0  0  0  0  0  0  0  0  0  0  0
  145.9509  134.3905  155.3375 H   0  0  0  0  0  0  0  0  0  0  0  0
  147.4275  135.1618  155.8632 H   0  0  0  0  0  0  0  0  0  0  0  0
  145.8545  136.7745  154.7190 H   0  0  0  0  0  0  0  0  0  0  0  0
  147.4007  136.6751  153.9043 H   0  0  0  0  0  0  0  0  0  0  0  0
  144.8782  135.1249  153.1026 H   0  0  0  0  0  0  0  0  0  0  0  0
  140.6565  135.4694  153.4136 H   0  0  0  0  0  0  0  0  0  0  0  0
  147.5452  135.2684  151.9644 H   0  0  0  0  0  0  0  0  0  0  0  0
  1  2  1  0  0  0  0
  1 21  1  0  0  0  0
  1 22  1  0  0  0  0
  1 23  1  0  0  0  0
  2  3  1  0  0  0  0
  2 24  1  0  0  0  0
  2 25  1  0  0  0  0
  3 20  1  0  0  0  0
  3  4  1  0  0  0  0
  4  5  2  0  0  0  0
  4 26  1  0  0  0  0
  5  6  1  0  0  0  0
  5 19  1  0  0  0  0
  6  7  1  0  0  0  0
  6 27  1  0  0  0  0
  7  8  2  0  0  0  0
  7  9  1  0  0  0  0
  9 10  1  0  0  0  0
  9 28  1  0  0  0  0
 10 18  1  0  0  0  0
 10 11  1  0  0  0  0
 10 29  1  0  0  0  0
 11 12  1  0  0  0  0
 11 30  1  0  0  0  0
 11 31  1  0  0  0  0
 12 13  1  0  0  0  0
 12 32  1  0  0  0  0
 12 33  1  0  0  0  0
 13 18  1  0  0  0  0
 13 14  1  0  0  0  0
 13 44  1  0  0  0  0
 14 15  1  0  0  0  0
 14 34  1  0  0  0  0
 14 35  1  0  0  0  0
 15 16  1  0  0  0  0
 15 36  1  0  0  0  0
 15 37  1  0  0  0  0
 16 17  1  0  0  0  0
 16 38  1  0  0  0  0
 16 39  1  0  0  0  0
 17 18  1  0  0  0  0
 17 40  1  0  0  0  0
 17 41  1  0  0  0  0
 18 42  1  0  0  0  0
 19 20  2  0  0  0  0
 19 43  1  0  0  0  0
M  CHG  1  13   1
M  END
> <s_m_source_file>
AV-unprocessed.smi

> <i_m_source_file_index>
1758

> <i_lp_mmshare_version>
43012

> <i_f3d_flags>
0

> <s_epik_input>
W0NIM11bQ0gyXW4xW2NIXWMoW2NIXW4xKVtOSF1DKD1PKVtOSF1bQ0BIXShbQ0gyXVtDSDJdMilbQ0BASF0oTjIzKVtDSDJdW0NIMl1bQ0gyXVtDSDJdMw==

> <s_epik_cmdline>
J2VwaWtfcHl0aG9uJywgJy1waCcsICc3LjAnLCAnLXRuJywgJzgnLCAnLW1hJywgJzIwMCcsICctbWV0YWxfYmluZGluZycsICctaW1hZScsICc8aW5maWxlLm1hZT4nLCAnLW9tYWUnLCAnPG91dGZpbGUubWFlPic=

> <r_lp_tautomer_probability>
1

> <r_epik_Ionization_Penalty>
0.00111541

> <r_epik_Ionization_Penalty_Charging>
0.000974069

> <r_epik_Ionization_Penalty_Neutral>
0.000141346

> <r_epik_State_Penalty>
0.000633842

> <r_epik_Charging_Adjusted_Penalty>
0.00160791

> <i_epik_Tot_Q>
1

> <i_epik_Tot_abs_Q>
1

> <r_epik_Metal_State_Penalty>
-0

> <b_epik_Metal_Only>
0

> <s_lp_Force_Field>
OPLS_2005

> <r_lp_Energy>
39.1276

> <b_lp_Chiralities_Consistent>
1

> <s_lp_Variant>
AV-unprocessed.smi:1758-3

> <Gold.Version>
5.8.1

> <Gold.Id.Protein>
6NUR|6NUR_protein|mol2

> <Gold.PLP.Fitness>
46.1465

> <Gold.PLP.PLP>
-31.5700

> <Gold.PLP.part.hbond>
-4.0000

> <Gold.PLP.part.metal>
0.0000

> <Gold.PLP.part.buried>
-4.9598

> <Gold.PLP.part.nonpolar>
-23.9189

> <Gold.PLP.part.repulsive>
0.3117

> <Gold.PLP.ligand.clash>
0.0000

> <Gold.PLP.ligand.torsion>
0.0412

> <Gold.PLP.Chemscore.Hbond>
3.9913

> <Gold.PLP.Chemscore.CHOScore>
0.8914

> <Gold.PLP.Chemscore.Metal>
0.0000

> <Gold.Chemscore.Hbonds>
donor molecule, donor type, donor heavy atom, donor atom, acceptor molecule, acceptor atom, score
      L1  H     6    27       P1 10175  1.00
      L1  H     9    28       P1 10175  0.93
      L1  H    13    44       P1  7948  2.00
      L1  C     4    26       P1 10160  0.70

> <Gold.PLP.Chemscore.Internal.Correction>
0.0110

> <Gold.Rescore>
     Score         DG    S(hbond)    S(metal)    S(lipo)     H(rot)  DE(clash)    DE(int)     intcor
     16.57     -19.24       2.92        0.00      60.21       1.19       0.02       2.64       ----

> <Gold.Chemscore.Fitness>
16.5681

> <Gold.Chemscore.DG>
-19.2355

> <Gold.Chemscore.ZeroCoef>
-5.4800

> <Gold.Chemscore.Hbond>
2.9201

> <Gold.Chemscore.Metal>
0.0000

> <Gold.Chemscore.Lipo>
60.2124

> <Gold.Chemscore.Internal_Hbond>
0.0000

> <Gold.Chemscore.DEClash>
0.0237

> <Gold.Chemscore.DEInternal>
2.6438

> <Gold.Chemscore.Rot>
1.1884

> <Gold.Chemscore.Internal.Correction>
   9.000000E+99

> <Gold.Chemscore.Hbonds>
donor molecule, donor type, donor heavy atom, donor atom, acceptor molecule, acceptor atom, score
      L1  H     6    27       P1 10175  0.98
      L1  H     9    28       P1 10175  0.87
      L1  H    13    44       P1  7948  0.98

> <Gold.Chemscore.Hbond.Weighted>
-9.7530

> <Gold.Chemscore.Metal.Weighted>
-0.0000

> <Gold.Chemscore.Lipo.Weighted>
-7.0448

> <Gold.Chemscore.Internal_Hbond.Weighted>
0.0000

> <Gold.Chemscore.DEClash.Weighted>
0.0237

> <Gold.Chemscore.DEInternal.Weighted>
2.6438

> <Gold.Chemscore.Rot.Weighted>
3.0423

> <Gold.Chemscore.Internal.Correction.Weighted>
   9.000000E+99

> <Gold.Protein.RotatedTorsions>
[ 6907 6896 6895 6894 ] final   39.54 input  -60.11 | X-H torsion
[ 7974 7965 7964 7962 ] final   13.02 input  175.53 | X-H torsion
[ 8008 7997 7996 7995 ] final  -25.13 input   59.86 | X-H torsion
[ 10167 10162 10161 10158 ] final  -33.28 input  -65.29 | X-H torsion
[ 10718 10713 10712 10709 ] final   14.99 input   66.30 | X-H torsion
[ 10763 10752 10751 10750 ] final  -14.81 input  -60.55 | X-H torsion
[ 11005 11000 10999 10996 ] final   17.95 input  -57.11 | X-H torsion

> <Gold.Protein.ActiveResidues>
 VAL166  LYS551  ARG553  GLY616  TRP617  ASP618  TYR619  PRO620  LYS621  CYS622 
 ASP623  PHE694  ASN695  SER759  ASP760  ASP761  ALA762  ILE779  LEU786  VAL792 
 PHE793  MET794  SER795  GLU796  ALA797  LYS798  CYS799  TRP800  GLU811  SER814 

> <Gold.Protein.RotatedAtoms>
  152.1709  134.8835  160.0534 H   0  0  0  0  0  0  0  0  0  0  0  0  # atno 6907 bound_to 6896
  151.9795  133.3748  159.4110 H   0  0  0  0  0  0  0  0  0  0  0  0  # atno 6908 bound_to 6896
  150.6901  134.3977  159.5148 H   0  0  0  0  0  0  0  0  0  0  0  0  # atno 6909 bound_to 6896
  146.2339  139.9250  142.8504 H   0  0  0  0  0  0  0  0  0  0  0  0  # atno 7974 bound_to 7965
  154.4492  140.1935  156.0572 H   0  0  0  0  0  0  0  0  0  0  0  0  # atno 8008 bound_to 7997
  156.0610  140.3297  155.7434 H   0  0  0  0  0  0  0  0  0  0  0  0  # atno 8009 bound_to 7997
  155.5411  140.0586  157.2860 H   0  0  0  0  0  0  0  0  0  0  0  0  # atno 8010 bound_to 7997
  140.7207  143.3632  151.1922 H   0  0  0  0  0  0  0  0  0  0  0  0  # atno 10167 bound_to 10162
  157.0471  130.6255  149.5761 H   0  0  0  0  0  0  0  0  0  0  0  0  # atno 10718 bound_to 10713
  153.5339  135.7014  153.5670 H   0  0  0  0  0  0  0  0  0  0  0  0  # atno 10763 bound_to 10752
  153.3665  135.3956  155.1757 H   0  0  0  0  0  0  0  0  0  0  0  0  # atno 10764 bound_to 10752
  154.8681  135.3801  154.4838 H   0  0  0  0  0  0  0  0  0  0  0  0  # atno 10765 bound_to 10752
  140.4302  134.1428  155.7680 H   0  0  0  0  0  0  0  0  0  0  0  0  # atno 11005 bound_to 11000
  145.2099  140.9891  143.4106 LP  0  0  0  0  0  0  0  0  0  0  0  0  # atno 17320 bound_to 7965
  144.9700  139.3890  143.6313 LP  0  0  0  0  0  0  0  0  0  0  0  0  # atno 17321 bound_to 7965
  139.7188  143.9256  152.2977 LP  0  0  0  0  0  0  0  0  0  0  0  0  # atno 17342 bound_to 10162
  139.9006  144.6914  150.8669 LP  0  0  0  0  0  0  0  0  0  0  0  0  # atno 17343 bound_to 10162
  156.0019  130.5100  150.7694 LP  0  0  0  0  0  0  0  0  0  0  0  0  # atno 17370 bound_to 10713
  157.5059  131.0922  151.0258 LP  0  0  0  0  0  0  0  0  0  0  0  0  # atno 17371 bound_to 10713
  141.1748  133.8535  157.1455 LP  0  0  0  0  0  0  0  0  0  0  0  0  # atno 17394 bound_to 11000
  140.0139  134.9976  157.0453 LP  0  0  0  0  0  0  0  0  0  0  0  0  # atno 17395 bound_to 11000

$$$$
