AV-unprocessed.smi:1403|AV-procd|sdf|5703|dock5
  -GOLD-   22720 5333D 1   1.00000     0.00000
 Structure written by MMmdl.
 35 36  0  0  0  0  0  0  0  0  2 V2000
  145.7950  135.8213  151.3424 C   0  0  0  0  0  0  0  0  0  0  0  0
  145.9131  134.5691  152.2227 C   0  0  2  0  0  0  0  0  0  0  0  0
  147.2995  134.4355  152.6628 N   0  0  0  0  0  0  0  0  0  0  0  0
  147.8295  133.3948  153.3290 C   0  0  0  0  0  0  0  0  0  0  0  0
  147.1776  132.4002  153.6452 O   0  0  0  0  0  0  0  0  0  0  0  0
  149.3234  133.4527  153.6924 C   0  0  0  0  0  0  0  0  0  0  0  0
  149.6198  134.0594  155.0033 N   0  0  0  0  0  0  0  0  0  0  0  0
  149.3252  135.4243  155.1680 C   0  0  0  0  0  0  0  0  0  0  0  0
  149.5531  136.0655  156.3299 C   0  0  0  0  0  0  0  0  0  0  0  0
  150.1218  135.3066  157.4368 C   0  0  0  0  0  0  0  0  0  0  0  0
  150.3390  135.8761  158.5045 O   0  0  0  0  0  0  0  0  0  0  0  0
  150.3865  133.9836  157.2292 N   0  5  0  0  0  0  0  0  0  0  0  0
  150.1476  133.3440  156.0426 C   0  0  0  0  0  0  0  0  0  0  0  0
  150.3837  132.1467  155.8800 O   0  0  0  0  0  0  0  0  0  0  0  0
  145.4651  133.2980  151.4734 C   0  0  1  0  0  0  0  0  0  0  0  0
  144.0754  133.3734  150.8413 C   0  0  0  0  0  0  0  0  0  0  0  0
  144.1305  132.3072  149.7616 C   0  0  0  0  0  0  0  0  0  0  0  0
  145.6289  132.1213  149.5022 C   0  0  0  0  0  0  0  0  0  0  0  0
  146.2856  133.0656  150.3389 O   0  0  0  0  0  0  0  0  0  0  0  0
  144.7664  135.9792  151.0175 H   0  0  0  0  0  0  0  0  0  0  0  0
  146.4172  135.7404  150.4502 H   0  0  0  0  0  0  0  0  0  0  0  0
  146.1077  136.7135  151.8859 H   0  0  0  0  0  0  0  0  0  0  0  0
  145.2617  134.7106  153.0869 H   0  0  0  0  0  0  0  0  0  0  0  0
  147.9145  135.2088  152.4521 H   0  0  0  0  0  0  0  0  0  0  0  0
  149.7314  132.4419  153.6408 H   0  0  0  0  0  0  0  0  0  0  0  0
  149.8398  134.0036  152.9051 H   0  0  0  0  0  0  0  0  0  0  0  0
  148.9009  135.9106  154.3017 H   0  0  0  0  0  0  0  0  0  0  0  0
  149.3185  137.1139  156.4406 H   0  0  0  0  0  0  0  0  0  0  0  0
  145.5212  132.4293  152.1323 H   0  0  0  0  0  0  0  0  0  0  0  0
  143.2717  133.2089  151.5597 H   0  0  0  0  0  0  0  0  0  0  0  0
  143.9243  134.3518  150.3830 H   0  0  0  0  0  0  0  0  0  0  0  0
  143.6914  131.3741  150.1160 H   0  0  0  0  0  0  0  0  0  0  0  0
  143.5900  132.6151  148.8660 H   0  0  0  0  0  0  0  0  0  0  0  0
  145.9437  131.1135  149.7760 H   0  0  0  0  0  0  0  0  0  0  0  0
  145.8935  132.2877  148.4579 H   0  0  0  0  0  0  0  0  0  0  0  0
  1  2  1  0  0  0  0
  1 20  1  0  0  0  0
  1 21  1  0  0  0  0
  1 22  1  0  0  0  0
  2  3  1  0  0  0  0
  2 15  1  0  0  0  0
  2 23  1  0  0  0  0
  3  4  1  0  0  0  0
  3 24  1  0  0  0  0
  4  5  2  0  0  0  0
  4  6  1  0  0  0  0
  6  7  1  0  0  0  0
  6 25  1  0  0  0  0
  6 26  1  0  0  0  0
  7 13  1  0  0  0  0
  7  8  1  0  0  0  0
  8  9  2  0  0  0  0
  8 27  1  0  0  0  0
  9 10  1  0  0  0  0
  9 28  1  0  0  0  0
 10 11  2  0  0  0  0
 10 12  1  0  0  0  0
 12 13  1  0  0  0  0
 13 14  2  0  0  0  0
 15 19  1  0  0  0  0
 15 16  1  0  0  0  0
 15 29  1  0  0  0  0
 16 17  1  0  0  0  0
 16 30  1  0  0  0  0
 16 31  1  0  0  0  0
 17 18  1  0  0  0  0
 17 32  1  0  0  0  0
 17 33  1  0  0  0  0
 18 19  1  0  0  0  0
 18 34  1  0  0  0  0
 18 35  1  0  0  0  0
M  CHG  1  12  -1
M  END
> <s_m_source_file>
AV-unprocessed.smi

> <i_m_source_file_index>
1403

> <i_lp_mmshare_version>
43012

> <i_f3d_flags>
0

> <s_epik_input>
TzFbQ0gyXVtDSDJdW0NIMl1bQ0BIXTFbQ0BIXShbQ0gzXSlbTkhdQyg9TylbQ0gyXW4yW2NIXVtjSF1jKD1PKVtuSF1jMj1P

> <s_epik_cmdline>
J2VwaWtfcHl0aG9uJywgJy1waCcsICc3LjAnLCAnLXRuJywgJzgnLCAnLW1hJywgJzIwMCcsICctbWV0YWxfYmluZGluZycsICctaW1hZScsICc8aW5maWxlLm1hZT4nLCAnLW9tYWUnLCAnPG91dGZpbGUubWFlPic=

> <r_lp_tautomer_probability>
0.999537

> <r_epik_Ionization_Penalty>
3.07438

> <r_epik_Ionization_Penalty_Charging>
2.82466e-08

> <r_epik_Ionization_Penalty_Neutral>
3.07438

> <r_epik_State_Penalty>
3.07341

> <r_epik_Charging_Adjusted_Penalty>
3.07341

> <i_epik_Tot_Q>
-1

> <i_epik_Tot_abs_Q>
1

> <r_epik_Metal_State_Penalty>
0.45947

> <b_epik_Metal_Only>
1

> <s_lp_Force_Field>
OPLS_2005

> <r_lp_Energy>
26.9379

> <b_lp_Chiralities_Consistent>
1

> <s_lp_Variant>
AV-unprocessed.smi:1403-7

> <Gold.Version>
5.8.1

> <Gold.Id.Protein>
6NUR|6NUR_protein|mol2

> <Gold.PLP.Fitness>
40.6409

> <Gold.PLP.PLP>
-29.9316

> <Gold.PLP.part.hbond>
-2.9966

> <Gold.PLP.part.metal>
0.0000

> <Gold.PLP.part.buried>
-3.8929

> <Gold.PLP.part.nonpolar>
-24.0829

> <Gold.PLP.part.repulsive>
0.2970

> <Gold.PLP.ligand.clash>
0.0000

> <Gold.PLP.ligand.torsion>
0.5107

> <Gold.PLP.Chemscore.Hbond>
2.9016

> <Gold.PLP.Chemscore.CHOScore>
1.0000

> <Gold.PLP.Chemscore.Metal>
0.0000

> <Gold.Chemscore.Hbonds>
donor molecule, donor type, donor heavy atom, donor atom, acceptor molecule, acceptor atom, score
      L1  H     3    24       P1  7948  1.00
      P1  H  6896  6907       L1    11  0.34
      P1  H  6896  6909       L1    12  0.81
      L1  C     8    27       P1  7948  1.00

> <Gold.PLP.Chemscore.Internal.Correction>
0.0257

> <Gold.Rescore>
     Score         DG    S(hbond)    S(metal)    S(lipo)     H(rot)  DE(clash)    DE(int)     intcor
     11.70     -13.28       1.84        0.00      57.79       1.99       0.03       1.55       ----

> <Gold.Chemscore.Fitness>
11.7020

> <Gold.Chemscore.DG>
-13.2784

> <Gold.Chemscore.ZeroCoef>
-5.4800

> <Gold.Chemscore.Hbond>
1.8387

> <Gold.Chemscore.Metal>
0.0000

> <Gold.Chemscore.Lipo>
57.7944

> <Gold.Chemscore.Internal_Hbond>
0.0000

> <Gold.Chemscore.DEClash>
0.0306

> <Gold.Chemscore.DEInternal>
1.5457

> <Gold.Chemscore.Rot>
1.9940

> <Gold.Chemscore.Internal.Correction>
   9.000000E+99

> <Gold.Chemscore.Hbonds>
donor molecule, donor type, donor heavy atom, donor atom, acceptor molecule, acceptor atom, score
      L1  H     3    24       P1  7948  0.92
      P1  H  6896  6907       L1    11  0.34
      P1  H  6896  6909       L1    12  0.03

> <Gold.Chemscore.Hbond.Weighted>
-6.1411

> <Gold.Chemscore.Metal.Weighted>
-0.0000

> <Gold.Chemscore.Lipo.Weighted>
-6.7619

> <Gold.Chemscore.Internal_Hbond.Weighted>
0.0000

> <Gold.Chemscore.DEClash.Weighted>
0.0306

> <Gold.Chemscore.DEInternal.Weighted>
1.5457

> <Gold.Chemscore.Rot.Weighted>
5.1047

> <Gold.Chemscore.Internal.Correction.Weighted>
   9.000000E+99

> <Gold.Protein.RotatedTorsions>
[ 6907 6896 6895 6894 ] final   -8.63 input  -60.11 | X-H torsion
[ 7974 7965 7964 7962 ] final   28.08 input  175.53 | X-H torsion
[ 8008 7997 7996 7995 ] final -121.68 input   59.86 | X-H torsion
[ 10167 10162 10161 10158 ] final -166.54 input  -65.29 | X-H torsion
[ 10718 10713 10712 10709 ] final  117.16 input   66.30 | X-H torsion
[ 10763 10752 10751 10750 ] final  133.79 input  -60.55 | X-H torsion
[ 11005 11000 10999 10996 ] final -153.56 input  -57.11 | X-H torsion

> <Gold.Protein.ActiveResidues>
 VAL166  LYS551  ARG553  GLY616  TRP617  ASP618  TYR619  PRO620  LYS621  CYS622 
 ASP623  PHE694  ASN695  SER759  ASP760  ASP761  ALA762  ILE779  LEU786  VAL792 
 PHE793  MET794  SER795  GLU796  ALA797  LYS798  CYS799  TRP800  GLU811  SER814 

> <Gold.Protein.RotatedAtoms>
  151.4306  135.1009  159.9640 H   0  0  0  0  0  0  0  0  0  0  0  0  # atno 6907 bound_to 6896
  152.4957  133.8621  159.7266 H   0  0  0  0  0  0  0  0  0  0  0  0  # atno 6908 bound_to 6896
  150.9158  133.6883  159.2871 H   0  0  0  0  0  0  0  0  0  0  0  0  # atno 6909 bound_to 6896
  146.1749  139.7105  142.8941 H   0  0  0  0  0  0  0  0  0  0  0  0  # atno 7974 bound_to 7965
  155.1519  140.0404  157.2823 H   0  0  0  0  0  0  0  0  0  0  0  0  # atno 8008 bound_to 7997
  154.6398  140.2544  155.7309 H   0  0  0  0  0  0  0  0  0  0  0  0  # atno 8009 bound_to 7997
  156.2526  140.2858  156.0786 H   0  0  0  0  0  0  0  0  0  0  0  0  # atno 8010 bound_to 7997
  139.6108  144.0818  152.1840 H   0  0  0  0  0  0  0  0  0  0  0  0  # atno 10167 bound_to 10162
  157.6114  131.1034  150.7576 H   0  0  0  0  0  0  0  0  0  0  0  0  # atno 10718 bound_to 10713
  153.8128  135.3126  155.3402 H   0  0  0  0  0  0  0  0  0  0  0  0  # atno 10763 bound_to 10752
  154.8044  135.4707  154.0359 H   0  0  0  0  0  0  0  0  0  0  0  0  # atno 10764 bound_to 10752
  153.1742  135.6883  153.8654 H   0  0  0  0  0  0  0  0  0  0  0  0  # atno 10765 bound_to 10752
  140.7068  134.3876  157.5203 H   0  0  0  0  0  0  0  0  0  0  0  0  # atno 11005 bound_to 11000
  145.4239  141.0409  143.2948 LP  0  0  0  0  0  0  0  0  0  0  0  0  # atno 17320 bound_to 7965
  144.8220  139.5775  143.6982 LP  0  0  0  0  0  0  0  0  0  0  0  0  # atno 17321 bound_to 7965
  140.0436  144.5988  150.7391 LP  0  0  0  0  0  0  0  0  0  0  0  0  # atno 17342 bound_to 10162
  140.7318  143.2698  151.3925 LP  0  0  0  0  0  0  0  0  0  0  0  0  # atno 17343 bound_to 10162
  156.7952  130.4903  149.5378 LP  0  0  0  0  0  0  0  0  0  0  0  0  # atno 17370 bound_to 10713
  156.1218  130.6115  151.0205 LP  0  0  0  0  0  0  0  0  0  0  0  0  # atno 17371 bound_to 10713
  139.8882  134.8863  156.2487 LP  0  0  0  0  0  0  0  0  0  0  0  0  # atno 17394 bound_to 11000
  141.0118  133.7091  156.1123 LP  0  0  0  0  0  0  0  0  0  0  0  0  # atno 17395 bound_to 11000

$$$$
