AV-unprocessed.smi:1381|AV-procd|sdf|5615|dock4
  -GOLD-   22720 5223D 1   1.00000     0.00000
 Structure written by MMmdl.
 42 43  0  0  0  0  0  0  0  0  3 V2000
  150.6193  142.2947  157.0410 C   0  0  0  0  0  0  0  0  0  0  0  0
  150.3113  141.0254  156.3231 C   0  0  0  0  0  0  0  0  0  0  0  0
  149.3699  140.6913  155.3914 C   0  0  0  0  0  0  0  0  0  0  0  0
  149.6363  139.3177  155.1385 C   0  0  0  0  0  0  0  0  0  0  0  0
  148.9749  138.5317  154.2748 N   0  5  0  0  0  0  0  0  0  0  0  0
  147.8233  138.9599  153.7100 C   0  0  0  0  0  0  0  0  0  0  0  0
  147.0354  139.7812  154.1850 O   0  0  0  0  0  0  0  0  0  0  0  0
  147.5711  138.4084  152.5142 N   0  0  0  0  0  0  0  0  0  0  0  0
  146.4179  138.6984  151.6701 C   0  0  0  0  0  0  0  0  0  0  0  0
  145.9742  137.4509  150.8835 C   0  0  0  0  0  0  0  0  0  0  0  0
  145.9964  136.2209  151.7179 N   0  3  1  0  0  0  0  0  0  0  0  0
  144.9946  136.2279  152.8113 C   0  0  0  0  0  0  0  0  0  0  0  0
  143.5811  135.9230  152.2758 C   0  0  2  0  0  0  0  0  0  0  0  0
  142.5423  135.8463  153.4002 C   0  0  0  0  0  0  0  0  0  0  0  0
  143.6048  134.6655  151.6086 O   0  0  0  0  0  0  0  0  0  0  0  0
  144.4794  134.6507  150.4852 C   0  0  2  0  0  0  0  0  0  0  0  0
  144.3663  133.2764  149.8164 C   0  0  0  0  0  0  0  0  0  0  0  0
  145.9202  134.9487  150.9552 C   0  0  0  0  0  0  0  0  0  0  0  0
  150.6594  138.8631  155.8423 N   0  0  0  0  0  0  0  0  0  0  0  0
  151.0947  139.9507  156.6090 O   0  0  0  0  0  0  0  0  0  0  0  0
  151.1927  142.9676  156.4035 H   0  0  0  0  0  0  0  0  0  0  0  0
  151.2014  142.1041  157.9428 H   0  0  0  0  0  0  0  0  0  0  0  0
  149.7019  142.8054  157.3343 H   0  0  0  0  0  0  0  0  0  0  0  0
  148.6100  141.3262  154.9614 H   0  0  0  0  0  0  0  0  0  0  0  0
  148.2392  137.7369  152.1648 H   0  0  0  0  0  0  0  0  0  0  0  0
  145.6210  139.0505  152.3236 H   0  0  0  0  0  0  0  0  0  0  0  0
  146.6491  139.5204  150.9905 H   0  0  0  0  0  0  0  0  0  0  0  0
  144.9549  137.6143  150.5313 H   0  0  0  0  0  0  0  0  0  0  0  0
  146.5850  137.3257  149.9897 H   0  0  0  0  0  0  0  0  0  0  0  0
  145.2800  135.4676  153.5400 H   0  0  0  0  0  0  0  0  0  0  0  0
  145.0145  137.1804  153.3424 H   0  0  0  0  0  0  0  0  0  0  0  0
  143.2698  136.6988  151.5741 H   0  0  0  0  0  0  0  0  0  0  0  0
  142.4815  136.7901  153.9431 H   0  0  0  0  0  0  0  0  0  0  0  0
  142.7909  135.0626  154.1165 H   0  0  0  0  0  0  0  0  0  0  0  0
  141.5514  135.6294  153.0005 H   0  0  0  0  0  0  0  0  0  0  0  0
  144.1519  135.4040  149.7677 H   0  0  0  0  0  0  0  0  0  0  0  0
  145.0083  133.2139  148.9374 H   0  0  0  0  0  0  0  0  0  0  0  0
  143.3429  133.0834  149.4939 H   0  0  0  0  0  0  0  0  0  0  0  0
  144.6557  132.4782  150.5004 H   0  0  0  0  0  0  0  0  0  0  0  0
  146.6074  134.9563  150.1102 H   0  0  0  0  0  0  0  0  0  0  0  0
  146.2588  134.1457  151.6114 H   0  0  0  0  0  0  0  0  0  0  0  0
  146.8985  136.2329  152.1726 H   0  0  0  0  0  0  0  0  0  0  0  0
  1  2  1  0  0  0  0
  1 21  1  0  0  0  0
  1 22  1  0  0  0  0
  1 23  1  0  0  0  0
  2 20  1  0  0  0  0
  2  3  2  0  0  0  0
  3  4  1  0  0  0  0
  3 24  1  0  0  0  0
  4  5  1  0  0  0  0
  4 19  2  0  0  0  0
  5  6  1  0  0  0  0
  6  7  2  0  0  0  0
  6  8  1  0  0  0  0
  8  9  1  0  0  0  0
  8 25  1  0  0  0  0
  9 10  1  0  0  0  0
  9 26  1  0  0  0  0
  9 27  1  0  0  0  0
 10 11  1  0  0  0  0
 10 28  1  0  0  0  0
 10 29  1  0  0  0  0
 11 18  1  0  0  0  0
 11 12  1  0  0  0  0
 11 42  1  0  0  0  0
 12 13  1  0  0  0  0
 12 30  1  0  0  0  0
 12 31  1  0  0  0  0
 13 14  1  0  0  0  0
 13 15  1  0  0  0  0
 13 32  1  0  0  0  0
 14 33  1  0  0  0  0
 14 34  1  0  0  0  0
 14 35  1  0  0  0  0
 15 16  1  0  0  0  0
 16 17  1  0  0  0  0
 16 18  1  0  0  0  0
 16 36  1  0  0  0  0
 17 37  1  0  0  0  0
 17 38  1  0  0  0  0
 17 39  1  0  0  0  0
 18 40  1  0  0  0  0
 18 41  1  0  0  0  0
 19 20  1  0  0  0  0
M  CHG  1   5  -1
M  CHG  1  11   1
M  END
> <s_m_source_file>
AV-unprocessed.smi

> <i_m_source_file_index>
1381

> <i_lp_mmshare_version>
43012

> <i_f3d_flags>
0

> <s_epik_input>
W0NIM11jMVtjSF1jKG5vMSlbTkhdQyg9TylbTkhdW0NIMl1bQ0gyXU4yW0NIMl1bQ0BASF0oW0NIM10pT1tDQEBIXShbQ0gzXSlbQ0gyXTI=

> <s_epik_cmdline>
J2VwaWtfcHl0aG9uJywgJy1waCcsICc3LjAnLCAnLXRuJywgJzgnLCAnLW1hJywgJzIwMCcsICctbWV0YWxfYmluZGluZycsICctaW1hZScsICc8aW5maWxlLm1hZT4nLCAnLW9tYWUnLCAnPG91dGZpbGUubWFlPic=

> <r_epik_Ionization_Penalty>
6.73511

> <r_epik_Ionization_Penalty_Charging>
6.73502

> <r_epik_Ionization_Penalty_Neutral>
9.26583e-05

> <r_epik_State_Penalty>
6.93549

> <r_epik_Charging_Adjusted_Penalty>
13.6705

> <i_epik_Tot_Q>
0

> <i_epik_Tot_abs_Q>
2

> <r_epik_Metal_State_Penalty>
2.87211

> <b_epik_Metal_Only>
1

> <s_lp_Force_Field>
OPLS_2005

> <r_lp_Energy>
4.17006

> <b_lp_Chiralities_Consistent>
1

> <s_lp_Variant>
AV-unprocessed.smi:1381-14

> <Gold.Version>
5.8.1

> <Gold.Id.Protein>
6NUR|6NUR_protein|mol2

> <Gold.PLP.Fitness>
40.6369

> <Gold.PLP.PLP>
-32.6822

> <Gold.PLP.part.hbond>
-3.0000

> <Gold.PLP.part.metal>
0.0000

> <Gold.PLP.part.buried>
-0.2637

> <Gold.PLP.part.nonpolar>
-31.3901

> <Gold.PLP.part.repulsive>
0.7318

> <Gold.PLP.ligand.clash>
0.0000

> <Gold.PLP.ligand.torsion>
0.4954

> <Gold.PLP.Chemscore.Hbond>
2.9200

> <Gold.PLP.Chemscore.CHOScore>
0.0000

> <Gold.PLP.Chemscore.Metal>
0.0000

> <Gold.Chemscore.Hbonds>
donor molecule, donor type, donor heavy atom, donor atom, acceptor molecule, acceptor atom, score
      L1  H     8    25       P1  7948  1.00
      L1  H    11    42       P1  7948  1.60

> <Gold.PLP.Chemscore.Internal.Correction>
0.1854

> <Gold.Rescore>
     Score         DG    S(hbond)    S(metal)    S(lipo)     H(rot)  DE(clash)    DE(int)     intcor
     13.76     -17.35       1.96        0.00      79.95       1.58       1.70       1.88       ----

> <Gold.Chemscore.Fitness>
13.7595

> <Gold.Chemscore.DG>
-17.3463

> <Gold.Chemscore.ZeroCoef>
-5.4800

> <Gold.Chemscore.Hbond>
1.9625

> <Gold.Chemscore.Metal>
0.0000

> <Gold.Chemscore.Lipo>
79.9507

> <Gold.Chemscore.Internal_Hbond>
0.0000

> <Gold.Chemscore.DEClash>
1.7034

> <Gold.Chemscore.DEInternal>
1.8834

> <Gold.Chemscore.Rot>
1.5792

> <Gold.Chemscore.Internal.Correction>
   9.000000E+99

> <Gold.Chemscore.Hbonds>
donor molecule, donor type, donor heavy atom, donor atom, acceptor molecule, acceptor atom, score
      L1  H     8    25       P1  7948  0.99
      L1  H    11    42       P1  7948  0.75

> <Gold.Chemscore.Hbond.Weighted>
-6.5549

> <Gold.Chemscore.Metal.Weighted>
-0.0000

> <Gold.Chemscore.Lipo.Weighted>
-9.3542

> <Gold.Chemscore.Internal_Hbond.Weighted>
0.0000

> <Gold.Chemscore.DEClash.Weighted>
1.7034

> <Gold.Chemscore.DEInternal.Weighted>
1.8834

> <Gold.Chemscore.Rot.Weighted>
4.0428

> <Gold.Chemscore.Internal.Correction.Weighted>
   9.000000E+99

> <Gold.Protein.RotatedTorsions>
[ 6907 6896 6895 6894 ] final -108.87 input  -60.11 | X-H torsion
[ 7974 7965 7964 7962 ] final -139.71 input  175.53 | X-H torsion
[ 8008 7997 7996 7995 ] final -101.22 input   59.86 | X-H torsion
[ 10167 10162 10161 10158 ] final  -14.56 input  -65.29 | X-H torsion
[ 10718 10713 10712 10709 ] final  -36.76 input   66.30 | X-H torsion
[ 10763 10752 10751 10750 ] final -177.00 input  -60.55 | X-H torsion
[ 11005 11000 10999 10996 ] final  161.05 input  -57.11 | X-H torsion

> <Gold.Protein.ActiveResidues>
 VAL166  LYS551  ARG553  GLY616  TRP617  ASP618  TYR619  PRO620  LYS621  CYS622 
 ASP623  PHE694  ASN695  SER759  ASP760  ASP761  ALA762  ILE779  LEU786  VAL792 
 PHE793  MET794  SER795  GLU796  ALA797  LYS798  CYS799  TRP800  GLU811  SER814 

> <Gold.Protein.RotatedAtoms>
  150.7527  133.9614  159.3516 H   0  0  0  0  0  0  0  0  0  0  0  0  # atno 6907 bound_to 6896
  151.7540  135.0824  160.0344 H   0  0  0  0  0  0  0  0  0  0  0  0  # atno 6908 bound_to 6896
  152.3447  133.6071  159.5938 H   0  0  0  0  0  0  0  0  0  0  0  0  # atno 6909 bound_to 6896
  144.8655  140.6286  143.5301 H   0  0  0  0  0  0  0  0  0  0  0  0  # atno 7974 bound_to 7965
  154.8396  140.0436  157.1532 H   0  0  0  0  0  0  0  0  0  0  0  0  # atno 8008 bound_to 7997
  154.9062  140.3007  155.5271 H   0  0  0  0  0  0  0  0  0  0  0  0  # atno 8009 bound_to 7997
  156.2991  140.2367  156.4095 H   0  0  0  0  0  0  0  0  0  0  0  0  # atno 8010 bound_to 7997
  140.7203  143.5309  150.9521 H   0  0  0  0  0  0  0  0  0  0  0  0  # atno 10167 bound_to 10162
  156.3231  130.4268  149.7941 H   0  0  0  0  0  0  0  0  0  0  0  0  # atno 10718 bound_to 10713
  154.5655  135.2823  155.0878 H   0  0  0  0  0  0  0  0  0  0  0  0  # atno 10763 bound_to 10752
  154.2271  135.6381  153.5167 H   0  0  0  0  0  0  0  0  0  0  0  0  # atno 10764 bound_to 10752
  153.0041  135.5528  154.6262 H   0  0  0  0  0  0  0  0  0  0  0  0  # atno 10765 bound_to 10752
  140.2119  134.8261  157.3130 H   0  0  0  0  0  0  0  0  0  0  0  0  # atno 11005 bound_to 11000
  145.4230  139.1561  143.4063 LP  0  0  0  0  0  0  0  0  0  0  0  0  # atno 17320 bound_to 7965
  146.2892  140.4342  142.8746 LP  0  0  0  0  0  0  0  0  0  0  0  0  # atno 17321 bound_to 7965
  139.9029  143.6814  152.3128 LP  0  0  0  0  0  0  0  0  0  0  0  0  # atno 17342 bound_to 10162
  139.7170  144.7610  151.1018 LP  0  0  0  0  0  0  0  0  0  0  0  0  # atno 17343 bound_to 10162
  156.5242  130.8228  151.3214 LP  0  0  0  0  0  0  0  0  0  0  0  0  # atno 17370 bound_to 10713
  157.7416  130.9873  150.2455 LP  0  0  0  0  0  0  0  0  0  0  0  0  # atno 17371 bound_to 10713
  140.1941  134.4335  155.7699 LP  0  0  0  0  0  0  0  0  0  0  0  0  # atno 17394 bound_to 11000
  141.2226  133.7041  156.8076 LP  0  0  0  0  0  0  0  0  0  0  0  0  # atno 17395 bound_to 11000

$$$$
