AV-unprocessed.smi:3241|AV-procd|sdf|12386|dock7
  -GOLD-   2272018253D 1   1.00000     0.00000
 Structure written by MMmdl.
 44 45  0  0  0  0  0  0  0  0  2 V2000
  145.9436  143.0784  153.6786 C   0  0  0  0  0  0  0  0  0  0  0  0
  147.0538  142.3652  154.4656 C   0  0  1  0  0  0  0  0  0  0  0  0
  146.5199  141.7602  155.7791 C   0  0  0  0  0  0  0  0  0  0  0  0
  147.6438  141.1010  156.5934 C   0  0  0  0  0  0  0  0  0  0  0  0
  148.3846  140.0404  155.7654 C   0  0  0  0  0  0  0  0  0  0  0  0
  148.9130  140.6282  154.4457 C   0  0  0  0  0  0  0  0  0  0  0  0
  147.7959  141.2990  153.6245 C   0  0  1  0  0  0  0  0  0  0  0  0
  146.8824  140.2860  153.2204 O   0  0  0  0  0  0  0  0  0  0  0  0
  147.3996  139.3593  152.2782 C   0  0  0  0  0  0  0  0  0  0  0  0
  146.2233  138.5516  151.7230 C   0  0  0  0  0  0  0  0  0  0  0  0
  146.2418  137.1839  152.2751 N   0  3  0  0  0  0  0  0  0  0  0  0
  145.5131  136.1823  151.4729 C   0  0  0  0  0  0  0  0  0  0  0  0
  145.3888  134.8480  152.2264 C   0  0  0  0  0  0  0  0  0  0  0  0
  145.2246  133.7221  151.3231 N   0  0  0  0  0  0  0  0  0  0  0  0
  144.1667  133.4446  150.4832 C   0  0  0  0  0  0  0  0  0  0  0  0
  144.4672  132.2895  149.8199 C   0  0  0  0  0  0  0  0  0  0  0  0
  145.7461  131.9292  150.3287 C   0  0  0  0  0  0  0  0  0  0  0  0
  146.1979  132.7895  151.2271 N   0  0  0  0  0  0  0  0  0  0  0  0
  145.1408  142.3930  153.4075 H   0  0  0  0  0  0  0  0  0  0  0  0
  146.3330  143.5202  152.7612 H   0  0  0  0  0  0  0  0  0  0  0  0
  145.5021  143.8820  154.2685 H   0  0  0  0  0  0  0  0  0  0  0  0
  147.7856  143.1289  154.7341 H   0  0  0  0  0  0  0  0  0  0  0  0
  146.0415  142.5346  156.3798 H   0  0  0  0  0  0  0  0  0  0  0  0
  145.7487  141.0208  155.5599 H   0  0  0  0  0  0  0  0  0  0  0  0
  148.3495  141.8635  156.9252 H   0  0  0  0  0  0  0  0  0  0  0  0
  147.2324  140.6478  157.4957 H   0  0  0  0  0  0  0  0  0  0  0  0
  149.2112  139.6287  156.3451 H   0  0  0  0  0  0  0  0  0  0  0  0
  147.7130  139.2073  155.5540 H   0  0  0  0  0  0  0  0  0  0  0  0
  149.6883  141.3630  154.6659 H   0  0  0  0  0  0  0  0  0  0  0  0
  149.3927  139.8465  153.8559 H   0  0  0  0  0  0  0  0  0  0  0  0
  148.2564  141.7768  152.7572 H   0  0  0  0  0  0  0  0  0  0  0  0
  147.9224  139.8666  151.4659 H   0  0  0  0  0  0  0  0  0  0  0  0
  148.1166  138.7024  152.7724 H   0  0  0  0  0  0  0  0  0  0  0  0
  145.2790  139.0294  151.9870 H   0  0  0  0  0  0  0  0  0  0  0  0
  146.2768  138.5165  150.6341 H   0  0  0  0  0  0  0  0  0  0  0  0
  147.2061  136.8871  152.3353 H   0  0  0  0  0  0  0  0  0  0  0  0
  144.5211  136.5701  151.2387 H   0  0  0  0  0  0  0  0  0  0  0  0
  146.0292  136.0261  150.5246 H   0  0  0  0  0  0  0  0  0  0  0  0
  146.2635  134.6768  152.8561 H   0  0  0  0  0  0  0  0  0  0  0  0
  144.5261  134.8784  152.8930 H   0  0  0  0  0  0  0  0  0  0  0  0
  143.2993  134.0860  150.4258 H   0  0  0  0  0  0  0  0  0  0  0  0
  143.8647  131.7794  149.0830 H   0  0  0  0  0  0  0  0  0  0  0  0
  146.3570  131.0763  150.0708 H   0  0  0  0  0  0  0  0  0  0  0  0
  145.8560  137.2007  153.2083 H   0  0  0  0  0  0  0  0  0  0  0  0
  1  2  1  0  0  0  0
  1 19  1  0  0  0  0
  1 20  1  0  0  0  0
  1 21  1  0  0  0  0
  2  7  1  0  0  0  0
  2  3  1  0  0  0  0
  2 22  1  0  0  0  0
  3  4  1  0  0  0  0
  3 23  1  0  0  0  0
  3 24  1  0  0  0  0
  4  5  1  0  0  0  0
  4 25  1  0  0  0  0
  4 26  1  0  0  0  0
  5  6  1  0  0  0  0
  5 27  1  0  0  0  0
  5 28  1  0  0  0  0
  6  7  1  0  0  0  0
  6 29  1  0  0  0  0
  6 30  1  0  0  0  0
  7  8  1  0  0  0  0
  7 31  1  0  0  0  0
  8  9  1  0  0  0  0
  9 10  1  0  0  0  0
  9 32  1  0  0  0  0
  9 33  1  0  0  0  0
 10 11  1  0  0  0  0
 10 34  1  0  0  0  0
 10 35  1  0  0  0  0
 11 12  1  0  0  0  0
 11 36  1  0  0  0  0
 11 44  1  0  0  0  0
 12 13  1  0  0  0  0
 12 37  1  0  0  0  0
 12 38  1  0  0  0  0
 13 14  1  0  0  0  0
 13 39  1  0  0  0  0
 13 40  1  0  0  0  0
 14 18  1  0  0  0  0
 14 15  1  0  0  0  0
 15 16  2  0  0  0  0
 15 41  1  0  0  0  0
 16 17  1  0  0  0  0
 16 42  1  0  0  0  0
 17 18  2  0  0  0  0
 17 43  1  0  0  0  0
M  CHG  1  11   1
M  END
> <s_m_source_file>
AV-unprocessed.smi

> <i_m_source_file_index>
3241

> <i_lp_mmshare_version>
43012

> <i_f3d_flags>
0

> <s_epik_input>
W0NIM11bQ0BASF0xW0NIMl1bQ0gyXVtDSDJdW0NIMl1bQ0BIXTFPW0NIMl1bQ0gyXVtOSF1bQ0gyXVtDSDJdbjJbY0hdW2NIXVtjSF1uMg==

> <s_epik_cmdline>
J2VwaWtfcHl0aG9uJywgJy1waCcsICc3LjAnLCAnLXRuJywgJzgnLCAnLW1hJywgJzIwMCcsICctbWV0YWxfYmluZGluZycsICctaW1hZScsICc8aW5maWxlLm1hZT4nLCAnLW9tYWUnLCAnPG91dGZpbGUubWFlPic=

> <r_lp_tautomer_probability>
1

> <r_epik_Ionization_Penalty>
0.00924946

> <r_epik_Ionization_Penalty_Charging>
0.00924645

> <r_epik_Ionization_Penalty_Neutral>
3.00629e-06

> <r_epik_State_Penalty>
0.0070118

> <r_epik_Charging_Adjusted_Penalty>
0.0162583

> <i_epik_Tot_Q>
1

> <i_epik_Tot_abs_Q>
1

> <r_epik_Metal_State_Penalty>
0.00702523

> <b_epik_Metal_Only>
0

> <s_lp_Force_Field>
OPLS_2005

> <r_lp_Energy>
14.1188

> <b_lp_Chiralities_Consistent>
1

> <s_lp_Variant>
AV-unprocessed.smi:3241-2

> <Gold.Version>
5.8.1

> <Gold.Id.Protein>
6NUR|6NUR_protein|mol2

> <Gold.PLP.Fitness>
45.6547

> <Gold.PLP.PLP>
-35.1148

> <Gold.PLP.part.hbond>
-1.0000

> <Gold.PLP.part.metal>
0.0000

> <Gold.PLP.part.buried>
0.4014

> <Gold.PLP.part.nonpolar>
-35.7695

> <Gold.PLP.part.repulsive>
0.4450

> <Gold.PLP.ligand.clash>
0.0000

> <Gold.PLP.ligand.torsion>
0.7169

> <Gold.PLP.Chemscore.Hbond>
2.0000

> <Gold.PLP.Chemscore.CHOScore>
1.9285

> <Gold.PLP.Chemscore.Metal>
0.0000

> <Gold.Chemscore.Hbonds>
donor molecule, donor type, donor heavy atom, donor atom, acceptor molecule, acceptor atom, score
      L1  H    11    36       P1  7948  2.00
      L1  C    15    41       P1 10186  1.00
      L1  C    17    43       P1 10747  0.74

> <Gold.PLP.Chemscore.Internal.Correction>
0.1882

> <Gold.Rescore>
     Score         DG    S(hbond)    S(metal)    S(lipo)     H(rot)  DE(clash)    DE(int)     intcor
     13.06     -15.70       1.00        0.00     100.14       1.89       1.87       0.77       ----

> <Gold.Chemscore.Fitness>
13.0552

> <Gold.Chemscore.DG>
-15.6954

> <Gold.Chemscore.ZeroCoef>
-5.4800

> <Gold.Chemscore.Hbond>
0.9997

> <Gold.Chemscore.Metal>
0.0000

> <Gold.Chemscore.Lipo>
100.1405

> <Gold.Chemscore.Internal_Hbond>
0.0000

> <Gold.Chemscore.DEClash>
1.8724

> <Gold.Chemscore.DEInternal>
0.7677

> <Gold.Chemscore.Rot>
1.8906

> <Gold.Chemscore.Internal.Correction>
   9.000000E+99

> <Gold.Chemscore.Hbonds>
donor molecule, donor type, donor heavy atom, donor atom, acceptor molecule, acceptor atom, score
      L1  H    11    36       P1  7948  0.99

> <Gold.Chemscore.Hbond.Weighted>
-3.3390

> <Gold.Chemscore.Metal.Weighted>
-0.0000

> <Gold.Chemscore.Lipo.Weighted>
-11.7164

> <Gold.Chemscore.Internal_Hbond.Weighted>
0.0000

> <Gold.Chemscore.DEClash.Weighted>
1.8724

> <Gold.Chemscore.DEInternal.Weighted>
0.7677

> <Gold.Chemscore.Rot.Weighted>
4.8400

> <Gold.Chemscore.Internal.Correction.Weighted>
   9.000000E+99

> <Gold.Protein.RotatedTorsions>
[ 6907 6896 6895 6894 ] final  106.62 input  -60.11 | X-H torsion
[ 7974 7965 7964 7962 ] final   81.24 input  175.53 | X-H torsion
[ 8008 7997 7996 7995 ] final   32.97 input   59.86 | X-H torsion
[ 10167 10162 10161 10158 ] final   16.38 input  -65.29 | X-H torsion
[ 10718 10713 10712 10709 ] final  135.55 input   66.30 | X-H torsion
[ 10763 10752 10751 10750 ] final   75.30 input  -60.55 | X-H torsion
[ 11005 11000 10999 10996 ] final -102.84 input  -57.11 | X-H torsion

> <Gold.Protein.ActiveResidues>
 VAL166  LYS551  ARG553  GLY616  TRP617  ASP618  TYR619  PRO620  LYS621  CYS622 
 ASP623  PHE694  ASN695  SER759  ASP760  ASP761  ALA762  ILE779  LEU786  VAL792 
 PHE793  MET794  SER795  GLU796  ALA797  LYS798  CYS799  TRP800  GLU811  SER814 

> <Gold.Protein.RotatedAtoms>
  152.5186  133.9354  159.7600 H   0  0  0  0  0  0  0  0  0  0  0  0  # atno 6907 bound_to 6896
  150.9695  133.6350  159.2747 H   0  0  0  0  0  0  0  0  0  0  0  0  # atno 6908 bound_to 6896
  151.3567  135.0901  159.9474 H   0  0  0  0  0  0  0  0  0  0  0  0  # atno 6909 bound_to 6896
  145.6407  139.2425  143.2032 H   0  0  0  0  0  0  0  0  0  0  0  0  # atno 7974 bound_to 7965
  155.1311  140.3257  155.4474 H   0  0  0  0  0  0  0  0  0  0  0  0  # atno 8008 bound_to 7997
  156.2634  140.2010  156.6379 H   0  0  0  0  0  0  0  0  0  0  0  0  # atno 8009 bound_to 7997
  154.6612  140.0547  157.0051 H   0  0  0  0  0  0  0  0  0  0  0  0  # atno 8010 bound_to 7997
  140.5801  143.8997  150.6783 H   0  0  0  0  0  0  0  0  0  0  0  0  # atno 10167 bound_to 10162
  157.4559  131.1070  150.9978 H   0  0  0  0  0  0  0  0  0  0  0  0  # atno 10718 bound_to 10713
  153.0646  135.4993  154.8170 H   0  0  0  0  0  0  0  0  0  0  0  0  # atno 10763 bound_to 10752
  154.6934  135.2988  154.9449 H   0  0  0  0  0  0  0  0  0  0  0  0  # atno 10764 bound_to 10752
  154.0197  135.6743  153.4824 H   0  0  0  0  0  0  0  0  0  0  0  0  # atno 10765 bound_to 10752
  141.1172  133.8591  157.1411 H   0  0  0  0  0  0  0  0  0  0  0  0  # atno 11005 bound_to 11000
  146.1283  140.7219  142.9424 LP  0  0  0  0  0  0  0  0  0  0  0  0  # atno 17320 bound_to 7965
  144.7158  140.4206  143.7045 LP  0  0  0  0  0  0  0  0  0  0  0  0  # atno 17321 bound_to 7965
  140.2494  143.3604  152.1419 LP  0  0  0  0  0  0  0  0  0  0  0  0  # atno 17342 bound_to 10162
  139.5165  144.6978  151.5580 LP  0  0  0  0  0  0  0  0  0  0  0  0  # atno 17343 bound_to 10162
  157.0792  130.5896  149.5417 LP  0  0  0  0  0  0  0  0  0  0  0  0  # atno 17370 bound_to 10713
  156.0007  130.5085  150.7652 LP  0  0  0  0  0  0  0  0  0  0  0  0  # atno 17371 bound_to 10713
  140.0102  134.9991  157.0378 LP  0  0  0  0  0  0  0  0  0  0  0  0  # atno 17394 bound_to 11000
  140.4613  134.1481  155.7191 LP  0  0  0  0  0  0  0  0  0  0  0  0  # atno 17395 bound_to 11000

$$$$
