AV-unprocessed.smi:2106|AV-procd|sdf|8593|dock7
  -GOLD-   2272011323D 1   1.00000     0.00000
 Structure written by MMmdl.
 47 48  0  0  0  0  0  0  0  0  1 V2000
  145.9969  137.8840  150.7165 C   0  0  0  0  0  0  0  0  0  0  0  0
  146.4515  138.4400  152.0336 C   0  0  0  0  0  0  0  0  0  0  0  0
  146.4400  137.8073  153.3078 C   0  0  0  0  0  0  0  0  0  0  0  0
  146.9536  138.7469  154.1566 C   0  0  0  0  0  0  0  0  0  0  0  0
  147.1946  138.6839  155.6292 C   0  0  0  0  0  0  0  0  0  0  0  0
  147.2434  139.8631  153.3915 N   0  0  0  0  0  0  0  0  0  0  0  0
  147.7984  141.1421  153.8060 C   0  0  0  0  0  0  0  0  0  0  0  0
  149.1968  140.9695  154.4006 C   0  0  0  0  0  0  0  0  0  0  0  0
  149.8674  139.9762  154.1206 O   0  0  0  0  0  0  0  0  0  0  0  0
  149.6202  141.9423  155.2220 N   0  0  0  0  0  0  0  0  0  0  0  0
  150.9066  141.9638  155.9059 C   0  0  0  0  0  0  0  0  0  0  0  0
  150.7265  141.8616  157.4317 C   0  0  0  0  0  0  0  0  0  0  0  0
  151.7628  142.5240  158.2224 N   0  0  0  0  0  0  0  0  0  0  0  0
  151.3482  143.8413  158.6996 C   0  0  0  0  0  0  0  0  0  0  0  0
  152.4362  144.5150  159.5582 C   0  0  1  0  0  0  0  0  0  0  0  0
  151.9709  145.8571  160.1328 C   0  0  0  0  0  0  0  0  0  0  0  0
  152.7742  143.6565  160.6437 O   0  0  0  0  0  0  0  0  0  0  0  0
  153.2356  142.3757  160.2239 C   0  0  1  0  0  0  0  0  0  0  0  0
  153.5789  141.5565  161.4724 C   0  0  0  0  0  0  0  0  0  0  0  0
  152.1435  141.7053  159.3684 C   0  0  0  0  0  0  0  0  0  0  0  0
  146.9346  139.6702  152.0899 N   0  0  0  0  0  0  0  0  0  0  0  0
  145.6539  136.8546  150.8217 H   0  0  0  0  0  0  0  0  0  0  0  0
  146.8065  137.8905  149.9863 H   0  0  0  0  0  0  0  0  0  0  0  0
  145.1721  138.4680  150.3075 H   0  0  0  0  0  0  0  0  0  0  0  0
  146.1035  136.8128  153.5608 H   0  0  0  0  0  0  0  0  0  0  0  0
  146.8900  137.7178  156.0324 H   0  0  0  0  0  0  0  0  0  0  0  0
  146.6295  139.4567  156.1504 H   0  0  0  0  0  0  0  0  0  0  0  0
  148.2514  138.8231  155.8567 H   0  0  0  0  0  0  0  0  0  0  0  0
  147.8388  141.8126  152.9472 H   0  0  0  0  0  0  0  0  0  0  0  0
  147.1334  141.6065  154.5361 H   0  0  0  0  0  0  0  0  0  0  0  0
  148.9967  142.7168  155.3979 H   0  0  0  0  0  0  0  0  0  0  0  0
  151.5435  141.1566  155.5401 H   0  0  0  0  0  0  0  0  0  0  0  0
  151.3976  142.8977  155.6352 H   0  0  0  0  0  0  0  0  0  0  0  0
  149.7463  142.2517  157.7101 H   0  0  0  0  0  0  0  0  0  0  0  0
  150.7117  140.8032  157.6955 H   0  0  0  0  0  0  0  0  0  0  0  0
  151.1204  144.4932  157.8571 H   0  0  0  0  0  0  0  0  0  0  0  0
  150.4298  143.7493  159.2819 H   0  0  0  0  0  0  0  0  0  0  0  0
  153.3273  144.6842  158.9510 H   0  0  0  0  0  0  0  0  0  0  0  0
  151.7133  146.5562  159.3368 H   0  0  0  0  0  0  0  0  0  0  0  0
  152.7547  146.3152  160.7367 H   0  0  0  0  0  0  0  0  0  0  0  0
  151.0927  145.7318  160.7666 H   0  0  0  0  0  0  0  0  0  0  0  0
  154.1412  142.5032  159.6282 H   0  0  0  0  0  0  0  0  0  0  0  0
  153.9530  140.5686  161.2026 H   0  0  0  0  0  0  0  0  0  0  0  0
  152.7039  141.4217  162.1090 H   0  0  0  0  0  0  0  0  0  0  0  0
  154.3482  142.0527  162.0645 H   0  0  0  0  0  0  0  0  0  0  0  0
  151.2670  141.5100  159.9884 H   0  0  0  0  0  0  0  0  0  0  0  0
  152.5026  140.7350  159.0236 H   0  0  0  0  0  0  0  0  0  0  0  0
  1  2  1  0  0  0  0
  1 22  1  0  0  0  0
  1 23  1  0  0  0  0
  1 24  1  0  0  0  0
  2 21  2  0  0  0  0
  2  3  1  0  0  0  0
  3  4  2  0  0  0  0
  3 25  1  0  0  0  0
  4  5  1  0  0  0  0
  4  6  1  0  0  0  0
  5 26  1  0  0  0  0
  5 27  1  0  0  0  0
  5 28  1  0  0  0  0
  6  7  1  0  0  0  0
  6 21  1  0  0  0  0
  7  8  1  0  0  0  0
  7 29  1  0  0  0  0
  7 30  1  0  0  0  0
  8  9  2  0  0  0  0
  8 10  1  0  0  0  0
 10 11  1  0  0  0  0
 10 31  1  0  0  0  0
 11 12  1  0  0  0  0
 11 32  1  0  0  0  0
 11 33  1  0  0  0  0
 12 13  1  0  0  0  0
 12 34  1  0  0  0  0
 12 35  1  0  0  0  0
 13 20  1  0  0  0  0
 13 14  1  0  0  0  0
 14 15  1  0  0  0  0
 14 36  1  0  0  0  0
 14 37  1  0  0  0  0
 15 16  1  0  0  0  0
 15 17  1  0  0  0  0
 15 38  1  0  0  0  0
 16 39  1  0  0  0  0
 16 40  1  0  0  0  0
 16 41  1  0  0  0  0
 17 18  1  0  0  0  0
 18 19  1  0  0  0  0
 18 20  1  0  0  0  0
 18 42  1  0  0  0  0
 19 43  1  0  0  0  0
 19 44  1  0  0  0  0
 19 45  1  0  0  0  0
 20 46  1  0  0  0  0
 20 47  1  0  0  0  0
M  END
> <s_m_source_file>
AV-unprocessed.smi

> <i_m_source_file_index>
2106

> <i_lp_mmshare_version>
43012

> <i_f3d_flags>
0

> <s_epik_input>
W0NIM11jMVtjSF1jKFtDSDNdKW4objEpW0NIMl1DKD1PKVtOSF1bQ0gyXVtDSDJdTjJbQ0gyXVtDQEBIXShbQ0gzXSlPW0NAQEhdKFtDSDNdKVtDSDJdMg==

> <s_epik_cmdline>
J2VwaWtfcHl0aG9uJywgJy1waCcsICc3LjAnLCAnLXRuJywgJzgnLCAnLW1hJywgJzIwMCcsICctbWV0YWxfYmluZGluZycsICctaW1hZScsICc8aW5maWxlLm1hZT4nLCAnLW9tYWUnLCAnPG91dGZpbGUubWFlPic=

> <r_lp_tautomer_probability>
1

> <r_epik_Ionization_Penalty>
0.197284

> <r_epik_Ionization_Penalty_Charging>
0

> <r_epik_Ionization_Penalty_Neutral>
0.197284

> <r_epik_State_Penalty>
0.186684

> <r_epik_Charging_Adjusted_Penalty>
0.186684

> <i_epik_Tot_Q>
0

> <i_epik_Tot_abs_Q>
0

> <r_epik_Metal_State_Penalty>
0.186634

> <b_epik_Metal_Only>
0

> <s_lp_Force_Field>
OPLS_2005

> <r_lp_Energy>
17.5566

> <b_lp_Chiralities_Consistent>
1

> <s_lp_Variant>
AV-unprocessed.smi:2106-1

> <Gold.Version>
5.8.1

> <Gold.Id.Protein>
6NUR|6NUR_protein|mol2

> <Gold.PLP.Fitness>
44.0445

> <Gold.PLP.PLP>
-40.8085

> <Gold.PLP.part.hbond>
-2.0000

> <Gold.PLP.part.metal>
0.0000

> <Gold.PLP.part.buried>
0.8815

> <Gold.PLP.part.nonpolar>
-40.5438

> <Gold.PLP.part.repulsive>
3.8239

> <Gold.PLP.ligand.clash>
0.0000

> <Gold.PLP.ligand.torsion>
1.0889

> <Gold.PLP.Chemscore.Hbond>
1.7999

> <Gold.PLP.Chemscore.CHOScore>
0.0000

> <Gold.PLP.Chemscore.Metal>
0.0000

> <Gold.Chemscore.Hbonds>
donor molecule, donor type, donor heavy atom, donor atom, acceptor molecule, acceptor atom, score
      L1  H    10    31       P1  8028  0.90
      P1  H  7989  7998       L1     9  0.86

> <Gold.PLP.Chemscore.Internal.Correction>
0.0142

> <Gold.Rescore>
     Score         DG    S(hbond)    S(metal)    S(lipo)     H(rot)  DE(clash)    DE(int)     intcor
     15.19     -19.53       1.36        0.00     117.87       1.67       3.26       1.09       ----

> <Gold.Chemscore.Fitness>
15.1894

> <Gold.Chemscore.DG>
-19.5335

> <Gold.Chemscore.ZeroCoef>
-5.4800

> <Gold.Chemscore.Hbond>
1.3554

> <Gold.Chemscore.Metal>
0.0000

> <Gold.Chemscore.Lipo>
117.8686

> <Gold.Chemscore.Internal_Hbond>
0.0000

> <Gold.Chemscore.DEClash>
3.2567

> <Gold.Chemscore.DEInternal>
1.0875

> <Gold.Chemscore.Rot>
1.6657

> <Gold.Chemscore.Internal.Correction>
   9.000000E+99

> <Gold.Chemscore.Hbonds>
donor molecule, donor type, donor heavy atom, donor atom, acceptor molecule, acceptor atom, score
      L1  H    10    31       P1  8028  0.83
      P1  H  7989  7998       L1     9  0.20

> <Gold.Chemscore.Hbond.Weighted>
-4.5270

> <Gold.Chemscore.Metal.Weighted>
-0.0000

> <Gold.Chemscore.Lipo.Weighted>
-13.7906

> <Gold.Chemscore.Internal_Hbond.Weighted>
0.0000

> <Gold.Chemscore.DEClash.Weighted>
3.2567

> <Gold.Chemscore.DEInternal.Weighted>
1.0875

> <Gold.Chemscore.Rot.Weighted>
4.2641

> <Gold.Chemscore.Internal.Correction.Weighted>
   9.000000E+99

> <Gold.Protein.RotatedTorsions>
[ 6907 6896 6895 6894 ] final   43.96 input  -60.11 | X-H torsion
[ 7974 7965 7964 7962 ] final  108.52 input  175.53 | X-H torsion
[ 8008 7997 7996 7995 ] final  116.45 input   59.86 | X-H torsion
[ 10167 10162 10161 10158 ] final -113.11 input  -65.29 | X-H torsion
[ 10718 10713 10712 10709 ] final  -87.23 input   66.30 | X-H torsion
[ 10763 10752 10751 10750 ] final -175.02 input  -60.55 | X-H torsion
[ 11005 11000 10999 10996 ] final  160.10 input  -57.11 | X-H torsion

> <Gold.Protein.ActiveResidues>
 VAL166  LYS551  ARG553  GLY616  TRP617  ASP618  TYR619  PRO620  LYS621  CYS622 
 ASP623  PHE694  ASN695  SER759  ASP760  ASP761  ALA762  ILE779  LEU786  VAL792 
 PHE793  MET794  SER795  GLU796  ALA797  LYS798  CYS799  TRP800  GLU811  SER814 

> <Gold.Protein.RotatedAtoms>
  152.2267  134.8362  160.0478 H   0  0  0  0  0  0  0  0  0  0  0  0  # atno 6907 bound_to 6896
  151.9125  133.3560  159.3877 H   0  0  0  0  0  0  0  0  0  0  0  0  # atno 6908 bound_to 6896
  150.7014  134.4642  159.5439 H   0  0  0  0  0  0  0  0  0  0  0  0  # atno 6909 bound_to 6896
  145.2797  139.2637  143.3922 H   0  0  0  0  0  0  0  0  0  0  0  0  # atno 7974 bound_to 7965
  156.2439  140.2917  156.0524 H   0  0  0  0  0  0  0  0  0  0  0  0  # atno 8008 bound_to 7997
  155.1866  140.0405  157.2909 H   0  0  0  0  0  0  0  0  0  0  0  0  # atno 8009 bound_to 7997
  154.6223  140.2479  155.7541 H   0  0  0  0  0  0  0  0  0  0  0  0  # atno 8010 bound_to 7997
  140.1154  143.4490  152.1725 H   0  0  0  0  0  0  0  0  0  0  0  0  # atno 10167 bound_to 10162
  155.9986  130.4792  150.4835 H   0  0  0  0  0  0  0  0  0  0  0  0  # atno 10718 bound_to 10713
  154.5893  135.2843  155.0652 H   0  0  0  0  0  0  0  0  0  0  0  0  # atno 10763 bound_to 10752
  154.1958  135.6433  153.5077 H   0  0  0  0  0  0  0  0  0  0  0  0  # atno 10764 bound_to 10752
  153.0115  135.5457  154.6574 H   0  0  0  0  0  0  0  0  0  0  0  0  # atno 10765 bound_to 10752
  140.2026  134.8326  157.3034 H   0  0  0  0  0  0  0  0  0  0  0  0  # atno 11005 bound_to 11000
  146.3220  140.3261  142.8637 LP  0  0  0  0  0  0  0  0  0  0  0  0  # atno 17320 bound_to 7965
  144.9264  140.7926  143.5716 LP  0  0  0  0  0  0  0  0  0  0  0  0  # atno 17321 bound_to 7965
  139.5597  144.7397  151.4192 LP  0  0  0  0  0  0  0  0  0  0  0  0  # atno 17342 bound_to 10162
  140.6902  143.7880  150.7244 LP  0  0  0  0  0  0  0  0  0  0  0  0  # atno 17343 bound_to 10162
  157.2838  131.0612  151.2180 LP  0  0  0  0  0  0  0  0  0  0  0  0  # atno 17370 bound_to 10713
  157.3217  130.6940  149.6273 LP  0  0  0  0  0  0  0  0  0  0  0  0  # atno 17371 bound_to 10713
  140.2037  134.4223  155.7649 LP  0  0  0  0  0  0  0  0  0  0  0  0  # atno 17394 bound_to 11000
  141.2227  133.7084  156.8226 LP  0  0  0  0  0  0  0  0  0  0  0  0  # atno 17395 bound_to 11000

$$$$
