AV-unprocessed.smi:120|AV-procd|sdf|1138|dock9
  -GOLD-   2262018273D 1   1.00000     0.00000
 Structure written by MMmdl.
 45 48  0  0  0  0  0  0  0  0  1 V2000
  150.0606  129.3798  154.6428 C   0  0  0  0  0  0  0  0  0  0  0  0
  150.0274  130.4461  155.5803 O   0  0  0  0  0  0  0  0  0  0  0  0
  149.6475  131.6939  155.1336 C   0  0  0  0  0  0  0  0  0  0  0  0
  148.7499  131.7375  154.0498 C   0  0  0  0  0  0  0  0  0  0  0  0
  148.3089  132.9696  153.5371 C   0  0  0  0  0  0  0  0  0  0  0  0
  148.7645  134.1725  154.1061 C   0  0  0  0  0  0  0  0  0  0  0  0
  149.6690  134.1662  155.1932 C   0  0  0  0  0  0  0  0  0  0  0  0
  150.1508  135.4315  155.7905 C   0  0  0  0  0  0  0  0  0  0  0  0
  149.5346  135.9977  156.8206 N   0  0  0  0  0  0  0  0  0  0  0  0
  150.3124  137.1406  157.0593 O   0  0  0  0  0  0  0  0  0  0  0  0
  151.3047  137.1181  156.1343 C   0  0  0  0  0  0  0  0  0  0  0  0
  152.3146  138.2250  156.1379 C   0  0  0  0  0  0  0  0  0  0  0  0
  151.6636  139.5209  156.2439 N   0  0  0  0  0  0  0  0  0  0  0  0
  150.7864  139.9183  155.2043 C   0  0  0  0  0  0  0  0  0  0  0  0
  150.5494  139.1990  154.2325 O   0  0  0  0  0  0  0  0  0  0  0  0
  150.2051  141.2450  155.3785 C   0  0  0  0  0  0  0  0  0  0  0  0
  149.3453  141.7184  154.4606 F   0  0  0  0  0  0  0  0  0  0  0  0
  150.5159  142.0095  156.4477 C   0  0  0  0  0  0  0  0  0  0  0  0
  151.3952  141.6021  157.4380 N   0  0  0  0  0  0  0  0  0  0  0  0
  151.7387  142.4824  158.6210 C   0  0  1  0  0  0  0  0  0  0  0  0
  152.3693  143.8050  158.1464 C   0  0  0  0  0  0  0  0  0  0  0  0
  151.5516  144.8471  158.8829 C   0  0  0  0  0  0  0  0  0  0  0  0
  150.2060  144.1507  159.0192 C   0  0  0  0  0  0  0  0  0  0  0  0
  150.5735  142.8114  159.3231 O   0  0  0  0  0  0  0  0  0  0  0  0
  151.9965  140.3276  157.3570 C   0  0  0  0  0  0  0  0  0  0  0  0
  152.7890  139.9470  158.2222 O   0  0  0  0  0  0  0  0  0  0  0  0
  151.2513  136.0722  155.3107 N   0  0  0  0  0  0  0  0  0  0  0  0
  150.1006  132.9146  155.6953 C   0  0  0  0  0  0  0  0  0  0  0  0
  150.3831  128.4685  155.1465 H   0  0  0  0  0  0  0  0  0  0  0  0
  150.7686  129.5783  153.8370 H   0  0  0  0  0  0  0  0  0  0  0  0
  149.0734  129.1905  154.2193 H   0  0  0  0  0  0  0  0  0  0  0  0
  148.3949  130.8177  153.6085 H   0  0  0  0  0  0  0  0  0  0  0  0
  147.6199  132.9931  152.7058 H   0  0  0  0  0  0  0  0  0  0  0  0
  148.4134  135.1068  153.6930 H   0  0  0  0  0  0  0  0  0  0  0  0
  153.0191  138.1025  156.9610 H   0  0  0  0  0  0  0  0  0  0  0  0
  152.9092  138.2221  155.2223 H   0  0  0  0  0  0  0  0  0  0  0  0
  150.0467  142.9790  156.5127 H   0  0  0  0  0  0  0  0  0  0  0  0
  152.3874  141.8812  159.2609 H   0  0  0  0  0  0  0  0  0  0  0  0
  153.4323  143.8415  158.3863 H   0  0  0  0  0  0  0  0  0  0  0  0
  152.2448  143.9176  157.0681 H   0  0  0  0  0  0  0  0  0  0  0  0
  151.9785  145.0318  159.8695 H   0  0  0  0  0  0  0  0  0  0  0  0
  151.4899  145.7972  158.3518 H   0  0  0  0  0  0  0  0  0  0  0  0
  149.5828  144.5835  159.8017 H   0  0  0  0  0  0  0  0  0  0  0  0
  149.6539  144.1857  158.0790 H   0  0  0  0  0  0  0  0  0  0  0  0
  150.7860  132.9066  156.5286 H   0  0  0  0  0  0  0  0  0  0  0  0
  1  2  1  0  0  0  0
  1 29  1  0  0  0  0
  1 30  1  0  0  0  0
  1 31  1  0  0  0  0
  2  3  1  0  0  0  0
  3 28  1  0  0  0  0
  3  4  2  0  0  0  0
  4  5  1  0  0  0  0
  4 32  1  0  0  0  0
  5  6  2  0  0  0  0
  5 33  1  0  0  0  0
  6  7  1  0  0  0  0
  6 34  1  0  0  0  0
  7  8  1  0  0  0  0
  7 28  2  0  0  0  0
  8 27  1  0  0  0  0
  8  9  2  0  0  0  0
  9 10  1  0  0  0  0
 10 11  1  0  0  0  0
 11 12  1  0  0  0  0
 11 27  2  0  0  0  0
 12 13  1  0  0  0  0
 12 35  1  0  0  0  0
 12 36  1  0  0  0  0
 13 25  1  0  0  0  0
 13 14  1  0  0  0  0
 14 15  2  0  0  0  0
 14 16  1  0  0  0  0
 16 17  1  0  0  0  0
 16 18  2  0  0  0  0
 18 19  1  0  0  0  0
 18 37  1  0  0  0  0
 19 20  1  0  0  0  0
 19 25  1  0  0  0  0
 20 24  1  0  0  0  0
 20 21  1  0  0  0  0
 20 38  1  0  0  0  0
 21 22  1  0  0  0  0
 21 39  1  0  0  0  0
 21 40  1  0  0  0  0
 22 23  1  0  0  0  0
 22 41  1  0  0  0  0
 22 42  1  0  0  0  0
 23 24  1  0  0  0  0
 23 43  1  0  0  0  0
 23 44  1  0  0  0  0
 25 26  2  0  0  0  0
 28 45  1  0  0  0  0
M  END
> <s_m_source_file>
AV-unprocessed.smi

> <i_m_source_file_index>
120

> <i_lp_mmshare_version>
43012

> <i_f3d_flags>
0

> <s_epik_input>
W0NIM11PYzFbY0hdW2NIXVtjSF1jKFtjSF0xKS1jMm5vYyhuMilbQ0gyXW4zYyg9TyljKEYpW2NIXW4oYzM9TylbQ0BASF00W0NIMl1bQ0gyXVtDSDJdTzQ=

> <s_epik_cmdline>
J2VwaWtfcHl0aG9uJywgJy1waCcsICc3LjAnLCAnLXRuJywgJzgnLCAnLW1hJywgJzIwMCcsICctbWV0YWxfYmluZGluZycsICctaW1hZScsICc8aW5maWxlLm1hZT4nLCAnLW9tYWUnLCAnPG91dGZpbGUubWFlPic=

> <r_lp_tautomer_probability>
1

> <r_epik_Ionization_Penalty>
4.93314e-09

> <r_epik_Ionization_Penalty_Charging>
4.92654e-09

> <r_epik_Ionization_Penalty_Neutral>
6.60436e-12

> <r_epik_State_Penalty>
-0

> <r_epik_Charging_Adjusted_Penalty>
4.92654e-09

> <i_epik_Tot_Q>
0

> <i_epik_Tot_abs_Q>
0

> <r_epik_Metal_State_Penalty>
-0

> <b_epik_Metal_Only>
0

> <s_epik_Chemistry_Notes>
This compound contains an acetal/aminal-like group ( X-CH(R)-Y where X, Y are N, S, or O) that may be acid/base labile, releasing an aldehyde.

> <s_lp_Force_Field>
OPLS_2005

> <r_lp_Energy>
36.9113

> <b_lp_Chiralities_Consistent>
1

> <s_lp_Variant>
AV-unprocessed.smi:120-2

> <Gold.Version>
5.8.1

> <Gold.Id.Protein>
6NUR|6NUR_protein|mol2

> <Gold.PLP.Fitness>
57.9255

> <Gold.PLP.PLP>
-52.9645

> <Gold.PLP.part.hbond>
-3.7317

> <Gold.PLP.part.metal>
0.0000

> <Gold.PLP.part.buried>
-3.3814

> <Gold.PLP.part.nonpolar>
-45.8673

> <Gold.PLP.part.repulsive>
0.3242

> <Gold.PLP.ligand.clash>
0.0000

> <Gold.PLP.ligand.torsion>
2.0352

> <Gold.PLP.Chemscore.Hbond>
2.0000

> <Gold.PLP.Chemscore.CHOScore>
1.0000

> <Gold.PLP.Chemscore.Metal>
0.0000

> <Gold.Chemscore.Hbonds>
donor molecule, donor type, donor heavy atom, donor atom, acceptor molecule, acceptor atom, score
      P1  H  7997  8008       L1    26  0.55
      P1  H 10752 10765       L1    27  1.00
      L1  C    18    37       P1  8028  1.00

> <Gold.PLP.Chemscore.Internal.Correction>
0.0314

> <Gold.Rescore>
     Score         DG    S(hbond)    S(metal)    S(lipo)     H(rot)  DE(clash)    DE(int)     intcor
     13.42     -16.95       1.78        0.00      90.67       1.99       0.13       3.40       ----

> <Gold.Chemscore.Fitness>
13.4212

> <Gold.Chemscore.DG>
-16.9547

> <Gold.Chemscore.ZeroCoef>
-5.4800

> <Gold.Chemscore.Hbond>
1.7829

> <Gold.Chemscore.Metal>
0.0000

> <Gold.Chemscore.Lipo>
90.6726

> <Gold.Chemscore.Internal_Hbond>
0.0000

> <Gold.Chemscore.DEClash>
0.1334

> <Gold.Chemscore.DEInternal>
3.4001

> <Gold.Chemscore.Rot>
1.9879

> <Gold.Chemscore.Internal.Correction>
   9.000000E+99

> <Gold.Chemscore.Hbonds>
donor molecule, donor type, donor heavy atom, donor atom, acceptor molecule, acceptor atom, score
      P1  H  7997  8008       L1    26  0.08
      P1  H 10752 10765       L1    27  0.63

> <Gold.Chemscore.Hbond.Weighted>
-5.9550

> <Gold.Chemscore.Metal.Weighted>
-0.0000

> <Gold.Chemscore.Lipo.Weighted>
-10.6087

> <Gold.Chemscore.Internal_Hbond.Weighted>
0.0000

> <Gold.Chemscore.DEClash.Weighted>
0.1334

> <Gold.Chemscore.DEInternal.Weighted>
3.4001

> <Gold.Chemscore.Rot.Weighted>
5.0890

> <Gold.Chemscore.Internal.Correction.Weighted>
   9.000000E+99

> <Gold.Protein.RotatedTorsions>
[ 6907 6896 6895 6894 ] final   93.63 input  -60.11 | X-H torsion
[ 7974 7965 7964 7962 ] final  -87.69 input  175.53 | X-H torsion
[ 8008 7997 7996 7995 ] final  -81.43 input   59.86 | X-H torsion
[ 10167 10162 10161 10158 ] final   55.82 input  -65.29 | X-H torsion
[ 10718 10713 10712 10709 ] final  -12.95 input   66.30 | X-H torsion
[ 10763 10752 10751 10750 ] final -156.05 input  -60.55 | X-H torsion
[ 11005 11000 10999 10996 ] final  135.17 input  -57.11 | X-H torsion

> <Gold.Protein.ActiveResidues>
 VAL166  LYS551  ARG553  GLY616  TRP617  ASP618  TYR619  PRO620  LYS621  CYS622 
 ASP623  PHE694  ASN695  SER759  ASP760  ASP761  ALA762  ILE779  LEU786  VAL792 
 PHE793  MET794  SER795  GLU796  ALA797  LYS798  CYS799  TRP800  GLU811  SER814 

> <Gold.Protein.RotatedAtoms>
  152.5452  134.1318  159.8442 H   0  0  0  0  0  0  0  0  0  0  0  0  # atno 6907 bound_to 6896
  151.1363  133.4994  159.2605 H   0  0  0  0  0  0  0  0  0  0  0  0  # atno 6908 bound_to 6896
  151.1621  135.0288  159.8769 H   0  0  0  0  0  0  0  0  0  0  0  0  # atno 6909 bound_to 6896
  145.4631  140.9561  143.1958 H   0  0  0  0  0  0  0  0  0  0  0  0  # atno 7974 bound_to 7965
  154.5983  140.0648  156.9333 H   0  0  0  0  0  0  0  0  0  0  0  0  # atno 8008 bound_to 7997
  155.2176  140.3327  155.4301 H   0  0  0  0  0  0  0  0  0  0  0  0  # atno 8009 bound_to 7997
  156.2301  140.1837  156.7247 H   0  0  0  0  0  0  0  0  0  0  0  0  # atno 8010 bound_to 7997
  140.2154  144.3845  150.6472 H   0  0  0  0  0  0  0  0  0  0  0  0  # atno 10167 bound_to 10162
  156.6373  130.4918  149.6107 H   0  0  0  0  0  0  0  0  0  0  0  0  # atno 10718 bound_to 10713
  154.7742  135.3154  154.8127 H   0  0  0  0  0  0  0  0  0  0  0  0  # atno 10763 bound_to 10752
  153.8855  135.6830  153.4768 H   0  0  0  0  0  0  0  0  0  0  0  0  # atno 10764 bound_to 10752
  153.1361  135.4759  154.9360 H   0  0  0  0  0  0  0  0  0  0  0  0  # atno 10765 bound_to 10752
  139.9962  134.9496  156.9970 H   0  0  0  0  0  0  0  0  0  0  0  0  # atno 11005 bound_to 11000
  144.7990  139.6177  143.7080 LP  0  0  0  0  0  0  0  0  0  0  0  0  # atno 17320 bound_to 7965
  146.2440  139.6059  142.9472 LP  0  0  0  0  0  0  0  0  0  0  0  0  # atno 17321 bound_to 7965
  140.6294  143.2185  151.6528 LP  0  0  0  0  0  0  0  0  0  0  0  0  # atno 17342 bound_to 10162
  139.5164  144.3348  152.0794 LP  0  0  0  0  0  0  0  0  0  0  0  0  # atno 17343 bound_to 10162
  156.2187  130.6724  151.1346 LP  0  0  0  0  0  0  0  0  0  0  0  0  # atno 17370 bound_to 10713
  157.7182  131.0697  150.6244 LP  0  0  0  0  0  0  0  0  0  0  0  0  # atno 17371 bound_to 10713
  140.4813  134.1286  155.7217 LP  0  0  0  0  0  0  0  0  0  0  0  0  # atno 17394 bound_to 11000
  141.1606  133.8799  157.1857 LP  0  0  0  0  0  0  0  0  0  0  0  0  # atno 17395 bound_to 11000

$$$$
