AV-unprocessed.smi:3162|AV-procd|sdf|12066|dock5
  -GOLD-   2272017493D 1   1.00000     0.00000
 Structure written by MMmdl.
 37 37  0  0  0  0  0  0  0  0  2 V2000
  146.8036  136.4328  154.3046 C   0  0  0  0  0  0  0  0  0  0  0  0
  146.5785  137.9417  154.4885 C   0  0  0  0  0  0  0  0  0  0  0  0
  147.0864  138.8136  153.3189 C   0  0  1  0  0  0  0  0  0  0  0  0
  148.5484  138.6310  153.1606 N   0  3  0  0  0  0  0  0  0  0  0  0
  149.3726  138.8858  154.3635 C   0  0  1  0  0  0  0  0  0  0  0  0
  150.7706  138.2523  154.2242 C   0  0  0  0  0  0  0  0  0  0  0  0
  149.4367  140.4054  154.6214 C   0  0  0  0  0  0  0  0  0  0  0  0
  150.0850  140.7437  155.8756 N   0  0  0  0  0  0  0  0  0  0  0  0
  150.3094  141.9914  156.4180 C   0  0  0  0  0  0  0  0  0  0  0  0
  150.9437  141.8113  157.6145 C   0  0  0  0  0  0  0  0  0  0  0  0
  151.4132  142.8492  158.5928 C   0  0  0  0  0  0  0  0  0  0  0  0
  151.0564  140.3957  157.7195 C   0  0  0  0  0  0  0  0  0  0  0  0
  150.5397  139.7602  156.6802 N   0  0  0  0  0  0  0  0  0  0  0  0
  146.3797  138.4647  152.0011 C   0  0  0  0  0  0  0  0  0  0  0  0
  145.0625  138.2485  152.0504 N   0  0  0  0  0  0  0  0  0  0  0  0
  147.0148  138.3836  150.9511 O   0  0  0  0  0  0  0  0  0  0  0  0
  146.3590  135.8748  155.1287 H   0  0  0  0  0  0  0  0  0  0  0  0
  147.8639  136.1814  154.2775 H   0  0  0  0  0  0  0  0  0  0  0  0
  146.3484  136.0769  153.3800 H   0  0  0  0  0  0  0  0  0  0  0  0
  145.5081  138.1074  154.6169 H   0  0  0  0  0  0  0  0  0  0  0  0
  147.0418  138.2632  155.4227 H   0  0  0  0  0  0  0  0  0  0  0  0
  146.8759  139.8603  153.5469 H   0  0  0  0  0  0  0  0  0  0  0  0
  148.7308  137.6971  152.8230 H   0  0  0  0  0  0  0  0  0  0  0  0
  148.8656  138.4270  155.2140 H   0  0  0  0  0  0  0  0  0  0  0  0
  151.3686  138.4035  155.1233 H   0  0  0  0  0  0  0  0  0  0  0  0
  151.3189  138.6837  153.3862 H   0  0  0  0  0  0  0  0  0  0  0  0
  150.7112  137.1759  154.0640 H   0  0  0  0  0  0  0  0  0  0  0  0
  149.9724  140.9037  153.8119 H   0  0  0  0  0  0  0  0  0  0  0  0
  148.4312  140.8293  154.6359 H   0  0  0  0  0  0  0  0  0  0  0  0
  150.0050  142.8962  155.9123 H   0  0  0  0  0  0  0  0  0  0  0  0
  151.5632  142.4296  159.5879 H   0  0  0  0  0  0  0  0  0  0  0  0
  150.6952  143.6632  158.6935 H   0  0  0  0  0  0  0  0  0  0  0  0
  152.3605  143.2918  158.2846 H   0  0  0  0  0  0  0  0  0  0  0  0
  151.4958  139.8144  158.5167 H   0  0  0  0  0  0  0  0  0  0  0  0
  144.5521  138.0224  151.2087 H   0  0  0  0  0  0  0  0  0  0  0  0
  144.5766  138.3185  152.9334 H   0  0  0  0  0  0  0  0  0  0  0  0
  148.8430  139.2848  152.4486 H   0  0  0  0  0  0  0  0  0  0  0  0
  1  2  1  0  0  0  0
  1 17  1  0  0  0  0
  1 18  1  0  0  0  0
  1 19  1  0  0  0  0
  2  3  1  0  0  0  0
  2 20  1  0  0  0  0
  2 21  1  0  0  0  0
  3  4  1  0  0  0  0
  3 14  1  0  0  0  0
  3 22  1  0  0  0  0
  4  5  1  0  0  0  0
  4 23  1  0  0  0  0
  4 37  1  0  0  0  0
  5  6  1  0  0  0  0
  5  7  1  0  0  0  0
  5 24  1  0  0  0  0
  6 25  1  0  0  0  0
  6 26  1  0  0  0  0
  6 27  1  0  0  0  0
  7  8  1  0  0  0  0
  7 28  1  0  0  0  0
  7 29  1  0  0  0  0
  8 13  1  0  0  0  0
  8  9  1  0  0  0  0
  9 10  2  0  0  0  0
  9 30  1  0  0  0  0
 10 11  1  0  0  0  0
 10 12  1  0  0  0  0
 11 31  1  0  0  0  0
 11 32  1  0  0  0  0
 11 33  1  0  0  0  0
 12 13  2  0  0  0  0
 12 34  1  0  0  0  0
 14 15  1  0  0  0  0
 14 16  2  0  0  0  0
 15 35  1  0  0  0  0
 15 36  1  0  0  0  0
M  CHG  1   4   1
M  END
> <s_m_source_file>
AV-unprocessed.smi

> <i_m_source_file_index>
3162

> <i_lp_mmshare_version>
43012

> <i_f3d_flags>
0

> <s_epik_input>
W0NIM11bQ0gyXVtDQEBIXShDKD1PKVtOSDJdKVtOSF1bQ0BIXShbQ0gzXSlbQ0gyXW4xW2NIXWMoW0NIM10pW2NIXW4x

> <s_epik_cmdline>
J2VwaWtfcHl0aG9uJywgJy1waCcsICc3LjAnLCAnLXRuJywgJzgnLCAnLW1hJywgJzIwMCcsICctbWV0YWxfYmluZGluZycsICctaW1hZScsICc8aW5maWxlLm1hZT4nLCAnLW9tYWUnLCAnPG91dGZpbGUubWFlPic=

> <r_lp_tautomer_probability>
1

> <r_epik_Ionization_Penalty>
0.112112

> <r_epik_Ionization_Penalty_Charging>
0.112102

> <r_epik_Ionization_Penalty_Neutral>
9.73799e-06

> <r_epik_State_Penalty>
0.101811

> <r_epik_Charging_Adjusted_Penalty>
0.213914

> <i_epik_Tot_Q>
1

> <i_epik_Tot_abs_Q>
1

> <r_epik_Metal_State_Penalty>
0.101821

> <b_epik_Metal_Only>
0

> <s_lp_Force_Field>
OPLS_2005

> <r_lp_Energy>
5.38077

> <b_lp_Chiralities_Consistent>
1

> <s_lp_Variant>
AV-unprocessed.smi:3162-4

> <Gold.Version>
5.8.1

> <Gold.Id.Protein>
6NUR|6NUR_protein|mol2

> <Gold.PLP.Fitness>
47.6210

> <Gold.PLP.PLP>
-30.7742

> <Gold.PLP.part.hbond>
-4.8735

> <Gold.PLP.part.metal>
0.0000

> <Gold.PLP.part.buried>
-4.9655

> <Gold.PLP.part.nonpolar>
-23.9701

> <Gold.PLP.part.repulsive>
1.6909

> <Gold.PLP.ligand.clash>
0.0000

> <Gold.PLP.ligand.torsion>
0.5986

> <Gold.PLP.Chemscore.Hbond>
5.0000

> <Gold.PLP.Chemscore.CHOScore>
1.0000

> <Gold.PLP.Chemscore.Metal>
0.0000

> <Gold.Chemscore.Hbonds>
donor molecule, donor type, donor heavy atom, donor atom, acceptor molecule, acceptor atom, score
      L1  H     4    23       P1  7948  2.00
      L1  H     4    37       P1  7957  1.00
      L1  H    15    35       P1 10171  0.93
      P1  H  7954  7966       L1    16  1.00
      L1  C     9    30       P1  8028  1.00

> <Gold.PLP.Chemscore.Internal.Correction>
0.0441

> <Gold.Rescore>
     Score         DG    S(hbond)    S(metal)    S(lipo)     H(rot)  DE(clash)    DE(int)     intcor
     18.82     -19.38       3.99        0.00      59.84       2.51       0.19       0.36       ----

> <Gold.Chemscore.Fitness>
18.8235

> <Gold.Chemscore.DG>
-19.3792

> <Gold.Chemscore.ZeroCoef>
-5.4800

> <Gold.Chemscore.Hbond>
3.9862

> <Gold.Chemscore.Metal>
0.0000

> <Gold.Chemscore.Lipo>
59.8383

> <Gold.Chemscore.Internal_Hbond>
0.0000

> <Gold.Chemscore.DEClash>
0.1918

> <Gold.Chemscore.DEInternal>
0.3638

> <Gold.Chemscore.Rot>
2.5062

> <Gold.Chemscore.Internal.Correction>
   9.000000E+99

> <Gold.Chemscore.Hbonds>
donor molecule, donor type, donor heavy atom, donor atom, acceptor molecule, acceptor atom, score
      L1  H     4    23       P1  7948  1.00
      L1  H     4    37       P1  7957  1.00
      L1  H    15    35       P1 10171  0.89
      P1  H  7954  7966       L1    16  0.98

> <Gold.Chemscore.Hbond.Weighted>
-13.3140

> <Gold.Chemscore.Metal.Weighted>
-0.0000

> <Gold.Chemscore.Lipo.Weighted>
-7.0011

> <Gold.Chemscore.Internal_Hbond.Weighted>
0.0000

> <Gold.Chemscore.DEClash.Weighted>
0.1918

> <Gold.Chemscore.DEInternal.Weighted>
0.3638

> <Gold.Chemscore.Rot.Weighted>
6.4159

> <Gold.Chemscore.Internal.Correction.Weighted>
   9.000000E+99

> <Gold.Protein.RotatedTorsions>
[ 6907 6896 6895 6894 ] final  -70.99 input  -60.11 | X-H torsion
[ 7974 7965 7964 7962 ] final  -38.13 input  175.53 | X-H torsion
[ 8008 7997 7996 7995 ] final   78.17 input   59.86 | X-H torsion
[ 10167 10162 10161 10158 ] final -116.63 input  -65.29 | X-H torsion
[ 10718 10713 10712 10709 ] final   41.52 input   66.30 | X-H torsion
[ 10763 10752 10751 10750 ] final -163.19 input  -60.55 | X-H torsion
[ 11005 11000 10999 10996 ] final   38.74 input  -57.11 | X-H torsion

> <Gold.Protein.ActiveResidues>
 VAL166  LYS551  ARG553  GLY616  TRP617  ASP618  TYR619  PRO620  LYS621  CYS622 
 ASP623  PHE694  ASN695  SER759  ASP760  ASP761  ALA762  ILE779  LEU786  VAL792 
 PHE793  MET794  SER795  GLU796  ALA797  LYS798  CYS799  TRP800  GLU811  SER814 

> <Gold.Protein.RotatedAtoms>
  150.7232  134.5373  159.5729 H   0  0  0  0  0  0  0  0  0  0  0  0  # atno 6907 bound_to 6896
  152.2892  134.7738  160.0390 H   0  0  0  0  0  0  0  0  0  0  0  0  # atno 6908 bound_to 6896
  151.8357  133.3380  159.3664 H   0  0  0  0  0  0  0  0  0  0  0  0  # atno 6909 bound_to 6896
  146.0514  140.6476  142.9040 H   0  0  0  0  0  0  0  0  0  0  0  0  # atno 7974 bound_to 7965
  155.8519  140.3457  155.5699 H   0  0  0  0  0  0  0  0  0  0  0  0  # atno 8008 bound_to 7997
  155.8028  140.0887  157.1967 H   0  0  0  0  0  0  0  0  0  0  0  0  # atno 8009 bound_to 7997
  154.4008  140.1462  156.3282 H   0  0  0  0  0  0  0  0  0  0  0  0  # atno 8010 bound_to 7997
  140.0771  143.4822  152.1947 H   0  0  0  0  0  0  0  0  0  0  0  0  # atno 10167 bound_to 10162
  157.3945  130.7825  149.7297 H   0  0  0  0  0  0  0  0  0  0  0  0  # atno 10718 bound_to 10713
  154.7146  135.3013  154.9144 H   0  0  0  0  0  0  0  0  0  0  0  0  # atno 10763 bound_to 10752
  154.0035  135.6704  153.4765 H   0  0  0  0  0  0  0  0  0  0  0  0  # atno 10764 bound_to 10752
  153.0782  135.5023  154.8364 H   0  0  0  0  0  0  0  0  0  0  0  0  # atno 10765 bound_to 10752
  140.2096  134.3771  155.8055 H   0  0  0  0  0  0  0  0  0  0  0  0  # atno 11005 bound_to 11000
  144.7124  140.4089  143.7070 LP  0  0  0  0  0  0  0  0  0  0  0  0  # atno 17320 bound_to 7965
  145.6718  139.1601  143.2750 LP  0  0  0  0  0  0  0  0  0  0  0  0  # atno 17321 bound_to 7965
  139.5801  144.7506  151.3661 LP  0  0  0  0  0  0  0  0  0  0  0  0  # atno 17342 bound_to 10162
  140.7096  143.7424  150.7544 LP  0  0  0  0  0  0  0  0  0  0  0  0  # atno 17343 bound_to 10162
  155.9807  130.4027  150.3515 LP  0  0  0  0  0  0  0  0  0  0  0  0  # atno 17370 bound_to 10713
  157.1635  131.0351  151.2829 LP  0  0  0  0  0  0  0  0  0  0  0  0  # atno 17371 bound_to 10713
  141.2226  133.7136  156.8395 LP  0  0  0  0  0  0  0  0  0  0  0  0  # atno 17394 bound_to 11000
  140.1965  134.8928  157.3120 LP  0  0  0  0  0  0  0  0  0  0  0  0  # atno 17395 bound_to 11000

$$$$
