AV-unprocessed.smi:2143|AV-procd|sdf|8722|dock2
  -GOLD-   2272011493D 1   1.00000     0.00000
 Structure written by MMmdl.
 44 45  0  0  0  0  0  0  0  0  1 V2000
  155.5253  134.4099  164.4876 C   0  0  0  0  0  0  0  0  0  0  0  0
  155.8521  135.8005  163.9146 C   0  0  2  0  0  0  0  0  0  0  0  0
  157.3805  136.0117  163.8991 C   0  0  0  0  0  0  0  0  0  0  0  0
  157.7708  137.3788  163.3218 C   0  0  0  0  0  0  0  0  0  0  0  0
  157.0808  138.5169  164.0880 C   0  0  0  0  0  0  0  0  0  0  0  0
  155.5512  138.3437  164.1192 C   0  0  1  0  0  0  0  0  0  0  0  0
  154.9990  138.5679  162.7810 N   0  0  0  0  0  0  0  0  0  0  0  0
  155.3164  139.5706  161.9477 C   0  0  0  0  0  0  0  0  0  0  0  0
  156.1276  140.4547  162.2261 O   0  0  0  0  0  0  0  0  0  0  0  0
  154.5737  139.5792  160.6048 C   0  0  0  0  0  0  0  0  0  0  0  0
  153.7585  140.7835  160.4006 N   0  0  0  0  0  0  0  0  0  0  0  0
  153.7404  141.7705  161.3689 C   0  0  0  0  0  0  0  0  0  0  0  0
  153.0299  142.9137  161.2540 C   0  0  0  0  0  0  0  0  0  0  0  0
  152.2194  143.1768  160.0711 C   0  0  0  0  0  0  0  0  0  0  0  0
  151.5669  144.2108  159.9236 O   0  0  0  0  0  0  0  0  0  0  0  0
  152.2496  142.1470  159.0998 N   0  0  0  0  0  0  0  0  0  0  0  0
  151.4895  142.3094  157.8778 C   0  0  0  0  0  0  0  0  0  0  0  0
  153.0033  140.9587  159.2213 C   0  0  0  0  0  0  0  0  0  0  0  0
  153.0118  140.1010  158.3346 O   0  0  0  0  0  0  0  0  0  0  0  0
  155.1471  136.9544  164.6817 C   0  0  1  0  0  0  0  0  0  0  0  0
  153.6144  136.7937  164.7422 C   0  0  0  0  0  0  0  0  0  0  0  0
  155.7811  134.3461  165.5457 H   0  0  0  0  0  0  0  0  0  0  0  0
  156.0820  133.6315  163.9651 H   0  0  0  0  0  0  0  0  0  0  0  0
  154.4685  134.1663  164.3813 H   0  0  0  0  0  0  0  0  0  0  0  0
  155.5045  135.8137  162.8807 H   0  0  0  0  0  0  0  0  0  0  0  0
  157.7735  135.9230  164.9130 H   0  0  0  0  0  0  0  0  0  0  0  0
  157.8603  135.2253  163.3154 H   0  0  0  0  0  0  0  0  0  0  0  0
  158.8529  137.5052  163.3680 H   0  0  0  0  0  0  0  0  0  0  0  0
  157.5018  137.4225  162.2658 H   0  0  0  0  0  0  0  0  0  0  0  0
  157.4598  138.5391  165.1107 H   0  0  0  0  0  0  0  0  0  0  0  0
  157.3439  139.4793  163.6471 H   0  0  0  0  0  0  0  0  0  0  0  0
  155.1627  139.1041  164.7990 H   0  0  0  0  0  0  0  0  0  0  0  0
  154.3147  137.8971  162.4628 H   0  0  0  0  0  0  0  0  0  0  0  0
  155.2901  139.4681  159.7888 H   0  0  0  0  0  0  0  0  0  0  0  0
  153.9400  138.6923  160.5621 H   0  0  0  0  0  0  0  0  0  0  0  0
  154.3286  141.6246  162.2633 H   0  0  0  0  0  0  0  0  0  0  0  0
  153.0640  143.6456  162.0475 H   0  0  0  0  0  0  0  0  0  0  0  0
  150.9014  141.4018  157.7277 H   0  0  0  0  0  0  0  0  0  0  0  0
  152.2108  142.4553  157.0721 H   0  0  0  0  0  0  0  0  0  0  0  0
  150.8128  143.1606  157.9449 H   0  0  0  0  0  0  0  0  0  0  0  0
  155.5024  136.9205  165.7130 H   0  0  0  0  0  0  0  0  0  0  0  0
  153.1813  136.6793  163.7482 H   0  0  0  0  0  0  0  0  0  0  0  0
  153.1497  137.6630  165.2086 H   0  0  0  0  0  0  0  0  0  0  0  0
  153.3241  135.9254  165.3329 H   0  0  0  0  0  0  0  0  0  0  0  0
  1  2  1  0  0  0  0
  1 22  1  0  0  0  0
  1 23  1  0  0  0  0
  1 24  1  0  0  0  0
  2 20  1  0  0  0  0
  2  3  1  0  0  0  0
  2 25  1  0  0  0  0
  3  4  1  0  0  0  0
  3 26  1  0  0  0  0
  3 27  1  0  0  0  0
  4  5  1  0  0  0  0
  4 28  1  0  0  0  0
  4 29  1  0  0  0  0
  5  6  1  0  0  0  0
  5 30  1  0  0  0  0
  5 31  1  0  0  0  0
  6  7  1  0  0  0  0
  6 20  1  0  0  0  0
  6 32  1  0  0  0  0
  7  8  1  0  0  0  0
  7 33  1  0  0  0  0
  8  9  2  0  0  0  0
  8 10  1  0  0  0  0
 10 11  1  0  0  0  0
 10 34  1  0  0  0  0
 10 35  1  0  0  0  0
 11 18  1  0  0  0  0
 11 12  1  0  0  0  0
 12 13  2  0  0  0  0
 12 36  1  0  0  0  0
 13 14  1  0  0  0  0
 13 37  1  0  0  0  0
 14 15  2  0  0  0  0
 14 16  1  0  0  0  0
 16 17  1  0  0  0  0
 16 18  1  0  0  0  0
 17 38  1  0  0  0  0
 17 39  1  0  0  0  0
 17 40  1  0  0  0  0
 18 19  2  0  0  0  0
 20 21  1  0  0  0  0
 20 41  1  0  0  0  0
 21 42  1  0  0  0  0
 21 43  1  0  0  0  0
 21 44  1  0  0  0  0
M  END
> <s_m_source_file>
AV-unprocessed.smi

> <i_m_source_file_index>
2143

> <i_lp_mmshare_version>
43012

> <i_f3d_flags>
0

> <s_epik_input>
W0NIM11bQ0BASF0xW0NIMl1bQ0gyXVtDSDJdW0NASF0oW0NASF0xW0NIM10pW05IXUMoPU8pW0NIMl1uMltjSF1bY0hdYyg9TyluKFtDSDNdKWMyPU8=

> <s_epik_cmdline>
J2VwaWtfcHl0aG9uJywgJy1waCcsICc3LjAnLCAnLXRuJywgJzgnLCAnLW1hJywgJzIwMCcsICctbWV0YWxfYmluZGluZycsICctaW1hZScsICc8aW5maWxlLm1hZT4nLCAnLW9tYWUnLCAnPG91dGZpbGUubWFlPic=

> <r_lp_tautomer_probability>
1

> <r_epik_Ionization_Penalty>
3.18445e-08

> <r_epik_Ionization_Penalty_Charging>
1.27977e-08

> <r_epik_Ionization_Penalty_Neutral>
1.90469e-08

> <r_epik_State_Penalty>
-0

> <r_epik_Charging_Adjusted_Penalty>
1.27977e-08

> <i_epik_Tot_Q>
0

> <i_epik_Tot_abs_Q>
0

> <r_epik_Metal_State_Penalty>
-0

> <b_epik_Metal_Only>
0

> <s_lp_Force_Field>
OPLS_2005

> <r_lp_Energy>
19.1403

> <b_lp_Chiralities_Consistent>
1

> <s_lp_Variant>
AV-unprocessed.smi:2143-1

> <Gold.Version>
5.8.1

> <Gold.Id.Protein>
6NUR|6NUR_protein|mol2

> <Gold.PLP.Fitness>
40.1007

> <Gold.PLP.PLP>
-37.4452

> <Gold.PLP.part.hbond>
-2.0000

> <Gold.PLP.part.metal>
0.0000

> <Gold.PLP.part.buried>
-4.7714

> <Gold.PLP.part.nonpolar>
-30.4134

> <Gold.PLP.part.repulsive>
0.0565

> <Gold.PLP.ligand.clash>
0.0000

> <Gold.PLP.ligand.torsion>
0.1421

> <Gold.PLP.Chemscore.Hbond>
0.9760

> <Gold.PLP.Chemscore.CHOScore>
0.0000

> <Gold.PLP.Chemscore.Metal>
0.0000

> <Gold.Chemscore.Hbonds>
donor molecule, donor type, donor heavy atom, donor atom, acceptor molecule, acceptor atom, score
      P1  H  7997  8009       L1    19  0.96

> <Gold.PLP.Chemscore.Internal.Correction>
0.0117

> <Gold.Rescore>
     Score         DG    S(hbond)    S(metal)    S(lipo)     H(rot)  DE(clash)    DE(int)     intcor
     10.07     -13.75       0.94        0.00      77.03       1.51       1.04       2.64       ----

> <Gold.Chemscore.Fitness>
10.0739

> <Gold.Chemscore.DG>
-13.7539

> <Gold.Chemscore.ZeroCoef>
-5.4800

> <Gold.Chemscore.Hbond>
0.9387

> <Gold.Chemscore.Metal>
0.0000

> <Gold.Chemscore.Lipo>
77.0259

> <Gold.Chemscore.Internal_Hbond>
0.0000

> <Gold.Chemscore.DEClash>
1.0396

> <Gold.Chemscore.DEInternal>
2.6404

> <Gold.Chemscore.Rot>
1.5131

> <Gold.Chemscore.Internal.Correction>
   9.000000E+99

> <Gold.Chemscore.Hbonds>
donor molecule, donor type, donor heavy atom, donor atom, acceptor molecule, acceptor atom, score
      P1  H  7997  8009       L1    19  0.84

> <Gold.Chemscore.Hbond.Weighted>
-3.1353

> <Gold.Chemscore.Metal.Weighted>
-0.0000

> <Gold.Chemscore.Lipo.Weighted>
-9.0120

> <Gold.Chemscore.Internal_Hbond.Weighted>
0.0000

> <Gold.Chemscore.DEClash.Weighted>
1.0396

> <Gold.Chemscore.DEInternal.Weighted>
2.6404

> <Gold.Chemscore.Rot.Weighted>
3.8734

> <Gold.Chemscore.Internal.Correction.Weighted>
   9.000000E+99

> <Gold.Protein.RotatedTorsions>
[ 6907 6896 6895 6894 ] final  115.26 input  -60.11 | X-H torsion
[ 7974 7965 7964 7962 ] final   50.11 input  175.53 | X-H torsion
[ 8008 7997 7996 7995 ] final  161.49 input   59.86 | X-H torsion
[ 10167 10162 10161 10158 ] final   32.39 input  -65.29 | X-H torsion
[ 10718 10713 10712 10709 ] final   64.03 input   66.30 | X-H torsion
[ 10763 10752 10751 10750 ] final   49.79 input  -60.55 | X-H torsion
[ 11005 11000 10999 10996 ] final   20.23 input  -57.11 | X-H torsion

> <Gold.Protein.ActiveResidues>
 VAL166  LYS551  ARG553  GLY616  TRP617  ASP618  TYR619  PRO620  LYS621  CYS622 
 ASP623  PHE694  ASN695  SER759  ASP760  ASP761  ALA762  ILE779  LEU786  VAL792 
 PHE793  MET794  SER795  GLU796  ALA797  LYS798  CYS799  TRP800  GLU811  SER814 

> <Gold.Protein.RotatedAtoms>
  152.4752  133.8122  159.7009 H   0  0  0  0  0  0  0  0  0  0  0  0  # atno 6907 bound_to 6896
  150.8765  133.7422  159.2951 H   0  0  0  0  0  0  0  0  0  0  0  0  # atno 6908 bound_to 6896
  151.4940  135.1062  159.9863 H   0  0  0  0  0  0  0  0  0  0  0  0  # atno 6909 bound_to 6896
  146.0044  139.4474  142.9995 H   0  0  0  0  0  0  0  0  0  0  0  0  # atno 7974 bound_to 7965
  156.2099  140.1776  156.7718 H   0  0  0  0  0  0  0  0  0  0  0  0  # atno 8008 bound_to 7997
  154.5707  140.0683  156.8990 H   0  0  0  0  0  0  0  0  0  0  0  0  # atno 8009 bound_to 7997
  155.2677  140.3340  155.4270 H   0  0  0  0  0  0  0  0  0  0  0  0  # atno 8010 bound_to 7997
  140.4502  144.1059  150.6190 H   0  0  0  0  0  0  0  0  0  0  0  0  # atno 10167 bound_to 10162
  157.6012  130.9138  149.9792 H   0  0  0  0  0  0  0  0  0  0  0  0  # atno 10718 bound_to 10713
  152.9786  135.5900  154.4147 H   0  0  0  0  0  0  0  0  0  0  0  0  # atno 10763 bound_to 10752
  154.3778  135.2767  155.2231 H   0  0  0  0  0  0  0  0  0  0  0  0  # atno 10764 bound_to 10752
  154.4157  135.6071  153.6034 H   0  0  0  0  0  0  0  0  0  0  0  0  # atno 10765 bound_to 10752
  140.4050  134.1679  155.7665 H   0  0  0  0  0  0  0  0  0  0  0  0  # atno 11005 bound_to 11000
  145.7439  140.9998  143.1286 LP  0  0  0  0  0  0  0  0  0  0  0  0  # atno 17320 bound_to 7965
  144.6930  139.9132  143.7464 LP  0  0  0  0  0  0  0  0  0  0  0  0  # atno 17321 bound_to 7965
  140.4215  143.2609  151.9709 LP  0  0  0  0  0  0  0  0  0  0  0  0  # atno 17342 bound_to 10162
  139.4796  144.5826  151.7907 LP  0  0  0  0  0  0  0  0  0  0  0  0  # atno 17343 bound_to 10162
  156.1085  130.3651  150.0090 LP  0  0  0  0  0  0  0  0  0  0  0  0  # atno 17370 bound_to 10713
  156.8193  130.9353  151.3642 LP  0  0  0  0  0  0  0  0  0  0  0  0  # atno 17371 bound_to 10713
  141.1843  133.8347  157.1146 LP  0  0  0  0  0  0  0  0  0  0  0  0  # atno 17394 bound_to 11000
  140.0309  134.9901  157.0778 LP  0  0  0  0  0  0  0  0  0  0  0  0  # atno 17395 bound_to 11000

$$$$
