AV-unprocessed.smi:1364|AV-procd|sdf|5567|dock4
  -GOLD-   22720 5163D 1   1.00000     0.00000
 Structure written by MMmdl.
 40 41  0  0  0  0  0  0  0  0  1 V2000
  140.3638  140.7401  154.1592 C   0  0  0  0  0  0  0  0  0  0  0  0
  141.0253  140.0491  155.3698 C   0  0  0  0  0  0  0  0  0  0  0  0
  142.3384  140.7835  155.7123 C   0  0  0  0  0  0  0  0  0  0  0  0
  140.0700  140.1439  156.5835 C   0  0  0  0  0  0  0  0  0  0  0  0
  141.3609  138.5863  154.9843 C   0  0  0  0  0  0  0  0  0  0  0  0
  140.8723  137.6689  155.6450 O   0  0  0  0  0  0  0  0  0  0  0  0
  142.1981  138.3883  153.9465 N   0  0  0  0  0  0  0  0  0  0  0  0
  142.6563  137.1622  153.3933 C   0  0  0  0  0  0  0  0  0  0  0  0
  142.0698  135.9021  153.6517 C   0  0  0  0  0  0  0  0  0  0  0  0
  142.6040  134.7597  153.0254 C   0  0  0  0  0  0  0  0  0  0  0  0
  143.7069  134.9001  152.1500 C   0  0  0  0  0  0  0  0  0  0  0  0
  144.2592  133.7666  151.5139 N   0  0  0  0  0  0  0  0  0  0  0  0
  144.0627  133.6241  150.0722 C   0  0  0  0  0  0  0  0  0  0  0  0
  144.4648  132.2124  149.6128 C   0  0  0  0  0  0  0  0  0  0  0  0
  145.8034  131.9412  150.0140 O   0  0  0  0  0  0  0  0  0  0  0  0
  145.9482  131.9754  151.4299 C   0  0  0  0  0  0  0  0  0  0  0  0
  145.5960  133.3773  151.9569 C   0  0  0  0  0  0  0  0  0  0  0  0
  144.2518  136.1136  151.8885 N   0  0  0  0  0  0  0  0  0  0  0  0
  143.7374  137.2056  152.4913 C   0  0  0  0  0  0  0  0  0  0  0  0
  140.1182  141.7787  154.3830 H   0  0  0  0  0  0  0  0  0  0  0  0
  139.4368  140.2409  153.8733 H   0  0  0  0  0  0  0  0  0  0  0  0
  141.0174  140.7456  153.2857 H   0  0  0  0  0  0  0  0  0  0  0  0
  143.0325  140.7916  154.8706 H   0  0  0  0  0  0  0  0  0  0  0  0
  142.8485  140.3156  156.5554 H   0  0  0  0  0  0  0  0  0  0  0  0
  142.1499  141.8230  155.9828 H   0  0  0  0  0  0  0  0  0  0  0  0
  139.8567  141.1841  156.8322 H   0  0  0  0  0  0  0  0  0  0  0  0
  140.4994  139.6846  157.4751 H   0  0  0  0  0  0  0  0  0  0  0  0
  139.1119  139.6615  156.3846 H   0  0  0  0  0  0  0  0  0  0  0  0
  142.6025  139.2219  153.5448 H   0  0  0  0  0  0  0  0  0  0  0  0
  141.2144  135.7897  154.2993 H   0  0  0  0  0  0  0  0  0  0  0  0
  142.1501  133.7975  153.2088 H   0  0  0  0  0  0  0  0  0  0  0  0
  143.0183  133.8027  149.8132 H   0  0  0  0  0  0  0  0  0  0  0  0
  144.6621  134.3714  149.5505 H   0  0  0  0  0  0  0  0  0  0  0  0
  143.7898  131.4613  150.0265 H   0  0  0  0  0  0  0  0  0  0  0  0
  144.3968  132.1375  148.5274 H   0  0  0  0  0  0  0  0  0  0  0  0
  145.3132  131.2165  151.8900 H   0  0  0  0  0  0  0  0  0  0  0  0
  146.9778  131.7269  151.6870 H   0  0  0  0  0  0  0  0  0  0  0  0
  146.3153  134.1071  151.5834 H   0  0  0  0  0  0  0  0  0  0  0  0
  145.6800  133.3778  153.0425 H   0  0  0  0  0  0  0  0  0  0  0  0
  144.2100  138.1458  152.2471 H   0  0  0  0  0  0  0  0  0  0  0  0
  1  2  1  0  0  0  0
  1 20  1  0  0  0  0
  1 21  1  0  0  0  0
  1 22  1  0  0  0  0
  2  3  1  0  0  0  0
  2  4  1  0  0  0  0
  2  5  1  0  0  0  0
  3 23  1  0  0  0  0
  3 24  1  0  0  0  0
  3 25  1  0  0  0  0
  4 26  1  0  0  0  0
  4 27  1  0  0  0  0
  4 28  1  0  0  0  0
  5  6  2  0  0  0  0
  5  7  1  0  0  0  0
  7  8  1  0  0  0  0
  7 29  1  0  0  0  0
  8 19  1  0  0  0  0
  8  9  2  0  0  0  0
  9 10  1  0  0  0  0
  9 30  1  0  0  0  0
 10 11  2  0  0  0  0
 10 31  1  0  0  0  0
 11 12  1  0  0  0  0
 11 18  1  0  0  0  0
 12 17  1  0  0  0  0
 12 13  1  0  0  0  0
 13 14  1  0  0  0  0
 13 32  1  0  0  0  0
 13 33  1  0  0  0  0
 14 15  1  0  0  0  0
 14 34  1  0  0  0  0
 14 35  1  0  0  0  0
 15 16  1  0  0  0  0
 16 17  1  0  0  0  0
 16 36  1  0  0  0  0
 16 37  1  0  0  0  0
 17 38  1  0  0  0  0
 17 39  1  0  0  0  0
 18 19  2  0  0  0  0
 19 40  1  0  0  0  0
M  END
> <s_m_source_file>
AV-unprocessed.smi

> <i_m_source_file_index>
1364

> <i_lp_mmshare_version>
43012

> <i_f3d_flags>
0

> <s_epik_input>
W0NIM11DKFtDSDNdKShbQ0gzXSlDKD1PKVtOSF1jMVtjSF1bY0hdYyhuW2NIXTEpTjJbQ0gyXVtDSDJdT1tDSDJdW0NIMl0y

> <s_epik_cmdline>
J2VwaWtfcHl0aG9uJywgJy1waCcsICc3LjAnLCAnLXRuJywgJzgnLCAnLW1hJywgJzIwMCcsICctbWV0YWxfYmluZGluZycsICctaW1hZScsICc8aW5maWxlLm1hZT4nLCAnLW9tYWUnLCAnPG91dGZpbGUubWFlPic=

> <r_lp_tautomer_probability>
1

> <r_epik_Ionization_Penalty>
0.000770434

> <r_epik_Ionization_Penalty_Charging>
0

> <r_epik_Ionization_Penalty_Neutral>
0.000770434

> <r_epik_State_Penalty>
0.00047801

> <r_epik_Charging_Adjusted_Penalty>
0.00047801

> <i_epik_Tot_Q>
0

> <i_epik_Tot_abs_Q>
0

> <r_epik_Metal_State_Penalty>
-0

> <b_epik_Metal_Only>
0

> <s_lp_Force_Field>
OPLS_2005

> <r_lp_Energy>
28.9923

> <b_lp_Chiralities_Consistent>
1

> <s_lp_Variant>
AV-unprocessed.smi:1364-1

> <Gold.Version>
5.8.1

> <Gold.Id.Protein>
6NUR|6NUR_protein|mol2

> <Gold.PLP.Fitness>
32.6043

> <Gold.PLP.PLP>
-25.0718

> <Gold.PLP.part.hbond>
-1.0000

> <Gold.PLP.part.metal>
0.0000

> <Gold.PLP.part.buried>
-3.7775

> <Gold.PLP.part.nonpolar>
-20.3967

> <Gold.PLP.part.repulsive>
0.4617

> <Gold.PLP.ligand.clash>
0.0000

> <Gold.PLP.ligand.torsion>
0.2190

> <Gold.PLP.Chemscore.Hbond>
1.0000

> <Gold.PLP.Chemscore.CHOScore>
1.5397

> <Gold.PLP.Chemscore.Metal>
0.0000

> <Gold.Chemscore.Hbonds>
donor molecule, donor type, donor heavy atom, donor atom, acceptor molecule, acceptor atom, score
      L1  H     7    29       P1 10175  1.00
      L1  C    19    40       P1 10171  0.57
      L1  C    19    40       P1 10175  1.00

> <Gold.PLP.Chemscore.Internal.Correction>
0.3515

> <Gold.Rescore>
     Score         DG    S(hbond)    S(metal)    S(lipo)     H(rot)  DE(clash)    DE(int)     intcor
     10.95     -12.47       0.99        0.00      57.01       1.17       0.07       1.44       ----

> <Gold.Chemscore.Fitness>
10.9514

> <Gold.Chemscore.DG>
-12.4653

> <Gold.Chemscore.ZeroCoef>
-5.4800

> <Gold.Chemscore.Hbond>
0.9892

> <Gold.Chemscore.Metal>
0.0000

> <Gold.Chemscore.Lipo>
57.0105

> <Gold.Chemscore.Internal_Hbond>
0.0000

> <Gold.Chemscore.DEClash>
0.0727

> <Gold.Chemscore.DEInternal>
1.4412

> <Gold.Chemscore.Rot>
1.1675

> <Gold.Chemscore.Internal.Correction>
   9.000000E+99

> <Gold.Chemscore.Hbonds>
donor molecule, donor type, donor heavy atom, donor atom, acceptor molecule, acceptor atom, score
      L1  H     7    29       P1 10175  1.00

> <Gold.Chemscore.Hbond.Weighted>
-3.3039

> <Gold.Chemscore.Metal.Weighted>
-0.0000

> <Gold.Chemscore.Lipo.Weighted>
-6.6702

> <Gold.Chemscore.Internal_Hbond.Weighted>
0.0000

> <Gold.Chemscore.DEClash.Weighted>
0.0727

> <Gold.Chemscore.DEInternal.Weighted>
1.4412

> <Gold.Chemscore.Rot.Weighted>
2.9888

> <Gold.Chemscore.Internal.Correction.Weighted>
   9.000000E+99

> <Gold.Protein.RotatedTorsions>
[ 6907 6896 6895 6894 ] final -161.17 input  -60.11 | X-H torsion
[ 7974 7965 7964 7962 ] final   45.57 input  175.53 | X-H torsion
[ 8008 7997 7996 7995 ] final  -17.28 input   59.86 | X-H torsion
[ 10167 10162 10161 10158 ] final  115.96 input  -65.29 | X-H torsion
[ 10718 10713 10712 10709 ] final  109.61 input   66.30 | X-H torsion
[ 10763 10752 10751 10750 ] final    5.20 input  -60.55 | X-H torsion
[ 11005 11000 10999 10996 ] final -105.11 input  -57.11 | X-H torsion

> <Gold.Protein.ActiveResidues>
 VAL166  LYS551  ARG553  GLY616  TRP617  ASP618  TYR619  PRO620  LYS621  CYS622 
 ASP623  PHE694  ASN695  SER759  ASP760  ASP761  ALA762  ILE779  LEU786  VAL792 
 PHE793  MET794  SER795  GLU796  ALA797  LYS798  CYS799  TRP800  GLU811  SER814 

> <Gold.Protein.RotatedAtoms>
  151.3605  133.3891  159.2688 H   0  0  0  0  0  0  0  0  0  0  0  0  # atno 6907 bound_to 6896
  150.9729  134.9100  159.7809 H   0  0  0  0  0  0  0  0  0  0  0  0  # atno 6908 bound_to 6896
  152.5191  134.3567  159.9323 H   0  0  0  0  0  0  0  0  0  0  0  0  # atno 6909 bound_to 6896
  146.0468  139.4950  142.9743 H   0  0  0  0  0  0  0  0  0  0  0  0  # atno 7974 bound_to 7965
  154.4990  140.2147  155.9387 H   0  0  0  0  0  0  0  0  0  0  0  0  # atno 8008 bound_to 7997
  156.1408  140.3180  155.8460 H   0  0  0  0  0  0  0  0  0  0  0  0  # atno 8009 bound_to 7997
  155.4123  140.0491  157.3021 H   0  0  0  0  0  0  0  0  0  0  0  0  # atno 8010 bound_to 7997
  139.6281  144.7111  151.2491 H   0  0  0  0  0  0  0  0  0  0  0  0  # atno 10167 bound_to 10162
  157.6533  131.0917  150.6480 H   0  0  0  0  0  0  0  0  0  0  0  0  # atno 10718 bound_to 10713
  153.2621  135.6924  153.7567 H   0  0  0  0  0  0  0  0  0  0  0  0  # atno 10763 bound_to 10752
  153.6622  135.3358  155.3131 H   0  0  0  0  0  0  0  0  0  0  0  0  # atno 10764 bound_to 10752
  154.8434  135.4480  154.1615 H   0  0  0  0  0  0  0  0  0  0  0  0  # atno 10765 bound_to 10752
  141.1069  133.8780  157.1693 H   0  0  0  0  0  0  0  0  0  0  0  0  # atno 11005 bound_to 11000
  145.6792  141.0196  143.1616 LP  0  0  0  0  0  0  0  0  0  0  0  0  # atno 17320 bound_to 7965
  144.7102  139.8401  143.7417 LP  0  0  0  0  0  0  0  0  0  0  0  0  # atno 17321 bound_to 7965
  140.7423  143.6531  150.8231 LP  0  0  0  0  0  0  0  0  0  0  0  0  # atno 17342 bound_to 10162
  140.0152  143.5600  152.2823 LP  0  0  0  0  0  0  0  0  0  0  0  0  # atno 17343 bound_to 10162
  156.6788  130.4561  149.5634 LP  0  0  0  0  0  0  0  0  0  0  0  0  # atno 17370 bound_to 10713
  156.1944  130.6580  151.1097 LP  0  0  0  0  0  0  0  0  0  0  0  0  # atno 17371 bound_to 10713
  139.9943  135.0052  157.0048 LP  0  0  0  0  0  0  0  0  0  0  0  0  # atno 17394 bound_to 11000
  140.4878  134.1224  155.7227 LP  0  0  0  0  0  0  0  0  0  0  0  0  # atno 17395 bound_to 11000

$$$$
