AV-unprocessed.smi:102|AV-procd|sdf|963|dock4
  -GOLD-   2262017503D 1   1.00000     0.00000
 Structure written by MMmdl.
 43 44  0  0  0  0  0  0  0  0  2 V2000
  153.0956  142.3846  160.9071 C   0  0  0  0  0  0  0  0  0  0  0  0
  152.3899  143.2236  159.8503 C   0  0  0  0  0  0  0  0  0  0  0  0
  152.9416  144.1866  159.3177 O   0  0  0  0  0  0  0  0  0  0  0  0
  151.1468  142.7890  159.6020 O   0  0  0  0  0  0  0  0  0  0  0  0
  150.5059  143.1321  158.3831 C   0  0  0  0  0  0  0  0  0  0  0  0
  149.5852  141.9965  157.9059 C   0  0  2  0  0  0  0  0  0  0  0  0
  149.7161  140.8688  158.7704 O   0  0  0  0  0  0  0  0  0  0  0  0
  150.1797  139.7560  158.0620 C   0  0  2  0  0  0  0  0  0  0  0  0
  151.2651  139.0702  158.8590 N   0  0  0  0  0  0  0  0  0  0  0  0
  152.4233  139.7440  159.2079 C   0  0  0  0  0  0  0  0  0  0  0  0
  153.4139  139.1295  159.8852 C   0  0  0  0  0  0  0  0  0  0  0  0
  154.5269  139.8111  160.2068 F   0  0  0  0  0  0  0  0  0  0  0  0
  153.2687  137.7248  160.2619 C   0  0  0  0  0  0  0  0  0  0  0  0
  154.1755  137.1689  160.8796 O   0  0  0  0  0  0  0  0  0  0  0  0
  152.1171  137.0853  159.9052 N   0  5  0  0  0  0  0  0  0  0  0  0
  151.1137  137.7022  159.2145 C   0  0  0  0  0  0  0  0  0  0  0  0
  150.0786  137.1272  158.8780 O   0  0  0  0  0  0  0  0  0  0  0  0
  150.7315  140.2619  156.7285 C   0  0  1  0  0  0  0  0  0  0  0  0
  150.6096  139.2776  155.7096 O   0  0  0  0  0  0  0  0  0  0  0  0
  151.6801  138.9260  154.9812 C   0  0  0  0  0  0  0  0  0  0  0  0
  151.4009  137.7278  154.0844 C   0  0  0  0  0  0  0  0  0  0  0  0
  152.7808  139.4774  154.9962 O   0  0  0  0  0  0  0  0  0  0  0  0
  149.8819  141.5008  156.4828 C   0  0  1  0  0  0  0  0  0  0  0  0
  148.6619  141.1532  155.8326 O   0  0  0  0  0  0  0  0  0  0  0  0
  148.6100  141.0517  154.4934 C   0  0  0  0  0  0  0  0  0  0  0  0
  147.1834  141.1077  153.9637 C   0  0  0  0  0  0  0  0  0  0  0  0
  149.5736  140.9330  153.7366 O   0  0  0  0  0  0  0  0  0  0  0  0
  152.4235  142.1780  161.7407 H   0  0  0  0  0  0  0  0  0  0  0  0
  153.9687  142.9122  161.2918 H   0  0  0  0  0  0  0  0  0  0  0  0
  153.4228  141.4360  160.4808 H   0  0  0  0  0  0  0  0  0  0  0  0
  149.9238  144.0469  158.5042 H   0  0  0  0  0  0  0  0  0  0  0  0
  151.2689  143.3311  157.6296 H   0  0  0  0  0  0  0  0  0  0  0  0
  148.5582  142.3558  157.9796 H   0  0  0  0  0  0  0  0  0  0  0  0
  149.3537  139.0499  157.9608 H   0  0  0  0  0  0  0  0  0  0  0  0
  152.5502  140.7809  158.9399 H   0  0  0  0  0  0  0  0  0  0  0  0
  151.7728  140.5493  156.8836 H   0  0  0  0  0  0  0  0  0  0  0  0
  151.0595  136.8813  154.6809 H   0  0  0  0  0  0  0  0  0  0  0  0
  152.3026  137.4311  153.5482 H   0  0  0  0  0  0  0  0  0  0  0  0
  150.6284  137.9726  153.3553 H   0  0  0  0  0  0  0  0  0  0  0  0
  150.4330  142.2337  155.8913 H   0  0  0  0  0  0  0  0  0  0  0  0
  146.5669  140.3566  154.4575 H   0  0  0  0  0  0  0  0  0  0  0  0
  147.1650  140.9193  152.8901 H   0  0  0  0  0  0  0  0  0  0  0  0
  146.7494  142.0901  154.1501 H   0  0  0  0  0  0  0  0  0  0  0  0
  1  2  1  0  0  0  0
  1 28  1  0  0  0  0
  1 29  1  0  0  0  0
  1 30  1  0  0  0  0
  2  3  2  0  0  0  0
  2  4  1  0  0  0  0
  4  5  1  0  0  0  0
  5  6  1  0  0  0  0
  5 31  1  0  0  0  0
  5 32  1  0  0  0  0
  6 23  1  0  0  0  0
  6  7  1  0  0  0  0
  6 33  1  0  0  0  0
  7  8  1  0  0  0  0
  8  9  1  0  0  0  0
  8 18  1  0  0  0  0
  8 34  1  0  0  0  0
  9 16  1  0  0  0  0
  9 10  1  0  0  0  0
 10 11  2  0  0  0  0
 10 35  1  0  0  0  0
 11 12  1  0  0  0  0
 11 13  1  0  0  0  0
 13 14  2  0  0  0  0
 13 15  1  0  0  0  0
 15 16  1  0  0  0  0
 16 17  2  0  0  0  0
 18 19  1  0  0  0  0
 18 23  1  0  0  0  0
 18 36  1  0  0  0  0
 19 20  1  0  0  0  0
 20 21  1  0  0  0  0
 20 22  2  0  0  0  0
 21 37  1  0  0  0  0
 21 38  1  0  0  0  0
 21 39  1  0  0  0  0
 23 24  1  0  0  0  0
 23 40  1  0  0  0  0
 24 25  1  0  0  0  0
 25 26  1  0  0  0  0
 25 27  2  0  0  0  0
 26 41  1  0  0  0  0
 26 42  1  0  0  0  0
 26 43  1  0  0  0  0
M  CHG  1  15  -1
M  END
> <s_m_source_file>
AV-unprocessed.smi

> <i_m_source_file_index>
102

> <i_lp_mmshare_version>
43012

> <i_f3d_flags>
0

> <s_epik_input>
W0NIM11DKD1PKU9bQ0gyXVtDQEBIXTFPW0NASF0oW0NAQEhdKE9DKD1PKVtDSDNdKVtDQEhdMU9DKD1PKVtDSDNdKW4yW2NIXWMoRiljKD1PKVtuSF1jMj1P

> <s_epik_cmdline>
J2VwaWtfcHl0aG9uJywgJy1waCcsICc3LjAnLCAnLXRuJywgJzgnLCAnLW1hJywgJzIwMCcsICctbWV0YWxfYmluZGluZycsICctaW1hZScsICc8aW5maWxlLm1hZT4nLCAnLW9tYWUnLCAnPG91dGZpbGUubWFlPic=

> <r_epik_Ionization_Penalty>
1.40304

> <r_epik_Ionization_Penalty_Charging>
1.43915e-08

> <r_epik_Ionization_Penalty_Neutral>
1.40304

> <r_epik_State_Penalty>
1.48536

> <r_epik_Charging_Adjusted_Penalty>
1.48536

> <i_epik_Tot_Q>
-1

> <i_epik_Tot_abs_Q>
1

> <r_epik_Metal_State_Penalty>
0.00663881

> <b_epik_Metal_Only>
0

> <s_epik_Chemistry_Notes>
This compound has an ester and may undergo hydrolysis at high or low pH. This compound contains an acetal/aminal-like group ( X-CH(R)-Y where X, Y are N, S, or O) that may be acid/base labile, releasing an aldehyde.

> <s_lp_Force_Field>
OPLS_2005

> <r_lp_Energy>
27.0192

> <b_lp_Chiralities_Consistent>
1

> <s_lp_Variant>
AV-unprocessed.smi:102-19

> <Gold.Version>
5.8.1

> <Gold.Id.Protein>
6NUR|6NUR_protein|mol2

> <Gold.PLP.Fitness>
50.4272

> <Gold.PLP.PLP>
-42.3564

> <Gold.PLP.part.hbond>
-7.3174

> <Gold.PLP.part.metal>
0.0000

> <Gold.PLP.part.buried>
-5.4958

> <Gold.PLP.part.nonpolar>
-32.5181

> <Gold.PLP.part.repulsive>
2.6200

> <Gold.PLP.ligand.clash>
0.0000

> <Gold.PLP.ligand.torsion>
2.5335

> <Gold.PLP.Chemscore.Hbond>
4.3440

> <Gold.PLP.Chemscore.CHOScore>
0.0000

> <Gold.PLP.Chemscore.Metal>
0.0000

> <Gold.Chemscore.Hbonds>
donor molecule, donor type, donor heavy atom, donor atom, acceptor molecule, acceptor atom, score
      P1  H  6896  6909       L1    15  1.89
      P1  H  7989  7998       L1    27  0.36
      P1  H  7997  8008       L1    22  0.99
      P1  H  8011  8017       L1    27  0.93

> <Gold.PLP.Chemscore.Internal.Correction>
0.1059

> <Gold.Rescore>
     Score         DG    S(hbond)    S(metal)    S(lipo)     H(rot)  DE(clash)    DE(int)     intcor
      6.27     -12.82       3.07        0.00      62.48       4.00       1.72       4.83       ----

> <Gold.Chemscore.Fitness>
6.2746

> <Gold.Chemscore.DG>
-12.8235

> <Gold.Chemscore.ZeroCoef>
-5.4800

> <Gold.Chemscore.Hbond>
3.0720

> <Gold.Chemscore.Metal>
0.0000

> <Gold.Chemscore.Lipo>
62.4819

> <Gold.Chemscore.Internal_Hbond>
0.0000

> <Gold.Chemscore.DEClash>
1.7233

> <Gold.Chemscore.DEInternal>
4.8255

> <Gold.Chemscore.Rot>
3.9951

> <Gold.Chemscore.Internal.Correction>
   9.000000E+99

> <Gold.Chemscore.Hbonds>
donor molecule, donor type, donor heavy atom, donor atom, acceptor molecule, acceptor atom, score
      P1  H  6896  6909       L1    15  0.78
      P1  H  7989  7998       L1    27  0.35
      P1  H  7997  8008       L1    22  0.92
      P1  H  8011  8017       L1    27  0.79

> <Gold.Chemscore.Hbond.Weighted>
-10.2605

> <Gold.Chemscore.Metal.Weighted>
-0.0000

> <Gold.Chemscore.Lipo.Weighted>
-7.3104

> <Gold.Chemscore.Internal_Hbond.Weighted>
0.0000

> <Gold.Chemscore.DEClash.Weighted>
1.7233

> <Gold.Chemscore.DEInternal.Weighted>
4.8255

> <Gold.Chemscore.Rot.Weighted>
10.2274

> <Gold.Chemscore.Internal.Correction.Weighted>
   9.000000E+99

> <Gold.Protein.RotatedTorsions>
[ 6907 6896 6895 6894 ] final  150.43 input  -60.11 | X-H torsion
[ 7974 7965 7964 7962 ] final  -93.76 input  175.53 | X-H torsion
[ 8008 7997 7996 7995 ] final  -25.10 input   59.86 | X-H torsion
[ 10167 10162 10161 10158 ] final -108.65 input  -65.29 | X-H torsion
[ 10718 10713 10712 10709 ] final  -32.27 input   66.30 | X-H torsion
[ 10763 10752 10751 10750 ] final -149.28 input  -60.55 | X-H torsion
[ 11005 11000 10999 10996 ] final  -13.15 input  -57.11 | X-H torsion

> <Gold.Protein.ActiveResidues>
 VAL166  LYS551  ARG553  GLY616  TRP617  ASP618  TYR619  PRO620  LYS621  CYS622 
 ASP623  PHE694  ASN695  SER759  ASP760  ASP761  ALA762  ILE779  LEU786  VAL792 
 PHE793  MET794  SER795  GLU796  ALA797  LYS798  CYS799  TRP800  GLU811  SER814 

> <Gold.Protein.RotatedAtoms>
  152.1145  133.4319  159.4646 H   0  0  0  0  0  0  0  0  0  0  0  0  # atno 6907 bound_to 6896
  150.6869  134.2608  159.4558 H   0  0  0  0  0  0  0  0  0  0  0  0  # atno 6908 bound_to 6896
  152.0480  134.9670  160.0625 H   0  0  0  0  0  0  0  0  0  0  0  0  # atno 6909 bound_to 6896
  145.3822  140.9519  143.2387 H   0  0  0  0  0  0  0  0  0  0  0  0  # atno 7974 bound_to 7965
  154.4493  140.1935  156.0567 H   0  0  0  0  0  0  0  0  0  0  0  0  # atno 8008 bound_to 7997
  156.0614  140.3296  155.7438 H   0  0  0  0  0  0  0  0  0  0  0  0  # atno 8009 bound_to 7997
  155.5406  140.0586  157.2861 H   0  0  0  0  0  0  0  0  0  0  0  0  # atno 8010 bound_to 7997
  140.1639  143.4098  152.1405 H   0  0  0  0  0  0  0  0  0  0  0  0  # atno 10167 bound_to 10162
  156.3770  130.4349  149.7499 H   0  0  0  0  0  0  0  0  0  0  0  0  # atno 10718 bound_to 10713
  154.8186  135.3313  154.7104 H   0  0  0  0  0  0  0  0  0  0  0  0  # atno 10763 bound_to 10752
  153.7740  135.6923  153.4905 H   0  0  0  0  0  0  0  0  0  0  0  0  # atno 10764 bound_to 10752
  153.2025  135.4511  155.0232 H   0  0  0  0  0  0  0  0  0  0  0  0  # atno 10765 bound_to 10752
  140.7731  133.8422  155.9225 H   0  0  0  0  0  0  0  0  0  0  0  0  # atno 11005 bound_to 11000
  144.8499  139.5338  143.6861 LP  0  0  0  0  0  0  0  0  0  0  0  0  # atno 17320 bound_to 7965
  146.2836  139.6944  142.9211 LP  0  0  0  0  0  0  0  0  0  0  0  0  # atno 17321 bound_to 7965
  139.5368  144.7218  151.4865 LP  0  0  0  0  0  0  0  0  0  0  0  0  # atno 17342 bound_to 10162
  140.6625  143.8467  150.6904 LP  0  0  0  0  0  0  0  0  0  0  0  0  # atno 17343 bound_to 10162
  156.4605  130.7949  151.2969 LP  0  0  0  0  0  0  0  0  0  0  0  0  # atno 17370 bound_to 10713
  157.7489  131.0067  150.3163 LP  0  0  0  0  0  0  0  0  0  0  0  0  # atno 17371 bound_to 10713
  140.9555  134.1724  157.4695 LP  0  0  0  0  0  0  0  0  0  0  0  0  # atno 17394 bound_to 11000
  139.8753  134.9925  156.5600 LP  0  0  0  0  0  0  0  0  0  0  0  0  # atno 17395 bound_to 11000

$$$$
