AV-unprocessed.smi:21|AV-procd|sdf|146|dock5
  -GOLD-   2262015363D 1   1.00000     0.00000
 Structure written by MMmdl.
 62 65  0  0  0  0  0  0  0  0  2 V2000
  145.0634  130.9455  151.4599 C   0  0  0  0  0  0  0  0  0  0  0  0
  145.4977  132.2714  151.7172 O   0  0  0  0  0  0  0  0  0  0  0  0
  144.7090  133.2665  151.0776 C   0  0  2  0  0  0  0  0  0  0  0  0
  145.1253  134.6342  151.6009 C   0  0  0  0  0  0  0  0  0  0  0  0
  144.3825  134.7672  152.9376 C   0  0  1  0  0  0  0  0  0  0  0  0
  144.1720  136.2310  153.4000 C   0  0  0  0  0  0  0  0  0  0  0  0
  145.0399  136.5978  154.5214 N   0  0  0  0  0  0  0  0  0  0  0  0
  145.3377  135.5816  155.5230 C   0  0  0  0  0  0  0  0  0  0  0  0
  145.8295  137.7037  154.4256 C   0  0  0  0  0  0  0  0  0  0  0  0
  146.2020  138.1165  153.1848 N   0  0  0  0  0  0  0  0  0  0  0  0
  146.9850  139.1862  153.0257 C   0  0  0  0  0  0  0  0  0  0  0  0
  147.5081  139.9804  153.9590 N   0  0  0  0  0  0  0  0  0  0  0  0
  147.1424  139.5797  155.2091 C   0  0  0  0  0  0  0  0  0  0  0  0
  146.3162  138.4639  155.5332 C   0  0  0  0  0  0  0  0  0  0  0  0
  146.1953  138.3668  156.9160 N   0  0  0  0  0  0  0  0  0  0  0  0
  146.8944  139.3663  157.3778 C   0  0  0  0  0  0  0  0  0  0  0  0
  147.4839  140.1573  156.4196 N   0  0  0  0  0  0  0  0  0  0  0  0
  148.3222  141.3204  156.6518 C   0  0  0  0  0  0  0  0  0  0  0  0
  149.7675  140.9982  157.1151 C   0  0  2  0  0  0  0  0  0  0  0  0
  150.3686  142.2423  157.8097 C   0  0  0  0  0  0  0  0  0  0  0  0
  150.6769  143.2617  156.8808 O   0  0  0  0  0  0  0  0  0  0  0  0
  150.6915  140.4335  155.9964 C   0  0  1  0  0  0  0  0  0  0  0  0
  151.9966  139.8321  156.4946 C   0  0  0  0  0  0  0  0  0  0  0  0
  152.4399  138.9942  155.3047 C   0  0  0  0  0  0  0  0  0  0  0  0
  151.2363  138.4487  154.7865 O   0  0  0  0  0  0  0  0  0  0  0  0
  150.1294  139.2458  155.1977 C   0  0  0  0  0  0  0  0  0  0  0  0
  143.1455  133.9452  152.7907 N   0  3  1  0  0  0  0  0  0  0  0  0
  141.8401  134.6276  152.9554 C   0  0  0  0  0  0  0  0  0  0  0  0
  143.2461  133.1821  151.5240 C   0  0  0  0  0  0  0  0  0  0  0  0
  144.8209  133.2128  149.9932 H   0  0  0  0  0  0  0  0  0  0  0  0
  144.9729  134.2514  153.6962 H   0  0  0  0  0  0  0  0  0  0  0  0
  145.7104  130.2430  151.9848 H   0  0  0  0  0  0  0  0  0  0  0  0
  145.1157  130.7155  150.3950 H   0  0  0  0  0  0  0  0  0  0  0  0
  144.0423  130.7785  151.8029 H   0  0  0  0  0  0  0  0  0  0  0  0
  146.2065  134.7372  151.7019 H   0  0  0  0  0  0  0  0  0  0  0  0
  144.7826  135.4024  150.9065 H   0  0  0  0  0  0  0  0  0  0  0  0
  144.2907  136.9200  152.5641 H   0  0  0  0  0  0  0  0  0  0  0  0
  143.1452  136.3607  153.7420 H   0  0  0  0  0  0  0  0  0  0  0  0
  145.5536  136.0376  156.4899 H   0  0  0  0  0  0  0  0  0  0  0  0
  146.1925  134.9774  155.2186 H   0  0  0  0  0  0  0  0  0  0  0  0
  144.4862  134.9139  155.6586 H   0  0  0  0  0  0  0  0  0  0  0  0
  147.2270  139.4416  152.0046 H   0  0  0  0  0  0  0  0  0  0  0  0
  146.9920  139.5586  158.4366 H   0  0  0  0  0  0  0  0  0  0  0  0
  148.3458  141.9145  155.7374 H   0  0  0  0  0  0  0  0  0  0  0  0
  147.8198  141.9333  157.4011 H   0  0  0  0  0  0  0  0  0  0  0  0
  149.7003  140.2351  157.8909 H   0  0  0  0  0  0  0  0  0  0  0  0
  149.6693  142.6424  158.5443 H   0  0  0  0  0  0  0  0  0  0  0  0
  151.2718  141.9866  158.3634 H   0  0  0  0  0  0  0  0  0  0  0  0
  149.8698  143.5897  156.5150 H   0  0  0  0  0  0  0  0  0  0  0  0
  150.9379  141.2336  155.2963 H   0  0  0  0  0  0  0  0  0  0  0  0
  152.7384  140.5816  156.7717 H   0  0  0  0  0  0  0  0  0  0  0  0
  151.8180  139.1887  157.3575 H   0  0  0  0  0  0  0  0  0  0  0  0
  152.8994  139.6253  154.5427 H   0  0  0  0  0  0  0  0  0  0  0  0
  153.1506  138.2140  155.5778 H   0  0  0  0  0  0  0  0  0  0  0  0
  149.4804  138.6249  155.8162 H   0  0  0  0  0  0  0  0  0  0  0  0
  149.5599  139.5673  154.3267 H   0  0  0  0  0  0  0  0  0  0  0  0
  141.7092  135.4215  152.2190 H   0  0  0  0  0  0  0  0  0  0  0  0
  141.7385  135.0520  153.9542 H   0  0  0  0  0  0  0  0  0  0  0  0
  141.0266  133.9130  152.8256 H   0  0  0  0  0  0  0  0  0  0  0  0
  142.6242  133.6583  150.7640 H   0  0  0  0  0  0  0  0  0  0  0  0
  142.8838  132.1616  151.6453 H   0  0  0  0  0  0  0  0  0  0  0  0
  143.1960  133.2611  153.5323 H   0  0  0  0  0  0  0  0  0  0  0  0
  1  2  1  0  0  0  0
  1 32  1  0  0  0  0
  1 33  1  0  0  0  0
  1 34  1  0  0  0  0
  2  3  1  0  0  0  0
  3 30  1  0  0  0  0
  3 29  1  0  0  0  0
  3  4  1  0  0  0  0
  4  5  1  0  0  0  0
  4 35  1  0  0  0  0
  4 36  1  0  0  0  0
  5 31  1  0  0  0  0
  5  6  1  0  0  0  0
  5 27  1  0  0  0  0
  6  7  1  0  0  0  0
  6 37  1  0  0  0  0
  6 38  1  0  0  0  0
  7  8  1  0  0  0  0
  7  9  1  0  0  0  0
  8 39  1  0  0  0  0
  8 40  1  0  0  0  0
  8 41  1  0  0  0  0
  9 14  1  0  0  0  0
  9 10  2  0  0  0  0
 10 11  1  0  0  0  0
 11 12  2  0  0  0  0
 11 42  1  0  0  0  0
 12 13  1  0  0  0  0
 13 17  1  0  0  0  0
 13 14  2  0  0  0  0
 14 15  1  0  0  0  0
 15 16  2  0  0  0  0
 16 17  1  0  0  0  0
 16 43  1  0  0  0  0
 17 18  1  0  0  0  0
 18 19  1  0  0  0  0
 18 44  1  0  0  0  0
 18 45  1  0  0  0  0
 19 20  1  0  0  0  0
 19 22  1  0  0  0  0
 19 46  1  0  0  0  0
 20 21  1  0  0  0  0
 20 47  1  0  0  0  0
 20 48  1  0  0  0  0
 21 49  1  0  0  0  0
 22 26  1  0  0  0  0
 22 23  1  0  0  0  0
 22 50  1  0  0  0  0
 23 24  1  0  0  0  0
 23 51  1  0  0  0  0
 23 52  1  0  0  0  0
 24 25  1  0  0  0  0
 24 53  1  0  0  0  0
 24 54  1  0  0  0  0
 25 26  1  0  0  0  0
 26 55  1  0  0  0  0
 26 56  1  0  0  0  0
 27 28  1  0  0  0  0
 27 29  1  0  0  0  0
 27 62  1  0  0  0  0
 28 57  1  0  0  0  0
 28 58  1  0  0  0  0
 28 59  1  0  0  0  0
 29 60  1  0  0  0  0
 29 61  1  0  0  0  0
M  CHG  1  27   1
M  END
> <s_m_source_file>
AV-unprocessed.smi

> <i_m_source_file_index>
21

> <i_lp_mmshare_version>
43012

> <i_f3d_flags>
0

> <s_epik_input>
W0NIM11PW0NASF0xW0NIMl1bQ0BIXShOKFtDSDNdKVtDSDJdMSlbQ0gyXU4oW0NIM10pYyhuW2NIXW4yKWMoYzIzKW5bY0hdbjNbQ0gyXVtDQEhdKFtDSDJdW09IXSlbQ0BASF00W0NIMl1bQ0gyXU9bQ0gyXTQ=

> <s_epik_cmdline>
J2VwaWtfcHl0aG9uJywgJy1waCcsICc3LjAnLCAnLXRuJywgJzgnLCAnLW1hJywgJzIwMCcsICctbWV0YWxfYmluZGluZycsICctaW1hZScsICc8aW5maWxlLm1hZT4nLCAnLW9tYWUnLCAnPG91dGZpbGUubWFlPic=

> <r_lp_tautomer_probability>
1

> <r_epik_Ionization_Penalty>
0.0157465

> <r_epik_Ionization_Penalty_Charging>
0.015354

> <r_epik_Ionization_Penalty_Neutral>
0.000392529

> <r_epik_State_Penalty>
0.0120612

> <r_epik_Charging_Adjusted_Penalty>
0.0274152

> <i_epik_Tot_Q>
1

> <i_epik_Tot_abs_Q>
1

> <r_epik_Metal_State_Penalty>
0.0121253

> <b_epik_Metal_Only>
0

> <s_lp_Force_Field>
OPLS_2005

> <r_lp_Energy>
61.785

> <b_lp_Chiralities_Consistent>
1

> <s_lp_Variant>
AV-unprocessed.smi:21-26

> <Gold.Version>
5.8.1

> <Gold.Id.Protein>
6NUR|6NUR_protein|mol2

> <Gold.PLP.Fitness>
46.1677

> <Gold.PLP.PLP>
-37.8738

> <Gold.PLP.part.hbond>
-2.0000

> <Gold.PLP.part.metal>
0.0000

> <Gold.PLP.part.buried>
-5.9504

> <Gold.PLP.part.nonpolar>
-30.4049

> <Gold.PLP.part.repulsive>
0.6870

> <Gold.PLP.ligand.clash>
0.0000

> <Gold.PLP.ligand.torsion>
1.8789

> <Gold.PLP.Chemscore.Hbond>
3.0000

> <Gold.PLP.Chemscore.CHOScore>
0.7819

> <Gold.PLP.Chemscore.Metal>
0.0000

> <Gold.Chemscore.Hbonds>
donor molecule, donor type, donor heavy atom, donor atom, acceptor molecule, acceptor atom, score
      L1  H    21    49       P1  8028  1.00
      L1  H    27    62       P1 10957  2.00
      L1  C    11    42       P1  7957  0.84

> <Gold.PLP.Chemscore.Internal.Correction>
0.7058

> <Gold.Rescore>
     Score         DG    S(hbond)    S(metal)    S(lipo)     H(rot)  DE(clash)    DE(int)     intcor
     12.30     -14.23       1.99        0.00      85.34       3.08       0.01       1.92       ----

> <Gold.Chemscore.Fitness>
12.2972

> <Gold.Chemscore.DG>
-14.2254

> <Gold.Chemscore.ZeroCoef>
-5.4800

> <Gold.Chemscore.Hbond>
1.9864

> <Gold.Chemscore.Metal>
0.0000

> <Gold.Chemscore.Lipo>
85.3408

> <Gold.Chemscore.Internal_Hbond>
0.0000

> <Gold.Chemscore.DEClash>
0.0068

> <Gold.Chemscore.DEInternal>
1.9215

> <Gold.Chemscore.Rot>
3.0758

> <Gold.Chemscore.Internal.Correction>
   9.000000E+99

> <Gold.Chemscore.Hbonds>
donor molecule, donor type, donor heavy atom, donor atom, acceptor molecule, acceptor atom, score
      L1  H    21    49       P1  8028  0.98
      L1  H    27    62       P1 10957  0.92

> <Gold.Chemscore.Hbond.Weighted>
-6.6347

> <Gold.Chemscore.Metal.Weighted>
-0.0000

> <Gold.Chemscore.Lipo.Weighted>
-9.9849

> <Gold.Chemscore.Internal_Hbond.Weighted>
0.0000

> <Gold.Chemscore.DEClash.Weighted>
0.0068

> <Gold.Chemscore.DEInternal.Weighted>
1.9215

> <Gold.Chemscore.Rot.Weighted>
7.8741

> <Gold.Chemscore.Internal.Correction.Weighted>
   9.000000E+99

> <Gold.Protein.RotatedTorsions>
[ 6907 6896 6895 6894 ] final   66.04 input  -60.11 | X-H torsion
[ 7974 7965 7964 7962 ] final  -20.34 input  175.53 | X-H torsion
[ 8008 7997 7996 7995 ] final   90.69 input   59.86 | X-H torsion
[ 10167 10162 10161 10158 ] final -142.29 input  -65.29 | X-H torsion
[ 10718 10713 10712 10709 ] final   -0.34 input   66.30 | X-H torsion
[ 10763 10752 10751 10750 ] final   83.44 input  -60.55 | X-H torsion
[ 11005 11000 10999 10996 ] final -113.90 input  -57.11 | X-H torsion

> <Gold.Protein.ActiveResidues>
 VAL166  LYS551  ARG553  GLY616  TRP617  ASP618  TYR619  PRO620  LYS621  CYS622 
 ASP623  PHE694  ASN695  SER759  ASP760  ASP761  ALA762  ILE779  LEU786  VAL792 
 PHE793  MET794  SER795  GLU796  ALA797  LYS798  CYS799  TRP800  GLU811  SER814 

> <Gold.Protein.RotatedAtoms>
  152.4452  134.5509  159.9866 H   0  0  0  0  0  0  0  0  0  0  0  0  # atno 6907 bound_to 6896
  151.5596  133.3399  159.2976 H   0  0  0  0  0  0  0  0  0  0  0  0  # atno 6908 bound_to 6896
  150.8367  134.7675  159.6962 H   0  0  0  0  0  0  0  0  0  0  0  0  # atno 6909 bound_to 6896
  146.1793  140.4188  142.8501 H   0  0  0  0  0  0  0  0  0  0  0  0  # atno 7974 bound_to 7965
  156.0150  140.3346  155.6979 H   0  0  0  0  0  0  0  0  0  0  0  0  # atno 8008 bound_to 7997
  155.6104  140.0664  157.2725 H   0  0  0  0  0  0  0  0  0  0  0  0  # atno 8009 bound_to 7997
  154.4295  140.1794  156.1254 H   0  0  0  0  0  0  0  0  0  0  0  0  # atno 8010 bound_to 7997
  139.8103  143.7712  152.2663 H   0  0  0  0  0  0  0  0  0  0  0  0  # atno 10167 bound_to 10162
  156.8219  130.5459  149.5696 H   0  0  0  0  0  0  0  0  0  0  0  0  # atno 10718 bound_to 10713
  153.1291  135.4691  154.9320 H   0  0  0  0  0  0  0  0  0  0  0  0  # atno 10763 bound_to 10752
  154.7647  135.3141  154.8311 H   0  0  0  0  0  0  0  0  0  0  0  0  # atno 10764 bound_to 10752
  153.8858  135.6890  153.4817 H   0  0  0  0  0  0  0  0  0  0  0  0  # atno 10765 bound_to 10752
  141.0585  133.9573  157.2709 H   0  0  0  0  0  0  0  0  0  0  0  0  # atno 11005 bound_to 11000
  144.8289  140.6674  143.6304 LP  0  0  0  0  0  0  0  0  0  0  0  0  # atno 17320 bound_to 7965
  145.4121  139.1578  143.4120 LP  0  0  0  0  0  0  0  0  0  0  0  0  # atno 17321 bound_to 7965
  139.7859  144.7428  151.0022 LP  0  0  0  0  0  0  0  0  0  0  0  0  # atno 17342 bound_to 10162
  140.7818  143.4493  151.0437 LP  0  0  0  0  0  0  0  0  0  0  0  0  # atno 17343 bound_to 10162
  156.0984  130.5950  150.9852 LP  0  0  0  0  0  0  0  0  0  0  0  0  # atno 17370 bound_to 10713
  157.6452  131.0905  150.8168 LP  0  0  0  0  0  0  0  0  0  0  0  0  # atno 17371 bound_to 10713
  139.9412  135.0191  156.8712 LP  0  0  0  0  0  0  0  0  0  0  0  0  # atno 17394 bound_to 11000
  140.5915  134.0257  155.7501 LP  0  0  0  0  0  0  0  0  0  0  0  0  # atno 17395 bound_to 11000

$$$$
