AV-unprocessed.smi:946|AV-procd|sdf|4234|dock8
  -GOLD-   22720 2143D 1   1.00000     0.00000
 Structure written by MMmdl.
 42 43  0  0  0  0  0  0  0  0  1 V2000
  151.5439  138.3202  154.0442 C   0  0  0  0  0  0  0  0  0  0  0  0
  150.7594  139.1528  155.0691 C   0  0  2  0  0  0  0  0  0  0  0  0
  150.1031  140.1993  154.3592 O   0  0  0  0  0  0  0  0  0  0  0  0
  148.7502  139.9403  154.0022 C   0  0  0  0  0  0  0  0  0  0  0  0
  147.8631  141.0310  154.6157 C   0  0  2  0  0  0  0  0  0  0  0  0
  147.5452  140.7498  156.0976 C   0  0  0  0  0  0  0  0  0  0  0  0
  146.5844  141.8076  156.6532 C   0  0  0  0  0  0  0  0  0  0  0  0
  145.3478  141.9067  155.7536 C   0  0  0  0  0  0  0  0  0  0  0  0
  145.7685  142.1184  154.2910 C   0  0  0  0  0  0  0  0  0  0  0  0
  146.6400  141.0686  153.8830 O   0  0  0  0  0  0  0  0  0  0  0  0
  151.6866  139.7386  156.1464 C   0  0  0  0  0  0  0  0  0  0  0  0
  152.8886  139.4712  156.1279 O   0  0  0  0  0  0  0  0  0  0  0  0
  151.0965  140.5427  157.0509 N   0  0  0  0  0  0  0  0  0  0  0  0
  151.6909  141.2078  158.1555 C   0  0  0  0  0  0  0  0  0  0  0  0
  152.7345  140.5001  158.7915 C   0  0  0  0  0  0  0  0  0  0  0  0
  153.3887  141.0777  159.8959 C   0  0  0  0  0  0  0  0  0  0  0  0
  152.9849  142.3504  160.3363 C   0  0  0  0  0  0  0  0  0  0  0  0
  151.9359  142.9950  159.6467 C   0  0  0  0  0  0  0  0  0  0  0  0
  151.4404  144.3751  160.0552 C   0  0  0  0  0  0  0  0  0  0  0  0
  151.9739  144.7687  161.2125 F   0  0  0  0  0  0  0  0  0  0  0  0
  151.7658  145.2648  159.1170 F   0  0  0  0  0  0  0  0  0  0  0  0
  150.1140  144.3557  160.1876 F   0  0  0  0  0  0  0  0  0  0  0  0
  151.3100  142.4352  158.5868 N   0  0  0  0  0  0  0  0  0  0  0  0
  152.0934  137.5112  154.5271 H   0  0  0  0  0  0  0  0  0  0  0  0
  152.2603  138.9313  153.4937 H   0  0  0  0  0  0  0  0  0  0  0  0
  150.8688  137.8704  153.3158 H   0  0  0  0  0  0  0  0  0  0  0  0
  150.0140  138.5038  155.5334 H   0  0  0  0  0  0  0  0  0  0  0  0
  148.6323  139.9208  152.9175 H   0  0  0  0  0  0  0  0  0  0  0  0
  148.4434  138.9657  154.3832 H   0  0  0  0  0  0  0  0  0  0  0  0
  148.3734  141.9922  154.5309 H   0  0  0  0  0  0  0  0  0  0  0  0
  147.0956  139.7610  156.1971 H   0  0  0  0  0  0  0  0  0  0  0  0
  148.4629  140.7365  156.6865 H   0  0  0  0  0  0  0  0  0  0  0  0
  146.2943  141.5619  157.6752 H   0  0  0  0  0  0  0  0  0  0  0  0
  147.0878  142.7743  156.6928 H   0  0  0  0  0  0  0  0  0  0  0  0
  144.7604  140.9913  155.8343 H   0  0  0  0  0  0  0  0  0  0  0  0
  144.7044  142.7223  156.0844 H   0  0  0  0  0  0  0  0  0  0  0  0
  144.8906  142.1188  153.6449 H   0  0  0  0  0  0  0  0  0  0  0  0
  146.2591  143.0843  154.1615 H   0  0  0  0  0  0  0  0  0  0  0  0
  150.1062  140.6970  156.9310 H   0  0  0  0  0  0  0  0  0  0  0  0
  153.0335  139.5229  158.4408 H   0  0  0  0  0  0  0  0  0  0  0  0
  154.1879  140.5518  160.3969 H   0  0  0  0  0  0  0  0  0  0  0  0
  153.4729  142.8133  161.1814 H   0  0  0  0  0  0  0  0  0  0  0  0
  1  2  1  0  0  0  0
  1 24  1  0  0  0  0
  1 25  1  0  0  0  0
  1 26  1  0  0  0  0
  2  3  1  0  0  0  0
  2 11  1  0  0  0  0
  2 27  1  0  0  0  0
  3  4  1  0  0  0  0
  4  5  1  0  0  0  0
  4 28  1  0  0  0  0
  4 29  1  0  0  0  0
  5 10  1  0  0  0  0
  5  6  1  0  0  0  0
  5 30  1  0  0  0  0
  6  7  1  0  0  0  0
  6 31  1  0  0  0  0
  6 32  1  0  0  0  0
  7  8  1  0  0  0  0
  7 33  1  0  0  0  0
  7 34  1  0  0  0  0
  8  9  1  0  0  0  0
  8 35  1  0  0  0  0
  8 36  1  0  0  0  0
  9 10  1  0  0  0  0
  9 37  1  0  0  0  0
  9 38  1  0  0  0  0
 11 12  2  0  0  0  0
 11 13  1  0  0  0  0
 13 14  1  0  0  0  0
 13 39  1  0  0  0  0
 14 23  1  0  0  0  0
 14 15  2  0  0  0  0
 15 16  1  0  0  0  0
 15 40  1  0  0  0  0
 16 17  2  0  0  0  0
 16 41  1  0  0  0  0
 17 18  1  0  0  0  0
 17 42  1  0  0  0  0
 18 19  1  0  0  0  0
 18 23  2  0  0  0  0
 19 20  1  0  0  0  0
 19 21  1  0  0  0  0
 19 22  1  0  0  0  0
M  END
> <s_m_source_file>
AV-unprocessed.smi

> <i_m_source_file_index>
946

> <i_lp_mmshare_version>
43012

> <i_f3d_flags>
0

> <s_epik_input>
TzFbQ0gyXVtDSDJdW0NIMl1bQ0gyXVtDQEhdMVtDSDJdT1tDQEBIXShbQ0gzXSlDKD1PKVtOSF1jMltjSF1bY0hdW2NIXWMobjIpQyhGKShGKUY=

> <s_epik_cmdline>
J2VwaWtfcHl0aG9uJywgJy1waCcsICc3LjAnLCAnLXRuJywgJzgnLCAnLW1hJywgJzIwMCcsICctbWV0YWxfYmluZGluZycsICctaW1hZScsICc8aW5maWxlLm1hZT4nLCAnLW9tYWUnLCAnPG91dGZpbGUubWFlPic=

> <r_lp_tautomer_probability>
1

> <r_epik_Ionization_Penalty>
1.32683e-06

> <r_epik_Ionization_Penalty_Charging>
0

> <r_epik_Ionization_Penalty_Neutral>
1.32683e-06

> <r_epik_State_Penalty>
-0

> <r_epik_Charging_Adjusted_Penalty>
0

> <i_epik_Tot_Q>
0

> <i_epik_Tot_abs_Q>
0

> <r_epik_Metal_State_Penalty>
-0

> <b_epik_Metal_Only>
0

> <s_lp_Force_Field>
OPLS_2005

> <r_lp_Energy>
15.1486

> <b_lp_Chiralities_Consistent>
1

> <s_lp_Variant>
AV-unprocessed.smi:946-1

> <Gold.Version>
5.8.1

> <Gold.Id.Protein>
6NUR|6NUR_protein|mol2

> <Gold.PLP.Fitness>
53.4151

> <Gold.PLP.PLP>
-50.5601

> <Gold.PLP.part.hbond>
-2.0000

> <Gold.PLP.part.metal>
0.0000

> <Gold.PLP.part.buried>
-4.7914

> <Gold.PLP.part.nonpolar>
-43.0428

> <Gold.PLP.part.repulsive>
0.4180

> <Gold.PLP.ligand.clash>
0.0000

> <Gold.PLP.ligand.torsion>
1.5855

> <Gold.PLP.Chemscore.Hbond>
2.0000

> <Gold.PLP.Chemscore.CHOScore>
0.0000

> <Gold.PLP.Chemscore.Metal>
0.0000

> <Gold.Chemscore.Hbonds>
donor molecule, donor type, donor heavy atom, donor atom, acceptor molecule, acceptor atom, score
      P1  H  7989  7998       L1     3  0.84
      P1  H  7997  8008       L1    12  1.00

> <Gold.PLP.Chemscore.Internal.Correction>
0.0259

> <Gold.Rescore>
     Score         DG    S(hbond)    S(metal)    S(lipo)     H(rot)  DE(clash)    DE(int)     intcor
     14.84     -18.62       1.86        0.00      97.67       1.76       0.69       3.09       ----

> <Gold.Chemscore.Fitness>
14.8393

> <Gold.Chemscore.DG>
-18.6202

> <Gold.Chemscore.ZeroCoef>
-5.4800

> <Gold.Chemscore.Hbond>
1.8585

> <Gold.Chemscore.Metal>
0.0000

> <Gold.Chemscore.Lipo>
97.6703

> <Gold.Chemscore.Internal_Hbond>
0.0000

> <Gold.Chemscore.DEClash>
0.6918

> <Gold.Chemscore.DEInternal>
3.0891

> <Gold.Chemscore.Rot>
1.7557

> <Gold.Chemscore.Internal.Correction>
   9.000000E+99

> <Gold.Chemscore.Hbonds>
donor molecule, donor type, donor heavy atom, donor atom, acceptor molecule, acceptor atom, score
      P1  H  7989  7998       L1     3  0.14
      P1  H  7997  8008       L1    12  0.99

> <Gold.Chemscore.Hbond.Weighted>
-6.2074

> <Gold.Chemscore.Metal.Weighted>
-0.0000

> <Gold.Chemscore.Lipo.Weighted>
-11.4274

> <Gold.Chemscore.Internal_Hbond.Weighted>
0.0000

> <Gold.Chemscore.DEClash.Weighted>
0.6918

> <Gold.Chemscore.DEInternal.Weighted>
3.0891

> <Gold.Chemscore.Rot.Weighted>
4.4946

> <Gold.Chemscore.Internal.Correction.Weighted>
   9.000000E+99

> <Gold.Protein.RotatedTorsions>
[ 6907 6896 6895 6894 ] final   78.84 input  -60.11 | X-H torsion
[ 7974 7965 7964 7962 ] final  -54.53 input  175.53 | X-H torsion
[ 8008 7997 7996 7995 ] final  -29.38 input   59.86 | X-H torsion
[ 10167 10162 10161 10158 ] final   22.24 input  -65.29 | X-H torsion
[ 10718 10713 10712 10709 ] final   66.05 input   66.30 | X-H torsion
[ 10763 10752 10751 10750 ] final    4.02 input  -60.55 | X-H torsion
[ 11005 11000 10999 10996 ] final  -75.02 input  -57.11 | X-H torsion

> <Gold.Protein.ActiveResidues>
 VAL166  LYS551  ARG553  GLY616  TRP617  ASP618  TYR619  PRO620  LYS621  CYS622 
 ASP623  PHE694  ASN695  SER759  ASP760  ASP761  ALA762  ILE779  LEU786  VAL792 
 PHE793  MET794  SER795  GLU796  ALA797  LYS798  CYS799  TRP800  GLU811  SER814 

> <Gold.Protein.RotatedAtoms>
  152.5175  134.3603  159.9282 H   0  0  0  0  0  0  0  0  0  0  0  0  # atno 6907 bound_to 6896
  151.3555  133.3903  159.2692 H   0  0  0  0  0  0  0  0  0  0  0  0  # atno 6908 bound_to 6896
  150.9693  134.9087  159.7836 H   0  0  0  0  0  0  0  0  0  0  0  0  # atno 6909 bound_to 6896
  145.8846  140.8118  142.9822 H   0  0  0  0  0  0  0  0  0  0  0  0  # atno 7974 bound_to 7965
  154.4292  140.1820  156.1238 H   0  0  0  0  0  0  0  0  0  0  0  0  # atno 8008 bound_to 7997
  156.0122  140.3349  155.6927 H   0  0  0  0  0  0  0  0  0  0  0  0  # atno 8009 bound_to 7997
  155.6095  140.0648  157.2701 H   0  0  0  0  0  0  0  0  0  0  0  0  # atno 8010 bound_to 7997
  140.5364  143.9754  150.6494 H   0  0  0  0  0  0  0  0  0  0  0  0  # atno 10167 bound_to 10162
  157.6144  130.9247  150.0057 H   0  0  0  0  0  0  0  0  0  0  0  0  # atno 10718 bound_to 10713
  153.2763  135.6936  153.7430 H   0  0  0  0  0  0  0  0  0  0  0  0  # atno 10763 bound_to 10752
  153.6435  135.3389  155.3079 H   0  0  0  0  0  0  0  0  0  0  0  0  # atno 10764 bound_to 10752
  154.8480  135.4437  154.1801 H   0  0  0  0  0  0  0  0  0  0  0  0  # atno 10765 bound_to 10752
  141.1641  133.6932  156.7453 H   0  0  0  0  0  0  0  0  0  0  0  0  # atno 11005 bound_to 11000
  144.6728  140.1435  143.7435 LP  0  0  0  0  0  0  0  0  0  0  0  0  # atno 17320 bound_to 7965
  145.8983  139.2415  143.1509 LP  0  0  0  0  0  0  0  0  0  0  0  0  # atno 17321 bound_to 7965
  140.3142  143.3178  152.0848 LP  0  0  0  0  0  0  0  0  0  0  0  0  # atno 17342 bound_to 10162
  139.4972  144.6616  151.6451 LP  0  0  0  0  0  0  0  0  0  0  0  0  # atno 17343 bound_to 10162
  156.1260  130.3644  149.9809 LP  0  0  0  0  0  0  0  0  0  0  0  0  # atno 17370 bound_to 10713
  156.7879  130.9245  151.3646 LP  0  0  0  0  0  0  0  0  0  0  0  0  # atno 17371 bound_to 10713
  140.2644  134.8441  157.3789 LP  0  0  0  0  0  0  0  0  0  0  0  0  # atno 17394 bound_to 11000
  140.1580  134.4764  155.7914 LP  0  0  0  0  0  0  0  0  0  0  0  0  # atno 17395 bound_to 11000

$$$$
