AV-unprocessed.smi:3154|AV-procd|sdf|12024|dock8
  -GOLD-   2272017443D 1   1.00000     0.00000
 Structure written by MMmdl.
 34 35  0  0  0  0  0  0  0  0  1 V2000
  145.5472  136.2386  150.4856 C   0  0  0  0  0  0  0  0  0  0  0  0
  145.4514  135.6086  151.8860 C   0  0  1  0  0  0  0  0  0  0  0  0
  145.9612  134.1471  151.9204 C   0  0  0  0  0  0  0  0  0  0  0  0
  145.2368  133.2721  151.0157 N   0  0  0  0  0  0  0  0  0  0  0  0
  145.7432  132.3411  150.1333 C   0  0  0  0  0  0  0  0  0  0  0  0
  144.6809  131.7561  149.5055 C   0  0  0  0  0  0  0  0  0  0  0  0
  143.5510  132.3988  150.0841 C   0  0  0  0  0  0  0  0  0  0  0  0
  143.8865  133.3021  150.9909 N   0  0  0  0  0  0  0  0  0  0  0  0
  146.2239  136.4534  152.7918 N   0  0  0  0  0  0  0  0  0  0  0  0
  145.8009  137.8595  152.7596 C   0  0  0  0  0  0  0  0  0  0  0  0
  146.7151  138.7289  153.6194 C   0  0  0  0  0  0  0  0  0  0  0  0
  147.7552  138.2600  154.0812 O   0  0  0  0  0  0  0  0  0  0  0  0
  146.3140  139.9928  153.8217 N   0  0  0  0  0  0  0  0  0  0  0  0
  147.0144  140.9734  154.5859 C   0  0  0  0  0  0  0  0  0  0  0  0
  147.1709  142.3530  153.9842 C   0  0  0  0  0  0  0  0  0  0  0  0
  148.3599  141.4360  154.0695 C   0  0  0  0  0  0  0  0  0  0  0  0
  144.9190  135.7123  149.7667 H   0  0  0  0  0  0  0  0  0  0  0  0
  146.5707  136.2182  150.1094 H   0  0  0  0  0  0  0  0  0  0  0  0
  145.2166  137.2779  150.4966 H   0  0  0  0  0  0  0  0  0  0  0  0
  144.4023  135.6361  152.1849 H   0  0  0  0  0  0  0  0  0  0  0  0
  147.0185  134.1126  151.6534 H   0  0  0  0  0  0  0  0  0  0  0  0
  145.8796  133.7229  152.9209 H   0  0  0  0  0  0  0  0  0  0  0  0
  146.8050  132.1762  150.0247 H   0  0  0  0  0  0  0  0  0  0  0  0
  144.7066  130.9851  148.7496 H   0  0  0  0  0  0  0  0  0  0  0  0
  142.5040  132.2360  149.8748 H   0  0  0  0  0  0  0  0  0  0  0  0
  147.1996  136.3713  152.5449 H   0  0  0  0  0  0  0  0  0  0  0  0
  145.8114  138.2304  151.7334 H   0  0  0  0  0  0  0  0  0  0  0  0
  144.7812  137.9614  153.1299 H   0  0  0  0  0  0  0  0  0  0  0  0
  145.4435  140.2828  153.4002 H   0  0  0  0  0  0  0  0  0  0  0  0
  146.9064  140.9345  155.6689 H   0  0  0  0  0  0  0  0  0  0  0  0
  146.7438  142.5311  152.9990 H   0  0  0  0  0  0  0  0  0  0  0  0
  147.1417  143.2021  154.6640 H   0  0  0  0  0  0  0  0  0  0  0  0
  149.1251  141.6729  154.8060 H   0  0  0  0  0  0  0  0  0  0  0  0
  148.7263  141.0017  153.1413 H   0  0  0  0  0  0  0  0  0  0  0  0
  1  2  1  0  0  0  0
  1 17  1  0  0  0  0
  1 18  1  0  0  0  0
  1 19  1  0  0  0  0
  2  3  1  0  0  0  0
  2  9  1  0  0  0  0
  2 20  1  0  0  0  0
  3  4  1  0  0  0  0
  3 21  1  0  0  0  0
  3 22  1  0  0  0  0
  4  8  1  0  0  0  0
  4  5  1  0  0  0  0
  5  6  2  0  0  0  0
  5 23  1  0  0  0  0
  6  7  1  0  0  0  0
  6 24  1  0  0  0  0
  7  8  2  0  0  0  0
  7 25  1  0  0  0  0
  9 10  1  0  0  0  0
  9 26  1  0  0  0  0
 10 11  1  0  0  0  0
 10 27  1  0  0  0  0
 10 28  1  0  0  0  0
 11 12  2  0  0  0  0
 11 13  1  0  0  0  0
 13 14  1  0  0  0  0
 13 29  1  0  0  0  0
 14 16  1  0  0  0  0
 14 15  1  0  0  0  0
 14 30  1  0  0  0  0
 15 16  1  0  0  0  0
 15 31  1  0  0  0  0
 15 32  1  0  0  0  0
 16 33  1  0  0  0  0
 16 34  1  0  0  0  0
M  END
> <s_m_source_file>
AV-unprocessed.smi

> <i_m_source_file_index>
3154

> <i_lp_mmshare_version>
43012

> <i_f3d_flags>
0

> <s_epik_input>
bjFbY0hdW2NIXVtjSF1uMVtDSDJdW0NAQEhdKFtDSDNdKVtOSF1bQ0gyXUMoPU8pW05IXVtDSF0yW0NIMl1bQ0gyXTI=

> <s_epik_cmdline>
J2VwaWtfcHl0aG9uJywgJy1waCcsICc3LjAnLCAnLXRuJywgJzgnLCAnLW1hJywgJzIwMCcsICctbWV0YWxfYmluZGluZycsICctaW1hZScsICc8aW5maWxlLm1hZT4nLCAnLW9tYWUnLCAnPG91dGZpbGUubWFlPic=

> <r_lp_tautomer_probability>
1

> <r_epik_Ionization_Penalty>
1.00229

> <r_epik_Ionization_Penalty_Charging>
0

> <r_epik_Ionization_Penalty_Neutral>
1.00229

> <r_epik_State_Penalty>
1.0509

> <r_epik_Charging_Adjusted_Penalty>
1.0509

> <i_epik_Tot_Q>
0

> <i_epik_Tot_abs_Q>
0

> <r_epik_Metal_State_Penalty>
1.05084

> <b_epik_Metal_Only>
0

> <s_lp_Force_Field>
OPLS_2005

> <r_lp_Energy>
18.1237

> <b_lp_Chiralities_Consistent>
1

> <s_lp_Variant>
AV-unprocessed.smi:3154-4

> <Gold.Version>
5.8.1

> <Gold.Id.Protein>
6NUR|6NUR_protein|mol2

> <Gold.PLP.Fitness>
40.2794

> <Gold.PLP.PLP>
-27.7155

> <Gold.PLP.part.hbond>
-2.0000

> <Gold.PLP.part.metal>
0.0000

> <Gold.PLP.part.buried>
-1.9707

> <Gold.PLP.part.nonpolar>
-25.9651

> <Gold.PLP.part.repulsive>
0.3331

> <Gold.PLP.ligand.clash>
0.0000

> <Gold.PLP.ligand.torsion>
0.3508

> <Gold.PLP.Chemscore.Hbond>
2.0000

> <Gold.PLP.Chemscore.CHOScore>
2.4016

> <Gold.PLP.Chemscore.Metal>
0.0000

> <Gold.Chemscore.Hbonds>
donor molecule, donor type, donor heavy atom, donor atom, acceptor molecule, acceptor atom, score
      L1  H     9    26       P1  7948  1.00
      L1  H    13    29       P1 10175  1.00
      L1  C     5    23       P1 10747  0.97
      L1  C     7    25       P1 10186  0.50
      L1  C     7    25       P1 10952  0.97

> <Gold.PLP.Chemscore.Internal.Correction>
0.0606

> <Gold.Rescore>
     Score         DG    S(hbond)    S(metal)    S(lipo)     H(rot)  DE(clash)    DE(int)     intcor
     14.71     -15.60       1.99        0.00      76.03       2.12       0.48       0.41       ----

> <Gold.Chemscore.Fitness>
14.7078

> <Gold.Chemscore.DG>
-15.6036

> <Gold.Chemscore.ZeroCoef>
-5.4800

> <Gold.Chemscore.Hbond>
1.9947

> <Gold.Chemscore.Metal>
0.0000

> <Gold.Chemscore.Lipo>
76.0255

> <Gold.Chemscore.Internal_Hbond>
0.0000

> <Gold.Chemscore.DEClash>
0.4847

> <Gold.Chemscore.DEInternal>
0.4111

> <Gold.Chemscore.Rot>
2.1225

> <Gold.Chemscore.Internal.Correction>
   9.000000E+99

> <Gold.Chemscore.Hbonds>
donor molecule, donor type, donor heavy atom, donor atom, acceptor molecule, acceptor atom, score
      L1  H     9    26       P1  7948  1.00
      L1  H    13    29       P1 10175  0.96

> <Gold.Chemscore.Hbond.Weighted>
-6.6623

> <Gold.Chemscore.Metal.Weighted>
-0.0000

> <Gold.Chemscore.Lipo.Weighted>
-8.8950

> <Gold.Chemscore.Internal_Hbond.Weighted>
0.0000

> <Gold.Chemscore.DEClash.Weighted>
0.4847

> <Gold.Chemscore.DEInternal.Weighted>
0.4111

> <Gold.Chemscore.Rot.Weighted>
5.4337

> <Gold.Chemscore.Internal.Correction.Weighted>
   9.000000E+99

> <Gold.Protein.RotatedTorsions>
[ 6907 6896 6895 6894 ] final   41.53 input  -60.11 | X-H torsion
[ 7974 7965 7964 7962 ] final   -8.39 input  175.53 | X-H torsion
[ 8008 7997 7996 7995 ] final  139.96 input   59.86 | X-H torsion
[ 10167 10162 10161 10158 ] final  173.89 input  -65.29 | X-H torsion
[ 10718 10713 10712 10709 ] final  160.58 input   66.30 | X-H torsion
[ 10763 10752 10751 10750 ] final   51.84 input  -60.55 | X-H torsion
[ 11005 11000 10999 10996 ] final   19.13 input  -57.11 | X-H torsion

> <Gold.Protein.ActiveResidues>
 VAL166  LYS551  ARG553  GLY616  TRP617  ASP618  TYR619  PRO620  LYS621  CYS622 
 ASP623  PHE694  ASN695  SER759  ASP760  ASP761  ALA762  ILE779  LEU786  VAL792 
 PHE793  MET794  SER795  GLU796  ALA797  LYS798  CYS799  TRP800  GLU811  SER814 

> <Gold.Protein.RotatedAtoms>
  152.1965  134.8626  160.0512 H   0  0  0  0  0  0  0  0  0  0  0  0  # atno 6907 bound_to 6896
  151.9495  133.3657  159.4003 H   0  0  0  0  0  0  0  0  0  0  0  0  # atno 6908 bound_to 6896
  150.6946  134.4279  159.5279 H   0  0  0  0  0  0  0  0  0  0  0  0  # atno 6909 bound_to 6896
  146.2282  140.2460  142.8345 H   0  0  0  0  0  0  0  0  0  0  0  0  # atno 7974 bound_to 7965
  156.2984  140.2354  156.4323 H   0  0  0  0  0  0  0  0  0  0  0  0  # atno 8008 bound_to 7997
  154.8259  140.0435  157.1464 H   0  0  0  0  0  0  0  0  0  0  0  0  # atno 8009 bound_to 7997
  154.9262  140.3010  155.5194 H   0  0  0  0  0  0  0  0  0  0  0  0  # atno 8010 bound_to 7997
  139.5123  144.3209  152.0204 H   0  0  0  0  0  0  0  0  0  0  0  0  # atno 10167 bound_to 10162
  157.1484  131.0558  151.2292 H   0  0  0  0  0  0  0  0  0  0  0  0  # atno 10718 bound_to 10713
  152.9786  135.5832  154.4481 H   0  0  0  0  0  0  0  0  0  0  0  0  # atno 10763 bound_to 10752
  154.4074  135.2769  155.2061 H   0  0  0  0  0  0  0  0  0  0  0  0  # atno 10764 bound_to 10752
  154.3865  135.6135  153.5874 H   0  0  0  0  0  0  0  0  0  0  0  0  # atno 10765 bound_to 10752
  140.4171  134.1557  155.7670 H   0  0  0  0  0  0  0  0  0  0  0  0  # atno 11005 bound_to 11000
  144.9448  140.8116  143.5608 LP  0  0  0  0  0  0  0  0  0  0  0  0  # atno 17320 bound_to 7965
  145.2415  139.2070  143.4990 LP  0  0  0  0  0  0  0  0  0  0  0  0  # atno 17321 bound_to 7965
  140.2650  144.4025  150.6171 LP  0  0  0  0  0  0  0  0  0  0  0  0  # atno 17342 bound_to 10162
  140.6129  143.2170  151.6849 LP  0  0  0  0  0  0  0  0  0  0  0  0  # atno 17343 bound_to 10162
  157.4243  130.7455  149.6938 LP  0  0  0  0  0  0  0  0  0  0  0  0  # atno 17370 bound_to 10713
  155.9775  130.4062  150.3707 LP  0  0  0  0  0  0  0  0  0  0  0  0  # atno 17371 bound_to 10713
  141.1798  133.8437  157.1296 LP  0  0  0  0  0  0  0  0  0  0  0  0  # atno 17394 bound_to 11000
  140.0226  134.9939  157.0622 LP  0  0  0  0  0  0  0  0  0  0  0  0  # atno 17395 bound_to 11000

$$$$
