AV-unprocessed.smi:2924|AV-procd|sdf|11219|dock6
  -GOLD-   2272016113D 1   1.00000     0.00000
 Structure written by MMmdl.
 29 31  0  0  0  0  0  0  0  0  1 V2000
  154.0484  140.2313  159.1520 N   0  0  0  0  0  0  0  0  0  0  0  0
  153.3436  141.1418  159.0376 C   0  0  0  0  0  0  0  0  0  0  0  0
  152.4562  142.2894  158.8926 C   0  0  0  0  0  0  0  0  0  0  0  0
  152.7852  143.4950  159.5474 C   0  0  0  0  0  0  0  0  0  0  0  0
  151.9294  144.6037  159.4145 C   0  0  0  0  0  0  0  0  0  0  0  0
  150.7728  144.4611  158.6267 C   0  0  0  0  0  0  0  0  0  0  0  0
  150.4474  143.3147  157.9941 N   0  0  0  0  0  0  0  0  0  0  0  0
  151.2654  142.2411  158.1191 C   0  0  0  0  0  0  0  0  0  0  0  0
  150.9014  141.0605  157.4462 N   0  0  0  0  0  0  0  0  0  0  0  0
  151.1215  140.9062  156.0113 C   0  0  1  0  0  0  0  0  0  0  0  0
  152.1131  139.7895  155.6765 C   0  0  0  0  0  0  0  0  0  0  0  0
  151.3078  138.9389  154.6840 C   0  0  1  0  0  0  0  0  0  0  0  0
  150.2279  138.1138  155.3958 C   0  0  0  0  0  0  0  0  0  0  0  0
  149.2091  139.1898  155.7653 C   0  0  0  0  0  0  0  0  0  0  0  0
  149.8763  140.4627  155.2165 C   0  0  2  0  0  0  0  0  0  0  0  0
  150.5076  139.9313  154.0634 O   0  0  0  0  0  0  0  0  0  0  0  0
  153.6809  143.5746  160.1467 H   0  0  0  0  0  0  0  0  0  0  0  0
  152.1536  145.5397  159.9043 H   0  0  0  0  0  0  0  0  0  0  0  0
  150.0909  145.2890  158.5004 H   0  0  0  0  0  0  0  0  0  0  0  0
  150.2439  140.4357  157.8903 H   0  0  0  0  0  0  0  0  0  0  0  0
  151.5033  141.8418  155.6000 H   0  0  0  0  0  0  0  0  0  0  0  0
  153.0021  140.2054  155.2014 H   0  0  0  0  0  0  0  0  0  0  0  0
  152.4343  139.2097  156.5430 H   0  0  0  0  0  0  0  0  0  0  0  0
  151.9237  138.3603  153.9952 H   0  0  0  0  0  0  0  0  0  0  0  0
  149.7844  137.3846  154.7167 H   0  0  0  0  0  0  0  0  0  0  0  0
  150.6162  137.5811  156.2645 H   0  0  0  0  0  0  0  0  0  0  0  0
  148.2629  139.0045  155.2554 H   0  0  0  0  0  0  0  0  0  0  0  0
  149.0083  139.2379  156.8358 H   0  0  0  0  0  0  0  0  0  0  0  0
  149.1746  141.2700  155.0044 H   0  0  0  0  0  0  0  0  0  0  0  0
  1  2  3  0  0  0  0
  2  3  1  0  0  0  0
  3  8  1  0  0  0  0
  3  4  2  0  0  0  0
  4  5  1  0  0  0  0
  4 17  1  0  0  0  0
  5  6  2  0  0  0  0
  5 18  1  0  0  0  0
  6  7  1  0  0  0  0
  6 19  1  0  0  0  0
  7  8  2  0  0  0  0
  8  9  1  0  0  0  0
  9 10  1  0  0  0  0
  9 20  1  0  0  0  0
 10 15  1  0  0  0  0
 10 11  1  0  0  0  0
 10 21  1  0  0  0  0
 11 12  1  0  0  0  0
 11 22  1  0  0  0  0
 11 23  1  0  0  0  0
 12 16  1  0  0  0  0
 12 13  1  0  0  0  0
 12 24  1  0  0  0  0
 13 14  1  0  0  0  0
 13 25  1  0  0  0  0
 13 26  1  0  0  0  0
 14 15  1  0  0  0  0
 14 27  1  0  0  0  0
 14 28  1  0  0  0  0
 15 16  1  0  0  0  0
 15 29  1  0  0  0  0
M  END
> <s_m_source_file>
AV-unprocessed.smi

> <i_m_source_file_index>
2924

> <i_lp_mmshare_version>
43012

> <i_f3d_flags>
0

> <s_epik_input>
TiNDYzFbY0hdW2NIXVtjSF1uYzFbTkhdW0NASF0oW0NIMl1bQ0BASF0yMylbQ0BASF0oTzMpW0NIMl1bQ0gyXTI=

> <s_epik_cmdline>
J2VwaWtfcHl0aG9uJywgJy1waCcsICc3LjAnLCAnLXRuJywgJzgnLCAnLW1hJywgJzIwMCcsICctbWV0YWxfYmluZGluZycsICctaW1hZScsICc8aW5maWxlLm1hZT4nLCAnLW9tYWUnLCAnPG91dGZpbGUubWFlPic=

> <r_lp_tautomer_probability>
1

> <r_epik_Ionization_Penalty>
2.11559e-05

> <r_epik_Ionization_Penalty_Charging>
0

> <r_epik_Ionization_Penalty_Neutral>
2.11559e-05

> <r_epik_State_Penalty>
-0

> <r_epik_Charging_Adjusted_Penalty>
0

> <i_epik_Tot_Q>
0

> <i_epik_Tot_abs_Q>
0

> <r_epik_Metal_State_Penalty>
-0

> <b_epik_Metal_Only>
0

> <s_lp_Force_Field>
OPLS_2005

> <r_lp_Energy>
42.6424

> <b_lp_Chiralities_Consistent>
1

> <s_lp_Variant>
AV-unprocessed.smi:2924-2

> <Gold.Version>
5.8.1

> <Gold.Id.Protein>
6NUR|6NUR_protein|mol2

> <Gold.PLP.Fitness>
38.8553

> <Gold.PLP.PLP>
-32.0232

> <Gold.PLP.part.hbond>
-2.0000

> <Gold.PLP.part.metal>
0.0000

> <Gold.PLP.part.buried>
-2.6681

> <Gold.PLP.part.nonpolar>
-26.5842

> <Gold.PLP.part.repulsive>
0.7121

> <Gold.PLP.ligand.clash>
0.0000

> <Gold.PLP.ligand.torsion>
0.7588

> <Gold.PLP.Chemscore.Hbond>
1.7865

> <Gold.PLP.Chemscore.CHOScore>
0.9935

> <Gold.PLP.Chemscore.Metal>
0.0000

> <Gold.Chemscore.Hbonds>
donor molecule, donor type, donor heavy atom, donor atom, acceptor molecule, acceptor atom, score
      P1  H  7989  7998       L1    16  1.00
      P1  H  7997  8010       L1     1  0.80
      L1  C     6    19       P1  8029  0.87

> <Gold.PLP.Chemscore.Internal.Correction>
0.0098

> <Gold.Rescore>
     Score         DG    S(hbond)    S(metal)    S(lipo)     H(rot)  DE(clash)    DE(int)     intcor
     15.01     -16.04       1.09        0.00      80.93       1.00       0.22       0.81       ----

> <Gold.Chemscore.Fitness>
15.0133

> <Gold.Chemscore.DG>
-16.0404

> <Gold.Chemscore.ZeroCoef>
-5.4800

> <Gold.Chemscore.Hbond>
1.0934

> <Gold.Chemscore.Metal>
0.0000

> <Gold.Chemscore.Lipo>
80.9258

> <Gold.Chemscore.Internal_Hbond>
0.0000

> <Gold.Chemscore.DEClash>
0.2211

> <Gold.Chemscore.DEInternal>
0.8060

> <Gold.Chemscore.Rot>
1.0000

> <Gold.Chemscore.Internal.Correction>
   9.000000E+99

> <Gold.Chemscore.Hbonds>
donor molecule, donor type, donor heavy atom, donor atom, acceptor molecule, acceptor atom, score
      P1  H  7989  7998       L1    16  0.25
      P1  H  7997  8010       L1     1  0.34

> <Gold.Chemscore.Hbond.Weighted>
-3.6520

> <Gold.Chemscore.Metal.Weighted>
-0.0000

> <Gold.Chemscore.Lipo.Weighted>
-9.4683

> <Gold.Chemscore.Internal_Hbond.Weighted>
0.0000

> <Gold.Chemscore.DEClash.Weighted>
0.2211

> <Gold.Chemscore.DEInternal.Weighted>
0.8060

> <Gold.Chemscore.Rot.Weighted>
2.5600

> <Gold.Chemscore.Internal.Correction.Weighted>
   9.000000E+99

> <Gold.Protein.RotatedTorsions>
[ 6907 6896 6895 6894 ] final  138.19 input  -60.11 | X-H torsion
[ 7974 7965 7964 7962 ] final  -83.71 input  175.53 | X-H torsion
[ 8008 7997 7996 7995 ] final   10.79 input   59.86 | X-H torsion
[ 10167 10162 10161 10158 ] final   12.70 input  -65.29 | X-H torsion
[ 10718 10713 10712 10709 ] final  -61.02 input   66.30 | X-H torsion
[ 10763 10752 10751 10750 ] final   35.40 input  -60.55 | X-H torsion
[ 11005 11000 10999 10996 ] final   -5.86 input  -57.11 | X-H torsion

> <Gold.Protein.ActiveResidues>
 VAL166  LYS551  ARG553  GLY616  TRP617  ASP618  TYR619  PRO620  LYS621  CYS622 
 ASP623  PHE694  ASN695  SER759  ASP760  ASP761  ALA762  ILE779  LEU786  VAL792 
 PHE793  MET794  SER795  GLU796  ALA797  LYS798  CYS799  TRP800  GLU811  SER814 

> <Gold.Protein.RotatedAtoms>
  152.2694  133.5369  159.5429 H   0  0  0  0  0  0  0  0  0  0  0  0  # atno 6907 bound_to 6896
  150.7154  134.0718  159.3876 H   0  0  0  0  0  0  0  0  0  0  0  0  # atno 6908 bound_to 6896
  151.8633  135.0516  160.0522 H   0  0  0  0  0  0  0  0  0  0  0  0  # atno 6909 bound_to 6896
  145.5164  140.9535  143.1679 H   0  0  0  0  0  0  0  0  0  0  0  0  # atno 7974 bound_to 7965
  154.7982  140.2847  155.5941 H   0  0  0  0  0  0  0  0  0  0  0  0  # atno 8008 bound_to 7997
  156.2973  140.2591  156.2773 H   0  0  0  0  0  0  0  0  0  0  0  0  # atno 8009 bound_to 7997
  154.9589  140.0378  157.2170 H   0  0  0  0  0  0  0  0  0  0  0  0  # atno 8010 bound_to 7997
  140.6051  143.8525  150.7005 H   0  0  0  0  0  0  0  0  0  0  0  0  # atno 10167 bound_to 10162
  156.0950  130.4194  150.0935 H   0  0  0  0  0  0  0  0  0  0  0  0  # atno 10718 bound_to 10713
  153.0121  135.6334  154.1820 H   0  0  0  0  0  0  0  0  0  0  0  0  # atno 10763 bound_to 10752
  154.1562  135.2826  155.3123 H   0  0  0  0  0  0  0  0  0  0  0  0  # atno 10764 bound_to 10752
  154.6016  135.5585  153.7441 H   0  0  0  0  0  0  0  0  0  0  0  0  # atno 10765 bound_to 10752
  140.6957  133.9033  155.8648 H   0  0  0  0  0  0  0  0  0  0  0  0  # atno 11005 bound_to 11000
  144.7700  139.6758  143.7199 LP  0  0  0  0  0  0  0  0  0  0  0  0  # atno 17320 bound_to 7965
  146.2134  139.5506  142.9666 LP  0  0  0  0  0  0  0  0  0  0  0  0  # atno 17321 bound_to 7965
  140.2080  143.3906  152.1740 LP  0  0  0  0  0  0  0  0  0  0  0  0  # atno 17342 bound_to 10162
  139.5319  144.7168  151.5027 LP  0  0  0  0  0  0  0  0  0  0  0  0  # atno 17343 bound_to 10162
  156.8936  130.9597  151.3585 LP  0  0  0  0  0  0  0  0  0  0  0  0  # atno 17370 bound_to 10713
  157.6109  130.8582  149.8950 LP  0  0  0  0  0  0  0  0  0  0  0  0  # atno 17371 bound_to 10713
  141.0205  134.0896  157.4125 LP  0  0  0  0  0  0  0  0  0  0  0  0  # atno 17394 bound_to 11000
  139.8911  135.0116  156.6771 LP  0  0  0  0  0  0  0  0  0  0  0  0  # atno 17395 bound_to 11000

$$$$
