AV-unprocessed.smi:1662|AV-procd|sdf|6663|dock8
  -GOLD-   22720 7373D 1   1.00000     0.00000
 Structure written by MMmdl.
 47 48  0  0  0  0  0  0  0  0  1 V2000
  145.6662  143.9587  153.6343 C   0  0  0  0  0  0  0  0  0  0  0  0
  146.1852  143.0534  154.7188 C   0  0  0  0  0  0  0  0  0  0  0  0
  147.2321  142.3500  154.4364 N   0  0  0  0  0  0  0  0  0  0  0  0
  147.7876  141.4841  155.3585 N   0  0  0  0  0  0  0  0  0  0  0  0
  148.9555  140.7449  154.8568 C   0  0  0  0  0  0  0  0  0  0  0  0
  150.2612  141.0826  155.5920 C   0  0  0  0  0  0  0  0  0  0  0  0
  151.2934  140.4434  155.3818 O   0  0  0  0  0  0  0  0  0  0  0  0
  150.1979  142.1138  156.4482 N   0  0  0  0  0  0  0  0  0  0  0  0
  151.3104  142.6188  157.2502 C   0  0  2  0  0  0  0  0  0  0  0  0
  151.7813  141.5291  158.2329 C   0  0  0  0  0  0  0  0  0  0  0  0
  152.9765  142.0103  159.0695 C   0  0  0  0  0  0  0  0  0  0  0  0
  152.6651  143.3287  159.7951 C   0  0  0  0  0  0  0  0  0  0  0  0
  152.1879  144.4156  158.8107 C   0  0  2  0  0  0  0  0  0  0  0  0
  151.9738  145.7669  159.5128 C   0  0  0  0  0  0  0  0  0  0  0  0
  150.9604  143.9420  157.9869 C   0  0  2  0  0  0  0  0  0  0  0  0
  149.6570  143.8522  158.8147 C   0  0  0  0  0  0  0  0  0  0  0  0
  147.3196  141.2949  156.6261 C   0  0  0  0  0  0  0  0  0  0  0  0
  147.8535  140.5190  157.4204 O   0  0  0  0  0  0  0  0  0  0  0  0
  146.1329  142.0944  156.9389 C   0  0  0  0  0  0  0  0  0  0  0  0
  145.6059  141.9216  158.2541 C   0  0  0  0  0  0  0  0  0  0  0  0
  145.1884  141.7990  159.3269 N   0  0  0  0  0  0  0  0  0  0  0  0
  145.5723  142.9401  156.0382 C   0  0  0  0  0  0  0  0  0  0  0  0
  144.3392  143.7902  156.3116 C   0  0  0  0  0  0  0  0  0  0  0  0
  145.6189  144.9915  153.9798 H   0  0  0  0  0  0  0  0  0  0  0  0
  144.6649  143.6573  153.3261 H   0  0  0  0  0  0  0  0  0  0  0  0
  146.3030  143.9390  152.7486 H   0  0  0  0  0  0  0  0  0  0  0  0
  148.7852  139.6704  154.9479 H   0  0  0  0  0  0  0  0  0  0  0  0
  149.0864  140.9292  153.7887 H   0  0  0  0  0  0  0  0  0  0  0  0
  149.3117  142.5857  156.5550 H   0  0  0  0  0  0  0  0  0  0  0  0
  152.1419  142.8186  156.5709 H   0  0  0  0  0  0  0  0  0  0  0  0
  150.9648  141.2374  158.8942 H   0  0  0  0  0  0  0  0  0  0  0  0
  152.0643  140.6301  157.6840 H   0  0  0  0  0  0  0  0  0  0  0  0
  153.2563  141.2443  159.7933 H   0  0  0  0  0  0  0  0  0  0  0  0
  153.8412  142.1497  158.4195 H   0  0  0  0  0  0  0  0  0  0  0  0
  151.9096  143.1577  160.5625 H   0  0  0  0  0  0  0  0  0  0  0  0
  153.5583  143.6697  160.3198 H   0  0  0  0  0  0  0  0  0  0  0  0
  152.9994  144.5740  158.0984 H   0  0  0  0  0  0  0  0  0  0  0  0
  151.2486  145.6929  160.3231 H   0  0  0  0  0  0  0  0  0  0  0  0
  151.6208  146.5236  158.8118 H   0  0  0  0  0  0  0  0  0  0  0  0
  152.9065  146.1306  159.9452 H   0  0  0  0  0  0  0  0  0  0  0  0
  150.7824  144.6999  157.2226 H   0  0  0  0  0  0  0  0  0  0  0  0
  149.7384  143.1383  159.6336 H   0  0  0  0  0  0  0  0  0  0  0  0
  148.8108  143.5489  158.1986 H   0  0  0  0  0  0  0  0  0  0  0  0
  149.3903  144.8173  159.2439 H   0  0  0  0  0  0  0  0  0  0  0  0
  143.9249  143.6105  157.3031 H   0  0  0  0  0  0  0  0  0  0  0  0
  143.5548  143.5717  155.5863 H   0  0  0  0  0  0  0  0  0  0  0  0
  144.5843  144.8507  156.2452 H   0  0  0  0  0  0  0  0  0  0  0  0
  1  2  1  0  0  0  0
  1 24  1  0  0  0  0
  1 25  1  0  0  0  0
  1 26  1  0  0  0  0
  2 22  1  0  0  0  0
  2  3  2  0  0  0  0
  3  4  1  0  0  0  0
  4  5  1  0  0  0  0
  4 17  1  0  0  0  0
  5  6  1  0  0  0  0
  5 27  1  0  0  0  0
  5 28  1  0  0  0  0
  6  7  2  0  0  0  0
  6  8  1  0  0  0  0
  8  9  1  0  0  0  0
  8 29  1  0  0  0  0
  9 15  1  0  0  0  0
  9 10  1  0  0  0  0
  9 30  1  0  0  0  0
 10 11  1  0  0  0  0
 10 31  1  0  0  0  0
 10 32  1  0  0  0  0
 11 12  1  0  0  0  0
 11 33  1  0  0  0  0
 11 34  1  0  0  0  0
 12 13  1  0  0  0  0
 12 35  1  0  0  0  0
 12 36  1  0  0  0  0
 13 14  1  0  0  0  0
 13 15  1  0  0  0  0
 13 37  1  0  0  0  0
 14 38  1  0  0  0  0
 14 39  1  0  0  0  0
 14 40  1  0  0  0  0
 15 16  1  0  0  0  0
 15 41  1  0  0  0  0
 16 42  1  0  0  0  0
 16 43  1  0  0  0  0
 16 44  1  0  0  0  0
 17 18  2  0  0  0  0
 17 19  1  0  0  0  0
 19 20  1  0  0  0  0
 19 22  2  0  0  0  0
 20 21  3  0  0  0  0
 22 23  1  0  0  0  0
 23 45  1  0  0  0  0
 23 46  1  0  0  0  0
 23 47  1  0  0  0  0
M  END
> <s_m_source_file>
AV-unprocessed.smi

> <i_m_source_file_index>
1662

> <i_lp_mmshare_version>
43012

> <i_f3d_flags>
0

> <s_epik_input>
TiNDYyhjMVtDSDNdKWMoPU8pbihuYzFbQ0gzXSlbQ0gyXUMoPU8pW05IXVtDQEBIXTJbQ0gyXVtDSDJdW0NIMl1bQ0BASF0oW0NIM10pW0NASF0yW0NIM10=

> <s_epik_cmdline>
J2VwaWtfcHl0aG9uJywgJy1waCcsICc3LjAnLCAnLXRuJywgJzgnLCAnLW1hJywgJzIwMCcsICctbWV0YWxfYmluZGluZycsICctaW1hZScsICc8aW5maWxlLm1hZT4nLCAnLW9tYWUnLCAnPG91dGZpbGUubWFlPic=

> <r_lp_tautomer_probability>
1

> <r_epik_Ionization_Penalty>
1.90709e-08

> <r_epik_Ionization_Penalty_Charging>
2.37982e-11

> <r_epik_Ionization_Penalty_Neutral>
1.90471e-08

> <r_epik_State_Penalty>
-0

> <r_epik_Charging_Adjusted_Penalty>
2.37982e-11

> <i_epik_Tot_Q>
0

> <i_epik_Tot_abs_Q>
0

> <r_epik_Metal_State_Penalty>
-0

> <b_epik_Metal_Only>
0

> <s_lp_Force_Field>
OPLS_2005

> <r_lp_Energy>
29.1366

> <b_lp_Chiralities_Consistent>
1

> <s_lp_Variant>
AV-unprocessed.smi:1662-7

> <Gold.Version>
5.8.1

> <Gold.Id.Protein>
6NUR|6NUR_protein|mol2

> <Gold.PLP.Fitness>
48.8501

> <Gold.PLP.PLP>
-43.6571

> <Gold.PLP.part.hbond>
-2.8534

> <Gold.PLP.part.metal>
0.0000

> <Gold.PLP.part.buried>
-6.9556

> <Gold.PLP.part.nonpolar>
-34.2641

> <Gold.PLP.part.repulsive>
0.2538

> <Gold.PLP.ligand.clash>
0.0723

> <Gold.PLP.ligand.torsion>
0.1229

> <Gold.PLP.Chemscore.Hbond>
1.8319

> <Gold.PLP.Chemscore.CHOScore>
0.0000

> <Gold.PLP.Chemscore.Metal>
0.0000

> <Gold.Chemscore.Hbonds>
donor molecule, donor type, donor heavy atom, donor atom, acceptor molecule, acceptor atom, score
      L1  H     8    29       P1  8028  0.09
      P1  H  6934  6946       L1    21  0.10
      P1  H  7989  7998       L1     7  0.93

> <Gold.PLP.Chemscore.Internal.Correction>
0.0156

> <Gold.Rescore>
     Score         DG    S(hbond)    S(metal)    S(lipo)     H(rot)  DE(clash)    DE(int)     intcor
     16.69     -18.86       1.51        0.00     102.84       1.45       0.41       1.75       ----

> <Gold.Chemscore.Fitness>
16.6901

> <Gold.Chemscore.DG>
-18.8578

> <Gold.Chemscore.ZeroCoef>
-5.4800

> <Gold.Chemscore.Hbond>
1.5146

> <Gold.Chemscore.Metal>
0.0000

> <Gold.Chemscore.Lipo>
102.8364

> <Gold.Chemscore.Internal_Hbond>
0.0000

> <Gold.Chemscore.DEClash>
0.4137

> <Gold.Chemscore.DEInternal>
1.7540

> <Gold.Chemscore.Rot>
1.4504

> <Gold.Chemscore.Internal.Correction>
   9.000000E+99

> <Gold.Chemscore.Hbonds>
donor molecule, donor type, donor heavy atom, donor atom, acceptor molecule, acceptor atom, score
      L1  H     8    29       P1  8028  0.10
      P1  H  6934  6946       L1    21  0.09
      P1  H  7989  7998       L1     7  0.27

> <Gold.Chemscore.Hbond.Weighted>
-5.0589

> <Gold.Chemscore.Metal.Weighted>
-0.0000

> <Gold.Chemscore.Lipo.Weighted>
-12.0319

> <Gold.Chemscore.Internal_Hbond.Weighted>
0.0000

> <Gold.Chemscore.DEClash.Weighted>
0.4137

> <Gold.Chemscore.DEInternal.Weighted>
1.7540

> <Gold.Chemscore.Rot.Weighted>
3.7129

> <Gold.Chemscore.Internal.Correction.Weighted>
   9.000000E+99

> <Gold.Protein.RotatedTorsions>
[ 6907 6896 6895 6894 ] final  145.91 input  -60.11 | X-H torsion
[ 7974 7965 7964 7962 ] final   93.67 input  175.53 | X-H torsion
[ 8008 7997 7996 7995 ] final -131.87 input   59.86 | X-H torsion
[ 10167 10162 10161 10158 ] final  -71.07 input  -65.29 | X-H torsion
[ 10718 10713 10712 10709 ] final -109.77 input   66.30 | X-H torsion
[ 10763 10752 10751 10750 ] final   58.33 input  -60.55 | X-H torsion
[ 11005 11000 10999 10996 ] final -158.41 input  -57.11 | X-H torsion

> <Gold.Protein.ActiveResidues>
 VAL166  LYS551  ARG553  GLY616  TRP617  ASP618  TYR619  PRO620  LYS621  CYS622 
 ASP623  PHE694  ASN695  SER759  ASP760  ASP761  ALA762  ILE779  LEU786  VAL792 
 PHE793  MET794  SER795  GLU796  ALA797  LYS798  CYS799  TRP800  GLU811  SER814 

> <Gold.Protein.RotatedAtoms>
  152.1748  133.4667  159.4927 H   0  0  0  0  0  0  0  0  0  0  0  0  # atno 6907 bound_to 6896
  150.6925  134.1908  159.4293 H   0  0  0  0  0  0  0  0  0  0  0  0  # atno 6908 bound_to 6896
  151.9817  135.0025  160.0608 H   0  0  0  0  0  0  0  0  0  0  0  0  # atno 6909 bound_to 6896
  145.4758  139.2280  143.2910 H   0  0  0  0  0  0  0  0  0  0  0  0  # atno 7974 bound_to 7965
  155.3196  140.0461  157.3038 H   0  0  0  0  0  0  0  0  0  0  0  0  # atno 8008 bound_to 7997
  154.5387  140.2281  155.8643 H   0  0  0  0  0  0  0  0  0  0  0  0  # atno 8009 bound_to 7997
  156.1860  140.3062  155.9246 H   0  0  0  0  0  0  0  0  0  0  0  0  # atno 8010 bound_to 7997
  140.5302  143.2322  151.7276 H   0  0  0  0  0  0  0  0  0  0  0  0  # atno 10167 bound_to 10162
  156.0555  130.5781  150.8145 H   0  0  0  0  0  0  0  0  0  0  0  0  # atno 10718 bound_to 10713
  152.9868  135.5610  154.5535 H   0  0  0  0  0  0  0  0  0  0  0  0  # atno 10763 bound_to 10752
  154.4967  135.2795  155.1455 H   0  0  0  0  0  0  0  0  0  0  0  0  # atno 10764 bound_to 10752
  154.2902  135.6327  153.5435 H   0  0  0  0  0  0  0  0  0  0  0  0  # atno 10765 bound_to 10752
  140.6540  134.4421  157.5235 H   0  0  0  0  0  0  0  0  0  0  0  0  # atno 11005 bound_to 11000
  146.2370  140.5540  142.8950 LP  0  0  0  0  0  0  0  0  0  0  0  0  # atno 17320 bound_to 7965
  144.7918  140.6047  143.6536 LP  0  0  0  0  0  0  0  0  0  0  0  0  # atno 17321 bound_to 7965
  139.4951  144.4126  152.0065 LP  0  0  0  0  0  0  0  0  0  0  0  0  # atno 17342 bound_to 10162
  140.3227  144.3409  150.6005 LP  0  0  0  0  0  0  0  0  0  0  0  0  # atno 17343 bound_to 10162
  157.5520  131.0944  150.9682 LP  0  0  0  0  0  0  0  0  0  0  0  0  # atno 17370 bound_to 10713
  156.9940  130.5574  149.5305 LP  0  0  0  0  0  0  0  0  0  0  0  0  # atno 17371 bound_to 10713
  139.9036  134.8500  156.1795 LP  0  0  0  0  0  0  0  0  0  0  0  0  # atno 17394 bound_to 11000
  141.0516  133.6886  156.1782 LP  0  0  0  0  0  0  0  0  0  0  0  0  # atno 17395 bound_to 11000

$$$$
