AV-unprocessed.smi:3067|AV-procd|sdf|11696|dock1
  -GOLD-   2272017 93D 1   1.00000     0.00000
 Structure written by MMmdl.
 34 35  0  0  0  0  0  0  0  0  1 V2000
  145.4742  135.6942  151.0140 C   0  0  0  0  0  0  0  0  0  0  0  0
  145.3020  134.3698  151.4930 O   0  0  0  0  0  0  0  0  0  0  0  0
  146.1282  133.4014  150.8527 C   0  0  2  0  0  0  0  0  0  0  0  0
  145.2642  132.3662  150.1012 C   0  0  0  0  0  0  0  0  0  0  0  0
  144.3911  131.5451  151.0650 C   0  0  0  0  0  0  0  0  0  0  0  0
  145.2422  130.8693  152.1508 C   0  0  0  0  0  0  0  0  0  0  0  0
  146.1063  131.8939  152.9031 C   0  0  0  0  0  0  0  0  0  0  0  0
  146.9894  132.7003  151.9317 C   0  0  2  0  0  0  0  0  0  0  0  0
  147.8291  133.6453  152.6607 N   0  0  0  0  0  0  0  0  0  0  0  0
  148.6670  133.2400  153.7112 C   0  0  0  0  0  0  0  0  0  0  0  0
  148.8979  131.8877  154.0566 C   0  0  0  0  0  0  0  0  0  0  0  0
  149.7603  131.5936  155.1301 C   0  0  0  0  0  0  0  0  0  0  0  0
  150.3631  132.6611  155.8274 C   0  0  0  0  0  0  0  0  0  0  0  0
  151.2560  132.3782  156.9381 C   0  0  0  0  0  0  0  0  0  0  0  0
  151.9668  132.1531  157.8231 N   0  0  0  0  0  0  0  0  0  0  0  0
  150.1467  133.9552  155.5081 N   0  0  0  0  0  0  0  0  0  0  0  0
  149.3188  134.2293  154.4774 C   0  0  0  0  0  0  0  0  0  0  0  0
  144.8218  136.3673  151.5701 H   0  0  0  0  0  0  0  0  0  0  0  0
  145.2189  135.7816  149.9582 H   0  0  0  0  0  0  0  0  0  0  0  0
  146.5011  136.0335  151.1560 H   0  0  0  0  0  0  0  0  0  0  0  0
  146.7873  133.8975  150.1391 H   0  0  0  0  0  0  0  0  0  0  0  0
  144.6380  132.8502  149.3526 H   0  0  0  0  0  0  0  0  0  0  0  0
  145.9187  131.6901  149.5496 H   0  0  0  0  0  0  0  0  0  0  0  0
  143.6504  132.1952  151.5324 H   0  0  0  0  0  0  0  0  0  0  0  0
  143.8323  130.7914  150.5096 H   0  0  0  0  0  0  0  0  0  0  0  0
  144.5974  130.3396  152.8526 H   0  0  0  0  0  0  0  0  0  0  0  0
  145.8857  130.1165  151.6938 H   0  0  0  0  0  0  0  0  0  0  0  0
  145.4628  132.5662  153.4726 H   0  0  0  0  0  0  0  0  0  0  0  0
  146.7305  131.3749  153.6313 H   0  0  0  0  0  0  0  0  0  0  0  0
  147.6447  131.9812  151.4404 H   0  0  0  0  0  0  0  0  0  0  0  0
  148.0258  134.5281  152.2109 H   0  0  0  0  0  0  0  0  0  0  0  0
  148.4330  131.0746  153.5207 H   0  0  0  0  0  0  0  0  0  0  0  0
  149.9506  130.5672  155.4089 H   0  0  0  0  0  0  0  0  0  0  0  0
  149.1748  135.2770  154.2561 H   0  0  0  0  0  0  0  0  0  0  0  0
  1  2  1  0  0  0  0
  1 18  1  0  0  0  0
  1 19  1  0  0  0  0
  1 20  1  0  0  0  0
  2  3  1  0  0  0  0
  3  8  1  0  0  0  0
  3  4  1  0  0  0  0
  3 21  1  0  0  0  0
  4  5  1  0  0  0  0
  4 22  1  0  0  0  0
  4 23  1  0  0  0  0
  5  6  1  0  0  0  0
  5 24  1  0  0  0  0
  5 25  1  0  0  0  0
  6  7  1  0  0  0  0
  6 26  1  0  0  0  0
  6 27  1  0  0  0  0
  7  8  1  0  0  0  0
  7 28  1  0  0  0  0
  7 29  1  0  0  0  0
  8  9  1  0  0  0  0
  8 30  1  0  0  0  0
  9 10  1  0  0  0  0
  9 31  1  0  0  0  0
 10 17  1  0  0  0  0
 10 11  2  0  0  0  0
 11 12  1  0  0  0  0
 11 32  1  0  0  0  0
 12 13  2  0  0  0  0
 12 33  1  0  0  0  0
 13 14  1  0  0  0  0
 13 16  1  0  0  0  0
 14 15  3  0  0  0  0
 16 17  2  0  0  0  0
 17 34  1  0  0  0  0
M  END
> <s_m_source_file>
AV-unprocessed.smi

> <i_m_source_file_index>
3067

> <i_lp_mmshare_version>
43012

> <i_f3d_flags>
0

> <s_epik_input>
W0NIM11PW0NAQEhdMVtDSDJdW0NIMl1bQ0gyXVtDSDJdW0NASF0xW05IXWMyW2NIXVtjSF1jKEMjTiluW2NIXTI=

> <s_epik_cmdline>
J2VwaWtfcHl0aG9uJywgJy1waCcsICc3LjAnLCAnLXRuJywgJzgnLCAnLW1hJywgJzIwMCcsICctbWV0YWxfYmluZGluZycsICctaW1hZScsICc8aW5maWxlLm1hZT4nLCAnLW9tYWUnLCAnPG91dGZpbGUubWFlPic=

> <r_lp_tautomer_probability>
1

> <r_epik_Ionization_Penalty>
2.01011e-07

> <r_epik_Ionization_Penalty_Charging>
0

> <r_epik_Ionization_Penalty_Neutral>
2.01011e-07

> <r_epik_State_Penalty>
-0

> <r_epik_Charging_Adjusted_Penalty>
0

> <i_epik_Tot_Q>
0

> <i_epik_Tot_abs_Q>
0

> <r_epik_Metal_State_Penalty>
-0

> <b_epik_Metal_Only>
0

> <s_lp_Force_Field>
OPLS_2005

> <r_lp_Energy>
17.9327

> <b_lp_Chiralities_Consistent>
1

> <s_lp_Variant>
AV-unprocessed.smi:3067-3

> <Gold.Version>
5.8.1

> <Gold.Id.Protein>
6NUR|6NUR_protein|mol2

> <Gold.PLP.Fitness>
41.4347

> <Gold.PLP.PLP>
-34.4876

> <Gold.PLP.part.hbond>
-2.0000

> <Gold.PLP.part.metal>
0.0000

> <Gold.PLP.part.buried>
-3.1506

> <Gold.PLP.part.nonpolar>
-29.5965

> <Gold.PLP.part.repulsive>
0.1999

> <Gold.PLP.ligand.clash>
0.0000

> <Gold.PLP.ligand.torsion>
0.7804

> <Gold.PLP.Chemscore.Hbond>
2.0000

> <Gold.PLP.Chemscore.CHOScore>
0.8246

> <Gold.PLP.Chemscore.Metal>
0.0000

> <Gold.Chemscore.Hbonds>
donor molecule, donor type, donor heavy atom, donor atom, acceptor molecule, acceptor atom, score
      L1  H     9    31       P1  7948  1.00
      P1  H  6896  6908       L1    15  1.00
      L1  C    17    34       P1  7948  0.80

> <Gold.PLP.Chemscore.Internal.Correction>
0.0340

> <Gold.Rescore>
     Score         DG    S(hbond)    S(metal)    S(lipo)     H(rot)  DE(clash)    DE(int)     intcor
     16.72     -17.37       1.57        0.00      83.17       1.20       0.04       0.61       ----

> <Gold.Chemscore.Fitness>
16.7208

> <Gold.Chemscore.DG>
-17.3708

> <Gold.Chemscore.ZeroCoef>
-5.4800

> <Gold.Chemscore.Hbond>
1.5675

> <Gold.Chemscore.Metal>
0.0000

> <Gold.Chemscore.Lipo>
83.1658

> <Gold.Chemscore.Internal_Hbond>
0.0000

> <Gold.Chemscore.DEClash>
0.0376

> <Gold.Chemscore.DEInternal>
0.6124

> <Gold.Chemscore.Rot>
1.2012

> <Gold.Chemscore.Internal.Correction>
   9.000000E+99

> <Gold.Chemscore.Hbonds>
donor molecule, donor type, donor heavy atom, donor atom, acceptor molecule, acceptor atom, score
      L1  H     9    31       P1  7948  0.25
      P1  H  6896  6908       L1    15  0.91

> <Gold.Chemscore.Hbond.Weighted>
-5.2354

> <Gold.Chemscore.Metal.Weighted>
-0.0000

> <Gold.Chemscore.Lipo.Weighted>
-9.7304

> <Gold.Chemscore.Internal_Hbond.Weighted>
0.0000

> <Gold.Chemscore.DEClash.Weighted>
0.0376

> <Gold.Chemscore.DEInternal.Weighted>
0.6124

> <Gold.Chemscore.Rot.Weighted>
3.0750

> <Gold.Chemscore.Internal.Correction.Weighted>
   9.000000E+99

> <Gold.Protein.RotatedTorsions>
[ 6907 6896 6895 6894 ] final   53.03 input  -60.11 | X-H torsion
[ 7974 7965 7964 7962 ] final -149.11 input  175.53 | X-H torsion
[ 8008 7997 7996 7995 ] final  153.59 input   59.86 | X-H torsion
[ 10167 10162 10161 10158 ] final  145.04 input  -65.29 | X-H torsion
[ 10718 10713 10712 10709 ] final -156.21 input   66.30 | X-H torsion
[ 10763 10752 10751 10750 ] final  -50.05 input  -60.55 | X-H torsion
[ 11005 11000 10999 10996 ] final   25.09 input  -57.11 | X-H torsion

> <Gold.Protein.ActiveResidues>
 VAL166  LYS551  ARG553  GLY616  TRP617  ASP618  TYR619  PRO620  LYS621  CYS622 
 ASP623  PHE694  ASN695  SER759  ASP760  ASP761  ALA762  ILE779  LEU786  VAL792 
 PHE793  MET794  SER795  GLU796  ALA797  LYS798  CYS799  TRP800  GLU811  SER814 

> <Gold.Protein.RotatedAtoms>
  152.3295  134.7277  160.0292 H   0  0  0  0  0  0  0  0  0  0  0  0  # atno 6907 bound_to 6896
  151.7699  133.3335  159.3449 H   0  0  0  0  0  0  0  0  0  0  0  0  # atno 6908 bound_to 6896
  150.7415  134.5960  159.6056 H   0  0  0  0  0  0  0  0  0  0  0  0  # atno 6909 bound_to 6896
  144.7987  140.5108  143.5722 H   0  0  0  0  0  0  0  0  0  0  0  0  # atno 7974 bound_to 7965
  156.2574  140.1989  156.6514 H   0  0  0  0  0  0  0  0  0  0  0  0  # atno 8008 bound_to 7997
  154.6534  140.0569  157.0006 H   0  0  0  0  0  0  0  0  0  0  0  0  # atno 8009 bound_to 7997
  155.1384  140.3240  155.4460 H   0  0  0  0  0  0  0  0  0  0  0  0  # atno 8010 bound_to 7997
  139.4934  144.5930  151.6642 H   0  0  0  0  0  0  0  0  0  0  0  0  # atno 10167 bound_to 10162
  156.5235  130.8488  151.2690 H   0  0  0  0  0  0  0  0  0  0  0  0  # atno 10718 bound_to 10713
  154.1040  135.6559  153.4873 H   0  0  0  0  0  0  0  0  0  0  0  0  # atno 10763 bound_to 10752
  153.0279  135.5232  154.7258 H   0  0  0  0  0  0  0  0  0  0  0  0  # atno 10764 bound_to 10752
  154.6418  135.2989  155.0063 H   0  0  0  0  0  0  0  0  0  0  0  0  # atno 10765 bound_to 10752
  140.3516  134.2223  155.7679 H   0  0  0  0  0  0  0  0  0  0  0  0  # atno 11005 bound_to 11000
  145.5607  139.1479  143.3343 LP  0  0  0  0  0  0  0  0  0  0  0  0  # atno 17320 bound_to 7965
  146.2263  140.5743  142.8995 LP  0  0  0  0  0  0  0  0  0  0  0  0  # atno 17321 bound_to 7965
  140.5561  144.0346  150.6148 LP  0  0  0  0  0  0  0  0  0  0  0  0  # atno 17342 bound_to 10162
  140.3416  143.3016  152.0582 LP  0  0  0  0  0  0  0  0  0  0  0  0  # atno 17343 bound_to 10162
  157.7433  130.9909  150.2583 LP  0  0  0  0  0  0  0  0  0  0  0  0  # atno 17370 bound_to 10713
  156.3127  130.3774  149.7647 LP  0  0  0  0  0  0  0  0  0  0  0  0  # atno 17371 bound_to 10713
  141.2010  133.7972  157.0460 LP  0  0  0  0  0  0  0  0  0  0  0  0  # atno 17394 bound_to 11000
  140.0699  134.9708  157.1449 LP  0  0  0  0  0  0  0  0  0  0  0  0  # atno 17395 bound_to 11000

$$$$
