AV-unprocessed.smi:3072|AV-procd|sdf|11718|dock1
  -GOLD-   2272017123D 1   1.00000     0.00000
 Structure written by MMmdl.
 25 26  0  0  0  0  0  0  0  0  2 V2000
  151.2926  137.5512  156.0053 C   0  0  0  0  0  0  0  0  0  0  0  0
  151.4990  136.7414  154.9791 N   0  0  0  0  0  0  0  0  0  0  0  0
  151.1407  137.4800  153.9133 N   0  0  0  0  0  0  0  0  0  0  0  0
  150.7130  138.7408  154.2560 C   0  0  0  0  0  0  0  0  0  0  0  0
  150.7935  138.8306  155.6189 C   0  0  0  0  0  0  0  0  0  0  0  0
  150.4435  139.9875  156.5196 C   0  0  1  0  0  0  0  0  0  0  0  0
  151.5995  140.3217  157.4823 C   0  0  0  0  0  0  0  0  0  0  0  0
  151.2381  141.5302  158.3602 C   0  0  0  0  0  0  0  0  0  0  0  0
  150.8276  142.7344  157.4968 C   0  0  0  0  0  0  0  0  0  0  0  0
  149.7210  142.3708  156.5855 N   0  3  0  0  0  0  0  0  0  0  0  0
  150.0535  141.2343  155.6988 C   0  0  0  0  0  0  0  0  0  0  0  0
  151.1933  137.1152  152.9725 H   0  0  0  0  0  0  0  0  0  0  0  0
  151.5078  137.1884  156.9996 H   0  0  0  0  0  0  0  0  0  0  0  0
  150.3914  139.4564  153.5136 H   0  0  0  0  0  0  0  0  0  0  0  0
  149.5801  139.7146  157.1288 H   0  0  0  0  0  0  0  0  0  0  0  0
  151.8273  139.4607  158.1119 H   0  0  0  0  0  0  0  0  0  0  0  0
  152.5063  140.5434  156.9177 H   0  0  0  0  0  0  0  0  0  0  0  0
  150.4200  141.2643  159.0311 H   0  0  0  0  0  0  0  0  0  0  0  0
  152.0839  141.7966  158.9947 H   0  0  0  0  0  0  0  0  0  0  0  0
  150.5107  143.5639  158.1295 H   0  0  0  0  0  0  0  0  0  0  0  0
  151.6762  143.0876  156.9090 H   0  0  0  0  0  0  0  0  0  0  0  0
  148.9163  142.1194  157.1418 H   0  0  0  0  0  0  0  0  0  0  0  0
  150.8672  141.5299  155.0350 H   0  0  0  0  0  0  0  0  0  0  0  0
  149.1905  141.0188  155.0680 H   0  0  0  0  0  0  0  0  0  0  0  0
  149.4867  143.1724  156.0174 H   0  0  0  0  0  0  0  0  0  0  0  0
  1  5  1  0  0  0  0
  1  2  2  0  0  0  0
  1 13  1  0  0  0  0
  2  3  1  0  0  0  0
  3 12  1  0  0  0  0
  3  4  1  0  0  0  0
  4  5  2  0  0  0  0
  4 14  1  0  0  0  0
  5  6  1  0  0  0  0
  6 11  1  0  0  0  0
  6  7  1  0  0  0  0
  6 15  1  0  0  0  0
  7  8  1  0  0  0  0
  7 16  1  0  0  0  0
  7 17  1  0  0  0  0
  8  9  1  0  0  0  0
  8 18  1  0  0  0  0
  8 19  1  0  0  0  0
  9 10  1  0  0  0  0
  9 20  1  0  0  0  0
  9 21  1  0  0  0  0
 10 11  1  0  0  0  0
 10 22  1  0  0  0  0
 10 25  1  0  0  0  0
 11 23  1  0  0  0  0
 11 24  1  0  0  0  0
M  CHG  1  10   1
M  END
> <s_m_source_file>
AV-unprocessed.smi

> <i_m_source_file_index>
3072

> <i_lp_mmshare_version>
43012

> <i_f3d_flags>
0

> <s_epik_input>
W2NIXTFbbkhdbltjSF1jMVtDQEBIXTJbQ0gyXVtDSDJdW0NIMl1bTkhdW0NIMl0y

> <s_epik_cmdline>
J2VwaWtfcHl0aG9uJywgJy1waCcsICc3LjAnLCAnLXRuJywgJzgnLCAnLW1hJywgJzIwMCcsICctbWV0YWxfYmluZGluZycsICctaW1hZScsICc8aW5maWxlLm1hZT4nLCAnLW9tYWUnLCAnPG91dGZpbGUubWFlPic=

> <r_lp_tautomer_probability>
1

> <r_epik_Ionization_Penalty>
0.000160186

> <r_epik_Ionization_Penalty_Charging>
0.000157527

> <r_epik_Ionization_Penalty_Neutral>
2.65916e-06

> <r_epik_State_Penalty>
-0

> <r_epik_Charging_Adjusted_Penalty>
0.000157527

> <i_epik_Tot_Q>
1

> <i_epik_Tot_abs_Q>
1

> <r_epik_Metal_State_Penalty>
-0

> <b_epik_Metal_Only>
0

> <s_lp_Force_Field>
OPLS_2005

> <r_lp_Energy>
12.3326

> <b_lp_Chiralities_Consistent>
1

> <s_lp_Variant>
AV-unprocessed.smi:3072-2

> <Gold.Version>
5.8.1

> <Gold.Id.Protein>
6NUR|6NUR_protein|mol2

> <Gold.PLP.Fitness>
35.5433

> <Gold.PLP.PLP>
-20.7187

> <Gold.PLP.part.hbond>
-3.7513

> <Gold.PLP.part.metal>
0.0000

> <Gold.PLP.part.buried>
-4.1318

> <Gold.PLP.part.nonpolar>
-13.8506

> <Gold.PLP.part.repulsive>
0.3068

> <Gold.PLP.ligand.clash>
0.0000

> <Gold.PLP.ligand.torsion>
0.0938

> <Gold.PLP.Chemscore.Hbond>
4.0000

> <Gold.PLP.Chemscore.CHOScore>
1.0000

> <Gold.PLP.Chemscore.Metal>
0.0000

> <Gold.Chemscore.Hbonds>
donor molecule, donor type, donor heavy atom, donor atom, acceptor molecule, acceptor atom, score
      L1  H     3    12       P1  7949  1.00
      L1  H    10    25       P1  8028  2.00
      P1  H 10752 10764       L1     2  1.00
      L1  C     4    14       P1  7957  0.98

> <Gold.PLP.Chemscore.Internal.Correction>
0.0123

> <Gold.Rescore>
     Score         DG    S(hbond)    S(metal)    S(lipo)     H(rot)  DE(clash)    DE(int)     intcor
     18.52     -18.63       2.80        0.00      54.45       1.00       0.10       0.01       ----

> <Gold.Chemscore.Fitness>
18.5195

> <Gold.Chemscore.DG>
-18.6301

> <Gold.Chemscore.ZeroCoef>
-5.4800

> <Gold.Chemscore.Hbond>
2.7963

> <Gold.Chemscore.Metal>
0.0000

> <Gold.Chemscore.Lipo>
54.4481

> <Gold.Chemscore.Internal_Hbond>
0.0000

> <Gold.Chemscore.DEClash>
0.1035

> <Gold.Chemscore.DEInternal>
0.0071

> <Gold.Chemscore.Rot>
1.0000

> <Gold.Chemscore.Internal.Correction>
   9.000000E+99

> <Gold.Chemscore.Hbonds>
donor molecule, donor type, donor heavy atom, donor atom, acceptor molecule, acceptor atom, score
      L1  H     3    12       P1  7949  0.55
      L1  H    10    25       P1  8028  0.99
      P1  H 10752 10764       L1     2  0.74

> <Gold.Chemscore.Hbond.Weighted>
-9.3397

> <Gold.Chemscore.Metal.Weighted>
-0.0000

> <Gold.Chemscore.Lipo.Weighted>
-6.3704

> <Gold.Chemscore.Internal_Hbond.Weighted>
0.0000

> <Gold.Chemscore.DEClash.Weighted>
0.1035

> <Gold.Chemscore.DEInternal.Weighted>
0.0071

> <Gold.Chemscore.Rot.Weighted>
2.5600

> <Gold.Chemscore.Internal.Correction.Weighted>
   9.000000E+99

> <Gold.Protein.RotatedTorsions>
[ 6907 6896 6895 6894 ] final  121.81 input  -60.11 | X-H torsion
[ 7974 7965 7964 7962 ] final   49.94 input  175.53 | X-H torsion
[ 8008 7997 7996 7995 ] final   68.43 input   59.86 | X-H torsion
[ 10167 10162 10161 10158 ] final -134.58 input  -65.29 | X-H torsion
[ 10718 10713 10712 10709 ] final    3.32 input   66.30 | X-H torsion
[ 10763 10752 10751 10750 ] final  -64.04 input  -60.55 | X-H torsion
[ 11005 11000 10999 10996 ] final  -29.89 input  -57.11 | X-H torsion

> <Gold.Protein.ActiveResidues>
 VAL166  LYS551  ARG553  GLY616  TRP617  ASP618  TYR619  PRO620  LYS621  CYS622 
 ASP623  PHE694  ASN695  SER759  ASP760  ASP761  ALA762  ILE779  LEU786  VAL792 
 PHE793  MET794  SER795  GLU796  ALA797  LYS798  CYS799  TRP800  GLU811  SER814 

> <Gold.Protein.RotatedAtoms>
  152.4292  133.7248  159.6553 H   0  0  0  0  0  0  0  0  0  0  0  0  # atno 6907 bound_to 6896
  150.8170  133.8308  159.3162 H   0  0  0  0  0  0  0  0  0  0  0  0  # atno 6908 bound_to 6896
  151.6002  135.1050  160.0110 H   0  0  0  0  0  0  0  0  0  0  0  0  # atno 6909 bound_to 6896
  146.0061  139.4491  142.9985 H   0  0  0  0  0  0  0  0  0  0  0  0  # atno 7974 bound_to 7965
  155.7082  140.3494  155.4962 H   0  0  0  0  0  0  0  0  0  0  0  0  # atno 8008 bound_to 7997
  155.9380  140.1096  157.1101 H   0  0  0  0  0  0  0  0  0  0  0  0  # atno 8009 bound_to 7997
  154.4097  140.1218  156.4876 H   0  0  0  0  0  0  0  0  0  0  0  0  # atno 8010 bound_to 7997
  139.8866  143.6773  152.2619 H   0  0  0  0  0  0  0  0  0  0  0  0  # atno 10167 bound_to 10162
  156.8761  130.5637  149.5655 H   0  0  0  0  0  0  0  0  0  0  0  0  # atno 10718 bound_to 10713
  154.3241  135.6190  153.5521 H   0  0  0  0  0  0  0  0  0  0  0  0  # atno 10763 bound_to 10752
  152.9817  135.5731  154.5036 H   0  0  0  0  0  0  0  0  0  0  0  0  # atno 10764 bound_to 10752
  154.4710  135.2859  155.1619 H   0  0  0  0  0  0  0  0  0  0  0  0  # atno 10765 bound_to 10752
  140.9336  133.7323  156.0972 H   0  0  0  0  0  0  0  0  0  0  0  0  # atno 11005 bound_to 11000
  145.7414  141.0006  143.1299 LP  0  0  0  0  0  0  0  0  0  0  0  0  # atno 17320 bound_to 7965
  144.6936  139.9104  143.7463 LP  0  0  0  0  0  0  0  0  0  0  0  0  # atno 17321 bound_to 7965
  139.7147  144.7614  151.1053 LP  0  0  0  0  0  0  0  0  0  0  0  0  # atno 17342 bound_to 10162
  140.7734  143.5285  150.9452 LP  0  0  0  0  0  0  0  0  0  0  0  0  # atno 17343 bound_to 10162
  156.0701  130.5736  150.9367 LP  0  0  0  0  0  0  0  0  0  0  0  0  # atno 17370 bound_to 10713
  157.6167  131.0932  150.8696 LP  0  0  0  0  0  0  0  0  0  0  0  0  # atno 17371 bound_to 10713
  140.7830  134.3704  157.5483 LP  0  0  0  0  0  0  0  0  0  0  0  0  # atno 17394 bound_to 11000
  139.8802  134.9093  156.2988 LP  0  0  0  0  0  0  0  0  0  0  0  0  # atno 17395 bound_to 11000

$$$$
