AV-unprocessed.smi:2009|AV-procd|sdf|8147|dock4
  -GOLD-   2272010383D 1   1.00000     0.00000
 Structure written by MMmdl.
 37 38  0  0  0  0  0  0  0  0  2 V2000
  154.1240  137.4802  156.6449 C   0  0  0  0  0  0  0  0  0  0  0  0
  152.8057  138.2054  156.3424 C   0  0  2  0  0  0  0  0  0  0  0  0
  152.5831  138.3913  154.8202 C   0  0  0  0  0  0  0  0  0  0  0  0
  151.2668  138.9135  154.4640 N   0  0  0  0  0  0  0  0  0  0  0  0
  150.1666  138.2186  154.0004 C   0  0  0  0  0  0  0  0  0  0  0  0
  149.1593  139.1205  153.8118 C   0  0  0  0  0  0  0  0  0  0  0  0
  149.7389  140.3590  154.2039 C   0  0  0  0  0  0  0  0  0  0  0  0
  150.9933  140.2325  154.6053 N   0  0  0  0  0  0  0  0  0  0  0  0
  152.8191  139.5010  157.0083 N   0  5  0  0  0  0  0  0  0  0  0  0
  151.8552  139.7435  158.2899 S   0  0  0  0  0  0  0  0  0  0  0  0
  150.4317  139.4766  158.0260 O   0  0  0  0  0  0  0  0  0  0  0  0
  152.4322  139.2146  159.5368 O   0  0  0  0  0  0  0  0  0  0  0  0
  152.0071  141.4743  158.3656 N   0  0  0  0  0  0  0  0  0  0  0  0
  152.4970  142.0429  159.6391 C   0  0  0  0  0  0  0  0  0  0  0  0
  152.9197  143.5134  159.4843 C   0  0  0  0  0  0  0  0  0  0  0  0
  151.7880  144.3583  158.8956 C   0  0  0  0  0  0  0  0  0  0  0  0
  151.3560  143.7503  157.5597 C   0  0  0  0  0  0  0  0  0  0  0  0
  150.9401  142.2799  157.7265 C   0  0  0  0  0  0  0  0  0  0  0  0
  154.1444  136.4965  156.1758 H   0  0  0  0  0  0  0  0  0  0  0  0
  154.2557  137.3340  157.7177 H   0  0  0  0  0  0  0  0  0  0  0  0
  154.9828  138.0421  156.2757 H   0  0  0  0  0  0  0  0  0  0  0  0
  152.0018  137.5706  156.7181 H   0  0  0  0  0  0  0  0  0  0  0  0
  153.3400  139.0590  154.4060 H   0  0  0  0  0  0  0  0  0  0  0  0
  152.7140  137.4353  154.3113 H   0  0  0  0  0  0  0  0  0  0  0  0
  150.1982  137.1517  153.8380 H   0  0  0  0  0  0  0  0  0  0  0  0
  148.1617  138.9248  153.4486 H   0  0  0  0  0  0  0  0  0  0  0  0
  149.2869  141.3396  154.2135 H   0  0  0  0  0  0  0  0  0  0  0  0
  151.7133  141.9483  160.3917 H   0  0  0  0  0  0  0  0  0  0  0  0
  153.3505  141.4679  159.9970 H   0  0  0  0  0  0  0  0  0  0  0  0
  153.2207  143.9157  160.4518 H   0  0  0  0  0  0  0  0  0  0  0  0
  153.7966  143.5745  158.8382 H   0  0  0  0  0  0  0  0  0  0  0  0
  150.9436  144.3860  159.5853 H   0  0  0  0  0  0  0  0  0  0  0  0
  152.1176  145.3878  158.7542 H   0  0  0  0  0  0  0  0  0  0  0  0
  150.5289  144.3233  157.1398 H   0  0  0  0  0  0  0  0  0  0  0  0
  152.1750  143.8178  156.8424 H   0  0  0  0  0  0  0  0  0  0  0  0
  150.6918  141.8713  156.7483 H   0  0  0  0  0  0  0  0  0  0  0  0
  150.0356  142.2092  158.3317 H   0  0  0  0  0  0  0  0  0  0  0  0
  1  2  1  0  0  0  0
  1 19  1  0  0  0  0
  1 20  1  0  0  0  0
  1 21  1  0  0  0  0
  2  3  1  0  0  0  0
  2  9  1  0  0  0  0
  2 22  1  0  0  0  0
  3  4  1  0  0  0  0
  3 23  1  0  0  0  0
  3 24  1  0  0  0  0
  4  8  1  0  0  0  0
  4  5  1  0  0  0  0
  5  6  2  0  0  0  0
  5 25  1  0  0  0  0
  6  7  1  0  0  0  0
  6 26  1  0  0  0  0
  7  8  2  0  0  0  0
  7 27  1  0  0  0  0
  9 10  1  0  0  0  0
 10 11  2  0  0  0  0
 10 12  2  0  0  0  0
 10 13  1  0  0  0  0
 13 18  1  0  0  0  0
 13 14  1  0  0  0  0
 14 15  1  0  0  0  0
 14 28  1  0  0  0  0
 14 29  1  0  0  0  0
 15 16  1  0  0  0  0
 15 30  1  0  0  0  0
 15 31  1  0  0  0  0
 16 17  1  0  0  0  0
 16 32  1  0  0  0  0
 16 33  1  0  0  0  0
 17 18  1  0  0  0  0
 17 34  1  0  0  0  0
 17 35  1  0  0  0  0
 18 36  1  0  0  0  0
 18 37  1  0  0  0  0
M  CHG  1   9  -1
M  END
> <s_m_source_file>
AV-unprocessed.smi

> <i_m_source_file_index>
2009

> <i_lp_mmshare_version>
43012

> <i_f3d_flags>
0

> <s_epik_input>
bjFbY0hdW2NIXVtjSF1uMVtDSDJdW0NAQEhdKFtDSDNdKVtOSF1TKD1PKSg9TylOMltDSDJdW0NIMl1bQ0gyXVtDSDJdW0NIMl0y

> <s_epik_cmdline>
J2VwaWtfcHl0aG9uJywgJy1waCcsICc3LjAnLCAnLXRuJywgJzgnLCAnLW1hJywgJzIwMCcsICctbWV0YWxfYmluZGluZycsICctaW1hZScsICc8aW5maWxlLm1hZT4nLCAnLW9tYWUnLCAnPG91dGZpbGUubWFlPic=

> <r_lp_tautomer_probability>
1

> <r_epik_Ionization_Penalty>
1.75622

> <r_epik_Ionization_Penalty_Charging>
1.7562

> <r_epik_Ionization_Penalty_Neutral>
2.38826e-05

> <r_epik_State_Penalty>
1.86645

> <r_epik_Charging_Adjusted_Penalty>
3.62264

> <i_epik_Tot_Q>
-1

> <i_epik_Tot_abs_Q>
1

> <r_epik_Metal_State_Penalty>
0.460135

> <b_epik_Metal_Only>
0

> <s_lp_Force_Field>
OPLS_2005

> <r_lp_Energy>
5.98775

> <b_lp_Chiralities_Consistent>
1

> <s_lp_Variant>
AV-unprocessed.smi:2009-3

> <Gold.Version>
5.8.1

> <Gold.Id.Protein>
6NUR|6NUR_protein|mol2

> <Gold.PLP.Fitness>
45.7142

> <Gold.PLP.PLP>
-35.7301

> <Gold.PLP.part.hbond>
-2.0000

> <Gold.PLP.part.metal>
0.0000

> <Gold.PLP.part.buried>
-0.2039

> <Gold.PLP.part.nonpolar>
-33.6510

> <Gold.PLP.part.repulsive>
0.0738

> <Gold.PLP.ligand.clash>
0.0000

> <Gold.PLP.ligand.torsion>
1.5335

> <Gold.PLP.Chemscore.Hbond>
2.9500

> <Gold.PLP.Chemscore.CHOScore>
0.8716

> <Gold.PLP.Chemscore.Metal>
0.0000

> <Gold.Chemscore.Hbonds>
donor molecule, donor type, donor heavy atom, donor atom, acceptor molecule, acceptor atom, score
      P1  H  7989  7998       L1     8  0.67
      P1  H  7997  8009       L1     9  2.00
      L1  C     5    25       P1  7948  0.76
      L1  C     5    25       P1  7949  0.08

> <Gold.PLP.Chemscore.Internal.Correction>
1.5865

> <Gold.Rescore>
     Score         DG    S(hbond)    S(metal)    S(lipo)     H(rot)  DE(clash)    DE(int)     intcor
     16.43     -18.38       1.83        0.00      92.36       1.57       0.16       1.78       ----

> <Gold.Chemscore.Fitness>
16.4272

> <Gold.Chemscore.DG>
-18.3763

> <Gold.Chemscore.ZeroCoef>
-5.4800

> <Gold.Chemscore.Hbond>
1.8270

> <Gold.Chemscore.Metal>
0.0000

> <Gold.Chemscore.Lipo>
92.3577

> <Gold.Chemscore.Internal_Hbond>
0.0000

> <Gold.Chemscore.DEClash>
0.1648

> <Gold.Chemscore.DEInternal>
1.7842

> <Gold.Chemscore.Rot>
1.5672

> <Gold.Chemscore.Internal.Correction>
   9.000000E+99

> <Gold.Chemscore.Hbonds>
donor molecule, donor type, donor heavy atom, donor atom, acceptor molecule, acceptor atom, score
      P1  H  7989  7998       L1     8  0.07
      P1  H  7997  8009       L1     9  0.30

> <Gold.Chemscore.Hbond.Weighted>
-6.1023

> <Gold.Chemscore.Metal.Weighted>
-0.0000

> <Gold.Chemscore.Lipo.Weighted>
-10.8059

> <Gold.Chemscore.Internal_Hbond.Weighted>
0.0000

> <Gold.Chemscore.DEClash.Weighted>
0.1648

> <Gold.Chemscore.DEInternal.Weighted>
1.7842

> <Gold.Chemscore.Rot.Weighted>
4.0119

> <Gold.Chemscore.Internal.Correction.Weighted>
   9.000000E+99

> <Gold.Protein.RotatedTorsions>
[ 6907 6896 6895 6894 ] final   46.58 input  -60.11 | X-H torsion
[ 7974 7965 7964 7962 ] final  125.48 input  175.53 | X-H torsion
[ 8008 7997 7996 7995 ] final -174.71 input   59.86 | X-H torsion
[ 10167 10162 10161 10158 ] final   88.30 input  -65.29 | X-H torsion
[ 10718 10713 10712 10709 ] final  -33.00 input   66.30 | X-H torsion
[ 10763 10752 10751 10750 ] final  -68.69 input  -60.55 | X-H torsion
[ 11005 11000 10999 10996 ] final  105.73 input  -57.11 | X-H torsion

> <Gold.Protein.ActiveResidues>
 VAL166  LYS551  ARG553  GLY616  TRP617  ASP618  TYR619  PRO620  LYS621  CYS622 
 ASP623  PHE694  ASN695  SER759  ASP760  ASP761  ALA762  ILE779  LEU786  VAL792 
 PHE793  MET794  SER795  GLU796  ALA797  LYS798  CYS799  TRP800  GLU811  SER814 

> <Gold.Protein.RotatedAtoms>
  152.2580  134.8064  160.0435 H   0  0  0  0  0  0  0  0  0  0  0  0  # atno 6907 bound_to 6896
  151.8720  133.3472  159.3746 H   0  0  0  0  0  0  0  0  0  0  0  0  # atno 6908 bound_to 6896
  150.7107  134.5030  159.5615 H   0  0  0  0  0  0  0  0  0  0  0  0  # atno 6909 bound_to 6896
  145.0725  139.3719  143.4950 H   0  0  0  0  0  0  0  0  0  0  0  0  # atno 7974 bound_to 7965
  155.9735  140.1167  157.0791 H   0  0  0  0  0  0  0  0  0  0  0  0  # atno 8008 bound_to 7997
  154.4163  140.1158  156.5406 H   0  0  0  0  0  0  0  0  0  0  0  0  # atno 8009 bound_to 7997
  155.6565  140.3473  155.4769 H   0  0  0  0  0  0  0  0  0  0  0  0  # atno 8010 bound_to 7997
  139.8686  144.6505  150.8975 H   0  0  0  0  0  0  0  0  0  0  0  0  # atno 10167 bound_to 10162
  156.3680  130.4335  149.7569 H   0  0  0  0  0  0  0  0  0  0  0  0  # atno 10718 bound_to 10713
  154.3926  135.6049  153.5852 H   0  0  0  0  0  0  0  0  0  0  0  0  # atno 10763 bound_to 10752
  152.9787  135.5887  154.4279 H   0  0  0  0  0  0  0  0  0  0  0  0  # atno 10764 bound_to 10752
  154.4066  135.2843  155.2041 H   0  0  0  0  0  0  0  0  0  0  0  0  # atno 10765 bound_to 10752
  139.8805  134.9345  156.5558 H   0  0  0  0  0  0  0  0  0  0  0  0  # atno 11005 bound_to 11000
  146.3529  140.0476  142.8638 LP  0  0  0  0  0  0  0  0  0  0  0  0  # atno 17320 bound_to 7965
  145.1276  140.9499  143.4564 LP  0  0  0  0  0  0  0  0  0  0  0  0  # atno 17321 bound_to 7965
  140.7764  143.3683  151.1698 LP  0  0  0  0  0  0  0  0  0  0  0  0  # atno 17342 bound_to 10162
  139.7305  143.9080  152.3018 LP  0  0  0  0  0  0  0  0  0  0  0  0  # atno 17343 bound_to 10162
  156.4707  130.7995  151.3013 LP  0  0  0  0  0  0  0  0  0  0  0  0  # atno 17370 bound_to 10713
  157.7481  131.0037  150.3046 LP  0  0  0  0  0  0  0  0  0  0  0  0  # atno 17371 bound_to 10713
  140.8206  133.8357  155.8892 LP  0  0  0  0  0  0  0  0  0  0  0  0  # atno 17394 bound_to 11000
  140.9422  134.1886  157.4789 LP  0  0  0  0  0  0  0  0  0  0  0  0  # atno 17395 bound_to 11000

$$$$
