AV-unprocessed.smi:3315|AV-procd|sdf|12751|dock9
  -GOLD-   2272019 93D 1   1.00000     0.00000
 Structure written by MMmdl.
 37 38  0  0  0  0  0  0  0  0  1 V2000
  141.6377  135.3672  152.8640 C   0  0  0  0  0  0  0  0  0  0  0  0
  142.9013  135.0427  153.4311 O   0  0  0  0  0  0  0  0  0  0  0  0
  144.0072  134.8847  152.5312 C   0  0  1  0  0  0  0  0  0  0  0  0
  143.6889  133.8234  151.4706 C   0  0  0  0  0  0  0  0  0  0  0  0
  144.5345  136.2623  152.0858 C   0  0  0  0  0  0  0  0  0  0  0  0
  145.3393  136.2922  153.3833 C   0  0  2  0  0  0  0  0  0  0  0  0
  146.6578  136.8937  153.2123 N   0  0  0  0  0  0  0  0  0  0  0  0
  147.0399  138.0497  153.7722 C   0  0  0  0  0  0  0  0  0  0  0  0
  146.3086  138.7290  154.4932 O   0  0  0  0  0  0  0  0  0  0  0  0
  148.3073  138.3554  153.4460 N   0  0  0  0  0  0  0  0  0  0  0  0
  149.0586  139.4835  153.8633 C   0  0  0  0  0  0  0  0  0  0  0  0
  148.5250  140.7953  153.7546 C   0  0  0  0  0  0  0  0  0  0  0  0
  149.5331  141.5743  154.2471 C   0  0  0  0  0  0  0  0  0  0  0  0
  150.5919  140.8091  154.6240 O   0  0  0  0  0  0  0  0  0  0  0  0
  150.2807  139.4669  154.3748 N   0  0  0  0  0  0  0  0  0  0  0  0
  145.3163  134.7416  153.3757 C   0  0  0  0  0  0  0  0  0  0  0  0
  145.1781  134.0674  154.7454 C   0  0  0  0  0  0  0  0  0  0  0  0
  146.4950  134.0348  152.6798 C   0  0  0  0  0  0  0  0  0  0  0  0
  140.9367  135.5938  153.6669 H   0  0  0  0  0  0  0  0  0  0  0  0
  141.2216  134.5317  152.3017 H   0  0  0  0  0  0  0  0  0  0  0  0
  141.6851  136.2392  152.2128 H   0  0  0  0  0  0  0  0  0  0  0  0
  144.5513  133.6076  150.8410 H   0  0  0  0  0  0  0  0  0  0  0  0
  142.8965  134.1456  150.7954 H   0  0  0  0  0  0  0  0  0  0  0  0
  143.3772  132.8853  151.9303 H   0  0  0  0  0  0  0  0  0  0  0  0
  145.1533  136.2077  151.1883 H   0  0  0  0  0  0  0  0  0  0  0  0
  143.7953  137.0581  152.0018 H   0  0  0  0  0  0  0  0  0  0  0  0
  144.7609  136.7216  154.2048 H   0  0  0  0  0  0  0  0  0  0  0  0
  147.3174  136.3968  152.6318 H   0  0  0  0  0  0  0  0  0  0  0  0
  148.7883  137.7090  152.8382 H   0  0  0  0  0  0  0  0  0  0  0  0
  147.5643  141.1151  153.3791 H   0  0  0  0  0  0  0  0  0  0  0  0
  149.6454  142.6391  154.3881 H   0  0  0  0  0  0  0  0  0  0  0  0
  146.1206  134.0748  155.2939 H   0  0  0  0  0  0  0  0  0  0  0  0
  144.8609  133.0289  154.6478 H   0  0  0  0  0  0  0  0  0  0  0  0
  144.4473  134.5722  155.3774 H   0  0  0  0  0  0  0  0  0  0  0  0
  147.4180  134.1322  153.2522 H   0  0  0  0  0  0  0  0  0  0  0  0
  146.6922  134.4412  151.6877 H   0  0  0  0  0  0  0  0  0  0  0  0
  146.3047  132.9679  152.5584 H   0  0  0  0  0  0  0  0  0  0  0  0
  1  2  1  0  0  0  0
  1 19  1  0  0  0  0
  1 20  1  0  0  0  0
  1 21  1  0  0  0  0
  2  3  1  0  0  0  0
  3 16  1  0  0  0  0
  3  4  1  0  0  0  0
  3  5  1  0  0  0  0
  4 22  1  0  0  0  0
  4 23  1  0  0  0  0
  4 24  1  0  0  0  0
  5  6  1  0  0  0  0
  5 25  1  0  0  0  0
  5 26  1  0  0  0  0
  6  7  1  0  0  0  0
  6 16  1  0  0  0  0
  6 27  1  0  0  0  0
  7  8  1  0  0  0  0
  7 28  1  0  0  0  0
  8  9  2  0  0  0  0
  8 10  1  0  0  0  0
 10 11  1  0  0  0  0
 10 29  1  0  0  0  0
 11 15  2  0  0  0  0
 11 12  1  0  0  0  0
 12 13  2  0  0  0  0
 12 30  1  0  0  0  0
 13 14  1  0  0  0  0
 13 31  1  0  0  0  0
 14 15  1  0  0  0  0
 16 17  1  0  0  0  0
 16 18  1  0  0  0  0
 17 32  1  0  0  0  0
 17 33  1  0  0  0  0
 17 34  1  0  0  0  0
 18 35  1  0  0  0  0
 18 36  1  0  0  0  0
 18 37  1  0  0  0  0
M  END
> <s_m_source_file>
AV-unprocessed.smi

> <i_m_source_file_index>
3315

> <i_lp_mmshare_version>
43012

> <i_f3d_flags>
0

> <s_epik_input>
W0NIM11PW0NAQF0xKFtDSDNdKVtDSDJdW0NASF0oQzEoW0NIM10pW0NIM10pW05IXUMoPU8pW05IXWMyW2NIXVtjSF1vbjI=

> <s_epik_cmdline>
J2VwaWtfcHl0aG9uJywgJy1waCcsICc3LjAnLCAnLXRuJywgJzgnLCAnLW1hJywgJzIwMCcsICctbWV0YWxfYmluZGluZycsICctaW1hZScsICc8aW5maWxlLm1hZT4nLCAnLW9tYWUnLCAnPG91dGZpbGUubWFlPic=

> <r_lp_tautomer_probability>
1

> <r_epik_Ionization_Penalty>
2.28875e-05

> <r_epik_Ionization_Penalty_Charging>
0

> <r_epik_Ionization_Penalty_Neutral>
2.28875e-05

> <r_epik_State_Penalty>
-0

> <r_epik_Charging_Adjusted_Penalty>
0

> <i_epik_Tot_Q>
0

> <i_epik_Tot_abs_Q>
0

> <r_epik_Metal_State_Penalty>
-0

> <b_epik_Metal_Only>
0

> <s_lp_Force_Field>
OPLS_2005

> <r_lp_Energy>
22.1239

> <b_lp_Chiralities_Consistent>
1

> <s_lp_Variant>
AV-unprocessed.smi:3315-3

> <Gold.Version>
5.8.1

> <Gold.Id.Protein>
6NUR|6NUR_protein|mol2

> <Gold.PLP.Fitness>
32.9142

> <Gold.PLP.PLP>
-22.9560

> <Gold.PLP.part.hbond>
-3.1711

> <Gold.PLP.part.metal>
0.0000

> <Gold.PLP.part.buried>
-2.5763

> <Gold.PLP.part.nonpolar>
-17.8588

> <Gold.PLP.part.repulsive>
0.4362

> <Gold.PLP.ligand.clash>
0.0000

> <Gold.PLP.ligand.torsion>
0.7407

> <Gold.PLP.Chemscore.Hbond>
2.6944

> <Gold.PLP.Chemscore.CHOScore>
0.9948

> <Gold.PLP.Chemscore.Metal>
0.0000

> <Gold.Chemscore.Hbonds>
donor molecule, donor type, donor heavy atom, donor atom, acceptor molecule, acceptor atom, score
      L1  H     7    28       P1  7948  1.00
      L1  H    10    29       P1  7948  1.00
      P1  H  7989  7998       L1    14  0.58
      L1  C    13    31       P1  8028  0.99

> <Gold.PLP.Chemscore.Internal.Correction>
0.3721

> <Gold.Rescore>
     Score         DG    S(hbond)    S(metal)    S(lipo)     H(rot)  DE(clash)    DE(int)     intcor
     13.32     -14.17       1.97        0.00      46.70       1.30       0.03       0.82       ----

> <Gold.Chemscore.Fitness>
13.3243

> <Gold.Chemscore.DG>
-14.1744

> <Gold.Chemscore.ZeroCoef>
-5.4800

> <Gold.Chemscore.Hbond>
1.9665

> <Gold.Chemscore.Metal>
0.0000

> <Gold.Chemscore.Lipo>
46.7007

> <Gold.Chemscore.Internal_Hbond>
0.0000

> <Gold.Chemscore.DEClash>
0.0294

> <Gold.Chemscore.DEInternal>
0.8208

> <Gold.Chemscore.Rot>
1.3038

> <Gold.Chemscore.Internal.Correction>
   9.000000E+99

> <Gold.Chemscore.Hbonds>
donor molecule, donor type, donor heavy atom, donor atom, acceptor molecule, acceptor atom, score
      L1  H     7    28       P1  7948  0.96
      L1  H    10    29       P1  7948  0.99
      P1  H  7989  7998       L1    14  0.03

> <Gold.Chemscore.Hbond.Weighted>
-6.5682

> <Gold.Chemscore.Metal.Weighted>
-0.0000

> <Gold.Chemscore.Lipo.Weighted>
-5.4640

> <Gold.Chemscore.Internal_Hbond.Weighted>
0.0000

> <Gold.Chemscore.DEClash.Weighted>
0.0294

> <Gold.Chemscore.DEInternal.Weighted>
0.8208

> <Gold.Chemscore.Rot.Weighted>
3.3377

> <Gold.Chemscore.Internal.Correction.Weighted>
   9.000000E+99

> <Gold.Protein.RotatedTorsions>
[ 6907 6896 6895 6894 ] final  -65.98 input  -60.11 | X-H torsion
[ 7974 7965 7964 7962 ] final  -85.76 input  175.53 | X-H torsion
[ 8008 7997 7996 7995 ] final  -67.29 input   59.86 | X-H torsion
[ 10167 10162 10161 10158 ] final  -23.29 input  -65.29 | X-H torsion
[ 10718 10713 10712 10709 ] final  -70.04 input   66.30 | X-H torsion
[ 10763 10752 10751 10750 ] final   57.68 input  -60.55 | X-H torsion
[ 11005 11000 10999 10996 ] final  179.65 input  -57.11 | X-H torsion

> <Gold.Protein.ActiveResidues>
 VAL166  LYS551  ARG553  GLY616  TRP617  ASP618  TYR619  PRO620  LYS621  CYS622 
 ASP623  PHE694  ASN695  SER759  ASP760  ASP761  ALA762  ILE779  LEU786  VAL792 
 PHE793  MET794  SER795  GLU796  ALA797  LYS798  CYS799  TRP800  GLU811  SER814 

> <Gold.Protein.RotatedAtoms>
  150.7492  134.6085  159.6073 H   0  0  0  0  0  0  0  0  0  0  0  0  # atno 6907 bound_to 6896
  152.3426  134.7111  160.0268 H   0  0  0  0  0  0  0  0  0  0  0  0  # atno 6908 bound_to 6896
  151.7559  133.3294  159.3441 H   0  0  0  0  0  0  0  0  0  0  0  0  # atno 6909 bound_to 6896
  145.4890  140.9553  143.1822 H   0  0  0  0  0  0  0  0  0  0  0  0  # atno 7974 bound_to 7965
  154.4790  140.0895  156.7332 H   0  0  0  0  0  0  0  0  0  0  0  0  # atno 8008 bound_to 7997
  155.4520  140.3458  155.4284 H   0  0  0  0  0  0  0  0  0  0  0  0  # atno 8009 bound_to 7997
  156.1162  140.1461  156.9258 H   0  0  0  0  0  0  0  0  0  0  0  0  # atno 8010 bound_to 7997
  140.7288  143.4456  151.0591 H   0  0  0  0  0  0  0  0  0  0  0  0  # atno 10167 bound_to 10162
  156.0427  130.4324  150.2236 H   0  0  0  0  0  0  0  0  0  0  0  0  # atno 10718 bound_to 10713
  152.9855  135.5633  154.5430 H   0  0  0  0  0  0  0  0  0  0  0  0  # atno 10763 bound_to 10752
  154.4881  135.2791  155.1520 H   0  0  0  0  0  0  0  0  0  0  0  0  # atno 10764 bound_to 10752
  154.3001  135.6309  153.5474 H   0  0  0  0  0  0  0  0  0  0  0  0  # atno 10765 bound_to 10752
  140.4085  134.6713  157.4601 H   0  0  0  0  0  0  0  0  0  0  0  0  # atno 11005 bound_to 11000
  144.7845  139.6456  143.7140 LP  0  0  0  0  0  0  0  0  0  0  0  0  # atno 17320 bound_to 7965
  146.2296  139.5787  142.9564 LP  0  0  0  0  0  0  0  0  0  0  0  0  # atno 17321 bound_to 7965
  139.8128  143.7928  152.3172 LP  0  0  0  0  0  0  0  0  0  0  0  0  # atno 17342 bound_to 10162
  139.7983  144.7384  150.9860 LP  0  0  0  0  0  0  0  0  0  0  0  0  # atno 17343 bound_to 10162
  157.0329  131.0013  151.3307 LP  0  0  0  0  0  0  0  0  0  0  0  0  # atno 17370 bound_to 10713
  157.5264  130.8031  149.7867 LP  0  0  0  0  0  0  0  0  0  0  0  0  # atno 17371 bound_to 10713
  140.0284  134.6442  155.9140 LP  0  0  0  0  0  0  0  0  0  0  0  0  # atno 17394 bound_to 11000
  141.1830  133.6550  156.5099 LP  0  0  0  0  0  0  0  0  0  0  0  0  # atno 17395 bound_to 11000

$$$$
