AV-unprocessed.smi:1350|AV-procd|sdf|5520|dock2
  -GOLD-   22720 5103D 1   1.00000     0.00000
 Structure written by MMmdl.
 43 45  0  0  0  0  0  0  0  0  1 V2000
  143.7097  144.2918  157.4813 C   0  0  0  0  0  0  0  0  0  0  0  0
  144.5536  143.4686  156.6895 O   0  0  0  0  0  0  0  0  0  0  0  0
  144.7746  143.8228  155.3738 C   0  0  0  0  0  0  0  0  0  0  0  0
  144.1571  144.9416  154.7565 C   0  0  0  0  0  0  0  0  0  0  0  0
  144.4199  145.2566  153.4099 C   0  0  0  0  0  0  0  0  0  0  0  0
  145.3024  144.4610  152.6593 C   0  0  0  0  0  0  0  0  0  0  0  0
  145.9213  143.3499  153.2584 C   0  0  0  0  0  0  0  0  0  0  0  0
  145.6614  143.0252  154.6066 C   0  0  0  0  0  0  0  0  0  0  0  0
  146.3672  141.8193  155.2055 C   0  0  0  0  0  0  0  0  0  0  0  0
  147.7273  142.1048  155.4864 O   0  0  0  0  0  0  0  0  0  0  0  0
  148.6254  141.3665  154.6745 C   0  0  0  0  0  0  0  0  0  0  0  0
  149.9630  141.2205  155.4135 C   0  0  2  0  0  0  0  0  0  0  0  0
  150.7700  140.2978  154.7082 O   0  0  0  0  0  0  0  0  0  0  0  0
  149.7848  140.7511  156.8702 C   0  0  0  0  0  0  0  0  0  0  0  0
  151.0542  140.5865  157.5545 N   0  0  0  0  0  0  0  0  0  0  0  0
  151.9218  139.5632  157.4331 C   0  0  0  0  0  0  0  0  0  0  0  0
  153.0353  139.6188  158.1586 N   0  0  0  0  0  0  0  0  0  0  0  0
  152.8715  140.8188  158.8295 C   0  0  0  0  0  0  0  0  0  0  0  0
  153.7082  141.4692  159.7647 C   0  0  0  0  0  0  0  0  0  0  0  0
  153.3266  142.7060  160.3255 C   0  0  0  0  0  0  0  0  0  0  0  0
  152.1057  143.3104  159.9614 C   0  0  0  0  0  0  0  0  0  0  0  0
  151.2558  142.6818  159.0311 C   0  0  0  0  0  0  0  0  0  0  0  0
  151.6406  141.4482  158.4742 C   0  0  0  0  0  0  0  0  0  0  0  0
  143.6343  143.8693  158.4831 H   0  0  0  0  0  0  0  0  0  0  0  0
  142.7008  144.3428  157.0696 H   0  0  0  0  0  0  0  0  0  0  0  0
  144.1136  145.3003  157.5790 H   0  0  0  0  0  0  0  0  0  0  0  0
  143.4742  145.5798  155.2960 H   0  0  0  0  0  0  0  0  0  0  0  0
  143.9433  146.1112  152.9529 H   0  0  0  0  0  0  0  0  0  0  0  0
  145.5053  144.7029  151.6265 H   0  0  0  0  0  0  0  0  0  0  0  0
  146.6004  142.7422  152.6783 H   0  0  0  0  0  0  0  0  0  0  0  0
  145.8508  141.5502  156.1281 H   0  0  0  0  0  0  0  0  0  0  0  0
  146.3064  140.9535  154.5464 H   0  0  0  0  0  0  0  0  0  0  0  0
  148.2092  140.3861  154.4365 H   0  0  0  0  0  0  0  0  0  0  0  0
  148.7764  141.8972  153.7327 H   0  0  0  0  0  0  0  0  0  0  0  0
  150.4787  142.1818  155.3998 H   0  0  0  0  0  0  0  0  0  0  0  0
  150.5903  139.4299  155.0359 H   0  0  0  0  0  0  0  0  0  0  0  0
  149.1917  141.4745  157.4311 H   0  0  0  0  0  0  0  0  0  0  0  0
  149.2397  139.8066  156.9069 H   0  0  0  0  0  0  0  0  0  0  0  0
  151.7259  138.7314  156.7720 H   0  0  0  0  0  0  0  0  0  0  0  0
  154.6458  141.0159  160.0505 H   0  0  0  0  0  0  0  0  0  0  0  0
  153.9744  143.1938  161.0389 H   0  0  0  0  0  0  0  0  0  0  0  0
  151.8218  144.2576  160.3961 H   0  0  0  0  0  0  0  0  0  0  0  0
  150.3204  143.1411  158.7479 H   0  0  0  0  0  0  0  0  0  0  0  0
  1  2  1  0  0  0  0
  1 24  1  0  0  0  0
  1 25  1  0  0  0  0
  1 26  1  0  0  0  0
  2  3  1  0  0  0  0
  3  8  1  0  0  0  0
  3  4  2  0  0  0  0
  4  5  1  0  0  0  0
  4 27  1  0  0  0  0
  5  6  2  0  0  0  0
  5 28  1  0  0  0  0
  6  7  1  0  0  0  0
  6 29  1  0  0  0  0
  7  8  2  0  0  0  0
  7 30  1  0  0  0  0
  8  9  1  0  0  0  0
  9 10  1  0  0  0  0
  9 31  1  0  0  0  0
  9 32  1  0  0  0  0
 10 11  1  0  0  0  0
 11 12  1  0  0  0  0
 11 33  1  0  0  0  0
 11 34  1  0  0  0  0
 12 13  1  0  0  0  0
 12 14  1  0  0  0  0
 12 35  1  0  0  0  0
 13 36  1  0  0  0  0
 14 15  1  0  0  0  0
 14 37  1  0  0  0  0
 14 38  1  0  0  0  0
 15 23  1  0  0  0  0
 15 16  1  0  0  0  0
 16 17  2  0  0  0  0
 16 39  1  0  0  0  0
 17 18  1  0  0  0  0
 18 23  2  0  0  0  0
 18 19  1  0  0  0  0
 19 20  2  0  0  0  0
 19 40  1  0  0  0  0
 20 21  1  0  0  0  0
 20 41  1  0  0  0  0
 21 22  2  0  0  0  0
 21 42  1  0  0  0  0
 22 23  1  0  0  0  0
 22 43  1  0  0  0  0
M  END
> <s_m_source_file>
AV-unprocessed.smi

> <i_m_source_file_index>
1350

> <i_lp_mmshare_version>
43012

> <i_f3d_flags>
0

> <s_epik_input>
W0NIM11PYzFbY0hdW2NIXVtjSF1bY0hdYzFbQ0gyXU9bQ0gyXVtDQEhdKFtPSF0pW0NIMl1uKFtjSF1uMiljKGMyMylbY0hdW2NIXVtjSF1bY0hdMw==

> <s_epik_cmdline>
J2VwaWtfcHl0aG9uJywgJy1waCcsICc3LjAnLCAnLXRuJywgJzgnLCAnLW1hJywgJzIwMCcsICctbWV0YWxfYmluZGluZycsICctaW1hZScsICc8aW5maWxlLm1hZT4nLCAnLW9tYWUnLCAnPG91dGZpbGUubWFlPic=

> <r_lp_tautomer_probability>
1

> <r_epik_Ionization_Penalty>
0.0713119

> <r_epik_Ionization_Penalty_Charging>
0

> <r_epik_Ionization_Penalty_Neutral>
0.0713119

> <r_epik_State_Penalty>
0.06259

> <r_epik_Charging_Adjusted_Penalty>
0.06259

> <i_epik_Tot_Q>
0

> <i_epik_Tot_abs_Q>
0

> <r_epik_Metal_State_Penalty>
6.60119e-05

> <b_epik_Metal_Only>
0

> <s_lp_Force_Field>
OPLS_2005

> <r_lp_Energy>
18.6906

> <b_lp_Chiralities_Consistent>
1

> <s_lp_Variant>
AV-unprocessed.smi:1350-1

> <Gold.Version>
5.8.1

> <Gold.Id.Protein>
6NUR|6NUR_protein|mol2

> <Gold.PLP.Fitness>
50.8543

> <Gold.PLP.PLP>
-46.7655

> <Gold.PLP.part.hbond>
-2.0000

> <Gold.PLP.part.metal>
0.0000

> <Gold.PLP.part.buried>
-7.4314

> <Gold.PLP.part.nonpolar>
-39.0824

> <Gold.PLP.part.repulsive>
2.0489

> <Gold.PLP.ligand.clash>
0.0000

> <Gold.PLP.ligand.torsion>
1.0224

> <Gold.PLP.Chemscore.Hbond>
2.0000

> <Gold.PLP.Chemscore.CHOScore>
0.0000

> <Gold.PLP.Chemscore.Metal>
0.0000

> <Gold.Chemscore.Hbonds>
donor molecule, donor type, donor heavy atom, donor atom, acceptor molecule, acceptor atom, score
      P1  H  7989  7998       L1    13  1.00
      P1  H  7997  8010       L1    17  1.00

> <Gold.PLP.Chemscore.Internal.Correction>
0.1335

> <Gold.Rescore>
     Score         DG    S(hbond)    S(metal)    S(lipo)     H(rot)  DE(clash)    DE(int)     intcor
     16.49     -18.24       1.69        0.00     118.45       2.63       0.07       1.69       ----

> <Gold.Chemscore.Fitness>
16.4910

> <Gold.Chemscore.DG>
-18.2440

> <Gold.Chemscore.ZeroCoef>
-5.4800

> <Gold.Chemscore.Hbond>
1.6885

> <Gold.Chemscore.Metal>
0.0000

> <Gold.Chemscore.Lipo>
118.4540

> <Gold.Chemscore.Internal_Hbond>
0.0000

> <Gold.Chemscore.DEClash>
0.0665

> <Gold.Chemscore.DEInternal>
1.6865

> <Gold.Chemscore.Rot>
2.6308

> <Gold.Chemscore.Internal.Correction>
   9.000000E+99

> <Gold.Chemscore.Hbonds>
donor molecule, donor type, donor heavy atom, donor atom, acceptor molecule, acceptor atom, score
      P1  H  7989  7998       L1    13  0.92
      P1  H  7997  8010       L1    17  0.23

> <Gold.Chemscore.Hbond.Weighted>
-5.6396

> <Gold.Chemscore.Metal.Weighted>
-0.0000

> <Gold.Chemscore.Lipo.Weighted>
-13.8591

> <Gold.Chemscore.Internal_Hbond.Weighted>
0.0000

> <Gold.Chemscore.DEClash.Weighted>
0.0665

> <Gold.Chemscore.DEInternal.Weighted>
1.6865

> <Gold.Chemscore.Rot.Weighted>
6.7347

> <Gold.Chemscore.Internal.Correction.Weighted>
   9.000000E+99

> <Gold.Protein.RotatedTorsions>
[ 6907 6896 6895 6894 ] final -156.29 input  -60.11 | X-H torsion
[ 7974 7965 7964 7962 ] final  -83.57 input  175.53 | X-H torsion
[ 8008 7997 7996 7995 ] final   33.16 input   59.86 | X-H torsion
[ 10167 10162 10161 10158 ] final  149.95 input  -65.29 | X-H torsion
[ 10718 10713 10712 10709 ] final   36.71 input   66.30 | X-H torsion
[ 10763 10752 10751 10750 ] final  145.69 input  -60.55 | X-H torsion
[ 11005 11000 10999 10996 ] final -137.30 input  -57.11 | X-H torsion

> <Gold.Protein.ActiveResidues>
 VAL166  LYS551  ARG553  GLY616  TRP617  ASP618  TYR619  PRO620  LYS621  CYS622 
 ASP623  PHE694  ASN695  SER759  ASP760  ASP761  ALA762  ILE779  LEU786  VAL792 
 PHE793  MET794  SER795  GLU796  ALA797  LYS798  CYS799  TRP800  GLU811  SER814 

> <Gold.Protein.RotatedAtoms>
  151.2854  133.4190  159.2629 H   0  0  0  0  0  0  0  0  0  0  0  0  # atno 6907 bound_to 6896
  151.0324  134.9549  159.8128 H   0  0  0  0  0  0  0  0  0  0  0  0  # atno 6908 bound_to 6896
  152.5348  134.2815  159.9061 H   0  0  0  0  0  0  0  0  0  0  0  0  # atno 6909 bound_to 6896
  145.5182  140.9534  143.1670 H   0  0  0  0  0  0  0  0  0  0  0  0  # atno 7974 bound_to 7965
  155.1341  140.3260  155.4467 H   0  0  0  0  0  0  0  0  0  0  0  0  # atno 8008 bound_to 7997
  156.2625  140.2005  156.6408 H   0  0  0  0  0  0  0  0  0  0  0  0  # atno 8009 bound_to 7997
  154.6591  140.0549  157.0028 H   0  0  0  0  0  0  0  0  0  0  0  0  # atno 8010 bound_to 7997
  139.4855  144.5561  151.7315 H   0  0  0  0  0  0  0  0  0  0  0  0  # atno 10167 bound_to 10162
  157.3382  130.7533  149.6893 H   0  0  0  0  0  0  0  0  0  0  0  0  # atno 10718 bound_to 10713
  154.0095  135.2916  155.3394 H   0  0  0  0  0  0  0  0  0  0  0  0  # atno 10763 bound_to 10752
  154.7111  135.5149  153.8671 H   0  0  0  0  0  0  0  0  0  0  0  0  # atno 10764 bound_to 10752
  153.0729  135.6654  154.0328 H   0  0  0  0  0  0  0  0  0  0  0  0  # atno 10765 bound_to 10752
  140.8724  134.2034  157.4643 H   0  0  0  0  0  0  0  0  0  0  0  0  # atno 11005 bound_to 11000
  144.7690  139.6778  143.7202 LP  0  0  0  0  0  0  0  0  0  0  0  0  # atno 17320 bound_to 7965
  146.2123  139.5488  142.9673 LP  0  0  0  0  0  0  0  0  0  0  0  0  # atno 17321 bound_to 7965
  140.5122  144.1007  150.5998 LP  0  0  0  0  0  0  0  0  0  0  0  0  # atno 17342 bound_to 10162
  140.3937  143.2739  152.0030 LP  0  0  0  0  0  0  0  0  0  0  0  0  # atno 17343 bound_to 10162
  155.9704  130.4175  150.4284 LP  0  0  0  0  0  0  0  0  0  0  0  0  # atno 17370 bound_to 10713
  157.2327  131.0508  151.2483 LP  0  0  0  0  0  0  0  0  0  0  0  0  # atno 17371 bound_to 10713
  139.8713  134.9780  156.4981 LP  0  0  0  0  0  0  0  0  0  0  0  0  # atno 17394 bound_to 11000
  140.8558  133.8097  155.9214 LP  0  0  0  0  0  0  0  0  0  0  0  0  # atno 17395 bound_to 11000

$$$$
