AV-unprocessed.smi:3250|AV-procd|sdf|12434|dock4
  -GOLD-   2272018323D 1   1.00000     0.00000
 Structure written by MMmdl.
 40 41  0  0  0  0  0  0  0  0  3 V2000
  145.9695  143.3119  153.9063 C   0  0  0  0  0  0  0  0  0  0  0  0
  145.8407  141.8058  154.1741 C   0  0  0  0  0  0  0  0  0  0  0  0
  147.1279  141.0845  154.0115 N   0  3  2  0  0  0  0  0  0  0  0  0
  146.9461  139.6139  153.9944 C   0  0  0  0  0  0  0  0  0  0  0  0
  148.2939  138.9065  153.7858 C   0  0  0  0  0  0  0  0  0  0  0  0
  149.1999  139.3063  154.8062 O   0  0  0  0  0  0  0  0  0  0  0  0
  149.4726  140.7035  154.7690 C   0  0  2  0  0  0  0  0  0  0  0  0
  150.5176  141.0160  155.8499 C   0  0  0  0  0  0  0  0  0  0  0  0
  150.4082  142.3868  156.3270 N   0  0  0  0  0  0  0  0  0  0  0  0
  151.0980  142.8733  157.4219 C   0  0  0  0  0  0  0  0  0  0  0  0
  150.9080  144.1589  157.7542 N   0  3  0  0  0  0  0  0  0  0  0  0
  151.5673  144.6849  158.8157 C   0  0  0  0  0  0  0  0  0  0  0  0
  152.4466  143.8886  159.5713 C   0  0  0  0  0  0  0  0  0  0  0  0
  152.5961  142.5502  159.1723 C   0  0  0  0  0  0  0  0  0  0  0  0
  153.4412  141.7208  159.8801 O   0  0  0  0  0  0  0  0  0  0  0  0
  153.6325  141.9758  161.2674 C   0  0  0  0  0  0  0  0  0  0  0  0
  151.9213  142.0634  158.1036 N   0  0  0  0  0  0  0  0  0  0  0  0
  148.1551  141.4677  155.0129 C   0  0  0  0  0  0  0  0  0  0  0  0
  144.9907  143.7911  153.9400 H   0  0  0  0  0  0  0  0  0  0  0  0
  146.3957  143.5028  152.9210 H   0  0  0  0  0  0  0  0  0  0  0  0
  146.5954  143.8071  154.6480 H   0  0  0  0  0  0  0  0  0  0  0  0
  145.4327  141.6255  155.1697 H   0  0  0  0  0  0  0  0  0  0  0  0
  145.1162  141.4017  153.4657 H   0  0  0  0  0  0  0  0  0  0  0  0
  146.4954  139.2894  154.9337 H   0  0  0  0  0  0  0  0  0  0  0  0
  146.2592  139.3336  153.1949 H   0  0  0  0  0  0  0  0  0  0  0  0
  148.1625  137.8254  153.8332 H   0  0  0  0  0  0  0  0  0  0  0  0
  148.7077  139.1346  152.8021 H   0  0  0  0  0  0  0  0  0  0  0  0
  149.8751  140.9746  153.7908 H   0  0  0  0  0  0  0  0  0  0  0  0
  150.3808  140.3452  156.6990 H   0  0  0  0  0  0  0  0  0  0  0  0
  151.5232  140.8440  155.4639 H   0  0  0  0  0  0  0  0  0  0  0  0
  149.9204  143.0561  155.7495 H   0  0  0  0  0  0  0  0  0  0  0  0
  151.3689  145.7258  159.0256 H   0  0  0  0  0  0  0  0  0  0  0  0
  152.9811  144.2876  160.4211 H   0  0  0  0  0  0  0  0  0  0  0  0
  154.3248  141.2402  161.6768 H   0  0  0  0  0  0  0  0  0  0  0  0
  152.6967  141.8941  161.8221 H   0  0  0  0  0  0  0  0  0  0  0  0
  154.0633  142.9639  161.4353 H   0  0  0  0  0  0  0  0  0  0  0  0
  148.3482  142.5389  154.9621 H   0  0  0  0  0  0  0  0  0  0  0  0
  147.7796  141.2580  156.0162 H   0  0  0  0  0  0  0  0  0  0  0  0
  147.4874  141.3369  153.1019 H   0  0  0  0  0  0  0  0  0  0  0  0
  150.2746  144.7515  157.2172 H   0  0  0  0  0  0  0  0  0  0  0  0
  1  2  1  0  0  0  0
  1 19  1  0  0  0  0
  1 20  1  0  0  0  0
  1 21  1  0  0  0  0
  2  3  1  0  0  0  0
  2 22  1  0  0  0  0
  2 23  1  0  0  0  0
  3 18  1  0  0  0  0
  3  4  1  0  0  0  0
  3 39  1  0  0  0  0
  4  5  1  0  0  0  0
  4 24  1  0  0  0  0
  4 25  1  0  0  0  0
  5  6  1  0  0  0  0
  5 26  1  0  0  0  0
  5 27  1  0  0  0  0
  6  7  1  0  0  0  0
  7  8  1  0  0  0  0
  7 18  1  0  0  0  0
  7 28  1  0  0  0  0
  8  9  1  0  0  0  0
  8 29  1  0  0  0  0
  8 30  1  0  0  0  0
  9 10  1  0  0  0  0
  9 31  1  0  0  0  0
 10 17  1  0  0  0  0
 10 11  2  0  0  0  0
 11 12  1  0  0  0  0
 11 40  1  0  0  0  0
 12 13  2  0  0  0  0
 12 32  1  0  0  0  0
 13 14  1  0  0  0  0
 13 33  1  0  0  0  0
 14 15  1  0  0  0  0
 14 17  2  0  0  0  0
 15 16  1  0  0  0  0
 16 34  1  0  0  0  0
 16 35  1  0  0  0  0
 16 36  1  0  0  0  0
 18 37  1  0  0  0  0
 18 38  1  0  0  0  0
M  CHG  1   3   1
M  CHG  1  11   1
M  END
> <s_m_source_file>
AV-unprocessed.smi

> <i_m_source_file_index>
3250

> <i_lp_mmshare_version>
43012

> <i_f3d_flags>
0

> <s_epik_input>
W0NIM11bQ0gyXU4xW0NIMl1bQ0gyXU9bQ0BIXShbQ0gyXTEpW0NIMl1bTkhdYzJuW2NIXVtjSF1jKG4yKU9bQ0gzXQ==

> <s_epik_cmdline>
J2VwaWtfcHl0aG9uJywgJy1waCcsICc3LjAnLCAnLXRuJywgJzgnLCAnLW1hJywgJzIwMCcsICctbWV0YWxfYmluZGluZycsICctaW1hZScsICc8aW5maWxlLm1hZT4nLCAnLW9tYWUnLCAnPG91dGZpbGUubWFlPic=

> <r_lp_tautomer_probability>
0.999985

> <r_epik_Ionization_Penalty>
2.24691

> <r_epik_Ionization_Penalty_Charging>
2.24686

> <r_epik_Ionization_Penalty_Neutral>
4.52111e-05

> <r_epik_State_Penalty>
2.24709

> <r_epik_Charging_Adjusted_Penalty>
4.49395

> <i_epik_Tot_Q>
2

> <i_epik_Tot_abs_Q>
2

> <r_epik_Metal_State_Penalty>
2.26327

> <b_epik_Metal_Only>
0

> <s_lp_Force_Field>
OPLS_2005

> <r_lp_Energy>
18.1158

> <b_lp_Chiralities_Consistent>
1

> <s_lp_Variant>
AV-unprocessed.smi:3250-10

> <Gold.Version>
5.8.1

> <Gold.Id.Protein>
6NUR|6NUR_protein|mol2

> <Gold.PLP.Fitness>
46.7967

> <Gold.PLP.PLP>
-37.4291

> <Gold.PLP.part.hbond>
-2.0000

> <Gold.PLP.part.metal>
0.0000

> <Gold.PLP.part.buried>
-4.2590

> <Gold.PLP.part.nonpolar>
-33.0625

> <Gold.PLP.part.repulsive>
0.2980

> <Gold.PLP.ligand.clash>
0.0000

> <Gold.PLP.ligand.torsion>
0.7717

> <Gold.PLP.Chemscore.Hbond>
3.6323

> <Gold.PLP.Chemscore.CHOScore>
0.0000

> <Gold.PLP.Chemscore.Metal>
0.0000

> <Gold.Chemscore.Hbonds>
donor molecule, donor type, donor heavy atom, donor atom, acceptor molecule, acceptor atom, score
      L1  H     9    31       P1  8028  1.92
      L1  H    11    40       P1  8028  1.72

> <Gold.PLP.Chemscore.Internal.Correction>
0.0141

> <Gold.Rescore>
     Score         DG    S(hbond)    S(metal)    S(lipo)     H(rot)  DE(clash)    DE(int)     intcor
     13.88     -14.74       1.28        0.00      81.11       1.75       0.14       0.72       ----

> <Gold.Chemscore.Fitness>
13.8842

> <Gold.Chemscore.DG>
-14.7417

> <Gold.Chemscore.ZeroCoef>
-5.4800

> <Gold.Chemscore.Hbond>
1.2754

> <Gold.Chemscore.Metal>
0.0000

> <Gold.Chemscore.Lipo>
81.1071

> <Gold.Chemscore.Internal_Hbond>
0.0000

> <Gold.Chemscore.DEClash>
0.1365

> <Gold.Chemscore.DEInternal>
0.7210

> <Gold.Chemscore.Rot>
1.7530

> <Gold.Chemscore.Internal.Correction>
   9.000000E+99

> <Gold.Chemscore.Hbonds>
donor molecule, donor type, donor heavy atom, donor atom, acceptor molecule, acceptor atom, score
      L1  H     9    31       P1  8028  0.91
      L1  H    11    40       P1  8028  0.28

> <Gold.Chemscore.Hbond.Weighted>
-4.2598

> <Gold.Chemscore.Metal.Weighted>
-0.0000

> <Gold.Chemscore.Lipo.Weighted>
-9.4895

> <Gold.Chemscore.Internal_Hbond.Weighted>
0.0000

> <Gold.Chemscore.DEClash.Weighted>
0.1365

> <Gold.Chemscore.DEInternal.Weighted>
0.7210

> <Gold.Chemscore.Rot.Weighted>
4.4876

> <Gold.Chemscore.Internal.Correction.Weighted>
   9.000000E+99

> <Gold.Protein.RotatedTorsions>
[ 6907 6896 6895 6894 ] final   96.11 input  -60.11 | X-H torsion
[ 7974 7965 7964 7962 ] final  -36.27 input  175.53 | X-H torsion
[ 8008 7997 7996 7995 ] final  105.48 input   59.86 | X-H torsion
[ 10167 10162 10161 10158 ] final   80.07 input  -65.29 | X-H torsion
[ 10718 10713 10712 10709 ] final  122.35 input   66.30 | X-H torsion
[ 10763 10752 10751 10750 ] final -101.87 input  -60.55 | X-H torsion
[ 11005 11000 10999 10996 ] final  -51.70 input  -57.11 | X-H torsion

> <Gold.Protein.ActiveResidues>
 VAL166  LYS551  ARG553  GLY616  TRP617  ASP618  TYR619  PRO620  LYS621  CYS622 
 ASP623  PHE694  ASN695  SER759  ASP760  ASP761  ALA762  ILE779  LEU786  VAL792 
 PHE793  MET794  SER795  GLU796  ALA797  LYS798  CYS799  TRP800  GLU811  SER814 

> <Gold.Protein.RotatedAtoms>
  152.5438  134.0936  159.8287 H   0  0  0  0  0  0  0  0  0  0  0  0  # atno 6907 bound_to 6896
  151.1023  133.5227  159.2617 H   0  0  0  0  0  0  0  0  0  0  0  0  # atno 6908 bound_to 6896
  151.1978  135.0439  159.8914 H   0  0  0  0  0  0  0  0  0  0  0  0  # atno 6909 bound_to 6896
  146.0676  140.6258  142.8968 H   0  0  0  0  0  0  0  0  0  0  0  0  # atno 7974 bound_to 7965
  156.1663  140.3129  155.8894 H   0  0  0  0  0  0  0  0  0  0  0  0  # atno 8008 bound_to 7997
  155.3679  140.0480  157.3063 H   0  0  0  0  0  0  0  0  0  0  0  0  # atno 8009 bound_to 7997
  154.5196  140.2193  155.9012 H   0  0  0  0  0  0  0  0  0  0  0  0  # atno 8010 bound_to 7997
  139.9537  144.6009  150.8137 H   0  0  0  0  0  0  0  0  0  0  0  0  # atno 10167 bound_to 10162
  157.5749  131.1080  150.8298 H   0  0  0  0  0  0  0  0  0  0  0  0  # atno 10718 bound_to 10713
  154.7691  135.4881  153.9613 H   0  0  0  0  0  0  0  0  0  0  0  0  # atno 10763 bound_to 10752
  153.1345  135.6760  153.9133 H   0  0  0  0  0  0  0  0  0  0  0  0  # atno 10764 bound_to 10752
  153.8826  135.3130  155.3424 H   0  0  0  0  0  0  0  0  0  0  0  0  # atno 10765 bound_to 10752
  141.0885  133.6637  156.3916 H   0  0  0  0  0  0  0  0  0  0  0  0  # atno 11005 bound_to 11000
  144.7212  140.4378  143.7007 LP  0  0  0  0  0  0  0  0  0  0  0  0  # atno 17320 bound_to 7965
  145.6449  139.1556  143.2894 LP  0  0  0  0  0  0  0  0  0  0  0  0  # atno 17321 bound_to 7965
  140.7575  143.3087  151.2897 LP  0  0  0  0  0  0  0  0  0  0  0  0  # atno 17342 bound_to 10162
  139.6608  144.0192  152.2691 LP  0  0  0  0  0  0  0  0  0  0  0  0  # atno 17343 bound_to 10162
  156.8759  130.5162  149.5294 LP  0  0  0  0  0  0  0  0  0  0  0  0  # atno 17370 bound_to 10713
  156.0794  130.5808  150.9534 LP  0  0  0  0  0  0  0  0  0  0  0  0  # atno 17371 bound_to 10713
  140.5307  134.6216  157.5349 LP  0  0  0  0  0  0  0  0  0  0  0  0  # atno 17394 bound_to 11000
  139.9707  134.7297  156.0047 LP  0  0  0  0  0  0  0  0  0  0  0  0  # atno 17395 bound_to 11000

$$$$
