AV-unprocessed.smi:2109|AV-procd|sdf|8607|dock10
  -GOLD-   2272011353D 1   1.00000     0.00000
 Structure written by MMmdl.
 46 47  0  0  0  0  0  0  0  0  2 V2000
  150.3131  132.7007  155.0317 C   0  0  0  0  0  0  0  0  0  0  0  0
  148.8456  133.0744  154.7587 C   0  0  0  0  0  0  0  0  0  0  0  0
  148.5455  133.0068  153.2540 C   0  0  0  0  0  0  0  0  0  0  0  0
  148.4646  134.4578  155.3264 C   0  0  0  0  0  0  0  0  0  0  0  0
  149.1140  135.5518  154.6092 N   0  0  0  0  0  0  0  0  0  0  0  0
  150.0490  136.3678  155.1160 C   0  0  0  0  0  0  0  0  0  0  0  0
  150.4814  136.2982  156.2662 O   0  0  0  0  0  0  0  0  0  0  0  0
  150.4644  137.2689  154.2146 N   0  0  0  0  0  0  0  0  0  0  0  0
  151.4417  138.3243  154.4713 C   0  0  0  0  0  0  0  0  0  0  0  0
  150.8750  139.6475  154.9770 C   0  0  0  0  0  0  0  0  0  0  0  0
  149.7588  140.2017  154.3160 C   0  0  0  0  0  0  0  0  0  0  0  0
  149.2218  141.4199  154.7704 C   0  0  0  0  0  0  0  0  0  0  0  0
  149.7738  142.0419  155.8330 N   0  3  0  0  0  0  0  0  0  0  0  0
  150.8408  141.5629  156.5172 C   0  0  0  0  0  0  0  0  0  0  0  0
  151.3087  142.3079  157.6227 N   0  0  0  0  0  0  0  0  0  0  0  0
  152.2209  141.6560  158.5588 C   0  0  0  0  0  0  0  0  0  0  0  0
  152.3698  142.4926  159.8406 C   0  0  0  0  0  0  0  0  0  0  0  0
  152.7665  143.8171  159.5047 O   0  0  0  0  0  0  0  0  0  0  0  0
  151.7878  144.4726  158.7061 C   0  0  0  0  0  0  0  0  0  0  0  0
  151.6098  143.7179  157.3777 C   0  0  0  0  0  0  0  0  0  0  0  0
  151.4150  140.3383  156.0898 C   0  0  0  0  0  0  0  0  0  0  0  0
  150.9947  133.4399  154.6094 H   0  0  0  0  0  0  0  0  0  0  0  0
  150.5595  131.7333  154.5933 H   0  0  0  0  0  0  0  0  0  0  0  0
  150.5189  132.6297  156.0997 H   0  0  0  0  0  0  0  0  0  0  0  0
  148.2188  132.3269  155.2472 H   0  0  0  0  0  0  0  0  0  0  0  0
  149.1453  133.7280  152.6977 H   0  0  0  0  0  0  0  0  0  0  0  0
  147.4955  133.2200  153.0510 H   0  0  0  0  0  0  0  0  0  0  0  0
  148.7609  132.0155  152.8538 H   0  0  0  0  0  0  0  0  0  0  0  0
  147.3800  134.5797  155.3330 H   0  0  0  0  0  0  0  0  0  0  0  0
  148.7799  134.5245  156.3680 H   0  0  0  0  0  0  0  0  0  0  0  0
  148.8257  135.6972  153.6526 H   0  0  0  0  0  0  0  0  0  0  0  0
  150.0524  137.2444  153.2930 H   0  0  0  0  0  0  0  0  0  0  0  0
  152.1411  137.9438  155.2162 H   0  0  0  0  0  0  0  0  0  0  0  0
  152.0325  138.5167  153.5741 H   0  0  0  0  0  0  0  0  0  0  0  0
  149.3176  139.6991  153.4673 H   0  0  0  0  0  0  0  0  0  0  0  0
  148.3706  141.9110  154.3214 H   0  0  0  0  0  0  0  0  0  0  0  0
  151.8467  140.6681  158.8284 H   0  0  0  0  0  0  0  0  0  0  0  0
  153.1930  141.5234  158.0822 H   0  0  0  0  0  0  0  0  0  0  0  0
  151.4352  142.5127  160.4038 H   0  0  0  0  0  0  0  0  0  0  0  0
  153.1236  142.0497  160.4917 H   0  0  0  0  0  0  0  0  0  0  0  0
  150.8424  144.5360  159.2476 H   0  0  0  0  0  0  0  0  0  0  0  0
  152.1131  145.4954  158.5149 H   0  0  0  0  0  0  0  0  0  0  0  0
  152.5232  143.7838  156.7852 H   0  0  0  0  0  0  0  0  0  0  0  0
  150.8203  144.2031  156.8038 H   0  0  0  0  0  0  0  0  0  0  0  0
  152.2674  139.9284  156.6066 H   0  0  0  0  0  0  0  0  0  0  0  0
  149.3582  142.9206  156.1428 H   0  0  0  0  0  0  0  0  0  0  0  0
  1  2  1  0  0  0  0
  1 22  1  0  0  0  0
  1 23  1  0  0  0  0
  1 24  1  0  0  0  0
  2  3  1  0  0  0  0
  2  4  1  0  0  0  0
  2 25  1  0  0  0  0
  3 26  1  0  0  0  0
  3 27  1  0  0  0  0
  3 28  1  0  0  0  0
  4  5  1  0  0  0  0
  4 29  1  0  0  0  0
  4 30  1  0  0  0  0
  5  6  1  0  0  0  0
  5 31  1  0  0  0  0
  6  7  2  0  0  0  0
  6  8  1  0  0  0  0
  8  9  1  0  0  0  0
  8 32  1  0  0  0  0
  9 10  1  0  0  0  0
  9 33  1  0  0  0  0
  9 34  1  0  0  0  0
 10 21  1  0  0  0  0
 10 11  2  0  0  0  0
 11 12  1  0  0  0  0
 11 35  1  0  0  0  0
 12 13  2  0  0  0  0
 12 36  1  0  0  0  0
 13 14  1  0  0  0  0
 13 46  1  0  0  0  0
 14 15  1  0  0  0  0
 14 21  2  0  0  0  0
 15 20  1  0  0  0  0
 15 16  1  0  0  0  0
 16 17  1  0  0  0  0
 16 37  1  0  0  0  0
 16 38  1  0  0  0  0
 17 18  1  0  0  0  0
 17 39  1  0  0  0  0
 17 40  1  0  0  0  0
 18 19  1  0  0  0  0
 19 20  1  0  0  0  0
 19 41  1  0  0  0  0
 19 42  1  0  0  0  0
 20 43  1  0  0  0  0
 20 44  1  0  0  0  0
 21 45  1  0  0  0  0
M  CHG  1  13   1
M  END
> <s_m_source_file>
AV-unprocessed.smi

> <i_m_source_file_index>
2109

> <i_lp_mmshare_version>
43012

> <i_f3d_flags>
0

> <s_epik_input>
W0NIM11bQ0hdKFtDSDNdKVtDSDJdW05IXUMoPU8pW05IXVtDSDJdYzFbY0hdW2NIXW5jKFtjSF0xKU4yW0NIMl1bQ0gyXU9bQ0gyXVtDSDJdMg==

> <s_epik_cmdline>
J2VwaWtfcHl0aG9uJywgJy1waCcsICc3LjAnLCAnLXRuJywgJzgnLCAnLW1hJywgJzIwMCcsICctbWV0YWxfYmluZGluZycsICctaW1hZScsICc8aW5maWxlLm1hZT4nLCAnLW9tYWUnLCAnPG91dGZpbGUubWFlPic=

> <r_lp_tautomer_probability>
0.999994

> <r_epik_Ionization_Penalty>
2.29114

> <r_epik_Ionization_Penalty_Charging>
2.2911

> <r_epik_Ionization_Penalty_Neutral>
4.11828e-05

> <r_epik_State_Penalty>
2.44112

> <r_epik_Charging_Adjusted_Penalty>
4.73222

> <i_epik_Tot_Q>
1

> <i_epik_Tot_abs_Q>
1

> <r_epik_Metal_State_Penalty>
2.45346

> <b_epik_Metal_Only>
0

> <s_lp_Force_Field>
OPLS_2005

> <r_lp_Energy>
19.1618

> <b_lp_Chiralities_Consistent>
1

> <s_lp_Variant>
AV-unprocessed.smi:2109-2

> <Gold.Version>
5.8.1

> <Gold.Id.Protein>
6NUR|6NUR_protein|mol2

> <Gold.PLP.Fitness>
55.0376

> <Gold.PLP.PLP>
-44.2348

> <Gold.PLP.part.hbond>
-3.7517

> <Gold.PLP.part.metal>
0.0000

> <Gold.PLP.part.buried>
-3.6101

> <Gold.PLP.part.nonpolar>
-37.8360

> <Gold.PLP.part.repulsive>
0.2804

> <Gold.PLP.ligand.clash>
0.0000

> <Gold.PLP.ligand.torsion>
0.6136

> <Gold.PLP.Chemscore.Hbond>
3.8560

> <Gold.PLP.Chemscore.CHOScore>
0.0000

> <Gold.PLP.Chemscore.Metal>
0.0000

> <Gold.Chemscore.Hbonds>
donor molecule, donor type, donor heavy atom, donor atom, acceptor molecule, acceptor atom, score
      L1  H     5    31       P1  7948  1.00
      L1  H     8    32       P1  7948  0.94
      L1  H    13    46       P1  8028  1.86

> <Gold.PLP.Chemscore.Internal.Correction>
0.4619

> <Gold.Rescore>
     Score         DG    S(hbond)    S(metal)    S(lipo)     H(rot)  DE(clash)    DE(int)     intcor
     19.94     -20.52       2.39        0.00     100.22       1.82       0.02       0.56       ----

> <Gold.Chemscore.Fitness>
19.9445

> <Gold.Chemscore.DG>
-20.5216

> <Gold.Chemscore.ZeroCoef>
-5.4800

> <Gold.Chemscore.Hbond>
2.3863

> <Gold.Chemscore.Metal>
0.0000

> <Gold.Chemscore.Lipo>
100.2160

> <Gold.Chemscore.Internal_Hbond>
0.0000

> <Gold.Chemscore.DEClash>
0.0182

> <Gold.Chemscore.DEInternal>
0.5588

> <Gold.Chemscore.Rot>
1.8180

> <Gold.Chemscore.Internal.Correction>
   9.000000E+99

> <Gold.Chemscore.Hbonds>
donor molecule, donor type, donor heavy atom, donor atom, acceptor molecule, acceptor atom, score
      L1  H     5    31       P1  7948  0.95
      L1  H     8    32       P1  7948  0.19
      L1  H    13    46       P1  8028  0.89

> <Gold.Chemscore.Hbond.Weighted>
-7.9704

> <Gold.Chemscore.Metal.Weighted>
-0.0000

> <Gold.Chemscore.Lipo.Weighted>
-11.7253

> <Gold.Chemscore.Internal_Hbond.Weighted>
0.0000

> <Gold.Chemscore.DEClash.Weighted>
0.0182

> <Gold.Chemscore.DEInternal.Weighted>
0.5588

> <Gold.Chemscore.Rot.Weighted>
4.6541

> <Gold.Chemscore.Internal.Correction.Weighted>
   9.000000E+99

> <Gold.Protein.RotatedTorsions>
[ 6907 6896 6895 6894 ] final -169.22 input  -60.11 | X-H torsion
[ 7974 7965 7964 7962 ] final -174.94 input  175.53 | X-H torsion
[ 8008 7997 7996 7995 ] final   -0.54 input   59.86 | X-H torsion
[ 10167 10162 10161 10158 ] final   95.95 input  -65.29 | X-H torsion
[ 10718 10713 10712 10709 ] final  -30.72 input   66.30 | X-H torsion
[ 10763 10752 10751 10750 ] final  -68.84 input  -60.55 | X-H torsion
[ 11005 11000 10999 10996 ] final  -27.44 input  -57.11 | X-H torsion

> <Gold.Protein.ActiveResidues>
 VAL166  LYS551  ARG553  GLY616  TRP617  ASP618  TYR619  PRO620  LYS621  CYS622 
 ASP623  PHE694  ASN695  SER759  ASP760  ASP761  ALA762  ILE779  LEU786  VAL792 
 PHE793  MET794  SER795  GLU796  ALA797  LYS798  CYS799  TRP800  GLU811  SER814 

> <Gold.Protein.RotatedAtoms>
  151.4881  133.3531  159.2848 H   0  0  0  0  0  0  0  0  0  0  0  0  # atno 6907 bound_to 6896
  150.8853  134.8252  159.7265 H   0  0  0  0  0  0  0  0  0  0  0  0  # atno 6908 bound_to 6896
  152.4789  134.4783  159.9709 H   0  0  0  0  0  0  0  0  0  0  0  0  # atno 6909 bound_to 6896
  144.7130  140.1396  143.6392 H   0  0  0  0  0  0  0  0  0  0  0  0  # atno 7974 bound_to 7965
  154.6569  140.2581  155.7152 H   0  0  0  0  0  0  0  0  0  0  0  0  # atno 8008 bound_to 7997
  156.2601  140.2856  156.0947 H   0  0  0  0  0  0  0  0  0  0  0  0  # atno 8009 bound_to 7997
  155.1367  140.0379  157.2778 H   0  0  0  0  0  0  0  0  0  0  0  0  # atno 8010 bound_to 7997
  139.7940  144.6840  150.9853 H   0  0  0  0  0  0  0  0  0  0  0  0  # atno 10167 bound_to 10162
  156.3963  130.4382  149.7356 H   0  0  0  0  0  0  0  0  0  0  0  0  # atno 10718 bound_to 10713
  154.3948  135.6044  153.5863 H   0  0  0  0  0  0  0  0  0  0  0  0  # atno 10763 bound_to 10752
  152.9787  135.5892  154.4255 H   0  0  0  0  0  0  0  0  0  0  0  0  # atno 10764 bound_to 10752
  154.4044  135.2843  155.2054 H   0  0  0  0  0  0  0  0  0  0  0  0  # atno 10765 bound_to 10752
  140.9120  133.7455  156.0683 H   0  0  0  0  0  0  0  0  0  0  0  0  # atno 11005 bound_to 11000
  145.9213  139.2548  143.1379 LP  0  0  0  0  0  0  0  0  0  0  0  0  # atno 17320 bound_to 7965
  145.9617  140.8830  143.0207 LP  0  0  0  0  0  0  0  0  0  0  0  0  # atno 17321 bound_to 7965
  140.7820  143.4350  151.0636 LP  0  0  0  0  0  0  0  0  0  0  0  0  # atno 17342 bound_to 10162
  139.8026  143.8063  152.3164 LP  0  0  0  0  0  0  0  0  0  0  0  0  # atno 17343 bound_to 10162
  156.4390  130.7852  151.2873 LP  0  0  0  0  0  0  0  0  0  0  0  0  # atno 17370 bound_to 10713
  157.7502  131.0131  150.3409 LP  0  0  0  0  0  0  0  0  0  0  0  0  # atno 17371 bound_to 10713
  140.8098  134.3412  157.5415 LP  0  0  0  0  0  0  0  0  0  0  0  0  # atno 17394 bound_to 11000
  139.8759  134.9247  156.3357 LP  0  0  0  0  0  0  0  0  0  0  0  0  # atno 17395 bound_to 11000

$$$$
