AV-unprocessed.smi:3243|AV-procd|sdf|12397|dock5
  -GOLD-   2272018273D 1   1.00000     0.00000
 Structure written by MMmdl.
 37 38  0  0  0  0  0  0  0  0  1 V2000
  152.5411  143.4832  158.9141 C   0  0  0  0  0  0  0  0  0  0  0  0
  152.5052  142.2025  159.7602 C   0  0  0  0  0  0  0  0  0  0  0  0
  153.8808  141.8108  160.3188 C   0  0  0  0  0  0  0  0  0  0  0  0
  151.8465  141.0692  159.0383 C   0  0  0  0  0  0  0  0  0  0  0  0
  151.6453  139.8623  159.5766 N   0  0  0  0  0  0  0  0  0  0  0  0
  151.0136  138.9765  158.6985 C   0  0  0  0  0  0  0  0  0  0  0  0
  150.7065  137.5776  159.1395 C   0  0  0  0  0  0  0  0  0  0  0  0
  149.2008  137.2802  159.1227 C   0  0  0  0  0  0  0  0  0  0  0  0
  148.8847  136.1779  160.0209 N   0  0  0  0  0  0  0  0  0  0  0  0
  148.0972  136.2803  161.1008 C   0  0  0  0  0  0  0  0  0  0  0  0
  147.5557  137.3345  161.4372 O   0  0  0  0  0  0  0  0  0  0  0  0
  147.9372  135.0018  161.8572 C   0  0  1  0  0  0  0  0  0  0  0  0
  147.5324  135.0965  163.3143 C   0  0  0  0  0  0  0  0  0  0  0  0
  146.5381  134.6054  162.2906 C   0  0  2  0  0  0  0  0  0  0  0  0
  146.1097  133.1542  162.2581 C   0  0  0  0  0  0  0  0  0  0  0  0
  150.7341  139.5343  157.4760 C   0  0  0  0  0  0  0  0  0  0  0  0
  151.2567  141.1934  157.3843 S   0  0  0  0  0  0  0  0  0  0  0  0
  151.5378  143.7771  158.6046 H   0  0  0  0  0  0  0  0  0  0  0  0
  153.1410  143.3471  158.0138 H   0  0  0  0  0  0  0  0  0  0  0  0
  152.9697  144.3134  159.4760 H   0  0  0  0  0  0  0  0  0  0  0  0
  151.8757  142.4228  160.6232 H   0  0  0  0  0  0  0  0  0  0  0  0
  153.8042  140.9466  160.9794 H   0  0  0  0  0  0  0  0  0  0  0  0
  154.3184  142.6274  160.8934 H   0  0  0  0  0  0  0  0  0  0  0  0
  154.5765  141.5579  159.5181 H   0  0  0  0  0  0  0  0  0  0  0  0
  151.2243  136.8649  158.4962 H   0  0  0  0  0  0  0  0  0  0  0  0
  151.0986  137.4128  160.1441 H   0  0  0  0  0  0  0  0  0  0  0  0
  148.6390  138.1651  159.4261 H   0  0  0  0  0  0  0  0  0  0  0  0
  148.8816  137.0260  158.1105 H   0  0  0  0  0  0  0  0  0  0  0  0
  149.2942  135.2793  159.8100 H   0  0  0  0  0  0  0  0  0  0  0  0
  148.6189  134.1946  161.5932 H   0  0  0  0  0  0  0  0  0  0  0  0
  147.9738  134.3713  163.9947 H   0  0  0  0  0  0  0  0  0  0  0  0
  147.3605  136.0818  163.7443 H   0  0  0  0  0  0  0  0  0  0  0  0
  145.7305  135.2947  162.0486 H   0  0  0  0  0  0  0  0  0  0  0  0
  146.9437  132.4975  162.5075 H   0  0  0  0  0  0  0  0  0  0  0  0
  145.7471  132.8933  161.2638 H   0  0  0  0  0  0  0  0  0  0  0  0
  145.3074  132.9852  162.9765 H   0  0  0  0  0  0  0  0  0  0  0  0
  150.2526  139.0717  156.6271 H   0  0  0  0  0  0  0  0  0  0  0  0
  1  2  1  0  0  0  0
  1 18  1  0  0  0  0
  1 19  1  0  0  0  0
  1 20  1  0  0  0  0
  2  3  1  0  0  0  0
  2  4  1  0  0  0  0
  2 21  1  0  0  0  0
  3 22  1  0  0  0  0
  3 23  1  0  0  0  0
  3 24  1  0  0  0  0
  4 17  1  0  0  0  0
  4  5  2  0  0  0  0
  5  6  1  0  0  0  0
  6  7  1  0  0  0  0
  6 16  2  0  0  0  0
  7  8  1  0  0  0  0
  7 25  1  0  0  0  0
  7 26  1  0  0  0  0
  8  9  1  0  0  0  0
  8 27  1  0  0  0  0
  8 28  1  0  0  0  0
  9 10  1  0  0  0  0
  9 29  1  0  0  0  0
 10 11  2  0  0  0  0
 10 12  1  0  0  0  0
 12 14  1  0  0  0  0
 12 13  1  0  0  0  0
 12 30  1  0  0  0  0
 13 14  1  0  0  0  0
 13 31  1  0  0  0  0
 13 32  1  0  0  0  0
 14 15  1  0  0  0  0
 14 33  1  0  0  0  0
 15 34  1  0  0  0  0
 15 35  1  0  0  0  0
 15 36  1  0  0  0  0
 16 17  1  0  0  0  0
 16 37  1  0  0  0  0
M  END
> <s_m_source_file>
AV-unprocessed.smi

> <i_m_source_file_index>
3243

> <i_lp_mmshare_version>
43012

> <i_f3d_flags>
0

> <s_epik_input>
W0NIM11bQ0hdKFtDSDNdKWMxbmMoW2NIXXMxKVtDSDJdW0NIMl1bTkhdQyg9TylbQ0BASF0yW0NIMl1bQ0BIXTJbQ0gzXQ==

> <s_epik_cmdline>
J2VwaWtfcHl0aG9uJywgJy1waCcsICc3LjAnLCAnLXRuJywgJzgnLCAnLW1hJywgJzIwMCcsICctbWV0YWxfYmluZGluZycsICctaW1hZScsICc8aW5maWxlLm1hZT4nLCAnLW9tYWUnLCAnPG91dGZpbGUubWFlPic=

> <r_epik_Ionization_Penalty>
0.00084212

> <r_epik_Ionization_Penalty_Charging>
0

> <r_epik_Ionization_Penalty_Neutral>
0.00084212

> <r_epik_State_Penalty>
0.000542609

> <r_epik_Charging_Adjusted_Penalty>
0.000542609

> <i_epik_Tot_Q>
0

> <i_epik_Tot_abs_Q>
0

> <r_epik_Metal_State_Penalty>
-0

> <b_epik_Metal_Only>
0

> <s_lp_Force_Field>
OPLS_2005

> <r_lp_Energy>
-2.05964

> <b_lp_Chiralities_Consistent>
1

> <s_lp_Variant>
AV-unprocessed.smi:3243-4

> <Gold.Version>
5.8.1

> <Gold.Id.Protein>
6NUR|6NUR_protein|mol2

> <Gold.PLP.Fitness>
40.9077

> <Gold.PLP.PLP>
-36.7370

> <Gold.PLP.part.hbond>
-2.0149

> <Gold.PLP.part.metal>
0.0000

> <Gold.PLP.part.buried>
-3.5871

> <Gold.PLP.part.nonpolar>
-31.5430

> <Gold.PLP.part.repulsive>
0.1883

> <Gold.PLP.ligand.clash>
0.0000

> <Gold.PLP.ligand.torsion>
0.6540

> <Gold.PLP.Chemscore.Hbond>
1.7760

> <Gold.PLP.Chemscore.CHOScore>
0.0000

> <Gold.PLP.Chemscore.Metal>
0.0000

> <Gold.Chemscore.Hbonds>
donor molecule, donor type, donor heavy atom, donor atom, acceptor molecule, acceptor atom, score
      P1  H  6931  6943       L1    11  0.84
      P1  H  6934  6947       L1    11  0.83

> <Gold.PLP.Chemscore.Internal.Correction>
0.1508

> <Gold.Rescore>
     Score         DG    S(hbond)    S(metal)    S(lipo)     H(rot)  DE(clash)    DE(int)     intcor
     17.57     -18.03       1.71        0.00      91.08       1.49       0.00       0.46       ----

> <Gold.Chemscore.Fitness>
17.5702

> <Gold.Chemscore.DG>
-18.0302

> <Gold.Chemscore.ZeroCoef>
-5.4800

> <Gold.Chemscore.Hbond>
1.7069

> <Gold.Chemscore.Metal>
0.0000

> <Gold.Chemscore.Lipo>
91.0754

> <Gold.Chemscore.Internal_Hbond>
0.0000

> <Gold.Chemscore.DEClash>
0.0048

> <Gold.Chemscore.DEInternal>
0.4552

> <Gold.Chemscore.Rot>
1.4870

> <Gold.Chemscore.Internal.Correction>
   9.000000E+99

> <Gold.Chemscore.Hbonds>
donor molecule, donor type, donor heavy atom, donor atom, acceptor molecule, acceptor atom, score
      P1  H  6931  6943       L1    11  0.19
      P1  H  6934  6947       L1    11  0.81

> <Gold.Chemscore.Hbond.Weighted>
-5.7011

> <Gold.Chemscore.Metal.Weighted>
-0.0000

> <Gold.Chemscore.Lipo.Weighted>
-10.6558

> <Gold.Chemscore.Internal_Hbond.Weighted>
0.0000

> <Gold.Chemscore.DEClash.Weighted>
0.0048

> <Gold.Chemscore.DEInternal.Weighted>
0.4552

> <Gold.Chemscore.Rot.Weighted>
3.8067

> <Gold.Chemscore.Internal.Correction.Weighted>
   9.000000E+99

> <Gold.Protein.RotatedTorsions>
[ 6907 6896 6895 6894 ] final   25.28 input  -60.11 | X-H torsion
[ 7974 7965 7964 7962 ] final   95.48 input  175.53 | X-H torsion
[ 8008 7997 7996 7995 ] final  -77.76 input   59.86 | X-H torsion
[ 10167 10162 10161 10158 ] final   66.14 input  -65.29 | X-H torsion
[ 10718 10713 10712 10709 ] final   89.92 input   66.30 | X-H torsion
[ 10763 10752 10751 10750 ] final   42.55 input  -60.55 | X-H torsion
[ 11005 11000 10999 10996 ] final   44.60 input  -57.11 | X-H torsion

> <Gold.Protein.ActiveResidues>
 VAL166  LYS551  ARG553  GLY616  TRP617  ASP618  TYR619  PRO620  LYS621  CYS622 
 ASP623  PHE694  ASN695  SER759  ASP760  ASP761  ALA762  ILE779  LEU786  VAL792 
 PHE793  MET794  SER795  GLU796  ALA797  LYS798  CYS799  TRP800  GLU811  SER814 

> <Gold.Protein.RotatedAtoms>
  151.9701  135.0081  160.0552 H   0  0  0  0  0  0  0  0  0  0  0  0  # atno 6907 bound_to 6896
  152.1790  133.4690  159.4957 H   0  0  0  0  0  0  0  0  0  0  0  0  # atno 6908 bound_to 6896
  150.6914  134.1774  159.4278 H   0  0  0  0  0  0  0  0  0  0  0  0  # atno 6909 bound_to 6896
  145.4516  139.2293  143.3036 H   0  0  0  0  0  0  0  0  0  0  0  0  # atno 7974 bound_to 7965
  154.5626  140.0705  156.8843 H   0  0  0  0  0  0  0  0  0  0  0  0  # atno 8008 bound_to 7997
  155.2782  140.3370  155.4242 H   0  0  0  0  0  0  0  0  0  0  0  0  # atno 8009 bound_to 7997
  156.2055  140.1738  156.7795 H   0  0  0  0  0  0  0  0  0  0  0  0  # atno 8010 bound_to 7997
  140.1036  144.4881  150.7022 H   0  0  0  0  0  0  0  0  0  0  0  0  # atno 10167 bound_to 10162
  157.6957  131.0351  150.3499 H   0  0  0  0  0  0  0  0  0  0  0  0  # atno 10718 bound_to 10713
  152.9880  135.6128  154.2967 H   0  0  0  0  0  0  0  0  0  0  0  0  # atno 10763 bound_to 10752
  154.2689  135.2780  155.2748 H   0  0  0  0  0  0  0  0  0  0  0  0  # atno 10764 bound_to 10752
  154.5139  135.5833  153.6684 H   0  0  0  0  0  0  0  0  0  0  0  0  # atno 10765 bound_to 10752
  140.1536  134.4430  155.8364 H   0  0  0  0  0  0  0  0  0  0  0  0  # atno 11005 bound_to 11000
  146.2501  140.5276  142.8897 LP  0  0  0  0  0  0  0  0  0  0  0  0  # atno 17320 bound_to 7965
  144.8058  140.6296  143.6448 LP  0  0  0  0  0  0  0  0  0  0  0  0  # atno 17321 bound_to 7965
  140.6964  143.2407  151.4988 LP  0  0  0  0  0  0  0  0  0  0  0  0  # atno 17342 bound_to 10162
  139.5657  144.2047  152.1762 LP  0  0  0  0  0  0  0  0  0  0  0  0  # atno 17343 bound_to 10162
  156.3949  130.3905  149.7002 LP  0  0  0  0  0  0  0  0  0  0  0  0  # atno 17370 bound_to 10713
  156.4339  130.7828  151.2849 LP  0  0  0  0  0  0  0  0  0  0  0  0  # atno 17371 bound_to 10713
  141.2202  133.6883  156.7467 LP  0  0  0  0  0  0  0  0  0  0  0  0  # atno 17394 bound_to 11000
  140.2574  134.8493  157.3726 LP  0  0  0  0  0  0  0  0  0  0  0  0  # atno 17395 bound_to 11000

$$$$
