AV-unprocessed.smi:2784|AV-procd|sdf|10738|dock3
  -GOLD-   2272015173D 1   1.00000     0.00000
 Structure written by MMmdl.
 31 32  0  0  0  0  0  0  0  0  1 V2000
  152.3078  144.3318  157.7214 C   0  0  0  0  0  0  0  0  0  0  0  0
  152.5357  144.5130  159.1102 O   0  0  0  0  0  0  0  0  0  0  0  0
  152.3038  143.3424  159.8819 C   0  0  2  0  0  0  0  0  0  0  0  0
  152.4105  143.6838  161.3708 C   0  0  0  0  0  0  0  0  0  0  0  0
  152.8500  142.3803  162.0276 C   0  0  0  0  0  0  0  0  0  0  0  0
  153.8356  141.7798  161.0261 C   0  0  0  0  0  0  0  0  0  0  0  0
  153.3561  142.2371  159.6339 C   0  0  1  0  0  0  0  0  0  0  0  0
  152.7670  141.1259  158.8901 N   0  0  0  0  0  0  0  0  0  0  0  0
  153.3672  139.9542  158.6345 C   0  0  0  0  0  0  0  0  0  0  0  0
  154.5124  139.7124  159.0289 O   0  0  0  0  0  0  0  0  0  0  0  0
  152.5353  139.1456  157.8758 N   0  0  0  0  0  0  0  0  0  0  0  0
  152.9955  138.6206  156.7829 C   0  0  0  0  0  0  0  0  0  0  0  0
  152.3352  137.7760  155.9049 N   0  0  0  0  0  0  0  0  0  0  0  0
  153.1907  137.4730  154.8818 C   0  0  0  0  0  0  0  0  0  0  0  0
  154.3414  138.1015  155.1042 C   0  0  0  0  0  0  0  0  0  0  0  0
  154.2543  138.8147  156.2616 O   0  0  0  0  0  0  0  0  0  0  0  0
  152.4812  145.2721  157.1986 H   0  0  0  0  0  0  0  0  0  0  0  0
  151.2793  144.0253  157.5274 H   0  0  0  0  0  0  0  0  0  0  0  0
  152.9801  143.5860  157.2964 H   0  0  0  0  0  0  0  0  0  0  0  0
  151.2952  142.9652  159.6990 H   0  0  0  0  0  0  0  0  0  0  0  0
  153.1803  144.4414  161.5256 H   0  0  0  0  0  0  0  0  0  0  0  0
  151.4772  144.0706  161.7807 H   0  0  0  0  0  0  0  0  0  0  0  0
  153.2921  142.5328  163.0125 H   0  0  0  0  0  0  0  0  0  0  0  0
  151.9911  141.7181  162.1439 H   0  0  0  0  0  0  0  0  0  0  0  0
  154.8297  142.1881  161.2131 H   0  0  0  0  0  0  0  0  0  0  0  0
  153.9123  140.6964  161.1276 H   0  0  0  0  0  0  0  0  0  0  0  0
  154.2039  142.6476  159.0818 H   0  0  0  0  0  0  0  0  0  0  0  0
  151.8334  141.2645  158.5314 H   0  0  0  0  0  0  0  0  0  0  0  0
  151.3917  137.4221  155.9678 H   0  0  0  0  0  0  0  0  0  0  0  0
  152.8751  136.8210  154.0806 H   0  0  0  0  0  0  0  0  0  0  0  0
  155.2734  138.1409  154.5600 H   0  0  0  0  0  0  0  0  0  0  0  0
  1  2  1  0  0  0  0
  1 17  1  0  0  0  0
  1 18  1  0  0  0  0
  1 19  1  0  0  0  0
  2  3  1  0  0  0  0
  3  7  1  0  0  0  0
  3  4  1  0  0  0  0
  3 20  1  0  0  0  0
  4  5  1  0  0  0  0
  4 21  1  0  0  0  0
  4 22  1  0  0  0  0
  5  6  1  0  0  0  0
  5 23  1  0  0  0  0
  5 24  1  0  0  0  0
  6  7  1  0  0  0  0
  6 25  1  0  0  0  0
  6 26  1  0  0  0  0
  7  8  1  0  0  0  0
  7 27  1  0  0  0  0
  8 28  1  0  0  0  0
  8  9  1  0  0  0  0
  9 11  1  0  0  0  0
  9 10  2  0  0  0  0
 11 12  2  0  0  0  0
 12 16  1  0  0  0  0
 12 13  1  0  0  0  0
 13 29  1  0  0  0  0
 13 14  1  0  0  0  0
 14 30  1  0  0  0  0
 14 15  2  0  0  0  0
 15 31  1  0  0  0  0
 15 16  1  0  0  0  0
M  END
> <s_m_source_file>
AV-unprocessed.smi

> <i_m_source_file_index>
2784

> <i_lp_mmshare_version>
43012

> <i_f3d_flags>
0

> <s_epik_input>
W0NIM11PW0NAQEhdMVtDSDJdW0NIMl1bQ0gyXVtDQEhdMVtOSF1DKD1PKVtOSF1jMm5bY0hdW2NIXW8y

> <s_epik_cmdline>
J2VwaWtfcHl0aG9uJywgJy1waCcsICc3LjAnLCAnLXRuJywgJzgnLCAnLW1hJywgJzIwMCcsICctbWV0YWxfYmluZGluZycsICctaW1hZScsICc8aW5maWxlLm1hZT4nLCAnLW9tYWUnLCAnPG91dGZpbGUubWFlPic=

> <r_lp_tautomer_probability>
0.107061

> <r_epik_Ionization_Penalty>
1.29244

> <r_epik_Ionization_Penalty_Charging>
1.29208

> <r_epik_Ionization_Penalty_Neutral>
0.000359742

> <r_epik_State_Penalty>
2.59896

> <r_epik_Charging_Adjusted_Penalty>
3.89105

> <i_epik_Tot_Q>
0

> <i_epik_Tot_abs_Q>
0

> <r_epik_Metal_State_Penalty>
3.62496

> <b_epik_Metal_Only>
0

> <s_lp_Force_Field>
OPLS_2005

> <r_lp_Energy>
42.0746

> <b_lp_Chiralities_Consistent>
1

> <s_lp_Variant>
AV-unprocessed.smi:2784-13

> <Gold.Version>
5.8.1

> <Gold.Id.Protein>
6NUR|6NUR_protein|mol2

> <Gold.PLP.Fitness>
43.9850

> <Gold.PLP.PLP>
-37.8370

> <Gold.PLP.part.hbond>
-2.0000

> <Gold.PLP.part.metal>
0.0000

> <Gold.PLP.part.buried>
-5.0917

> <Gold.PLP.part.nonpolar>
-29.8493

> <Gold.PLP.part.repulsive>
0.1737

> <Gold.PLP.ligand.clash>
0.0000

> <Gold.PLP.ligand.torsion>
0.5302

> <Gold.PLP.Chemscore.Hbond>
1.5360

> <Gold.PLP.Chemscore.CHOScore>
0.8648

> <Gold.PLP.Chemscore.Metal>
0.0000

> <Gold.Chemscore.Hbonds>
donor molecule, donor type, donor heavy atom, donor atom, acceptor molecule, acceptor atom, score
      P1  H  7997  8009       L1    10  0.40

> <Gold.PLP.Chemscore.Internal.Correction>
0.0060

> <Gold.Rescore>
     Score         DG    S(hbond)    S(metal)    S(lipo)     H(rot)  DE(clash)    DE(int)     intcor
     14.77     -16.59       1.26        0.00      88.00       1.32       0.13       1.69       ----

> <Gold.Chemscore.Fitness>
14.7741

> <Gold.Chemscore.DG>
-16.5938

> <Gold.Chemscore.ZeroCoef>
-5.4800

> <Gold.Chemscore.Hbond>
1.2594

> <Gold.Chemscore.Metal>
0.0000

> <Gold.Chemscore.Lipo>
87.9961

> <Gold.Chemscore.Internal_Hbond>
0.0000

> <Gold.Chemscore.DEClash>
0.1294

> <Gold.Chemscore.DEInternal>
1.6903

> <Gold.Chemscore.Rot>
1.3235

> <Gold.Chemscore.Internal.Correction>
   9.000000E+99

> <Gold.Chemscore.Hbonds>
donor molecule, donor type, donor heavy atom, donor atom, acceptor molecule, acceptor atom, score
      P1  H  7997  8009       L1    10  0.01
      P1  H  7997  8010       L1    16  0.01

> <Gold.Chemscore.Hbond.Weighted>
-4.2064

> <Gold.Chemscore.Metal.Weighted>
-0.0000

> <Gold.Chemscore.Lipo.Weighted>
-10.2955

> <Gold.Chemscore.Internal_Hbond.Weighted>
0.0000

> <Gold.Chemscore.DEClash.Weighted>
0.1294

> <Gold.Chemscore.DEInternal.Weighted>
1.6903

> <Gold.Chemscore.Rot.Weighted>
3.3882

> <Gold.Chemscore.Internal.Correction.Weighted>
   9.000000E+99

> <Gold.Protein.RotatedTorsions>
[ 6907 6896 6895 6894 ] final  -39.83 input  -60.11 | X-H torsion
[ 7974 7965 7964 7962 ] final   66.42 input  175.53 | X-H torsion
[ 8008 7997 7996 7995 ] final  121.69 input   59.86 | X-H torsion
[ 10167 10162 10161 10158 ] final  116.40 input  -65.29 | X-H torsion
[ 10718 10713 10712 10709 ] final  -30.75 input   66.30 | X-H torsion
[ 10763 10752 10751 10750 ] final   37.97 input  -60.55 | X-H torsion
[ 11005 11000 10999 10996 ] final -117.46 input  -57.11 | X-H torsion

> <Gold.Protein.ActiveResidues>
 VAL166  LYS551  ARG553  GLY616  TRP617  ASP618  TYR619  PRO620  LYS621  CYS622 
 ASP623  PHE694  ASN695  SER759  ASP760  ASP761  ALA762  ILE779  LEU786  VAL792 
 PHE793  MET794  SER795  GLU796  ALA797  LYS798  CYS799  TRP800  GLU811  SER814 

> <Gold.Protein.RotatedAtoms>
  150.9856  134.9202  159.7869 H   0  0  0  0  0  0  0  0  0  0  0  0  # atno 6907 bound_to 6896
  152.5235  134.3351  159.9207 H   0  0  0  0  0  0  0  0  0  0  0  0  # atno 6908 bound_to 6896
  151.3357  133.3941  159.2701 H   0  0  0  0  0  0  0  0  0  0  0  0  # atno 6909 bound_to 6896
  145.8268  139.3116  143.1011 H   0  0  0  0  0  0  0  0  0  0  0  0  # atno 7974 bound_to 7965
  156.2697  140.2803  156.1348 H   0  0  0  0  0  0  0  0  0  0  0  0  # atno 8008 bound_to 7997
  155.1016  140.0389  157.2716 H   0  0  0  0  0  0  0  0  0  0  0  0  # atno 8009 bound_to 7997
  154.6811  140.2609  155.6913 H   0  0  0  0  0  0  0  0  0  0  0  0  # atno 8010 bound_to 7997
  139.6250  144.7107  151.2553 H   0  0  0  0  0  0  0  0  0  0  0  0  # atno 10167 bound_to 10162
  156.3959  130.4381  149.7359 H   0  0  0  0  0  0  0  0  0  0  0  0  # atno 10718 bound_to 10713
  153.0018  135.6262  154.2230 H   0  0  0  0  0  0  0  0  0  0  0  0  # atno 10763 bound_to 10752
  154.1973  135.2806  155.3004 H   0  0  0  0  0  0  0  0  0  0  0  0  # atno 10764 bound_to 10752
  154.5712  135.5676  153.7155 H   0  0  0  0  0  0  0  0  0  0  0  0  # atno 10765 bound_to 10752
  141.0353  133.9919  157.3080 H   0  0  0  0  0  0  0  0  0  0  0  0  # atno 11005 bound_to 11000
  145.9614  140.8832  143.0208 LP  0  0  0  0  0  0  0  0  0  0  0  0  # atno 17320 bound_to 7965
  144.6743  140.1818  143.7405 LP  0  0  0  0  0  0  0  0  0  0  0  0  # atno 17321 bound_to 7965
  140.7405  143.6585  150.8185 LP  0  0  0  0  0  0  0  0  0  0  0  0  # atno 17342 bound_to 10162
  140.0201  143.5551  152.2804 LP  0  0  0  0  0  0  0  0  0  0  0  0  # atno 17343 bound_to 10162
  156.4394  130.7853  151.2874 LP  0  0  0  0  0  0  0  0  0  0  0  0  # atno 17370 bound_to 10713
  157.7501  131.0129  150.3405 LP  0  0  0  0  0  0  0  0  0  0  0  0  # atno 17371 bound_to 10713
  139.9236  135.0201  156.8154 LP  0  0  0  0  0  0  0  0  0  0  0  0  # atno 17394 bound_to 11000
  140.6334  133.9885  155.7672 LP  0  0  0  0  0  0  0  0  0  0  0  0  # atno 17395 bound_to 11000

$$$$
