AV-unprocessed.smi:3063|AV-procd|sdf|11685|dock2
  -GOLD-   2272017 93D 1   1.00000     0.00000
 Structure written by MMmdl.
 44 45  0  0  0  0  0  0  0  0  1 V2000
  151.5358  138.4656  154.5528 C   0  0  0  0  0  0  0  0  0  0  0  0
  151.6454  139.5608  155.6158 C   0  0  0  0  0  0  0  0  0  0  0  0
  152.5779  139.5001  156.4175 O   0  0  0  0  0  0  0  0  0  0  0  0
  150.7122  140.5427  155.6545 N   0  0  0  0  0  0  0  0  0  0  0  0
  150.6962  141.5493  156.7264 C   0  0  0  0  0  0  0  0  0  0  0  0
  149.8512  141.0749  157.9273 C   0  0  0  0  0  0  0  0  0  0  0  0
  148.3836  140.7676  157.5594 C   0  0  0  0  0  0  0  0  0  0  0  0
  148.2889  139.6501  156.5998 N   0  0  0  0  0  0  0  0  0  0  0  0
  148.2591  138.3338  156.9365 C   0  0  0  0  0  0  0  0  0  0  0  0
  147.9085  137.4440  156.1606 O   0  0  0  0  0  0  0  0  0  0  0  0
  148.6328  138.0706  158.2010 N   0  0  0  0  0  0  0  0  0  0  0  0
  148.6096  136.7607  158.8499 C   0  0  2  0  0  0  0  0  0  0  0  0
  149.2089  135.7179  157.8932 C   0  0  0  0  0  0  0  0  0  0  0  0
  147.1926  136.3937  159.3515 C   0  0  0  0  0  0  0  0  0  0  0  0
  147.1082  136.2190  160.7915 N   0  0  0  0  0  0  0  0  0  0  0  0
  146.7840  135.0772  161.4905 C   0  0  0  0  0  0  0  0  0  0  0  0
  146.8303  135.3837  162.8197 C   0  0  0  0  0  0  0  0  0  0  0  0
  147.1903  136.7601  162.8344 C   0  0  0  0  0  0  0  0  0  0  0  0
  147.3513  137.2588  161.6189 N   0  0  0  0  0  0  0  0  0  0  0  0
  148.2609  140.0887  155.1923 C   0  0  0  0  0  0  0  0  0  0  0  0
  149.6066  140.6751  154.6898 C   0  0  0  0  0  0  0  0  0  0  0  0
  150.5380  138.0268  154.5437 H   0  0  0  0  0  0  0  0  0  0  0  0
  152.2469  137.6637  154.7546 H   0  0  0  0  0  0  0  0  0  0  0  0
  151.7555  138.8670  153.5633 H   0  0  0  0  0  0  0  0  0  0  0  0
  151.7089  141.7842  157.0576 H   0  0  0  0  0  0  0  0  0  0  0  0
  150.2975  142.4942  156.3553 H   0  0  0  0  0  0  0  0  0  0  0  0
  150.3126  140.1970  158.3804 H   0  0  0  0  0  0  0  0  0  0  0  0
  149.8678  141.8491  158.6950 H   0  0  0  0  0  0  0  0  0  0  0  0
  147.8039  140.5684  158.4615 H   0  0  0  0  0  0  0  0  0  0  0  0
  147.9284  141.6637  157.1354 H   0  0  0  0  0  0  0  0  0  0  0  0
  148.9188  138.8512  158.7741 H   0  0  0  0  0  0  0  0  0  0  0  0
  149.2646  136.8074  159.7216 H   0  0  0  0  0  0  0  0  0  0  0  0
  149.1884  134.7222  158.3371 H   0  0  0  0  0  0  0  0  0  0  0  0
  150.2481  135.9525  157.6617 H   0  0  0  0  0  0  0  0  0  0  0  0
  148.6647  135.6740  156.9493 H   0  0  0  0  0  0  0  0  0  0  0  0
  146.4857  137.1708  159.0571 H   0  0  0  0  0  0  0  0  0  0  0  0
  146.8439  135.4766  158.8752 H   0  0  0  0  0  0  0  0  0  0  0  0
  146.5528  134.1538  160.9838 H   0  0  0  0  0  0  0  0  0  0  0  0
  146.6342  134.7256  163.6530 H   0  0  0  0  0  0  0  0  0  0  0  0
  147.3366  137.4075  163.6861 H   0  0  0  0  0  0  0  0  0  0  0  0
  147.9647  139.2780  154.5252 H   0  0  0  0  0  0  0  0  0  0  0  0
  147.4734  140.8333  155.0692 H   0  0  0  0  0  0  0  0  0  0  0  0
  149.4621  141.7329  154.4669 H   0  0  0  0  0  0  0  0  0  0  0  0
  149.8567  140.2440  153.7206 H   0  0  0  0  0  0  0  0  0  0  0  0
  1  2  1  0  0  0  0
  1 22  1  0  0  0  0
  1 23  1  0  0  0  0
  1 24  1  0  0  0  0
  2  3  2  0  0  0  0
  2  4  1  0  0  0  0
  4 21  1  0  0  0  0
  4  5  1  0  0  0  0
  5  6  1  0  0  0  0
  5 25  1  0  0  0  0
  5 26  1  0  0  0  0
  6  7  1  0  0  0  0
  6 27  1  0  0  0  0
  6 28  1  0  0  0  0
  7  8  1  0  0  0  0
  7 29  1  0  0  0  0
  7 30  1  0  0  0  0
  8  9  1  0  0  0  0
  8 20  1  0  0  0  0
  9 10  2  0  0  0  0
  9 11  1  0  0  0  0
 11 12  1  0  0  0  0
 11 31  1  0  0  0  0
 12 13  1  0  0  0  0
 12 14  1  0  0  0  0
 12 32  1  0  0  0  0
 13 33  1  0  0  0  0
 13 34  1  0  0  0  0
 13 35  1  0  0  0  0
 14 15  1  0  0  0  0
 14 36  1  0  0  0  0
 14 37  1  0  0  0  0
 15 19  1  0  0  0  0
 15 16  1  0  0  0  0
 16 17  2  0  0  0  0
 16 38  1  0  0  0  0
 17 18  1  0  0  0  0
 17 39  1  0  0  0  0
 18 19  2  0  0  0  0
 18 40  1  0  0  0  0
 20 21  1  0  0  0  0
 20 41  1  0  0  0  0
 20 42  1  0  0  0  0
 21 43  1  0  0  0  0
 21 44  1  0  0  0  0
M  END
> <s_m_source_file>
AV-unprocessed.smi

> <i_m_source_file_index>
3063

> <i_lp_mmshare_version>
43012

> <i_f3d_flags>
0

> <s_epik_input>
W0NIM11DKD1PKU4xW0NIMl1bQ0gyXVtDSDJdTihbQ0gyXVtDSDJdMSlDKD1PKVtOSF1bQ0BIXShbQ0gzXSlbQ0gyXW4yW2NIXVtjSF1bY0hdbjI=

> <s_epik_cmdline>
J2VwaWtfcHl0aG9uJywgJy1waCcsICc3LjAnLCAnLXRuJywgJzgnLCAnLW1hJywgJzIwMCcsICctbWV0YWxfYmluZGluZycsICctaW1hZScsICc8aW5maWxlLm1hZT4nLCAnLW9tYWUnLCAnPG91dGZpbGUubWFlPic=

> <r_lp_tautomer_probability>
1

> <r_epik_Ionization_Penalty>
6.19559e-05

> <r_epik_Ionization_Penalty_Charging>
0

> <r_epik_Ionization_Penalty_Neutral>
6.19559e-05

> <r_epik_State_Penalty>
-0

> <r_epik_Charging_Adjusted_Penalty>
0

> <i_epik_Tot_Q>
0

> <i_epik_Tot_abs_Q>
0

> <r_epik_Metal_State_Penalty>
-0

> <b_epik_Metal_Only>
0

> <s_lp_Force_Field>
OPLS_2005

> <r_lp_Energy>
38.8795

> <b_lp_Chiralities_Consistent>
1

> <s_lp_Variant>
AV-unprocessed.smi:3063-1

> <Gold.Version>
5.8.1

> <Gold.Id.Protein>
6NUR|6NUR_protein|mol2

> <Gold.PLP.Fitness>
43.9345

> <Gold.PLP.PLP>
-38.2242

> <Gold.PLP.part.hbond>
-3.0000

> <Gold.PLP.part.metal>
0.0000

> <Gold.PLP.part.buried>
-2.5153

> <Gold.PLP.part.nonpolar>
-31.3847

> <Gold.PLP.part.repulsive>
0.1424

> <Gold.PLP.ligand.clash>
0.0000

> <Gold.PLP.ligand.torsion>
1.1158

> <Gold.PLP.Chemscore.Hbond>
2.6292

> <Gold.PLP.Chemscore.CHOScore>
0.0000

> <Gold.PLP.Chemscore.Metal>
0.0000

> <Gold.Chemscore.Hbonds>
donor molecule, donor type, donor heavy atom, donor atom, acceptor molecule, acceptor atom, score
      P1  H  6931  6943       L1    19  0.82
      P1  H  6934  6947       L1    19  0.86
      P1  H  7997  8010       L1     3  1.00

> <Gold.PLP.Chemscore.Internal.Correction>
0.0543

> <Gold.Rescore>
     Score         DG    S(hbond)    S(metal)    S(lipo)     H(rot)  DE(clash)    DE(int)     intcor
     13.83     -16.24       1.96        0.00      67.39       1.44       0.09       2.32       ----

> <Gold.Chemscore.Fitness>
13.8339

> <Gold.Chemscore.DG>
-16.2417

> <Gold.Chemscore.ZeroCoef>
-5.4800

> <Gold.Chemscore.Hbond>
1.9628

> <Gold.Chemscore.Metal>
0.0000

> <Gold.Chemscore.Lipo>
67.3867

> <Gold.Chemscore.Internal_Hbond>
0.0000

> <Gold.Chemscore.DEClash>
0.0888

> <Gold.Chemscore.DEInternal>
2.3190

> <Gold.Chemscore.Rot>
1.4368

> <Gold.Chemscore.Internal.Correction>
   9.000000E+99

> <Gold.Chemscore.Hbonds>
donor molecule, donor type, donor heavy atom, donor atom, acceptor molecule, acceptor atom, score
      P1  H  6931  6943       L1    19  0.18
      P1  H  6934  6947       L1    19  0.82
      P1  H  7997  8010       L1     3  0.95

> <Gold.Chemscore.Hbond.Weighted>
-6.5557

> <Gold.Chemscore.Metal.Weighted>
-0.0000

> <Gold.Chemscore.Lipo.Weighted>
-7.8842

> <Gold.Chemscore.Internal_Hbond.Weighted>
0.0000

> <Gold.Chemscore.DEClash.Weighted>
0.0888

> <Gold.Chemscore.DEInternal.Weighted>
2.3190

> <Gold.Chemscore.Rot.Weighted>
3.6782

> <Gold.Chemscore.Internal.Correction.Weighted>
   9.000000E+99

> <Gold.Protein.RotatedTorsions>
[ 6907 6896 6895 6894 ] final   59.23 input  -60.11 | X-H torsion
[ 7974 7965 7964 7962 ] final -138.26 input  175.53 | X-H torsion
[ 8008 7997 7996 7995 ] final   92.42 input   59.86 | X-H torsion
[ 10167 10162 10161 10158 ] final -140.94 input  -65.29 | X-H torsion
[ 10718 10713 10712 10709 ] final    9.35 input   66.30 | X-H torsion
[ 10763 10752 10751 10750 ] final -151.52 input  -60.55 | X-H torsion
[ 11005 11000 10999 10996 ] final   46.97 input  -57.11 | X-H torsion

> <Gold.Protein.ActiveResidues>
 VAL166  LYS551  ARG553  GLY616  TRP617  ASP618  TYR619  PRO620  LYS621  CYS622 
 ASP623  PHE694  ASN695  SER759  ASP760  ASP761  ALA762  ILE779  LEU786  VAL792 
 PHE793  MET794  SER795  GLU796  ALA797  LYS798  CYS799  TRP800  GLU811  SER814 

> <Gold.Protein.RotatedAtoms>
  152.3896  134.6462  160.0112 H   0  0  0  0  0  0  0  0  0  0  0  0  # atno 6907 bound_to 6896
  151.6700  133.3308  159.3202 H   0  0  0  0  0  0  0  0  0  0  0  0  # atno 6908 bound_to 6896
  150.7815  134.6807  159.6487 H   0  0  0  0  0  0  0  0  0  0  0  0  # atno 6909 bound_to 6896
  144.8773  140.6456  143.5228 H   0  0  0  0  0  0  0  0  0  0  0  0  # atno 7974 bound_to 7965
  156.0351  140.3325  155.7182 H   0  0  0  0  0  0  0  0  0  0  0  0  # atno 8008 bound_to 7997
  155.5827  140.0638  157.2796 H   0  0  0  0  0  0  0  0  0  0  0  0  # atno 8009 bound_to 7997
  154.4369  140.1841  156.0981 H   0  0  0  0  0  0  0  0  0  0  0  0  # atno 8010 bound_to 7997
  139.8233  143.7544  152.2666 H   0  0  0  0  0  0  0  0  0  0  0  0  # atno 10167 bound_to 10162
  156.9650  130.5947  149.5664 H   0  0  0  0  0  0  0  0  0  0  0  0  # atno 10718 bound_to 10713
  154.8052  135.3258  154.7448 H   0  0  0  0  0  0  0  0  0  0  0  0  # atno 10763 bound_to 10752
  153.8108  135.6896  153.4845 H   0  0  0  0  0  0  0  0  0  0  0  0  # atno 10764 bound_to 10752
  153.1793  135.4592  154.9952 H   0  0  0  0  0  0  0  0  0  0  0  0  # atno 10765 bound_to 10752
  140.1321  134.4692  155.8513 H   0  0  0  0  0  0  0  0  0  0  0  0  # atno 11005 bound_to 11000
  145.4019  139.1596  143.4173 LP  0  0  0  0  0  0  0  0  0  0  0  0  # atno 17320 bound_to 7965
  146.2971  140.4117  142.8718 LP  0  0  0  0  0  0  0  0  0  0  0  0  # atno 17321 bound_to 7965
  139.7729  144.7470  151.0198 LP  0  0  0  0  0  0  0  0  0  0  0  0  # atno 17342 bound_to 10162
  140.7812  143.4625  151.0258 LP  0  0  0  0  0  0  0  0  0  0  0  0  # atno 17343 bound_to 10162
  156.0306  130.5398  150.8524 LP  0  0  0  0  0  0  0  0  0  0  0  0  # atno 17370 bound_to 10713
  157.5632  131.0946  150.9529 LP  0  0  0  0  0  0  0  0  0  0  0  0  # atno 17371 bound_to 10713
  141.2172  133.6800  156.7089 LP  0  0  0  0  0  0  0  0  0  0  0  0  # atno 17394 bound_to 11000
  140.2829  134.8302  157.3949 LP  0  0  0  0  0  0  0  0  0  0  0  0  # atno 17395 bound_to 11000

$$$$
