AV-unprocessed.smi:994|AV-procd|sdf|4344|dock1
  -GOLD-   22720 2243D 1   1.00000     0.00000
 Structure written by MMmdl.
 37 38  0  0  0  0  0  0  0  0  2 V2000
  153.3362  139.4660  158.1190 O   0  0  0  0  0  0  0  0  0  0  0  0
  152.4089  140.2212  158.4126 C   0  0  0  0  0  0  0  0  0  0  0  0
  151.1247  139.8339  158.4500 N   0  0  0  0  0  0  0  0  0  0  0  0
  150.6288  138.4940  158.1347 C   0  0  1  0  0  0  0  0  0  0  0  0
  151.1743  138.0709  156.7517 C   0  0  0  0  0  0  0  0  0  0  0  0
  150.4402  138.6353  155.5562 C   0  0  0  0  0  0  0  0  0  0  0  0
  150.4756  138.2372  154.2332 C   0  0  0  0  0  0  0  0  0  0  0  0
  149.6260  139.0851  153.5460 N   0  0  0  0  0  0  0  0  0  0  0  0
  149.1267  139.9416  154.4373 C   0  0  0  0  0  0  0  0  0  0  0  0
  149.5756  139.7307  155.6676 N   0  0  0  0  0  0  0  0  0  0  0  0
  151.1383  137.4947  159.1850 C   0  0  0  0  0  0  0  0  0  0  0  0
  152.3736  137.4536  159.3739 O   0  0  0  0  0  0  0  0  0  0  0  0
  150.2912  136.7938  159.7837 O   0  5  0  0  0  0  0  0  0  0  0  0
  152.6882  141.6855  158.7753 C   0  0  0  0  0  0  0  0  0  0  0  0
  152.4710  141.9350  160.2831 C   0  0  0  0  0  0  0  0  0  0  0  0
  152.7299  143.4059  160.6499 C   0  0  0  0  0  0  0  0  0  0  0  0
  151.8576  144.3519  159.8091 C   0  0  0  0  0  0  0  0  0  0  0  0
  152.0638  144.1076  158.3058 C   0  0  0  0  0  0  0  0  0  0  0  0
  151.8042  142.6369  157.9407 C   0  0  0  0  0  0  0  0  0  0  0  0
  149.4242  139.0616  152.5569 H   0  0  0  0  0  0  0  0  0  0  0  0
  150.4284  140.5259  158.6847 H   0  0  0  0  0  0  0  0  0  0  0  0
  149.5371  138.4777  158.1191 H   0  0  0  0  0  0  0  0  0  0  0  0
  152.2245  138.3537  156.6600 H   0  0  0  0  0  0  0  0  0  0  0  0
  151.1427  136.9841  156.6608 H   0  0  0  0  0  0  0  0  0  0  0  0
  151.0187  137.4429  153.7422 H   0  0  0  0  0  0  0  0  0  0  0  0
  148.4299  140.7271  154.1844 H   0  0  0  0  0  0  0  0  0  0  0  0
  153.7327  141.9028  158.5438 H   0  0  0  0  0  0  0  0  0  0  0  0
  151.4513  141.6688  160.5664 H   0  0  0  0  0  0  0  0  0  0  0  0
  153.1303  141.2921  160.8680 H   0  0  0  0  0  0  0  0  0  0  0  0
  152.5342  143.5640  161.7108 H   0  0  0  0  0  0  0  0  0  0  0  0
  153.7830  143.6415  160.4909 H   0  0  0  0  0  0  0  0  0  0  0  0
  150.8072  144.2021  160.0622 H   0  0  0  0  0  0  0  0  0  0  0  0
  152.0900  145.3888  160.0533 H   0  0  0  0  0  0  0  0  0  0  0  0
  151.4025  144.7555  157.7299 H   0  0  0  0  0  0  0  0  0  0  0  0
  153.0829  144.3792  158.0276 H   0  0  0  0  0  0  0  0  0  0  0  0
  151.9928  142.4870  156.8767 H   0  0  0  0  0  0  0  0  0  0  0  0
  150.7492  142.4090  158.1018 H   0  0  0  0  0  0  0  0  0  0  0  0
  1  2  2  0  0  0  0
  2  3  1  0  0  0  0
  2 14  1  0  0  0  0
  3  4  1  0  0  0  0
  3 21  1  0  0  0  0
  4  5  1  0  0  0  0
  4 11  1  0  0  0  0
  4 22  1  0  0  0  0
  5  6  1  0  0  0  0
  5 23  1  0  0  0  0
  5 24  1  0  0  0  0
  6 10  1  0  0  0  0
  6  7  2  0  0  0  0
  7  8  1  0  0  0  0
  7 25  1  0  0  0  0
  8 20  1  0  0  0  0
  8  9  1  0  0  0  0
  9 10  2  0  0  0  0
  9 26  1  0  0  0  0
 11 12  2  0  0  0  0
 11 13  1  0  0  0  0
 14 19  1  0  0  0  0
 14 15  1  0  0  0  0
 14 27  1  0  0  0  0
 15 16  1  0  0  0  0
 15 28  1  0  0  0  0
 15 29  1  0  0  0  0
 16 17  1  0  0  0  0
 16 30  1  0  0  0  0
 16 31  1  0  0  0  0
 17 18  1  0  0  0  0
 17 32  1  0  0  0  0
 17 33  1  0  0  0  0
 18 19  1  0  0  0  0
 18 34  1  0  0  0  0
 18 35  1  0  0  0  0
 19 36  1  0  0  0  0
 19 37  1  0  0  0  0
M  CHG  1  13  -1
M  END
> <s_m_source_file>
AV-unprocessed.smi

> <i_m_source_file_index>
994

> <i_lp_mmshare_version>
43012

> <i_f3d_flags>
0

> <s_epik_input>
W0NIMl0xW0NIMl1bQ0gyXVtDSDJdW0NIMl1bQ0hdMUMoPU8pW05IXVtDQEBIXShDKD1PKVtPSF0pW0NIMl1jMltjSF1bbkhdW2NIXW4y

> <s_epik_cmdline>
J2VwaWtfcHl0aG9uJywgJy1waCcsICc3LjAnLCAnLXRuJywgJzgnLCAnLW1hJywgJzIwMCcsICctbWV0YWxfYmluZGluZycsICctaW1hZScsICc8aW5maWxlLm1hZT4nLCAnLW9tYWUnLCAnPG91dGZpbGUubWFlPic=

> <r_lp_tautomer_probability>
0.5

> <r_epik_Ionization_Penalty>
0.836077

> <r_epik_Ionization_Penalty_Charging>
0.836077

> <r_epik_Ionization_Penalty_Neutral>
7.85059e-08

> <r_epik_State_Penalty>
0.938582

> <r_epik_Charging_Adjusted_Penalty>
1.77466

> <i_epik_Tot_Q>
-1

> <i_epik_Tot_abs_Q>
1

> <r_epik_Metal_State_Penalty>
0.523638

> <b_epik_Metal_Only>
0

> <s_lp_Force_Field>
OPLS_2005

> <r_lp_Energy>
9.68515

> <b_lp_Chiralities_Consistent>
1

> <s_lp_Variant>
AV-unprocessed.smi:994-6

> <Gold.Version>
5.8.1

> <Gold.Id.Protein>
6NUR|6NUR_protein|mol2

> <Gold.PLP.Fitness>
48.3894

> <Gold.PLP.PLP>
-36.3000

> <Gold.PLP.part.hbond>
-2.8496

> <Gold.PLP.part.metal>
0.0000

> <Gold.PLP.part.buried>
-5.6878

> <Gold.PLP.part.nonpolar>
-26.8184

> <Gold.PLP.part.repulsive>
0.3139

> <Gold.PLP.ligand.clash>
0.0000

> <Gold.PLP.ligand.torsion>
0.6646

> <Gold.PLP.Chemscore.Hbond>
4.0000

> <Gold.PLP.Chemscore.CHOScore>
0.3961

> <Gold.PLP.Chemscore.Metal>
0.0000

> <Gold.Chemscore.Hbonds>
donor molecule, donor type, donor heavy atom, donor atom, acceptor molecule, acceptor atom, score
      L1  H     8    20       P1  7957  0.82
      P1  H  6896  6907       L1    13  2.00
      P1  H  7997  8010       L1     1  1.00
      L1  C     7    25       P1  7949  0.62

> <Gold.PLP.Chemscore.Internal.Correction>
0.2304

> <Gold.Rescore>
     Score         DG    S(hbond)    S(metal)    S(lipo)     H(rot)  DE(clash)    DE(int)     intcor
     13.97     -19.02       2.97        0.00      88.99       2.66       0.03       5.02       ----

> <Gold.Chemscore.Fitness>
13.9653

> <Gold.Chemscore.DG>
-19.0164

> <Gold.Chemscore.ZeroCoef>
-5.4800

> <Gold.Chemscore.Hbond>
2.9729

> <Gold.Chemscore.Metal>
0.0000

> <Gold.Chemscore.Lipo>
88.9885

> <Gold.Chemscore.Internal_Hbond>
0.0000

> <Gold.Chemscore.DEClash>
0.0315

> <Gold.Chemscore.DEInternal>
5.0196

> <Gold.Chemscore.Rot>
2.6581

> <Gold.Chemscore.Internal.Correction>
   9.000000E+99

> <Gold.Chemscore.Hbonds>
donor molecule, donor type, donor heavy atom, donor atom, acceptor molecule, acceptor atom, score
      L1  H     8    20       P1  7957  0.79
      P1  H  6896  6907       L1    13  0.55
      P1  H  7997  8010       L1     1  0.98

> <Gold.Chemscore.Hbond.Weighted>
-9.9295

> <Gold.Chemscore.Metal.Weighted>
-0.0000

> <Gold.Chemscore.Lipo.Weighted>
-10.4117

> <Gold.Chemscore.Internal_Hbond.Weighted>
0.0000

> <Gold.Chemscore.DEClash.Weighted>
0.0315

> <Gold.Chemscore.DEInternal.Weighted>
5.0196

> <Gold.Chemscore.Rot.Weighted>
6.8048

> <Gold.Chemscore.Internal.Correction.Weighted>
   9.000000E+99

> <Gold.Protein.RotatedTorsions>
[ 6907 6896 6895 6894 ] final  -37.33 input  -60.11 | X-H torsion
[ 7974 7965 7964 7962 ] final -133.06 input  175.53 | X-H torsion
[ 8008 7997 7996 7995 ] final   29.70 input   59.86 | X-H torsion
[ 10167 10162 10161 10158 ] final   -0.17 input  -65.29 | X-H torsion
[ 10718 10713 10712 10709 ] final  106.71 input   66.30 | X-H torsion
[ 10763 10752 10751 10750 ] final  -65.31 input  -60.55 | X-H torsion
[ 11005 11000 10999 10996 ] final  128.86 input  -57.11 | X-H torsion

> <Gold.Protein.ActiveResidues>
 VAL166  LYS551  ARG553  GLY616  TRP617  ASP618  TYR619  PRO620  LYS621  CYS622 
 ASP623  PHE694  ASN695  SER759  ASP760  ASP761  ALA762  ILE779  LEU786  VAL792 
 PHE793  MET794  SER795  GLU796  ALA797  LYS798  CYS799  TRP800  GLU811  SER814 

> <Gold.Protein.RotatedAtoms>
  151.0161  134.9433  159.8033 H   0  0  0  0  0  0  0  0  0  0  0  0  # atno 6907 bound_to 6896
  152.5314  134.2965  159.9072 H   0  0  0  0  0  0  0  0  0  0  0  0  # atno 6908 bound_to 6896
  151.2972  133.4097  159.2671 H   0  0  0  0  0  0  0  0  0  0  0  0  # atno 6909 bound_to 6896
  144.9228  140.7035  143.4954 H   0  0  0  0  0  0  0  0  0  0  0  0  # atno 7974 bound_to 7965
  155.0786  140.3208  155.4608 H   0  0  0  0  0  0  0  0  0  0  0  0  # atno 8008 bound_to 7997
  156.2773  140.2099  156.5859 H   0  0  0  0  0  0  0  0  0  0  0  0  # atno 8009 bound_to 7997
  154.6997  140.0508  157.0433 H   0  0  0  0  0  0  0  0  0  0  0  0  # atno 8010 bound_to 7997
  140.6755  143.6926  150.8015 H   0  0  0  0  0  0  0  0  0  0  0  0  # atno 10167 bound_to 10162
  157.6657  131.0857  150.6048 H   0  0  0  0  0  0  0  0  0  0  0  0  # atno 10718 bound_to 10713
  154.3431  135.6152  153.5606 H   0  0  0  0  0  0  0  0  0  0  0  0  # atno 10763 bound_to 10752
  152.9803  135.5774  154.4830 H   0  0  0  0  0  0  0  0  0  0  0  0  # atno 10764 bound_to 10752
  154.4538  135.2853  155.1739 H   0  0  0  0  0  0  0  0  0  0  0  0  # atno 10765 bound_to 10752
  139.9583  134.9608  156.9064 H   0  0  0  0  0  0  0  0  0  0  0  0  # atno 11005 bound_to 11000
  145.3268  139.1771  143.4558 LP  0  0  0  0  0  0  0  0  0  0  0  0  # atno 17320 bound_to 7965
  146.3212  140.3293  142.8639 LP  0  0  0  0  0  0  0  0  0  0  0  0  # atno 17321 bound_to 7965
  140.0619  143.5146  152.2623 LP  0  0  0  0  0  0  0  0  0  0  0  0  # atno 17342 bound_to 10162
  139.6046  144.7592  151.3092 LP  0  0  0  0  0  0  0  0  0  0  0  0  # atno 17343 bound_to 10162
  156.6349  130.4442  149.5773 LP  0  0  0  0  0  0  0  0  0  0  0  0  # atno 17370 bound_to 10713
  156.2254  130.6762  151.1410 LP  0  0  0  0  0  0  0  0  0  0  0  0  # atno 17371 bound_to 10713
  140.5557  134.0584  155.7383 LP  0  0  0  0  0  0  0  0  0  0  0  0  # atno 17394 bound_to 11000
  141.1258  133.9386  157.2638 LP  0  0  0  0  0  0  0  0  0  0  0  0  # atno 17395 bound_to 11000

$$$$
