AV-unprocessed.smi:694|AV-procd|sdf|3382|dock1
  -GOLD-   22720 0363D 1   1.00000     0.00000
 Structure written by MMmdl.
 42 43  0  0  0  0  0  0  0  0  1 V2000
  152.1606  144.8001  157.9084 C   0  0  0  0  0  0  0  0  0  0  0  0
  152.2970  144.7345  159.3600 N   0  0  0  0  0  0  0  0  0  0  0  0
  151.9675  145.8972  160.1751 C   0  0  0  0  0  0  0  0  0  0  0  0
  152.7631  143.5468  159.9686 C   0  0  0  0  0  0  0  0  0  0  0  0
  152.7000  143.3592  161.3715 C   0  0  0  0  0  0  0  0  0  0  0  0
  153.1813  142.1582  161.9267 C   0  0  0  0  0  0  0  0  0  0  0  0
  153.7187  141.1701  161.0797 C   0  0  0  0  0  0  0  0  0  0  0  0
  154.1783  139.9629  161.6745 N   0  0  0  0  0  0  0  0  0  0  0  0
  154.5085  138.8021  161.0820 C   0  0  0  0  0  0  0  0  0  0  0  0
  154.5122  138.5943  159.8692 O   0  0  0  0  0  0  0  0  0  0  0  0
  154.8607  137.8791  161.9882 N   0  0  0  0  0  0  0  0  0  0  0  0
  155.2722  136.5139  161.6758 C   0  0  0  0  0  0  0  0  0  0  0  0
  154.3865  135.4591  162.3735 C   0  0  2  0  0  0  0  0  0  0  0  0
  154.2937  135.6224  163.8949 C   0  0  0  0  0  0  0  0  0  0  0  0
  153.8711  134.2481  164.4362 C   0  0  0  0  0  0  0  0  0  0  0  0
  154.0081  133.2553  163.2708 C   0  0  0  0  0  0  0  0  0  0  0  0
  154.7932  133.9896  162.1786 C   0  0  2  0  0  0  0  0  0  0  0  0
  156.1783  133.8000  162.4027 O   0  0  0  0  0  0  0  0  0  0  0  0
  153.7305  141.4387  159.6905 C   0  0  0  0  0  0  0  0  0  0  0  0
  153.2715  142.5894  159.1551 N   0  0  0  0  0  0  0  0  0  0  0  0
  151.4556  144.0468  157.5554 H   0  0  0  0  0  0  0  0  0  0  0  0
  153.1233  144.6265  157.4259 H   0  0  0  0  0  0  0  0  0  0  0  0
  151.7968  145.7754  157.5848 H   0  0  0  0  0  0  0  0  0  0  0  0
  152.8445  146.2429  160.7230 H   0  0  0  0  0  0  0  0  0  0  0  0
  151.1810  145.6541  160.8900 H   0  0  0  0  0  0  0  0  0  0  0  0
  151.6123  146.7248  159.5611 H   0  0  0  0  0  0  0  0  0  0  0  0
  152.2933  144.1100  162.0319 H   0  0  0  0  0  0  0  0  0  0  0  0
  153.1384  142.0021  162.9946 H   0  0  0  0  0  0  0  0  0  0  0  0
  154.2971  139.9964  162.6762 H   0  0  0  0  0  0  0  0  0  0  0  0
  154.8324  138.1346  162.9644 H   0  0  0  0  0  0  0  0  0  0  0  0
  155.2348  136.3878  160.5936 H   0  0  0  0  0  0  0  0  0  0  0  0
  156.3164  136.3719  161.9597 H   0  0  0  0  0  0  0  0  0  0  0  0
  153.3716  135.5618  161.9853 H   0  0  0  0  0  0  0  0  0  0  0  0
  155.2700  135.8876  164.3027 H   0  0  0  0  0  0  0  0  0  0  0  0
  153.5965  136.4110  164.1798 H   0  0  0  0  0  0  0  0  0  0  0  0
  154.5090  133.9596  165.2723 H   0  0  0  0  0  0  0  0  0  0  0  0
  152.8443  134.2671  164.8030 H   0  0  0  0  0  0  0  0  0  0  0  0
  154.4717  132.3149  163.5716 H   0  0  0  0  0  0  0  0  0  0  0  0
  153.0137  133.0142  162.8926 H   0  0  0  0  0  0  0  0  0  0  0  0
  154.5428  133.6230  161.1825 H   0  0  0  0  0  0  0  0  0  0  0  0
  156.5319  133.2959  161.6862 H   0  0  0  0  0  0  0  0  0  0  0  0
  154.0936  140.7260  158.9676 H   0  0  0  0  0  0  0  0  0  0  0  0
  1  2  1  0  0  0  0
  1 21  1  0  0  0  0
  1 22  1  0  0  0  0
  1 23  1  0  0  0  0
  2  3  1  0  0  0  0
  2  4  1  0  0  0  0
  3 24  1  0  0  0  0
  3 25  1  0  0  0  0
  3 26  1  0  0  0  0
  4 20  1  0  0  0  0
  4  5  2  0  0  0  0
  5  6  1  0  0  0  0
  5 27  1  0  0  0  0
  6  7  2  0  0  0  0
  6 28  1  0  0  0  0
  7  8  1  0  0  0  0
  7 19  1  0  0  0  0
  8  9  1  0  0  0  0
  8 29  1  0  0  0  0
  9 10  2  0  0  0  0
  9 11  1  0  0  0  0
 11 12  1  0  0  0  0
 11 30  1  0  0  0  0
 12 13  1  0  0  0  0
 12 31  1  0  0  0  0
 12 32  1  0  0  0  0
 13 17  1  0  0  0  0
 13 14  1  0  0  0  0
 13 33  1  0  0  0  0
 14 15  1  0  0  0  0
 14 34  1  0  0  0  0
 14 35  1  0  0  0  0
 15 16  1  0  0  0  0
 15 36  1  0  0  0  0
 15 37  1  0  0  0  0
 16 17  1  0  0  0  0
 16 38  1  0  0  0  0
 16 39  1  0  0  0  0
 17 18  1  0  0  0  0
 17 40  1  0  0  0  0
 18 41  1  0  0  0  0
 19 20  2  0  0  0  0
 19 42  1  0  0  0  0
M  END
> <s_m_source_file>
AV-unprocessed.smi

> <i_m_source_file_index>
694

> <i_lp_mmshare_version>
43012

> <i_f3d_flags>
0

> <s_epik_input>
W0NIM11OKFtDSDNdKWMxW2NIXVtjSF1jKFtjSF1uMSlbTkhdQyg9TylbTkhdW0NIMl1bQ0BASF0yW0NIMl1bQ0gyXVtDSDJdW0NASF0yW09IXQ==

> <s_epik_cmdline>
J2VwaWtfcHl0aG9uJywgJy1waCcsICc3LjAnLCAnLXRuJywgJzgnLCAnLW1hJywgJzIwMCcsICctbWV0YWxfYmluZGluZycsICctaW1hZScsICc8aW5maWxlLm1hZT4nLCAnLW9tYWUnLCAnPG91dGZpbGUubWFlPic=

> <r_lp_tautomer_probability>
1

> <r_epik_Ionization_Penalty>
0.60335

> <r_epik_Ionization_Penalty_Charging>
0

> <r_epik_Ionization_Penalty_Neutral>
0.60335

> <r_epik_State_Penalty>
0.616805

> <r_epik_Charging_Adjusted_Penalty>
0.616805

> <i_epik_Tot_Q>
0

> <i_epik_Tot_abs_Q>
0

> <r_epik_Metal_State_Penalty>
0.301709

> <b_epik_Metal_Only>
0

> <s_lp_Force_Field>
OPLS_2005

> <r_lp_Energy>
30.3621

> <b_lp_Chiralities_Consistent>
1

> <s_lp_Variant>
AV-unprocessed.smi:694-7

> <Gold.Version>
5.8.1

> <Gold.Id.Protein>
6NUR|6NUR_protein|mol2

> <Gold.PLP.Fitness>
45.3747

> <Gold.PLP.PLP>
-45.5541

> <Gold.PLP.part.hbond>
0.0000

> <Gold.PLP.part.metal>
0.0000

> <Gold.PLP.part.buried>
-4.7462

> <Gold.PLP.part.nonpolar>
-38.9731

> <Gold.PLP.part.repulsive>
0.0057

> <Gold.PLP.ligand.clash>
0.0000

> <Gold.PLP.ligand.torsion>
0.1003

> <Gold.PLP.Chemscore.Hbond>
0.0000

> <Gold.PLP.Chemscore.CHOScore>
0.0000

> <Gold.PLP.Chemscore.Metal>
0.0000

> <Gold.PLP.Chemscore.Internal.Correction>
0.0211

> <Gold.Rescore>
     Score         DG    S(hbond)    S(metal)    S(lipo)     H(rot)  DE(clash)    DE(int)     intcor
     12.97     -14.27       0.00        0.00     112.92       1.73       0.08       1.23       ----

> <Gold.Chemscore.Fitness>
12.9681

> <Gold.Chemscore.DG>
-14.2738

> <Gold.Chemscore.ZeroCoef>
-5.4800

> <Gold.Chemscore.Hbond>
0.0000

> <Gold.Chemscore.Metal>
0.0000

> <Gold.Chemscore.Lipo>
112.9243

> <Gold.Chemscore.Internal_Hbond>
0.0000

> <Gold.Chemscore.DEClash>
0.0784

> <Gold.Chemscore.DEInternal>
1.2273

> <Gold.Chemscore.Rot>
1.7259

> <Gold.Chemscore.Internal.Correction>
   9.000000E+99

> <Gold.Chemscore.Hbond.Weighted>
-0.0000

> <Gold.Chemscore.Metal.Weighted>
-0.0000

> <Gold.Chemscore.Lipo.Weighted>
-13.2121

> <Gold.Chemscore.Internal_Hbond.Weighted>
0.0000

> <Gold.Chemscore.DEClash.Weighted>
0.0784

> <Gold.Chemscore.DEInternal.Weighted>
1.2273

> <Gold.Chemscore.Rot.Weighted>
4.4184

> <Gold.Chemscore.Internal.Correction.Weighted>
   9.000000E+99

> <Gold.Protein.RotatedTorsions>
[ 6907 6896 6895 6894 ] final  175.05 input  -60.11 | X-H torsion
[ 7974 7965 7964 7962 ] final  -76.10 input  175.53 | X-H torsion
[ 8008 7997 7996 7995 ] final  160.39 input   59.86 | X-H torsion
[ 10167 10162 10161 10158 ] final  -35.80 input  -65.29 | X-H torsion
[ 10718 10713 10712 10709 ] final -148.43 input   66.30 | X-H torsion
[ 10763 10752 10751 10750 ] final   93.49 input  -60.55 | X-H torsion
[ 11005 11000 10999 10996 ] final  136.08 input  -57.11 | X-H torsion

> <Gold.Protein.ActiveResidues>
 VAL166  LYS551  ARG553  GLY616  TRP617  ASP618  TYR619  PRO620  LYS621  CYS622 
 ASP623  PHE694  ASN695  SER759  ASP760  ASP761  ALA762  ILE779  LEU786  VAL792 
 PHE793  MET794  SER795  GLU796  ALA797  LYS798  CYS799  TRP800  GLU811  SER814 

> <Gold.Protein.RotatedAtoms>
  151.7425  133.3323  159.3369 H   0  0  0  0  0  0  0  0  0  0  0  0  # atno 6907 bound_to 6896
  150.7567  134.6265  159.6173 H   0  0  0  0  0  0  0  0  0  0  0  0  # atno 6908 bound_to 6896
  152.3521  134.6993  160.0285 H   0  0  0  0  0  0  0  0  0  0  0  0  # atno 6909 bound_to 6896
  145.6173  140.9372  143.1157 H   0  0  0  0  0  0  0  0  0  0  0  0  # atno 7974 bound_to 7965
  156.2175  140.1805  156.7554 H   0  0  0  0  0  0  0  0  0  0  0  0  # atno 8008 bound_to 7997
  154.5814  140.0665  156.9139 H   0  0  0  0  0  0  0  0  0  0  0  0  # atno 8009 bound_to 7997
  155.2495  140.3328  155.4286 H   0  0  0  0  0  0  0  0  0  0  0  0  # atno 8010 bound_to 7997
  140.7157  143.3452  151.2271 H   0  0  0  0  0  0  0  0  0  0  0  0  # atno 10167 bound_to 10162
  156.4202  130.8025  151.2247 H   0  0  0  0  0  0  0  0  0  0  0  0  # atno 10718 bound_to 10713
  153.2309  135.4323  155.0593 H   0  0  0  0  0  0  0  0  0  0  0  0  # atno 10763 bound_to 10752
  154.8296  135.3379  154.6789 H   0  0  0  0  0  0  0  0  0  0  0  0  # atno 10764 bound_to 10752
  153.7217  135.7016  153.5067 H   0  0  0  0  0  0  0  0  0  0  0  0  # atno 10765 bound_to 10752
  140.0022  134.9474  157.0098 H   0  0  0  0  0  0  0  0  0  0  0  0  # atno 11005 bound_to 11000
  144.7245  139.7920  143.7370 LP  0  0  0  0  0  0  0  0  0  0  0  0  # atno 17320 bound_to 7965
  146.1458  139.4527  143.0080 LP  0  0  0  0  0  0  0  0  0  0  0  0  # atno 17321 bound_to 7965
  139.6970  143.9596  152.2887 LP  0  0  0  0  0  0  0  0  0  0  0  0  # atno 17342 bound_to 10162
  139.9277  144.6761  150.8395 LP  0  0  0  0  0  0  0  0  0  0  0  0  # atno 17343 bound_to 10162
  157.7508  131.0230  150.3818 LP  0  0  0  0  0  0  0  0  0  0  0  0  # atno 17370 bound_to 10713
  156.4134  130.3938  149.6876 LP  0  0  0  0  0  0  0  0  0  0  0  0  # atno 17371 bound_to 10713
  140.4706  134.1390  155.7202 LP  0  0  0  0  0  0  0  0  0  0  0  0  # atno 17394 bound_to 11000
  141.1650  133.8719  157.1739 LP  0  0  0  0  0  0  0  0  0  0  0  0  # atno 17395 bound_to 11000

$$$$
