AV-unprocessed.smi:2061|AV-procd|sdf|8367|dock2
  -GOLD-   2272011 43D 1   1.00000     0.00000
 Structure written by MMmdl.
 46 47  0  0  0  0  0  0  0  0  2 V2000
  138.1855  137.2418  154.0237 C   0  0  0  0  0  0  0  0  0  0  0  0
  139.6722  137.2905  154.1136 C   0  0  0  0  0  0  0  0  0  0  0  0
  140.5999  138.2019  153.6937 C   0  0  0  0  0  0  0  0  0  0  0  0
  141.8286  137.6192  154.1036 C   0  0  0  0  0  0  0  0  0  0  0  0
  143.0628  138.2676  153.8445 N   0  0  0  0  0  0  0  0  0  0  0  0
  144.2722  137.9542  154.3391 C   0  0  0  0  0  0  0  0  0  0  0  0
  144.5005  137.0470  155.1396 O   0  0  0  0  0  0  0  0  0  0  0  0
  145.2252  138.7559  153.8420 N   0  0  0  0  0  0  0  0  0  0  0  0
  146.6484  138.6552  154.1531 C   0  0  0  0  0  0  0  0  0  0  0  0
  147.5283  139.6375  153.3305 C   0  0  1  0  0  0  0  0  0  0  0  0
  146.8518  141.0295  153.2646 C   0  0  0  0  0  0  0  0  0  0  0  0
  148.9246  139.6844  153.8786 N   0  3  1  0  0  0  0  0  0  0  0  0
  149.0933  140.7129  154.9416 C   0  0  0  0  0  0  0  0  0  0  0  0
  150.5569  140.7929  155.4125 C   0  0  1  0  0  0  0  0  0  0  0  0
  150.7450  141.8052  156.5479 C   0  0  0  0  0  0  0  0  0  0  0  0
  150.9567  139.5159  155.8896 O   0  0  0  0  0  0  0  0  0  0  0  0
  150.9078  138.5246  154.8730 C   0  0  1  0  0  0  0  0  0  0  0  0
  151.4448  137.2154  155.4621 C   0  0  0  0  0  0  0  0  0  0  0  0
  149.4594  138.3822  154.3659 C   0  0  0  0  0  0  0  0  0  0  0  0
  141.6662  136.4579  154.7187 N   0  0  0  0  0  0  0  0  0  0  0  0
  140.2830  136.2413  154.7284 O   0  0  0  0  0  0  0  0  0  0  0  0
  137.7985  138.1142  153.4970 H   0  0  0  0  0  0  0  0  0  0  0  0
  137.7391  137.2216  155.0181 H   0  0  0  0  0  0  0  0  0  0  0  0
  137.8592  136.3508  153.4870 H   0  0  0  0  0  0  0  0  0  0  0  0
  140.4242  139.1331  153.1759 H   0  0  0  0  0  0  0  0  0  0  0  0
  143.0224  139.0414  153.1978 H   0  0  0  0  0  0  0  0  0  0  0  0
  144.9498  139.4800  153.1946 H   0  0  0  0  0  0  0  0  0  0  0  0
  146.7718  138.8554  155.2180 H   0  0  0  0  0  0  0  0  0  0  0  0
  146.9411  137.6169  154.0050 H   0  0  0  0  0  0  0  0  0  0  0  0
  147.5968  139.2723  152.3045 H   0  0  0  0  0  0  0  0  0  0  0  0
  145.8262  140.9673  152.9019 H   0  0  0  0  0  0  0  0  0  0  0  0
  147.3611  141.7008  152.5731 H   0  0  0  0  0  0  0  0  0  0  0  0
  146.8223  141.5052  154.2455 H   0  0  0  0  0  0  0  0  0  0  0  0
  148.7975  141.6984  154.5876 H   0  0  0  0  0  0  0  0  0  0  0  0
  148.4423  140.4732  155.7842 H   0  0  0  0  0  0  0  0  0  0  0  0
  151.1978  141.0856  154.5786 H   0  0  0  0  0  0  0  0  0  0  0  0
  150.4613  142.8092  156.2304 H   0  0  0  0  0  0  0  0  0  0  0  0
  151.7863  141.8409  156.8689 H   0  0  0  0  0  0  0  0  0  0  0  0
  150.1378  141.5443  157.4153 H   0  0  0  0  0  0  0  0  0  0  0  0
  151.5570  138.8237  154.0480 H   0  0  0  0  0  0  0  0  0  0  0  0
  151.4403  136.4178  154.7188 H   0  0  0  0  0  0  0  0  0  0  0  0
  150.8424  136.8868  156.3095 H   0  0  0  0  0  0  0  0  0  0  0  0
  152.4705  137.3374  155.8112 H   0  0  0  0  0  0  0  0  0  0  0  0
  148.8147  137.9993  155.1591 H   0  0  0  0  0  0  0  0  0  0  0  0
  149.4693  137.6439  153.5649 H   0  0  0  0  0  0  0  0  0  0  0  0
  149.5206  139.9562  153.1098 H   0  0  0  0  0  0  0  0  0  0  0  0
  1  2  1  0  0  0  0
  1 22  1  0  0  0  0
  1 23  1  0  0  0  0
  1 24  1  0  0  0  0
  2 21  1  0  0  0  0
  2  3  2  0  0  0  0
  3  4  1  0  0  0  0
  3 25  1  0  0  0  0
  4  5  1  0  0  0  0
  4 20  2  0  0  0  0
  5  6  1  0  0  0  0
  5 26  1  0  0  0  0
  6  7  2  0  0  0  0
  6  8  1  0  0  0  0
  8  9  1  0  0  0  0
  8 27  1  0  0  0  0
  9 10  1  0  0  0  0
  9 28  1  0  0  0  0
  9 29  1  0  0  0  0
 10 11  1  0  0  0  0
 10 12  1  0  0  0  0
 10 30  1  0  0  0  0
 11 31  1  0  0  0  0
 11 32  1  0  0  0  0
 11 33  1  0  0  0  0
 12 19  1  0  0  0  0
 12 13  1  0  0  0  0
 12 46  1  0  0  0  0
 13 14  1  0  0  0  0
 13 34  1  0  0  0  0
 13 35  1  0  0  0  0
 14 15  1  0  0  0  0
 14 16  1  0  0  0  0
 14 36  1  0  0  0  0
 15 37  1  0  0  0  0
 15 38  1  0  0  0  0
 15 39  1  0  0  0  0
 16 17  1  0  0  0  0
 17 18  1  0  0  0  0
 17 19  1  0  0  0  0
 17 40  1  0  0  0  0
 18 41  1  0  0  0  0
 18 42  1  0  0  0  0
 18 43  1  0  0  0  0
 19 44  1  0  0  0  0
 19 45  1  0  0  0  0
 20 21  1  0  0  0  0
M  CHG  1  12   1
M  END
> <s_m_source_file>
AV-unprocessed.smi

> <i_m_source_file_index>
2061

> <i_lp_mmshare_version>
43012

> <i_f3d_flags>
0

> <s_epik_input>
W0NIM11jMVtjSF1jKG5vMSlbTkhdQyg9TylbTkhdW0NIMl1bQ0BIXShbQ0gzXSlOMltDSDJdW0NAQEhdKFtDSDNdKU9bQ0BASF0oW0NIM10pW0NIMl0y

> <s_epik_cmdline>
J2VwaWtfcHl0aG9uJywgJy1waCcsICc3LjAnLCAnLXRuJywgJzgnLCAnLW1hJywgJzIwMCcsICctbWV0YWxfYmluZGluZycsICctaW1hZScsICc8aW5maWxlLm1hZT4nLCAnLW9tYWUnLCAnPG91dGZpbGUubWFlPic=

> <r_epik_Ionization_Penalty>
0.707076

> <r_epik_Ionization_Penalty_Charging>
0.707039

> <r_epik_Ionization_Penalty_Neutral>
3.6548e-05

> <r_epik_State_Penalty>
0.730276

> <r_epik_Charging_Adjusted_Penalty>
1.43732

> <i_epik_Tot_Q>
1

> <i_epik_Tot_abs_Q>
1

> <r_epik_Metal_State_Penalty>
0.743132

> <b_epik_Metal_Only>
0

> <s_lp_Force_Field>
OPLS_2005

> <r_lp_Energy>
16.4142

> <b_lp_Chiralities_Consistent>
1

> <s_lp_Variant>
AV-unprocessed.smi:2061-8

> <Gold.Version>
5.8.1

> <Gold.Id.Protein>
6NUR|6NUR_protein|mol2

> <Gold.PLP.Fitness>
42.6293

> <Gold.PLP.PLP>
-32.3992

> <Gold.PLP.part.hbond>
-4.0753

> <Gold.PLP.part.metal>
0.0000

> <Gold.PLP.part.buried>
-3.6518

> <Gold.PLP.part.nonpolar>
-25.7581

> <Gold.PLP.part.repulsive>
0.2143

> <Gold.PLP.ligand.clash>
0.0000

> <Gold.PLP.ligand.torsion>
0.6580

> <Gold.PLP.Chemscore.Hbond>
3.8240

> <Gold.PLP.Chemscore.CHOScore>
0.0000

> <Gold.PLP.Chemscore.Metal>
0.0000

> <Gold.Chemscore.Hbonds>
donor molecule, donor type, donor heavy atom, donor atom, acceptor molecule, acceptor atom, score
      L1  H     5    26       P1 10175  1.00
      L1  H     8    27       P1 10175  0.99
      L1  H    12    46       P1  7957  0.86
      P1  H 11000 11005       L1    21  0.99

> <Gold.PLP.Chemscore.Internal.Correction>
0.0741

> <Gold.Rescore>
     Score         DG    S(hbond)    S(metal)    S(lipo)     H(rot)  DE(clash)    DE(int)     intcor
     20.65     -22.69       3.57        0.00      79.71       1.58       0.30       1.73       ----

> <Gold.Chemscore.Fitness>
20.6544

> <Gold.Chemscore.DG>
-22.6865

> <Gold.Chemscore.ZeroCoef>
-5.4800

> <Gold.Chemscore.Hbond>
3.5731

> <Gold.Chemscore.Metal>
0.0000

> <Gold.Chemscore.Lipo>
79.7068

> <Gold.Chemscore.Internal_Hbond>
0.0000

> <Gold.Chemscore.DEClash>
0.2987

> <Gold.Chemscore.DEInternal>
1.7334

> <Gold.Chemscore.Rot>
1.5834

> <Gold.Chemscore.Internal.Correction>
   9.000000E+99

> <Gold.Chemscore.Hbonds>
donor molecule, donor type, donor heavy atom, donor atom, acceptor molecule, acceptor atom, score
      L1  H     5    26       P1 10175  0.97
      L1  H     8    27       P1 10175  0.93
      L1  H    12    46       P1  7957  0.84
      P1  H 11000 11005       L1    21  0.45

> <Gold.Chemscore.Hbond.Weighted>
-11.9343

> <Gold.Chemscore.Metal.Weighted>
-0.0000

> <Gold.Chemscore.Lipo.Weighted>
-9.3257

> <Gold.Chemscore.Internal_Hbond.Weighted>
0.0000

> <Gold.Chemscore.DEClash.Weighted>
0.2987

> <Gold.Chemscore.DEInternal.Weighted>
1.7334

> <Gold.Chemscore.Rot.Weighted>
4.0535

> <Gold.Chemscore.Internal.Correction.Weighted>
   9.000000E+99

> <Gold.Protein.RotatedTorsions>
[ 6907 6896 6895 6894 ] final  114.23 input  -60.11 | X-H torsion
[ 7974 7965 7964 7962 ] final -134.58 input  175.53 | X-H torsion
[ 8008 7997 7996 7995 ] final  -45.98 input   59.86 | X-H torsion
[ 10167 10162 10161 10158 ] final    9.49 input  -65.29 | X-H torsion
[ 10718 10713 10712 10709 ] final  -46.82 input   66.30 | X-H torsion
[ 10763 10752 10751 10750 ] final  -91.34 input  -60.55 | X-H torsion
[ 11005 11000 10999 10996 ] final   65.83 input  -57.11 | X-H torsion

> <Gold.Protein.ActiveResidues>
 VAL166  LYS551  ARG553  GLY616  TRP617  ASP618  TYR619  PRO620  LYS621  CYS622 
 ASP623  PHE694  ASN695  SER759  ASP760  ASP761  ALA762  ILE779  LEU786  VAL792 
 PHE793  MET794  SER795  GLU796  ALA797  LYS798  CYS799  TRP800  GLU811  SER814 

> <Gold.Protein.RotatedAtoms>
  152.4815  133.8265  159.7080 H   0  0  0  0  0  0  0  0  0  0  0  0  # atno 6907 bound_to 6896
  150.8868  133.7288  159.2922 H   0  0  0  0  0  0  0  0  0  0  0  0  # atno 6908 bound_to 6896
  151.4774  135.1053  159.9820 H   0  0  0  0  0  0  0  0  0  0  0  0  # atno 6909 bound_to 6896
  144.9090  140.6870  143.5037 H   0  0  0  0  0  0  0  0  0  0  0  0  # atno 7974 bound_to 7965
  154.4004  140.1383  156.3937 H   0  0  0  0  0  0  0  0  0  0  0  0  # atno 8008 bound_to 7997
  155.7890  140.3479  155.5318 H   0  0  0  0  0  0  0  0  0  0  0  0  # atno 8009 bound_to 7997
  155.8598  140.0954  157.1611 H   0  0  0  0  0  0  0  0  0  0  0  0  # atno 8010 bound_to 7997
  140.6252  143.8118  150.7224 H   0  0  0  0  0  0  0  0  0  0  0  0  # atno 10167 bound_to 10162
  156.2145  130.4162  149.9072 H   0  0  0  0  0  0  0  0  0  0  0  0  # atno 10718 bound_to 10713
  154.6750  135.5271  153.8188 H   0  0  0  0  0  0  0  0  0  0  0  0  # atno 10763 bound_to 10752
  153.0526  135.6538  154.0665 H   0  0  0  0  0  0  0  0  0  0  0  0  # atno 10764 bound_to 10752
  154.0559  135.2965  155.3313 H   0  0  0  0  0  0  0  0  0  0  0  0  # atno 10765 bound_to 10752
  139.9870  134.6653  156.0159 H   0  0  0  0  0  0  0  0  0  0  0  0  # atno 11005 bound_to 11000
  145.3487  139.1712  143.4446 LP  0  0  0  0  0  0  0  0  0  0  0  0  # atno 17320 bound_to 7965
  146.3149  140.3536  142.8658 LP  0  0  0  0  0  0  0  0  0  0  0  0  # atno 17321 bound_to 7965
  140.1717  143.4189  152.1996 LP  0  0  0  0  0  0  0  0  0  0  0  0  # atno 17342 bound_to 10162
  139.5473  144.7309  151.4543 LP  0  0  0  0  0  0  0  0  0  0  0  0  # atno 17343 bound_to 10162
  156.6739  130.8831  151.3566 LP  0  0  0  0  0  0  0  0  0  0  0  0  # atno 17370 bound_to 10713
  157.7056  130.9381  150.0920 LP  0  0  0  0  0  0  0  0  0  0  0  0  # atno 17371 bound_to 10713
  141.1533  133.6546  156.4081 LP  0  0  0  0  0  0  0  0  0  0  0  0  # atno 17394 bound_to 11000
  140.4983  134.6509  157.5238 LP  0  0  0  0  0  0  0  0  0  0  0  0  # atno 17395 bound_to 11000

$$$$
