AV-unprocessed.smi:3220|AV-procd|sdf|12300|dock10
  -GOLD-   2272018143D 1   1.00000     0.00000
 Structure written by MMmdl.
 33 34  0  0  0  0  0  0  0  0  1 V2000
  151.3725  140.7118  158.1642 C   0  0  0  0  0  0  0  0  0  0  0  0
  150.5063  141.9264  157.7996 C   0  0  1  0  0  0  0  0  0  0  0  0
  151.3643  143.1842  157.5626 C   0  0  0  0  0  0  0  0  0  0  0  0
  151.6072  143.9255  158.7876 N   0  0  0  0  0  0  0  0  0  0  0  0
  152.1570  143.4741  159.9691 C   0  0  0  0  0  0  0  0  0  0  0  0
  152.1913  144.5320  160.8316 C   0  0  0  0  0  0  0  0  0  0  0  0
  151.6339  145.6015  160.0763 C   0  0  0  0  0  0  0  0  0  0  0  0
  151.2853  145.2354  158.8533 N   0  0  0  0  0  0  0  0  0  0  0  0
  149.7194  141.6273  156.6048 N   0  0  0  0  0  0  0  0  0  0  0  0
  150.1552  140.9592  155.5261 C   0  0  0  0  0  0  0  0  0  0  0  0
  151.3025  140.5268  155.4135 O   0  0  0  0  0  0  0  0  0  0  0  0
  149.1259  140.7353  154.4125 C   0  0  1  0  0  0  0  0  0  0  0  0
  147.8506  140.0014  154.8686 C   0  0  0  0  0  0  0  0  0  0  0  0
  146.7831  141.0767  154.8227 C   0  0  0  0  0  0  0  0  0  0  0  0
  147.2973  141.9766  153.7086 C   0  0  0  0  0  0  0  0  0  0  0  0
  148.6959  142.0125  153.9448 O   0  0  0  0  0  0  0  0  0  0  0  0
  151.9578  140.9042  159.0639 H   0  0  0  0  0  0  0  0  0  0  0  0
  152.0680  140.4642  157.3616 H   0  0  0  0  0  0  0  0  0  0  0  0
  150.7569  139.8323  158.3557 H   0  0  0  0  0  0  0  0  0  0  0  0
  149.8399  142.1274  158.6407 H   0  0  0  0  0  0  0  0  0  0  0  0
  152.3296  142.9068  157.1361 H   0  0  0  0  0  0  0  0  0  0  0  0
  150.8851  143.8476  156.8412 H   0  0  0  0  0  0  0  0  0  0  0  0
  152.4777  142.4504  160.0946 H   0  0  0  0  0  0  0  0  0  0  0  0
  152.5597  144.5411  161.8465 H   0  0  0  0  0  0  0  0  0  0  0  0
  151.4732  146.6257  160.3786 H   0  0  0  0  0  0  0  0  0  0  0  0
  148.7591  141.9389  156.6054 H   0  0  0  0  0  0  0  0  0  0  0  0
  149.5834  140.1899  153.5852 H   0  0  0  0  0  0  0  0  0  0  0  0
  147.6113  139.2094  154.1579 H   0  0  0  0  0  0  0  0  0  0  0  0
  147.9258  139.5396  155.8540 H   0  0  0  0  0  0  0  0  0  0  0  0
  145.7850  140.6829  154.6297 H   0  0  0  0  0  0  0  0  0  0  0  0
  146.7613  141.6249  155.7655 H   0  0  0  0  0  0  0  0  0  0  0  0
  147.1028  141.5358  152.7296 H   0  0  0  0  0  0  0  0  0  0  0  0
  146.8590  142.9743  153.7333 H   0  0  0  0  0  0  0  0  0  0  0  0
  1  2  1  0  0  0  0
  1 17  1  0  0  0  0
  1 18  1  0  0  0  0
  1 19  1  0  0  0  0
  2  3  1  0  0  0  0
  2  9  1  0  0  0  0
  2 20  1  0  0  0  0
  3  4  1  0  0  0  0
  3 21  1  0  0  0  0
  3 22  1  0  0  0  0
  4  8  1  0  0  0  0
  4  5  1  0  0  0  0
  5  6  2  0  0  0  0
  5 23  1  0  0  0  0
  6  7  1  0  0  0  0
  6 24  1  0  0  0  0
  7  8  2  0  0  0  0
  7 25  1  0  0  0  0
  9 10  1  0  0  0  0
  9 26  1  0  0  0  0
 10 11  2  0  0  0  0
 10 12  1  0  0  0  0
 12 16  1  0  0  0  0
 12 13  1  0  0  0  0
 12 27  1  0  0  0  0
 13 14  1  0  0  0  0
 13 28  1  0  0  0  0
 13 29  1  0  0  0  0
 14 15  1  0  0  0  0
 14 30  1  0  0  0  0
 14 31  1  0  0  0  0
 15 16  1  0  0  0  0
 15 32  1  0  0  0  0
 15 33  1  0  0  0  0
M  END
> <s_m_source_file>
AV-unprocessed.smi

> <i_m_source_file_index>
3220

> <i_lp_mmshare_version>
43012

> <i_f3d_flags>
0

> <s_epik_input>
bjFbY0hdW2NIXVtjSF1uMVtDSDJdW0NAQEhdKFtDSDNdKVtOSF1DKD1PKVtDQEBIXTJbQ0gyXVtDSDJdW0NIMl1PMg==

> <s_epik_cmdline>
J2VwaWtfcHl0aG9uJywgJy1waCcsICc3LjAnLCAnLXRuJywgJzgnLCAnLW1hJywgJzIwMCcsICctbWV0YWxfYmluZGluZycsICctaW1hZScsICc8aW5maWxlLm1hZT4nLCAnLW9tYWUnLCAnPG91dGZpbGUubWFlPic=

> <r_lp_tautomer_probability>
1

> <r_epik_Ionization_Penalty>
0.00033363

> <r_epik_Ionization_Penalty_Charging>
0

> <r_epik_Ionization_Penalty_Neutral>
0.00033363

> <r_epik_State_Penalty>
-0

> <r_epik_Charging_Adjusted_Penalty>
0

> <i_epik_Tot_Q>
0

> <i_epik_Tot_abs_Q>
0

> <r_epik_Metal_State_Penalty>
-0

> <b_epik_Metal_Only>
0

> <s_lp_Force_Field>
OPLS_2005

> <r_lp_Energy>
17.8243

> <b_lp_Chiralities_Consistent>
1

> <s_lp_Variant>
AV-unprocessed.smi:3220-4

> <Gold.Version>
5.8.1

> <Gold.Id.Protein>
6NUR|6NUR_protein|mol2

> <Gold.PLP.Fitness>
38.7816

> <Gold.PLP.PLP>
-36.2181

> <Gold.PLP.part.hbond>
-2.0488

> <Gold.PLP.part.metal>
0.0000

> <Gold.PLP.part.buried>
-7.2606

> <Gold.PLP.part.nonpolar>
-27.8381

> <Gold.PLP.part.repulsive>
0.3870

> <Gold.PLP.ligand.clash>
0.0000

> <Gold.PLP.ligand.torsion>
0.6885

> <Gold.PLP.Chemscore.Hbond>
1.3082

> <Gold.PLP.Chemscore.CHOScore>
0.0000

> <Gold.PLP.Chemscore.Metal>
0.0000

> <Gold.Chemscore.Hbonds>
donor molecule, donor type, donor heavy atom, donor atom, acceptor molecule, acceptor atom, score
      P1  H  7989  7998       L1    11  0.88
      P1  H  8011  8017       L1    16  0.42

> <Gold.PLP.Chemscore.Internal.Correction>
0.0158

> <Gold.Rescore>
     Score         DG    S(hbond)    S(metal)    S(lipo)     H(rot)  DE(clash)    DE(int)     intcor
     11.29     -13.54       0.83        0.00      80.62       1.62       0.05       2.20       ----

> <Gold.Chemscore.Fitness>
11.2939

> <Gold.Chemscore.DG>
-13.5386

> <Gold.Chemscore.ZeroCoef>
-5.4800

> <Gold.Chemscore.Hbond>
0.8316

> <Gold.Chemscore.Metal>
0.0000

> <Gold.Chemscore.Lipo>
80.6242

> <Gold.Chemscore.Internal_Hbond>
0.0000

> <Gold.Chemscore.DEClash>
0.0456

> <Gold.Chemscore.DEInternal>
2.1991

> <Gold.Chemscore.Rot>
1.6219

> <Gold.Chemscore.Internal.Correction>
   9.000000E+99

> <Gold.Chemscore.Hbonds>
donor molecule, donor type, donor heavy atom, donor atom, acceptor molecule, acceptor atom, score
      P1  H  7989  7998       L1    11  0.26
      P1  H  8011  8017       L1    16  0.22

> <Gold.Chemscore.Hbond.Weighted>
-2.7775

> <Gold.Chemscore.Metal.Weighted>
-0.0000

> <Gold.Chemscore.Lipo.Weighted>
-9.4330

> <Gold.Chemscore.Internal_Hbond.Weighted>
0.0000

> <Gold.Chemscore.DEClash.Weighted>
0.0456

> <Gold.Chemscore.DEInternal.Weighted>
2.1991

> <Gold.Chemscore.Rot.Weighted>
4.1520

> <Gold.Chemscore.Internal.Correction.Weighted>
   9.000000E+99

> <Gold.Protein.RotatedTorsions>
[ 6907 6896 6895 6894 ] final   -5.47 input  -60.11 | X-H torsion
[ 7974 7965 7964 7962 ] final  -93.20 input  175.53 | X-H torsion
[ 8008 7997 7996 7995 ] final  123.83 input   59.86 | X-H torsion
[ 10167 10162 10161 10158 ] final   94.21 input  -65.29 | X-H torsion
[ 10718 10713 10712 10709 ] final -112.49 input   66.30 | X-H torsion
[ 10763 10752 10751 10750 ] final  -45.21 input  -60.55 | X-H torsion
[ 11005 11000 10999 10996 ] final  155.61 input  -57.11 | X-H torsion

> <Gold.Protein.ActiveResidues>
 VAL166  LYS551  ARG553  GLY616  TRP617  ASP618  TYR619  PRO620  LYS621  CYS622 
 ASP623  PHE694  ASN695  SER759  ASP760  ASP761  ALA762  ILE779  LEU786  VAL792 
 PHE793  MET794  SER795  GLU796  ALA797  LYS798  CYS799  TRP800  GLU811  SER814 

> <Gold.Protein.RotatedAtoms>
  151.4811  135.1052  159.9777 H   0  0  0  0  0  0  0  0  0  0  0  0  # atno 6907 bound_to 6896
  152.4779  133.8178  159.7048 H   0  0  0  0  0  0  0  0  0  0  0  0  # atno 6908 bound_to 6896
  150.8829  133.7285  159.2953 H   0  0  0  0  0  0  0  0  0  0  0  0  # atno 6909 bound_to 6896
  145.3897  140.9527  143.2347 H   0  0  0  0  0  0  0  0  0  0  0  0  # atno 7974 bound_to 7965
  156.2780  140.2754  156.1690 H   0  0  0  0  0  0  0  0  0  0  0  0  # atno 8008 bound_to 7997
  155.0674  140.0387  157.2615 H   0  0  0  0  0  0  0  0  0  0  0  0  # atno 8009 bound_to 7997
  154.7068  140.2660  155.6673 H   0  0  0  0  0  0  0  0  0  0  0  0  # atno 8010 bound_to 7997
  139.8105  144.6775  150.9646 H   0  0  0  0  0  0  0  0  0  0  0  0  # atno 10167 bound_to 10162
  156.0709  130.5923  150.8515 H   0  0  0  0  0  0  0  0  0  0  0  0  # atno 10718 bound_to 10713
  154.0249  135.6664  153.4775 H   0  0  0  0  0  0  0  0  0  0  0  0  # atno 10763 bound_to 10752
  153.0565  135.5053  154.7988 H   0  0  0  0  0  0  0  0  0  0  0  0  # atno 10764 bound_to 10752
  154.6914  135.3062  154.9438 H   0  0  0  0  0  0  0  0  0  0  0  0  # atno 10765 bound_to 10752
  140.1598  134.8617  157.2559 H   0  0  0  0  0  0  0  0  0  0  0  0  # atno 11005 bound_to 11000
  144.8449  139.5413  143.6883 LP  0  0  0  0  0  0  0  0  0  0  0  0  # atno 17320 bound_to 7965
  146.2803  139.6860  142.9233 LP  0  0  0  0  0  0  0  0  0  0  0  0  # atno 17321 bound_to 7965
  140.7818  143.4189  151.0872 LP  0  0  0  0  0  0  0  0  0  0  0  0  # atno 17342 bound_to 10162
  139.7856  143.8292  152.3144 LP  0  0  0  0  0  0  0  0  0  0  0  0  # atno 17343 bound_to 10162
  157.5779  131.0946  150.9317 LP  0  0  0  0  0  0  0  0  0  0  0  0  # atno 17370 bound_to 10713
  156.9519  130.5423  149.5283 LP  0  0  0  0  0  0  0  0  0  0  0  0  # atno 17371 bound_to 10713
  140.2504  134.3690  155.7444 LP  0  0  0  0  0  0  0  0  0  0  0  0  # atno 17394 bound_to 11000
  141.2208  133.7313  156.8926 LP  0  0  0  0  0  0  0  0  0  0  0  0  # atno 17395 bound_to 11000

$$$$
