AV-unprocessed.smi:778|AV-procd|sdf|3703|dock8
  -GOLD-   22720 1123D 1   1.00000     0.00000
 Structure written by MMmdl.
 40 41  0  0  0  0  0  0  0  0  1 V2000
  143.6333  132.1263  149.0775 N   0  0  0  0  0  0  0  0  0  0  0  0
  144.1737  132.5121  150.0250 C   0  0  0  0  0  0  0  0  0  0  0  0
  144.8540  132.9978  151.2177 C   0  0  0  0  0  0  0  0  0  0  0  0
  146.1048  132.4629  151.5947 C   0  0  0  0  0  0  0  0  0  0  0  0
  146.7629  132.8903  152.6938 N   0  0  0  0  0  0  0  0  0  0  0  0
  146.1694  133.8498  153.4085 C   0  0  0  0  0  0  0  0  0  0  0  0
  147.0050  134.4391  154.8719 S   0  0  0  0  0  0  0  0  0  0  0  0
  147.1411  136.2284  154.5700 C   0  0  0  0  0  0  0  0  0  0  0  0
  148.2945  136.8421  155.3679 C   0  0  0  0  0  0  0  0  0  0  0  0
  148.1964  138.2558  155.2845 O   0  0  0  0  0  0  0  0  0  0  0  0
  148.9466  138.8580  154.2361 C   0  0  0  0  0  0  0  0  0  0  0  0
  150.4586  138.5437  154.2966 C   0  0  0  0  0  0  0  0  0  0  0  0
  151.1466  138.8402  155.6376 C   0  0  0  0  0  0  0  0  0  0  0  0
  151.0471  140.3017  156.1040 C   0  0  0  0  0  0  0  0  0  0  0  0
  149.6510  140.6617  156.6329 C   0  0  0  0  0  0  0  0  0  0  0  0
  148.6289  141.0997  155.5682 C   0  0  0  0  0  0  0  0  0  0  0  0
  148.6594  140.3710  154.2089 C   0  0  0  0  0  0  0  0  0  0  0  0
  144.9939  134.4299  153.1560 N   0  0  0  0  0  0  0  0  0  0  0  0
  144.3266  134.0101  152.0590 C   0  0  0  0  0  0  0  0  0  0  0  0
  143.1001  134.6290  151.8101 N   0  0  0  0  0  0  0  0  0  0  0  0
  146.5844  131.6878  151.0145 H   0  0  0  0  0  0  0  0  0  0  0  0
  147.3018  136.3973  153.5049 H   0  0  0  0  0  0  0  0  0  0  0  0
  146.2036  136.7151  154.8410 H   0  0  0  0  0  0  0  0  0  0  0  0
  148.2441  136.5008  156.4017 H   0  0  0  0  0  0  0  0  0  0  0  0
  149.2494  136.5120  154.9564 H   0  0  0  0  0  0  0  0  0  0  0  0
  148.5781  138.4630  153.2877 H   0  0  0  0  0  0  0  0  0  0  0  0
  150.6205  137.4941  154.0525 H   0  0  0  0  0  0  0  0  0  0  0  0
  150.9690  139.0955  153.5065 H   0  0  0  0  0  0  0  0  0  0  0  0
  150.7542  138.1763  156.4090 H   0  0  0  0  0  0  0  0  0  0  0  0
  152.2013  138.5816  155.5388 H   0  0  0  0  0  0  0  0  0  0  0  0
  151.7587  140.4362  156.9192 H   0  0  0  0  0  0  0  0  0  0  0  0
  151.3598  140.9901  155.3180 H   0  0  0  0  0  0  0  0  0  0  0  0
  149.2519  139.8207  157.2013 H   0  0  0  0  0  0  0  0  0  0  0  0
  149.7459  141.4718  157.3568 H   0  0  0  0  0  0  0  0  0  0  0  0
  147.6330  140.9978  156.0007 H   0  0  0  0  0  0  0  0  0  0  0  0
  148.7522  142.1663  155.3782 H   0  0  0  0  0  0  0  0  0  0  0  0
  149.3848  140.8580  153.5565 H   0  0  0  0  0  0  0  0  0  0  0  0
  147.6940  140.5335  153.7282 H   0  0  0  0  0  0  0  0  0  0  0  0
  142.5328  134.3788  151.0131 H   0  0  0  0  0  0  0  0  0  0  0  0
  142.7475  135.3574  152.4145 H   0  0  0  0  0  0  0  0  0  0  0  0
  1  2  3  0  0  0  0
  2  3  1  0  0  0  0
  3 19  1  0  0  0  0
  3  4  2  0  0  0  0
  4  5  1  0  0  0  0
  4 21  1  0  0  0  0
  5  6  2  0  0  0  0
  6  7  1  0  0  0  0
  6 18  1  0  0  0  0
  7  8  1  0  0  0  0
  8  9  1  0  0  0  0
  8 22  1  0  0  0  0
  8 23  1  0  0  0  0
  9 10  1  0  0  0  0
  9 24  1  0  0  0  0
  9 25  1  0  0  0  0
 10 11  1  0  0  0  0
 11 17  1  0  0  0  0
 11 12  1  0  0  0  0
 11 26  1  0  0  0  0
 12 13  1  0  0  0  0
 12 27  1  0  0  0  0
 12 28  1  0  0  0  0
 13 14  1  0  0  0  0
 13 29  1  0  0  0  0
 13 30  1  0  0  0  0
 14 15  1  0  0  0  0
 14 31  1  0  0  0  0
 14 32  1  0  0  0  0
 15 16  1  0  0  0  0
 15 33  1  0  0  0  0
 15 34  1  0  0  0  0
 16 17  1  0  0  0  0
 16 35  1  0  0  0  0
 16 36  1  0  0  0  0
 17 37  1  0  0  0  0
 17 38  1  0  0  0  0
 18 19  2  0  0  0  0
 19 20  1  0  0  0  0
 20 39  1  0  0  0  0
 20 40  1  0  0  0  0
M  END
> <s_m_source_file>
AV-unprocessed.smi

> <i_m_source_file_index>
778

> <i_lp_mmshare_version>
43012

> <i_f3d_flags>
0

> <s_epik_input>
TiNDYzFbY0hdbmMobmMxW05IMl0pU1tDSDJdW0NIMl1PW0NIXTJbQ0gyXVtDSDJdW0NIMl1bQ0gyXVtDSDJdW0NIMl0y

> <s_epik_cmdline>
J2VwaWtfcHl0aG9uJywgJy1waCcsICc3LjAnLCAnLXRuJywgJzgnLCAnLW1hJywgJzIwMCcsICctbWV0YWxfYmluZGluZycsICctaW1hZScsICc8aW5maWxlLm1hZT4nLCAnLW9tYWUnLCAnPG91dGZpbGUubWFlPic=

> <r_lp_tautomer_probability>
1

> <r_epik_Ionization_Penalty>
5.1519e-05

> <r_epik_Ionization_Penalty_Charging>
0

> <r_epik_Ionization_Penalty_Neutral>
5.1519e-05

> <r_epik_State_Penalty>
-0

> <r_epik_Charging_Adjusted_Penalty>
0

> <i_epik_Tot_Q>
0

> <i_epik_Tot_abs_Q>
0

> <r_epik_Metal_State_Penalty>
-0

> <b_epik_Metal_Only>
0

> <s_lp_Force_Field>
OPLS_2005

> <r_lp_Energy>
14.4265

> <b_lp_Chiralities_Consistent>
1

> <s_lp_Variant>
AV-unprocessed.smi:778-1

> <Gold.Version>
5.8.1

> <Gold.Id.Protein>
6NUR|6NUR_protein|mol2

> <Gold.PLP.Fitness>
36.8190

> <Gold.PLP.PLP>
-29.1939

> <Gold.PLP.part.hbond>
-2.0000

> <Gold.PLP.part.metal>
0.0000

> <Gold.PLP.part.buried>
-3.8628

> <Gold.PLP.part.nonpolar>
-24.0478

> <Gold.PLP.part.repulsive>
0.5524

> <Gold.PLP.ligand.clash>
0.0000

> <Gold.PLP.ligand.torsion>
0.3937

> <Gold.PLP.Chemscore.Hbond>
1.8000

> <Gold.PLP.Chemscore.CHOScore>
1.0000

> <Gold.PLP.Chemscore.Metal>
0.0000

> <Gold.Chemscore.Hbonds>
donor molecule, donor type, donor heavy atom, donor atom, acceptor molecule, acceptor atom, score
      L1  H    20    39       P1 10186  0.70
      P1  H 10785 10796       L1     1  0.81
      L1  C     4    21       P1 10747  0.73

> <Gold.PLP.Chemscore.Internal.Correction>
0.0125

> <Gold.Rescore>
     Score         DG    S(hbond)    S(metal)    S(lipo)     H(rot)  DE(clash)    DE(int)     intcor
     10.53     -11.06       1.18        0.00      63.52       2.26       0.06       0.47       ----

> <Gold.Chemscore.Fitness>
10.5330

> <Gold.Chemscore.DG>
-11.0647

> <Gold.Chemscore.ZeroCoef>
-5.4800

> <Gold.Chemscore.Hbond>
1.1764

> <Gold.Chemscore.Metal>
0.0000

> <Gold.Chemscore.Lipo>
63.5169

> <Gold.Chemscore.Internal_Hbond>
0.0000

> <Gold.Chemscore.DEClash>
0.0575

> <Gold.Chemscore.DEInternal>
0.4742

> <Gold.Chemscore.Rot>
2.2562

> <Gold.Chemscore.Internal.Correction>
   9.000000E+99

> <Gold.Chemscore.Hbonds>
donor molecule, donor type, donor heavy atom, donor atom, acceptor molecule, acceptor atom, score
      L1  H    20    39       P1 10186  0.12
      P1  H 10785 10796       L1     1  0.76

> <Gold.Chemscore.Hbond.Weighted>
-3.9291

> <Gold.Chemscore.Metal.Weighted>
-0.0000

> <Gold.Chemscore.Lipo.Weighted>
-7.4315

> <Gold.Chemscore.Internal_Hbond.Weighted>
0.0000

> <Gold.Chemscore.DEClash.Weighted>
0.0575

> <Gold.Chemscore.DEInternal.Weighted>
0.4742

> <Gold.Chemscore.Rot.Weighted>
5.7759

> <Gold.Chemscore.Internal.Correction.Weighted>
   9.000000E+99

> <Gold.Protein.RotatedTorsions>
[ 6907 6896 6895 6894 ] final   64.48 input  -60.11 | X-H torsion
[ 7974 7965 7964 7962 ] final -166.46 input  175.53 | X-H torsion
[ 8008 7997 7996 7995 ] final -116.66 input   59.86 | X-H torsion
[ 10167 10162 10161 10158 ] final  -53.41 input  -65.29 | X-H torsion
[ 10718 10713 10712 10709 ] final -153.67 input   66.30 | X-H torsion
[ 10763 10752 10751 10750 ] final   94.30 input  -60.55 | X-H torsion
[ 11005 11000 10999 10996 ] final   21.13 input  -57.11 | X-H torsion

> <Gold.Protein.ActiveResidues>
 VAL166  LYS551  ARG553  GLY616  TRP617  ASP618  TYR619  PRO620  LYS621  CYS622 
 ASP623  PHE694  ASN695  SER759  ASP760  ASP761  ALA762  ILE779  LEU786  VAL792 
 PHE793  MET794  SER795  GLU796  ALA797  LYS798  CYS799  TRP800  GLU811  SER814 

> <Gold.Protein.RotatedAtoms>
  152.4334  134.5733  159.9927 H   0  0  0  0  0  0  0  0  0  0  0  0  # atno 6907 bound_to 6896
  151.5850  133.3367  159.3024 H   0  0  0  0  0  0  0  0  0  0  0  0  # atno 6908 bound_to 6896
  150.8230  134.7482  159.6853 H   0  0  0  0  0  0  0  0  0  0  0  0  # atno 6909 bound_to 6896
  144.7245  140.2663  143.6257 H   0  0  0  0  0  0  0  0  0  0  0  0  # atno 7974 bound_to 7965
  155.0714  140.0393  157.2609 H   0  0  0  0  0  0  0  0  0  0  0  0  # atno 8008 bound_to 7997
  154.6980  140.2667  155.6723 H   0  0  0  0  0  0  0  0  0  0  0  0  # atno 8009 bound_to 7997
  156.2751  140.2746  156.1581 H   0  0  0  0  0  0  0  0  0  0  0  0  # atno 8010 bound_to 7997
  140.6486  143.2551  151.4788 H   0  0  0  0  0  0  0  0  0  0  0  0  # atno 10167 bound_to 10162
  156.4890  130.8338  151.2562 H   0  0  0  0  0  0  0  0  0  0  0  0  # atno 10718 bound_to 10713
  153.2401  135.4294  155.0688 H   0  0  0  0  0  0  0  0  0  0  0  0  # atno 10763 bound_to 10752
  154.8336  135.3400  154.6662 H   0  0  0  0  0  0  0  0  0  0  0  0  # atno 10764 bound_to 10752
  153.7086  135.7024  153.5100 H   0  0  0  0  0  0  0  0  0  0  0  0  # atno 10765 bound_to 10752
  140.3950  134.1779  155.7663 H   0  0  0  0  0  0  0  0  0  0  0  0  # atno 11005 bound_to 11000
  145.8086  139.1994  143.2006 LP  0  0  0  0  0  0  0  0  0  0  0  0  # atno 17320 bound_to 7965
  146.0615  140.7965  142.9732 LP  0  0  0  0  0  0  0  0  0  0  0  0  # atno 17321 bound_to 7965
  139.5699  144.1954  152.1820 LP  0  0  0  0  0  0  0  0  0  0  0  0  # atno 17342 bound_to 10162
  140.1247  144.5342  150.6840 LP  0  0  0  0  0  0  0  0  0  0  0  0  # atno 17343 bound_to 10162
  157.7476  131.0020  150.2983 LP  0  0  0  0  0  0  0  0  0  0  0  0  # atno 17370 bound_to 10713
  156.3446  130.3821  149.7380 LP  0  0  0  0  0  0  0  0  0  0  0  0  # atno 17371 bound_to 10713
  141.1877  133.8275  157.1021 LP  0  0  0  0  0  0  0  0  0  0  0  0  # atno 17394 bound_to 11000
  140.0378  134.9869  157.0905 LP  0  0  0  0  0  0  0  0  0  0  0  0  # atno 17395 bound_to 11000

$$$$
