AV-unprocessed.smi:332|AV-procd|sdf|2352|dock7
  -GOLD-   2262022263D 1   1.00000     0.00000
 Structure written by MMmdl.
 42 44  0  0  0  0  0  0  0  0  1 V2000
  151.3813  138.6908  159.5396 C   0  0  0  0  0  0  0  0  0  0  0  0
  150.4262  138.8212  158.3416 C   0  0  2  0  0  0  0  0  0  0  0  0
  149.1719  138.1516  158.6817 N   0  0  0  0  0  0  0  0  0  0  0  0
  148.9988  136.8285  158.8277 C   0  0  0  0  0  0  0  0  0  0  0  0
  149.8950  136.0021  158.6539 O   0  0  0  0  0  0  0  0  0  0  0  0
  147.5881  136.3743  159.2254 C   0  0  0  0  0  0  0  0  0  0  0  0
  147.5128  135.9061  160.6192 N   0  0  0  0  0  0  0  0  0  0  0  0
  147.9761  134.6025  160.8862 C   0  0  0  0  0  0  0  0  0  0  0  0
  147.9561  134.0811  162.1230 C   0  0  0  0  0  0  0  0  0  0  0  0
  147.4412  134.8950  163.1987 C   0  0  0  0  0  0  0  0  0  0  0  0
  146.9983  136.1445  162.9550 C   0  0  0  0  0  0  0  0  0  0  0  0
  147.0200  136.7191  161.6047 C   0  0  0  0  0  0  0  0  0  0  0  0
  146.6195  137.8607  161.3736 O   0  0  0  0  0  0  0  0  0  0  0  0
  151.0260  138.2200  157.0447 C   0  0  2  0  0  0  0  0  0  0  0  0
  152.4197  138.7944  156.6900 C   0  0  0  0  0  0  0  0  0  0  0  0
  152.2458  139.2831  155.2412 C   0  0  1  0  0  0  0  0  0  0  0  0
  152.1002  138.0715  154.3032 C   0  0  0  0  0  0  0  0  0  0  0  0
  150.6891  137.5551  154.6380 C   0  0  0  0  0  0  0  0  0  0  0  0
  150.2277  138.5193  155.7477 C   0  0  2  0  0  0  0  0  0  0  0  0
  150.8279  139.8376  155.2721 C   0  0  0  0  0  0  0  0  0  0  0  0
  152.3210  139.2140  159.3642 H   0  0  0  0  0  0  0  0  0  0  0  0
  151.6179  137.6465  159.7464 H   0  0  0  0  0  0  0  0  0  0  0  0
  150.9387  139.1160  160.4411 H   0  0  0  0  0  0  0  0  0  0  0  0
  150.2463  139.8855  158.1826 H   0  0  0  0  0  0  0  0  0  0  0  0
  148.3733  138.7481  158.8423 H   0  0  0  0  0  0  0  0  0  0  0  0
  146.8777  137.1883  159.0687 H   0  0  0  0  0  0  0  0  0  0  0  0
  147.2793  135.5881  158.5354 H   0  0  0  0  0  0  0  0  0  0  0  0
  148.3523  134.0620  160.0297 H   0  0  0  0  0  0  0  0  0  0  0  0
  148.3197  133.0813  162.3090 H   0  0  0  0  0  0  0  0  0  0  0  0
  147.4128  134.5010  164.2039 H   0  0  0  0  0  0  0  0  0  0  0  0
  146.6183  136.7393  163.7728 H   0  0  0  0  0  0  0  0  0  0  0  0
  151.0965  137.1390  157.1780 H   0  0  0  0  0  0  0  0  0  0  0  0
  152.6814  139.6374  157.3310 H   0  0  0  0  0  0  0  0  0  0  0  0
  153.2111  138.0502  156.7861 H   0  0  0  0  0  0  0  0  0  0  0  0
  153.0113  139.9924  154.9250 H   0  0  0  0  0  0  0  0  0  0  0  0
  152.1583  138.3775  153.2580 H   0  0  0  0  0  0  0  0  0  0  0  0
  152.8716  137.3203  154.4770 H   0  0  0  0  0  0  0  0  0  0  0  0
  150.0382  137.6310  153.7659 H   0  0  0  0  0  0  0  0  0  0  0  0
  150.6897  136.5135  154.9614 H   0  0  0  0  0  0  0  0  0  0  0  0
  149.1444  138.5288  155.8644 H   0  0  0  0  0  0  0  0  0  0  0  0
  150.6956  140.6579  155.9794 H   0  0  0  0  0  0  0  0  0  0  0  0
  150.4634  140.1498  154.2918 H   0  0  0  0  0  0  0  0  0  0  0  0
  1  2  1  0  0  0  0
  1 21  1  0  0  0  0
  1 22  1  0  0  0  0
  1 23  1  0  0  0  0
  2  3  1  0  0  0  0
  2 14  1  0  0  0  0
  2 24  1  0  0  0  0
  3  4  1  0  0  0  0
  3 25  1  0  0  0  0
  4  5  2  0  0  0  0
  4  6  1  0  0  0  0
  6  7  1  0  0  0  0
  6 26  1  0  0  0  0
  6 27  1  0  0  0  0
  7 12  1  0  0  0  0
  7  8  1  0  0  0  0
  8  9  2  0  0  0  0
  8 28  1  0  0  0  0
  9 10  1  0  0  0  0
  9 29  1  0  0  0  0
 10 11  2  0  0  0  0
 10 30  1  0  0  0  0
 11 12  1  0  0  0  0
 11 31  1  0  0  0  0
 12 13  2  0  0  0  0
 14 19  1  0  0  0  0
 14 15  1  0  0  0  0
 14 32  1  0  0  0  0
 15 16  1  0  0  0  0
 15 33  1  0  0  0  0
 15 34  1  0  0  0  0
 16 20  1  0  0  0  0
 16 17  1  0  0  0  0
 16 35  1  0  0  0  0
 17 18  1  0  0  0  0
 17 36  1  0  0  0  0
 17 37  1  0  0  0  0
 18 19  1  0  0  0  0
 18 38  1  0  0  0  0
 18 39  1  0  0  0  0
 19 20  1  0  0  0  0
 19 40  1  0  0  0  0
 20 41  1  0  0  0  0
 20 42  1  0  0  0  0
M  END
> <s_m_source_file>
AV-unprocessed.smi

> <i_m_source_file_index>
332

> <i_lp_mmshare_version>
43012

> <i_f3d_flags>
0

> <s_epik_input>
W0NIMl0xW0NIMl1bQ0BIXShbQ0gyXTIpW0NAQEhdKFtDSDJdW0NAQEhdMTIpW0NASF0oW0NIM10pW05IXUMoPU8pW0NIMl1uM1tjSF1bY0hdW2NIXVtjSF1jMz1P

> <s_epik_cmdline>
J2VwaWtfcHl0aG9uJywgJy1waCcsICc3LjAnLCAnLXRuJywgJzgnLCAnLW1hJywgJzIwMCcsICctbWV0YWxfYmluZGluZycsICctaW1hZScsICc8aW5maWxlLm1hZT4nLCAnLW9tYWUnLCAnPG91dGZpbGUubWFlPic=

> <r_lp_tautomer_probability>
1

> <r_epik_Ionization_Penalty>
4.05802e-07

> <r_epik_Ionization_Penalty_Charging>
3.84175e-07

> <r_epik_Ionization_Penalty_Neutral>
2.16269e-08

> <r_epik_State_Penalty>
-0

> <r_epik_Charging_Adjusted_Penalty>
3.84175e-07

> <i_epik_Tot_Q>
0

> <i_epik_Tot_abs_Q>
0

> <r_epik_Metal_State_Penalty>
-0

> <b_epik_Metal_Only>
0

> <s_lp_Force_Field>
OPLS_2005

> <r_lp_Energy>
59.6993

> <b_lp_Chiralities_Consistent>
1

> <s_lp_Variant>
AV-unprocessed.smi:332-1

> <Gold.Version>
5.8.1

> <Gold.Id.Protein>
6NUR|6NUR_protein|mol2

> <Gold.PLP.Fitness>
45.5719

> <Gold.PLP.PLP>
-38.8386

> <Gold.PLP.part.hbond>
-3.0000

> <Gold.PLP.part.metal>
0.0000

> <Gold.PLP.part.buried>
-4.4269

> <Gold.PLP.part.nonpolar>
-31.6342

> <Gold.PLP.part.repulsive>
0.1961

> <Gold.PLP.ligand.clash>
0.0000

> <Gold.PLP.ligand.torsion>
0.5233

> <Gold.PLP.Chemscore.Hbond>
2.5840

> <Gold.PLP.Chemscore.CHOScore>
0.0000

> <Gold.PLP.Chemscore.Metal>
0.0000

> <Gold.Chemscore.Hbonds>
donor molecule, donor type, donor heavy atom, donor atom, acceptor molecule, acceptor atom, score
      P1  H  6896  6909       L1     5  1.00
      P1  H  6934  6947       L1    13  0.55

> <Gold.PLP.Chemscore.Internal.Correction>
0.0277

> <Gold.Rescore>
     Score         DG    S(hbond)    S(metal)    S(lipo)     H(rot)  DE(clash)    DE(int)     intcor
     17.66     -18.70       1.99        0.00      89.88       1.54       0.04       1.00       ----

> <Gold.Chemscore.Fitness>
17.6550

> <Gold.Chemscore.DG>
-18.6955

> <Gold.Chemscore.ZeroCoef>
-5.4800

> <Gold.Chemscore.Hbond>
1.9884

> <Gold.Chemscore.Metal>
0.0000

> <Gold.Chemscore.Lipo>
89.8824

> <Gold.Chemscore.Internal_Hbond>
0.0000

> <Gold.Chemscore.DEClash>
0.0402

> <Gold.Chemscore.DEInternal>
1.0002

> <Gold.Chemscore.Rot>
1.5398

> <Gold.Chemscore.Internal.Correction>
   9.000000E+99

> <Gold.Chemscore.Hbonds>
donor molecule, donor type, donor heavy atom, donor atom, acceptor molecule, acceptor atom, score
      P1  H  6896  6909       L1     5  0.94
      P1  H  6934  6947       L1    13  0.55

> <Gold.Chemscore.Hbond.Weighted>
-6.6411

> <Gold.Chemscore.Metal.Weighted>
-0.0000

> <Gold.Chemscore.Lipo.Weighted>
-10.5162

> <Gold.Chemscore.Internal_Hbond.Weighted>
0.0000

> <Gold.Chemscore.DEClash.Weighted>
0.0402

> <Gold.Chemscore.DEInternal.Weighted>
1.0002

> <Gold.Chemscore.Rot.Weighted>
3.9419

> <Gold.Chemscore.Internal.Correction.Weighted>
   9.000000E+99

> <Gold.Protein.RotatedTorsions>
[ 6907 6896 6895 6894 ] final   49.08 input  -60.11 | X-H torsion
[ 7974 7965 7964 7962 ] final  174.05 input  175.53 | X-H torsion
[ 8008 7997 7996 7995 ] final   82.46 input   59.86 | X-H torsion
[ 10167 10162 10161 10158 ] final  -85.60 input  -65.29 | X-H torsion
[ 10718 10713 10712 10709 ] final  166.43 input   66.30 | X-H torsion
[ 10763 10752 10751 10750 ] final  150.35 input  -60.55 | X-H torsion
[ 11005 11000 10999 10996 ] final  -20.64 input  -57.11 | X-H torsion

> <Gold.Protein.ActiveResidues>
 VAL166  LYS551  ARG553  GLY616  TRP617  ASP618  TYR619  PRO620  LYS621  CYS622 
 ASP623  PHE694  ASN695  SER759  ASP760  ASP761  ALA762  ILE779  LEU786  VAL792 
 PHE793  MET794  SER795  GLU796  ALA797  LYS798  CYS799  TRP800  GLU811  SER814 

> <Gold.Protein.RotatedAtoms>
  152.2868  134.7767  160.0385 H   0  0  0  0  0  0  0  0  0  0  0  0  # atno 6907 bound_to 6896
  151.8327  133.3406  159.3626 H   0  0  0  0  0  0  0  0  0  0  0  0  # atno 6908 bound_to 6896
  150.7213  134.5396  159.5785 H   0  0  0  0  0  0  0  0  0  0  0  0  # atno 6909 bound_to 6896
  144.7230  139.9738  143.6437 H   0  0  0  0  0  0  0  0  0  0  0  0  # atno 7974 bound_to 7965
  155.9110  140.3427  155.6098 H   0  0  0  0  0  0  0  0  0  0  0  0  # atno 8008 bound_to 7997
  155.7388  140.0805  157.2274 H   0  0  0  0  0  0  0  0  0  0  0  0  # atno 8009 bound_to 7997
  154.4056  140.1574  156.2579 H   0  0  0  0  0  0  0  0  0  0  0  0  # atno 8010 bound_to 7997
  140.4022  143.2658  151.9128 H   0  0  0  0  0  0  0  0  0  0  0  0  # atno 10167 bound_to 10162
  157.0660  131.0353  151.2629 H   0  0  0  0  0  0  0  0  0  0  0  0  # atno 10718 bound_to 10713
  154.0860  135.2856  155.3281 H   0  0  0  0  0  0  0  0  0  0  0  0  # atno 10763 bound_to 10752
  154.6652  135.5320  153.8071 H   0  0  0  0  0  0  0  0  0  0  0  0  # atno 10764 bound_to 10752
  153.0431  135.6544  154.1032 H   0  0  0  0  0  0  0  0  0  0  0  0  # atno 10765 bound_to 10752
  140.8484  133.7875  155.9938 H   0  0  0  0  0  0  0  0  0  0  0  0  # atno 11005 bound_to 11000
  146.0541  139.3540  143.0621 LP  0  0  0  0  0  0  0  0  0  0  0  0  # atno 17320 bound_to 7965
  145.8176  140.9695  143.0915 LP  0  0  0  0  0  0  0  0  0  0  0  0  # atno 17321 bound_to 7965
  139.4784  144.5622  151.8221 LP  0  0  0  0  0  0  0  0  0  0  0  0  # atno 17342 bound_to 10162
  140.4728  144.1562  150.5920 LP  0  0  0  0  0  0  0  0  0  0  0  0  # atno 17343 bound_to 10162
  157.4917  130.7826  149.7514 LP  0  0  0  0  0  0  0  0  0  0  0  0  # atno 17370 bound_to 10713
  155.9964  130.3906  150.2779 LP  0  0  0  0  0  0  0  0  0  0  0  0  # atno 17371 bound_to 10713
  140.8818  134.2602  157.5140 LP  0  0  0  0  0  0  0  0  0  0  0  0  # atno 17394 bound_to 11000
  139.8704  134.9619  156.4410 LP  0  0  0  0  0  0  0  0  0  0  0  0  # atno 17395 bound_to 11000

$$$$
