AV-unprocessed.smi:3147|AV-procd|sdf|11990|dock6
  -GOLD-   2272017393D 1   1.00000     0.00000
 Structure written by MMmdl.
 36 37  0  0  0  0  0  0  0  0  1 V2000
  151.8736  145.4323  160.1517 C   0  0  0  0  0  0  0  0  0  0  0  0
  151.7336  144.2851  159.1986 C   0  0  0  0  0  0  0  0  0  0  0  0
  150.9616  144.4132  158.0464 N   0  0  0  0  0  0  0  0  0  0  0  0
  151.0670  143.2296  157.4597 C   0  0  0  0  0  0  0  0  0  0  0  0
  151.8284  142.3472  158.1206 N   0  0  0  0  0  0  0  0  0  0  0  0
  152.1172  140.9799  157.7135 C   0  0  0  0  0  0  0  0  0  0  0  0
  151.1570  140.4616  156.6357 C   0  0  0  0  0  0  0  0  0  0  0  0
  151.4571  140.4995  155.4414 O   0  0  0  0  0  0  0  0  0  0  0  0
  149.9925  139.9680  157.0826 N   0  0  0  0  0  0  0  0  0  0  0  0
  148.9364  139.4149  156.2425 C   0  0  0  0  0  0  0  0  0  0  0  0
  148.7107  140.2618  154.9790 C   0  0  1  0  0  0  0  0  0  0  0  0
  147.6634  139.6856  154.0311 C   0  0  0  0  0  0  0  0  0  0  0  0
  147.2900  140.9058  153.2190 C   0  0  0  0  0  0  0  0  0  0  0  0
  147.3722  142.0300  154.2520 C   0  0  0  0  0  0  0  0  0  0  0  0
  148.1923  141.5445  155.3134 O   0  0  0  0  0  0  0  0  0  0  0  0
  152.2769  143.0174  159.2581 C   0  0  0  0  0  0  0  0  0  0  0  0
  153.1729  142.3857  160.2759 C   0  0  0  0  0  0  0  0  0  0  0  0
  152.4964  145.1786  161.0086 H   0  0  0  0  0  0  0  0  0  0  0  0
  150.9018  145.7432  160.5352 H   0  0  0  0  0  0  0  0  0  0  0  0
  152.3264  146.2947  159.6619 H   0  0  0  0  0  0  0  0  0  0  0  0
  150.5764  142.9981  156.5256 H   0  0  0  0  0  0  0  0  0  0  0  0
  153.1421  140.9246  157.3454 H   0  0  0  0  0  0  0  0  0  0  0  0
  152.0603  140.3367  158.5931 H   0  0  0  0  0  0  0  0  0  0  0  0
  149.8228  139.9782  158.0780 H   0  0  0  0  0  0  0  0  0  0  0  0
  149.1841  138.3881  155.9683 H   0  0  0  0  0  0  0  0  0  0  0  0
  148.0194  139.3655  156.8304 H   0  0  0  0  0  0  0  0  0  0  0  0
  149.6465  140.3992  154.4342 H   0  0  0  0  0  0  0  0  0  0  0  0
  148.0447  138.8654  153.4220 H   0  0  0  0  0  0  0  0  0  0  0  0
  146.7962  139.3268  154.5874 H   0  0  0  0  0  0  0  0  0  0  0  0
  148.0284  141.0667  152.4324 H   0  0  0  0  0  0  0  0  0  0  0  0
  146.3079  140.8260  152.7520 H   0  0  0  0  0  0  0  0  0  0  0  0
  147.7872  142.9428  153.8238 H   0  0  0  0  0  0  0  0  0  0  0  0
  146.3854  142.2631  154.6531 H   0  0  0  0  0  0  0  0  0  0  0  0
  153.4673  143.0953  161.0478 H   0  0  0  0  0  0  0  0  0  0  0  0
  154.0835  142.0091  159.8096 H   0  0  0  0  0  0  0  0  0  0  0  0
  152.6735  141.5495  160.7655 H   0  0  0  0  0  0  0  0  0  0  0  0
  1  2  1  0  0  0  0
  1 18  1  0  0  0  0
  1 19  1  0  0  0  0
  1 20  1  0  0  0  0
  2 16  2  0  0  0  0
  2  3  1  0  0  0  0
  3  4  2  0  0  0  0
  4  5  1  0  0  0  0
  4 21  1  0  0  0  0
  5  6  1  0  0  0  0
  5 16  1  0  0  0  0
  6  7  1  0  0  0  0
  6 22  1  0  0  0  0
  6 23  1  0  0  0  0
  7  8  2  0  0  0  0
  7  9  1  0  0  0  0
  9 10  1  0  0  0  0
  9 24  1  0  0  0  0
 10 11  1  0  0  0  0
 10 25  1  0  0  0  0
 10 26  1  0  0  0  0
 11 15  1  0  0  0  0
 11 12  1  0  0  0  0
 11 27  1  0  0  0  0
 12 13  1  0  0  0  0
 12 28  1  0  0  0  0
 12 29  1  0  0  0  0
 13 14  1  0  0  0  0
 13 30  1  0  0  0  0
 13 31  1  0  0  0  0
 14 15  1  0  0  0  0
 14 32  1  0  0  0  0
 14 33  1  0  0  0  0
 16 17  1  0  0  0  0
 17 34  1  0  0  0  0
 17 35  1  0  0  0  0
 17 36  1  0  0  0  0
M  END
> <s_m_source_file>
AV-unprocessed.smi

> <i_m_source_file_index>
3147

> <i_lp_mmshare_version>
43012

> <i_f3d_flags>
0

> <s_epik_input>
W0NIM11jMW5bY0hdbihjMVtDSDNdKVtDSDJdQyg9TylbTkhdW0NIMl1bQ0BASF0yW0NIMl1bQ0gyXVtDSDJdTzI=

> <s_epik_cmdline>
J2VwaWtfcHl0aG9uJywgJy1waCcsICc3LjAnLCAnLXRuJywgJzgnLCAnLW1hJywgJzIwMCcsICctbWV0YWxfYmluZGluZycsICctaW1hZScsICc8aW5maWxlLm1hZT4nLCAnLW9tYWUnLCAnPG91dGZpbGUubWFlPic=

> <r_lp_tautomer_probability>
1

> <r_epik_Ionization_Penalty>
0.957393

> <r_epik_Ionization_Penalty_Charging>
0.957393

> <r_epik_Ionization_Penalty_Neutral>
1.43432e-07

> <r_epik_State_Penalty>
1.0022

> <r_epik_Charging_Adjusted_Penalty>
1.9596

> <i_epik_Tot_Q>
0

> <i_epik_Tot_abs_Q>
0

> <r_epik_Metal_State_Penalty>
0.374967

> <b_epik_Metal_Only>
0

> <s_lp_Force_Field>
OPLS_2005

> <r_lp_Energy>
18.0511

> <b_lp_Chiralities_Consistent>
1

> <s_lp_Variant>
AV-unprocessed.smi:3147-4

> <Gold.Version>
5.8.1

> <Gold.Id.Protein>
6NUR|6NUR_protein|mol2

> <Gold.PLP.Fitness>
37.7822

> <Gold.PLP.PLP>
-34.6088

> <Gold.PLP.part.hbond>
-1.0000

> <Gold.PLP.part.metal>
0.0000

> <Gold.PLP.part.buried>
-4.6811

> <Gold.PLP.part.nonpolar>
-28.6613

> <Gold.PLP.part.repulsive>
0.3295

> <Gold.PLP.ligand.clash>
0.0000

> <Gold.PLP.ligand.torsion>
0.6796

> <Gold.PLP.Chemscore.Hbond>
0.8480

> <Gold.PLP.Chemscore.CHOScore>
0.6556

> <Gold.PLP.Chemscore.Metal>
0.0000

> <Gold.Chemscore.Hbonds>
donor molecule, donor type, donor heavy atom, donor atom, acceptor molecule, acceptor atom, score
      P1  H  7989  7998       L1     8  0.85
      L1  C     4    21       P1  8028  0.67

> <Gold.PLP.Chemscore.Internal.Correction>
0.0218

> <Gold.Rescore>
     Score         DG    S(hbond)    S(metal)    S(lipo)     H(rot)  DE(clash)    DE(int)     intcor
     11.59     -13.66       0.92        0.00      80.83       1.70       0.03       2.03       ----

> <Gold.Chemscore.Fitness>
11.5945

> <Gold.Chemscore.DG>
-13.6563

> <Gold.Chemscore.ZeroCoef>
-5.4800

> <Gold.Chemscore.Hbond>
0.9220

> <Gold.Chemscore.Metal>
0.0000

> <Gold.Chemscore.Lipo>
80.8325

> <Gold.Chemscore.Internal_Hbond>
0.0000

> <Gold.Chemscore.DEClash>
0.0286

> <Gold.Chemscore.DEInternal>
2.0332

> <Gold.Chemscore.Rot>
1.7034

> <Gold.Chemscore.Internal.Correction>
   9.000000E+99

> <Gold.Chemscore.Hbonds>
donor molecule, donor type, donor heavy atom, donor atom, acceptor molecule, acceptor atom, score
      P1  H  7989  7998       L1     8  0.81

> <Gold.Chemscore.Hbond.Weighted>
-3.0796

> <Gold.Chemscore.Metal.Weighted>
-0.0000

> <Gold.Chemscore.Lipo.Weighted>
-9.4574

> <Gold.Chemscore.Internal_Hbond.Weighted>
0.0000

> <Gold.Chemscore.DEClash.Weighted>
0.0286

> <Gold.Chemscore.DEInternal.Weighted>
2.0332

> <Gold.Chemscore.Rot.Weighted>
4.3607

> <Gold.Chemscore.Internal.Correction.Weighted>
   9.000000E+99

> <Gold.Protein.RotatedTorsions>
[ 6907 6896 6895 6894 ] final  123.98 input  -60.11 | X-H torsion
[ 7974 7965 7964 7962 ] final   56.26 input  175.53 | X-H torsion
[ 8008 7997 7996 7995 ] final  -75.39 input   59.86 | X-H torsion
[ 10167 10162 10161 10158 ] final -144.05 input  -65.29 | X-H torsion
[ 10718 10713 10712 10709 ] final  168.34 input   66.30 | X-H torsion
[ 10763 10752 10751 10750 ] final   75.34 input  -60.55 | X-H torsion
[ 11005 11000 10999 10996 ] final   98.77 input  -57.11 | X-H torsion

> <Gold.Protein.ActiveResidues>
 VAL166  LYS551  ARG553  GLY616  TRP617  ASP618  TYR619  PRO620  LYS621  CYS622 
 ASP623  PHE694  ASN695  SER759  ASP760  ASP761  ALA762  ILE779  LEU786  VAL792 
 PHE793  MET794  SER795  GLU796  ALA797  LYS798  CYS799  TRP800  GLU811  SER814 

> <Gold.Protein.RotatedAtoms>
  152.4116  133.6972  159.6402 H   0  0  0  0  0  0  0  0  0  0  0  0  # atno 6907 bound_to 6896
  150.7996  133.8614  159.3241 H   0  0  0  0  0  0  0  0  0  0  0  0  # atno 6908 bound_to 6896
  151.6355  135.1020  160.0182 H   0  0  0  0  0  0  0  0  0  0  0  0  # atno 6909 bound_to 6896
  145.9417  139.3894  143.0360 H   0  0  0  0  0  0  0  0  0  0  0  0  # atno 7974 bound_to 7965
  154.5412  140.0745  156.8514 H   0  0  0  0  0  0  0  0  0  0  0  0  # atno 8008 bound_to 7997
  155.3176  140.3394  155.4224 H   0  0  0  0  0  0  0  0  0  0  0  0  # atno 8009 bound_to 7997
  156.1876  140.1674  156.8140 H   0  0  0  0  0  0  0  0  0  0  0  0  # atno 8010 bound_to 7997
  139.7936  143.7932  152.2652 H   0  0  0  0  0  0  0  0  0  0  0  0  # atno 10167 bound_to 10162
  157.0385  131.0280  151.2721 H   0  0  0  0  0  0  0  0  0  0  0  0  # atno 10718 bound_to 10713
  153.0648  135.4992  154.8175 H   0  0  0  0  0  0  0  0  0  0  0  0  # atno 10763 bound_to 10752
  154.6937  135.2989  154.9445 H   0  0  0  0  0  0  0  0  0  0  0  0  # atno 10764 bound_to 10752
  154.0191  135.6744  153.4824 H   0  0  0  0  0  0  0  0  0  0  0  0  # atno 10765 bound_to 10752
  139.8771  134.9064  156.4505 H   0  0  0  0  0  0  0  0  0  0  0  0  # atno 11005 bound_to 11000
  145.8291  140.9640  143.0858 LP  0  0  0  0  0  0  0  0  0  0  0  0  # atno 17320 bound_to 7965
  144.6780  140.0139  143.7484 LP  0  0  0  0  0  0  0  0  0  0  0  0  # atno 17321 bound_to 7965
  139.8031  144.7366  150.9798 LP  0  0  0  0  0  0  0  0  0  0  0  0  # atno 17342 bound_to 10162
  140.7820  143.4325  151.0672 LP  0  0  0  0  0  0  0  0  0  0  0  0  # atno 17343 bound_to 10162
  157.5122  130.7946  149.7718 LP  0  0  0  0  0  0  0  0  0  0  0  0  # atno 17370 bound_to 10713
  156.0046  130.3862  150.2479 LP  0  0  0  0  0  0  0  0  0  0  0  0  # atno 17371 bound_to 10713
  140.8935  133.7831  155.9598 LP  0  0  0  0  0  0  0  0  0  0  0  0  # atno 17394 bound_to 11000
  140.8728  134.2706  157.5182 LP  0  0  0  0  0  0  0  0  0  0  0  0  # atno 17395 bound_to 11000

$$$$
