AV-unprocessed.smi:741|AV-procd|sdf|3557|dock10
  -GOLD-   22720 0553D 1   1.00000     0.00000
 Structure written by MMmdl.
 43 44  0  0  0  0  0  0  0  0  3 V2000
  145.4499  143.1862  154.3893 C   0  0  0  0  0  0  0  0  0  0  0  0
  146.7312  142.6427  153.7399 C   0  0  0  0  0  0  0  0  0  0  0  0
  147.0926  141.2108  154.1798 C   0  0  1  0  0  0  0  0  0  0  0  0
  147.4235  141.1571  155.6875 C   0  0  0  0  0  0  0  0  0  0  0  0
  148.6527  141.9103  156.0379 N   0  3  0  0  0  0  0  0  0  0  0  0
  148.9455  141.9953  157.4841 C   0  0  0  0  0  0  0  0  0  0  0  0
  150.4364  142.3038  157.5589 C   0  0  0  0  0  0  0  0  0  0  0  0
  151.0106  141.4837  156.4078 C   0  0  0  0  0  0  0  0  0  0  0  0
  149.8832  141.4284  155.3673 C   0  0  0  0  0  0  0  0  0  0  0  0
  145.9896  140.3012  153.8588 N   0  0  0  0  0  0  0  0  0  0  0  0
  145.9178  139.0014  154.1819 C   0  0  0  0  0  0  0  0  0  0  0  0
  146.7716  138.4192  154.8496 O   0  0  0  0  0  0  0  0  0  0  0  0
  144.7912  138.4411  153.7087 N   0  0  0  0  0  0  0  0  0  0  0  0
  144.3656  137.0898  153.8252 C   0  0  0  0  0  0  0  0  0  0  0  0
  143.2783  136.6721  153.0260 C   0  0  0  0  0  0  0  0  0  0  0  0
  142.8351  135.3357  153.0988 C   0  0  0  0  0  0  0  0  0  0  0  0
  143.4583  134.4641  153.9204 N   0  3  0  0  0  0  0  0  0  0  0  0
  144.5114  134.8121  154.6906 C   0  0  0  0  0  0  0  0  0  0  0  0
  144.9983  136.1351  154.6615 C   0  0  0  0  0  0  0  0  0  0  0  0
  145.2164  144.1806  154.0084 H   0  0  0  0  0  0  0  0  0  0  0  0
  145.5487  143.2651  155.4722 H   0  0  0  0  0  0  0  0  0  0  0  0
  144.5967  142.5416  154.1761 H   0  0  0  0  0  0  0  0  0  0  0  0
  146.6034  142.6631  152.6570 H   0  0  0  0  0  0  0  0  0  0  0  0
  147.5595  143.3182  153.9584 H   0  0  0  0  0  0  0  0  0  0  0  0
  147.9836  140.9213  153.6197 H   0  0  0  0  0  0  0  0  0  0  0  0
  146.5871  141.5307  156.2805 H   0  0  0  0  0  0  0  0  0  0  0  0
  147.5601  140.1132  155.9751 H   0  0  0  0  0  0  0  0  0  0  0  0
  148.3401  142.7503  157.9849 H   0  0  0  0  0  0  0  0  0  0  0  0
  148.7474  141.0342  157.9613 H   0  0  0  0  0  0  0  0  0  0  0  0
  150.6049  143.3666  157.3796 H   0  0  0  0  0  0  0  0  0  0  0  0
  150.8760  142.0499  158.5239 H   0  0  0  0  0  0  0  0  0  0  0  0
  151.9310  141.9103  156.0084 H   0  0  0  0  0  0  0  0  0  0  0  0
  151.2369  140.4749  156.7560 H   0  0  0  0  0  0  0  0  0  0  0  0
  149.7691  140.4115  154.9889 H   0  0  0  0  0  0  0  0  0  0  0  0
  150.0970  142.0760  154.5166 H   0  0  0  0  0  0  0  0  0  0  0  0
  145.2354  140.6912  153.3118 H   0  0  0  0  0  0  0  0  0  0  0  0
  144.1381  139.0647  153.2573 H   0  0  0  0  0  0  0  0  0  0  0  0
  142.7807  137.3678  152.3657 H   0  0  0  0  0  0  0  0  0  0  0  0
  142.0085  134.9401  152.5264 H   0  0  0  0  0  0  0  0  0  0  0  0
  144.9348  134.0258  155.2985 H   0  0  0  0  0  0  0  0  0  0  0  0
  145.8541  136.3875  155.2691 H   0  0  0  0  0  0  0  0  0  0  0  0
  148.5222  142.8593  155.7184 H   0  0  0  0  0  0  0  0  0  0  0  0
  143.1234  133.5007  153.9563 H   0  0  0  0  0  0  0  0  0  0  0  0
  1  2  1  0  0  0  0
  1 20  1  0  0  0  0
  1 21  1  0  0  0  0
  1 22  1  0  0  0  0
  2  3  1  0  0  0  0
  2 23  1  0  0  0  0
  2 24  1  0  0  0  0
  3  4  1  0  0  0  0
  3 10  1  0  0  0  0
  3 25  1  0  0  0  0
  4  5  1  0  0  0  0
  4 26  1  0  0  0  0
  4 27  1  0  0  0  0
  5  9  1  0  0  0  0
  5  6  1  0  0  0  0
  5 42  1  0  0  0  0
  6  7  1  0  0  0  0
  6 28  1  0  0  0  0
  6 29  1  0  0  0  0
  7  8  1  0  0  0  0
  7 30  1  0  0  0  0
  7 31  1  0  0  0  0
  8  9  1  0  0  0  0
  8 32  1  0  0  0  0
  8 33  1  0  0  0  0
  9 34  1  0  0  0  0
  9 35  1  0  0  0  0
 10 11  1  0  0  0  0
 10 36  1  0  0  0  0
 11 12  2  0  0  0  0
 11 13  1  0  0  0  0
 13 14  1  0  0  0  0
 13 37  1  0  0  0  0
 14 19  1  0  0  0  0
 14 15  2  0  0  0  0
 15 16  1  0  0  0  0
 15 38  1  0  0  0  0
 16 17  2  0  0  0  0
 16 39  1  0  0  0  0
 17 18  1  0  0  0  0
 17 43  1  0  0  0  0
 18 19  2  0  0  0  0
 18 40  1  0  0  0  0
 19 41  1  0  0  0  0
M  CHG  1   5   1
M  CHG  1  17   1
M  END
> <s_m_source_file>
AV-unprocessed.smi

> <i_m_source_file_index>
741

> <i_lp_mmshare_version>
43012

> <i_f3d_flags>
0

> <s_epik_input>
W0NIMl0xW0NIMl1bQ0gyXVtDSDJdTjFbQ0gyXVtDQEBIXShbQ0gyXVtDSDNdKVtOSF1DKD1PKVtOSF1jMltjSF1bY0hdbltjSF1bY0hdMg==

> <s_epik_cmdline>
J2VwaWtfcHl0aG9uJywgJy1waCcsICc3LjAnLCAnLXRuJywgJzgnLCAnLW1hJywgJzIwMCcsICctbWV0YWxfYmluZGluZycsICctaW1hZScsICc8aW5maWxlLm1hZT4nLCAnLW9tYWUnLCAnPG91dGZpbGUubWFlPic=

> <r_epik_Ionization_Penalty>
1.10771

> <r_epik_Ionization_Penalty_Charging>
1.10769

> <r_epik_Ionization_Penalty_Neutral>
1.91663e-05

> <r_epik_State_Penalty>
1.16347

> <r_epik_Charging_Adjusted_Penalty>
2.27116

> <i_epik_Tot_Q>
2

> <i_epik_Tot_abs_Q>
2

> <r_epik_Metal_State_Penalty>
1.24871

> <b_epik_Metal_Only>
0

> <s_lp_Force_Field>
OPLS_2005

> <r_lp_Energy>
49.4137

> <b_lp_Chiralities_Consistent>
1

> <s_lp_Variant>
AV-unprocessed.smi:741-4

> <Gold.Version>
5.8.1

> <Gold.Id.Protein>
6NUR|6NUR_protein|mol2

> <Gold.PLP.Fitness>
45.9140

> <Gold.PLP.PLP>
-28.0937

> <Gold.PLP.part.hbond>
-4.0000

> <Gold.PLP.part.metal>
0.0000

> <Gold.PLP.part.buried>
-4.9477

> <Gold.PLP.part.nonpolar>
-19.5308

> <Gold.PLP.part.repulsive>
0.1303

> <Gold.PLP.ligand.clash>
0.0000

> <Gold.PLP.ligand.torsion>
0.1093

> <Gold.PLP.Chemscore.Hbond>
6.0000

> <Gold.PLP.Chemscore.CHOScore>
0.0000

> <Gold.PLP.Chemscore.Metal>
0.0000

> <Gold.Chemscore.Hbonds>
donor molecule, donor type, donor heavy atom, donor atom, acceptor molecule, acceptor atom, score
      L1  H     5    42       P1  8028  2.00
      L1  H    10    36       P1 10175  1.00
      L1  H    13    37       P1 10175  1.00
      L1  H    17    43       P1 10957  2.00

> <Gold.PLP.Chemscore.Internal.Correction>
0.0390

> <Gold.Rescore>
     Score         DG    S(hbond)    S(metal)    S(lipo)     H(rot)  DE(clash)    DE(int)     intcor
     18.61     -21.30       3.87        0.00      60.31       1.63       0.07       2.61       ----

> <Gold.Chemscore.Fitness>
18.6100

> <Gold.Chemscore.DG>
-21.2979

> <Gold.Chemscore.ZeroCoef>
-5.4800

> <Gold.Chemscore.Hbond>
3.8696

> <Gold.Chemscore.Metal>
0.0000

> <Gold.Chemscore.Lipo>
60.3092

> <Gold.Chemscore.Internal_Hbond>
0.0000

> <Gold.Chemscore.DEClash>
0.0731

> <Gold.Chemscore.DEInternal>
2.6148

> <Gold.Chemscore.Rot>
1.6260

> <Gold.Chemscore.Internal.Correction>
   9.000000E+99

> <Gold.Chemscore.Hbonds>
donor molecule, donor type, donor heavy atom, donor atom, acceptor molecule, acceptor atom, score
      L1  H     5    42       P1  8028  0.98
      L1  H    10    36       P1 10175  0.83
      L1  H    13    37       P1 10175  0.98
      L1  H    17    43       P1 10957  0.97

> <Gold.Chemscore.Hbond.Weighted>
-12.9243

> <Gold.Chemscore.Metal.Weighted>
-0.0000

> <Gold.Chemscore.Lipo.Weighted>
-7.0562

> <Gold.Chemscore.Internal_Hbond.Weighted>
0.0000

> <Gold.Chemscore.DEClash.Weighted>
0.0731

> <Gold.Chemscore.DEInternal.Weighted>
2.6148

> <Gold.Chemscore.Rot.Weighted>
4.1626

> <Gold.Chemscore.Internal.Correction.Weighted>
   9.000000E+99

> <Gold.Protein.RotatedTorsions>
[ 6907 6896 6895 6894 ] final -100.86 input  -60.11 | X-H torsion
[ 7974 7965 7964 7962 ] final    2.48 input  175.53 | X-H torsion
[ 8008 7997 7996 7995 ] final  172.17 input   59.86 | X-H torsion
[ 10167 10162 10161 10158 ] final   77.57 input  -65.29 | X-H torsion
[ 10718 10713 10712 10709 ] final  109.76 input   66.30 | X-H torsion
[ 10763 10752 10751 10750 ] final -136.73 input  -60.55 | X-H torsion
[ 11005 11000 10999 10996 ] final  -81.08 input  -57.11 | X-H torsion

> <Gold.Protein.ActiveResidues>
 VAL166  LYS551  ARG553  GLY616  TRP617  ASP618  TYR619  PRO620  LYS621  CYS622 
 ASP623  PHE694  ASN695  SER759  ASP760  ASP761  ALA762  ILE779  LEU786  VAL792 
 PHE793  MET794  SER795  GLU796  ALA797  LYS798  CYS799  TRP800  GLU811  SER814 

> <Gold.Protein.RotatedAtoms>
  150.7132  134.0822  159.3901 H   0  0  0  0  0  0  0  0  0  0  0  0  # atno 6907 bound_to 6896
  151.8806  135.0452  160.0497 H   0  0  0  0  0  0  0  0  0  0  0  0  # atno 6908 bound_to 6896
  152.2570  133.5229  159.5396 H   0  0  0  0  0  0  0  0  0  0  0  0  # atno 6909 bound_to 6896
  146.2444  140.0830  142.8356 H   0  0  0  0  0  0  0  0  0  0  0  0  # atno 7974 bound_to 7965
  156.1200  140.1493  156.9218 H   0  0  0  0  0  0  0  0  0  0  0  0  # atno 8008 bound_to 7997
  154.4829  140.0874  156.7460 H   0  0  0  0  0  0  0  0  0  0  0  0  # atno 8009 bound_to 7997
  155.4445  140.3432  155.4296 H   0  0  0  0  0  0  0  0  0  0  0  0  # atno 8010 bound_to 7997
  139.9801  144.5832  150.7908 H   0  0  0  0  0  0  0  0  0  0  0  0  # atno 10167 bound_to 10162
  157.6526  131.0920  150.6501 H   0  0  0  0  0  0  0  0  0  0  0  0  # atno 10718 bound_to 10713
  154.8677  135.3663  154.5109 H   0  0  0  0  0  0  0  0  0  0  0  0  # atno 10763 bound_to 10752
  153.5744  135.7020  153.5495 H   0  0  0  0  0  0  0  0  0  0  0  0  # atno 10764 bound_to 10752
  153.3513  135.4071  155.1611 H   0  0  0  0  0  0  0  0  0  0  0  0  # atno 10765 bound_to 10752
  141.1667  133.7180  156.8369 H   0  0  0  0  0  0  0  0  0  0  0  0  # atno 11005 bound_to 11000
  145.0716  140.9159  143.4878 LP  0  0  0  0  0  0  0  0  0  0  0  0  # atno 17320 bound_to 7965
  145.0965  139.2853  143.5708 LP  0  0  0  0  0  0  0  0  0  0  0  0  # atno 17321 bound_to 7965
  140.7492  143.2934  151.3268 LP  0  0  0  0  0  0  0  0  0  0  0  0  # atno 17342 bound_to 10162
  139.6416  144.0529  152.2558 LP  0  0  0  0  0  0  0  0  0  0  0  0  # atno 17343 bound_to 10162
  156.6810  130.4567  149.5628 LP  0  0  0  0  0  0  0  0  0  0  0  0  # atno 17370 bound_to 10713
  156.1929  130.6571  151.1081 LP  0  0  0  0  0  0  0  0  0  0  0  0  # atno 17371 bound_to 10713
  140.2011  134.8896  157.3170 LP  0  0  0  0  0  0  0  0  0  0  0  0  # atno 17394 bound_to 11000
  140.2186  134.4051  155.7577 LP  0  0  0  0  0  0  0  0  0  0  0  0  # atno 17395 bound_to 11000

$$$$
