AV-unprocessed.smi:1641|AV-procd|sdf|6560|dock2
  -GOLD-   22720 7243D 1   1.00000     0.00000
 Structure written by MMmdl.
 42 43  0  0  0  0  0  0  0  0  2 V2000
  150.9617  142.2443  156.8642 C   0  0  0  0  0  0  0  0  0  0  0  0
  150.6364  141.1534  155.9021 C   0  0  0  0  0  0  0  0  0  0  0  0
  151.5569  140.3048  155.4285 N   0  0  0  0  0  0  0  0  0  0  0  0
  151.0150  139.3773  154.5497 N   0  0  0  0  0  0  0  0  0  0  0  0
  149.6969  139.5549  154.3859 C   0  0  0  0  0  0  0  0  0  0  0  0
  148.8915  138.7462  153.5408 N   0  0  0  0  0  0  0  0  0  0  0  0
  147.5565  138.7791  153.3836 C   0  0  0  0  0  0  0  0  0  0  0  0
  146.7874  139.5431  153.9678 O   0  0  0  0  0  0  0  0  0  0  0  0
  147.1462  137.8584  152.4993 N   0  0  0  0  0  0  0  0  0  0  0  0
  145.7574  137.6423  152.1099 C   0  0  0  0  0  0  0  0  0  0  0  0
  145.6198  136.4432  151.1524 C   0  0  0  0  0  0  0  0  0  0  0  0
  146.1386  135.1859  151.7458 N   0  3  1  0  0  0  0  0  0  0  0  0
  145.8586  135.0884  153.1978 C   0  0  0  0  0  0  0  0  0  0  0  0
  146.4632  133.8032  153.7974 C   0  0  2  0  0  0  0  0  0  0  0  0
  147.9944  133.8532  153.9442 C   0  0  0  0  0  0  0  0  0  0  0  0
  146.0280  132.6626  153.0578 O   0  0  0  0  0  0  0  0  0  0  0  0
  146.3095  132.7103  151.6613 C   0  0  1  0  0  0  0  0  0  0  0  0
  145.7730  131.4213  151.0291 C   0  0  0  0  0  0  0  0  0  0  0  0
  145.6628  133.9661  151.0496 C   0  0  0  0  0  0  0  0  0  0  0  0
  149.0048  140.8825  155.3023 S   0  0  0  0  0  0  0  0  0  0  0  0
  152.0276  142.2487  157.0955 H   0  0  0  0  0  0  0  0  0  0  0  0
  150.4041  142.1023  157.7899 H   0  0  0  0  0  0  0  0  0  0  0  0
  150.6934  143.2105  156.4369 H   0  0  0  0  0  0  0  0  0  0  0  0
  149.3919  138.0608  152.9944 H   0  0  0  0  0  0  0  0  0  0  0  0
  147.8419  137.2715  152.0618 H   0  0  0  0  0  0  0  0  0  0  0  0
  145.1514  137.5109  153.0068 H   0  0  0  0  0  0  0  0  0  0  0  0
  145.3966  138.5487  151.6233 H   0  0  0  0  0  0  0  0  0  0  0  0
  144.5613  136.3201  150.9178 H   0  0  0  0  0  0  0  0  0  0  0  0
  146.1239  136.6337  150.2036 H   0  0  0  0  0  0  0  0  0  0  0  0
  146.2540  135.9616  153.7186 H   0  0  0  0  0  0  0  0  0  0  0  0
  144.7781  135.0917  153.3514 H   0  0  0  0  0  0  0  0  0  0  0  0
  146.0560  133.6834  154.8018 H   0  0  0  0  0  0  0  0  0  0  0  0
  148.2911  134.6540  154.6219 H   0  0  0  0  0  0  0  0  0  0  0  0
  148.4973  134.0315  152.9943 H   0  0  0  0  0  0  0  0  0  0  0  0
  148.3751  132.9178  154.3549 H   0  0  0  0  0  0  0  0  0  0  0  0
  147.3877  132.7388  151.5030 H   0  0  0  0  0  0  0  0  0  0  0  0
  145.9720  131.3968  149.9574 H   0  0  0  0  0  0  0  0  0  0  0  0
  144.6960  131.3285  151.1722 H   0  0  0  0  0  0  0  0  0  0  0  0
  146.2444  130.5443  151.4737 H   0  0  0  0  0  0  0  0  0  0  0  0
  144.5757  133.9050  151.1241 H   0  0  0  0  0  0  0  0  0  0  0  0
  145.9057  134.0145  149.9887 H   0  0  0  0  0  0  0  0  0  0  0  0
  147.1440  135.2120  151.6516 H   0  0  0  0  0  0  0  0  0  0  0  0
  1  2  1  0  0  0  0
  1 21  1  0  0  0  0
  1 22  1  0  0  0  0
  1 23  1  0  0  0  0
  2 20  1  0  0  0  0
  2  3  2  0  0  0  0
  3  4  1  0  0  0  0
  4  5  2  0  0  0  0
  5  6  1  0  0  0  0
  5 20  1  0  0  0  0
  6  7  1  0  0  0  0
  6 24  1  0  0  0  0
  7  8  2  0  0  0  0
  7  9  1  0  0  0  0
  9 10  1  0  0  0  0
  9 25  1  0  0  0  0
 10 11  1  0  0  0  0
 10 26  1  0  0  0  0
 10 27  1  0  0  0  0
 11 12  1  0  0  0  0
 11 28  1  0  0  0  0
 11 29  1  0  0  0  0
 12 19  1  0  0  0  0
 12 13  1  0  0  0  0
 12 42  1  0  0  0  0
 13 14  1  0  0  0  0
 13 30  1  0  0  0  0
 13 31  1  0  0  0  0
 14 15  1  0  0  0  0
 14 16  1  0  0  0  0
 14 32  1  0  0  0  0
 15 33  1  0  0  0  0
 15 34  1  0  0  0  0
 15 35  1  0  0  0  0
 16 17  1  0  0  0  0
 17 18  1  0  0  0  0
 17 19  1  0  0  0  0
 17 36  1  0  0  0  0
 18 37  1  0  0  0  0
 18 38  1  0  0  0  0
 18 39  1  0  0  0  0
 19 40  1  0  0  0  0
 19 41  1  0  0  0  0
M  CHG  1  12   1
M  END
> <s_m_source_file>
AV-unprocessed.smi

> <i_m_source_file_index>
1641

> <i_lp_mmshare_version>
43012

> <i_f3d_flags>
0

> <s_epik_input>
W0NIM11jMW5uYyhzMSlbTkhdQyg9TylbTkhdW0NIMl1bQ0gyXU4yW0NIMl1bQ0BASF0oW0NIM10pT1tDQEBIXShbQ0gzXSlbQ0gyXTI=

> <s_epik_cmdline>
J2VwaWtfcHl0aG9uJywgJy1waCcsICc3LjAnLCAnLXRuJywgJzgnLCAnLW1hJywgJzIwMCcsICctbWV0YWxfYmluZGluZycsICctaW1hZScsICc8aW5maWxlLm1hZT4nLCAnLW9tYWUnLCAnPG91dGZpbGUubWFlPic=

> <r_lp_tautomer_probability>
1

> <r_epik_Ionization_Penalty>
0.700114

> <r_epik_Ionization_Penalty_Charging>
0.695697

> <r_epik_Ionization_Penalty_Neutral>
0.00441638

> <r_epik_State_Penalty>
0.717972

> <r_epik_Charging_Adjusted_Penalty>
1.41367

> <i_epik_Tot_Q>
1

> <i_epik_Tot_abs_Q>
1

> <r_epik_Metal_State_Penalty>
1.06958

> <b_epik_Metal_Only>
0

> <s_lp_Force_Field>
OPLS_2005

> <r_lp_Energy>
16.0757

> <b_lp_Chiralities_Consistent>
1

> <s_lp_Variant>
AV-unprocessed.smi:1641-5

> <Gold.Version>
5.8.1

> <Gold.Id.Protein>
6NUR|6NUR_protein|mol2

> <Gold.PLP.Fitness>
42.7445

> <Gold.PLP.PLP>
-32.5670

> <Gold.PLP.part.hbond>
-5.9003

> <Gold.PLP.part.metal>
0.0000

> <Gold.PLP.part.buried>
-1.9853

> <Gold.PLP.part.nonpolar>
-25.5875

> <Gold.PLP.part.repulsive>
0.5920

> <Gold.PLP.ligand.clash>
0.0000

> <Gold.PLP.ligand.torsion>
0.2129

> <Gold.PLP.Chemscore.Hbond>
3.5263

> <Gold.PLP.Chemscore.CHOScore>
0.0000

> <Gold.PLP.Chemscore.Metal>
0.0000

> <Gold.Chemscore.Hbonds>
donor molecule, donor type, donor heavy atom, donor atom, acceptor molecule, acceptor atom, score
      L1  H     6    24       P1  7948  0.55
      L1  H     9    25       P1  7948  0.96
      L1  H    12    42       P1  7948  1.95

> <Gold.PLP.Chemscore.Internal.Correction>
0.0244

> <Gold.Rescore>
     Score         DG    S(hbond)    S(metal)    S(lipo)     H(rot)  DE(clash)    DE(int)     intcor
     15.62     -17.18       2.41        0.00      67.11       1.64       0.26       1.30       ----

> <Gold.Chemscore.Fitness>
15.6218

> <Gold.Chemscore.DG>
-17.1824

> <Gold.Chemscore.ZeroCoef>
-5.4800

> <Gold.Chemscore.Hbond>
2.4068

> <Gold.Chemscore.Metal>
0.0000

> <Gold.Chemscore.Lipo>
67.1063

> <Gold.Chemscore.Internal_Hbond>
0.0000

> <Gold.Chemscore.DEClash>
0.2557

> <Gold.Chemscore.DEInternal>
1.3048

> <Gold.Chemscore.Rot>
1.6358

> <Gold.Chemscore.Internal.Correction>
   9.000000E+99

> <Gold.Chemscore.Hbonds>
donor molecule, donor type, donor heavy atom, donor atom, acceptor molecule, acceptor atom, score
      L1  H     6    24       P1  7948  0.49
      L1  H     9    25       P1  7948  0.91
      L1  H    12    42       P1  7948  0.83

> <Gold.Chemscore.Hbond.Weighted>
-8.0387

> <Gold.Chemscore.Metal.Weighted>
-0.0000

> <Gold.Chemscore.Lipo.Weighted>
-7.8514

> <Gold.Chemscore.Internal_Hbond.Weighted>
0.0000

> <Gold.Chemscore.DEClash.Weighted>
0.2557

> <Gold.Chemscore.DEInternal.Weighted>
1.3048

> <Gold.Chemscore.Rot.Weighted>
4.1878

> <Gold.Chemscore.Internal.Correction.Weighted>
   9.000000E+99

> <Gold.Protein.RotatedTorsions>
[ 6907 6896 6895 6894 ] final   31.30 input  -60.11 | X-H torsion
[ 7974 7965 7964 7962 ] final   39.05 input  175.53 | X-H torsion
[ 8008 7997 7996 7995 ] final  171.46 input   59.86 | X-H torsion
[ 10167 10162 10161 10158 ] final -179.09 input  -65.29 | X-H torsion
[ 10718 10713 10712 10709 ] final  138.99 input   66.30 | X-H torsion
[ 10763 10752 10751 10750 ] final   12.97 input  -60.55 | X-H torsion
[ 11005 11000 10999 10996 ] final  125.83 input  -57.11 | X-H torsion

> <Gold.Protein.ActiveResidues>
 VAL166  LYS551  ARG553  GLY616  TRP617  ASP618  TYR619  PRO620  LYS621  CYS622 
 ASP623  PHE694  ASN695  SER759  ASP760  ASP761  ALA762  ILE779  LEU786  VAL792 
 PHE793  MET794  SER795  GLU796  ALA797  LYS798  CYS799  TRP800  GLU811  SER814 

> <Gold.Protein.RotatedAtoms>
  152.0584  134.9610  160.0574 H   0  0  0  0  0  0  0  0  0  0  0  0  # atno 6907 bound_to 6896
  152.0983  133.4231  159.4583 H   0  0  0  0  0  0  0  0  0  0  0  0  # atno 6908 bound_to 6896
  150.6838  134.2710  159.4631 H   0  0  0  0  0  0  0  0  0  0  0  0  # atno 6909 bound_to 6896
  146.1014  139.5698  142.9411 H   0  0  0  0  0  0  0  0  0  0  0  0  # atno 7974 bound_to 7965
  156.1269  140.1511  156.9123 H   0  0  0  0  0  0  0  0  0  0  0  0  # atno 8008 bound_to 7997
  154.4878  140.0860  156.7567 H   0  0  0  0  0  0  0  0  0  0  0  0  # atno 8009 bound_to 7997
  155.4327  140.3428  155.4284 H   0  0  0  0  0  0  0  0  0  0  0  0  # atno 8010 bound_to 7997
  139.5402  144.2385  152.0879 H   0  0  0  0  0  0  0  0  0  0  0  0  # atno 10167 bound_to 10162
  157.4193  131.1037  151.0371 H   0  0  0  0  0  0  0  0  0  0  0  0  # atno 10718 bound_to 10713
  153.1769  135.6821  153.8531 H   0  0  0  0  0  0  0  0  0  0  0  0  # atno 10763 bound_to 10752
  153.7876  135.3173  155.3375 H   0  0  0  0  0  0  0  0  0  0  0  0  # atno 10764 bound_to 10752
  154.8034  135.4763  154.0426 H   0  0  0  0  0  0  0  0  0  0  0  0  # atno 10765 bound_to 10752
  139.9426  134.9634  156.8617 H   0  0  0  0  0  0  0  0  0  0  0  0  # atno 11005 bound_to 11000
  145.5846  141.0378  143.2103 LP  0  0  0  0  0  0  0  0  0  0  0  0  # atno 17320 bound_to 7965
  144.7436  139.7381  143.7301 LP  0  0  0  0  0  0  0  0  0  0  0  0  # atno 17321 bound_to 7965
  140.1862  144.4796  150.6502 LP  0  0  0  0  0  0  0  0  0  0  0  0  # atno 17342 bound_to 10162
  140.6628  143.2258  151.5815 LP  0  0  0  0  0  0  0  0  0  0  0  0  # atno 17343 bound_to 10162
  157.1307  130.6101  149.5528 LP  0  0  0  0  0  0  0  0  0  0  0  0  # atno 17370 bound_to 10713
  155.9875  130.4915  150.7129 LP  0  0  0  0  0  0  0  0  0  0  0  0  # atno 17371 bound_to 10713
  140.5914  134.0258  155.7501 LP  0  0  0  0  0  0  0  0  0  0  0  0  # atno 17394 bound_to 11000
  141.1066  133.9684  157.2986 LP  0  0  0  0  0  0  0  0  0  0  0  0  # atno 17395 bound_to 11000

$$$$
