AV-unprocessed.smi:732|AV-procd|sdf|3528|dock4
  -GOLD-   22720 0523D 1   1.00000     0.00000
 Structure written by MMmdl.
 34 36  0  0  0  0  0  0  0  0  1 V2000
  153.2430  142.5770  161.7374 C   0  0  0  0  0  0  0  0  0  0  0  0
  152.3886  143.0358  160.6059 C   0  0  0  0  0  0  0  0  0  0  0  0
  151.9694  142.4334  159.4532 C   0  0  0  0  0  0  0  0  0  0  0  0
  151.1810  143.4400  158.8349 C   0  0  0  0  0  0  0  0  0  0  0  0
  150.5462  143.2035  157.5892 N   0  0  0  0  0  0  0  0  0  0  0  0
  150.4411  142.0368  156.9305 C   0  0  0  0  0  0  0  0  0  0  0  0
  150.8788  140.9563  157.3273 O   0  0  0  0  0  0  0  0  0  0  0  0
  149.7891  142.1949  155.7710 N   0  0  0  0  0  0  0  0  0  0  0  0
  149.4948  141.1583  154.8320 C   0  0  2  0  0  0  0  0  0  0  0  0
  148.1277  141.1249  154.1712 C   0  0  2  0  0  0  0  0  0  0  0  0
  146.9748  142.0479  154.5361 C   0  0  0  0  0  0  0  0  0  0  0  0
  145.7726  141.2441  155.0693 C   0  0  0  0  0  0  0  0  0  0  0  0
  146.1386  140.1848  156.1410 C   0  0  0  0  0  0  0  0  0  0  0  0
  147.6417  140.1132  156.4755 C   0  0  0  0  0  0  0  0  0  0  0  0
  148.4836  140.0891  155.2083 C   0  0  2  0  0  0  0  0  0  0  0  0
  151.1248  144.5563  159.5451 N   0  0  0  0  0  0  0  0  0  0  0  0
  151.8983  144.3027  160.6840 O   0  0  0  0  0  0  0  0  0  0  0  0
  153.7181  141.6237  161.5052 H   0  0  0  0  0  0  0  0  0  0  0  0
  152.6485  142.4474  162.6419 H   0  0  0  0  0  0  0  0  0  0  0  0
  154.0282  143.3031  161.9490 H   0  0  0  0  0  0  0  0  0  0  0  0
  152.1919  141.4336  159.1110 H   0  0  0  0  0  0  0  0  0  0  0  0
  150.1308  144.0114  157.1497 H   0  0  0  0  0  0  0  0  0  0  0  0
  149.4692  143.1218  155.5308 H   0  0  0  0  0  0  0  0  0  0  0  0
  150.3223  140.8160  154.2122 H   0  0  0  0  0  0  0  0  0  0  0  0
  148.0879  140.7571  153.1477 H   0  0  0  0  0  0  0  0  0  0  0  0
  147.2931  142.7629  155.2944 H   0  0  0  0  0  0  0  0  0  0  0  0
  146.6904  142.6338  153.6617 H   0  0  0  0  0  0  0  0  0  0  0  0
  145.0246  141.9307  155.4670 H   0  0  0  0  0  0  0  0  0  0  0  0
  145.2918  140.7381  154.2311 H   0  0  0  0  0  0  0  0  0  0  0  0
  145.5732  140.3718  157.0543 H   0  0  0  0  0  0  0  0  0  0  0  0
  145.8123  139.2059  155.7874 H   0  0  0  0  0  0  0  0  0  0  0  0
  147.9128  140.9725  157.0882 H   0  0  0  0  0  0  0  0  0  0  0  0
  147.8630  139.2285  157.0731 H   0  0  0  0  0  0  0  0  0  0  0  0
  148.6591  139.0887  154.8172 H   0  0  0  0  0  0  0  0  0  0  0  0
  1  2  1  0  0  0  0
  1 18  1  0  0  0  0
  1 19  1  0  0  0  0
  1 20  1  0  0  0  0
  2 17  1  0  0  0  0
  2  3  2  0  0  0  0
  3  4  1  0  0  0  0
  3 21  1  0  0  0  0
  4  5  1  0  0  0  0
  4 16  2  0  0  0  0
  5  6  1  0  0  0  0
  5 22  1  0  0  0  0
  6  7  2  0  0  0  0
  6  8  1  0  0  0  0
  8  9  1  0  0  0  0
  8 23  1  0  0  0  0
  9 15  1  0  0  0  0
  9 10  1  0  0  0  0
  9 24  1  0  0  0  0
 10 15  1  0  0  0  0
 10 11  1  0  0  0  0
 10 25  1  0  0  0  0
 11 12  1  0  0  0  0
 11 26  1  0  0  0  0
 11 27  1  0  0  0  0
 12 13  1  0  0  0  0
 12 28  1  0  0  0  0
 12 29  1  0  0  0  0
 13 14  1  0  0  0  0
 13 30  1  0  0  0  0
 13 31  1  0  0  0  0
 14 15  1  0  0  0  0
 14 32  1  0  0  0  0
 14 33  1  0  0  0  0
 15 34  1  0  0  0  0
 16 17  1  0  0  0  0
M  END
> <s_m_source_file>
AV-unprocessed.smi

> <i_m_source_file_index>
732

> <i_lp_mmshare_version>
43012

> <i_f3d_flags>
0

> <s_epik_input>
W0NIM11jMVtjSF1jKG5vMSlbTkhdQyg9TylbTkhdW0NASF0yW0NAQEhdKFtDQEBIXTIzKVtDSDJdW0NIMl1bQ0gyXVtDSDJdMw==

> <s_epik_cmdline>
J2VwaWtfcHl0aG9uJywgJy1waCcsICc3LjAnLCAnLXRuJywgJzgnLCAnLW1hJywgJzIwMCcsICctbWV0YWxfYmluZGluZycsICctaW1hZScsICc8aW5maWxlLm1hZT4nLCAnLW9tYWUnLCAnPG91dGZpbGUubWFlPic=

> <r_lp_tautomer_probability>
1

> <r_epik_Ionization_Penalty>
2.39506e-05

> <r_epik_Ionization_Penalty_Charging>
0

> <r_epik_Ionization_Penalty_Neutral>
2.39506e-05

> <r_epik_State_Penalty>
-0

> <r_epik_Charging_Adjusted_Penalty>
0

> <i_epik_Tot_Q>
0

> <i_epik_Tot_abs_Q>
0

> <r_epik_Metal_State_Penalty>
-0

> <b_epik_Metal_Only>
0

> <s_lp_Force_Field>
OPLS_2005

> <r_lp_Energy>
36.3442

> <b_lp_Chiralities_Consistent>
1

> <s_lp_Variant>
AV-unprocessed.smi:732-2

> <Gold.Version>
5.8.1

> <Gold.Id.Protein>
6NUR|6NUR_protein|mol2

> <Gold.PLP.Fitness>
37.1168

> <Gold.PLP.PLP>
-32.0805

> <Gold.PLP.part.hbond>
-2.0000

> <Gold.PLP.part.metal>
0.0000

> <Gold.PLP.part.buried>
-5.7183

> <Gold.PLP.part.nonpolar>
-25.5834

> <Gold.PLP.part.repulsive>
0.3863

> <Gold.PLP.ligand.clash>
0.0000

> <Gold.PLP.ligand.torsion>
0.1803

> <Gold.PLP.Chemscore.Hbond>
1.7846

> <Gold.PLP.Chemscore.CHOScore>
0.0000

> <Gold.PLP.Chemscore.Metal>
0.0000

> <Gold.Chemscore.Hbonds>
donor molecule, donor type, donor heavy atom, donor atom, acceptor molecule, acceptor atom, score
      L1  H     5    22       P1  8028  0.92
      L1  H     8    23       P1  8028  1.00

> <Gold.PLP.Chemscore.Internal.Correction>
0.0432

> <Gold.Rescore>
     Score         DG    S(hbond)    S(metal)    S(lipo)     H(rot)  DE(clash)    DE(int)     intcor
     15.31     -16.99       1.84        0.00      67.83       1.00       0.11       1.57       ----

> <Gold.Chemscore.Fitness>
15.3120

> <Gold.Chemscore.DG>
-16.9922

> <Gold.Chemscore.ZeroCoef>
-5.4800

> <Gold.Chemscore.Hbond>
1.8371

> <Gold.Chemscore.Metal>
0.0000

> <Gold.Chemscore.Lipo>
67.8328

> <Gold.Chemscore.Internal_Hbond>
0.0000

> <Gold.Chemscore.DEClash>
0.1092

> <Gold.Chemscore.DEInternal>
1.5710

> <Gold.Chemscore.Rot>
1.0000

> <Gold.Chemscore.Internal.Correction>
   9.000000E+99

> <Gold.Chemscore.Hbonds>
donor molecule, donor type, donor heavy atom, donor atom, acceptor molecule, acceptor atom, score
      L1  H     5    22       P1  8028  0.76
      L1  H     8    23       P1  8028  1.00

> <Gold.Chemscore.Hbond.Weighted>
-6.1358

> <Gold.Chemscore.Metal.Weighted>
-0.0000

> <Gold.Chemscore.Lipo.Weighted>
-7.9364

> <Gold.Chemscore.Internal_Hbond.Weighted>
0.0000

> <Gold.Chemscore.DEClash.Weighted>
0.1092

> <Gold.Chemscore.DEInternal.Weighted>
1.5710

> <Gold.Chemscore.Rot.Weighted>
2.5600

> <Gold.Chemscore.Internal.Correction.Weighted>
   9.000000E+99

> <Gold.Protein.RotatedTorsions>
[ 6907 6896 6895 6894 ] final  -20.65 input  -60.11 | X-H torsion
[ 7974 7965 7964 7962 ] final  -92.72 input  175.53 | X-H torsion
[ 8008 7997 7996 7995 ] final -117.48 input   59.86 | X-H torsion
[ 10167 10162 10161 10158 ] final  141.95 input  -65.29 | X-H torsion
[ 10718 10713 10712 10709 ] final   54.56 input   66.30 | X-H torsion
[ 10763 10752 10751 10750 ] final -124.55 input  -60.55 | X-H torsion
[ 11005 11000 10999 10996 ] final   78.34 input  -57.11 | X-H torsion

> <Gold.Protein.ActiveResidues>
 VAL166  LYS551  ARG553  GLY616  TRP617  ASP618  TYR619  PRO620  LYS621  CYS622 
 ASP623  PHE694  ASN695  SER759  ASP760  ASP761  ALA762  ILE779  LEU786  VAL792 
 PHE793  MET794  SER795  GLU796  ALA797  LYS798  CYS799  TRP800  GLU811  SER814 

> <Gold.Protein.RotatedAtoms>
  151.2450  135.0602  159.9039 H   0  0  0  0  0  0  0  0  0  0  0  0  # atno 6907 bound_to 6896
  152.5388  134.0394  159.8071 H   0  0  0  0  0  0  0  0  0  0  0  0  # atno 6908 bound_to 6896
  151.0593  133.5508  159.2667 H   0  0  0  0  0  0  0  0  0  0  0  0  # atno 6909 bound_to 6896
  145.3961  140.9533  143.2313 H   0  0  0  0  0  0  0  0  0  0  0  0  # atno 7974 bound_to 7965
  155.0844  140.0394  157.2649 H   0  0  0  0  0  0  0  0  0  0  0  0  # atno 8008 bound_to 7997
  154.6881  140.2647  155.6815 H   0  0  0  0  0  0  0  0  0  0  0  0  # atno 8009 bound_to 7997
  156.2719  140.2765  156.1450 H   0  0  0  0  0  0  0  0  0  0  0  0  # atno 8010 bound_to 7997
  139.5007  144.6138  151.6210 H   0  0  0  0  0  0  0  0  0  0  0  0  # atno 10167 bound_to 10162
  157.5267  130.8602  149.8632 H   0  0  0  0  0  0  0  0  0  0  0  0  # atno 10718 bound_to 10713
  154.8725  135.4060  154.3124 H   0  0  0  0  0  0  0  0  0  0  0  0  # atno 10763 bound_to 10752
  153.3965  135.7016  153.6462 H   0  0  0  0  0  0  0  0  0  0  0  0  # atno 10764 bound_to 10752
  153.5222  135.3685  155.2608 H   0  0  0  0  0  0  0  0  0  0  0  0  # atno 10765 bound_to 10752
  139.9217  134.7755  156.1637 H   0  0  0  0  0  0  0  0  0  0  0  0  # atno 11005 bound_to 11000
  144.8406  139.5478  143.6902 LP  0  0  0  0  0  0  0  0  0  0  0  0  # atno 17320 bound_to 7965
  146.2774  139.6789  142.9253 LP  0  0  0  0  0  0  0  0  0  0  0  0  # atno 17321 bound_to 7965
  140.5820  143.9929  150.6274 LP  0  0  0  0  0  0  0  0  0  0  0  0  # atno 17342 bound_to 10162
  140.3081  143.3216  152.0906 LP  0  0  0  0  0  0  0  0  0  0  0  0  # atno 17343 bound_to 10162
  156.0392  130.3743  150.1479 LP  0  0  0  0  0  0  0  0  0  0  0  0  # atno 17370 bound_to 10713
  156.9665  130.9821  151.3468 LP  0  0  0  0  0  0  0  0  0  0  0  0  # atno 17371 bound_to 10713
  141.0742  133.6783  156.2203 LP  0  0  0  0  0  0  0  0  0  0  0  0  # atno 17394 bound_to 11000
  140.6456  134.5121  157.5573 LP  0  0  0  0  0  0  0  0  0  0  0  0  # atno 17395 bound_to 11000

$$$$
