AV-unprocessed.smi:2451|AV-procd|sdf|9675|dock4
  -GOLD-   2272013313D 1   1.00000     0.00000
 Structure written by MMmdl.
 38 39  0  0  0  0  0  0  0  0  1 V2000
  151.8916  145.8876  160.0615 C   0  0  0  0  0  0  0  0  0  0  0  0
  151.6303  144.4228  159.6738 C   0  0  2  0  0  0  0  0  0  0  0  0
  152.8105  143.5074  160.0646 C   0  0  0  0  0  0  0  0  0  0  0  0
  152.5069  142.0289  159.7676 C   0  0  0  0  0  0  0  0  0  0  0  0
  152.0853  141.8166  158.3053 C   0  0  0  0  0  0  0  0  0  0  0  0
  150.9105  142.7398  157.9368 C   0  0  2  0  0  0  0  0  0  0  0  0
  150.4884  142.5069  156.5528 N   0  0  0  0  0  0  0  0  0  0  0  0
  149.8355  140.9676  156.1344 S   0  0  0  0  0  0  0  0  0  0  0  0
  150.5775  140.4786  154.9623 O   0  0  0  0  0  0  0  0  0  0  0  0
  149.7858  140.1577  157.3616 O   0  0  0  0  0  0  0  0  0  0  0  0
  148.1129  141.3852  155.6336 C   0  0  0  0  0  0  0  0  0  0  0  0
  147.7165  140.5512  154.4490 C   0  0  0  0  0  0  0  0  0  0  0  0
  147.9624  139.1693  154.2172 C   0  0  0  0  0  0  0  0  0  0  0  0
  147.3880  138.9431  152.9997 C   0  0  0  0  0  0  0  0  0  0  0  0
  146.8295  140.0824  152.5189 O   0  0  0  0  0  0  0  0  0  0  0  0
  147.0431  141.1032  153.4520 N   0  0  0  0  0  0  0  0  0  0  0  0
  151.2315  144.2350  158.1852 C   0  0  2  0  0  0  0  0  0  0  0  0
  152.2766  144.8040  157.1970 C   0  0  0  0  0  0  0  0  0  0  0  0
  152.7955  146.2775  159.5933 H   0  0  0  0  0  0  0  0  0  0  0  0
  152.0183  145.9852  161.1401 H   0  0  0  0  0  0  0  0  0  0  0  0
  151.0578  146.5270  159.7709 H   0  0  0  0  0  0  0  0  0  0  0  0
  150.7733  144.1052  160.2700 H   0  0  0  0  0  0  0  0  0  0  0  0
  153.7141  143.8104  159.5349 H   0  0  0  0  0  0  0  0  0  0  0  0
  153.0312  143.6214  161.1263 H   0  0  0  0  0  0  0  0  0  0  0  0
  153.3797  141.4168  159.9961 H   0  0  0  0  0  0  0  0  0  0  0  0
  151.7085  141.6850  160.4262 H   0  0  0  0  0  0  0  0  0  0  0  0
  152.9342  141.9999  157.6460 H   0  0  0  0  0  0  0  0  0  0  0  0
  151.8016  140.7741  158.1562 H   0  0  0  0  0  0  0  0  0  0  0  0
  150.0760  142.4709  158.5867 H   0  0  0  0  0  0  0  0  0  0  0  0
  151.2094  142.7969  155.8925 H   0  0  0  0  0  0  0  0  0  0  0  0
  147.4533  141.2029  156.4817 H   0  0  0  0  0  0  0  0  0  0  0  0
  148.0719  142.4499  155.4023 H   0  0  0  0  0  0  0  0  0  0  0  0
  148.4827  138.4595  154.8428 H   0  0  0  0  0  0  0  0  0  0  0  0
  147.2968  138.0685  152.3727 H   0  0  0  0  0  0  0  0  0  0  0  0
  150.3093  144.7948  158.0213 H   0  0  0  0  0  0  0  0  0  0  0  0
  153.2472  144.3197  157.2972 H   0  0  0  0  0  0  0  0  0  0  0  0
  152.4252  145.8731  157.3455 H   0  0  0  0  0  0  0  0  0  0  0  0
  151.9560  144.6813  156.1625 H   0  0  0  0  0  0  0  0  0  0  0  0
  1  2  1  0  0  0  0
  1 19  1  0  0  0  0
  1 20  1  0  0  0  0
  1 21  1  0  0  0  0
  2 17  1  0  0  0  0
  2  3  1  0  0  0  0
  2 22  1  0  0  0  0
  3  4  1  0  0  0  0
  3 23  1  0  0  0  0
  3 24  1  0  0  0  0
  4  5  1  0  0  0  0
  4 25  1  0  0  0  0
  4 26  1  0  0  0  0
  5  6  1  0  0  0  0
  5 27  1  0  0  0  0
  5 28  1  0  0  0  0
  6  7  1  0  0  0  0
  6 17  1  0  0  0  0
  6 29  1  0  0  0  0
  7  8  1  0  0  0  0
  7 30  1  0  0  0  0
  8  9  2  0  0  0  0
  8 10  2  0  0  0  0
  8 11  1  0  0  0  0
 11 12  1  0  0  0  0
 11 31  1  0  0  0  0
 11 32  1  0  0  0  0
 12 16  2  0  0  0  0
 12 13  1  0  0  0  0
 13 14  2  0  0  0  0
 13 33  1  0  0  0  0
 14 15  1  0  0  0  0
 14 34  1  0  0  0  0
 15 16  1  0  0  0  0
 17 18  1  0  0  0  0
 17 35  1  0  0  0  0
 18 36  1  0  0  0  0
 18 37  1  0  0  0  0
 18 38  1  0  0  0  0
M  END
> <s_m_source_file>
AV-unprocessed.smi

> <i_m_source_file_index>
2451

> <i_lp_mmshare_version>
43012

> <i_f3d_flags>
0

> <s_epik_input>
W0NIM11bQ0BASF0xW0NIMl1bQ0gyXVtDSDJdW0NASF0oW0NASF0xW0NIM10pW05IXVMoPU8pKD1PKVtDSDJdYzJbY0hdW2NIXW9uMg==

> <s_epik_cmdline>
J2VwaWtfcHl0aG9uJywgJy1waCcsICc3LjAnLCAnLXRuJywgJzgnLCAnLW1hJywgJzIwMCcsICctbWV0YWxfYmluZGluZycsICctaW1hZScsICc8aW5maWxlLm1hZT4nLCAnLW9tYWUnLCAnPG91dGZpbGUubWFlPic=

> <r_lp_tautomer_probability>
1

> <r_epik_Ionization_Penalty>
8.73668e-05

> <r_epik_Ionization_Penalty_Charging>
0

> <r_epik_Ionization_Penalty_Neutral>
8.73668e-05

> <r_epik_State_Penalty>
-0

> <r_epik_Charging_Adjusted_Penalty>
0

> <i_epik_Tot_Q>
0

> <i_epik_Tot_abs_Q>
0

> <r_epik_Metal_State_Penalty>
0.0716439

> <b_epik_Metal_Only>
0

> <s_lp_Force_Field>
OPLS_2005

> <r_lp_Energy>
8.89421

> <b_lp_Chiralities_Consistent>
1

> <s_lp_Variant>
AV-unprocessed.smi:2451-7

> <Gold.Version>
5.8.1

> <Gold.Id.Protein>
6NUR|6NUR_protein|mol2

> <Gold.PLP.Fitness>
39.9088

> <Gold.PLP.PLP>
-35.2238

> <Gold.PLP.part.hbond>
-2.0000

> <Gold.PLP.part.metal>
0.0000

> <Gold.PLP.part.buried>
-4.9855

> <Gold.PLP.part.nonpolar>
-28.8705

> <Gold.PLP.part.repulsive>
1.0334

> <Gold.PLP.ligand.clash>
0.0000

> <Gold.PLP.ligand.torsion>
0.7352

> <Gold.PLP.Chemscore.Hbond>
1.0000

> <Gold.PLP.Chemscore.CHOScore>
1.0000

> <Gold.PLP.Chemscore.Metal>
0.0000

> <Gold.Chemscore.Hbonds>
donor molecule, donor type, donor heavy atom, donor atom, acceptor molecule, acceptor atom, score
      P1  H  7989  7998       L1     9  1.00
      L1  C    14    34       P1  7948  1.00

> <Gold.PLP.Chemscore.Internal.Correction>
0.1553

> <Gold.Rescore>
     Score         DG    S(hbond)    S(metal)    S(lipo)     H(rot)  DE(clash)    DE(int)     intcor
     15.34     -17.44       0.96        0.00     111.05       1.66       1.54       0.56       ----

> <Gold.Chemscore.Fitness>
15.3438

> <Gold.Chemscore.DG>
-17.4435

> <Gold.Chemscore.ZeroCoef>
-5.4800

> <Gold.Chemscore.Hbond>
0.9632

> <Gold.Chemscore.Metal>
0.0000

> <Gold.Chemscore.Lipo>
111.0513

> <Gold.Chemscore.Internal_Hbond>
0.0000

> <Gold.Chemscore.DEClash>
1.5359

> <Gold.Chemscore.DEInternal>
0.5639

> <Gold.Chemscore.Rot>
1.6588

> <Gold.Chemscore.Internal.Correction>
   9.000000E+99

> <Gold.Chemscore.Hbonds>
donor molecule, donor type, donor heavy atom, donor atom, acceptor molecule, acceptor atom, score
      P1  H  7989  7998       L1     9  0.96

> <Gold.Chemscore.Hbond.Weighted>
-3.2171

> <Gold.Chemscore.Metal.Weighted>
-0.0000

> <Gold.Chemscore.Lipo.Weighted>
-12.9930

> <Gold.Chemscore.Internal_Hbond.Weighted>
0.0000

> <Gold.Chemscore.DEClash.Weighted>
1.5359

> <Gold.Chemscore.DEInternal.Weighted>
0.5639

> <Gold.Chemscore.Rot.Weighted>
4.2466

> <Gold.Chemscore.Internal.Correction.Weighted>
   9.000000E+99

> <Gold.Protein.RotatedTorsions>
[ 6907 6896 6895 6894 ] final -139.70 input  -60.11 | X-H torsion
[ 7974 7965 7964 7962 ] final  -21.01 input  175.53 | X-H torsion
[ 8008 7997 7996 7995 ] final   69.08 input   59.86 | X-H torsion
[ 10167 10162 10161 10158 ] final  -19.45 input  -65.29 | X-H torsion
[ 10718 10713 10712 10709 ] final  -44.36 input   66.30 | X-H torsion
[ 10763 10752 10751 10750 ] final  -48.13 input  -60.55 | X-H torsion
[ 11005 11000 10999 10996 ] final -111.51 input  -57.11 | X-H torsion

> <Gold.Protein.ActiveResidues>
 VAL166  LYS551  ARG553  GLY616  TRP617  ASP618  TYR619  PRO620  LYS621  CYS622 
 ASP623  PHE694  ASN695  SER759  ASP760  ASP761  ALA762  ILE779  LEU786  VAL792 
 PHE793  MET794  SER795  GLU796  ALA797  LYS798  CYS799  TRP800  GLU811  SER814 

> <Gold.Protein.RotatedAtoms>
  151.0511  133.5623  159.2642 H   0  0  0  0  0  0  0  0  0  0  0  0  # atno 6907 bound_to 6896
  151.2634  135.0660  159.9116 H   0  0  0  0  0  0  0  0  0  0  0  0  # atno 6908 bound_to 6896
  152.5382  134.0253  159.8054 H   0  0  0  0  0  0  0  0  0  0  0  0  # atno 6909 bound_to 6896
  146.1757  140.4281  142.8514 H   0  0  0  0  0  0  0  0  0  0  0  0  # atno 7974 bound_to 7965
  155.7181  140.3493  155.5004 H   0  0  0  0  0  0  0  0  0  0  0  0  # atno 8008 bound_to 7997
  155.9294  140.1081  157.1166 H   0  0  0  0  0  0  0  0  0  0  0  0  # atno 8009 bound_to 7997
  154.4083  140.1234  156.4770 H   0  0  0  0  0  0  0  0  0  0  0  0  # atno 8010 bound_to 7997
  140.7268  143.4817  151.0108 H   0  0  0  0  0  0  0  0  0  0  0  0  # atno 10167 bound_to 10162
  156.2393  130.4178  149.8779 H   0  0  0  0  0  0  0  0  0  0  0  0  # atno 10718 bound_to 10713
  154.0728  135.6602  153.4826 H   0  0  0  0  0  0  0  0  0  0  0  0  # atno 10763 bound_to 10752
  153.0384  135.5161  154.7550 H   0  0  0  0  0  0  0  0  0  0  0  0  # atno 10764 bound_to 10752
  154.6621  135.3016  154.9820 H   0  0  0  0  0  0  0  0  0  0  0  0  # atno 10765 bound_to 10752
  141.0730  133.9348  157.2447 H   0  0  0  0  0  0  0  0  0  0  0  0  # atno 11005 bound_to 11000
  144.8232  140.6585  143.6339 LP  0  0  0  0  0  0  0  0  0  0  0  0  # atno 17320 bound_to 7965
  145.4218  139.1562  143.4070 LP  0  0  0  0  0  0  0  0  0  0  0  0  # atno 17321 bound_to 7965
  139.8516  143.7431  152.3178 LP  0  0  0  0  0  0  0  0  0  0  0  0  # atno 17342 bound_to 10162
  139.7615  144.7505  151.0357 LP  0  0  0  0  0  0  0  0  0  0  0  0  # atno 17343 bound_to 10162
  156.6366  130.8688  151.3506 LP  0  0  0  0  0  0  0  0  0  0  0  0  # atno 17370 bound_to 10713
  157.7168  130.9508  150.1286 LP  0  0  0  0  0  0  0  0  0  0  0  0  # atno 17371 bound_to 10713
  139.9542  135.0169  156.9082 LP  0  0  0  0  0  0  0  0  0  0  0  0  # atno 17394 bound_to 11000
  140.5634  134.0513  155.7406 LP  0  0  0  0  0  0  0  0  0  0  0  0  # atno 17395 bound_to 11000

$$$$
