AV-unprocessed.smi:2703|AV-procd|sdf|10439|dock7
  -GOLD-   2272014483D 1   1.00000     0.00000
 Structure written by MMmdl.
 42 44  0  0  0  0  0  0  0  0  3 V2000
  151.9844  145.3619  159.3621 C   0  0  0  0  0  0  0  0  0  0  0  0
  151.9059  143.8674  159.1048 C   0  0  0  0  0  0  0  0  0  0  0  0
  151.5118  143.4101  157.8272 C   0  0  0  0  0  0  0  0  0  0  0  0
  151.4236  142.0288  157.5475 C   0  0  0  0  0  0  0  0  0  0  0  0
  151.0609  141.3700  156.3854 N   0  0  0  0  0  0  0  0  0  0  0  0
  151.1713  140.0974  156.7542 C   0  0  0  0  0  0  0  0  0  0  0  0
  151.5659  139.8525  158.0185 N   0  0  0  0  0  0  0  0  0  0  0  0
  151.7495  138.5506  158.6357 C   0  0  0  0  0  0  0  0  0  0  0  0
  150.6746  137.5356  158.2040 C   0  0  1  0  0  0  0  0  0  0  0  0
  151.2980  136.3672  157.7065 O   0  0  0  0  0  0  0  0  0  0  0  0
  149.7421  137.1572  159.3660 C   0  0  0  0  0  0  0  0  0  0  0  0
  148.3250  136.1651  158.8095 S   0  0  0  0  0  0  0  0  0  0  0  0
  147.6800  135.2880  160.2139 C   0  0  0  0  0  0  0  0  0  0  0  0
  147.6045  133.8778  160.2482 C   0  0  0  0  0  0  0  0  0  0  0  0
  147.0879  133.2356  161.3841 C   0  0  0  0  0  0  0  0  0  0  0  0
  146.6551  134.0168  162.4656 C   0  0  0  0  0  0  0  0  0  0  0  0
  146.7474  135.4195  162.3873 C   0  0  0  0  0  0  0  0  0  0  0  0
  147.2513  136.0452  161.2794 N   0  3  0  0  0  0  0  0  0  0  0  0
  147.3159  137.3310  161.2573 O   0  5  0  0  0  0  0  0  0  0  0  0
  151.7449  141.1089  158.5887 C   0  0  0  0  0  0  0  0  0  0  0  0
  152.1406  141.5523  159.8633 C   0  0  0  0  0  0  0  0  0  0  0  0
  152.2215  142.9360  160.1265 C   0  0  0  0  0  0  0  0  0  0  0  0
  152.6452  143.4044  161.5076 C   0  0  0  0  0  0  0  0  0  0  0  0
  151.6930  145.9340  158.4809 H   0  0  0  0  0  0  0  0  0  0  0  0
  153.0020  145.6502  159.6262 H   0  0  0  0  0  0  0  0  0  0  0  0
  151.3200  145.6446  160.1789 H   0  0  0  0  0  0  0  0  0  0  0  0
  151.2712  144.1188  157.0485 H   0  0  0  0  0  0  0  0  0  0  0  0
  150.9540  139.2942  156.0652 H   0  0  0  0  0  0  0  0  0  0  0  0
  152.7456  138.1799  158.3909 H   0  0  0  0  0  0  0  0  0  0  0  0
  151.7255  138.6850  159.7179 H   0  0  0  0  0  0  0  0  0  0  0  0
  150.0797  137.9701  157.3993 H   0  0  0  0  0  0  0  0  0  0  0  0
  150.6469  135.8498  157.2568 H   0  0  0  0  0  0  0  0  0  0  0  0
  150.2916  136.6069  160.1306 H   0  0  0  0  0  0  0  0  0  0  0  0
  149.3549  138.0627  159.8341 H   0  0  0  0  0  0  0  0  0  0  0  0
  147.9354  133.2787  159.4144 H   0  0  0  0  0  0  0  0  0  0  0  0
  147.0244  132.1580  161.4251 H   0  0  0  0  0  0  0  0  0  0  0  0
  146.2532  133.5465  163.3509 H   0  0  0  0  0  0  0  0  0  0  0  0
  146.4337  136.0850  163.1787 H   0  0  0  0  0  0  0  0  0  0  0  0
  152.3805  140.8332  160.6323 H   0  0  0  0  0  0  0  0  0  0  0  0
  152.8821  142.5623  162.1585 H   0  0  0  0  0  0  0  0  0  0  0  0
  151.8446  143.9762  161.9774 H   0  0  0  0  0  0  0  0  0  0  0  0
  153.5312  144.0361  161.4437 H   0  0  0  0  0  0  0  0  0  0  0  0
  1  2  1  0  0  0  0
  1 24  1  0  0  0  0
  1 25  1  0  0  0  0
  1 26  1  0  0  0  0
  2 22  1  0  0  0  0
  2  3  2  0  0  0  0
  3  4  1  0  0  0  0
  3 27  1  0  0  0  0
  4 20  2  0  0  0  0
  4  5  1  0  0  0  0
  5  6  2  0  0  0  0
  6  7  1  0  0  0  0
  6 28  1  0  0  0  0
  7  8  1  0  0  0  0
  7 20  1  0  0  0  0
  8  9  1  0  0  0  0
  8 29  1  0  0  0  0
  8 30  1  0  0  0  0
  9 10  1  0  0  0  0
  9 11  1  0  0  0  0
  9 31  1  0  0  0  0
 10 32  1  0  0  0  0
 11 12  1  0  0  0  0
 11 33  1  0  0  0  0
 11 34  1  0  0  0  0
 12 13  1  0  0  0  0
 13 18  1  0  0  0  0
 13 14  2  0  0  0  0
 14 15  1  0  0  0  0
 14 35  1  0  0  0  0
 15 16  2  0  0  0  0
 15 36  1  0  0  0  0
 16 17  1  0  0  0  0
 16 37  1  0  0  0  0
 17 18  2  0  0  0  0
 17 38  1  0  0  0  0
 18 19  1  0  0  0  0
 20 21  1  0  0  0  0
 21 22  2  0  0  0  0
 21 39  1  0  0  0  0
 22 23  1  0  0  0  0
 23 40  1  0  0  0  0
 23 41  1  0  0  0  0
 23 42  1  0  0  0  0
M  CHG  1  18   1
M  CHG  1  19  -1
M  END
> <s_m_source_file>
AV-unprocessed.smi

> <i_m_source_file_index>
2703

> <i_lp_mmshare_version>
43012

> <i_f3d_flags>
0

> <s_epik_input>
W0NIM11jKFtjSF0xKWMoW0NIM10pW2NIXWMoYzEyKW4oW2NIXW4yKVtDSDJdW0NASF0oW09IXSlbQ0gyXVNjM1tjSF1bY0hdW2NIXVtjSF1bbitdM1tPLV0=

> <s_epik_cmdline>
J2VwaWtfcHl0aG9uJywgJy1waCcsICc3LjAnLCAnLXRuJywgJzgnLCAnLW1hJywgJzIwMCcsICctbWV0YWxfYmluZGluZycsICctaW1hZScsICc8aW5maWxlLm1hZT4nLCAnLW9tYWUnLCAnPG91dGZpbGUubWFlPic=

> <r_epik_Ionization_Penalty>
0.106001

> <r_epik_Ionization_Penalty_Charging>
1.39204e-07

> <r_epik_Ionization_Penalty_Neutral>
0.106001

> <r_epik_State_Penalty>
0.0958598

> <r_epik_Charging_Adjusted_Penalty>
0.0958599

> <i_epik_Tot_Q>
0

> <i_epik_Tot_abs_Q>
2

> <r_epik_Metal_State_Penalty>
0.000104041

> <b_epik_Metal_Only>
0

> <s_lp_Force_Field>
OPLS_2005

> <r_lp_Energy>
17.7295

> <b_lp_Chiralities_Consistent>
1

> <s_lp_Variant>
AV-unprocessed.smi:2703-2

> <Gold.Version>
5.8.1

> <Gold.Id.Protein>
6NUR|6NUR_protein|mol2

> <Gold.PLP.Fitness>
56.8204

> <Gold.PLP.PLP>
-53.5871

> <Gold.PLP.part.hbond>
-2.6735

> <Gold.PLP.part.metal>
0.0000

> <Gold.PLP.part.buried>
-6.9225

> <Gold.PLP.part.nonpolar>
-44.6406

> <Gold.PLP.part.repulsive>
0.0469

> <Gold.PLP.ligand.clash>
0.0000

> <Gold.PLP.ligand.torsion>
1.1597

> <Gold.PLP.Chemscore.Hbond>
1.8400

> <Gold.PLP.Chemscore.CHOScore>
0.0000

> <Gold.PLP.Chemscore.Metal>
0.0000

> <Gold.Chemscore.Hbonds>
donor molecule, donor type, donor heavy atom, donor atom, acceptor molecule, acceptor atom, score
      P1  H  6931  6943       L1    19  0.77
      P1  H  6934  6947       L1    19  1.00

> <Gold.PLP.Chemscore.Internal.Correction>
0.0328

> <Gold.Rescore>
     Score         DG    S(hbond)    S(metal)    S(lipo)     H(rot)  DE(clash)    DE(int)     intcor
     20.23     -21.48       1.78        0.00     135.27       2.26       0.05       1.20       ----

> <Gold.Chemscore.Fitness>
20.2350

> <Gold.Chemscore.DG>
-21.4847

> <Gold.Chemscore.ZeroCoef>
-5.4800

> <Gold.Chemscore.Hbond>
1.7822

> <Gold.Chemscore.Metal>
0.0000

> <Gold.Chemscore.Lipo>
135.2732

> <Gold.Chemscore.Internal_Hbond>
0.0000

> <Gold.Chemscore.DEClash>
0.0489

> <Gold.Chemscore.DEInternal>
1.2008

> <Gold.Chemscore.Rot>
2.2558

> <Gold.Chemscore.Internal.Correction>
   9.000000E+99

> <Gold.Chemscore.Hbonds>
donor molecule, donor type, donor heavy atom, donor atom, acceptor molecule, acceptor atom, score
      P1  H  6931  6943       L1    19  0.71
      P1  H  6934  6947       L1    19  0.94

> <Gold.Chemscore.Hbond.Weighted>
-5.9525

> <Gold.Chemscore.Metal.Weighted>
-0.0000

> <Gold.Chemscore.Lipo.Weighted>
-15.8270

> <Gold.Chemscore.Internal_Hbond.Weighted>
0.0000

> <Gold.Chemscore.DEClash.Weighted>
0.0489

> <Gold.Chemscore.DEInternal.Weighted>
1.2008

> <Gold.Chemscore.Rot.Weighted>
5.7748

> <Gold.Chemscore.Internal.Correction.Weighted>
   9.000000E+99

> <Gold.Protein.RotatedTorsions>
[ 6907 6896 6895 6894 ] final   70.68 input  -60.11 | X-H torsion
[ 7974 7965 7964 7962 ] final  168.40 input  175.53 | X-H torsion
[ 8008 7997 7996 7995 ] final  -78.17 input   59.86 | X-H torsion
[ 10167 10162 10161 10158 ] final  -84.24 input  -65.29 | X-H torsion
[ 10718 10713 10712 10709 ] final -105.72 input   66.30 | X-H torsion
[ 10763 10752 10751 10750 ] final  102.36 input  -60.55 | X-H torsion
[ 11005 11000 10999 10996 ] final -160.70 input  -57.11 | X-H torsion

> <Gold.Protein.ActiveResidues>
 VAL166  LYS551  ARG553  GLY616  TRP617  ASP618  TYR619  PRO620  LYS621  CYS622 
 ASP623  PHE694  ASN695  SER759  ASP760  ASP761  ALA762  ILE779  LEU786  VAL792 
 PHE793  MET794  SER795  GLU796  ALA797  LYS798  CYS799  TRP800  GLU811  SER814 

> <Gold.Protein.RotatedAtoms>
  152.4764  134.4832  159.9671 H   0  0  0  0  0  0  0  0  0  0  0  0  # atno 6907 bound_to 6896
  151.4847  133.3532  159.2851 H   0  0  0  0  0  0  0  0  0  0  0  0  # atno 6908 bound_to 6896
  150.8806  134.8223  159.7283 H   0  0  0  0  0  0  0  0  0  0  0  0  # atno 6909 bound_to 6896
  144.7390  139.8902  143.6402 H   0  0  0  0  0  0  0  0  0  0  0  0  # atno 7974 bound_to 7965
  154.5664  140.0698  156.8898 H   0  0  0  0  0  0  0  0  0  0  0  0  # atno 8008 bound_to 7997
  155.2715  140.3365  155.4247 H   0  0  0  0  0  0  0  0  0  0  0  0  # atno 8009 bound_to 7997
  156.2084  140.1749  156.7735 H   0  0  0  0  0  0  0  0  0  0  0  0  # atno 8010 bound_to 7997
  140.4151  143.2607  151.8965 H   0  0  0  0  0  0  0  0  0  0  0  0  # atno 10167 bound_to 10162
  156.0358  130.5578  150.7580 H   0  0  0  0  0  0  0  0  0  0  0  0  # atno 10718 bound_to 10713
  153.3386  135.4013  155.1553 H   0  0  0  0  0  0  0  0  0  0  0  0  # atno 10763 bound_to 10752
  154.8639  135.3628  154.5376 H   0  0  0  0  0  0  0  0  0  0  0  0  # atno 10764 bound_to 10752
  153.5819  135.7076  153.5519 H   0  0  0  0  0  0  0  0  0  0  0  0  # atno 10765 bound_to 10752
  140.6286  134.4675  157.5228 H   0  0  0  0  0  0  0  0  0  0  0  0  # atno 11005 bound_to 11000
  146.1147  139.4157  143.0265 LP  0  0  0  0  0  0  0  0  0  0  0  0  # atno 17320 bound_to 7965
  145.7392  141.0014  143.1310 LP  0  0  0  0  0  0  0  0  0  0  0  0  # atno 17321 bound_to 7965
  139.4782  144.5496  151.8406 LP  0  0  0  0  0  0  0  0  0  0  0  0  # atno 17342 bound_to 10162
  140.4595  144.1742  150.5905 LP  0  0  0  0  0  0  0  0  0  0  0  0  # atno 17343 bound_to 10162
  157.5107  131.0925  151.0202 LP  0  0  0  0  0  0  0  0  0  0  0  0  # atno 17370 bound_to 10713
  157.0558  130.5805  149.5377 LP  0  0  0  0  0  0  0  0  0  0  0  0  # atno 17371 bound_to 10713
  139.9125  134.8315  156.1480 LP  0  0  0  0  0  0  0  0  0  0  0  0  # atno 17394 bound_to 11000
  141.0691  133.6805  156.2104 LP  0  0  0  0  0  0  0  0  0  0  0  0  # atno 17395 bound_to 11000

$$$$
