AV-unprocessed.smi:1605|AV-procd|sdf|6457|dock5
  -GOLD-   22720 7113D 1   1.00000     0.00000
 Structure written by MMmdl.
 52 54  0  0  0  0  0  0  0  0  3 V2000
  148.2001  132.5555  156.5126 C   0  0  0  0  0  0  0  0  0  0  0  0
  147.8924  133.9264  156.3119 O   0  0  0  0  0  0  0  0  0  0  0  0
  147.7637  134.3074  154.9467 C   0  0  2  0  0  0  0  0  0  0  0  0
  149.0743  133.9479  154.2300 C   0  0  0  0  0  0  0  0  0  0  0  0
  150.2468  134.8168  154.7189 C   0  0  0  0  0  0  0  0  0  0  0  0
  149.9486  136.2639  154.5642 N   0  3  2  0  0  0  0  0  0  0  0  0
  151.1136  137.1199  154.9076 C   0  0  0  0  0  0  0  0  0  0  0  0
  150.7344  138.6079  155.0440 C   0  0  2  0  0  0  0  0  0  0  0  0
  150.8453  139.2192  153.7734 O   0  0  0  0  0  0  0  0  0  0  0  0
  151.6447  139.3403  156.0492 C   0  0  0  0  0  0  0  0  0  0  0  0
  151.1760  140.7001  156.3568 N   0  0  0  0  0  0  0  0  0  0  0  0
  150.3071  141.4927  155.6718 C   0  0  0  0  0  0  0  0  0  0  0  0
  150.1914  142.6640  156.3562 N   0  3  0  0  0  0  0  0  0  0  0  0
  150.9953  142.6191  157.4971 C   0  0  0  0  0  0  0  0  0  0  0  0
  151.2106  143.5618  158.4954 C   0  0  0  0  0  0  0  0  0  0  0  0
  152.0979  143.2078  159.5366 C   0  0  0  0  0  0  0  0  0  0  0  0
  152.3563  144.2161  160.6433 C   0  0  0  0  0  0  0  0  0  0  0  0
  152.7353  141.9402  159.5526 C   0  0  0  0  0  0  0  0  0  0  0  0
  153.6816  141.5668  160.6811 C   0  0  0  0  0  0  0  0  0  0  0  0
  152.5066  140.9969  158.5253 C   0  0  0  0  0  0  0  0  0  0  0  0
  151.6285  141.3606  157.5065 C   0  0  0  0  0  0  0  0  0  0  0  0
  148.7057  136.6464  155.2863 C   0  0  0  0  0  0  0  0  0  0  0  0
  147.5033  135.8188  154.8012 C   0  0  0  0  0  0  0  0  0  0  0  0
  148.3193  132.3646  157.5790 H   0  0  0  0  0  0  0  0  0  0  0  0
  149.1344  132.2840  156.0202 H   0  0  0  0  0  0  0  0  0  0  0  0
  147.4082  131.9024  156.1472 H   0  0  0  0  0  0  0  0  0  0  0  0
  146.9522  133.7424  154.4850 H   0  0  0  0  0  0  0  0  0  0  0  0
  149.3038  132.8924  154.3793 H   0  0  0  0  0  0  0  0  0  0  0  0
  148.9486  134.0841  153.1551 H   0  0  0  0  0  0  0  0  0  0  0  0
  150.4699  134.5999  155.7648 H   0  0  0  0  0  0  0  0  0  0  0  0
  151.1390  134.5618  154.1458 H   0  0  0  0  0  0  0  0  0  0  0  0
  151.5690  136.7525  155.8288 H   0  0  0  0  0  0  0  0  0  0  0  0
  151.8809  137.0306  154.1365 H   0  0  0  0  0  0  0  0  0  0  0  0
  149.7025  138.7095  155.3793 H   0  0  0  0  0  0  0  0  0  0  0  0
  150.0055  139.1701  153.3419 H   0  0  0  0  0  0  0  0  0  0  0  0
  151.6699  138.7920  156.9918 H   0  0  0  0  0  0  0  0  0  0  0  0
  152.6753  139.3825  155.6962 H   0  0  0  0  0  0  0  0  0  0  0  0
  149.8001  141.2394  154.7518 H   0  0  0  0  0  0  0  0  0  0  0  0
  150.7208  144.5246  158.4775 H   0  0  0  0  0  0  0  0  0  0  0  0
  152.0257  143.8225  161.6046 H   0  0  0  0  0  0  0  0  0  0  0  0
  151.8238  145.1505  160.4642 H   0  0  0  0  0  0  0  0  0  0  0  0
  153.4193  144.4484  160.7115 H   0  0  0  0  0  0  0  0  0  0  0  0
  154.0672  140.5540  160.5603 H   0  0  0  0  0  0  0  0  0  0  0  0
  153.1688  141.6137  161.6422 H   0  0  0  0  0  0  0  0  0  0  0  0
  154.5336  142.2465  160.7082 H   0  0  0  0  0  0  0  0  0  0  0  0
  152.9986  140.0357  158.5384 H   0  0  0  0  0  0  0  0  0  0  0  0
  148.8479  136.5056  156.3590 H   0  0  0  0  0  0  0  0  0  0  0  0
  148.4891  137.7032  155.1357 H   0  0  0  0  0  0  0  0  0  0  0  0
  147.3108  136.0501  153.7528 H   0  0  0  0  0  0  0  0  0  0  0  0
  146.6036  136.1146  155.3396 H   0  0  0  0  0  0  0  0  0  0  0  0
  149.7763  136.4088  153.5791 H   0  0  0  0  0  0  0  0  0  0  0  0
  149.6041  143.4354  156.0653 H   0  0  0  0  0  0  0  0  0  0  0  0
  1  2  1  0  0  0  0
  1 24  1  0  0  0  0
  1 25  1  0  0  0  0
  1 26  1  0  0  0  0
  2  3  1  0  0  0  0
  3 23  1  0  0  0  0
  3  4  1  0  0  0  0
  3 27  1  0  0  0  0
  4  5  1  0  0  0  0
  4 28  1  0  0  0  0
  4 29  1  0  0  0  0
  5  6  1  0  0  0  0
  5 30  1  0  0  0  0
  5 31  1  0  0  0  0
  6  7  1  0  0  0  0
  6 22  1  0  0  0  0
  6 51  1  0  0  0  0
  7  8  1  0  0  0  0
  7 32  1  0  0  0  0
  7 33  1  0  0  0  0
  8  9  1  0  0  0  0
  8 10  1  0  0  0  0
  8 34  1  0  0  0  0
  9 35  1  0  0  0  0
 10 11  1  0  0  0  0
 10 36  1  0  0  0  0
 10 37  1  0  0  0  0
 11 21  1  0  0  0  0
 11 12  1  0  0  0  0
 12 13  2  0  0  0  0
 12 38  1  0  0  0  0
 13 14  1  0  0  0  0
 13 52  1  0  0  0  0
 14 21  2  0  0  0  0
 14 15  1  0  0  0  0
 15 16  2  0  0  0  0
 15 39  1  0  0  0  0
 16 17  1  0  0  0  0
 16 18  1  0  0  0  0
 17 40  1  0  0  0  0
 17 41  1  0  0  0  0
 17 42  1  0  0  0  0
 18 19  1  0  0  0  0
 18 20  2  0  0  0  0
 19 43  1  0  0  0  0
 19 44  1  0  0  0  0
 19 45  1  0  0  0  0
 20 21  1  0  0  0  0
 20 46  1  0  0  0  0
 22 23  1  0  0  0  0
 22 47  1  0  0  0  0
 22 48  1  0  0  0  0
 23 49  1  0  0  0  0
 23 50  1  0  0  0  0
M  CHG  1   6   1
M  CHG  1  13   1
M  END
> <s_m_source_file>
AV-unprocessed.smi

> <i_m_source_file_index>
1605

> <i_lp_mmshare_version>
43012

> <i_f3d_flags>
0

> <s_epik_input>
W0NIM11PW0NIXTFbQ0gyXVtDSDJdTihbQ0gyXVtDSDJdMSlbQ0gyXVtDQEhdKFtPSF0pW0NIMl1uKFtjSF1uMiljKGMyMylbY0hdYyhbQ0gzXSljKFtjSF0zKVtDSDNd

> <s_epik_cmdline>
J2VwaWtfcHl0aG9uJywgJy1waCcsICc3LjAnLCAnLXRuJywgJzgnLCAnLW1hJywgJzIwMCcsICctbWV0YWxfYmluZGluZycsICctaW1hZScsICc8aW5maWxlLm1hZT4nLCAnLW9tYWUnLCAnPG91dGZpbGUubWFlPic=

> <r_epik_Ionization_Penalty>
1.19848

> <r_epik_Ionization_Penalty_Charging>
1.19848

> <r_epik_Ionization_Penalty_Neutral>
1.67134e-06

> <r_epik_State_Penalty>
1.2782

> <r_epik_Charging_Adjusted_Penalty>
2.47668

> <i_epik_Tot_Q>
2

> <i_epik_Tot_abs_Q>
2

> <r_epik_Metal_State_Penalty>
5.29544

> <b_epik_Metal_Only>
0

> <s_lp_Force_Field>
OPLS_2005

> <r_lp_Energy>
31.9375

> <b_lp_Chiralities_Consistent>
1

> <s_lp_Variant>
AV-unprocessed.smi:1605-7

> <Gold.Version>
5.8.1

> <Gold.Id.Protein>
6NUR|6NUR_protein|mol2

> <Gold.PLP.Fitness>
55.9650

> <Gold.PLP.PLP>
-42.2498

> <Gold.PLP.part.hbond>
-4.1156

> <Gold.PLP.part.metal>
0.0000

> <Gold.PLP.part.buried>
-1.9779

> <Gold.PLP.part.nonpolar>
-36.1955

> <Gold.PLP.part.repulsive>
0.1388

> <Gold.PLP.ligand.clash>
0.0000

> <Gold.PLP.ligand.torsion>
0.7840

> <Gold.PLP.Chemscore.Hbond>
5.0679

> <Gold.PLP.Chemscore.CHOScore>
0.0000

> <Gold.PLP.Chemscore.Metal>
0.0000

> <Gold.Chemscore.Hbonds>
donor molecule, donor type, donor heavy atom, donor atom, acceptor molecule, acceptor atom, score
      L1  H     6    51       P1  7948  2.00
      L1  H     9    35       P1  7957  0.07
      L1  H    13    52       P1  8028  1.98
      P1  H  7989  7998       L1     9  1.00

> <Gold.PLP.Chemscore.Internal.Correction>
0.0797

> <Gold.Rescore>
     Score         DG    S(hbond)    S(metal)    S(lipo)     H(rot)  DE(clash)    DE(int)     intcor
     20.87     -21.69       2.65        0.00     112.83       2.28       0.08       0.74       ----

> <Gold.Chemscore.Fitness>
20.8735

> <Gold.Chemscore.DG>
-21.6932

> <Gold.Chemscore.ZeroCoef>
-5.4800

> <Gold.Chemscore.Hbond>
2.6525

> <Gold.Chemscore.Metal>
0.0000

> <Gold.Chemscore.Lipo>
112.8251

> <Gold.Chemscore.Internal_Hbond>
0.0000

> <Gold.Chemscore.DEClash>
0.0803

> <Gold.Chemscore.DEInternal>
0.7394

> <Gold.Chemscore.Rot>
2.2839

> <Gold.Chemscore.Internal.Correction>
   9.000000E+99

> <Gold.Chemscore.Hbonds>
donor molecule, donor type, donor heavy atom, donor atom, acceptor molecule, acceptor atom, score
      L1  H     6    51       P1  7948  0.30
      L1  H     9    35       P1  7957  0.07
      L1  H    13    52       P1  8028  0.92
      P1  H  7989  7998       L1     9  0.70

> <Gold.Chemscore.Hbond.Weighted>
-8.8595

> <Gold.Chemscore.Metal.Weighted>
-0.0000

> <Gold.Chemscore.Lipo.Weighted>
-13.2005

> <Gold.Chemscore.Internal_Hbond.Weighted>
0.0000

> <Gold.Chemscore.DEClash.Weighted>
0.0803

> <Gold.Chemscore.DEInternal.Weighted>
0.7394

> <Gold.Chemscore.Rot.Weighted>
5.8469

> <Gold.Chemscore.Internal.Correction.Weighted>
   9.000000E+99

> <Gold.Protein.RotatedTorsions>
[ 6907 6896 6895 6894 ] final  178.20 input  -60.11 | X-H torsion
[ 7974 7965 7964 7962 ] final  -25.89 input  175.53 | X-H torsion
[ 8008 7997 7996 7995 ] final   54.14 input   59.86 | X-H torsion
[ 10167 10162 10161 10158 ] final   96.96 input  -65.29 | X-H torsion
[ 10718 10713 10712 10709 ] final   14.90 input   66.30 | X-H torsion
[ 10763 10752 10751 10750 ] final  -66.10 input  -60.55 | X-H torsion
[ 11005 11000 10999 10996 ] final   77.96 input  -57.11 | X-H torsion

> <Gold.Protein.ActiveResidues>
 VAL166  LYS551  ARG553  GLY616  TRP617  ASP618  TYR619  PRO620  LYS621  CYS622 
 ASP623  PHE694  ASN695  SER759  ASP760  ASP761  ALA762  ILE779  LEU786  VAL792 
 PHE793  MET794  SER795  GLU796  ALA797  LYS798  CYS799  TRP800  GLU811  SER814 

> <Gold.Protein.RotatedAtoms>
  151.6917  133.3311  159.3244 H   0  0  0  0  0  0  0  0  0  0  0  0  # atno 6907 bound_to 6896
  150.7776  134.6692  159.6392 H   0  0  0  0  0  0  0  0  0  0  0  0  # atno 6908 bound_to 6896
  152.3823  134.6575  160.0190 H   0  0  0  0  0  0  0  0  0  0  0  0  # atno 6909 bound_to 6896
  146.1462  140.4946  142.8631 H   0  0  0  0  0  0  0  0  0  0  0  0  # atno 7974 bound_to 7965
  155.4798  140.3468  155.4338 H   0  0  0  0  0  0  0  0  0  0  0  0  # atno 8008 bound_to 7997
  156.1047  140.1444  156.9449 H   0  0  0  0  0  0  0  0  0  0  0  0  # atno 8009 bound_to 7997
  154.4716  140.0899  156.7137 H   0  0  0  0  0  0  0  0  0  0  0  0  # atno 8010 bound_to 7997
  139.7845  144.6876  150.9976 H   0  0  0  0  0  0  0  0  0  0  0  0  # atno 10167 bound_to 10162
  157.0458  130.6249  149.5759 H   0  0  0  0  0  0  0  0  0  0  0  0  # atno 10718 bound_to 10713
  154.3548  135.6128  153.5661 H   0  0  0  0  0  0  0  0  0  0  0  0  # atno 10763 bound_to 10752
  152.9796  135.5801  154.4701 H   0  0  0  0  0  0  0  0  0  0  0  0  # atno 10764 bound_to 10752
  154.4429  135.2850  155.1813 H   0  0  0  0  0  0  0  0  0  0  0  0  # atno 10765 bound_to 10752
  139.9232  134.7725  156.1588 H   0  0  0  0  0  0  0  0  0  0  0  0  # atno 11005 bound_to 11000
  144.7849  140.5915  143.6581 LP  0  0  0  0  0  0  0  0  0  0  0  0  # atno 17320 bound_to 7965
  145.4933  139.1487  143.3698 LP  0  0  0  0  0  0  0  0  0  0  0  0  # atno 17321 bound_to 7965
  140.7819  143.4447  151.0500 LP  0  0  0  0  0  0  0  0  0  0  0  0  # atno 17342 bound_to 10162
  139.8126  143.7930  152.3172 LP  0  0  0  0  0  0  0  0  0  0  0  0  # atno 17343 bound_to 10162
  156.0023  130.5105  150.7709 LP  0  0  0  0  0  0  0  0  0  0  0  0  # atno 17370 bound_to 10713
  157.5069  131.0923  151.0246 LP  0  0  0  0  0  0  0  0  0  0  0  0  # atno 17371 bound_to 10713
  141.0770  133.6771  156.2258 LP  0  0  0  0  0  0  0  0  0  0  0  0  # atno 17394 bound_to 11000
  140.6411  134.5165  157.5569 LP  0  0  0  0  0  0  0  0  0  0  0  0  # atno 17395 bound_to 11000

$$$$
