AV-unprocessed.smi:2233|AV-procd|sdf|9040|dock4
  -GOLD-   2272012243D 1   1.00000     0.00000
 Structure written by MMmdl.
 43 44  0  0  0  0  0  0  0  0  2 V2000
  147.7627  137.0941  163.4770 C   0  0  0  0  0  0  0  0  0  0  0  0
  147.5311  136.3015  162.5773 C   0  0  0  0  0  0  0  0  0  0  0  0
  147.2640  135.3356  161.4972 C   0  0  0  0  0  0  0  0  0  0  0  0
  148.1781  135.4775  160.2664 C   0  0  0  0  0  0  0  0  0  0  0  0
  147.9817  136.7867  159.4803 C   0  0  0  0  0  0  0  0  0  0  0  0
  148.5216  136.6912  158.0420 C   0  0  0  0  0  0  0  0  0  0  0  0
  148.5539  138.0446  157.3248 C   0  0  0  0  0  0  0  0  0  0  0  0
  149.2888  138.9410  157.7382 O   0  0  0  0  0  0  0  0  0  0  0  0
  147.7495  138.1499  156.2516 N   0  0  0  0  0  0  0  0  0  0  0  0
  147.5691  139.2532  155.3676 C   0  0  0  0  0  0  0  0  0  0  0  0
  146.3024  139.6352  154.8577 C   0  0  0  0  0  0  0  0  0  0  0  0
  146.1967  140.6826  154.0127 N   0  3  0  0  0  0  0  0  0  0  0  0
  147.2594  141.4074  153.6070 C   0  0  0  0  0  0  0  0  0  0  0  0
  148.5485  141.0730  154.0635 C   0  0  0  0  0  0  0  0  0  0  0  0
  148.7140  139.9817  154.9501 C   0  0  0  0  0  0  0  0  0  0  0  0
  149.9895  139.6234  155.4166 N   0  0  0  0  0  0  0  0  0  0  0  0
  150.8208  138.9655  154.4167 C   0  0  0  0  0  0  0  0  0  0  0  0
  152.1295  138.4790  155.0626 C   0  0  0  0  0  0  0  0  0  0  0  0
  152.7899  139.5773  155.6856 O   0  0  0  0  0  0  0  0  0  0  0  0
  151.9988  140.1659  156.7146 C   0  0  0  0  0  0  0  0  0  0  0  0
  150.6855  140.6969  156.1144 C   0  0  0  0  0  0  0  0  0  0  0  0
  147.9678  137.7881  164.2611 H   0  0  0  0  0  0  0  0  0  0  0  0
  147.3504  134.3337  161.9183 H   0  0  0  0  0  0  0  0  0  0  0  0
  146.2229  135.4635  161.1999 H   0  0  0  0  0  0  0  0  0  0  0  0
  149.2147  135.4189  160.6002 H   0  0  0  0  0  0  0  0  0  0  0  0
  148.0292  134.6257  159.6008 H   0  0  0  0  0  0  0  0  0  0  0  0
  146.9220  137.0438  159.4541 H   0  0  0  0  0  0  0  0  0  0  0  0
  148.4841  137.5998  160.0064 H   0  0  0  0  0  0  0  0  0  0  0  0
  149.5271  136.2672  158.0592 H   0  0  0  0  0  0  0  0  0  0  0  0
  147.9048  136.0072  157.4581 H   0  0  0  0  0  0  0  0  0  0  0  0
  147.2562  137.3080  155.9899 H   0  0  0  0  0  0  0  0  0  0  0  0
  145.3682  139.1419  155.0781 H   0  0  0  0  0  0  0  0  0  0  0  0
  147.0493  142.2227  152.9300 H   0  0  0  0  0  0  0  0  0  0  0  0
  149.3995  141.6505  153.7326 H   0  0  0  0  0  0  0  0  0  0  0  0
  150.2816  138.1226  153.9824 H   0  0  0  0  0  0  0  0  0  0  0  0
  151.0460  139.6589  153.6054 H   0  0  0  0  0  0  0  0  0  0  0  0
  151.9339  137.6948  155.7958 H   0  0  0  0  0  0  0  0  0  0  0  0
  152.7865  138.0512  154.3052 H   0  0  0  0  0  0  0  0  0  0  0  0
  151.8004  139.4338  157.4991 H   0  0  0  0  0  0  0  0  0  0  0  0
  152.5596  140.9805  157.1729 H   0  0  0  0  0  0  0  0  0  0  0  0
  150.8996  141.5123  155.4222 H   0  0  0  0  0  0  0  0  0  0  0  0
  150.0494  141.1002  156.9034 H   0  0  0  0  0  0  0  0  0  0  0  0
  145.2715  140.9348  153.6635 H   0  0  0  0  0  0  0  0  0  0  0  0
  1  2  3  0  0  0  0
  1 22  1  0  0  0  0
  2  3  1  0  0  0  0
  3  4  1  0  0  0  0
  3 23  1  0  0  0  0
  3 24  1  0  0  0  0
  4  5  1  0  0  0  0
  4 25  1  0  0  0  0
  4 26  1  0  0  0  0
  5  6  1  0  0  0  0
  5 27  1  0  0  0  0
  5 28  1  0  0  0  0
  6  7  1  0  0  0  0
  6 29  1  0  0  0  0
  6 30  1  0  0  0  0
  7  8  2  0  0  0  0
  7  9  1  0  0  0  0
  9 10  1  0  0  0  0
  9 31  1  0  0  0  0
 10 15  1  0  0  0  0
 10 11  2  0  0  0  0
 11 12  1  0  0  0  0
 11 32  1  0  0  0  0
 12 13  2  0  0  0  0
 12 43  1  0  0  0  0
 13 14  1  0  0  0  0
 13 33  1  0  0  0  0
 14 15  2  0  0  0  0
 14 34  1  0  0  0  0
 15 16  1  0  0  0  0
 16 21  1  0  0  0  0
 16 17  1  0  0  0  0
 17 18  1  0  0  0  0
 17 35  1  0  0  0  0
 17 36  1  0  0  0  0
 18 19  1  0  0  0  0
 18 37  1  0  0  0  0
 18 38  1  0  0  0  0
 19 20  1  0  0  0  0
 20 21  1  0  0  0  0
 20 39  1  0  0  0  0
 20 40  1  0  0  0  0
 21 41  1  0  0  0  0
 21 42  1  0  0  0  0
M  CHG  1  12   1
M  END
> <s_m_source_file>
AV-unprocessed.smi

> <i_m_source_file_index>
2233

> <i_lp_mmshare_version>
43012

> <i_f3d_flags>
0

> <s_epik_input>
W0NIXSNDW0NIMl1bQ0gyXVtDSDJdW0NIMl1DKD1PKVtOSF1jMVtjSF1uW2NIXVtjSF1jMU4yW0NIMl1bQ0gyXU9bQ0gyXVtDSDJdMg==

> <s_epik_cmdline>
J2VwaWtfcHl0aG9uJywgJy1waCcsICc3LjAnLCAnLXRuJywgJzgnLCAnLW1hJywgJzIwMCcsICctbWV0YWxfYmluZGluZycsICctaW1hZScsICc8aW5maWxlLm1hZT4nLCAnLW9tYWUnLCAnPG91dGZpbGUubWFlPic=

> <r_lp_tautomer_probability>
1

> <r_epik_Ionization_Penalty>
0.153155

> <r_epik_Ionization_Penalty_Charging>
0.153154

> <r_epik_Ionization_Penalty_Neutral>
1.2848e-06

> <r_epik_State_Penalty>
0.142445

> <r_epik_Charging_Adjusted_Penalty>
0.295599

> <i_epik_Tot_Q>
1

> <i_epik_Tot_abs_Q>
1

> <r_epik_Metal_State_Penalty>
0.464899

> <b_epik_Metal_Only>
0

> <s_lp_Force_Field>
OPLS_2005

> <r_lp_Energy>
30.3927

> <b_lp_Chiralities_Consistent>
1

> <s_lp_Variant>
AV-unprocessed.smi:2233-1

> <Gold.Version>
5.8.1

> <Gold.Id.Protein>
6NUR|6NUR_protein|mol2

> <Gold.PLP.Fitness>
43.6188

> <Gold.PLP.PLP>
-35.7013

> <Gold.PLP.part.hbond>
-2.0000

> <Gold.PLP.part.metal>
0.0000

> <Gold.PLP.part.buried>
-4.1424

> <Gold.PLP.part.nonpolar>
-29.1542

> <Gold.PLP.part.repulsive>
0.0359

> <Gold.PLP.ligand.clash>
0.0000

> <Gold.PLP.ligand.torsion>
0.6310

> <Gold.PLP.Chemscore.Hbond>
3.0000

> <Gold.PLP.Chemscore.CHOScore>
0.0000

> <Gold.PLP.Chemscore.Metal>
0.0000

> <Gold.Chemscore.Hbonds>
donor molecule, donor type, donor heavy atom, donor atom, acceptor molecule, acceptor atom, score
      L1  H    12    43       P1 10175  1.98
      P1  H  7997  8009       L1    19  1.00

> <Gold.PLP.Chemscore.Internal.Correction>
0.1794

> <Gold.Rescore>
     Score         DG    S(hbond)    S(metal)    S(lipo)     H(rot)  DE(clash)    DE(int)     intcor
     12.97     -19.06       1.97        0.00      93.49       1.54       0.12       5.97       ----

> <Gold.Chemscore.Fitness>
12.9656

> <Gold.Chemscore.DG>
-19.0619

> <Gold.Chemscore.ZeroCoef>
-5.4800

> <Gold.Chemscore.Hbond>
1.9704

> <Gold.Chemscore.Metal>
0.0000

> <Gold.Chemscore.Lipo>
93.4875

> <Gold.Chemscore.Internal_Hbond>
0.0000

> <Gold.Chemscore.DEClash>
0.1223

> <Gold.Chemscore.DEInternal>
5.9739

> <Gold.Chemscore.Rot>
1.5380

> <Gold.Chemscore.Internal.Correction>
   9.000000E+99

> <Gold.Chemscore.Hbonds>
donor molecule, donor type, donor heavy atom, donor atom, acceptor molecule, acceptor atom, score
      L1  H    12    43       P1 10175  0.68
      P1  H  7997  8009       L1    19  0.35

> <Gold.Chemscore.Hbond.Weighted>
-6.5812

> <Gold.Chemscore.Metal.Weighted>
-0.0000

> <Gold.Chemscore.Lipo.Weighted>
-10.9380

> <Gold.Chemscore.Internal_Hbond.Weighted>
0.0000

> <Gold.Chemscore.DEClash.Weighted>
0.1223

> <Gold.Chemscore.DEInternal.Weighted>
5.9739

> <Gold.Chemscore.Rot.Weighted>
3.9373

> <Gold.Chemscore.Internal.Correction.Weighted>
   9.000000E+99

> <Gold.Protein.RotatedTorsions>
[ 6907 6896 6895 6894 ] final -131.16 input  -60.11 | X-H torsion
[ 7974 7965 7964 7962 ] final -147.97 input  175.53 | X-H torsion
[ 8008 7997 7996 7995 ] final -147.78 input   59.86 | X-H torsion
[ 10167 10162 10161 10158 ] final   44.50 input  -65.29 | X-H torsion
[ 10718 10713 10712 10709 ] final  -80.29 input   66.30 | X-H torsion
[ 10763 10752 10751 10750 ] final  110.61 input  -60.55 | X-H torsion
[ 11005 11000 10999 10996 ] final -138.13 input  -57.11 | X-H torsion

> <Gold.Protein.ActiveResidues>
 VAL166  LYS551  ARG553  GLY616  TRP617  ASP618  TYR619  PRO620  LYS621  CYS622 
 ASP623  PHE694  ASN695  SER759  ASP760  ASP761  ALA762  ILE779  LEU786  VAL792 
 PHE793  MET794  SER795  GLU796  ALA797  LYS798  CYS799  TRP800  GLU811  SER814 

> <Gold.Protein.RotatedAtoms>
  150.9479  133.6583  159.2777 H   0  0  0  0  0  0  0  0  0  0  0  0  # atno 6907 bound_to 6896
  151.3949  135.0961  159.9547 H   0  0  0  0  0  0  0  0  0  0  0  0  # atno 6908 bound_to 6896
  152.5097  133.8985  159.7484 H   0  0  0  0  0  0  0  0  0  0  0  0  # atno 6909 bound_to 6896
  144.8059  140.5257  143.5675 H   0  0  0  0  0  0  0  0  0  0  0  0  # atno 7974 bound_to 7965
  155.5811  140.0643  157.2783 H   0  0  0  0  0  0  0  0  0  0  0  0  # atno 8008 bound_to 7997
  154.4332  140.1852  156.1024 H   0  0  0  0  0  0  0  0  0  0  0  0  # atno 8009 bound_to 7997
  156.0304  140.3307  155.7137 H   0  0  0  0  0  0  0  0  0  0  0  0  # atno 8010 bound_to 7997
  140.3336  144.2558  150.6164 H   0  0  0  0  0  0  0  0  0  0  0  0  # atno 10167 bound_to 10162
  156.0073  130.4570  150.3778 H   0  0  0  0  0  0  0  0  0  0  0  0  # atno 10718 bound_to 10713
  153.4514  135.3743  155.2286 H   0  0  0  0  0  0  0  0  0  0  0  0  # atno 10763 bound_to 10752
  154.8756  135.3886  154.4034 H   0  0  0  0  0  0  0  0  0  0  0  0  # atno 10764 bound_to 10752
  153.4594  135.7086  153.6123 H   0  0  0  0  0  0  0  0  0  0  0  0  # atno 10765 bound_to 10752
  140.8645  134.2128  157.4688 H   0  0  0  0  0  0  0  0  0  0  0  0  # atno 11005 bound_to 11000
  145.5440  139.1475  143.3431 LP  0  0  0  0  0  0  0  0  0  0  0  0  # atno 17320 bound_to 7965
  146.2350  140.5579  142.8959 LP  0  0  0  0  0  0  0  0  0  0  0  0  # atno 17321 bound_to 7965
  140.5374  143.2230  151.8140 LP  0  0  0  0  0  0  0  0  0  0  0  0  # atno 17342 bound_to 10162
  139.4852  144.4644  151.9502 LP  0  0  0  0  0  0  0  0  0  0  0  0  # atno 17343 bound_to 10162
  157.1859  131.0403  151.2725 LP  0  0  0  0  0  0  0  0  0  0  0  0  # atno 17370 bound_to 10713
  157.4104  130.7382  149.6835 LP  0  0  0  0  0  0  0  0  0  0  0  0  # atno 17371 bound_to 10713
  139.8708  134.9745  156.4849 LP  0  0  0  0  0  0  0  0  0  0  0  0  # atno 17394 bound_to 11000
  140.8645  133.8035  155.9299 LP  0  0  0  0  0  0  0  0  0  0  0  0  # atno 17395 bound_to 11000

$$$$
