AV-unprocessed.smi:1272|AV-procd|sdf|5334|dock5
  -GOLD-   22720 4463D 1   1.00000     0.00000
 Structure written by MMmdl.
 45 47  0  0  0  0  0  0  0  0  1 V2000
  155.0965  140.3674  160.0236 C   0  0  0  0  0  0  0  0  0  0  0  0
  153.6695  140.5831  160.5433 C   0  0  0  0  0  0  0  0  0  0  0  0
  152.8920  141.4122  159.6257 N   0  0  0  0  0  0  0  0  0  0  0  0
  152.5477  141.1035  158.3533 C   0  0  0  0  0  0  0  0  0  0  0  0
  152.8338  140.0647  157.7578 O   0  0  0  0  0  0  0  0  0  0  0  0
  151.8458  142.1431  157.8436 N   0  0  0  0  0  0  0  0  0  0  0  0
  151.2848  142.2359  156.4966 C   0  0  0  0  0  0  0  0  0  0  0  0
  149.9171  141.5312  156.3968 C   0  0  2  0  0  0  0  0  0  0  0  0
  148.9981  142.2431  157.2012 O   0  0  0  0  0  0  0  0  0  0  0  0
  149.9858  140.0919  156.9470 C   0  0  0  0  0  0  0  0  0  0  0  0
  150.3906  139.0646  155.9851 N   0  0  0  0  0  0  0  0  0  0  0  0
  151.6113  139.4140  155.2600 C   0  0  0  0  0  0  0  0  0  0  0  0
  152.0337  138.3056  154.2797 C   0  0  0  0  0  0  0  0  0  0  0  0
  152.1940  137.0780  154.9825 O   0  0  0  0  0  0  0  0  0  0  0  0
  151.0097  136.6785  155.6638 C   0  0  0  0  0  0  0  0  0  0  0  0
  150.5888  137.7811  156.6505 C   0  0  0  0  0  0  0  0  0  0  0  0
  151.7601  143.1565  158.8091 C   0  0  0  0  0  0  0  0  0  0  0  0
  151.1658  144.4299  158.7654 C   0  0  0  0  0  0  0  0  0  0  0  0
  151.2661  145.2310  159.9269 C   0  0  0  0  0  0  0  0  0  0  0  0
  151.9425  144.7568  161.0809 C   0  0  0  0  0  0  0  0  0  0  0  0
  152.5338  143.4719  161.0972 C   0  0  0  0  0  0  0  0  0  0  0  0
  152.4185  142.6964  159.9303 C   0  0  0  0  0  0  0  0  0  0  0  0
  155.6759  139.7640  160.7225 H   0  0  0  0  0  0  0  0  0  0  0  0
  155.6165  141.3170  159.8935 H   0  0  0  0  0  0  0  0  0  0  0  0
  155.0924  139.8519  159.0628 H   0  0  0  0  0  0  0  0  0  0  0  0
  153.1767  139.6198  160.6831 H   0  0  0  0  0  0  0  0  0  0  0  0
  153.6967  141.0535  161.5262 H   0  0  0  0  0  0  0  0  0  0  0  0
  151.1671  143.2952  156.2625 H   0  0  0  0  0  0  0  0  0  0  0  0
  151.9847  141.8517  155.7535 H   0  0  0  0  0  0  0  0  0  0  0  0
  149.5772  141.5323  155.3618 H   0  0  0  0  0  0  0  0  0  0  0  0
  148.6164  142.9305  156.6764 H   0  0  0  0  0  0  0  0  0  0  0  0
  150.6690  140.0666  157.7975 H   0  0  0  0  0  0  0  0  0  0  0  0
  149.0045  139.8388  157.3514 H   0  0  0  0  0  0  0  0  0  0  0  0
  151.4712  140.3346  154.6956 H   0  0  0  0  0  0  0  0  0  0  0  0
  152.4219  139.5994  155.9665 H   0  0  0  0  0  0  0  0  0  0  0  0
  151.2906  138.1856  153.4899 H   0  0  0  0  0  0  0  0  0  0  0  0
  152.9755  138.5655  153.7965 H   0  0  0  0  0  0  0  0  0  0  0  0
  150.2150  136.4804  154.9429 H   0  0  0  0  0  0  0  0  0  0  0  0
  151.2009  135.7462  156.1952 H   0  0  0  0  0  0  0  0  0  0  0  0
  151.3506  137.8797  157.4255 H   0  0  0  0  0  0  0  0  0  0  0  0
  149.6699  137.4794  157.1544 H   0  0  0  0  0  0  0  0  0  0  0  0
  150.6573  144.7884  157.8827 H   0  0  0  0  0  0  0  0  0  0  0  0
  150.8246  146.2165  159.9342 H   0  0  0  0  0  0  0  0  0  0  0  0
  152.0088  145.3855  161.9565 H   0  0  0  0  0  0  0  0  0  0  0  0
  153.0543  143.1081  161.9707 H   0  0  0  0  0  0  0  0  0  0  0  0
  1  2  1  0  0  0  0
  1 23  1  0  0  0  0
  1 24  1  0  0  0  0
  1 25  1  0  0  0  0
  2  3  1  0  0  0  0
  2 26  1  0  0  0  0
  2 27  1  0  0  0  0
  3 22  1  0  0  0  0
  3  4  1  0  0  0  0
  4  5  2  0  0  0  0
  4  6  1  0  0  0  0
  6  7  1  0  0  0  0
  6 17  1  0  0  0  0
  7  8  1  0  0  0  0
  7 28  1  0  0  0  0
  7 29  1  0  0  0  0
  8  9  1  0  0  0  0
  8 10  1  0  0  0  0
  8 30  1  0  0  0  0
  9 31  1  0  0  0  0
 10 11  1  0  0  0  0
 10 32  1  0  0  0  0
 10 33  1  0  0  0  0
 11 16  1  0  0  0  0
 11 12  1  0  0  0  0
 12 13  1  0  0  0  0
 12 34  1  0  0  0  0
 12 35  1  0  0  0  0
 13 14  1  0  0  0  0
 13 36  1  0  0  0  0
 13 37  1  0  0  0  0
 14 15  1  0  0  0  0
 15 16  1  0  0  0  0
 15 38  1  0  0  0  0
 15 39  1  0  0  0  0
 16 40  1  0  0  0  0
 16 41  1  0  0  0  0
 17 22  2  0  0  0  0
 17 18  1  0  0  0  0
 18 19  2  0  0  0  0
 18 42  1  0  0  0  0
 19 20  1  0  0  0  0
 19 43  1  0  0  0  0
 20 21  2  0  0  0  0
 20 44  1  0  0  0  0
 21 22  1  0  0  0  0
 21 45  1  0  0  0  0
M  END
> <s_m_source_file>
AV-unprocessed.smi

> <i_m_source_file_index>
1272

> <i_lp_mmshare_version>
43012

> <i_f3d_flags>
0

> <s_epik_input>
W2NIXTFbY0hdW2NIXVtjSF1jKGMxMiluKFtDSDJdW0NIM10pYyg9TyluMltDSDJdW0NASF0oW09IXSlbQ0gyXU4zW0NIMl1bQ0gyXU9bQ0gyXVtDSDJdMw==

> <s_epik_cmdline>
J2VwaWtfcHl0aG9uJywgJy1waCcsICc3LjAnLCAnLXRuJywgJzgnLCAnLW1hJywgJzIwMCcsICctbWV0YWxfYmluZGluZycsICctaW1hZScsICc8aW5maWxlLm1hZT4nLCAnLW9tYWUnLCAnPG91dGZpbGUubWFlPic=

> <r_epik_Ionization_Penalty>
0.214359

> <r_epik_Ionization_Penalty_Charging>
2.31431e-09

> <r_epik_Ionization_Penalty_Neutral>
0.214359

> <r_epik_State_Penalty>
0.204533

> <r_epik_Charging_Adjusted_Penalty>
0.204533

> <i_epik_Tot_Q>
0

> <i_epik_Tot_abs_Q>
0

> <r_epik_Metal_State_Penalty>
0.204533

> <b_epik_Metal_Only>
0

> <s_lp_Force_Field>
OPLS_2005

> <r_lp_Energy>
61.4886

> <b_lp_Chiralities_Consistent>
1

> <s_lp_Variant>
AV-unprocessed.smi:1272-1

> <Gold.Version>
5.8.1

> <Gold.Id.Protein>
6NUR|6NUR_protein|mol2

> <Gold.PLP.Fitness>
53.9134

> <Gold.PLP.PLP>
-46.2737

> <Gold.PLP.part.hbond>
-3.0000

> <Gold.PLP.part.metal>
0.0000

> <Gold.PLP.part.buried>
-7.0945

> <Gold.PLP.part.nonpolar>
-35.6237

> <Gold.PLP.part.repulsive>
0.0909

> <Gold.PLP.ligand.clash>
0.0000

> <Gold.PLP.ligand.torsion>
0.7159

> <Gold.PLP.Chemscore.Hbond>
2.9920

> <Gold.PLP.Chemscore.CHOScore>
0.0000

> <Gold.PLP.Chemscore.Metal>
0.0000

> <Gold.Chemscore.Hbonds>
donor molecule, donor type, donor heavy atom, donor atom, acceptor molecule, acceptor atom, score
      L1  H     9    31       P1  8028  0.89
      P1  H  7997  8010       L1     5  1.00
      P1  H 10752 10765       L1    14  0.83

> <Gold.PLP.Chemscore.Internal.Correction>
0.0955

> <Gold.Rescore>
     Score         DG    S(hbond)    S(metal)    S(lipo)     H(rot)  DE(clash)    DE(int)     intcor
     21.84     -24.32       2.87        0.00     125.81       2.14       1.59       0.89       ----

> <Gold.Chemscore.Fitness>
21.8376

> <Gold.Chemscore.DG>
-24.3153

> <Gold.Chemscore.ZeroCoef>
-5.4800

> <Gold.Chemscore.Hbond>
2.8713

> <Gold.Chemscore.Metal>
0.0000

> <Gold.Chemscore.Lipo>
125.8108

> <Gold.Chemscore.Internal_Hbond>
0.0000

> <Gold.Chemscore.DEClash>
1.5872

> <Gold.Chemscore.DEInternal>
0.8905

> <Gold.Chemscore.Rot>
2.1386

> <Gold.Chemscore.Internal.Correction>
   9.000000E+99

> <Gold.Chemscore.Hbonds>
donor molecule, donor type, donor heavy atom, donor atom, acceptor molecule, acceptor atom, score
      L1  H     9    31       P1  8028  0.69
      P1  H  7997  8010       L1     5  0.90
      P1  H 10752 10765       L1    14  0.50

> <Gold.Chemscore.Hbond.Weighted>
-9.5903

> <Gold.Chemscore.Metal.Weighted>
-0.0000

> <Gold.Chemscore.Lipo.Weighted>
-14.7199

> <Gold.Chemscore.Internal_Hbond.Weighted>
0.0000

> <Gold.Chemscore.DEClash.Weighted>
1.5872

> <Gold.Chemscore.DEInternal.Weighted>
0.8905

> <Gold.Chemscore.Rot.Weighted>
5.4749

> <Gold.Chemscore.Internal.Correction.Weighted>
   9.000000E+99

> <Gold.Protein.RotatedTorsions>
[ 6907 6896 6895 6894 ] final -144.93 input  -60.11 | X-H torsion
[ 7974 7965 7964 7962 ] final   54.72 input  175.53 | X-H torsion
[ 8008 7997 7996 7995 ] final   52.00 input   59.86 | X-H torsion
[ 10167 10162 10161 10158 ] final   21.09 input  -65.29 | X-H torsion
[ 10718 10713 10712 10709 ] final   51.20 input   66.30 | X-H torsion
[ 10763 10752 10751 10750 ] final  170.27 input  -60.55 | X-H torsion
[ 11005 11000 10999 10996 ] final -141.03 input  -57.11 | X-H torsion

> <Gold.Protein.ActiveResidues>
 VAL166  LYS551  ARG553  GLY616  TRP617  ASP618  TYR619  PRO620  LYS621  CYS622 
 ASP623  PHE694  ASN695  SER759  ASP760  ASP761  ALA762  ILE779  LEU786  VAL792 
 PHE793  MET794  SER795  GLU796  ALA797  LYS798  CYS799  TRP800  GLU811  SER814 

> <Gold.Protein.RotatedAtoms>
  151.1207  133.5106  159.2601 H   0  0  0  0  0  0  0  0  0  0  0  0  # atno 6907 bound_to 6896
  151.1864  135.0383  159.8824 H   0  0  0  0  0  0  0  0  0  0  0  0  # atno 6908 bound_to 6896
  152.5455  134.1053  159.8389 H   0  0  0  0  0  0  0  0  0  0  0  0  # atno 6909 bound_to 6896
  145.9579  139.4032  143.0266 H   0  0  0  0  0  0  0  0  0  0  0  0  # atno 7974 bound_to 7965
  155.4445  140.3456  155.4293 H   0  0  0  0  0  0  0  0  0  0  0  0  # atno 8008 bound_to 7997
  156.1258  140.1500  156.9168 H   0  0  0  0  0  0  0  0  0  0  0  0  # atno 8009 bound_to 7997
  154.4857  140.0856  156.7460 H   0  0  0  0  0  0  0  0  0  0  0  0  # atno 8010 bound_to 7997
  140.5453  143.9605  150.6544 H   0  0  0  0  0  0  0  0  0  0  0  0  # atno 10167 bound_to 10162
  157.4958  130.8405  149.8257 H   0  0  0  0  0  0  0  0  0  0  0  0  # atno 10718 bound_to 10713
  154.3952  135.2754  155.2130 H   0  0  0  0  0  0  0  0  0  0  0  0  # atno 10763 bound_to 10752
  154.4179  135.6007  153.5996 H   0  0  0  0  0  0  0  0  0  0  0  0  # atno 10764 bound_to 10752
  152.9831  135.5965  154.4212 H   0  0  0  0  0  0  0  0  0  0  0  0  # atno 10765 bound_to 10752
  140.8365  134.2454  157.4831 H   0  0  0  0  0  0  0  0  0  0  0  0  # atno 11005 bound_to 11000
  145.8080  140.9739  143.0964 LP  0  0  0  0  0  0  0  0  0  0  0  0  # atno 17320 bound_to 7965
  144.6809  139.9885  143.7484 LP  0  0  0  0  0  0  0  0  0  0  0  0  # atno 17321 bound_to 7965
  140.3016  143.3256  152.0966 LP  0  0  0  0  0  0  0  0  0  0  0  0  # atno 17342 bound_to 10162
  139.5005  144.6693  151.6281 LP  0  0  0  0  0  0  0  0  0  0  0  0  # atno 17343 bound_to 10162
  156.0200  130.3799  150.1992 LP  0  0  0  0  0  0  0  0  0  0  0  0  # atno 17370 bound_to 10713
  157.0181  130.9971  151.3347 LP  0  0  0  0  0  0  0  0  0  0  0  0  # atno 17371 bound_to 10713
  139.8704  134.9613  156.4392 LP  0  0  0  0  0  0  0  0  0  0  0  0  # atno 17394 bound_to 11000
  140.8942  133.7826  155.9606 LP  0  0  0  0  0  0  0  0  0  0  0  0  # atno 17395 bound_to 11000

$$$$
