AV-unprocessed.smi:3311|AV-procd|sdf|12724|dock9
  -GOLD-   2272019 63D 1   1.00000     0.00000
 Structure written by MMmdl.
 43 44  0  0  0  0  0  0  0  0  1 V2000
  146.5058  134.5589  153.3469 C   0  0  0  0  0  0  0  0  0  0  0  0
  145.7903  135.6418  152.5096 C   0  0  1  0  0  0  0  0  0  0  0  0
  146.4743  136.9364  152.6087 N   0  0  0  0  0  0  0  0  0  0  0  0
  146.6175  137.4904  153.9572 C   0  0  0  0  0  0  0  0  0  0  0  0
  147.4590  138.7868  153.9740 C   0  0  0  0  0  0  0  0  0  0  0  0
  148.7075  138.4786  153.3789 O   0  0  0  0  0  0  0  0  0  0  0  0
  146.7812  139.9487  153.2031 C   0  0  0  0  0  0  0  0  0  0  0  0
  147.5374  141.2826  153.3383 C   0  0  0  0  0  0  0  0  0  0  0  0
  147.7519  141.6603  154.8100 C   0  0  0  0  0  0  0  0  0  0  0  0
  148.4840  140.5398  155.5606 C   0  0  0  0  0  0  0  0  0  0  0  0
  147.7310  139.2027  155.4395 C   0  0  0  0  0  0  0  0  0  0  0  0
  145.6251  135.2586  151.0139 C   0  0  2  0  0  0  0  0  0  0  0  0
  144.5355  136.0893  150.3113 C   0  0  0  0  0  0  0  0  0  0  0  0
  145.4156  133.8263  150.8116 N   0  0  0  0  0  0  0  0  0  0  0  0
  144.2751  133.1529  150.4154 C   0  0  0  0  0  0  0  0  0  0  0  0
  144.5664  131.8191  150.4059 C   0  0  0  0  0  0  0  0  0  0  0  0
  145.9238  131.7678  150.8262 C   0  0  0  0  0  0  0  0  0  0  0  0
  146.4256  132.9664  151.0734 N   0  0  0  0  0  0  0  0  0  0  0  0
  146.0661  133.5753  153.1845 H   0  0  0  0  0  0  0  0  0  0  0  0
  146.4264  134.7591  154.4149 H   0  0  0  0  0  0  0  0  0  0  0  0
  147.5661  134.4926  153.1013 H   0  0  0  0  0  0  0  0  0  0  0  0
  144.7874  135.7624  152.9208 H   0  0  0  0  0  0  0  0  0  0  0  0
  147.3876  136.8770  152.1685 H   0  0  0  0  0  0  0  0  0  0  0  0
  145.6277  137.6970  154.3662 H   0  0  0  0  0  0  0  0  0  0  0  0
  147.0807  136.7631  154.6242 H   0  0  0  0  0  0  0  0  0  0  0  0
  148.6899  137.5762  153.0996 H   0  0  0  0  0  0  0  0  0  0  0  0
  146.6821  139.7040  152.1448 H   0  0  0  0  0  0  0  0  0  0  0  0
  145.7657  140.0819  153.5785 H   0  0  0  0  0  0  0  0  0  0  0  0
  148.5019  141.2123  152.8341 H   0  0  0  0  0  0  0  0  0  0  0  0
  146.9843  142.0732  152.8305 H   0  0  0  0  0  0  0  0  0  0  0  0
  148.3208  142.5880  154.8774 H   0  0  0  0  0  0  0  0  0  0  0  0
  146.7887  141.8517  155.2846 H   0  0  0  0  0  0  0  0  0  0  0  0
  149.4956  140.4335  155.1673 H   0  0  0  0  0  0  0  0  0  0  0  0
  148.5913  140.8087  156.6117 H   0  0  0  0  0  0  0  0  0  0  0  0
  146.7810  139.2943  155.9679 H   0  0  0  0  0  0  0  0  0  0  0  0
  148.2878  138.4206  155.9580 H   0  0  0  0  0  0  0  0  0  0  0  0
  146.5556  135.5182  150.5040 H   0  0  0  0  0  0  0  0  0  0  0  0
  144.7542  137.1551  150.3806 H   0  0  0  0  0  0  0  0  0  0  0  0
  143.5493  135.9287  150.7461 H   0  0  0  0  0  0  0  0  0  0  0  0
  144.4755  135.8379  149.2520 H   0  0  0  0  0  0  0  0  0  0  0  0
  143.3573  133.6699  150.1778 H   0  0  0  0  0  0  0  0  0  0  0  0
  143.9083  131.0042  150.1438 H   0  0  0  0  0  0  0  0  0  0  0  0
  146.5545  130.9015  150.9617 H   0  0  0  0  0  0  0  0  0  0  0  0
  1  2  1  0  0  0  0
  1 19  1  0  0  0  0
  1 20  1  0  0  0  0
  1 21  1  0  0  0  0
  2  3  1  0  0  0  0
  2 12  1  0  0  0  0
  2 22  1  0  0  0  0
  3  4  1  0  0  0  0
  3 23  1  0  0  0  0
  4  5  1  0  0  0  0
  4 24  1  0  0  0  0
  4 25  1  0  0  0  0
  5 11  1  0  0  0  0
  5  6  1  0  0  0  0
  5  7  1  0  0  0  0
  6 26  1  0  0  0  0
  7  8  1  0  0  0  0
  7 27  1  0  0  0  0
  7 28  1  0  0  0  0
  8  9  1  0  0  0  0
  8 29  1  0  0  0  0
  8 30  1  0  0  0  0
  9 10  1  0  0  0  0
  9 31  1  0  0  0  0
  9 32  1  0  0  0  0
 10 11  1  0  0  0  0
 10 33  1  0  0  0  0
 10 34  1  0  0  0  0
 11 35  1  0  0  0  0
 11 36  1  0  0  0  0
 12 13  1  0  0  0  0
 12 14  1  0  0  0  0
 12 37  1  0  0  0  0
 13 38  1  0  0  0  0
 13 39  1  0  0  0  0
 13 40  1  0  0  0  0
 14 18  1  0  0  0  0
 14 15  1  0  0  0  0
 15 16  2  0  0  0  0
 15 41  1  0  0  0  0
 16 17  1  0  0  0  0
 16 42  1  0  0  0  0
 17 18  2  0  0  0  0
 17 43  1  0  0  0  0
M  END
> <s_m_source_file>
AV-unprocessed.smi

> <i_m_source_file_index>
3311

> <i_lp_mmshare_version>
43012

> <i_f3d_flags>
0

> <s_epik_input>
bjFbY0hdW2NIXVtjSF1uMVtDQEBIXShbQ0gzXSlbQ0BIXShbQ0gzXSlbTkhdW0NIMl1DMihbT0hdKVtDSDJdW0NIMl1bQ0gyXVtDSDJdW0NIMl0y

> <s_epik_cmdline>
J2VwaWtfcHl0aG9uJywgJy1waCcsICc3LjAnLCAnLXRuJywgJzgnLCAnLW1hJywgJzIwMCcsICctbWV0YWxfYmluZGluZycsICctaW1hZScsICc8aW5maWxlLm1hZT4nLCAnLW9tYWUnLCAnPG91dGZpbGUubWFlPic=

> <r_lp_tautomer_probability>
1

> <r_epik_Ionization_Penalty>
2.222

> <r_epik_Ionization_Penalty_Charging>
0

> <r_epik_Ionization_Penalty_Neutral>
2.222

> <r_epik_State_Penalty>
2.36562

> <r_epik_Charging_Adjusted_Penalty>
2.36562

> <i_epik_Tot_Q>
0

> <i_epik_Tot_abs_Q>
0

> <r_epik_Metal_State_Penalty>
2.36435

> <b_epik_Metal_Only>
0

> <s_lp_Force_Field>
OPLS_2005

> <r_lp_Energy>
28.1428

> <b_lp_Chiralities_Consistent>
1

> <s_lp_Variant>
AV-unprocessed.smi:3311-6

> <Gold.Version>
5.8.1

> <Gold.Id.Protein>
6NUR|6NUR_protein|mol2

> <Gold.PLP.Fitness>
39.0205

> <Gold.PLP.PLP>
-28.5286

> <Gold.PLP.part.hbond>
-3.0000

> <Gold.PLP.part.metal>
0.0000

> <Gold.PLP.part.buried>
-0.6109

> <Gold.PLP.part.nonpolar>
-24.3419

> <Gold.PLP.part.repulsive>
0.1865

> <Gold.PLP.ligand.clash>
0.0000

> <Gold.PLP.ligand.torsion>
0.7362

> <Gold.PLP.Chemscore.Hbond>
2.0000

> <Gold.PLP.Chemscore.CHOScore>
1.9442

> <Gold.PLP.Chemscore.Metal>
0.0000

> <Gold.Chemscore.Hbonds>
donor molecule, donor type, donor heavy atom, donor atom, acceptor molecule, acceptor atom, score
      L1  H     3    23       P1  7948  1.00
      L1  H     6    26       P1  7948  1.00
      L1  C    15    41       P1 10186  0.96
      L1  C    17    43       P1 10747  0.86

> <Gold.PLP.Chemscore.Internal.Correction>
0.1318

> <Gold.Rescore>
     Score         DG    S(hbond)    S(metal)    S(lipo)     H(rot)  DE(clash)    DE(int)     intcor
     12.82     -16.17       1.96        0.00      80.72       2.07       1.59       1.76       ----

> <Gold.Chemscore.Fitness>
12.8166

> <Gold.Chemscore.DG>
-16.1742

> <Gold.Chemscore.ZeroCoef>
-5.4800

> <Gold.Chemscore.Hbond>
1.9597

> <Gold.Chemscore.Metal>
0.0000

> <Gold.Chemscore.Lipo>
80.7238

> <Gold.Chemscore.Internal_Hbond>
0.0000

> <Gold.Chemscore.DEClash>
1.5946

> <Gold.Chemscore.DEInternal>
1.7630

> <Gold.Chemscore.Rot>
2.0686

> <Gold.Chemscore.Internal.Correction>
   9.000000E+99

> <Gold.Chemscore.Hbonds>
donor molecule, donor type, donor heavy atom, donor atom, acceptor molecule, acceptor atom, score
      L1  H     3    23       P1  7948  0.99
      L1  H     6    26       P1  7948  0.96

> <Gold.Chemscore.Hbond.Weighted>
-6.5453

> <Gold.Chemscore.Metal.Weighted>
-0.0000

> <Gold.Chemscore.Lipo.Weighted>
-9.4447

> <Gold.Chemscore.Internal_Hbond.Weighted>
0.0000

> <Gold.Chemscore.DEClash.Weighted>
1.5946

> <Gold.Chemscore.DEInternal.Weighted>
1.7630

> <Gold.Chemscore.Rot.Weighted>
5.2957

> <Gold.Chemscore.Internal.Correction.Weighted>
   9.000000E+99

> <Gold.Protein.RotatedTorsions>
[ 6907 6896 6895 6894 ] final   41.36 input  -60.11 | X-H torsion
[ 7974 7965 7964 7962 ] final   -1.69 input  175.53 | X-H torsion
[ 8008 7997 7996 7995 ] final -170.27 input   59.86 | X-H torsion
[ 10167 10162 10161 10158 ] final  -72.22 input  -65.29 | X-H torsion
[ 10718 10713 10712 10709 ] final  -74.36 input   66.30 | X-H torsion
[ 10763 10752 10751 10750 ] final  -77.38 input  -60.55 | X-H torsion
[ 11005 11000 10999 10996 ] final  -37.78 input  -57.11 | X-H torsion

> <Gold.Protein.ActiveResidues>
 VAL166  LYS551  ARG553  GLY616  TRP617  ASP618  TYR619  PRO620  LYS621  CYS622 
 ASP623  PHE694  ASN695  SER759  ASP760  ASP761  ALA762  ILE779  LEU786  VAL792 
 PHE793  MET794  SER795  GLU796  ALA797  LYS798  CYS799  TRP800  GLU811  SER814 

> <Gold.Protein.RotatedAtoms>
  152.1943  134.8645  160.0514 H   0  0  0  0  0  0  0  0  0  0  0  0  # atno 6907 bound_to 6896
  151.9522  133.3664  159.4012 H   0  0  0  0  0  0  0  0  0  0  0  0  # atno 6908 bound_to 6896
  150.6941  134.4252  159.5267 H   0  0  0  0  0  0  0  0  0  0  0  0  # atno 6909 bound_to 6896
  146.2414  140.1459  142.8334 H   0  0  0  0  0  0  0  0  0  0  0  0  # atno 7974 bound_to 7965
  155.9161  140.1066  157.1243 H   0  0  0  0  0  0  0  0  0  0  0  0  # atno 8008 bound_to 7997
  154.4047  140.1265  156.4684 H   0  0  0  0  0  0  0  0  0  0  0  0  # atno 8009 bound_to 7997
  155.7252  140.3469  155.5036 H   0  0  0  0  0  0  0  0  0  0  0  0  # atno 8010 bound_to 7997
  140.5210  143.2332  151.7430 H   0  0  0  0  0  0  0  0  0  0  0  0  # atno 10167 bound_to 10162
  156.0245  130.4415  150.2881 H   0  0  0  0  0  0  0  0  0  0  0  0  # atno 10718 bound_to 10713
  154.5122  135.5766  153.6614 H   0  0  0  0  0  0  0  0  0  0  0  0  # atno 10763 bound_to 10752
  152.9899  135.6161  154.2864 H   0  0  0  0  0  0  0  0  0  0  0  0  # atno 10764 bound_to 10752
  154.2779  135.2851  155.2689 H   0  0  0  0  0  0  0  0  0  0  0  0  # atno 10765 bound_to 10752
  140.9978  133.6971  156.1966 H   0  0  0  0  0  0  0  0  0  0  0  0  # atno 11005 bound_to 11000
  145.0208  140.8792  143.5168 LP  0  0  0  0  0  0  0  0  0  0  0  0  # atno 17320 bound_to 7965
  145.1507  139.2516  143.5442 LP  0  0  0  0  0  0  0  0  0  0  0  0  # atno 17321 bound_to 7965
  139.4923  144.4255  151.9930 LP  0  0  0  0  0  0  0  0  0  0  0  0  # atno 17342 bound_to 10162
  140.3352  144.3269  150.5979 LP  0  0  0  0  0  0  0  0  0  0  0  0  # atno 17343 bound_to 10162
  157.0984  131.0189  151.3095 LP  0  0  0  0  0  0  0  0  0  0  0  0  # atno 17370 bound_to 10713
  157.4799  130.7759  149.7404 LP  0  0  0  0  0  0  0  0  0  0  0  0  # atno 17371 bound_to 10713
  140.6938  134.4637  157.5588 LP  0  0  0  0  0  0  0  0  0  0  0  0  # atno 17394 bound_to 11000
  139.9023  134.8527  156.1844 LP  0  0  0  0  0  0  0  0  0  0  0  0  # atno 17395 bound_to 11000

$$$$
