AV-unprocessed.smi:1050|AV-procd|sdf|4613|dock1
  -GOLD-   22720 3113D 1   1.00000     0.00000
 Structure written by MMmdl.
 48 49  0  0  0  0  0  0  0  0  1 V2000
  147.4308  136.6177  162.7763 C   0  0  0  0  0  0  0  0  0  0  0  0
  147.7826  137.1735  161.5138 O   0  0  0  0  0  0  0  0  0  0  0  0
  147.9665  136.3141  160.4503 C   0  0  0  0  0  0  0  0  0  0  0  0
  147.7936  134.9339  160.6580 C   0  0  0  0  0  0  0  0  0  0  0  0
  147.9800  134.0576  159.5740 C   0  0  0  0  0  0  0  0  0  0  0  0
  148.3463  134.5848  158.3120 C   0  0  0  0  0  0  0  0  0  0  0  0
  148.5138  133.7739  157.1526 N   0  0  0  0  0  0  0  0  0  0  0  0
  149.0496  132.5443  157.0474 C   0  0  0  0  0  0  0  0  0  0  0  0
  149.4900  131.8894  157.9919 O   0  0  0  0  0  0  0  0  0  0  0  0
  149.1022  131.9649  155.6233 C   0  0  1  0  0  0  0  0  0  0  0  0
  149.8332  132.9082  154.6561 C   0  0  0  0  0  0  0  0  0  0  0  0
  149.7932  130.7184  155.6172 O   0  0  0  0  0  0  0  0  0  0  0  0
  149.9502  130.1177  154.3379 C   0  0  0  0  0  0  0  0  0  0  0  0
  148.4856  135.9930  158.1942 C   0  0  0  0  0  0  0  0  0  0  0  0
  148.8450  136.5758  156.9632 N   0  0  0  0  0  0  0  0  0  0  0  0
  150.2818  136.8138  156.8241 C   0  0  0  0  0  0  0  0  0  0  0  0
  150.6297  137.2214  155.3792 C   0  0  0  0  0  0  0  0  0  0  0  0
  149.7978  138.3684  154.9917 N   0  0  0  0  0  0  0  0  0  0  0  0
  150.3058  139.6030  154.7652 C   0  0  0  0  0  0  0  0  0  0  0  0
  149.3525  140.7573  154.4486 C   0  0  0  0  0  0  0  0  0  0  0  0
  151.5126  139.8433  154.8047 O   0  0  0  0  0  0  0  0  0  0  0  0
  148.3695  138.0247  155.0227 C   0  0  0  0  0  0  0  0  0  0  0  0
  147.9827  137.6491  156.4649 C   0  0  0  0  0  0  0  0  0  0  0  0
  148.3015  136.8292  159.2434 N   0  0  0  0  0  0  0  0  0  0  0  0
  147.3229  137.4200  163.5059 H   0  0  0  0  0  0  0  0  0  0  0  0
  148.2021  135.9387  163.1429 H   0  0  0  0  0  0  0  0  0  0  0  0
  146.4796  136.0857  162.7268 H   0  0  0  0  0  0  0  0  0  0  0  0
  147.5154  134.5538  161.6300 H   0  0  0  0  0  0  0  0  0  0  0  0
  147.8195  133.0023  159.7296 H   0  0  0  0  0  0  0  0  0  0  0  0
  148.2667  134.2194  156.2806 H   0  0  0  0  0  0  0  0  0  0  0  0
  148.0873  131.8182  155.2481 H   0  0  0  0  0  0  0  0  0  0  0  0
  149.3617  133.8913  154.6299 H   0  0  0  0  0  0  0  0  0  0  0  0
  149.8169  132.5088  153.6420 H   0  0  0  0  0  0  0  0  0  0  0  0
  150.8781  133.0438  154.9380 H   0  0  0  0  0  0  0  0  0  0  0  0
  150.5528  129.2148  154.4346 H   0  0  0  0  0  0  0  0  0  0  0  0
  150.4636  130.7889  153.6484 H   0  0  0  0  0  0  0  0  0  0  0  0
  148.9950  129.8288  153.8990 H   0  0  0  0  0  0  0  0  0  0  0  0
  150.5775  137.6041  157.5157 H   0  0  0  0  0  0  0  0  0  0  0  0
  150.8484  135.9246  157.1014 H   0  0  0  0  0  0  0  0  0  0  0  0
  151.6982  137.4251  155.3011 H   0  0  0  0  0  0  0  0  0  0  0  0
  150.4342  136.3913  154.6989 H   0  0  0  0  0  0  0  0  0  0  0  0
  148.6320  140.8982  155.2551 H   0  0  0  0  0  0  0  0  0  0  0  0
  148.8141  140.5685  153.5195 H   0  0  0  0  0  0  0  0  0  0  0  0
  149.9044  141.6906  154.3302 H   0  0  0  0  0  0  0  0  0  0  0  0
  147.7176  138.8184  154.6616 H   0  0  0  0  0  0  0  0  0  0  0  0
  148.1941  137.1777  154.3578 H   0  0  0  0  0  0  0  0  0  0  0  0
  146.9409  137.3279  156.4991 H   0  0  0  0  0  0  0  0  0  0  0  0
  148.0736  138.5247  157.1093 H   0  0  0  0  0  0  0  0  0  0  0  0
  1  2  1  0  0  0  0
  1 25  1  0  0  0  0
  1 26  1  0  0  0  0
  1 27  1  0  0  0  0
  2  3  1  0  0  0  0
  3 24  1  0  0  0  0
  3  4  2  0  0  0  0
  4  5  1  0  0  0  0
  4 28  1  0  0  0  0
  5  6  2  0  0  0  0
  5 29  1  0  0  0  0
  6  7  1  0  0  0  0
  6 14  1  0  0  0  0
  7  8  1  0  0  0  0
  7 30  1  0  0  0  0
  8  9  2  0  0  0  0
  8 10  1  0  0  0  0
 10 11  1  0  0  0  0
 10 12  1  0  0  0  0
 10 31  1  0  0  0  0
 11 32  1  0  0  0  0
 11 33  1  0  0  0  0
 11 34  1  0  0  0  0
 12 13  1  0  0  0  0
 13 35  1  0  0  0  0
 13 36  1  0  0  0  0
 13 37  1  0  0  0  0
 14 15  1  0  0  0  0
 14 24  2  0  0  0  0
 15 23  1  0  0  0  0
 15 16  1  0  0  0  0
 16 17  1  0  0  0  0
 16 38  1  0  0  0  0
 16 39  1  0  0  0  0
 17 18  1  0  0  0  0
 17 40  1  0  0  0  0
 17 41  1  0  0  0  0
 18 19  1  0  0  0  0
 18 22  1  0  0  0  0
 19 20  1  0  0  0  0
 19 21  2  0  0  0  0
 20 42  1  0  0  0  0
 20 43  1  0  0  0  0
 20 44  1  0  0  0  0
 22 23  1  0  0  0  0
 22 45  1  0  0  0  0
 22 46  1  0  0  0  0
 23 47  1  0  0  0  0
 23 48  1  0  0  0  0
M  END
> <s_m_source_file>
AV-unprocessed.smi

> <i_m_source_file_index>
1050

> <i_lp_mmshare_version>
43012

> <i_f3d_flags>
0

> <s_epik_input>
W0NIM11PYzFbY0hdW2NIXWMoW05IXUMoPU8pW0NASF0oW0NIM10pT1tDSDNdKWMobjEpTjJbQ0gyXVtDSDJdTihDKD1PKVtDSDNdKVtDSDJdW0NIMl0y

> <s_epik_cmdline>
J2VwaWtfcHl0aG9uJywgJy1waCcsICc3LjAnLCAnLXRuJywgJzgnLCAnLW1hJywgJzIwMCcsICctbWV0YWxfYmluZGluZycsICctaW1hZScsICc8aW5maWxlLm1hZT4nLCAnLW9tYWUnLCAnPG91dGZpbGUubWFlPic=

> <r_lp_tautomer_probability>
1

> <r_epik_Ionization_Penalty>
0.000150604

> <r_epik_Ionization_Penalty_Charging>
0

> <r_epik_Ionization_Penalty_Neutral>
0.000150604

> <r_epik_State_Penalty>
-0

> <r_epik_Charging_Adjusted_Penalty>
0

> <i_epik_Tot_Q>
0

> <i_epik_Tot_abs_Q>
0

> <r_epik_Metal_State_Penalty>
-0

> <b_epik_Metal_Only>
0

> <s_lp_Force_Field>
OPLS_2005

> <r_lp_Energy>
41.0836

> <b_lp_Chiralities_Consistent>
1

> <s_lp_Variant>
AV-unprocessed.smi:1050-2

> <Gold.Version>
5.8.1

> <Gold.Id.Protein>
6NUR|6NUR_protein|mol2

> <Gold.PLP.Fitness>
37.7013

> <Gold.PLP.PLP>
-31.1095

> <Gold.PLP.part.hbond>
-3.0000

> <Gold.PLP.part.metal>
0.0000

> <Gold.PLP.part.buried>
-4.6604

> <Gold.PLP.part.nonpolar>
-23.4883

> <Gold.PLP.part.repulsive>
0.1172

> <Gold.PLP.ligand.clash>
0.7179

> <Gold.PLP.ligand.torsion>
0.7269

> <Gold.PLP.Chemscore.Hbond>
2.7680

> <Gold.PLP.Chemscore.CHOScore>
0.0000

> <Gold.PLP.Chemscore.Metal>
0.0000

> <Gold.Chemscore.Hbonds>
donor molecule, donor type, donor heavy atom, donor atom, acceptor molecule, acceptor atom, score
      P1  H  6931  6943       L1     2  1.00
      P1  H  6934  6947       L1     2  0.74
      P1  H  7989  7998       L1    21  1.00

> <Gold.PLP.Chemscore.Internal.Correction>
0.4595

> <Gold.Rescore>
     Score         DG    S(hbond)    S(metal)    S(lipo)     H(rot)  DE(clash)    DE(int)     intcor
     15.59     -16.66       2.76        0.00      54.33       1.71       0.02       1.05       ----

> <Gold.Chemscore.Fitness>
15.5883

> <Gold.Chemscore.DG>
-16.6598

> <Gold.Chemscore.ZeroCoef>
-5.4800

> <Gold.Chemscore.Hbond>
2.7551

> <Gold.Chemscore.Metal>
0.0000

> <Gold.Chemscore.Lipo>
54.3314

> <Gold.Chemscore.Internal_Hbond>
0.0000

> <Gold.Chemscore.DEClash>
0.0176

> <Gold.Chemscore.DEInternal>
1.0540

> <Gold.Chemscore.Rot>
1.7106

> <Gold.Chemscore.Internal.Correction>
   9.000000E+99

> <Gold.Chemscore.Hbonds>
donor molecule, donor type, donor heavy atom, donor atom, acceptor molecule, acceptor atom, score
      P1  H  6931  6943       L1     2  0.37
      P1  H  6934  6947       L1     2  0.59
      P1  H  7989  7998       L1    21  0.25

> <Gold.Chemscore.Hbond.Weighted>
-9.2021

> <Gold.Chemscore.Metal.Weighted>
-0.0000

> <Gold.Chemscore.Lipo.Weighted>
-6.3568

> <Gold.Chemscore.Internal_Hbond.Weighted>
0.0000

> <Gold.Chemscore.DEClash.Weighted>
0.0176

> <Gold.Chemscore.DEInternal.Weighted>
1.0540

> <Gold.Chemscore.Rot.Weighted>
4.3790

> <Gold.Chemscore.Internal.Correction.Weighted>
   9.000000E+99

> <Gold.Protein.RotatedTorsions>
[ 6907 6896 6895 6894 ] final   72.68 input  -60.11 | X-H torsion
[ 7974 7965 7964 7962 ] final -135.43 input  175.53 | X-H torsion
[ 8008 7997 7996 7995 ] final -140.32 input   59.86 | X-H torsion
[ 10167 10162 10161 10158 ] final -115.27 input  -65.29 | X-H torsion
[ 10718 10713 10712 10709 ] final  -35.90 input   66.30 | X-H torsion
[ 10763 10752 10751 10750 ] final  -71.61 input  -60.55 | X-H torsion
[ 11005 11000 10999 10996 ] final  116.57 input  -57.11 | X-H torsion

> <Gold.Protein.ActiveResidues>
 VAL166  LYS551  ARG553  GLY616  TRP617  ASP618  TYR619  PRO620  LYS621  CYS622 
 ASP623  PHE694  ASN695  SER759  ASP760  ASP761  ALA762  ILE779  LEU786  VAL792 
 PHE793  MET794  SER795  GLU796  ALA797  LYS798  CYS799  TRP800  GLU811  SER814 

> <Gold.Protein.RotatedAtoms>
  152.4881  134.4535  159.9581 H   0  0  0  0  0  0  0  0  0  0  0  0  # atno 6907 bound_to 6896
  151.4527  133.3607  159.2805 H   0  0  0  0  0  0  0  0  0  0  0  0  # atno 6908 bound_to 6896
  150.9010  134.8447  159.7420 H   0  0  0  0  0  0  0  0  0  0  0  0  # atno 6909 bound_to 6896
  144.9014  140.6777  143.5082 H   0  0  0  0  0  0  0  0  0  0  0  0  # atno 7974 bound_to 7965
  155.4594  140.0544  157.2992 H   0  0  0  0  0  0  0  0  0  0  0  0  # atno 8008 bound_to 7997
  154.4744  140.2054  155.9870 H   0  0  0  0  0  0  0  0  0  0  0  0  # atno 8009 bound_to 7997
  156.1108  140.3204  155.8074 H   0  0  0  0  0  0  0  0  0  0  0  0  # atno 8010 bound_to 7997
  140.0919  143.4691  152.1864 H   0  0  0  0  0  0  0  0  0  0  0  0  # atno 10167 bound_to 10162
  156.3332  130.4282  149.7853 H   0  0  0  0  0  0  0  0  0  0  0  0  # atno 10718 bound_to 10713
  154.4342  135.5956  153.6088 H   0  0  0  0  0  0  0  0  0  0  0  0  # atno 10763 bound_to 10752
  152.9801  135.5982  154.3802 H   0  0  0  0  0  0  0  0  0  0  0  0  # atno 10764 bound_to 10752
  154.3644  135.2841  155.2280 H   0  0  0  0  0  0  0  0  0  0  0  0  # atno 10765 bound_to 10752
  139.9045  134.9599  156.7218 H   0  0  0  0  0  0  0  0  0  0  0  0  # atno 11005 bound_to 11000
  145.3609  139.1682  143.4384 LP  0  0  0  0  0  0  0  0  0  0  0  0  # atno 17320 bound_to 7965
  146.3110  140.3671  142.8670 LP  0  0  0  0  0  0  0  0  0  0  0  0  # atno 17321 bound_to 7965
  139.5720  144.7467  151.3866 LP  0  0  0  0  0  0  0  0  0  0  0  0  # atno 17342 bound_to 10162
  140.7024  143.7599  150.7424 LP  0  0  0  0  0  0  0  0  0  0  0  0  # atno 17343 bound_to 10162
  156.5118  130.8175  151.3171 LP  0  0  0  0  0  0  0  0  0  0  0  0  # atno 17370 bound_to 10713
  157.7434  130.9911  150.2590 LP  0  0  0  0  0  0  0  0  0  0  0  0  # atno 17371 bound_to 10713
  140.6994  133.9319  155.8015 LP  0  0  0  0  0  0  0  0  0  0  0  0  # atno 17394 bound_to 11000
  141.0383  134.0658  157.3933 LP  0  0  0  0  0  0  0  0  0  0  0  0  # atno 17395 bound_to 11000

$$$$
