AV-unprocessed.smi:1459|AV-procd|sdf|5924|dock6
  -GOLD-   22720 6 03D 1   1.00000     0.00000
 Structure written by MMmdl.
 34 35  0  0  0  0  0  0  0  0  1 V2000
  150.8203  144.5944  158.7257 C   0  0  0  0  0  0  0  0  0  0  0  0
  151.5706  143.6574  159.6087 C   0  0  0  0  0  0  0  0  0  0  0  0
  152.8417  143.1575  159.5682 C   0  0  0  0  0  0  0  0  0  0  0  0
  152.8939  142.3219  160.7155 C   0  0  0  0  0  0  0  0  0  0  0  0
  154.0726  141.6022  161.0392 N   0  0  0  0  0  0  0  0  0  0  0  0
  154.7126  140.6944  160.2826 C   0  0  0  0  0  0  0  0  0  0  0  0
  154.3644  140.3394  159.1564 O   0  0  0  0  0  0  0  0  0  0  0  0
  155.7985  140.2192  160.9111 N   0  0  0  0  0  0  0  0  0  0  0  0
  156.7274  139.2205  160.3835 C   0  0  2  0  0  0  0  0  0  0  0  0
  157.1004  138.2482  161.5122 C   0  0  0  0  0  0  0  0  0  0  0  0
  157.9719  139.9055  159.7811 C   0  0  2  0  0  0  0  0  0  0  0  0
  158.6290  140.9584  160.6768 C   0  0  0  0  0  0  0  0  0  0  0  0
  159.3517  141.8149  159.6633 C   0  0  0  0  0  0  0  0  0  0  0  0
  158.3522  141.8391  158.5115 C   0  0  0  0  0  0  0  0  0  0  0  0
  157.6291  140.6131  158.5910 O   0  0  0  0  0  0  0  0  0  0  0  0
  151.7572  142.3126  161.3950 N   0  0  0  0  0  0  0  0  0  0  0  0
  150.9036  143.1687  160.6893 O   0  0  0  0  0  0  0  0  0  0  0  0
  151.4634  144.9876  157.9382 H   0  0  0  0  0  0  0  0  0  0  0  0
  150.4327  145.4379  159.2970 H   0  0  0  0  0  0  0  0  0  0  0  0
  149.9778  144.0888  158.2535 H   0  0  0  0  0  0  0  0  0  0  0  0
  153.6080  143.3593  158.8346 H   0  0  0  0  0  0  0  0  0  0  0  0
  154.4722  141.8005  161.9443 H   0  0  0  0  0  0  0  0  0  0  0  0
  156.0028  140.5770  161.8326 H   0  0  0  0  0  0  0  0  0  0  0  0
  156.2407  138.6394  159.5983 H   0  0  0  0  0  0  0  0  0  0  0  0
  157.7649  137.4620  161.1528 H   0  0  0  0  0  0  0  0  0  0  0  0
  156.2133  137.7631  161.9210 H   0  0  0  0  0  0  0  0  0  0  0  0
  157.6065  138.7622  162.3299 H   0  0  0  0  0  0  0  0  0  0  0  0
  158.7191  139.1562  159.5139 H   0  0  0  0  0  0  0  0  0  0  0  0
  157.8726  141.5520  161.1927 H   0  0  0  0  0  0  0  0  0  0  0  0
  159.2951  140.5279  161.4251 H   0  0  0  0  0  0  0  0  0  0  0  0
  159.5969  142.8095  160.0364 H   0  0  0  0  0  0  0  0  0  0  0  0
  160.2761  141.3272  159.3511 H   0  0  0  0  0  0  0  0  0  0  0  0
  157.6482  142.6626  158.6358 H   0  0  0  0  0  0  0  0  0  0  0  0
  158.8388  141.9526  157.5424 H   0  0  0  0  0  0  0  0  0  0  0  0
  1  2  1  0  0  0  0
  1 18  1  0  0  0  0
  1 19  1  0  0  0  0
  1 20  1  0  0  0  0
  2 17  1  0  0  0  0
  2  3  2  0  0  0  0
  3  4  1  0  0  0  0
  3 21  1  0  0  0  0
  4  5  1  0  0  0  0
  4 16  2  0  0  0  0
  5  6  1  0  0  0  0
  5 22  1  0  0  0  0
  6  7  2  0  0  0  0
  6  8  1  0  0  0  0
  8  9  1  0  0  0  0
  8 23  1  0  0  0  0
  9 10  1  0  0  0  0
  9 11  1  0  0  0  0
  9 24  1  0  0  0  0
 10 25  1  0  0  0  0
 10 26  1  0  0  0  0
 10 27  1  0  0  0  0
 11 15  1  0  0  0  0
 11 12  1  0  0  0  0
 11 28  1  0  0  0  0
 12 13  1  0  0  0  0
 12 29  1  0  0  0  0
 12 30  1  0  0  0  0
 13 14  1  0  0  0  0
 13 31  1  0  0  0  0
 13 32  1  0  0  0  0
 14 15  1  0  0  0  0
 14 33  1  0  0  0  0
 14 34  1  0  0  0  0
 16 17  1  0  0  0  0
M  END
> <s_m_source_file>
AV-unprocessed.smi

> <i_m_source_file_index>
1459

> <i_lp_mmshare_version>
43012

> <i_f3d_flags>
0

> <s_epik_input>
W0NIM11jMVtjSF1jKG5vMSlbTkhdQyg9TylbTkhdW0NASF0oW0NIM10pW0NAQEhdMltDSDJdW0NIMl1bQ0gyXU8y

> <s_epik_cmdline>
J2VwaWtfcHl0aG9uJywgJy1waCcsICc3LjAnLCAnLXRuJywgJzgnLCAnLW1hJywgJzIwMCcsICctbWV0YWxfYmluZGluZycsICctaW1hZScsICc8aW5maWxlLm1hZT4nLCAnLW9tYWUnLCAnPG91dGZpbGUubWFlPic=

> <r_lp_tautomer_probability>
1

> <r_epik_Ionization_Penalty>
2.20869e-05

> <r_epik_Ionization_Penalty_Charging>
0

> <r_epik_Ionization_Penalty_Neutral>
2.20869e-05

> <r_epik_State_Penalty>
-0

> <r_epik_Charging_Adjusted_Penalty>
0

> <i_epik_Tot_Q>
0

> <i_epik_Tot_abs_Q>
0

> <r_epik_Metal_State_Penalty>
-0

> <b_epik_Metal_Only>
0

> <s_lp_Force_Field>
OPLS_2005

> <r_lp_Energy>
15.5661

> <b_lp_Chiralities_Consistent>
1

> <s_lp_Variant>
AV-unprocessed.smi:1459-1

> <Gold.Version>
5.8.1

> <Gold.Id.Protein>
6NUR|6NUR_protein|mol2

> <Gold.PLP.Fitness>
33.3607

> <Gold.PLP.PLP>
-32.8143

> <Gold.PLP.part.hbond>
-5.2900

> <Gold.PLP.part.metal>
0.0000

> <Gold.PLP.part.buried>
-2.7060

> <Gold.PLP.part.nonpolar>
-25.7097

> <Gold.PLP.part.repulsive>
0.3663

> <Gold.PLP.ligand.clash>
0.0000

> <Gold.PLP.ligand.torsion>
0.9481

> <Gold.PLP.Chemscore.Hbond>
0.8115

> <Gold.PLP.Chemscore.CHOScore>
0.0000

> <Gold.PLP.Chemscore.Metal>
0.0000

> <Gold.Chemscore.Hbonds>
donor molecule, donor type, donor heavy atom, donor atom, acceptor molecule, acceptor atom, score
      P1  H  6933  6945       L1    16  0.06
      P1  H  7997  8009       L1     7  0.85

> <Gold.PLP.Chemscore.Internal.Correction>
0.0082

> <Gold.Rescore>
     Score         DG    S(hbond)    S(metal)    S(lipo)     H(rot)  DE(clash)    DE(int)     intcor
     12.50     -13.36       0.87        0.00      70.47       1.28       0.11       0.75       ----

> <Gold.Chemscore.Fitness>
12.5048

> <Gold.Chemscore.DG>
-13.3565

> <Gold.Chemscore.ZeroCoef>
-5.4800

> <Gold.Chemscore.Hbond>
0.8691

> <Gold.Chemscore.Metal>
0.0000

> <Gold.Chemscore.Lipo>
70.4654

> <Gold.Chemscore.Internal_Hbond>
0.0000

> <Gold.Chemscore.DEClash>
0.1064

> <Gold.Chemscore.DEInternal>
0.7452

> <Gold.Chemscore.Rot>
1.2776

> <Gold.Chemscore.Internal.Correction>
   9.000000E+99

> <Gold.Chemscore.Hbonds>
donor molecule, donor type, donor heavy atom, donor atom, acceptor molecule, acceptor atom, score
      P1  H  7997  8009       L1     7  0.83

> <Gold.Chemscore.Hbond.Weighted>
-2.9028

> <Gold.Chemscore.Metal.Weighted>
-0.0000

> <Gold.Chemscore.Lipo.Weighted>
-8.2445

> <Gold.Chemscore.Internal_Hbond.Weighted>
0.0000

> <Gold.Chemscore.DEClash.Weighted>
0.1064

> <Gold.Chemscore.DEInternal.Weighted>
0.7452

> <Gold.Chemscore.Rot.Weighted>
3.2707

> <Gold.Chemscore.Internal.Correction.Weighted>
   9.000000E+99

> <Gold.Protein.RotatedTorsions>
[ 6907 6896 6895 6894 ] final  127.05 input  -60.11 | X-H torsion
[ 7974 7965 7964 7962 ] final  -69.03 input  175.53 | X-H torsion
[ 8008 7997 7996 7995 ] final  124.20 input   59.86 | X-H torsion
[ 10167 10162 10161 10158 ] final  153.87 input  -65.29 | X-H torsion
[ 10718 10713 10712 10709 ] final -155.39 input   66.30 | X-H torsion
[ 10763 10752 10751 10750 ] final  -28.77 input  -60.55 | X-H torsion
[ 11005 11000 10999 10996 ] final   24.61 input  -57.11 | X-H torsion

> <Gold.Protein.ActiveResidues>
 VAL166  LYS551  ARG553  GLY616  TRP617  ASP618  TYR619  PRO620  LYS621  CYS622 
 ASP623  PHE694  ASN695  SER759  ASP760  ASP761  ALA762  ILE779  LEU786  VAL792 
 PHE793  MET794  SER795  GLU796  ALA797  LYS798  CYS799  TRP800  GLU811  SER814 

> <Gold.Protein.RotatedAtoms>
  152.3848  133.6596  159.6189 H   0  0  0  0  0  0  0  0  0  0  0  0  # atno 6907 bound_to 6896
  150.7770  133.9053  159.3362 H   0  0  0  0  0  0  0  0  0  0  0  0  # atno 6908 bound_to 6896
  151.6852  135.0957  160.0274 H   0  0  0  0  0  0  0  0  0  0  0  0  # atno 6909 bound_to 6896
  145.7090  140.9086  143.0691 H   0  0  0  0  0  0  0  0  0  0  0  0  # atno 7974 bound_to 7965
  156.2793  140.2745  156.1750 H   0  0  0  0  0  0  0  0  0  0  0  0  # atno 8008 bound_to 7997
  155.0615  140.0386  157.2596 H   0  0  0  0  0  0  0  0  0  0  0  0  # atno 8009 bound_to 7997
  154.7113  140.2669  155.6632 H   0  0  0  0  0  0  0  0  0  0  0  0  # atno 8010 bound_to 7997
  139.4825  144.5236  151.7837 H   0  0  0  0  0  0  0  0  0  0  0  0  # atno 10167 bound_to 10162
  156.5123  130.8440  151.2651 H   0  0  0  0  0  0  0  0  0  0  0  0  # atno 10718 bound_to 10713
  153.7537  135.6924  153.4940 H   0  0  0  0  0  0  0  0  0  0  0  0  # atno 10763 bound_to 10752
  153.1986  135.4445  155.0237 H   0  0  0  0  0  0  0  0  0  0  0  0  # atno 10764 bound_to 10752
  154.8178  135.3407  154.7056 H   0  0  0  0  0  0  0  0  0  0  0  0  # atno 10765 bound_to 10752
  140.3569  134.2168  155.7675 H   0  0  0  0  0  0  0  0  0  0  0  0  # atno 11005 bound_to 11000
  144.6947  139.9049  143.7460 LP  0  0  0  0  0  0  0  0  0  0  0  0  # atno 17320 bound_to 7965
  146.0730  139.3718  143.0511 LP  0  0  0  0  0  0  0  0  0  0  0  0  # atno 17321 bound_to 7965
  140.4753  144.1528  150.5924 LP  0  0  0  0  0  0  0  0  0  0  0  0  # atno 17342 bound_to 10162
  140.4337  143.2556  151.9562 LP  0  0  0  0  0  0  0  0  0  0  0  0  # atno 17343 bound_to 10162
  157.7449  130.9945  150.2712 LP  0  0  0  0  0  0  0  0  0  0  0  0  # atno 17370 bound_to 10713
  156.3229  130.3788  149.7559 LP  0  0  0  0  0  0  0  0  0  0  0  0  # atno 17371 bound_to 10713
  141.1996  133.8008  157.0530 LP  0  0  0  0  0  0  0  0  0  0  0  0  # atno 17394 bound_to 11000
  140.0658  134.9730  157.1383 LP  0  0  0  0  0  0  0  0  0  0  0  0  # atno 17395 bound_to 11000

$$$$
