AV-unprocessed.smi:3187|AV-procd|sdf|12175|dock1
  -GOLD-   2272018 13D 1   1.00000     0.00000
 Structure written by MMmdl.
 41 42  0  0  0  0  0  0  0  0  2 V2000
  151.7836  144.6786  157.7788 C   0  0  0  0  0  0  0  0  0  0  0  0
  152.0454  143.9992  159.1132 C   0  0  0  0  0  0  0  0  0  0  0  0
  151.9301  144.6830  160.2688 C   0  0  0  0  0  0  0  0  0  0  0  0
  152.2239  144.1140  161.6460 C   0  0  0  0  0  0  0  0  0  0  0  0
  152.4950  142.6008  161.6295 C   0  0  0  0  0  0  0  0  0  0  0  0
  153.2812  142.1835  160.3748 C   0  0  1  0  0  0  0  0  0  0  0  0
  153.7650  140.7252  160.4541 C   0  0  0  0  0  0  0  0  0  0  0  0
  152.4910  142.5308  159.0810 C   0  0  1  0  0  0  0  0  0  0  0  0
  151.3070  141.5634  158.8175 C   0  0  0  0  0  0  0  0  0  0  0  0
  150.6552  141.7937  157.5133 N   0  3  0  0  0  0  0  0  0  0  0  0
  150.5654  140.5909  156.6636 C   0  0  0  0  0  0  0  0  0  0  0  0
  150.3147  140.9688  155.1976 C   0  0  0  0  0  0  0  0  0  0  0  0
  148.8979  141.0147  154.8984 N   0  0  0  0  0  0  0  0  0  0  0  0
  148.2269  140.3104  153.9074 C   0  0  0  0  0  0  0  0  0  0  0  0
  146.9026  140.6771  153.9930 C   0  0  0  0  0  0  0  0  0  0  0  0
  146.7380  141.6002  155.0229 N   0  0  0  0  0  0  0  0  0  0  0  0
  147.9612  141.7497  155.5136 C   0  0  0  0  0  0  0  0  0  0  0  0
  152.5990  144.4823  157.0822 H   0  0  0  0  0  0  0  0  0  0  0  0
  151.7063  145.7598  157.8990 H   0  0  0  0  0  0  0  0  0  0  0  0
  150.8513  144.3375  157.3320 H   0  0  0  0  0  0  0  0  0  0  0  0
  151.6380  145.7230  160.2468 H   0  0  0  0  0  0  0  0  0  0  0  0
  153.0974  144.6378  162.0351 H   0  0  0  0  0  0  0  0  0  0  0  0
  151.3959  144.3406  162.3183 H   0  0  0  0  0  0  0  0  0  0  0  0
  153.0396  142.3226  162.5327 H   0  0  0  0  0  0  0  0  0  0  0  0
  151.5501  142.0584  161.6700 H   0  0  0  0  0  0  0  0  0  0  0  0
  154.1878  142.7912  160.3567 H   0  0  0  0  0  0  0  0  0  0  0  0
  152.9439  140.0305  160.6306 H   0  0  0  0  0  0  0  0  0  0  0  0
  154.4721  140.5982  161.2743 H   0  0  0  0  0  0  0  0  0  0  0  0
  154.2726  140.4269  159.5367 H   0  0  0  0  0  0  0  0  0  0  0  0
  153.1946  142.4284  158.2533 H   0  0  0  0  0  0  0  0  0  0  0  0
  151.6466  140.5287  158.8204 H   0  0  0  0  0  0  0  0  0  0  0  0
  150.5612  141.6560  159.6075 H   0  0  0  0  0  0  0  0  0  0  0  0
  149.7207  142.1377  157.6822 H   0  0  0  0  0  0  0  0  0  0  0  0
  151.4913  140.0207  156.7504 H   0  0  0  0  0  0  0  0  0  0  0  0
  149.7578  139.9540  157.0271 H   0  0  0  0  0  0  0  0  0  0  0  0
  150.7482  141.9447  154.9741 H   0  0  0  0  0  0  0  0  0  0  0  0
  150.7879  140.2487  154.5284 H   0  0  0  0  0  0  0  0  0  0  0  0
  148.7315  139.6262  153.2409 H   0  0  0  0  0  0  0  0  0  0  0  0
  146.0627  140.3518  153.3972 H   0  0  0  0  0  0  0  0  0  0  0  0
  148.1813  142.4121  156.3380 H   0  0  0  0  0  0  0  0  0  0  0  0
  151.1756  142.5024  157.0159 H   0  0  0  0  0  0  0  0  0  0  0  0
  1  2  1  0  0  0  0
  1 18  1  0  0  0  0
  1 19  1  0  0  0  0
  1 20  1  0  0  0  0
  2  8  1  0  0  0  0
  2  3  2  0  0  0  0
  3  4  1  0  0  0  0
  3 21  1  0  0  0  0
  4  5  1  0  0  0  0
  4 22  1  0  0  0  0
  4 23  1  0  0  0  0
  5  6  1  0  0  0  0
  5 24  1  0  0  0  0
  5 25  1  0  0  0  0
  6  7  1  0  0  0  0
  6  8  1  0  0  0  0
  6 26  1  0  0  0  0
  7 27  1  0  0  0  0
  7 28  1  0  0  0  0
  7 29  1  0  0  0  0
  8  9  1  0  0  0  0
  8 30  1  0  0  0  0
  9 10  1  0  0  0  0
  9 31  1  0  0  0  0
  9 32  1  0  0  0  0
 10 11  1  0  0  0  0
 10 33  1  0  0  0  0
 10 41  1  0  0  0  0
 11 12  1  0  0  0  0
 11 34  1  0  0  0  0
 11 35  1  0  0  0  0
 12 13  1  0  0  0  0
 12 36  1  0  0  0  0
 12 37  1  0  0  0  0
 13 17  1  0  0  0  0
 13 14  1  0  0  0  0
 14 15  2  0  0  0  0
 14 38  1  0  0  0  0
 15 16  1  0  0  0  0
 15 39  1  0  0  0  0
 16 17  2  0  0  0  0
 17 40  1  0  0  0  0
M  CHG  1  10   1
M  END
> <s_m_source_file>
AV-unprocessed.smi

> <i_m_source_file_index>
3187

> <i_lp_mmshare_version>
43012

> <i_f3d_flags>
0

> <s_epik_input>
W0NIM11DMT1bQ0hdW0NIMl1bQ0gyXVtDQEBIXShbQ0gzXSlbQ0BIXTFbQ0gyXVtOSF1bQ0gyXVtDSDJdbjJbY0hdW2NIXW5bY0hdMg==

> <s_epik_cmdline>
J2VwaWtfcHl0aG9uJywgJy1waCcsICc3LjAnLCAnLXRuJywgJzgnLCAnLW1hJywgJzIwMCcsICctbWV0YWxfYmluZGluZycsICctaW1hZScsICc8aW5maWxlLm1hZT4nLCAnLW9tYWUnLCAnPG91dGZpbGUubWFlPic=

> <r_lp_tautomer_probability>
1

> <r_epik_Ionization_Penalty>
0.0501625

> <r_epik_Ionization_Penalty_Charging>
0.0501625

> <r_epik_Ionization_Penalty_Neutral>
0

> <r_epik_State_Penalty>
0.0972392

> <r_epik_Charging_Adjusted_Penalty>
0.147402

> <i_epik_Tot_Q>
1

> <i_epik_Tot_abs_Q>
1

> <r_epik_Metal_State_Penalty>
0.000104376

> <b_epik_Metal_Only>
0

> <s_lp_Force_Field>
OPLS_2005

> <r_lp_Energy>
16.942

> <b_lp_Chiralities_Consistent>
1

> <s_lp_Variant>
AV-unprocessed.smi:3187-1

> <Gold.Version>
5.8.1

> <Gold.Id.Protein>
6NUR|6NUR_protein|mol2

> <Gold.PLP.Fitness>
49.8555

> <Gold.PLP.PLP>
-43.1328

> <Gold.PLP.part.hbond>
0.0000

> <Gold.PLP.part.metal>
0.0000

> <Gold.PLP.part.buried>
-2.2934

> <Gold.PLP.part.nonpolar>
-40.5116

> <Gold.PLP.part.repulsive>
0.1361

> <Gold.PLP.ligand.clash>
0.0000

> <Gold.PLP.ligand.torsion>
0.6756

> <Gold.PLP.Chemscore.Hbond>
0.0000

> <Gold.PLP.Chemscore.CHOScore>
2.6632

> <Gold.PLP.Chemscore.Metal>
0.0000

> <Gold.Chemscore.Hbonds>
donor molecule, donor type, donor heavy atom, donor atom, acceptor molecule, acceptor atom, score
      L1  C    14    38       P1  7957  0.98
      L1  C    15    39       P1 10175  0.94
      L1  C    17    40       P1  8028  0.69

> <Gold.PLP.Chemscore.Internal.Correction>
0.0844

> <Gold.Rescore>
     Score         DG    S(hbond)    S(metal)    S(lipo)     H(rot)  DE(clash)    DE(int)     intcor
     14.58     -15.40       0.00        0.00     126.07       1.89       0.20       0.63       ----

> <Gold.Chemscore.Fitness>
14.5829

> <Gold.Chemscore.DG>
-15.4035

> <Gold.Chemscore.ZeroCoef>
-5.4800

> <Gold.Chemscore.Hbond>
0.0000

> <Gold.Chemscore.Metal>
0.0000

> <Gold.Chemscore.Lipo>
126.0660

> <Gold.Chemscore.Internal_Hbond>
0.0000

> <Gold.Chemscore.DEClash>
0.1955

> <Gold.Chemscore.DEInternal>
0.6251

> <Gold.Chemscore.Rot>
1.8853

> <Gold.Chemscore.Internal.Correction>
   9.000000E+99

> <Gold.Chemscore.Hbond.Weighted>
-0.0000

> <Gold.Chemscore.Metal.Weighted>
-0.0000

> <Gold.Chemscore.Lipo.Weighted>
-14.7497

> <Gold.Chemscore.Internal_Hbond.Weighted>
0.0000

> <Gold.Chemscore.DEClash.Weighted>
0.1955

> <Gold.Chemscore.DEInternal.Weighted>
0.6251

> <Gold.Chemscore.Rot.Weighted>
4.8263

> <Gold.Chemscore.Internal.Correction.Weighted>
   9.000000E+99

> <Gold.Protein.RotatedTorsions>
[ 6907 6896 6895 6894 ] final  -58.04 input  -60.11 | X-H torsion
[ 7974 7965 7964 7962 ] final   44.70 input  175.53 | X-H torsion
[ 8008 7997 7996 7995 ] final   43.30 input   59.86 | X-H torsion
[ 10167 10162 10161 10158 ] final   -4.70 input  -65.29 | X-H torsion
[ 10718 10713 10712 10709 ] final  176.05 input   66.30 | X-H torsion
[ 10763 10752 10751 10750 ] final  172.35 input  -60.55 | X-H torsion
[ 11005 11000 10999 10996 ] final   33.78 input  -57.11 | X-H torsion

> <Gold.Protein.ActiveResidues>
 VAL166  LYS551  ARG553  GLY616  TRP617  ASP618  TYR619  PRO620  LYS621  CYS622 
 ASP623  PHE694  ASN695  SER759  ASP760  ASP761  ALA762  ILE779  LEU786  VAL792 
 PHE793  MET794  SER795  GLU796  ALA797  LYS798  CYS799  TRP800  GLU811  SER814 

> <Gold.Protein.RotatedAtoms>
  150.8038  134.7149  159.6624 H   0  0  0  0  0  0  0  0  0  0  0  0  # atno 6907 bound_to 6896
  152.4156  134.6043  160.0018 H   0  0  0  0  0  0  0  0  0  0  0  0  # atno 6908 bound_to 6896
  151.6273  133.3297  159.3137 H   0  0  0  0  0  0  0  0  0  0  0  0  # atno 6909 bound_to 6896
  146.0545  139.5045  142.9697 H   0  0  0  0  0  0  0  0  0  0  0  0  # atno 7974 bound_to 7965
  155.3004  140.3384  155.4248 H   0  0  0  0  0  0  0  0  0  0  0  0  # atno 8008 bound_to 7997
  156.2004  140.1731  156.7950 H   0  0  0  0  0  0  0  0  0  0  0  0  # atno 8009 bound_to 7997
  154.5552  140.0698  156.8715 H   0  0  0  0  0  0  0  0  0  0  0  0  # atno 8010 bound_to 7997
  140.6937  143.6394  150.8450 H   0  0  0  0  0  0  0  0  0  0  0  0  # atno 10167 bound_to 10162
  156.9258  130.9955  151.2996 H   0  0  0  0  0  0  0  0  0  0  0  0  # atno 10718 bound_to 10713
  154.4248  135.2758  155.1951 H   0  0  0  0  0  0  0  0  0  0  0  0  # atno 10763 bound_to 10752
  154.3882  135.6072  153.5832 H   0  0  0  0  0  0  0  0  0  0  0  0  # atno 10764 bound_to 10752
  152.9834  135.5897  154.4550 H   0  0  0  0  0  0  0  0  0  0  0  0  # atno 10765 bound_to 10752
  140.2596  134.3208  155.7862 H   0  0  0  0  0  0  0  0  0  0  0  0  # atno 11005 bound_to 11000
  145.6667  141.0227  143.1679 LP  0  0  0  0  0  0  0  0  0  0  0  0  # atno 17320 bound_to 7965
  144.7140  139.8263  143.7405 LP  0  0  0  0  0  0  0  0  0  0  0  0  # atno 17321 bound_to 7965
  140.0109  143.5643  152.2839 LP  0  0  0  0  0  0  0  0  0  0  0  0  # atno 17342 bound_to 10162
  139.6367  144.7650  151.2424 LP  0  0  0  0  0  0  0  0  0  0  0  0  # atno 17343 bound_to 10162
  157.5878  130.8422  149.8615 LP  0  0  0  0  0  0  0  0  0  0  0  0  # atno 17370 bound_to 10713
  156.0470  130.3726  150.1294 LP  0  0  0  0  0  0  0  0  0  0  0  0  # atno 17371 bound_to 10713
  141.2192  133.7401  156.9165 LP  0  0  0  0  0  0  0  0  0  0  0  0  # atno 17394 bound_to 11000
  140.1478  134.9250  157.2552 LP  0  0  0  0  0  0  0  0  0  0  0  0  # atno 17395 bound_to 11000

$$$$
