AV-unprocessed.smi:409|AV-procd|sdf|2505|dock1
  -GOLD-   2262022453D 1   1.00000     0.00000
 Structure written by MMmdl.
 35 36  0  0  0  0  0  0  0  0  1 V2000
  150.1553  140.5337  157.7420 O   0  0  0  0  0  0  0  0  0  0  0  0
  150.8673  141.1957  156.9851 C   0  0  0  0  0  0  0  0  0  0  0  0
  151.1775  140.7010  155.5652 C   0  0  0  0  0  0  0  0  0  0  0  0
  149.9750  140.3039  154.8182 N   0  0  0  0  0  0  0  0  0  0  0  0
  148.8742  141.1472  154.7635 C   0  0  0  0  0  0  0  0  0  0  0  0
  147.7316  140.8399  154.1051 C   0  0  0  0  0  0  0  0  0  0  0  0
  147.6034  139.5680  153.4020 C   0  0  0  0  0  0  0  0  0  0  0  0
  146.6113  139.1999  152.7771 O   0  0  0  0  0  0  0  0  0  0  0  0
  148.7308  138.7465  153.4821 N   0  0  0  0  0  0  0  0  0  0  0  0
  149.9108  139.0563  154.1603 C   0  0  0  0  0  0  0  0  0  0  0  0
  150.8456  138.2562  154.1716 O   0  0  0  0  0  0  0  0  0  0  0  0
  151.3957  142.3816  157.3242 N   0  0  0  0  0  0  0  0  0  0  0  0
  151.2281  143.0433  158.6143 C   0  0  0  0  0  0  0  0  0  0  0  0
  150.8069  144.5152  158.4217 C   0  0  0  0  0  0  0  0  0  0  0  0
  150.7006  145.2502  159.7677 C   0  0  0  0  0  0  0  0  0  0  0  0
  152.0121  145.1521  160.5628 C   0  0  0  0  0  0  0  0  0  0  0  0
  152.4314  143.6872  160.7612 C   0  0  0  0  0  0  0  0  0  0  0  0
  152.5405  142.9513  159.4159 C   0  0  0  0  0  0  0  0  0  0  0  0
  148.6874  137.8536  153.0128 H   0  0  0  0  0  0  0  0  0  0  0  0
  151.7043  141.4973  155.0375 H   0  0  0  0  0  0  0  0  0  0  0  0
  151.8837  139.8692  155.6092 H   0  0  0  0  0  0  0  0  0  0  0  0
  148.9222  142.0987  155.2741 H   0  0  0  0  0  0  0  0  0  0  0  0
  146.9076  141.5387  154.0998 H   0  0  0  0  0  0  0  0  0  0  0  0
  151.9627  142.8595  156.6388 H   0  0  0  0  0  0  0  0  0  0  0  0
  150.4508  142.5250  159.1795 H   0  0  0  0  0  0  0  0  0  0  0  0
  151.5323  145.0270  157.7874 H   0  0  0  0  0  0  0  0  0  0  0  0
  149.8500  144.5698  157.9013 H   0  0  0  0  0  0  0  0  0  0  0  0
  150.4450  146.2968  159.6002 H   0  0  0  0  0  0  0  0  0  0  0  0
  149.8855  144.8227  160.3526 H   0  0  0  0  0  0  0  0  0  0  0  0
  152.8007  145.6902  160.0353 H   0  0  0  0  0  0  0  0  0  0  0  0
  151.8982  145.6413  161.5306 H   0  0  0  0  0  0  0  0  0  0  0  0
  153.3852  143.6420  161.2879 H   0  0  0  0  0  0  0  0  0  0  0  0
  151.7030  143.1813  161.3962 H   0  0  0  0  0  0  0  0  0  0  0  0
  152.7999  141.9063  159.5902 H   0  0  0  0  0  0  0  0  0  0  0  0
  153.3594  143.3806  158.8366 H   0  0  0  0  0  0  0  0  0  0  0  0
  1  2  2  0  0  0  0
  2  3  1  0  0  0  0
  2 12  1  0  0  0  0
  3  4  1  0  0  0  0
  3 20  1  0  0  0  0
  3 21  1  0  0  0  0
  4 10  1  0  0  0  0
  4  5  1  0  0  0  0
  5  6  2  0  0  0  0
  5 22  1  0  0  0  0
  6  7  1  0  0  0  0
  6 23  1  0  0  0  0
  7  8  2  0  0  0  0
  7  9  1  0  0  0  0
  9 19  1  0  0  0  0
  9 10  1  0  0  0  0
 10 11  2  0  0  0  0
 12 13  1  0  0  0  0
 12 24  1  0  0  0  0
 13 18  1  0  0  0  0
 13 14  1  0  0  0  0
 13 25  1  0  0  0  0
 14 15  1  0  0  0  0
 14 26  1  0  0  0  0
 14 27  1  0  0  0  0
 15 16  1  0  0  0  0
 15 28  1  0  0  0  0
 15 29  1  0  0  0  0
 16 17  1  0  0  0  0
 16 30  1  0  0  0  0
 16 31  1  0  0  0  0
 17 18  1  0  0  0  0
 17 32  1  0  0  0  0
 17 33  1  0  0  0  0
 18 34  1  0  0  0  0
 18 35  1  0  0  0  0
M  END
> <s_m_source_file>
AV-unprocessed.smi

> <i_m_source_file_index>
409

> <i_lp_mmshare_version>
43012

> <i_f3d_flags>
0

> <s_epik_input>
W0NIMl0xW0NIMl1bQ0gyXVtDSDJdW0NIMl1bQ0hdMVtOSF1DKD1PKVtDSDJdbjJbY0hdW2NIXWMoPU8pW25IXWMyPU8=

> <s_epik_cmdline>
J2VwaWtfcHl0aG9uJywgJy1waCcsICc3LjAnLCAnLXRuJywgJzgnLCAnLW1hJywgJzIwMCcsICctbWV0YWxfYmluZGluZycsICctaW1hZScsICc8aW5maWxlLm1hZT4nLCAnLW9tYWUnLCAnPG91dGZpbGUubWFlPic=

> <r_lp_tautomer_probability>
0.999537

> <r_epik_Ionization_Penalty>
0.00309578

> <r_epik_Ionization_Penalty_Charging>
0.00309576

> <r_epik_Ionization_Penalty_Neutral>
1.90469e-08

> <r_epik_State_Penalty>
0.00217825

> <r_epik_Charging_Adjusted_Penalty>
0.00527401

> <i_epik_Tot_Q>
0

> <i_epik_Tot_abs_Q>
0

> <r_epik_Metal_State_Penalty>
0.362603

> <b_epik_Metal_Only>
0

> <s_lp_Force_Field>
OPLS_2005

> <r_lp_Energy>
8.21917

> <b_lp_Chiralities_Consistent>
1

> <s_lp_Variant>
AV-unprocessed.smi:409-1

> <Gold.Version>
5.8.1

> <Gold.Id.Protein>
6NUR|6NUR_protein|mol2

> <Gold.PLP.Fitness>
44.0419

> <Gold.PLP.PLP>
-39.5209

> <Gold.PLP.part.hbond>
-1.9330

> <Gold.PLP.part.metal>
0.0000

> <Gold.PLP.part.buried>
-2.0865

> <Gold.PLP.part.nonpolar>
-36.3512

> <Gold.PLP.part.repulsive>
1.0881

> <Gold.PLP.ligand.clash>
0.0000

> <Gold.PLP.ligand.torsion>
0.3136

> <Gold.PLP.Chemscore.Hbond>
0.8613

> <Gold.PLP.Chemscore.CHOScore>
0.8516

> <Gold.PLP.Chemscore.Metal>
0.0000

> <Gold.Chemscore.Hbonds>
donor molecule, donor type, donor heavy atom, donor atom, acceptor molecule, acceptor atom, score
      L1  H     9    19       P1  7948  1.00
      L1  C     5    22       P1  8028  0.72

> <Gold.PLP.Chemscore.Internal.Correction>
0.0094

> <Gold.Rescore>
     Score         DG    S(hbond)    S(metal)    S(lipo)     H(rot)  DE(clash)    DE(int)     intcor
     13.91     -14.57       0.98        0.00      86.91       1.70       0.31       0.35       ----

> <Gold.Chemscore.Fitness>
13.9116

> <Gold.Chemscore.DG>
-14.5676

> <Gold.Chemscore.ZeroCoef>
-5.4800

> <Gold.Chemscore.Hbond>
0.9805

> <Gold.Chemscore.Metal>
0.0000

> <Gold.Chemscore.Lipo>
86.9127

> <Gold.Chemscore.Internal_Hbond>
0.0000

> <Gold.Chemscore.DEClash>
0.3064

> <Gold.Chemscore.DEInternal>
0.3496

> <Gold.Chemscore.Rot>
1.7015

> <Gold.Chemscore.Internal.Correction>
   9.000000E+99

> <Gold.Chemscore.Hbonds>
donor molecule, donor type, donor heavy atom, donor atom, acceptor molecule, acceptor atom, score
      L1  H     9    19       P1  7948  0.97

> <Gold.Chemscore.Hbond.Weighted>
-3.2747

> <Gold.Chemscore.Metal.Weighted>
-0.0000

> <Gold.Chemscore.Lipo.Weighted>
-10.1688

> <Gold.Chemscore.Internal_Hbond.Weighted>
0.0000

> <Gold.Chemscore.DEClash.Weighted>
0.3064

> <Gold.Chemscore.DEInternal.Weighted>
0.3496

> <Gold.Chemscore.Rot.Weighted>
4.3559

> <Gold.Chemscore.Internal.Correction.Weighted>
   9.000000E+99

> <Gold.Protein.RotatedTorsions>
[ 6907 6896 6895 6894 ] final -126.40 input  -60.11 | X-H torsion
[ 7974 7965 7964 7962 ] final  165.63 input  175.53 | X-H torsion
[ 8008 7997 7996 7995 ] final  173.27 input   59.86 | X-H torsion
[ 10167 10162 10161 10158 ] final   54.00 input  -65.29 | X-H torsion
[ 10718 10713 10712 10709 ] final  161.56 input   66.30 | X-H torsion
[ 10763 10752 10751 10750 ] final   39.11 input  -60.55 | X-H torsion
[ 11005 11000 10999 10996 ] final   51.78 input  -57.11 | X-H torsion

> <Gold.Protein.ActiveResidues>
 VAL166  LYS551  ARG553  GLY616  TRP617  ASP618  TYR619  PRO620  LYS621  CYS622 
 ASP623  PHE694  ASN695  SER759  ASP760  ASP761  ALA762  ILE779  LEU786  VAL792 
 PHE793  MET794  SER795  GLU796  ALA797  LYS798  CYS799  TRP800  GLU811  SER814 

> <Gold.Protein.RotatedAtoms>
  150.8965  133.7174  159.2890 H   0  0  0  0  0  0  0  0  0  0  0  0  # atno 6907 bound_to 6896
  151.4707  135.1044  159.9760 H   0  0  0  0  0  0  0  0  0  0  0  0  # atno 6908 bound_to 6896
  152.4851  133.8306  159.7156 H   0  0  0  0  0  0  0  0  0  0  0  0  # atno 6909 bound_to 6896
  144.7494  139.8499  143.6371 H   0  0  0  0  0  0  0  0  0  0  0  0  # atno 7974 bound_to 7965
  156.1092  140.1464  156.9362 H   0  0  0  0  0  0  0  0  0  0  0  0  # atno 8008 bound_to 7997
  154.4755  140.0896  156.7294 H   0  0  0  0  0  0  0  0  0  0  0  0  # atno 8009 bound_to 7997
  155.4627  140.3439  155.4317 H   0  0  0  0  0  0  0  0  0  0  0  0  # atno 8010 bound_to 7997
  140.2348  144.3648  150.6401 H   0  0  0  0  0  0  0  0  0  0  0  0  # atno 10167 bound_to 10162
  157.1348  131.0526  151.2354 H   0  0  0  0  0  0  0  0  0  0  0  0  # atno 10718 bound_to 10713
  152.9978  135.6230  154.2413 H   0  0  0  0  0  0  0  0  0  0  0  0  # atno 10763 bound_to 10752
  154.2153  135.2798  155.2945 H   0  0  0  0  0  0  0  0  0  0  0  0  # atno 10764 bound_to 10752
  154.5573  135.5715  153.7034 H   0  0  0  0  0  0  0  0  0  0  0  0  # atno 10765 bound_to 10752
  140.0904  134.5217  155.8857 H   0  0  0  0  0  0  0  0  0  0  0  0  # atno 11005 bound_to 11000
  146.1423  139.4484  143.0101 LP  0  0  0  0  0  0  0  0  0  0  0  0  # atno 17320 bound_to 7965
  145.6998  141.0139  143.1510 LP  0  0  0  0  0  0  0  0  0  0  0  0  # atno 17321 bound_to 7965
  140.6158  143.2172  151.6794 LP  0  0  0  0  0  0  0  0  0  0  0  0  # atno 17342 bound_to 10162
  139.5097  144.3566  152.0602 LP  0  0  0  0  0  0  0  0  0  0  0  0  # atno 17343 bound_to 10162
  157.4360  130.7517  149.7029 LP  0  0  0  0  0  0  0  0  0  0  0  0  # atno 17370 bound_to 10713
  155.9800  130.4034  150.3552 LP  0  0  0  0  0  0  0  0  0  0  0  0  # atno 17371 bound_to 10713
  141.2076  133.6666  156.6316 LP  0  0  0  0  0  0  0  0  0  0  0  0  # atno 17394 bound_to 11000
  140.3360  134.7889  157.4362 LP  0  0  0  0  0  0  0  0  0  0  0  0  # atno 17395 bound_to 11000

$$$$
