AV-unprocessed.smi:2145|AV-procd|sdf|8737|dock5
  -GOLD-   2272011513D 1   1.00000     0.00000
 Structure written by MMmdl.
 45 47  0  0  0  0  0  0  0  0  2 V2000
  145.6947  133.5571  163.7395 C   0  0  0  0  0  0  0  0  0  0  0  0
  146.4968  133.2179  162.4843 C   0  0  0  0  0  0  0  0  0  0  0  0
  146.3766  132.0967  161.9911 O   0  0  0  0  0  0  0  0  0  0  0  0
  147.3872  134.2726  161.9215 C   0  0  0  0  0  0  0  0  0  0  0  0
  147.8338  135.3219  162.7553 C   0  0  0  0  0  0  0  0  0  0  0  0
  148.6757  136.3300  162.2489 C   0  0  0  0  0  0  0  0  0  0  0  0
  149.0929  136.3155  160.9037 C   0  0  0  0  0  0  0  0  0  0  0  0
  149.9183  137.3400  160.4935 O   0  0  0  0  0  0  0  0  0  0  0  0
  150.2176  137.4530  159.1086 C   0  0  0  0  0  0  0  0  0  0  0  0
  151.2292  138.5937  158.9192 C   0  0  1  0  0  0  0  0  0  0  0  0
  152.5006  138.1357  159.3345 O   0  0  0  0  0  0  0  0  0  0  0  0
  151.3120  139.0551  157.4503 C   0  0  0  0  0  0  0  0  0  0  0  0
  151.1027  140.5038  157.2950 N   0  0  0  0  0  0  0  0  0  0  0  0
  150.3043  141.1810  156.4213 C   0  0  0  0  0  0  0  0  0  0  0  0
  149.4233  140.5854  155.3752 C   0  0  0  0  0  0  0  0  0  0  0  0
  150.4592  142.5103  156.6777 N   0  3  0  0  0  0  0  0  0  0  0  0
  151.3633  142.6866  157.7260 C   0  0  0  0  0  0  0  0  0  0  0  0
  151.8333  143.8449  158.3373 C   0  0  0  0  0  0  0  0  0  0  0  0
  152.7558  143.6750  159.3904 C   0  0  0  0  0  0  0  0  0  0  0  0
  153.1755  142.3924  159.7986 C   0  0  0  0  0  0  0  0  0  0  0  0
  152.6925  141.2253  159.1708 C   0  0  0  0  0  0  0  0  0  0  0  0
  151.7816  141.4012  158.1290 C   0  0  0  0  0  0  0  0  0  0  0  0
  148.6450  135.2656  160.0647 C   0  0  0  0  0  0  0  0  0  0  0  0
  147.8015  134.2566  160.5693 C   0  0  0  0  0  0  0  0  0  0  0  0
  146.3624  133.8066  164.5644 H   0  0  0  0  0  0  0  0  0  0  0  0
  145.0825  132.7071  164.0419 H   0  0  0  0  0  0  0  0  0  0  0  0
  145.0333  134.4034  163.5530 H   0  0  0  0  0  0  0  0  0  0  0  0
  147.5362  135.3657  163.7932 H   0  0  0  0  0  0  0  0  0  0  0  0
  149.0065  137.1237  162.9028 H   0  0  0  0  0  0  0  0  0  0  0  0
  150.6053  136.5179  158.6998 H   0  0  0  0  0  0  0  0  0  0  0  0
  149.2963  137.6949  158.5760 H   0  0  0  0  0  0  0  0  0  0  0  0
  150.9395  139.4418  159.5408 H   0  0  0  0  0  0  0  0  0  0  0  0
  152.3800  137.3607  159.8625 H   0  0  0  0  0  0  0  0  0  0  0  0
  152.2634  138.7740  156.9979 H   0  0  0  0  0  0  0  0  0  0  0  0
  150.5408  138.5574  156.8614 H   0  0  0  0  0  0  0  0  0  0  0  0
  148.8629  141.3634  154.8564 H   0  0  0  0  0  0  0  0  0  0  0  0
  148.7146  139.8923  155.8287 H   0  0  0  0  0  0  0  0  0  0  0  0
  150.0229  140.0432  154.6439 H   0  0  0  0  0  0  0  0  0  0  0  0
  151.5111  144.8284  158.0279 H   0  0  0  0  0  0  0  0  0  0  0  0
  153.1475  144.5455  159.8965 H   0  0  0  0  0  0  0  0  0  0  0  0
  153.8815  142.3011  160.6113 H   0  0  0  0  0  0  0  0  0  0  0  0
  153.0160  140.2482  159.4973 H   0  0  0  0  0  0  0  0  0  0  0  0
  148.9334  135.2113  159.0260 H   0  0  0  0  0  0  0  0  0  0  0  0
  147.4831  133.4756  159.8950 H   0  0  0  0  0  0  0  0  0  0  0  0
  149.9784  143.2426  156.1711 H   0  0  0  0  0  0  0  0  0  0  0  0
  1  2  1  0  0  0  0
  1 25  1  0  0  0  0
  1 26  1  0  0  0  0
  1 27  1  0  0  0  0
  2  3  2  0  0  0  0
  2  4  1  0  0  0  0
  4 24  1  0  0  0  0
  4  5  2  0  0  0  0
  5  6  1  0  0  0  0
  5 28  1  0  0  0  0
  6  7  2  0  0  0  0
  6 29  1  0  0  0  0
  7  8  1  0  0  0  0
  7 23  1  0  0  0  0
  8  9  1  0  0  0  0
  9 10  1  0  0  0  0
  9 30  1  0  0  0  0
  9 31  1  0  0  0  0
 10 11  1  0  0  0  0
 10 12  1  0  0  0  0
 10 32  1  0  0  0  0
 11 33  1  0  0  0  0
 12 13  1  0  0  0  0
 12 34  1  0  0  0  0
 12 35  1  0  0  0  0
 13 22  1  0  0  0  0
 13 14  1  0  0  0  0
 14 15  1  0  0  0  0
 14 16  2  0  0  0  0
 15 36  1  0  0  0  0
 15 37  1  0  0  0  0
 15 38  1  0  0  0  0
 16 17  1  0  0  0  0
 16 45  1  0  0  0  0
 17 22  2  0  0  0  0
 17 18  1  0  0  0  0
 18 19  2  0  0  0  0
 18 39  1  0  0  0  0
 19 20  1  0  0  0  0
 19 40  1  0  0  0  0
 20 21  2  0  0  0  0
 20 41  1  0  0  0  0
 21 22  1  0  0  0  0
 21 42  1  0  0  0  0
 23 24  2  0  0  0  0
 23 43  1  0  0  0  0
 24 44  1  0  0  0  0
M  CHG  1  16   1
M  END
> <s_m_source_file>
AV-unprocessed.smi

> <i_m_source_file_index>
2145

> <i_lp_mmshare_version>
43012

> <i_f3d_flags>
0

> <s_epik_input>
W0NIM11DKD1PKWMxW2NIXVtjSF1jKFtjSF1bY0hdMSlPW0NIMl1bQ0BIXShbT0hdKVtDSDJdbihjKG4yKVtDSDNdKWMoYzIzKVtjSF1bY0hdW2NIXVtjSF0z

> <s_epik_cmdline>
J2VwaWtfcHl0aG9uJywgJy1waCcsICc3LjAnLCAnLXRuJywgJzgnLCAnLW1hJywgJzIwMCcsICctbWV0YWxfYmluZGluZycsICctaW1hZScsICc8aW5maWxlLm1hZT4nLCAnLW9tYWUnLCAnPG91dGZpbGUubWFlPic=

> <r_lp_tautomer_probability>
0.99995

> <r_epik_Ionization_Penalty>
1.05477

> <r_epik_Ionization_Penalty_Charging>
1.05477

> <r_epik_Ionization_Penalty_Neutral>
2.3993e-06

> <r_epik_State_Penalty>
1.10796

> <r_epik_Charging_Adjusted_Penalty>
2.16273

> <i_epik_Tot_Q>
1

> <i_epik_Tot_abs_Q>
1

> <r_epik_Metal_State_Penalty>
5.10164

> <b_epik_Metal_Only>
0

> <s_lp_Force_Field>
OPLS_2005

> <r_lp_Energy>
25.5273

> <b_lp_Chiralities_Consistent>
1

> <s_lp_Variant>
AV-unprocessed.smi:2145-4

> <Gold.Version>
5.8.1

> <Gold.Id.Protein>
6NUR|6NUR_protein|mol2

> <Gold.PLP.Fitness>
53.1655

> <Gold.PLP.PLP>
-48.9444

> <Gold.PLP.part.hbond>
-2.0000

> <Gold.PLP.part.metal>
0.0000

> <Gold.PLP.part.buried>
-6.1426

> <Gold.PLP.part.nonpolar>
-41.8866

> <Gold.PLP.part.repulsive>
0.1025

> <Gold.PLP.ligand.clash>
0.0000

> <Gold.PLP.ligand.torsion>
1.2770

> <Gold.PLP.Chemscore.Hbond>
2.2464

> <Gold.PLP.Chemscore.CHOScore>
0.0000

> <Gold.PLP.Chemscore.Metal>
0.0000

> <Gold.Chemscore.Hbonds>
donor molecule, donor type, donor heavy atom, donor atom, acceptor molecule, acceptor atom, score
      L1  H    16    45       P1  8028  2.00
      P1  H  6931  6943       L1     8  0.03

> <Gold.PLP.Chemscore.Internal.Correction>
0.0359

> <Gold.Rescore>
     Score         DG    S(hbond)    S(metal)    S(lipo)     H(rot)  DE(clash)    DE(int)     intcor
     17.12     -18.13       1.03        0.00     128.92       2.30       0.02       0.99       ----

> <Gold.Chemscore.Fitness>
17.1222

> <Gold.Chemscore.DG>
-18.1256

> <Gold.Chemscore.ZeroCoef>
-5.4800

> <Gold.Chemscore.Hbond>
1.0318

> <Gold.Chemscore.Metal>
0.0000

> <Gold.Chemscore.Lipo>
128.9181

> <Gold.Chemscore.Internal_Hbond>
0.0000

> <Gold.Chemscore.DEClash>
0.0179

> <Gold.Chemscore.DEInternal>
0.9855

> <Gold.Chemscore.Rot>
2.2984

> <Gold.Chemscore.Internal.Correction>
   9.000000E+99

> <Gold.Chemscore.Hbonds>
donor molecule, donor type, donor heavy atom, donor atom, acceptor molecule, acceptor atom, score
      L1  H    16    45       P1  8028  1.00

> <Gold.Chemscore.Hbond.Weighted>
-3.4460

> <Gold.Chemscore.Metal.Weighted>
-0.0000

> <Gold.Chemscore.Lipo.Weighted>
-15.0834

> <Gold.Chemscore.Internal_Hbond.Weighted>
0.0000

> <Gold.Chemscore.DEClash.Weighted>
0.0179

> <Gold.Chemscore.DEInternal.Weighted>
0.9855

> <Gold.Chemscore.Rot.Weighted>
5.8839

> <Gold.Chemscore.Internal.Correction.Weighted>
   9.000000E+99

> <Gold.Protein.RotatedTorsions>
[ 6907 6896 6895 6894 ] final   74.07 input  -60.11 | X-H torsion
[ 7974 7965 7964 7962 ] final  163.94 input  175.53 | X-H torsion
[ 8008 7997 7996 7995 ] final -147.02 input   59.86 | X-H torsion
[ 10167 10162 10161 10158 ] final -172.28 input  -65.29 | X-H torsion
[ 10718 10713 10712 10709 ] final  127.77 input   66.30 | X-H torsion
[ 10763 10752 10751 10750 ] final  114.85 input  -60.55 | X-H torsion
[ 11005 11000 10999 10996 ] final -120.48 input  -57.11 | X-H torsion

> <Gold.Protein.ActiveResidues>
 VAL166  LYS551  ARG553  GLY616  TRP617  ASP618  TYR619  PRO620  LYS621  CYS622 
 ASP623  PHE694  ASN695  SER759  ASP760  ASP761  ALA762  ILE779  LEU786  VAL792 
 PHE793  MET794  SER795  GLU796  ALA797  LYS798  CYS799  TRP800  GLU811  SER814 

> <Gold.Protein.RotatedAtoms>
  152.4957  134.4326  159.9517 H   0  0  0  0  0  0  0  0  0  0  0  0  # atno 6907 bound_to 6896
  151.4305  133.3665  159.2776 H   0  0  0  0  0  0  0  0  0  0  0  0  # atno 6908 bound_to 6896
  150.9158  134.8598  159.7515 H   0  0  0  0  0  0  0  0  0  0  0  0  # atno 6909 bound_to 6896
  144.7567  139.8254  143.6347 H   0  0  0  0  0  0  0  0  0  0  0  0  # atno 7974 bound_to 7965
  155.5689  140.0632  157.2811 H   0  0  0  0  0  0  0  0  0  0  0  0  # atno 8008 bound_to 7997
  154.4367  140.1872  156.0904 H   0  0  0  0  0  0  0  0  0  0  0  0  # atno 8009 bound_to 7997
  156.0391  140.3297  155.7228 H   0  0  0  0  0  0  0  0  0  0  0  0  # atno 8010 bound_to 7997
  139.5753  144.1546  152.1442 H   0  0  0  0  0  0  0  0  0  0  0  0  # atno 10167 bound_to 10162
  157.5303  131.1098  150.9019 H   0  0  0  0  0  0  0  0  0  0  0  0  # atno 10718 bound_to 10713
  153.5134  135.3613  155.2597 H   0  0  0  0  0  0  0  0  0  0  0  0  # atno 10763 bound_to 10752
  154.8740  135.4028  154.3342 H   0  0  0  0  0  0  0  0  0  0  0  0  # atno 10764 bound_to 10752
  153.4000  135.7074  153.6500 H   0  0  0  0  0  0  0  0  0  0  0  0  # atno 10765 bound_to 10752
  141.0140  134.0222  157.3375 H   0  0  0  0  0  0  0  0  0  0  0  0  # atno 11005 bound_to 11000
  146.1585  139.4691  143.0003 LP  0  0  0  0  0  0  0  0  0  0  0  0  # atno 17320 bound_to 7965
  145.6755  141.0205  143.1634 LP  0  0  0  0  0  0  0  0  0  0  0  0  # atno 17321 bound_to 7965
  140.1087  144.5476  150.6939 LP  0  0  0  0  0  0  0  0  0  0  0  0  # atno 17342 bound_to 10162
  140.7036  143.2452  151.4791 LP  0  0  0  0  0  0  0  0  0  0  0  0  # atno 17343 bound_to 10162
  156.9602  130.5452  149.5285 LP  0  0  0  0  0  0  0  0  0  0  0  0  # atno 17370 bound_to 10713
  156.0418  130.5499  150.8788 LP  0  0  0  0  0  0  0  0  0  0  0  0  # atno 17371 bound_to 10713
  139.9106  135.0189  156.7676 LP  0  0  0  0  0  0  0  0  0  0  0  0  # atno 17394 bound_to 11000
  140.6685  133.9580  155.7843 LP  0  0  0  0  0  0  0  0  0  0  0  0  # atno 17395 bound_to 11000

$$$$
