AV-unprocessed.smi:528|AV-procd|sdf|2834|dock7
  -GOLD-   2262023323D 1   1.00000     0.00000
 Structure written by MMmdl.
 45 47  0  0  0  0  0  0  0  0  1 V2000
  150.4352  138.0012  154.9939 C   0  0  0  0  0  0  0  0  0  0  0  0
  150.1637  138.7677  156.2990 C   0  0  1  0  0  0  0  0  0  0  0  0
  151.4478  139.1827  156.8610 N   0  0  0  0  0  0  0  0  0  0  0  0
  151.7651  139.2152  158.1650 C   0  0  0  0  0  0  0  0  0  0  0  0
  151.0013  138.8526  159.0608 O   0  0  0  0  0  0  0  0  0  0  0  0
  153.1684  139.7351  158.5035 C   0  0  0  0  0  0  0  0  0  0  0  0
  153.1382  140.9332  159.3587 N   0  0  0  0  0  0  0  0  0  0  0  0
  152.5809  142.1045  158.8089 C   0  0  0  0  0  0  0  0  0  0  0  0
  152.5115  143.2689  159.4822 C   0  0  0  0  0  0  0  0  0  0  0  0
  151.8559  144.5030  158.8819 C   0  0  0  0  0  0  0  0  0  0  0  0
  151.9125  145.5340  159.7252 F   0  0  0  0  0  0  0  0  0  0  0  0
  152.4852  144.8496  157.7602 F   0  0  0  0  0  0  0  0  0  0  0  0
  150.5761  144.2736  158.5859 F   0  0  0  0  0  0  0  0  0  0  0  0
  153.0161  143.2597  160.8412 C   0  0  0  0  0  0  0  0  0  0  0  0
  153.5458  142.1464  161.3847 C   0  0  0  0  0  0  0  0  0  0  0  0
  153.6353  140.8934  160.6319 C   0  0  0  0  0  0  0  0  0  0  0  0
  154.1247  139.8717  161.1152 O   0  0  0  0  0  0  0  0  0  0  0  0
  149.2495  139.9999  156.0779 C   0  0  1  0  0  0  0  0  0  0  0  0
  149.7713  140.9644  154.9843 C   0  0  0  0  0  0  0  0  0  0  0  0
  148.5709  141.1074  154.0322 C   0  0  2  0  0  0  0  0  0  0  0  0
  147.4551  141.9082  154.7269 C   0  0  0  0  0  0  0  0  0  0  0  0
  146.9203  140.9069  155.7670 C   0  0  0  0  0  0  0  0  0  0  0  0
  147.8247  139.6780  155.5534 C   0  0  1  0  0  0  0  0  0  0  0  0
  148.0042  139.6940  154.0394 C   0  0  0  0  0  0  0  0  0  0  0  0
  149.5152  137.6184  154.5529 H   0  0  0  0  0  0  0  0  0  0  0  0
  151.0876  137.1458  155.1722 H   0  0  0  0  0  0  0  0  0  0  0  0
  150.9187  138.6379  154.2522 H   0  0  0  0  0  0  0  0  0  0  0  0
  149.6640  138.0805  156.9834 H   0  0  0  0  0  0  0  0  0  0  0  0
  152.1450  139.4983  156.2021 H   0  0  0  0  0  0  0  0  0  0  0  0
  153.7220  138.9273  158.9838 H   0  0  0  0  0  0  0  0  0  0  0  0
  153.7166  139.9503  157.5840 H   0  0  0  0  0  0  0  0  0  0  0  0
  152.2146  141.9970  157.7982 H   0  0  0  0  0  0  0  0  0  0  0  0
  152.9742  144.1625  161.4326 H   0  0  0  0  0  0  0  0  0  0  0  0
  153.9156  142.1774  162.3992 H   0  0  0  0  0  0  0  0  0  0  0  0
  149.1683  140.5308  157.0279 H   0  0  0  0  0  0  0  0  0  0  0  0
  150.0927  141.9221  155.3951 H   0  0  0  0  0  0  0  0  0  0  0  0
  150.6173  140.5381  154.4438 H   0  0  0  0  0  0  0  0  0  0  0  0
  148.8379  141.4924  153.0476 H   0  0  0  0  0  0  0  0  0  0  0  0
  147.8291  142.8246  155.1848 H   0  0  0  0  0  0  0  0  0  0  0  0
  146.6714  142.1812  154.0193 H   0  0  0  0  0  0  0  0  0  0  0  0
  146.9717  141.2932  156.7854 H   0  0  0  0  0  0  0  0  0  0  0  0
  145.8786  140.6593  155.5583 H   0  0  0  0  0  0  0  0  0  0  0  0
  147.3827  138.7643  155.9491 H   0  0  0  0  0  0  0  0  0  0  0  0
  147.0650  139.6012  153.4912 H   0  0  0  0  0  0  0  0  0  0  0  0
  148.7052  138.9416  153.6752 H   0  0  0  0  0  0  0  0  0  0  0  0
  1  2  1  0  0  0  0
  1 25  1  0  0  0  0
  1 26  1  0  0  0  0
  1 27  1  0  0  0  0
  2  3  1  0  0  0  0
  2 18  1  0  0  0  0
  2 28  1  0  0  0  0
  3  4  1  0  0  0  0
  3 29  1  0  0  0  0
  4  5  2  0  0  0  0
  4  6  1  0  0  0  0
  6  7  1  0  0  0  0
  6 30  1  0  0  0  0
  6 31  1  0  0  0  0
  7 16  1  0  0  0  0
  7  8  1  0  0  0  0
  8  9  2  0  0  0  0
  8 32  1  0  0  0  0
  9 10  1  0  0  0  0
  9 14  1  0  0  0  0
 10 11  1  0  0  0  0
 10 12  1  0  0  0  0
 10 13  1  0  0  0  0
 14 15  2  0  0  0  0
 14 33  1  0  0  0  0
 15 16  1  0  0  0  0
 15 34  1  0  0  0  0
 16 17  2  0  0  0  0
 18 23  1  0  0  0  0
 18 19  1  0  0  0  0
 18 35  1  0  0  0  0
 19 20  1  0  0  0  0
 19 36  1  0  0  0  0
 19 37  1  0  0  0  0
 20 24  1  0  0  0  0
 20 21  1  0  0  0  0
 20 38  1  0  0  0  0
 21 22  1  0  0  0  0
 21 39  1  0  0  0  0
 21 40  1  0  0  0  0
 22 23  1  0  0  0  0
 22 41  1  0  0  0  0
 22 42  1  0  0  0  0
 23 24  1  0  0  0  0
 23 43  1  0  0  0  0
 24 44  1  0  0  0  0
 24 45  1  0  0  0  0
M  END
> <s_m_source_file>
AV-unprocessed.smi

> <i_m_source_file_index>
528

> <i_lp_mmshare_version>
43012

> <i_f3d_flags>
0

> <s_epik_input>
W0NIMl0xW0NIMl1bQ0BASF0oW0NIMl0yKVtDQEBIXShbQ0gyXVtDQEhdMTIpW0NASF0oW0NIM10pW05IXUMoPU8pW0NIMl1uM1tjSF1jKEMoRikoRilGKVtjSF1bY0hdYzM9Tw==

> <s_epik_cmdline>
J2VwaWtfcHl0aG9uJywgJy1waCcsICc3LjAnLCAnLXRuJywgJzgnLCAnLW1hJywgJzIwMCcsICctbWV0YWxfYmluZGluZycsICctaW1hZScsICc8aW5maWxlLm1hZT4nLCAnLW9tYWUnLCAnPG91dGZpbGUubWFlPic=

> <r_lp_tautomer_probability>
1

> <r_epik_Ionization_Penalty>
4.09479e-08

> <r_epik_Ionization_Penalty_Charging>
1.9321e-08

> <r_epik_Ionization_Penalty_Neutral>
2.16269e-08

> <r_epik_State_Penalty>
-0

> <r_epik_Charging_Adjusted_Penalty>
1.9321e-08

> <i_epik_Tot_Q>
0

> <i_epik_Tot_abs_Q>
0

> <r_epik_Metal_State_Penalty>
-0

> <b_epik_Metal_Only>
0

> <s_lp_Force_Field>
OPLS_2005

> <r_lp_Energy>
62.5946

> <b_lp_Chiralities_Consistent>
1

> <s_lp_Variant>
AV-unprocessed.smi:528-4

> <Gold.Version>
5.8.1

> <Gold.Id.Protein>
6NUR|6NUR_protein|mol2

> <Gold.PLP.Fitness>
50.4204

> <Gold.PLP.PLP>
-51.1932

> <Gold.PLP.part.hbond>
-0.2505

> <Gold.PLP.part.metal>
0.0000

> <Gold.PLP.part.buried>
-4.2863

> <Gold.PLP.part.nonpolar>
-46.2821

> <Gold.PLP.part.repulsive>
0.0594

> <Gold.PLP.ligand.clash>
0.0000

> <Gold.PLP.ligand.torsion>
0.4172

> <Gold.PLP.Chemscore.Hbond>
0.0000

> <Gold.PLP.Chemscore.CHOScore>
0.0000

> <Gold.PLP.Chemscore.Metal>
0.0000

> <Gold.PLP.Chemscore.Internal.Correction>
0.0615

> <Gold.Rescore>
     Score         DG    S(hbond)    S(metal)    S(lipo)     H(rot)  DE(clash)    DE(int)     intcor
     13.23     -13.72       0.00        0.00     107.90       1.71       0.09       0.39       ----

> <Gold.Chemscore.Fitness>
13.2323

> <Gold.Chemscore.DG>
-13.7205

> <Gold.Chemscore.ZeroCoef>
-5.4800

> <Gold.Chemscore.Hbond>
0.0000

> <Gold.Chemscore.Metal>
0.0000

> <Gold.Chemscore.Lipo>
107.9014

> <Gold.Chemscore.Internal_Hbond>
0.0000

> <Gold.Chemscore.DEClash>
0.0938

> <Gold.Chemscore.DEInternal>
0.3944

> <Gold.Chemscore.Rot>
1.7125

> <Gold.Chemscore.Internal.Correction>
   9.000000E+99

> <Gold.Chemscore.Hbond.Weighted>
-0.0000

> <Gold.Chemscore.Metal.Weighted>
-0.0000

> <Gold.Chemscore.Lipo.Weighted>
-12.6245

> <Gold.Chemscore.Internal_Hbond.Weighted>
0.0000

> <Gold.Chemscore.DEClash.Weighted>
0.0938

> <Gold.Chemscore.DEInternal.Weighted>
0.3944

> <Gold.Chemscore.Rot.Weighted>
4.3840

> <Gold.Chemscore.Internal.Correction.Weighted>
   9.000000E+99

> <Gold.Protein.RotatedTorsions>
[ 6907 6896 6895 6894 ] final   66.23 input  -60.11 | X-H torsion
[ 7974 7965 7964 7962 ] final  169.93 input  175.53 | X-H torsion
[ 8008 7997 7996 7995 ] final  -25.66 input   59.86 | X-H torsion
[ 10167 10162 10161 10158 ] final  -17.44 input  -65.29 | X-H torsion
[ 10718 10713 10712 10709 ] final  -64.12 input   66.30 | X-H torsion
[ 10763 10752 10751 10750 ] final -162.39 input  -60.55 | X-H torsion
[ 11005 11000 10999 10996 ] final  179.79 input  -57.11 | X-H torsion

> <Gold.Protein.ActiveResidues>
 VAL166  LYS551  ARG553  GLY616  TRP617  ASP618  TYR619  PRO620  LYS621  CYS622 
 ASP623  PHE694  ASN695  SER759  ASP760  ASP761  ALA762  ILE779  LEU786  VAL792 
 PHE793  MET794  SER795  GLU796  ALA797  LYS798  CYS799  TRP800  GLU811  SER814 

> <Gold.Protein.RotatedAtoms>
  152.4466  134.5482  159.9858 H   0  0  0  0  0  0  0  0  0  0  0  0  # atno 6907 bound_to 6896
  151.5566  133.3403  159.2971 H   0  0  0  0  0  0  0  0  0  0  0  0  # atno 6908 bound_to 6896
  150.8383  134.7698  159.6975 H   0  0  0  0  0  0  0  0  0  0  0  0  # atno 6909 bound_to 6896
  144.7339  139.9127  143.6416 H   0  0  0  0  0  0  0  0  0  0  0  0  # atno 7974 bound_to 7965
  154.4464  140.1920  156.0653 H   0  0  0  0  0  0  0  0  0  0  0  0  # atno 8008 bound_to 7997
  156.0552  140.3303  155.7370 H   0  0  0  0  0  0  0  0  0  0  0  0  # atno 8009 bound_to 7997
  155.5496  140.0594  157.2843 H   0  0  0  0  0  0  0  0  0  0  0  0  # atno 8010 bound_to 7997
  140.7247  143.5015  150.9863 H   0  0  0  0  0  0  0  0  0  0  0  0  # atno 10167 bound_to 10162
  156.0749  130.4229  150.1374 H   0  0  0  0  0  0  0  0  0  0  0  0  # atno 10718 bound_to 10713
  154.7218  135.3027  154.9034 H   0  0  0  0  0  0  0  0  0  0  0  0  # atno 10763 bound_to 10752
  153.9904  135.6719  153.4758 H   0  0  0  0  0  0  0  0  0  0  0  0  # atno 10764 bound_to 10752
  153.0841  135.4993  154.8479 H   0  0  0  0  0  0  0  0  0  0  0  0  # atno 10765 bound_to 10752
  140.4100  134.6700  157.4609 H   0  0  0  0  0  0  0  0  0  0  0  0  # atno 11005 bound_to 11000
  146.0989  139.3983  143.0359 LP  0  0  0  0  0  0  0  0  0  0  0  0  # atno 17320 bound_to 7965
  145.7607  140.9936  143.1201 LP  0  0  0  0  0  0  0  0  0  0  0  0  # atno 17321 bound_to 7965
  139.8725  143.7175  152.3165 LP  0  0  0  0  0  0  0  0  0  0  0  0  # atno 17342 bound_to 10162
  139.7428  144.7555  151.0626 LP  0  0  0  0  0  0  0  0  0  0  0  0  # atno 17343 bound_to 10162
  156.9418  130.9747  151.3515 LP  0  0  0  0  0  0  0  0  0  0  0  0  # atno 17370 bound_to 10713
  157.5839  130.8395  149.8561 LP  0  0  0  0  0  0  0  0  0  0  0  0  # atno 17371 bound_to 10713
  140.0274  134.6457  155.9154 LP  0  0  0  0  0  0  0  0  0  0  0  0  # atno 17394 bound_to 11000
  141.1824  133.6549  156.5077 LP  0  0  0  0  0  0  0  0  0  0  0  0  # atno 17395 bound_to 11000

$$$$
