AV-unprocessed.smi:1196|AV-procd|sdf|4999|dock8
  -GOLD-   22720 4 03D 1   1.00000     0.00000
 Structure written by MMmdl.
 37 38  0  0  0  0  0  0  0  0  1 V2000
  151.5914  143.9074  157.7983 C   0  0  0  0  0  0  0  0  0  0  0  0
  151.4898  142.4407  157.3520 C   0  0  1  0  0  0  0  0  0  0  0  0
  151.2832  141.4974  158.5529 C   0  0  0  0  0  0  0  0  0  0  0  0
  152.5058  141.2962  159.3111 N   0  0  0  0  0  0  0  0  0  0  0  0
  152.8518  141.8323  160.5334 C   0  0  0  0  0  0  0  0  0  0  0  0
  154.0994  141.3706  160.8409 C   0  0  0  0  0  0  0  0  0  0  0  0
  154.4390  140.5488  159.7300 C   0  0  0  0  0  0  0  0  0  0  0  0
  153.4826  140.5047  158.8166 N   0  0  0  0  0  0  0  0  0  0  0  0
  150.3935  142.2832  156.3985 N   0  0  0  0  0  0  0  0  0  0  0  0
  150.2964  141.3190  155.4712 C   0  0  0  0  0  0  0  0  0  0  0  0
  151.1656  140.4658  155.2893 O   0  0  0  0  0  0  0  0  0  0  0  0
  149.0183  141.3313  154.6273 C   0  0  0  0  0  0  0  0  0  0  0  0
  148.3328  139.9541  154.5329 C   0  0  0  0  0  0  0  0  0  0  0  0
  147.0487  139.9799  153.6815 C   0  0  1  0  0  0  0  0  0  0  0  0
  147.2756  139.5593  152.3093 N   0  0  0  0  0  0  0  0  0  0  0  0
  146.5457  138.4868  151.9746 C   0  0  0  0  0  0  0  0  0  0  0  0
  146.5416  137.9299  150.8796 O   0  0  0  0  0  0  0  0  0  0  0  0
  145.8235  138.1294  153.0422 N   0  0  0  0  0  0  0  0  0  0  0  0
  146.0444  138.9178  154.0928 C   0  0  0  0  0  0  0  0  0  0  0  0
  145.5379  138.8227  155.2091 O   0  0  0  0  0  0  0  0  0  0  0  0
  152.4181  144.0475  158.4952 H   0  0  0  0  0  0  0  0  0  0  0  0
  150.6781  144.2358  158.2955 H   0  0  0  0  0  0  0  0  0  0  0  0
  151.7653  144.5683  156.9484 H   0  0  0  0  0  0  0  0  0  0  0  0
  152.4296  142.1677  156.8683 H   0  0  0  0  0  0  0  0  0  0  0  0
  150.5355  141.9120  159.2300 H   0  0  0  0  0  0  0  0  0  0  0  0
  150.9008  140.5295  158.2240 H   0  0  0  0  0  0  0  0  0  0  0  0
  152.1901  142.4926  161.0746 H   0  0  0  0  0  0  0  0  0  0  0  0
  154.6814  141.5885  161.7241 H   0  0  0  0  0  0  0  0  0  0  0  0
  155.3455  139.9868  159.5610 H   0  0  0  0  0  0  0  0  0  0  0  0
  149.6306  142.9400  156.4766 H   0  0  0  0  0  0  0  0  0  0  0  0
  148.3216  142.0517  155.0592 H   0  0  0  0  0  0  0  0  0  0  0  0
  149.2709  141.6965  153.6313 H   0  0  0  0  0  0  0  0  0  0  0  0
  149.0327  139.2235  154.1226 H   0  0  0  0  0  0  0  0  0  0  0  0
  148.0839  139.6067  155.5372 H   0  0  0  0  0  0  0  0  0  0  0  0
  146.5792  140.9642  153.6979 H   0  0  0  0  0  0  0  0  0  0  0  0
  147.9130  140.0346  151.6868 H   0  0  0  0  0  0  0  0  0  0  0  0
  145.1898  137.3438  153.0533 H   0  0  0  0  0  0  0  0  0  0  0  0
  1  2  1  0  0  0  0
  1 21  1  0  0  0  0
  1 22  1  0  0  0  0
  1 23  1  0  0  0  0
  2  3  1  0  0  0  0
  2  9  1  0  0  0  0
  2 24  1  0  0  0  0
  3  4  1  0  0  0  0
  3 25  1  0  0  0  0
  3 26  1  0  0  0  0
  4  8  1  0  0  0  0
  4  5  1  0  0  0  0
  5  6  2  0  0  0  0
  5 27  1  0  0  0  0
  6  7  1  0  0  0  0
  6 28  1  0  0  0  0
  7  8  2  0  0  0  0
  7 29  1  0  0  0  0
  9 10  1  0  0  0  0
  9 30  1  0  0  0  0
 10 11  2  0  0  0  0
 10 12  1  0  0  0  0
 12 13  1  0  0  0  0
 12 31  1  0  0  0  0
 12 32  1  0  0  0  0
 13 14  1  0  0  0  0
 13 33  1  0  0  0  0
 13 34  1  0  0  0  0
 14 19  1  0  0  0  0
 14 15  1  0  0  0  0
 14 35  1  0  0  0  0
 15 16  1  0  0  0  0
 15 36  1  0  0  0  0
 16 17  2  0  0  0  0
 16 18  1  0  0  0  0
 18 19  1  0  0  0  0
 18 37  1  0  0  0  0
 19 20  2  0  0  0  0
M  END
> <s_m_source_file>
AV-unprocessed.smi

> <i_m_source_file_index>
1196

> <i_lp_mmshare_version>
43012

> <i_f3d_flags>
0

> <s_epik_input>
bjFbY0hdW2NIXVtjSF1uMVtDSDJdW0NAQEhdKFtDSDNdKVtOSF1DKD1PKVtDSDJdW0NIMl1bQ0BASF0yW05IXUMoPU8pW05IXUMyPU8=

> <s_epik_cmdline>
J2VwaWtfcHl0aG9uJywgJy1waCcsICc3LjAnLCAnLXRuJywgJzgnLCAnLW1hJywgJzIwMCcsICctbWV0YWxfYmluZGluZycsICctaW1hZScsICc8aW5maWxlLm1hZT4nLCAnLW9tYWUnLCAnPG91dGZpbGUubWFlPic=

> <r_lp_tautomer_probability>
1

> <r_epik_Ionization_Penalty>
0.00815973

> <r_epik_Ionization_Penalty_Charging>
0

> <r_epik_Ionization_Penalty_Neutral>
0.00815973

> <r_epik_State_Penalty>
0.00583796

> <r_epik_Charging_Adjusted_Penalty>
0.00583796

> <i_epik_Tot_Q>
0

> <i_epik_Tot_abs_Q>
0

> <r_epik_Metal_State_Penalty>
0.409204

> <b_epik_Metal_Only>
0

> <s_lp_Force_Field>
OPLS_2005

> <r_lp_Energy>
17.2443

> <b_lp_Chiralities_Consistent>
1

> <s_lp_Variant>
AV-unprocessed.smi:1196-4

> <Gold.Version>
5.8.1

> <Gold.Id.Protein>
6NUR|6NUR_protein|mol2

> <Gold.PLP.Fitness>
48.4108

> <Gold.PLP.PLP>
-38.5511

> <Gold.PLP.part.hbond>
-5.2768

> <Gold.PLP.part.metal>
0.0000

> <Gold.PLP.part.buried>
-4.5136

> <Gold.PLP.part.nonpolar>
-30.9360

> <Gold.PLP.part.repulsive>
1.9912

> <Gold.PLP.ligand.clash>
0.0000

> <Gold.PLP.ligand.torsion>
1.1816

> <Gold.PLP.Chemscore.Hbond>
4.0534

> <Gold.PLP.Chemscore.CHOScore>
0.0000

> <Gold.PLP.Chemscore.Metal>
0.0000

> <Gold.Chemscore.Hbonds>
donor molecule, donor type, donor heavy atom, donor atom, acceptor molecule, acceptor atom, score
      L1  H     9    30       P1  8028  0.72
      L1  H    15    36       P1  7957  0.86
      P1  H  7954  7966       L1    17  1.00
      P1  H  7989  7998       L1    11  0.91
      P1  H  7997  8009       L1     8  0.57

> <Gold.PLP.Chemscore.Internal.Correction>
0.0626

> <Gold.Rescore>
     Score         DG    S(hbond)    S(metal)    S(lipo)     H(rot)  DE(clash)    DE(int)     intcor
     14.68     -17.06       3.03        0.00      77.21       2.96       1.38       1.00       ----

> <Gold.Chemscore.Fitness>
14.6776

> <Gold.Chemscore.DG>
-17.0579

> <Gold.Chemscore.ZeroCoef>
-5.4800

> <Gold.Chemscore.Hbond>
3.0287

> <Gold.Chemscore.Metal>
0.0000

> <Gold.Chemscore.Lipo>
77.2083

> <Gold.Chemscore.Internal_Hbond>
0.0000

> <Gold.Chemscore.DEClash>
1.3824

> <Gold.Chemscore.DEInternal>
0.9978

> <Gold.Chemscore.Rot>
2.9575

> <Gold.Chemscore.Internal.Correction>
   9.000000E+99

> <Gold.Chemscore.Hbonds>
donor molecule, donor type, donor heavy atom, donor atom, acceptor molecule, acceptor atom, score
      L1  H     9    30       P1  8028  0.68
      L1  H    15    36       P1  7957  0.85
      P1  H  7954  7966       L1    17  0.96
      P1  H  7989  7998       L1    11  0.20
      P1  H  7997  8009       L1     8  0.13

> <Gold.Chemscore.Hbond.Weighted>
-10.1158

> <Gold.Chemscore.Metal.Weighted>
-0.0000

> <Gold.Chemscore.Lipo.Weighted>
-9.0334

> <Gold.Chemscore.Internal_Hbond.Weighted>
0.0000

> <Gold.Chemscore.DEClash.Weighted>
1.3824

> <Gold.Chemscore.DEInternal.Weighted>
0.9978

> <Gold.Chemscore.Rot.Weighted>
7.5713

> <Gold.Chemscore.Internal.Correction.Weighted>
   9.000000E+99

> <Gold.Protein.RotatedTorsions>
[ 6907 6896 6895 6894 ] final   70.51 input  -60.11 | X-H torsion
[ 7974 7965 7964 7962 ] final   26.51 input  175.53 | X-H torsion
[ 8008 7997 7996 7995 ] final  148.47 input   59.86 | X-H torsion
[ 10167 10162 10161 10158 ] final  -93.70 input  -65.29 | X-H torsion
[ 10718 10713 10712 10709 ] final  133.44 input   66.30 | X-H torsion
[ 10763 10752 10751 10750 ] final   66.69 input  -60.55 | X-H torsion
[ 11005 11000 10999 10996 ] final -140.26 input  -57.11 | X-H torsion

> <Gold.Protein.ActiveResidues>
 VAL166  LYS551  ARG553  GLY616  TRP617  ASP618  TYR619  PRO620  LYS621  CYS622 
 ASP623  PHE694  ASN695  SER759  ASP760  ASP761  ALA762  ILE779  LEU786  VAL792 
 PHE793  MET794  SER795  GLU796  ALA797  LYS798  CYS799  TRP800  GLU811  SER814 

> <Gold.Protein.RotatedAtoms>
  152.4753  134.4858  159.9679 H   0  0  0  0  0  0  0  0  0  0  0  0  # atno 6907 bound_to 6896
  151.4876  133.3526  159.2856 H   0  0  0  0  0  0  0  0  0  0  0  0  # atno 6908 bound_to 6896
  150.8788  134.8203  159.7271 H   0  0  0  0  0  0  0  0  0  0  0  0  # atno 6909 bound_to 6896
  146.1833  139.7318  142.8884 H   0  0  0  0  0  0  0  0  0  0  0  0  # atno 7974 bound_to 7965
  156.2790  140.2128  156.5703 H   0  0  0  0  0  0  0  0  0  0  0  0  # atno 8008 bound_to 7997
  154.7141  140.0509  157.0601 H   0  0  0  0  0  0  0  0  0  0  0  0  # atno 8009 bound_to 7997
  155.0566  140.3162  155.4677 H   0  0  0  0  0  0  0  0  0  0  0  0  # atno 8010 bound_to 7997
  140.3220  143.3044  152.0036 H   0  0  0  0  0  0  0  0  0  0  0  0  # atno 10167 bound_to 10162
  157.4773  131.1084  150.9727 H   0  0  0  0  0  0  0  0  0  0  0  0  # atno 10718 bound_to 10713
  153.0151  135.5311  154.6862 H   0  0  0  0  0  0  0  0  0  0  0  0  # atno 10763 bound_to 10752
  154.6009  135.2868  155.0538 H   0  0  0  0  0  0  0  0  0  0  0  0  # atno 10764 bound_to 10752
  154.1596  135.6550  153.5035 H   0  0  0  0  0  0  0  0  0  0  0  0  # atno 10765 bound_to 10752
  140.8439  134.2368  157.4796 H   0  0  0  0  0  0  0  0  0  0  0  0  # atno 11005 bound_to 11000
  145.4012  141.0385  143.3070 LP  0  0  0  0  0  0  0  0  0  0  0  0  # atno 17320 bound_to 7965
  144.8353  139.5560  143.6925 LP  0  0  0  0  0  0  0  0  0  0  0  0  # atno 17321 bound_to 7965
  139.4872  144.6304  151.7082 LP  0  0  0  0  0  0  0  0  0  0  0  0  # atno 17342 bound_to 10162
  140.5475  144.0479  150.6113 LP  0  0  0  0  0  0  0  0  0  0  0  0  # atno 17343 bound_to 10162
  157.0472  130.5772  149.5365 LP  0  0  0  0  0  0  0  0  0  0  0  0  # atno 17370 bound_to 10713
  156.0103  130.5194  150.7967 LP  0  0  0  0  0  0  0  0  0  0  0  0  # atno 17371 bound_to 10713
  139.8703  134.9649  156.4512 LP  0  0  0  0  0  0  0  0  0  0  0  0  # atno 17394 bound_to 11000
  140.8865  133.7880  155.9524 LP  0  0  0  0  0  0  0  0  0  0  0  0  # atno 17395 bound_to 11000

$$$$
