AV-unprocessed.smi:999|AV-procd|sdf|4351|dock1
  -GOLD-   22720 2253D 1   1.00000     0.00000
 Structure written by MMmdl.
 37 38  0  0  0  0  0  0  0  0  2 V2000
  145.6760  132.3875  149.9770 C   0  0  0  0  0  0  0  0  0  0  0  0
  146.4545  133.4053  150.8359 C   0  0  2  0  0  0  0  0  0  0  0  0
  146.9463  132.8124  152.1663 C   0  0  0  0  0  0  0  0  0  0  0  0
  146.4909  131.7491  152.5894 O   0  0  0  0  0  0  0  0  0  0  0  0
  147.8865  133.5179  152.8150 N   0  0  0  0  0  0  0  0  0  0  0  0
  148.4835  133.1587  154.0971 C   0  0  2  0  0  0  0  0  0  0  0  0
  149.6352  134.1283  154.4145 C   0  0  0  0  0  0  0  0  0  0  0  0
  150.3326  133.7637  155.7347 C   0  0  0  0  0  0  0  0  0  0  0  0
  150.8427  132.3027  155.7249 C   0  0  1  0  0  0  0  0  0  0  0  0
  151.5260  131.9164  157.0535 C   0  0  0  0  0  0  0  0  0  0  0  0
  152.7278  131.5690  157.0237 O   0  0  0  0  0  0  0  0  0  0  0  0
  150.8246  131.9489  158.0889 O   0  5  0  0  0  0  0  0  0  0  0  0
  149.6893  131.3284  155.3910 C   0  0  0  0  0  0  0  0  0  0  0  0
  148.9918  131.7039  154.0738 C   0  0  0  0  0  0  0  0  0  0  0  0
  145.6910  134.6250  151.0753 N   0  0  0  0  0  0  0  0  0  0  0  0
  146.1005  135.9305  150.8923 C   0  0  0  0  0  0  0  0  0  0  0  0
  145.0735  136.7423  151.2804 C   0  0  0  0  0  0  0  0  0  0  0  0
  144.0663  135.8325  151.7050 C   0  0  0  0  0  0  0  0  0  0  0  0
  144.4404  134.5690  151.5902 N   0  0  0  0  0  0  0  0  0  0  0  0
  146.2866  131.5112  149.7569 H   0  0  0  0  0  0  0  0  0  0  0  0
  145.3836  132.8282  149.0237 H   0  0  0  0  0  0  0  0  0  0  0  0
  144.7683  132.0402  150.4723 H   0  0  0  0  0  0  0  0  0  0  0  0
  147.3405  133.6904  150.2661 H   0  0  0  0  0  0  0  0  0  0  0  0
  148.2052  134.3782  152.3938 H   0  0  0  0  0  0  0  0  0  0  0  0
  147.7298  133.2582  154.8809 H   0  0  0  0  0  0  0  0  0  0  0  0
  150.3665  134.1130  153.6049 H   0  0  0  0  0  0  0  0  0  0  0  0
  149.2583  135.1503  154.4712 H   0  0  0  0  0  0  0  0  0  0  0  0
  151.1599  134.4555  155.9002 H   0  0  0  0  0  0  0  0  0  0  0  0
  149.6350  133.9097  156.5610 H   0  0  0  0  0  0  0  0  0  0  0  0
  151.6029  132.2125  154.9477 H   0  0  0  0  0  0  0  0  0  0  0  0
  150.0594  130.3052  155.3133 H   0  0  0  0  0  0  0  0  0  0  0  0
  148.9571  131.3312  156.2000 H   0  0  0  0  0  0  0  0  0  0  0  0
  148.1635  131.0175  153.8946 H   0  0  0  0  0  0  0  0  0  0  0  0
  149.6889  131.5691  153.2455 H   0  0  0  0  0  0  0  0  0  0  0  0
  147.0794  136.1709  150.5046 H   0  0  0  0  0  0  0  0  0  0  0  0
  145.0475  137.8218  151.2674 H   0  0  0  0  0  0  0  0  0  0  0  0
  143.0827  136.0507  152.0941 H   0  0  0  0  0  0  0  0  0  0  0  0
  1  2  1  0  0  0  0
  1 20  1  0  0  0  0
  1 21  1  0  0  0  0
  1 22  1  0  0  0  0
  2  3  1  0  0  0  0
  2 15  1  0  0  0  0
  2 23  1  0  0  0  0
  3  4  2  0  0  0  0
  3  5  1  0  0  0  0
  5  6  1  0  0  0  0
  5 24  1  0  0  0  0
  6 14  1  0  0  0  0
  6  7  1  0  0  0  0
  6 25  1  0  0  0  0
  7  8  1  0  0  0  0
  7 26  1  0  0  0  0
  7 27  1  0  0  0  0
  8  9  1  0  0  0  0
  8 28  1  0  0  0  0
  8 29  1  0  0  0  0
  9 10  1  0  0  0  0
  9 13  1  0  0  0  0
  9 30  1  0  0  0  0
 10 11  2  0  0  0  0
 10 12  1  0  0  0  0
 13 14  1  0  0  0  0
 13 31  1  0  0  0  0
 13 32  1  0  0  0  0
 14 33  1  0  0  0  0
 14 34  1  0  0  0  0
 15 19  1  0  0  0  0
 15 16  1  0  0  0  0
 16 17  2  0  0  0  0
 16 35  1  0  0  0  0
 17 18  1  0  0  0  0
 17 36  1  0  0  0  0
 18 19  2  0  0  0  0
 18 37  1  0  0  0  0
M  CHG  1  12  -1
M  END
> <s_m_source_file>
AV-unprocessed.smi

> <i_m_source_file_index>
999

> <i_lp_mmshare_version>
43012

> <i_f3d_flags>
0

> <s_epik_input>
bjFbY0hdW2NIXVtjSF1uMVtDQEhdKFtDSDNdKUMoPU8pW05IXVtDQEBIXTJbQ0gyXVtDSDJdW0NAQEhdKEMoPU8pW09IXSlbQ0gyXVtDSDJdMg==

> <s_epik_cmdline>
J2VwaWtfcHl0aG9uJywgJy1waCcsICc3LjAnLCAnLXRuJywgJzgnLCAnLW1hJywgJzIwMCcsICctbWV0YWxfYmluZGluZycsICctaW1hZScsICc8aW5maWxlLm1hZT4nLCAnLW9tYWUnLCAnPG91dGZpbGUubWFlPic=

> <r_lp_tautomer_probability>
1

> <r_epik_Ionization_Penalty>
0.00221712

> <r_epik_Ionization_Penalty_Charging>
0.00217268

> <r_epik_Ionization_Penalty_Neutral>
4.44343e-05

> <r_epik_State_Penalty>
0.0014925

> <r_epik_Charging_Adjusted_Penalty>
0.00366518

> <i_epik_Tot_Q>
-1

> <i_epik_Tot_abs_Q>
1

> <r_epik_Metal_State_Penalty>
-0

> <b_epik_Metal_Only>
0

> <s_lp_Force_Field>
OPLS_2005

> <r_lp_Energy>
14.6475

> <b_lp_Chiralities_Consistent>
1

> <s_lp_Variant>
AV-unprocessed.smi:999-1

> <Gold.Version>
5.8.1

> <Gold.Id.Protein>
6NUR|6NUR_protein|mol2

> <Gold.PLP.Fitness>
44.2202

> <Gold.PLP.PLP>
-33.3267

> <Gold.PLP.part.hbond>
-2.0000

> <Gold.PLP.part.metal>
0.0000

> <Gold.PLP.part.buried>
-2.1404

> <Gold.PLP.part.nonpolar>
-28.6661

> <Gold.PLP.part.repulsive>
0.3684

> <Gold.PLP.ligand.clash>
0.0000

> <Gold.PLP.ligand.torsion>
0.5954

> <Gold.PLP.Chemscore.Hbond>
3.0000

> <Gold.PLP.Chemscore.CHOScore>
0.9818

> <Gold.PLP.Chemscore.Metal>
0.0000

> <Gold.Chemscore.Hbonds>
donor molecule, donor type, donor heavy atom, donor atom, acceptor molecule, acceptor atom, score
      L1  H     5    24       P1  7948  0.85
      P1  H  6896  6909       L1    12  2.00
      L1  C    16    35       P1  7948  0.87

> <Gold.PLP.Chemscore.Internal.Correction>
0.1390

> <Gold.Rescore>
     Score         DG    S(hbond)    S(metal)    S(lipo)     H(rot)  DE(clash)    DE(int)     intcor
     10.94     -11.50       0.99        0.00      66.32       1.98       0.30       0.26       ----

> <Gold.Chemscore.Fitness>
10.9370

> <Gold.Chemscore.DG>
-11.4951

> <Gold.Chemscore.ZeroCoef>
-5.4800

> <Gold.Chemscore.Hbond>
0.9932

> <Gold.Chemscore.Metal>
0.0000

> <Gold.Chemscore.Lipo>
66.3220

> <Gold.Chemscore.Internal_Hbond>
0.0000

> <Gold.Chemscore.DEClash>
0.2974

> <Gold.Chemscore.DEInternal>
0.2607

> <Gold.Chemscore.Rot>
1.9774

> <Gold.Chemscore.Internal.Correction>
   9.000000E+99

> <Gold.Chemscore.Hbonds>
donor molecule, donor type, donor heavy atom, donor atom, acceptor molecule, acceptor atom, score
      L1  H     5    24       P1  7948  0.14
      P1  H  6896  6909       L1    12  0.74

> <Gold.Chemscore.Hbond.Weighted>
-3.3174

> <Gold.Chemscore.Metal.Weighted>
-0.0000

> <Gold.Chemscore.Lipo.Weighted>
-7.7597

> <Gold.Chemscore.Internal_Hbond.Weighted>
0.0000

> <Gold.Chemscore.DEClash.Weighted>
0.2974

> <Gold.Chemscore.DEInternal.Weighted>
0.2607

> <Gold.Chemscore.Rot.Weighted>
5.0620

> <Gold.Chemscore.Internal.Correction.Weighted>
   9.000000E+99

> <Gold.Protein.RotatedTorsions>
[ 6907 6896 6895 6894 ] final  -46.92 input  -60.11 | X-H torsion
[ 7974 7965 7964 7962 ] final   -4.96 input  175.53 | X-H torsion
[ 8008 7997 7996 7995 ] final  -80.40 input   59.86 | X-H torsion
[ 10167 10162 10161 10158 ] final -123.21 input  -65.29 | X-H torsion
[ 10718 10713 10712 10709 ] final -115.80 input   66.30 | X-H torsion
[ 10763 10752 10751 10750 ] final   25.95 input  -60.55 | X-H torsion
[ 11005 11000 10999 10996 ] final   -5.26 input  -57.11 | X-H torsion

> <Gold.Protein.ActiveResidues>
 VAL166  LYS551  ARG553  GLY616  TRP617  ASP618  TYR619  PRO620  LYS621  CYS622 
 ASP623  PHE694  ASN695  SER759  ASP760  ASP761  ALA762  ILE779  LEU786  VAL792 
 PHE793  MET794  SER795  GLU796  ALA797  LYS798  CYS799  TRP800  GLU811  SER814 

> <Gold.Protein.RotatedAtoms>
  150.9061  134.8476  159.7393 H   0  0  0  0  0  0  0  0  0  0  0  0  # atno 6907 bound_to 6896
  152.4919  134.4429  159.9559 H   0  0  0  0  0  0  0  0  0  0  0  0  # atno 6908 bound_to 6896
  151.4475  133.3587  159.2826 H   0  0  0  0  0  0  0  0  0  0  0  0  # atno 6909 bound_to 6896
  146.2362  140.1950  142.8333 H   0  0  0  0  0  0  0  0  0  0  0  0  # atno 7974 bound_to 7965
  154.5879  140.0663  156.9197 H   0  0  0  0  0  0  0  0  0  0  0  0  # atno 8008 bound_to 7997
  155.2347  140.3340  155.4281 H   0  0  0  0  0  0  0  0  0  0  0  0  # atno 8009 bound_to 7997
  156.2235  140.1809  156.7403 H   0  0  0  0  0  0  0  0  0  0  0  0  # atno 8010 bound_to 7997
  140.0060  143.5491  152.2283 H   0  0  0  0  0  0  0  0  0  0  0  0  # atno 10167 bound_to 10162
  156.0920  130.6101  150.8953 H   0  0  0  0  0  0  0  0  0  0  0  0  # atno 10718 bound_to 10713
  153.0656  135.6571  154.0363 H   0  0  0  0  0  0  0  0  0  0  0  0  # atno 10763 bound_to 10752
  154.0020  135.2936  155.3403 H   0  0  0  0  0  0  0  0  0  0  0  0  # atno 10764 bound_to 10752
  154.7012  135.5244  153.8598 H   0  0  0  0  0  0  0  0  0  0  0  0  # atno 10765 bound_to 10752
  140.6892  133.9086  155.8606 H   0  0  0  0  0  0  0  0  0  0  0  0  # atno 11005 bound_to 11000
  144.9828  140.8475  143.5387 LP  0  0  0  0  0  0  0  0  0  0  0  0  # atno 17320 bound_to 7965
  145.1945  139.2284  143.5225 LP  0  0  0  0  0  0  0  0  0  0  0  0  # atno 17321 bound_to 7965
  139.6238  144.7634  151.2682 LP  0  0  0  0  0  0  0  0  0  0  0  0  # atno 17342 bound_to 10162
  140.7400  143.6600  150.8173 LP  0  0  0  0  0  0  0  0  0  0  0  0  # atno 17343 bound_to 10162
  157.6072  131.0938  150.8859 LP  0  0  0  0  0  0  0  0  0  0  0  0  # atno 17370 bound_to 10713
  156.9005  130.5245  149.5283 LP  0  0  0  0  0  0  0  0  0  0  0  0  # atno 17371 bound_to 10713
  141.0255  134.0829  157.4073 LP  0  0  0  0  0  0  0  0  0  0  0  0  # atno 17394 bound_to 11000
  139.8928  135.0127  156.6867 LP  0  0  0  0  0  0  0  0  0  0  0  0  # atno 17395 bound_to 11000

$$$$
