AV-unprocessed.smi:218|AV-procd|sdf|1676|dock7
  -GOLD-   2262020103D 1   1.00000     0.00000
 Structure written by MMmdl.
 54 57  0  0  0  0  0  0  0  0  1 V2000
  154.8576  140.5822  162.2501 C   0  0  0  0  0  0  0  0  0  0  0  0
  154.0367  141.6645  161.5385 C   0  0  0  0  0  0  0  0  0  0  0  0
  153.3875  142.6251  162.5500 C   0  0  0  0  0  0  0  0  0  0  0  0
  153.0306  140.9908  160.7793 O   0  0  0  0  0  0  0  0  0  0  0  0
  152.4524  141.6109  159.6882 C   0  0  0  0  0  0  0  0  0  0  0  0
  152.3996  140.9049  158.4689 C   0  0  0  0  0  0  0  0  0  0  0  0
  151.8090  141.5227  157.3480 C   0  0  0  0  0  0  0  0  0  0  0  0
  151.7239  140.7968  156.0208 C   0  0  0  0  0  0  0  0  0  0  0  0
  150.7993  139.6715  156.0448 N   0  0  0  0  0  0  0  0  0  0  0  0
  149.6595  139.7165  155.3228 C   0  0  0  0  0  0  0  0  0  0  0  0
  149.2231  140.8810  154.7760 N   0  0  0  0  0  0  0  0  0  0  0  0
  148.0920  140.9009  154.0649 C   0  0  0  0  0  0  0  0  0  0  0  0
  147.2653  139.8912  153.7855 N   0  0  0  0  0  0  0  0  0  0  0  0
  147.6986  138.7176  154.3304 C   0  0  0  0  0  0  0  0  0  0  0  0
  148.8780  138.5515  155.1094 C   0  0  0  0  0  0  0  0  0  0  0  0
  149.0009  137.2254  155.5018 N   0  0  0  0  0  0  0  0  0  0  0  0
  147.9537  136.6445  154.9814 C   0  0  0  0  0  0  0  0  0  0  0  0
  147.1150  137.4666  154.2617 N   0  0  0  0  0  0  0  0  0  0  0  0
  145.8491  137.0727  153.5597 C   0  0  2  0  0  0  0  0  0  0  0  0
  145.6952  135.6842  153.6149 O   0  0  0  0  0  0  0  0  0  0  0  0
  145.6464  135.1305  152.2995 C   0  0  1  0  0  0  0  0  0  0  0  0
  144.7363  133.8926  152.2896 C   0  0  0  0  0  0  0  0  0  0  0  0
  143.7360  134.0170  153.2775 O   0  0  0  0  0  0  0  0  0  0  0  0
  145.1071  136.2923  151.4632 C   0  0  2  0  0  0  0  0  0  0  0  0
  145.3577  136.1539  150.0777 O   0  0  0  0  0  0  0  0  0  0  0  0
  145.8165  137.4901  152.0772 C   0  0  2  0  0  0  0  0  0  0  0  0
  147.1036  137.7071  151.5181 O   0  0  0  0  0  0  0  0  0  0  0  0
  151.3005  142.8302  157.4883 C   0  0  0  0  0  0  0  0  0  0  0  0
  151.4033  143.4575  158.7447 C   0  0  0  0  0  0  0  0  0  0  0  0
  151.9634  142.8690  159.8226 N   0  0  0  0  0  0  0  0  0  0  0  0
  145.0538  137.5355  154.1453 H   0  0  0  0  0  0  0  0  0  0  0  0
  146.6549  134.8800  151.9661 H   0  0  0  0  0  0  0  0  0  0  0  0
  144.0318  136.3889  151.6221 H   0  0  0  0  0  0  0  0  0  0  0  0
  145.2353  138.4062  151.9671 H   0  0  0  0  0  0  0  0  0  0  0  0
  155.6596  141.0228  162.8428 H   0  0  0  0  0  0  0  0  0  0  0  0
  155.3136  139.9025  161.5298 H   0  0  0  0  0  0  0  0  0  0  0  0
  154.2342  139.9885  162.9192 H   0  0  0  0  0  0  0  0  0  0  0  0
  154.7203  142.2125  160.8883 H   0  0  0  0  0  0  0  0  0  0  0  0
  154.1435  143.1132  163.1653 H   0  0  0  0  0  0  0  0  0  0  0  0
  152.7087  142.0924  163.2165 H   0  0  0  0  0  0  0  0  0  0  0  0
  152.8153  143.4092  162.0550 H   0  0  0  0  0  0  0  0  0  0  0  0
  152.8017  139.9046  158.4011 H   0  0  0  0  0  0  0  0  0  0  0  0
  151.4073  141.5111  155.2597 H   0  0  0  0  0  0  0  0  0  0  0  0
  152.7159  140.4420  155.7375 H   0  0  0  0  0  0  0  0  0  0  0  0
  151.0841  138.8718  156.5920 H   0  0  0  0  0  0  0  0  0  0  0  0
  147.8085  141.8618  153.6614 H   0  0  0  0  0  0  0  0  0  0  0  0
  147.7615  135.5892  155.1108 H   0  0  0  0  0  0  0  0  0  0  0  0
  144.2861  133.7386  151.3086 H   0  0  0  0  0  0  0  0  0  0  0  0
  145.3155  132.9991  152.5241 H   0  0  0  0  0  0  0  0  0  0  0  0
  143.6343  133.1828  153.7099 H   0  0  0  0  0  0  0  0  0  0  0  0
  144.8548  136.8113  149.6204 H   0  0  0  0  0  0  0  0  0  0  0  0
  147.7402  137.2521  152.0481 H   0  0  0  0  0  0  0  0  0  0  0  0
  150.8438  143.3430  156.6544 H   0  0  0  0  0  0  0  0  0  0  0  0
  151.0251  144.4588  158.8882 H   0  0  0  0  0  0  0  0  0  0  0  0
  1  2  1  0  0  0  0
  1 35  1  0  0  0  0
  1 36  1  0  0  0  0
  1 37  1  0  0  0  0
  2  3  1  0  0  0  0
  2  4  1  0  0  0  0
  2 38  1  0  0  0  0
  3 39  1  0  0  0  0
  3 40  1  0  0  0  0
  3 41  1  0  0  0  0
  4  5  1  0  0  0  0
  5 30  1  0  0  0  0
  5  6  2  0  0  0  0
  6  7  1  0  0  0  0
  6 42  1  0  0  0  0
  7  8  1  0  0  0  0
  7 28  2  0  0  0  0
  8  9  1  0  0  0  0
  8 43  1  0  0  0  0
  8 44  1  0  0  0  0
  9 10  1  0  0  0  0
  9 45  1  0  0  0  0
 10 15  1  0  0  0  0
 10 11  2  0  0  0  0
 11 12  1  0  0  0  0
 12 13  2  0  0  0  0
 12 46  1  0  0  0  0
 13 14  1  0  0  0  0
 14 18  1  0  0  0  0
 14 15  2  0  0  0  0
 15 16  1  0  0  0  0
 16 17  2  0  0  0  0
 17 18  1  0  0  0  0
 17 47  1  0  0  0  0
 18 19  1  0  0  0  0
 19 31  1  0  0  0  0
 19 26  1  0  0  0  0
 19 20  1  0  0  0  0
 20 21  1  0  0  0  0
 21 32  1  0  0  0  0
 21 22  1  0  0  0  0
 21 24  1  0  0  0  0
 22 23  1  0  0  0  0
 22 48  1  0  0  0  0
 22 49  1  0  0  0  0
 23 50  1  0  0  0  0
 24 33  1  0  0  0  0
 24 25  1  0  0  0  0
 24 26  1  0  0  0  0
 25 51  1  0  0  0  0
 26 34  1  0  0  0  0
 26 27  1  0  0  0  0
 27 52  1  0  0  0  0
 28 29  1  0  0  0  0
 28 53  1  0  0  0  0
 29 30  2  0  0  0  0
 29 54  1  0  0  0  0
M  END
> <s_m_source_file>
AV-unprocessed.smi

> <i_m_source_file_index>
218

> <i_lp_mmshare_version>
43012

> <i_f3d_flags>
0

> <s_epik_input>
W0NIM11bQ0hdKFtDSDNdKU9jMVtjSF1jKFtjSF1bY0hdbjEpW0NIMl1bTkhdYyhuW2NIXW4yKWMoYzIzKW5bY0hdbjNbQ0BASF00T1tDQEhdKFtDSDJdW09IXSlbQ0BASF0oW09IXSlbQ0BIXTRbT0hd

> <s_epik_cmdline>
J2VwaWtfcHl0aG9uJywgJy1waCcsICc3LjAnLCAnLXRuJywgJzgnLCAnLW1hJywgJzIwMCcsICctbWV0YWxfYmluZGluZycsICctaW1hZScsICc8aW5maWxlLm1hZT4nLCAnLW9tYWUnLCAnPG91dGZpbGUubWFlPic=

> <r_lp_tautomer_probability>
1

> <r_epik_Ionization_Penalty>
0.00457014

> <r_epik_Ionization_Penalty_Charging>
0

> <r_epik_Ionization_Penalty_Neutral>
0.00457014

> <r_epik_State_Penalty>
-0

> <r_epik_Charging_Adjusted_Penalty>
0

> <i_epik_Tot_Q>
0

> <i_epik_Tot_abs_Q>
0

> <r_epik_Metal_State_Penalty>
-0

> <b_epik_Metal_Only>
0

> <s_epik_Chemistry_Notes>
This compound contains an acetal/aminal-like group ( X-CH(R)-Y where X, Y are N, S, or O) that may be acid/base labile, releasing an aldehyde.

> <s_lp_Force_Field>
OPLS_2005

> <r_lp_Energy>
48.139

> <b_lp_Chiralities_Consistent>
1

> <s_lp_Variant>
AV-unprocessed.smi:218-15

> <Gold.Version>
5.8.1

> <Gold.Id.Protein>
6NUR|6NUR_protein|mol2

> <Gold.PLP.Fitness>
49.8236

> <Gold.PLP.PLP>
-40.6937

> <Gold.PLP.part.hbond>
-4.4424

> <Gold.PLP.part.metal>
0.0000

> <Gold.PLP.part.buried>
-5.0987

> <Gold.PLP.part.nonpolar>
-31.0412

> <Gold.PLP.part.repulsive>
0.5052

> <Gold.PLP.ligand.clash>
0.0000

> <Gold.PLP.ligand.torsion>
0.8876

> <Gold.PLP.Chemscore.Hbond>
3.5800

> <Gold.PLP.Chemscore.CHOScore>
0.0000

> <Gold.PLP.Chemscore.Metal>
0.0000

> <Gold.Chemscore.Hbonds>
donor molecule, donor type, donor heavy atom, donor atom, acceptor molecule, acceptor atom, score
      L1  H    23    50       P1 10957  1.00
      L1  H    25    51       P1 10171  0.93
      L1  H    27    52       P1  7948  0.75
      P1  H  7954  7966       L1    27  0.90

> <Gold.PLP.Chemscore.Internal.Correction>
0.1650

> <Gold.Rescore>
     Score         DG    S(hbond)    S(metal)    S(lipo)     H(rot)  DE(clash)    DE(int)     intcor
     11.47     -13.41       2.80        0.00      95.03       4.90       1.09       0.85       ----

> <Gold.Chemscore.Fitness>
11.4694

> <Gold.Chemscore.DG>
-13.4116

> <Gold.Chemscore.ZeroCoef>
-5.4800

> <Gold.Chemscore.Hbond>
2.8039

> <Gold.Chemscore.Metal>
0.0000

> <Gold.Chemscore.Lipo>
95.0277

> <Gold.Chemscore.Internal_Hbond>
0.0000

> <Gold.Chemscore.DEClash>
1.0889

> <Gold.Chemscore.DEInternal>
0.8533

> <Gold.Chemscore.Rot>
4.9029

> <Gold.Chemscore.Internal.Correction>
   9.000000E+99

> <Gold.Chemscore.Hbonds>
donor molecule, donor type, donor heavy atom, donor atom, acceptor molecule, acceptor atom, score
      L1  H    23    50       P1 10957  0.91
      L1  H    25    51       P1 10171  0.85
      L1  H    27    52       P1  7948  0.72
      P1  H  7954  7966       L1    27  0.18

> <Gold.Chemscore.Hbond.Weighted>
-9.3649

> <Gold.Chemscore.Metal.Weighted>
-0.0000

> <Gold.Chemscore.Lipo.Weighted>
-11.1182

> <Gold.Chemscore.Internal_Hbond.Weighted>
0.0000

> <Gold.Chemscore.DEClash.Weighted>
1.0889

> <Gold.Chemscore.DEInternal.Weighted>
0.8533

> <Gold.Chemscore.Rot.Weighted>
12.5515

> <Gold.Chemscore.Internal.Correction.Weighted>
   9.000000E+99

> <Gold.Protein.RotatedTorsions>
[ 6907 6896 6895 6894 ] final  129.70 input  -60.11 | X-H torsion
[ 7974 7965 7964 7962 ] final   61.08 input  175.53 | X-H torsion
[ 8008 7997 7996 7995 ] final -174.89 input   59.86 | X-H torsion
[ 10167 10162 10161 10158 ] final  136.99 input  -65.29 | X-H torsion
[ 10718 10713 10712 10709 ] final   15.41 input   66.30 | X-H torsion
[ 10763 10752 10751 10750 ] final  129.65 input  -60.55 | X-H torsion
[ 11005 11000 10999 10996 ] final -107.42 input  -57.11 | X-H torsion

> <Gold.Protein.ActiveResidues>
 VAL166  LYS551  ARG553  GLY616  TRP617  ASP618  TYR619  PRO620  LYS621  CYS622 
 ASP623  PHE694  ASN695  SER759  ASP760  ASP761  ALA762  ILE779  LEU786  VAL792 
 PHE793  MET794  SER795  GLU796  ALA797  LYS798  CYS799  TRP800  GLU811  SER814 

> <Gold.Protein.RotatedAtoms>
  152.3598  133.6283  159.6006 H   0  0  0  0  0  0  0  0  0  0  0  0  # atno 6907 bound_to 6896
  150.7593  133.9441  159.3474 H   0  0  0  0  0  0  0  0  0  0  0  0  # atno 6908 bound_to 6896
  151.7281  135.0881  160.0346 H   0  0  0  0  0  0  0  0  0  0  0  0  # atno 6909 bound_to 6896
  145.8887  139.3495  143.0662 H   0  0  0  0  0  0  0  0  0  0  0  0  # atno 7974 bound_to 7965
  155.9758  140.1172  157.0772 H   0  0  0  0  0  0  0  0  0  0  0  0  # atno 8008 bound_to 7997
  154.4169  140.1154  156.5435 H   0  0  0  0  0  0  0  0  0  0  0  0  # atno 8009 bound_to 7997
  155.6537  140.3473  155.4759 H   0  0  0  0  0  0  0  0  0  0  0  0  # atno 8010 bound_to 7997
  139.5160  144.6434  151.5506 H   0  0  0  0  0  0  0  0  0  0  0  0  # atno 10167 bound_to 10162
  157.0531  130.6278  149.5771 H   0  0  0  0  0  0  0  0  0  0  0  0  # atno 10718 bound_to 10713
  153.7451  135.3218  155.3311 H   0  0  0  0  0  0  0  0  0  0  0  0  # atno 10763 bound_to 10752
  154.8282  135.4554  154.0987 H   0  0  0  0  0  0  0  0  0  0  0  0  # atno 10764 bound_to 10752
  153.2174  135.6943  153.8123 H   0  0  0  0  0  0  0  0  0  0  0  0  # atno 10765 bound_to 10752
  141.0955  133.8979  157.1974 H   0  0  0  0  0  0  0  0  0  0  0  0  # atno 11005 bound_to 11000
  145.8935  140.9289  143.0540 LP  0  0  0  0  0  0  0  0  0  0  0  0  # atno 17320 bound_to 7965
  144.6729  140.0937  143.7464 LP  0  0  0  0  0  0  0  0  0  0  0  0  # atno 17321 bound_to 7965
  140.6210  143.9258  150.6526 LP  0  0  0  0  0  0  0  0  0  0  0  0  # atno 17342 bound_to 10162
  140.2532  143.3578  152.1388 LP  0  0  0  0  0  0  0  0  0  0  0  0  # atno 17343 bound_to 10162
  156.0001  130.5079  150.7632 LP  0  0  0  0  0  0  0  0  0  0  0  0  # atno 17370 bound_to 10713
  157.5014  131.0919  151.0309 LP  0  0  0  0  0  0  0  0  0  0  0  0  # atno 17371 bound_to 10713
  139.9790  135.0104  156.9703 LP  0  0  0  0  0  0  0  0  0  0  0  0  # atno 17394 bound_to 11000
  140.5151  134.0963  155.7279 LP  0  0  0  0  0  0  0  0  0  0  0  0  # atno 17395 bound_to 11000

$$$$
