AV-unprocessed.smi:1520|AV-procd|sdf|6129|dock7
  -GOLD-   22720 6273D 1   1.00000     0.00000
 Structure written by MMmdl.
 37 38  0  0  0  0  0  0  0  0  1 V2000
  151.5409  140.9864  158.4166 O   0  0  0  0  0  0  0  0  0  0  0  0
  150.9444  141.9936  158.0356 C   0  0  0  0  0  0  0  0  0  0  0  0
  150.6540  143.1520  158.9980 C   0  0  0  0  0  0  0  0  0  0  0  0
  151.9019  143.7888  159.6428 C   0  0  0  0  0  0  0  0  0  0  0  0
  152.6472  144.3475  158.6899 F   0  0  0  0  0  0  0  0  0  0  0  0
  151.5552  144.7331  160.5187 F   0  0  0  0  0  0  0  0  0  0  0  0
  152.6343  142.8663  160.2687 F   0  0  0  0  0  0  0  0  0  0  0  0
  150.5123  142.1573  156.7755 N   0  0  0  0  0  0  0  0  0  0  0  0
  150.7064  141.2031  155.6901 C   0  0  0  0  0  0  0  0  0  0  0  0
  149.3946  140.7651  155.0659 C   0  0  0  0  0  0  0  0  0  0  0  0
  149.3503  139.6815  154.1657 C   0  0  0  0  0  0  0  0  0  0  0  0
  148.1090  139.3273  153.6030 C   0  0  0  0  0  0  0  0  0  0  0  0
  146.9570  139.9724  153.8850 N   0  0  0  0  0  0  0  0  0  0  0  0
  147.0001  141.0135  154.7509 C   0  0  0  0  0  0  0  0  0  0  0  0
  145.8042  141.6803  155.0528 N   0  0  0  0  0  0  0  0  0  0  0  0
  145.3678  141.5028  156.4325 C   0  0  0  0  0  0  0  0  0  0  0  0
  143.9942  142.1651  156.6391 C   0  0  0  0  0  0  0  0  0  0  0  0
  144.0633  143.5381  156.2645 O   0  0  0  0  0  0  0  0  0  0  0  0
  144.4204  143.7019  154.8947 C   0  0  0  0  0  0  0  0  0  0  0  0
  145.8048  143.0796  154.6444 C   0  0  0  0  0  0  0  0  0  0  0  0
  148.1960  141.4460  155.3616 C   0  0  0  0  0  0  0  0  0  0  0  0
  150.1014  143.9181  158.4523 H   0  0  0  0  0  0  0  0  0  0  0  0
  149.9874  142.7872  159.7805 H   0  0  0  0  0  0  0  0  0  0  0  0
  150.0308  143.0146  156.5456 H   0  0  0  0  0  0  0  0  0  0  0  0
  151.3607  141.6173  154.9209 H   0  0  0  0  0  0  0  0  0  0  0  0
  151.2239  140.3305  156.0894 H   0  0  0  0  0  0  0  0  0  0  0  0
  150.2455  139.1352  153.9076 H   0  0  0  0  0  0  0  0  0  0  0  0
  148.0395  138.5034  152.9082 H   0  0  0  0  0  0  0  0  0  0  0  0
  145.3108  140.4395  156.6688 H   0  0  0  0  0  0  0  0  0  0  0  0
  146.0974  141.9461  157.1117 H   0  0  0  0  0  0  0  0  0  0  0  0
  143.2252  141.6566  156.0554 H   0  0  0  0  0  0  0  0  0  0  0  0
  143.6971  142.0971  157.6856 H   0  0  0  0  0  0  0  0  0  0  0  0
  143.6658  143.2434  154.2536 H   0  0  0  0  0  0  0  0  0  0  0  0
  144.4380  144.7655  154.6566 H   0  0  0  0  0  0  0  0  0  0  0  0
  146.5629  143.6280  155.2053 H   0  0  0  0  0  0  0  0  0  0  0  0
  146.0654  143.1563  153.5881 H   0  0  0  0  0  0  0  0  0  0  0  0
  148.1925  142.2829  156.0450 H   0  0  0  0  0  0  0  0  0  0  0  0
  1  2  2  0  0  0  0
  2  3  1  0  0  0  0
  2  8  1  0  0  0  0
  3  4  1  0  0  0  0
  3 22  1  0  0  0  0
  3 23  1  0  0  0  0
  4  5  1  0  0  0  0
  4  6  1  0  0  0  0
  4  7  1  0  0  0  0
  8  9  1  0  0  0  0
  8 24  1  0  0  0  0
  9 10  1  0  0  0  0
  9 25  1  0  0  0  0
  9 26  1  0  0  0  0
 10 21  1  0  0  0  0
 10 11  2  0  0  0  0
 11 12  1  0  0  0  0
 11 27  1  0  0  0  0
 12 13  2  0  0  0  0
 12 28  1  0  0  0  0
 13 14  1  0  0  0  0
 14 15  1  0  0  0  0
 14 21  2  0  0  0  0
 15 20  1  0  0  0  0
 15 16  1  0  0  0  0
 16 17  1  0  0  0  0
 16 29  1  0  0  0  0
 16 30  1  0  0  0  0
 17 18  1  0  0  0  0
 17 31  1  0  0  0  0
 17 32  1  0  0  0  0
 18 19  1  0  0  0  0
 19 20  1  0  0  0  0
 19 33  1  0  0  0  0
 19 34  1  0  0  0  0
 20 35  1  0  0  0  0
 20 36  1  0  0  0  0
 21 37  1  0  0  0  0
M  END
> <s_m_source_file>
AV-unprocessed.smi

> <i_m_source_file_index>
1520

> <i_lp_mmshare_version>
43012

> <i_f3d_flags>
0

> <s_epik_input>
RkMoRikoRilbQ0gyXUMoPU8pW05IXVtDSDJdYzFbY0hdW2NIXW5jKFtjSF0xKU4yW0NIMl1bQ0gyXU9bQ0gyXVtDSDJdMg==

> <s_epik_cmdline>
J2VwaWtfcHl0aG9uJywgJy1waCcsICc3LjAnLCAnLXRuJywgJzgnLCAnLW1hJywgJzIwMCcsICctbWV0YWxfYmluZGluZycsICctaW1hZScsICc8aW5maWxlLm1hZT4nLCAnLW9tYWUnLCAnPG91dGZpbGUubWFlPic=

> <r_lp_tautomer_probability>
1

> <r_epik_Ionization_Penalty>
0.00358568

> <r_epik_Ionization_Penalty_Charging>
0

> <r_epik_Ionization_Penalty_Neutral>
0.00358568

> <r_epik_State_Penalty>
0.00254794

> <r_epik_Charging_Adjusted_Penalty>
0.00254794

> <i_epik_Tot_Q>
0

> <i_epik_Tot_abs_Q>
0

> <r_epik_Metal_State_Penalty>
-0

> <b_epik_Metal_Only>
0

> <s_lp_Force_Field>
OPLS_2005

> <r_lp_Energy>
12.9291

> <b_lp_Chiralities_Consistent>
1

> <s_lp_Variant>
AV-unprocessed.smi:1520-1

> <Gold.Version>
5.8.1

> <Gold.Id.Protein>
6NUR|6NUR_protein|mol2

> <Gold.PLP.Fitness>
50.2976

> <Gold.PLP.PLP>
-45.4753

> <Gold.PLP.part.hbond>
-1.0000

> <Gold.PLP.part.metal>
0.0000

> <Gold.PLP.part.buried>
-3.5797

> <Gold.PLP.part.nonpolar>
-40.8984

> <Gold.PLP.part.repulsive>
0.5447

> <Gold.PLP.ligand.clash>
0.0000

> <Gold.PLP.ligand.torsion>
0.1971

> <Gold.PLP.Chemscore.Hbond>
0.9913

> <Gold.PLP.Chemscore.CHOScore>
0.7075

> <Gold.PLP.Chemscore.Metal>
0.0000

> <Gold.Chemscore.Hbonds>
donor molecule, donor type, donor heavy atom, donor atom, acceptor molecule, acceptor atom, score
      L1  H     8    24       P1  8028  0.49
      L1  C    12    28       P1  7948  0.72
      L1  C    12    28       P1  7957  0.06

> <Gold.PLP.Chemscore.Internal.Correction>
0.1203

> <Gold.Rescore>
     Score         DG    S(hbond)    S(metal)    S(lipo)     H(rot)  DE(clash)    DE(int)     intcor
     11.61     -12.39       1.00        0.00      74.46       2.01       0.17       0.60       ----

> <Gold.Chemscore.Fitness>
11.6087

> <Gold.Chemscore.DG>
-12.3852

> <Gold.Chemscore.ZeroCoef>
-5.4800

> <Gold.Chemscore.Hbond>
0.9999

> <Gold.Chemscore.Metal>
0.0000

> <Gold.Chemscore.Lipo>
74.4566

> <Gold.Chemscore.Internal_Hbond>
0.0000

> <Gold.Chemscore.DEClash>
0.1747

> <Gold.Chemscore.DEInternal>
0.6017

> <Gold.Chemscore.Rot>
2.0101

> <Gold.Chemscore.Internal.Correction>
   9.000000E+99

> <Gold.Chemscore.Hbonds>
donor molecule, donor type, donor heavy atom, donor atom, acceptor molecule, acceptor atom, score
      L1  H     8    24       P1  8028  0.50

> <Gold.Chemscore.Hbond.Weighted>
-3.3395

> <Gold.Chemscore.Metal.Weighted>
-0.0000

> <Gold.Chemscore.Lipo.Weighted>
-8.7114

> <Gold.Chemscore.Internal_Hbond.Weighted>
0.0000

> <Gold.Chemscore.DEClash.Weighted>
0.1747

> <Gold.Chemscore.DEInternal.Weighted>
0.6017

> <Gold.Chemscore.Rot.Weighted>
5.1458

> <Gold.Chemscore.Internal.Correction.Weighted>
   9.000000E+99

> <Gold.Protein.RotatedTorsions>
[ 6907 6896 6895 6894 ] final    5.48 input  -60.11 | X-H torsion
[ 7974 7965 7964 7962 ] final -112.94 input  175.53 | X-H torsion
[ 8008 7997 7996 7995 ] final  155.89 input   59.86 | X-H torsion
[ 10167 10162 10161 10158 ] final    3.11 input  -65.29 | X-H torsion
[ 10718 10713 10712 10709 ] final -121.10 input   66.30 | X-H torsion
[ 10763 10752 10751 10750 ] final -104.35 input  -60.55 | X-H torsion
[ 11005 11000 10999 10996 ] final -174.80 input  -57.11 | X-H torsion

> <Gold.Protein.ActiveResidues>
 VAL166  LYS551  ARG553  GLY616  TRP617  ASP618  TYR619  PRO620  LYS621  CYS622 
 ASP623  PHE694  ASN695  SER759  ASP760  ASP761  ALA762  ILE779  LEU786  VAL792 
 PHE793  MET794  SER795  GLU796  ALA797  LYS798  CYS799  TRP800  GLU811  SER814 

> <Gold.Protein.RotatedAtoms>
  151.6582  135.0993  160.0174 H   0  0  0  0  0  0  0  0  0  0  0  0  # atno 6907 bound_to 6896
  152.3962  133.6746  159.6286 H   0  0  0  0  0  0  0  0  0  0  0  0  # atno 6908 bound_to 6896
  150.7869  133.8787  159.3320 H   0  0  0  0  0  0  0  0  0  0  0  0  # atno 6909 bound_to 6896
  145.1380  140.8762  143.3719 H   0  0  0  0  0  0  0  0  0  0  0  0  # atno 7974 bound_to 7965
  156.2453  140.1927  156.6871 H   0  0  0  0  0  0  0  0  0  0  0  0  # atno 8008 bound_to 7997
  154.6279  140.0599  156.9722 H   0  0  0  0  0  0  0  0  0  0  0  0  # atno 8009 bound_to 7997
  155.1757  140.3272  155.4387 H   0  0  0  0  0  0  0  0  0  0  0  0  # atno 8010 bound_to 7997
  140.6602  143.7324  150.7724 H   0  0  0  0  0  0  0  0  0  0  0  0  # atno 10167 bound_to 10162
  156.1310  130.6395  150.9621 H   0  0  0  0  0  0  0  0  0  0  0  0  # atno 10718 bound_to 10713
  154.7872  135.4789  153.9972 H   0  0  0  0  0  0  0  0  0  0  0  0  # atno 10763 bound_to 10752
  153.1577  135.6803  153.8795 H   0  0  0  0  0  0  0  0  0  0  0  0  # atno 10764 bound_to 10752
  153.8419  135.3178  155.3405 H   0  0  0  0  0  0  0  0  0  0  0  0  # atno 10765 bound_to 10752
  140.4704  134.6171  157.4879 H   0  0  0  0  0  0  0  0  0  0  0  0  # atno 11005 bound_to 11000
  145.0563  139.3141  143.5903 LP  0  0  0  0  0  0  0  0  0  0  0  0  # atno 17320 bound_to 7965
  146.3508  139.9989  142.8678 LP  0  0  0  0  0  0  0  0  0  0  0  0  # atno 17321 bound_to 7965
  140.0991  143.4804  152.2435 LP  0  0  0  0  0  0  0  0  0  0  0  0  # atno 17342 bound_to 10162
  139.5834  144.7520  151.3582 LP  0  0  0  0  0  0  0  0  0  0  0  0  # atno 17343 bound_to 10162
  157.6488  131.0900  150.8096 LP  0  0  0  0  0  0  0  0  0  0  0  0  # atno 17370 bound_to 10713
  156.8181  130.4974  149.5347 LP  0  0  0  0  0  0  0  0  0  0  0  0  # atno 17371 bound_to 10713
  139.9889  134.7017  155.9725 LP  0  0  0  0  0  0  0  0  0  0  0  0  # atno 17394 bound_to 11000
  141.1579  133.6541  156.4223 LP  0  0  0  0  0  0  0  0  0  0  0  0  # atno 17395 bound_to 11000

$$$$
