AV-unprocessed.smi:86|AV-procd|sdf|813|dock7
  -GOLD-   2262017213D 1   1.00000     0.00000
 Structure written by MMmdl.
 51 55  0  0  0  0  0  0  0  0  1 V2000
  148.1212  137.2493  161.2777 O   0  0  0  0  0  0  0  0  0  0  0  0
  147.6301  135.9282  161.1756 C   0  0  0  0  0  0  0  0  0  0  0  0
  146.9999  135.6696  159.7960 C   0  0  0  0  0  0  0  0  0  0  0  0
  148.0648  135.7848  158.6863 C   0  0  0  0  0  0  0  0  0  0  0  0
  148.6402  137.1157  158.5607 N   0  0  0  0  0  0  0  0  0  0  0  0
  147.9729  138.2752  158.2407 C   0  0  0  0  0  0  0  0  0  0  0  0
  148.7151  139.3462  158.1881 N   0  0  0  0  0  0  0  0  0  0  0  0
  149.9978  138.8965  158.4834 C   0  0  0  0  0  0  0  0  0  0  0  0
  151.2780  139.5179  158.5984 C   0  0  0  0  0  0  0  0  0  0  0  0
  151.5167  140.8422  158.4114 N   0  0  0  0  0  0  0  0  0  0  0  0
  150.4947  141.8666  158.5586 C   0  0  0  0  0  0  0  0  0  0  0  0
  151.2431  143.1811  158.3286 C   0  0  1  0  0  0  0  0  0  0  0  0
  150.5687  144.4537  158.8781 C   0  0  0  0  0  0  0  0  0  0  0  0
  150.6766  144.5789  160.4050 C   0  0  0  0  0  0  0  0  0  0  0  0
  152.1380  144.4489  160.8604 C   0  0  1  0  0  0  0  0  0  0  0  0
  152.2011  144.5586  162.2668 O   0  0  0  0  0  0  0  0  0  0  0  0
  152.7159  143.0932  160.4282 C   0  0  0  0  0  0  0  0  0  0  0  0
  152.6422  142.8922  158.8984 C   0  0  1  0  0  0  0  0  0  0  0  0
  152.8547  141.4179  158.5216 C   0  0  0  0  0  0  0  0  0  0  0  0
  152.3309  138.7146  158.9044 N   0  0  0  0  0  0  0  0  0  0  0  0
  152.1561  137.4040  159.0922 C   0  0  0  0  0  0  0  0  0  0  0  0
  151.0289  136.6959  159.0222 N   0  0  0  0  0  0  0  0  0  0  0  0
  149.9646  137.4898  158.7130 C   0  0  0  0  0  0  0  0  0  0  0  0
  146.0831  134.4407  159.7228 C   0  0  0  0  0  0  0  0  0  0  0  0
  144.8917  135.2514  159.8061 O   0  0  0  0  0  0  0  0  0  0  0  0
  145.6876  136.4269  159.5477 C   0  0  0  0  0  0  0  0  0  0  0  0
  147.8721  137.7241  160.4996 H   0  0  0  0  0  0  0  0  0  0  0  0
  148.4662  135.2497  161.3485 H   0  0  0  0  0  0  0  0  0  0  0  0
  146.9224  135.7462  161.9843 H   0  0  0  0  0  0  0  0  0  0  0  0
  148.8721  135.0697  158.8472 H   0  0  0  0  0  0  0  0  0  0  0  0
  147.6348  135.5216  157.7192 H   0  0  0  0  0  0  0  0  0  0  0  0
  146.9112  138.3058  158.0455 H   0  0  0  0  0  0  0  0  0  0  0  0
  149.6899  141.7394  157.8343 H   0  0  0  0  0  0  0  0  0  0  0  0
  150.0725  141.8189  159.5627 H   0  0  0  0  0  0  0  0  0  0  0  0
  151.3437  143.3010  157.2485 H   0  0  0  0  0  0  0  0  0  0  0  0
  151.0466  145.3235  158.4256 H   0  0  0  0  0  0  0  0  0  0  0  0
  149.5236  144.4880  158.5693 H   0  0  0  0  0  0  0  0  0  0  0  0
  150.2681  145.5391  160.7225 H   0  0  0  0  0  0  0  0  0  0  0  0
  150.0665  143.8113  160.8828 H   0  0  0  0  0  0  0  0  0  0  0  0
  152.7315  145.2568  160.4309 H   0  0  0  0  0  0  0  0  0  0  0  0
  151.6677  143.8765  162.6455 H   0  0  0  0  0  0  0  0  0  0  0  0
  153.7515  143.0034  160.7583 H   0  0  0  0  0  0  0  0  0  0  0  0
  152.1665  142.2960  160.9320 H   0  0  0  0  0  0  0  0  0  0  0  0
  153.3884  143.5293  158.4222 H   0  0  0  0  0  0  0  0  0  0  0  0
  153.4742  140.9032  159.2576 H   0  0  0  0  0  0  0  0  0  0  0  0
  153.3463  141.3373  157.5516 H   0  0  0  0  0  0  0  0  0  0  0  0
  153.0469  136.8425  159.3321 H   0  0  0  0  0  0  0  0  0  0  0  0
  146.1398  133.9000  158.7767 H   0  0  0  0  0  0  0  0  0  0  0  0
  146.1838  133.7573  160.5667 H   0  0  0  0  0  0  0  0  0  0  0  0
  145.4954  137.2303  160.2596 H   0  0  0  0  0  0  0  0  0  0  0  0
  145.5598  136.7763  158.5224 H   0  0  0  0  0  0  0  0  0  0  0  0
  1  2  1  0  0  0  0
  1 27  1  0  0  0  0
  2  3  1  0  0  0  0
  2 28  1  0  0  0  0
  2 29  1  0  0  0  0
  3 26  1  0  0  0  0
  3  4  1  0  0  0  0
  3 24  1  0  0  0  0
  4  5  1  0  0  0  0
  4 30  1  0  0  0  0
  4 31  1  0  0  0  0
  5 23  1  0  0  0  0
  5  6  1  0  0  0  0
  6  7  2  0  0  0  0
  6 32  1  0  0  0  0
  7  8  1  0  0  0  0
  8 23  2  0  0  0  0
  8  9  1  0  0  0  0
  9 10  1  0  0  0  0
  9 20  2  0  0  0  0
 10 19  1  0  0  0  0
 10 11  1  0  0  0  0
 11 12  1  0  0  0  0
 11 33  1  0  0  0  0
 11 34  1  0  0  0  0
 12 18  1  0  0  0  0
 12 13  1  0  0  0  0
 12 35  1  0  0  0  0
 13 14  1  0  0  0  0
 13 36  1  0  0  0  0
 13 37  1  0  0  0  0
 14 15  1  0  0  0  0
 14 38  1  0  0  0  0
 14 39  1  0  0  0  0
 15 16  1  0  0  0  0
 15 17  1  0  0  0  0
 15 40  1  0  0  0  0
 16 41  1  0  0  0  0
 17 18  1  0  0  0  0
 17 42  1  0  0  0  0
 17 43  1  0  0  0  0
 18 19  1  0  0  0  0
 18 44  1  0  0  0  0
 19 45  1  0  0  0  0
 19 46  1  0  0  0  0
 20 21  1  0  0  0  0
 21 22  2  0  0  0  0
 21 47  1  0  0  0  0
 22 23  1  0  0  0  0
 24 25  1  0  0  0  0
 24 48  1  0  0  0  0
 24 49  1  0  0  0  0
 25 26  1  0  0  0  0
 26 50  1  0  0  0  0
 26 51  1  0  0  0  0
M  END
> <s_m_source_file>
AV-unprocessed.smi

> <i_m_source_file_index>
86

> <i_lp_mmshare_version>
43012

> <i_f3d_flags>
0

> <s_epik_input>
W0NIMl0xT1tDSDJdQzEoW0NIMl1bT0hdKVtDSDJdbihbY0hdbjIpYyhjMjMpbltjSF1uYzNOKFtDSDJdNClbQ0gyXVtDQEBIXShbQ0BIXTQ1KVtDSDJdW0NASF0oW09IXSlbQ0gyXVtDSDJdNQ==

> <s_epik_cmdline>
J2VwaWtfcHl0aG9uJywgJy1waCcsICc3LjAnLCAnLXRuJywgJzgnLCAnLW1hJywgJzIwMCcsICctbWV0YWxfYmluZGluZycsICctaW1hZScsICc8aW5maWxlLm1hZT4nLCAnLW9tYWUnLCAnPG91dGZpbGUubWFlPic=

> <r_lp_tautomer_probability>
1

> <r_epik_Ionization_Penalty>
0.00425795

> <r_epik_Ionization_Penalty_Charging>
0

> <r_epik_Ionization_Penalty_Neutral>
0.00425795

> <r_epik_State_Penalty>
0.00299946

> <r_epik_Charging_Adjusted_Penalty>
0.00299946

> <i_epik_Tot_Q>
0

> <i_epik_Tot_abs_Q>
0

> <r_epik_Metal_State_Penalty>
-0

> <b_epik_Metal_Only>
0

> <s_lp_Force_Field>
OPLS_2005

> <r_lp_Energy>
54.7951

> <b_lp_Chiralities_Consistent>
1

> <s_lp_Variant>
AV-unprocessed.smi:86-2

> <Gold.Version>
5.8.1

> <Gold.Id.Protein>
6NUR|6NUR_protein|mol2

> <Gold.PLP.Fitness>
46.0713

> <Gold.PLP.PLP>
-40.2557

> <Gold.PLP.part.hbond>
-4.8485

> <Gold.PLP.part.metal>
0.0000

> <Gold.PLP.part.buried>
-7.0791

> <Gold.PLP.part.nonpolar>
-29.0774

> <Gold.PLP.part.repulsive>
0.0000

> <Gold.PLP.ligand.clash>
0.0000

> <Gold.PLP.ligand.torsion>
0.3047

> <Gold.PLP.Chemscore.Hbond>
1.9913

> <Gold.PLP.Chemscore.CHOScore>
0.0000

> <Gold.PLP.Chemscore.Metal>
0.0000

> <Gold.Chemscore.Hbonds>
donor molecule, donor type, donor heavy atom, donor atom, acceptor molecule, acceptor atom, score
      P1  H  6896  6907       L1    22  1.00
      P1  H  6931  6943       L1     1  0.91

> <Gold.PLP.Chemscore.Internal.Correction>
0.4512

> <Gold.Rescore>
     Score         DG    S(hbond)    S(metal)    S(lipo)     H(rot)  DE(clash)    DE(int)     intcor
     12.35     -15.51       1.76        0.00      95.99       2.76       1.32       1.84       ----

> <Gold.Chemscore.Fitness>
12.3477

> <Gold.Chemscore.DG>
-15.5083

> <Gold.Chemscore.ZeroCoef>
-5.4800

> <Gold.Chemscore.Hbond>
1.7577

> <Gold.Chemscore.Metal>
0.0000

> <Gold.Chemscore.Lipo>
95.9899

> <Gold.Chemscore.Internal_Hbond>
0.0000

> <Gold.Chemscore.DEClash>
1.3225

> <Gold.Chemscore.DEInternal>
1.8380

> <Gold.Chemscore.Rot>
2.7630

> <Gold.Chemscore.Internal.Correction>
   9.000000E+99

> <Gold.Chemscore.Hbonds>
donor molecule, donor type, donor heavy atom, donor atom, acceptor molecule, acceptor atom, score
      P1  H  6896  6907       L1    22  0.83
      P1  H  6931  6943       L1     1  0.22

> <Gold.Chemscore.Hbond.Weighted>
-5.8709

> <Gold.Chemscore.Metal.Weighted>
-0.0000

> <Gold.Chemscore.Lipo.Weighted>
-11.2308

> <Gold.Chemscore.Internal_Hbond.Weighted>
0.0000

> <Gold.Chemscore.DEClash.Weighted>
1.3225

> <Gold.Chemscore.DEInternal.Weighted>
1.8380

> <Gold.Chemscore.Rot.Weighted>
7.0734

> <Gold.Chemscore.Internal.Correction.Weighted>
   9.000000E+99

> <Gold.Protein.RotatedTorsions>
[ 6907 6896 6895 6894 ] final  -26.48 input  -60.11 | X-H torsion
[ 7974 7965 7964 7962 ] final   73.51 input  175.53 | X-H torsion
[ 8008 7997 7996 7995 ] final  -94.56 input   59.86 | X-H torsion
[ 10167 10162 10161 10158 ] final  128.87 input  -65.29 | X-H torsion
[ 10718 10713 10712 10709 ] final  -43.28 input   66.30 | X-H torsion
[ 10763 10752 10751 10750 ] final   43.17 input  -60.55 | X-H torsion
[ 11005 11000 10999 10996 ] final   51.97 input  -57.11 | X-H torsion

> <Gold.Protein.ActiveResidues>
 VAL166  LYS551  ARG553  GLY616  TRP617  ASP618  TYR619  PRO620  LYS621  CYS622 
 ASP623  PHE694  ASN695  SER759  ASP760  ASP761  ALA762  ILE779  LEU786  VAL792 
 PHE793  MET794  SER795  GLU796  ALA797  LYS798  CYS799  TRP800  GLU811  SER814 

> <Gold.Protein.RotatedAtoms>
  151.1603  135.0270  159.8707 H   0  0  0  0  0  0  0  0  0  0  0  0  # atno 6907 bound_to 6896
  152.5451  134.1287  159.8440 H   0  0  0  0  0  0  0  0  0  0  0  0  # atno 6908 bound_to 6896
  151.1381  133.4944  159.2630 H   0  0  0  0  0  0  0  0  0  0  0  0  # atno 6909 bound_to 6896
  145.7399  139.2717  143.1492 H   0  0  0  0  0  0  0  0  0  0  0  0  # atno 7974 bound_to 7965
  154.7500  140.0488  157.0885 H   0  0  0  0  0  0  0  0  0  0  0  0  # atno 8008 bound_to 7997
  155.0069  140.3131  155.4826 H   0  0  0  0  0  0  0  0  0  0  0  0  # atno 8009 bound_to 7997
  156.2883  140.2191  156.5181 H   0  0  0  0  0  0  0  0  0  0  0  0  # atno 8010 bound_to 7997
  139.5506  144.6809  151.4337 H   0  0  0  0  0  0  0  0  0  0  0  0  # atno 10167 bound_to 10162
  156.2506  130.4188  149.8654 H   0  0  0  0  0  0  0  0  0  0  0  0  # atno 10718 bound_to 10713
  152.9866  135.6109  154.3069 H   0  0  0  0  0  0  0  0  0  0  0  0  # atno 10763 bound_to 10752
  154.2786  135.2777  155.2709 H   0  0  0  0  0  0  0  0  0  0  0  0  # atno 10764 bound_to 10752
  154.5058  135.5854  153.6623 H   0  0  0  0  0  0  0  0  0  0  0  0  # atno 10765 bound_to 10752
  140.0888  134.5238  155.8872 H   0  0  0  0  0  0  0  0  0  0  0  0  # atno 11005 bound_to 11000
  146.0457  140.8120  142.9806 LP  0  0  0  0  0  0  0  0  0  0  0  0  # atno 17320 bound_to 7965
  144.6873  140.2977  143.7268 LP  0  0  0  0  0  0  0  0  0  0  0  0  # atno 17321 bound_to 7965
  140.6767  143.8174  150.7067 LP  0  0  0  0  0  0  0  0  0  0  0  0  # atno 17342 bound_to 10162
  140.1615  143.4271  152.2064 LP  0  0  0  0  0  0  0  0  0  0  0  0  # atno 17343 bound_to 10162
  156.6203  130.8623  151.3474 LP  0  0  0  0  0  0  0  0  0  0  0  0  # atno 17370 bound_to 10713
  157.7213  130.9562  150.1450 LP  0  0  0  0  0  0  0  0  0  0  0  0  # atno 17371 bound_to 10713
  141.2071  133.6661  156.6285 LP  0  0  0  0  0  0  0  0  0  0  0  0  # atno 17394 bound_to 11000
  140.3382  134.7871  157.4378 LP  0  0  0  0  0  0  0  0  0  0  0  0  # atno 17395 bound_to 11000

$$$$
