AV-unprocessed.smi:1762|AV-procd|sdf|7107|dock3
  -GOLD-   22720 8333D 1   1.00000     0.00000
 Structure written by MMmdl.
 53 54  0  0  0  0  0  0  0  0  2 V2000
  149.9189  135.4943  155.1854 C   0  0  0  0  0  0  0  0  0  0  0  0
  149.9393  136.8456  155.9212 C   0  0  2  0  0  0  0  0  0  0  0  0
  148.8490  137.8216  155.4367 C   0  0  0  0  0  0  0  0  0  0  0  0
  149.1310  138.4137  154.1222 N   0  0  0  0  0  0  0  0  0  0  0  0
  148.0423  139.3191  153.6565 C   0  0  1  0  0  0  0  0  0  0  0  0
  146.6656  138.6215  153.5262 C   0  0  0  0  0  0  0  0  0  0  0  0
  145.7200  138.9612  154.2369 O   0  0  0  0  0  0  0  0  0  0  0  0
  146.5805  137.6202  152.6350 N   0  0  0  0  0  0  0  0  0  0  0  0
  145.3988  136.7912  152.4164 C   0  0  0  0  0  0  0  0  0  0  0  0
  145.4456  135.9960  151.0970 C   0  0  0  0  0  0  0  0  0  0  0  0
  145.7402  134.5182  151.2857 C   0  0  0  0  0  0  0  0  0  0  0  0
  144.8490  133.5158  150.8449 C   0  0  0  0  0  0  0  0  0  0  0  0
  145.1744  132.1603  151.0610 C   0  0  0  0  0  0  0  0  0  0  0  0
  146.3824  131.8356  151.7125 C   0  0  0  0  0  0  0  0  0  0  0  0
  147.2357  132.8765  152.1316 C   0  0  0  0  0  0  0  0  0  0  0  0
  146.8876  134.1624  151.9070 N   0  3  0  0  0  0  0  0  0  0  0  0
  147.9337  140.6627  154.4556 C   0  0  0  0  0  0  0  0  0  0  0  0
  147.5310  140.4836  155.9335 C   0  0  0  0  0  0  0  0  0  0  0  0
  147.0383  141.7180  153.7782 C   0  0  0  0  0  0  0  0  0  0  0  0
  150.4724  139.0185  154.1614 C   0  0  0  0  0  0  0  0  0  0  0  0
  151.5614  138.0223  154.6003 C   0  0  1  0  0  0  0  0  0  0  0  0
  152.9350  138.6898  154.7312 C   0  0  0  0  0  0  0  0  0  0  0  0
  151.2215  137.4662  155.8656 O   0  0  0  0  0  0  0  0  0  0  0  0
  148.9713  134.9798  155.3473 H   0  0  0  0  0  0  0  0  0  0  0  0
  150.7139  134.8427  155.5479 H   0  0  0  0  0  0  0  0  0  0  0  0
  150.0441  135.6100  154.1090 H   0  0  0  0  0  0  0  0  0  0  0  0
  149.7519  136.6328  156.9741 H   0  0  0  0  0  0  0  0  0  0  0  0
  147.9082  137.2753  155.4308 H   0  0  0  0  0  0  0  0  0  0  0  0
  148.7371  138.6168  156.1758 H   0  0  0  0  0  0  0  0  0  0  0  0
  148.3005  139.6142  152.6372 H   0  0  0  0  0  0  0  0  0  0  0  0
  147.4065  137.3904  152.1009 H   0  0  0  0  0  0  0  0  0  0  0  0
  145.3196  136.0991  153.2552 H   0  0  0  0  0  0  0  0  0  0  0  0
  144.5011  137.4109  152.4481 H   0  0  0  0  0  0  0  0  0  0  0  0
  144.4921  136.0991  150.5779 H   0  0  0  0  0  0  0  0  0  0  0  0
  146.1957  136.4252  150.4308 H   0  0  0  0  0  0  0  0  0  0  0  0
  143.9260  133.7804  150.3497 H   0  0  0  0  0  0  0  0  0  0  0  0
  144.5047  131.3789  150.7318 H   0  0  0  0  0  0  0  0  0  0  0  0
  146.6500  130.8037  151.8877 H   0  0  0  0  0  0  0  0  0  0  0  0
  148.1779  132.7214  152.6367 H   0  0  0  0  0  0  0  0  0  0  0  0
  148.9201  141.1234  154.4556 H   0  0  0  0  0  0  0  0  0  0  0  0
  146.5144  140.1070  156.0401 H   0  0  0  0  0  0  0  0  0  0  0  0
  147.5801  141.4338  156.4657 H   0  0  0  0  0  0  0  0  0  0  0  0
  148.1970  139.7930  156.4510 H   0  0  0  0  0  0  0  0  0  0  0  0
  145.9839  141.4436  153.8138 H   0  0  0  0  0  0  0  0  0  0  0  0
  147.3196  141.8587  152.7346 H   0  0  0  0  0  0  0  0  0  0  0  0
  147.1357  142.6844  154.2737 H   0  0  0  0  0  0  0  0  0  0  0  0
  150.7707  139.3856  153.1798 H   0  0  0  0  0  0  0  0  0  0  0  0
  150.4685  139.8796  154.8321 H   0  0  0  0  0  0  0  0  0  0  0  0
  151.6412  137.2231  153.8629 H   0  0  0  0  0  0  0  0  0  0  0  0
  153.2564  139.1167  153.7809 H   0  0  0  0  0  0  0  0  0  0  0  0
  153.6905  137.9685  155.0433 H   0  0  0  0  0  0  0  0  0  0  0  0
  152.9156  139.4923  155.4693 H   0  0  0  0  0  0  0  0  0  0  0  0
  147.5187  134.9002  152.2215 H   0  0  0  0  0  0  0  0  0  0  0  0
  1  2  1  0  0  0  0
  1 24  1  0  0  0  0
  1 25  1  0  0  0  0
  1 26  1  0  0  0  0
  2 23  1  0  0  0  0
  2  3  1  0  0  0  0
  2 27  1  0  0  0  0
  3  4  1  0  0  0  0
  3 28  1  0  0  0  0
  3 29  1  0  0  0  0
  4  5  1  0  0  0  0
  4 20  1  0  0  0  0
  5  6  1  0  0  0  0
  5 17  1  0  0  0  0
  5 30  1  0  0  0  0
  6  7  2  0  0  0  0
  6  8  1  0  0  0  0
  8  9  1  0  0  0  0
  8 31  1  0  0  0  0
  9 10  1  0  0  0  0
  9 32  1  0  0  0  0
  9 33  1  0  0  0  0
 10 11  1  0  0  0  0
 10 34  1  0  0  0  0
 10 35  1  0  0  0  0
 11 16  1  0  0  0  0
 11 12  2  0  0  0  0
 12 13  1  0  0  0  0
 12 36  1  0  0  0  0
 13 14  2  0  0  0  0
 13 37  1  0  0  0  0
 14 15  1  0  0  0  0
 14 38  1  0  0  0  0
 15 16  2  0  0  0  0
 15 39  1  0  0  0  0
 16 53  1  0  0  0  0
 17 18  1  0  0  0  0
 17 19  1  0  0  0  0
 17 40  1  0  0  0  0
 18 41  1  0  0  0  0
 18 42  1  0  0  0  0
 18 43  1  0  0  0  0
 19 44  1  0  0  0  0
 19 45  1  0  0  0  0
 19 46  1  0  0  0  0
 20 21  1  0  0  0  0
 20 47  1  0  0  0  0
 20 48  1  0  0  0  0
 21 22  1  0  0  0  0
 21 23  1  0  0  0  0
 21 49  1  0  0  0  0
 22 50  1  0  0  0  0
 22 51  1  0  0  0  0
 22 52  1  0  0  0  0
M  CHG  1  16   1
M  END
> <s_m_source_file>
AV-unprocessed.smi

> <i_m_source_file_index>
1762

> <i_lp_mmshare_version>
43012

> <i_f3d_flags>
0

> <s_epik_input>
W0NIM11bQ0BASF0xW0NIMl1OKFtDSDJdW0NASF0oTzEpW0NIM10pW0NAQEhdKFtDSF0oW0NIM10pW0NIM10pQyg9TylbTkhdW0NIMl1bQ0gyXWMyW2NIXVtjSF1bY0hdW2NIXW4y

> <s_epik_cmdline>
J2VwaWtfcHl0aG9uJywgJy1waCcsICc3LjAnLCAnLXRuJywgJzgnLCAnLW1hJywgJzIwMCcsICctbWV0YWxfYmluZGluZycsICctaW1hZScsICc8aW5maWxlLm1hZT4nLCAnLW9tYWUnLCAnPG91dGZpbGUubWFlPic=

> <r_epik_Ionization_Penalty>
1.86475

> <r_epik_Ionization_Penalty_Charging>
1.85347

> <r_epik_Ionization_Penalty_Neutral>
0.0112771

> <r_epik_State_Penalty>
1.99714

> <r_epik_Charging_Adjusted_Penalty>
3.85061

> <i_epik_Tot_Q>
1

> <i_epik_Tot_abs_Q>
1

> <r_epik_Metal_State_Penalty>
2.02271

> <b_epik_Metal_Only>
0

> <s_lp_Force_Field>
OPLS_2005

> <r_lp_Energy>
36.6316

> <b_lp_Chiralities_Consistent>
1

> <s_lp_Variant>
AV-unprocessed.smi:1762-9

> <Gold.Version>
5.8.1

> <Gold.Id.Protein>
6NUR|6NUR_protein|mol2

> <Gold.PLP.Fitness>
45.9347

> <Gold.PLP.PLP>
-37.9995

> <Gold.PLP.part.hbond>
-2.0000

> <Gold.PLP.part.metal>
0.0000

> <Gold.PLP.part.buried>
-5.2327

> <Gold.PLP.part.nonpolar>
-31.8024

> <Gold.PLP.part.repulsive>
0.9955

> <Gold.PLP.ligand.clash>
0.0000

> <Gold.PLP.ligand.torsion>
0.7131

> <Gold.PLP.Chemscore.Hbond>
2.9920

> <Gold.PLP.Chemscore.CHOScore>
0.0000

> <Gold.PLP.Chemscore.Metal>
0.0000

> <Gold.Chemscore.Hbonds>
donor molecule, donor type, donor heavy atom, donor atom, acceptor molecule, acceptor atom, score
      L1  H     8    31       P1  7948  0.99
      L1  H    16    53       P1  7948  1.98

> <Gold.PLP.Chemscore.Internal.Correction>
0.3854

> <Gold.Rescore>
     Score         DG    S(hbond)    S(metal)    S(lipo)     H(rot)  DE(clash)    DE(int)     intcor
     15.47     -18.73       1.83        0.00      98.57       1.72       0.20       3.06       ----

> <Gold.Chemscore.Fitness>
15.4703

> <Gold.Chemscore.DG>
-18.7280

> <Gold.Chemscore.ZeroCoef>
-5.4800

> <Gold.Chemscore.Hbond>
1.8300

> <Gold.Chemscore.Metal>
0.0000

> <Gold.Chemscore.Lipo>
98.5675

> <Gold.Chemscore.Internal_Hbond>
0.0000

> <Gold.Chemscore.DEClash>
0.1986

> <Gold.Chemscore.DEInternal>
3.0591

> <Gold.Chemscore.Rot>
1.7174

> <Gold.Chemscore.Internal.Correction>
   9.000000E+99

> <Gold.Chemscore.Hbonds>
donor molecule, donor type, donor heavy atom, donor atom, acceptor molecule, acceptor atom, score
      L1  H     8    31       P1  7948  0.93
      L1  H    16    53       P1  7948  0.86

> <Gold.Chemscore.Hbond.Weighted>
-6.1122

> <Gold.Chemscore.Metal.Weighted>
-0.0000

> <Gold.Chemscore.Lipo.Weighted>
-11.5324

> <Gold.Chemscore.Internal_Hbond.Weighted>
0.0000

> <Gold.Chemscore.DEClash.Weighted>
0.1986

> <Gold.Chemscore.DEInternal.Weighted>
3.0591

> <Gold.Chemscore.Rot.Weighted>
4.3966

> <Gold.Chemscore.Internal.Correction.Weighted>
   9.000000E+99

> <Gold.Protein.RotatedTorsions>
[ 6907 6896 6895 6894 ] final -122.24 input  -60.11 | X-H torsion
[ 7974 7965 7964 7962 ] final  -95.30 input  175.53 | X-H torsion
[ 8008 7997 7996 7995 ] final  -81.63 input   59.86 | X-H torsion
[ 10167 10162 10161 10158 ] final  113.69 input  -65.29 | X-H torsion
[ 10718 10713 10712 10709 ] final  119.57 input   66.30 | X-H torsion
[ 10763 10752 10751 10750 ] final  -77.85 input  -60.55 | X-H torsion
[ 11005 11000 10999 10996 ] final  167.64 input  -57.11 | X-H torsion

> <Gold.Protein.ActiveResidues>
 VAL166  LYS551  ARG553  GLY616  TRP617  ASP618  TYR619  PRO620  LYS621  CYS622 
 ASP623  PHE694  ASN695  SER759  ASP760  ASP761  ALA762  ILE779  LEU786  VAL792 
 PHE793  MET794  SER795  GLU796  ALA797  LYS798  CYS799  TRP800  GLU811  SER814 

> <Gold.Protein.RotatedAtoms>
  150.8558  133.7718  159.3009 H   0  0  0  0  0  0  0  0  0  0  0  0  # atno 6907 bound_to 6896
  151.5376  135.1067  159.9928 H   0  0  0  0  0  0  0  0  0  0  0  0  # atno 6908 bound_to 6896
  152.4588  133.7735  159.6868 H   0  0  0  0  0  0  0  0  0  0  0  0  # atno 6909 bound_to 6896
  145.3619  140.9493  143.2496 H   0  0  0  0  0  0  0  0  0  0  0  0  # atno 7974 bound_to 7965
  154.6003  140.0645  156.9359 H   0  0  0  0  0  0  0  0  0  0  0  0  # atno 8008 bound_to 7997
  155.2144  140.3325  155.4306 H   0  0  0  0  0  0  0  0  0  0  0  0  # atno 8009 bound_to 7997
  156.2314  140.1842  156.7217 H   0  0  0  0  0  0  0  0  0  0  0  0  # atno 8010 bound_to 7997
  139.6443  144.7125  151.2174 H   0  0  0  0  0  0  0  0  0  0  0  0  # atno 10167 bound_to 10162
  157.5952  131.1059  150.7914 H   0  0  0  0  0  0  0  0  0  0  0  0  # atno 10718 bound_to 10713
  154.5184  135.5750  153.6660 H   0  0  0  0  0  0  0  0  0  0  0  0  # atno 10763 bound_to 10752
  152.9912  135.6175  154.2787 H   0  0  0  0  0  0  0  0  0  0  0  0  # atno 10764 bound_to 10752
  154.2707  135.2853  155.2719 H   0  0  0  0  0  0  0  0  0  0  0  0  # atno 10765 bound_to 10752
  140.2789  134.7766  157.3741 H   0  0  0  0  0  0  0  0  0  0  0  0  # atno 11005 bound_to 11000
  144.8640  139.5135  143.6799 LP  0  0  0  0  0  0  0  0  0  0  0  0  # atno 17320 bound_to 7965
  146.2923  139.7176  142.9151 LP  0  0  0  0  0  0  0  0  0  0  0  0  # atno 17321 bound_to 7965
  140.7507  143.6258  150.8470 LP  0  0  0  0  0  0  0  0  0  0  0  0  # atno 17342 bound_to 10162
  139.9899  143.5858  152.2914 LP  0  0  0  0  0  0  0  0  0  0  0  0  # atno 17343 bound_to 10162
  156.8326  130.5021  149.5330 LP  0  0  0  0  0  0  0  0  0  0  0  0  # atno 17370 bound_to 10713
  156.1014  130.5972  150.9900 LP  0  0  0  0  0  0  0  0  0  0  0  0  # atno 17371 bound_to 10713
  140.1302  134.5105  155.8112 LP  0  0  0  0  0  0  0  0  0  0  0  0  # atno 17394 bound_to 11000
  141.2166  133.6787  156.7025 LP  0  0  0  0  0  0  0  0  0  0  0  0  # atno 17395 bound_to 11000

$$$$
