AV-unprocessed.smi:292|AV-procd|sdf|2250|dock4
  -GOLD-   2262022133D 1   1.00000     0.00000
 Structure written by MMmdl.
 33 34  0  0  0  0  0  0  0  0  1 V2000
  149.7645  134.6364  158.3293 N   0  0  0  0  0  0  0  0  0  0  0  0
  150.0449  135.3197  157.4383 C   0  0  0  0  0  0  0  0  0  0  0  0
  150.3973  136.1777  156.3197 C   0  0  0  0  0  0  0  0  0  0  0  0
  150.8074  135.6594  155.1256 N   0  0  0  0  0  0  0  0  0  0  0  0
  150.9998  136.7940  154.4643 C   0  0  0  0  0  0  0  0  0  0  0  0
  150.7361  137.8924  155.1803 N   0  0  0  0  0  0  0  0  0  0  0  0
  150.8334  139.2974  154.8241 C   0  0  0  0  0  0  0  0  0  0  0  0
  151.7266  140.0582  155.8058 C   0  0  0  0  0  0  0  0  0  0  0  0
  152.9169  139.7634  155.9101 O   0  0  0  0  0  0  0  0  0  0  0  0
  151.1393  141.0347  156.5159 N   0  0  0  0  0  0  0  0  0  0  0  0
  151.7805  141.8551  157.5433 C   0  0  1  0  0  0  0  0  0  0  0  0
  150.9294  143.1119  157.8295 C   0  0  0  0  0  0  0  0  0  0  0  0
  151.7233  144.2753  158.4453 C   0  0  0  0  0  0  0  0  0  0  0  0
  152.3294  143.9839  159.8265 C   0  0  0  0  0  0  0  0  0  0  0  0
  153.4115  142.8902  159.8097 C   0  0  0  0  0  0  0  0  0  0  0  0
  152.8497  141.5457  159.7669 N   0  0  0  0  0  0  0  0  0  0  0  0
  152.1027  141.0094  158.7900 C   0  0  0  0  0  0  0  0  0  0  0  0
  151.6756  139.8592  158.8903 O   0  0  0  0  0  0  0  0  0  0  0  0
  150.3323  137.5041  156.4147 N   0  0  0  0  0  0  0  0  0  0  0  0
  151.3460  136.8265  153.4415 H   0  0  0  0  0  0  0  0  0  0  0  0
  151.2363  139.3729  153.8132 H   0  0  0  0  0  0  0  0  0  0  0  0
  149.8376  139.7431  154.8099 H   0  0  0  0  0  0  0  0  0  0  0  0
  150.1547  141.2013  156.3621 H   0  0  0  0  0  0  0  0  0  0  0  0
  152.7421  142.1750  157.1372 H   0  0  0  0  0  0  0  0  0  0  0  0
  150.4930  143.4762  156.8985 H   0  0  0  0  0  0  0  0  0  0  0  0
  150.0838  142.8549  158.4691 H   0  0  0  0  0  0  0  0  0  0  0  0
  152.5136  144.5789  157.7576 H   0  0  0  0  0  0  0  0  0  0  0  0
  151.0606  145.1370  158.5324 H   0  0  0  0  0  0  0  0  0  0  0  0
  152.7815  144.9052  160.1950 H   0  0  0  0  0  0  0  0  0  0  0  0
  151.5443  143.7312  160.5406 H   0  0  0  0  0  0  0  0  0  0  0  0
  154.1093  143.0381  158.9845 H   0  0  0  0  0  0  0  0  0  0  0  0
  154.0018  142.9584  160.7239 H   0  0  0  0  0  0  0  0  0  0  0  0
  153.0409  140.9601  160.5672 H   0  0  0  0  0  0  0  0  0  0  0  0
  1  2  3  0  0  0  0
  2  3  1  0  0  0  0
  3 19  2  0  0  0  0
  3  4  1  0  0  0  0
  4  5  2  0  0  0  0
  5  6  1  0  0  0  0
  5 20  1  0  0  0  0
  6  7  1  0  0  0  0
  6 19  1  0  0  0  0
  7  8  1  0  0  0  0
  7 21  1  0  0  0  0
  7 22  1  0  0  0  0
  8  9  2  0  0  0  0
  8 10  1  0  0  0  0
 10 11  1  0  0  0  0
 10 23  1  0  0  0  0
 11 17  1  0  0  0  0
 11 12  1  0  0  0  0
 11 24  1  0  0  0  0
 12 13  1  0  0  0  0
 12 25  1  0  0  0  0
 12 26  1  0  0  0  0
 13 14  1  0  0  0  0
 13 27  1  0  0  0  0
 13 28  1  0  0  0  0
 14 15  1  0  0  0  0
 14 29  1  0  0  0  0
 14 30  1  0  0  0  0
 15 16  1  0  0  0  0
 15 31  1  0  0  0  0
 15 32  1  0  0  0  0
 16 17  1  0  0  0  0
 16 33  1  0  0  0  0
 17 18  2  0  0  0  0
M  END
> <s_m_source_file>
AV-unprocessed.smi

> <i_m_source_file_index>
292

> <i_lp_mmshare_version>
43012

> <i_f3d_flags>
0

> <s_epik_input>
TiNDYzFuW2NIXW4objEpW0NIMl1DKD1PKVtOSF1bQ0BASF0yW0NIMl1bQ0gyXVtDSDJdW0NIMl1bTkhdQzI9Tw==

> <s_epik_cmdline>
J2VwaWtfcHl0aG9uJywgJy1waCcsICc3LjAnLCAnLXRuJywgJzgnLCAnLW1hJywgJzIwMCcsICctbWV0YWxfYmluZGluZycsICctaW1hZScsICc8aW5maWxlLm1hZT4nLCAnLW9tYWUnLCAnPG91dGZpbGUubWFlPic=

> <r_lp_tautomer_probability>
1

> <r_epik_Ionization_Penalty>
1.99744e-07

> <r_epik_Ionization_Penalty_Charging>
0

> <r_epik_Ionization_Penalty_Neutral>
1.99744e-07

> <r_epik_State_Penalty>
-0

> <r_epik_Charging_Adjusted_Penalty>
0

> <i_epik_Tot_Q>
0

> <i_epik_Tot_abs_Q>
0

> <r_epik_Metal_State_Penalty>
-0

> <b_epik_Metal_Only>
0

> <s_lp_Force_Field>
OPLS_2005

> <r_lp_Energy>
14.2569

> <b_lp_Chiralities_Consistent>
1

> <s_lp_Variant>
AV-unprocessed.smi:292-2

> <Gold.Version>
5.8.1

> <Gold.Id.Protein>
6NUR|6NUR_protein|mol2

> <Gold.PLP.Fitness>
40.0601

> <Gold.PLP.PLP>
-31.3883

> <Gold.PLP.part.hbond>
-2.0000

> <Gold.PLP.part.metal>
0.0000

> <Gold.PLP.part.buried>
-5.6938

> <Gold.PLP.part.nonpolar>
-25.3490

> <Gold.PLP.part.repulsive>
0.3288

> <Gold.PLP.ligand.clash>
0.0000

> <Gold.PLP.ligand.torsion>
0.1786

> <Gold.PLP.Chemscore.Hbond>
2.0000

> <Gold.PLP.Chemscore.CHOScore>
1.0000

> <Gold.PLP.Chemscore.Metal>
0.0000

> <Gold.Chemscore.Hbonds>
donor molecule, donor type, donor heavy atom, donor atom, acceptor molecule, acceptor atom, score
      P1  H  6896  6907       L1     1  0.78
      P1  H  7997  8008       L1     9  1.00
      L1  C     5    20       P1  7949  1.00

> <Gold.PLP.Chemscore.Internal.Correction>
0.0290

> <Gold.Rescore>
     Score         DG    S(hbond)    S(metal)    S(lipo)     H(rot)  DE(clash)    DE(int)     intcor
     13.79     -14.12       1.99        0.00      63.93       2.14       0.12       0.21       ----

> <Gold.Chemscore.Fitness>
13.7912

> <Gold.Chemscore.DG>
-14.1202

> <Gold.Chemscore.ZeroCoef>
-5.4800

> <Gold.Chemscore.Hbond>
1.9910

> <Gold.Chemscore.Metal>
0.0000

> <Gold.Chemscore.Lipo>
63.9298

> <Gold.Chemscore.Internal_Hbond>
0.0000

> <Gold.Chemscore.DEClash>
0.1219

> <Gold.Chemscore.DEInternal>
0.2072

> <Gold.Chemscore.Rot>
2.1444

> <Gold.Chemscore.Internal.Correction>
   9.000000E+99

> <Gold.Chemscore.Hbonds>
donor molecule, donor type, donor heavy atom, donor atom, acceptor molecule, acceptor atom, score
      P1  H  6896  6907       L1     1  0.76
      P1  H  7997  8008       L1     9  0.93

> <Gold.Chemscore.Hbond.Weighted>
-6.6500

> <Gold.Chemscore.Metal.Weighted>
-0.0000

> <Gold.Chemscore.Lipo.Weighted>
-7.4798

> <Gold.Chemscore.Internal_Hbond.Weighted>
0.0000

> <Gold.Chemscore.DEClash.Weighted>
0.1219

> <Gold.Chemscore.DEInternal.Weighted>
0.2072

> <Gold.Chemscore.Rot.Weighted>
5.4896

> <Gold.Chemscore.Internal.Correction.Weighted>
   9.000000E+99

> <Gold.Protein.RotatedTorsions>
[ 6907 6896 6895 6894 ] final  -96.49 input  -60.11 | X-H torsion
[ 7974 7965 7964 7962 ] final -136.93 input  175.53 | X-H torsion
[ 8008 7997 7996 7995 ] final  -24.74 input   59.86 | X-H torsion
[ 10167 10162 10161 10158 ] final    0.63 input  -65.29 | X-H torsion
[ 10718 10713 10712 10709 ] final  -14.76 input   66.30 | X-H torsion
[ 10763 10752 10751 10750 ] final  170.34 input  -60.55 | X-H torsion
[ 11005 11000 10999 10996 ] final  179.46 input  -57.11 | X-H torsion

> <Gold.Protein.ActiveResidues>
 VAL166  LYS551  ARG553  GLY616  TRP617  ASP618  TYR619  PRO620  LYS621  CYS622 
 ASP623  PHE694  ASN695  SER759  ASP760  ASP761  ALA762  ILE779  LEU786  VAL792 
 PHE793  MET794  SER795  GLU796  ALA797  LYS798  CYS799  TRP800  GLU811  SER814 

> <Gold.Protein.RotatedAtoms>
  150.6990  134.1495  159.4134 H   0  0  0  0  0  0  0  0  0  0  0  0  # atno 6907 bound_to 6896
  151.9478  135.0181  160.0549 H   0  0  0  0  0  0  0  0  0  0  0  0  # atno 6908 bound_to 6896
  152.2037  133.4825  159.5109 H   0  0  0  0  0  0  0  0  0  0  0  0  # atno 6909 bound_to 6896
  144.8885  140.6608  143.5160 H   0  0  0  0  0  0  0  0  0  0  0  0  # atno 7974 bound_to 7965
  154.4513  140.1945  156.0511 H   0  0  0  0  0  0  0  0  0  0  0  0  # atno 8008 bound_to 7997
  156.0653  140.3291  155.7483 H   0  0  0  0  0  0  0  0  0  0  0  0  # atno 8009 bound_to 7997
  155.5348  140.0581  157.2872 H   0  0  0  0  0  0  0  0  0  0  0  0  # atno 8010 bound_to 7997
  140.6720  143.7023  150.7942 H   0  0  0  0  0  0  0  0  0  0  0  0  # atno 10167 bound_to 10162
  156.6114  130.4850  149.6200 H   0  0  0  0  0  0  0  0  0  0  0  0  # atno 10718 bound_to 10713
  154.3962  135.2754  155.2124 H   0  0  0  0  0  0  0  0  0  0  0  0  # atno 10763 bound_to 10752
  154.4169  135.6009  153.5990 H   0  0  0  0  0  0  0  0  0  0  0  0  # atno 10764 bound_to 10752
  152.9831  135.5963  154.4224 H   0  0  0  0  0  0  0  0  0  0  0  0  # atno 10765 bound_to 10752
  140.4065  134.6731  157.4590 H   0  0  0  0  0  0  0  0  0  0  0  0  # atno 11005 bound_to 11000
  145.3826  139.1633  143.4272 LP  0  0  0  0  0  0  0  0  0  0  0  0  # atno 17320 bound_to 7965
  146.3039  140.3908  142.8694 LP  0  0  0  0  0  0  0  0  0  0  0  0  # atno 17321 bound_to 7965
  140.0710  143.5061  152.2580 LP  0  0  0  0  0  0  0  0  0  0  0  0  # atno 17342 bound_to 10162
  139.5993  144.7577  151.3211 LP  0  0  0  0  0  0  0  0  0  0  0  0  # atno 17343 bound_to 10162
  156.2387  130.6838  151.1534 LP  0  0  0  0  0  0  0  0  0  0  0  0  # atno 17370 bound_to 10713
  157.7253  131.0654  150.5958 LP  0  0  0  0  0  0  0  0  0  0  0  0  # atno 17371 bound_to 10713
  140.0299  134.6422  155.9121 LP  0  0  0  0  0  0  0  0  0  0  0  0  # atno 17394 bound_to 11000
  141.1837  133.6551  156.5128 LP  0  0  0  0  0  0  0  0  0  0  0  0  # atno 17395 bound_to 11000

$$$$
