AV-unprocessed.smi:798|AV-procd|sdf|3771|dock3
  -GOLD-   22720 1203D 1   1.00000     0.00000
 Structure written by MMmdl.
 34 36  0  0  0  0  0  0  0  0  1 V2000
  145.1864  137.3109  155.2666 O   0  0  0  0  0  0  0  0  0  0  0  0
  144.6666  138.1143  154.4916 C   0  0  0  0  0  0  0  0  0  0  0  0
  143.5493  137.8938  153.7766 N   0  0  0  0  0  0  0  0  0  0  0  0
  142.7526  136.7190  153.7299 C   0  0  0  0  0  0  0  0  0  0  0  0
  141.5108  136.6410  154.2337 N   0  0  0  0  0  0  0  0  0  0  0  0
  140.9584  135.3784  154.0613 N   0  0  0  0  0  0  0  0  0  0  0  0
  141.8036  134.5552  153.4345 C   0  0  0  0  0  0  0  0  0  0  0  0
  143.3573  135.2421  152.9927 S   0  0  0  0  0  0  0  0  0  0  0  0
  145.1597  139.3383  154.2571 N   0  0  0  0  0  0  0  0  0  0  0  0
  146.3724  139.8824  154.8636 C   0  0  2  0  0  0  0  0  0  0  0  0
  146.1482  141.3444  155.3087 C   0  0  1  0  0  0  0  0  0  0  0  0
  147.2703  141.7406  156.2851 C   0  0  0  0  0  0  0  0  0  0  0  0
  148.4906  141.8695  155.3542 C   0  0  0  0  0  0  0  0  0  0  0  0
  147.9095  141.5142  153.9684 C   0  0  2  0  0  0  0  0  0  0  0  0
  146.5256  142.1437  154.0640 C   0  0  0  0  0  0  0  0  0  0  0  0
  147.5434  140.0131  153.8555 C   0  0  1  0  0  0  0  0  0  0  0  0
  148.6915  139.0121  154.0888 C   0  0  0  0  0  0  0  0  0  0  0  0
  149.8884  139.4943  153.5157 O   0  0  0  0  0  0  0  0  0  0  0  0
  143.2366  138.6522  153.1885 H   0  0  0  0  0  0  0  0  0  0  0  0
  141.5098  133.5360  153.2320 H   0  0  0  0  0  0  0  0  0  0  0  0
  144.6695  139.9353  153.6073 H   0  0  0  0  0  0  0  0  0  0  0  0
  146.6450  139.2678  155.7241 H   0  0  0  0  0  0  0  0  0  0  0  0
  145.1497  141.5425  155.7006 H   0  0  0  0  0  0  0  0  0  0  0  0
  147.0508  142.6958  156.7636 H   0  0  0  0  0  0  0  0  0  0  0  0
  147.4216  141.0006  157.0720 H   0  0  0  0  0  0  0  0  0  0  0  0
  148.8581  142.8967  155.3584 H   0  0  0  0  0  0  0  0  0  0  0  0
  149.3208  141.2318  155.6540 H   0  0  0  0  0  0  0  0  0  0  0  0
  148.5138  141.8776  153.1367 H   0  0  0  0  0  0  0  0  0  0  0  0
  145.8907  141.9322  153.2018 H   0  0  0  0  0  0  0  0  0  0  0  0
  146.5491  143.2221  154.2313 H   0  0  0  0  0  0  0  0  0  0  0  0
  147.1658  139.8458  152.8444 H   0  0  0  0  0  0  0  0  0  0  0  0
  148.8480  138.8071  155.1471 H   0  0  0  0  0  0  0  0  0  0  0  0
  148.4518  138.0576  153.6199 H   0  0  0  0  0  0  0  0  0  0  0  0
  149.8245  139.4138  152.5763 H   0  0  0  0  0  0  0  0  0  0  0  0
  1  2  2  0  0  0  0
  2  3  1  0  0  0  0
  2  9  1  0  0  0  0
  3  4  1  0  0  0  0
  3 19  1  0  0  0  0
  4  8  1  0  0  0  0
  4  5  2  0  0  0  0
  5  6  1  0  0  0  0
  6  7  2  0  0  0  0
  7  8  1  0  0  0  0
  7 20  1  0  0  0  0
  9 10  1  0  0  0  0
  9 21  1  0  0  0  0
 10 16  1  0  0  0  0
 10 11  1  0  0  0  0
 10 22  1  0  0  0  0
 11 15  1  0  0  0  0
 11 12  1  0  0  0  0
 11 23  1  0  0  0  0
 12 13  1  0  0  0  0
 12 24  1  0  0  0  0
 12 25  1  0  0  0  0
 13 14  1  0  0  0  0
 13 26  1  0  0  0  0
 13 27  1  0  0  0  0
 14 15  1  0  0  0  0
 14 16  1  0  0  0  0
 14 28  1  0  0  0  0
 15 29  1  0  0  0  0
 15 30  1  0  0  0  0
 16 17  1  0  0  0  0
 16 31  1  0  0  0  0
 17 18  1  0  0  0  0
 17 32  1  0  0  0  0
 17 33  1  0  0  0  0
 18 34  1  0  0  0  0
M  END
> <s_m_source_file>
AV-unprocessed.smi

> <i_m_source_file_index>
798

> <i_lp_mmshare_version>
43012

> <i_f3d_flags>
0

> <s_epik_input>
W0NIMl0xW0NIMl1bQ0BASF0oW0NIMl0yKVtDQEBIXShbQ0gyXVtPSF0pW0NAQEhdKFtDQEhdMTIpW05IXUMoPU8pW05IXWMzbm5bY0hdczM=

> <s_epik_cmdline>
J2VwaWtfcHl0aG9uJywgJy1waCcsICc3LjAnLCAnLXRuJywgJzgnLCAnLW1hJywgJzIwMCcsICctbWV0YWxfYmluZGluZycsICctaW1hZScsICc8aW5maWxlLm1hZT4nLCAnLW9tYWUnLCAnPG91dGZpbGUubWFlPic=

> <r_lp_tautomer_probability>
1

> <r_epik_Ionization_Penalty>
0.000329046

> <r_epik_Ionization_Penalty_Charging>
0

> <r_epik_Ionization_Penalty_Neutral>
0.000329046

> <r_epik_State_Penalty>
-0

> <r_epik_Charging_Adjusted_Penalty>
0

> <i_epik_Tot_Q>
0

> <i_epik_Tot_abs_Q>
0

> <r_epik_Metal_State_Penalty>
0.173433

> <b_epik_Metal_Only>
0

> <s_lp_Force_Field>
OPLS_2005

> <r_lp_Energy>
48.5099

> <b_lp_Chiralities_Consistent>
1

> <s_lp_Variant>
AV-unprocessed.smi:798-3

> <Gold.Version>
5.8.1

> <Gold.Id.Protein>
6NUR|6NUR_protein|mol2

> <Gold.PLP.Fitness>
37.5252

> <Gold.PLP.PLP>
-24.5239

> <Gold.PLP.part.hbond>
-4.6292

> <Gold.PLP.part.metal>
0.0000

> <Gold.PLP.part.buried>
-1.0044

> <Gold.PLP.part.nonpolar>
-19.4766

> <Gold.PLP.part.repulsive>
0.1986

> <Gold.PLP.ligand.clash>
0.0000

> <Gold.PLP.ligand.torsion>
1.0365

> <Gold.PLP.Chemscore.Hbond>
4.2997

> <Gold.PLP.Chemscore.CHOScore>
0.7187

> <Gold.PLP.Chemscore.Metal>
0.0000

> <Gold.Chemscore.Hbonds>
donor molecule, donor type, donor heavy atom, donor atom, acceptor molecule, acceptor atom, score
      L1  H     3    19       P1 10175  0.94
      L1  H     9    21       P1 10175  1.00
      L1  H    18    34       P1  7957  1.00
      P1  H  7989  7998       L1    18  0.31
      P1  H 11000 11005       L1     6  0.89
      L1  C     7    20       P1 10957  0.59

> <Gold.PLP.Chemscore.Internal.Correction>
0.0191

> <Gold.Rescore>
     Score         DG    S(hbond)    S(metal)    S(lipo)     H(rot)  DE(clash)    DE(int)     intcor
     17.51     -18.80       3.71        0.00      50.34       1.94       0.07       1.22       ----

> <Gold.Chemscore.Fitness>
17.5142

> <Gold.Chemscore.DG>
-18.7972

> <Gold.Chemscore.ZeroCoef>
-5.4800

> <Gold.Chemscore.Hbond>
3.7138

> <Gold.Chemscore.Metal>
0.0000

> <Gold.Chemscore.Lipo>
50.3442

> <Gold.Chemscore.Internal_Hbond>
0.0000

> <Gold.Chemscore.DEClash>
0.0650

> <Gold.Chemscore.DEInternal>
1.2179

> <Gold.Chemscore.Rot>
1.9442

> <Gold.Chemscore.Internal.Correction>
   9.000000E+99

> <Gold.Chemscore.Hbonds>
donor molecule, donor type, donor heavy atom, donor atom, acceptor molecule, acceptor atom, score
      L1  H     3    19       P1 10175  0.90
      L1  H     9    21       P1 10175  0.98
      L1  H    18    34       P1  7957  0.90
      P1  H  7989  7998       L1    18  0.03
      P1  H 11000 11005       L1     6  0.40

> <Gold.Chemscore.Hbond.Weighted>
-12.4040

> <Gold.Chemscore.Metal.Weighted>
-0.0000

> <Gold.Chemscore.Lipo.Weighted>
-5.8903

> <Gold.Chemscore.Internal_Hbond.Weighted>
0.0000

> <Gold.Chemscore.DEClash.Weighted>
0.0650

> <Gold.Chemscore.DEInternal.Weighted>
1.2179

> <Gold.Chemscore.Rot.Weighted>
4.9771

> <Gold.Chemscore.Internal.Correction.Weighted>
   9.000000E+99

> <Gold.Protein.RotatedTorsions>
[ 6907 6896 6895 6894 ] final  100.04 input  -60.11 | X-H torsion
[ 7974 7965 7964 7962 ] final  155.28 input  175.53 | X-H torsion
[ 8008 7997 7996 7995 ] final    4.25 input   59.86 | X-H torsion
[ 10167 10162 10161 10158 ] final  -75.16 input  -65.29 | X-H torsion
[ 10718 10713 10712 10709 ] final -112.11 input   66.30 | X-H torsion
[ 10763 10752 10751 10750 ] final   65.23 input  -60.55 | X-H torsion
[ 11005 11000 10999 10996 ] final   31.67 input  -57.11 | X-H torsion

> <Gold.Protein.ActiveResidues>
 VAL166  LYS551  ARG553  GLY616  TRP617  ASP618  TYR619  PRO620  LYS621  CYS622 
 ASP623  PHE694  ASN695  SER759  ASP760  ASP761  ALA762  ILE779  LEU786  VAL792 
 PHE793  MET794  SER795  GLU796  ALA797  LYS798  CYS799  TRP800  GLU811  SER814 

> <Gold.Protein.RotatedAtoms>
  152.5380  134.0337  159.8035 H   0  0  0  0  0  0  0  0  0  0  0  0  # atno 6907 bound_to 6896
  151.0504  133.5622  159.2650 H   0  0  0  0  0  0  0  0  0  0  0  0  # atno 6908 bound_to 6896
  151.2558  135.0645  159.9133 H   0  0  0  0  0  0  0  0  0  0  0  0  # atno 6909 bound_to 6896
  144.8035  139.7047  143.6172 H   0  0  0  0  0  0  0  0  0  0  0  0  # atno 7974 bound_to 7965
  154.7136  140.2697  155.6606 H   0  0  0  0  0  0  0  0  0  0  0  0  # atno 8008 bound_to 7997
  156.2803  140.2748  156.1710 H   0  0  0  0  0  0  0  0  0  0  0  0  # atno 8009 bound_to 7997
  155.0601  140.0371  157.2564 H   0  0  0  0  0  0  0  0  0  0  0  0  # atno 8010 bound_to 7997
  140.4966  143.2369  151.7821 H   0  0  0  0  0  0  0  0  0  0  0  0  # atno 10167 bound_to 10162
  156.0686  130.5903  150.8465 H   0  0  0  0  0  0  0  0  0  0  0  0  # atno 10718 bound_to 10713
  153.0088  135.5364  154.6635 H   0  0  0  0  0  0  0  0  0  0  0  0  # atno 10763 bound_to 10752
  154.5837  135.2852  155.0708 H   0  0  0  0  0  0  0  0  0  0  0  0  # atno 10764 bound_to 10752
  154.1828  135.6513  153.5091 H   0  0  0  0  0  0  0  0  0  0  0  0  # atno 10765 bound_to 10752
  140.2814  134.2968  155.7799 H   0  0  0  0  0  0  0  0  0  0  0  0  # atno 11005 bound_to 11000
  146.2321  139.5834  142.9548 LP  0  0  0  0  0  0  0  0  0  0  0  0  # atno 17320 bound_to 7965
  145.5496  141.0414  143.2286 LP  0  0  0  0  0  0  0  0  0  0  0  0  # atno 17321 bound_to 7965
  139.4862  144.4578  151.9577 LP  0  0  0  0  0  0  0  0  0  0  0  0  # atno 17342 bound_to 10162
  140.3666  144.2907  150.5925 LP  0  0  0  0  0  0  0  0  0  0  0  0  # atno 17343 bound_to 10162
  157.5744  131.0946  150.9368 LP  0  0  0  0  0  0  0  0  0  0  0  0  # atno 17370 bound_to 10713
  156.9578  130.5444  149.5284 LP  0  0  0  0  0  0  0  0  0  0  0  0  # atno 17371 bound_to 10713
  141.2162  133.7528  156.9486 LP  0  0  0  0  0  0  0  0  0  0  0  0  # atno 17394 bound_to 11000
  140.1280  134.9374  157.2297 LP  0  0  0  0  0  0  0  0  0  0  0  0  # atno 17395 bound_to 11000

$$$$
