AV-unprocessed.smi:3330|AV-procd|sdf|12810|dock1
  -GOLD-   2272019173D 1   1.00000     0.00000
 Structure written by MMmdl.
 38 39  0  0  0  0  0  0  0  0  3 V2000
  147.3569  133.1976  151.9392 C   0  0  0  0  0  0  0  0  0  0  0  0
  146.4335  133.8728  152.9699 C   0  0  1  0  0  0  0  0  0  0  0  0
  147.2281  134.8498  153.7480 N   0  3  0  0  0  0  0  0  0  0  0  0
  148.0419  134.2693  154.8343 C   0  0  0  0  0  0  0  0  0  0  0  0
  149.3196  133.6286  154.2735 C   0  0  0  0  0  0  0  0  0  0  0  0
  150.0348  132.8803  155.3100 N   0  0  0  0  0  0  0  0  0  0  0  0
  150.2812  131.5679  155.2598 C   0  0  0  0  0  0  0  0  0  0  0  0
  149.9720  130.7750  154.3703 O   0  0  0  0  0  0  0  0  0  0  0  0
  151.0173  131.1949  156.5255 C   0  0  0  0  0  0  0  0  0  0  0  0
  151.0946  132.4599  157.2211 N   0  5  0  0  0  0  0  0  0  0  0  0
  150.4993  133.4061  156.4592 C   0  0  0  0  0  0  0  0  0  0  0  0
  150.3657  134.5982  156.7345 O   0  0  0  0  0  0  0  0  0  0  0  0
  145.2034  134.5637  152.3189 C   0  0  2  0  0  0  0  0  0  0  0  0
  144.1547  135.0271  153.3479 C   0  0  0  0  0  0  0  0  0  0  0  0
  144.5703  133.7220  151.3114 N   0  0  0  0  0  0  0  0  0  0  0  0
  144.5606  133.8889  149.9415 C   0  0  0  0  0  0  0  0  0  0  0  0
  143.8405  132.8580  149.4093 C   0  0  0  0  0  0  0  0  0  0  0  0
  143.4389  132.1033  150.5462 C   0  0  0  0  0  0  0  0  0  0  0  0
  143.8754  132.6225  151.6820 N   0  0  0  0  0  0  0  0  0  0  0  0
  146.8509  132.3929  151.4055 H   0  0  0  0  0  0  0  0  0  0  0  0
  148.2286  132.7573  152.4247 H   0  0  0  0  0  0  0  0  0  0  0  0
  147.7155  133.9141  151.1995 H   0  0  0  0  0  0  0  0  0  0  0  0
  146.0800  133.0880  153.6413 H   0  0  0  0  0  0  0  0  0  0  0  0
  147.8566  135.3225  153.1145 H   0  0  0  0  0  0  0  0  0  0  0  0
  148.2990  135.0472  155.5540 H   0  0  0  0  0  0  0  0  0  0  0  0
  147.4493  133.5229  155.3653 H   0  0  0  0  0  0  0  0  0  0  0  0
  149.0723  132.9705  153.4387 H   0  0  0  0  0  0  0  0  0  0  0  0
  149.9736  134.3977  153.8586 H   0  0  0  0  0  0  0  0  0  0  0  0
  150.4561  130.4362  157.0715 H   0  0  0  0  0  0  0  0  0  0  0  0
  151.9946  130.7791  156.2786 H   0  0  0  0  0  0  0  0  0  0  0  0
  145.5604  135.4527  151.7964 H   0  0  0  0  0  0  0  0  0  0  0  0
  144.5578  135.7881  154.0162 H   0  0  0  0  0  0  0  0  0  0  0  0
  143.8013  134.1979  153.9619 H   0  0  0  0  0  0  0  0  0  0  0  0
  143.2876  135.4647  152.8519 H   0  0  0  0  0  0  0  0  0  0  0  0
  145.0619  134.7175  149.4633 H   0  0  0  0  0  0  0  0  0  0  0  0
  143.6303  132.6720  148.3664 H   0  0  0  0  0  0  0  0  0  0  0  0
  142.8469  131.2005  150.5798 H   0  0  0  0  0  0  0  0  0  0  0  0
  146.5978  135.5328  154.1431 H   0  0  0  0  0  0  0  0  0  0  0  0
  1  2  1  0  0  0  0
  1 20  1  0  0  0  0
  1 21  1  0  0  0  0
  1 22  1  0  0  0  0
  2  3  1  0  0  0  0
  2 13  1  0  0  0  0
  2 23  1  0  0  0  0
  3  4  1  0  0  0  0
  3 24  1  0  0  0  0
  3 38  1  0  0  0  0
  4  5  1  0  0  0  0
  4 25  1  0  0  0  0
  4 26  1  0  0  0  0
  5  6  1  0  0  0  0
  5 27  1  0  0  0  0
  5 28  1  0  0  0  0
  6 11  1  0  0  0  0
  6  7  1  0  0  0  0
  7  8  2  0  0  0  0
  7  9  1  0  0  0  0
  9 10  1  0  0  0  0
  9 29  1  0  0  0  0
  9 30  1  0  0  0  0
 10 11  1  0  0  0  0
 11 12  2  0  0  0  0
 13 14  1  0  0  0  0
 13 15  1  0  0  0  0
 13 31  1  0  0  0  0
 14 32  1  0  0  0  0
 14 33  1  0  0  0  0
 14 34  1  0  0  0  0
 15 19  1  0  0  0  0
 15 16  1  0  0  0  0
 16 17  2  0  0  0  0
 16 35  1  0  0  0  0
 17 18  1  0  0  0  0
 17 36  1  0  0  0  0
 18 19  2  0  0  0  0
 18 37  1  0  0  0  0
M  CHG  1   3   1
M  CHG  1  10  -1
M  END
> <s_m_source_file>
AV-unprocessed.smi

> <i_m_source_file_index>
3330

> <i_lp_mmshare_version>
43012

> <i_f3d_flags>
0

> <s_epik_input>
bjFbY0hdW2NIXVtjSF1uMVtDQEBIXShbQ0gzXSlbQ0BIXShbQ0gzXSlbTkhdW0NIMl1bQ0gyXU4yQyg9TylbQ0gyXVtOSF1DMj1P

> <s_epik_cmdline>
J2VwaWtfcHl0aG9uJywgJy1waCcsICc3LjAnLCAnLXRuJywgJzgnLCAnLW1hJywgJzIwMCcsICctbWV0YWxfYmluZGluZycsICctaW1hZScsICc8aW5maWxlLm1hZT4nLCAnLW9tYWUnLCAnPG91dGZpbGUubWFlPic=

> <r_lp_tautomer_probability>
1

> <r_epik_Ionization_Penalty>
5.18149

> <r_epik_Ionization_Penalty_Charging>
5.18148

> <r_epik_Ionization_Penalty_Neutral>
9.83265e-06

> <r_epik_State_Penalty>
5.18201

> <r_epik_Charging_Adjusted_Penalty>
10.3635

> <i_epik_Tot_Q>
0

> <i_epik_Tot_abs_Q>
2

> <r_epik_Metal_State_Penalty>
1.25422

> <b_epik_Metal_Only>
1

> <s_lp_Force_Field>
OPLS_2005

> <r_lp_Energy>
16.6991

> <b_lp_Chiralities_Consistent>
1

> <s_lp_Variant>
AV-unprocessed.smi:3330-10

> <Gold.Version>
5.8.1

> <Gold.Id.Protein>
6NUR|6NUR_protein|mol2

> <Gold.PLP.Fitness>
46.6543

> <Gold.PLP.PLP>
-29.6076

> <Gold.PLP.part.hbond>
-2.0000

> <Gold.PLP.part.metal>
0.0000

> <Gold.PLP.part.buried>
-2.7709

> <Gold.PLP.part.nonpolar>
-25.1958

> <Gold.PLP.part.repulsive>
0.2409

> <Gold.PLP.ligand.clash>
0.0000

> <Gold.PLP.ligand.torsion>
0.5934

> <Gold.PLP.Chemscore.Hbond>
4.0000

> <Gold.PLP.Chemscore.CHOScore>
2.0000

> <Gold.PLP.Chemscore.Metal>
0.0000

> <Gold.Chemscore.Hbonds>
donor molecule, donor type, donor heavy atom, donor atom, acceptor molecule, acceptor atom, score
      L1  H     3    24       P1  7948  2.00
      P1  H  6896  6908       L1    10  1.17
      L1  C    16    35       P1  7921  1.00
      L1  C    18    37       P1 10952  1.00

> <Gold.PLP.Chemscore.Internal.Correction>
0.2334

> <Gold.Rescore>
     Score         DG    S(hbond)    S(metal)    S(lipo)     H(rot)  DE(clash)    DE(int)     intcor
     11.75     -12.43       1.95        0.00      60.35       2.59       0.05       0.63       ----

> <Gold.Chemscore.Fitness>
11.7514

> <Gold.Chemscore.DG>
-12.4269

> <Gold.Chemscore.ZeroCoef>
-5.4800

> <Gold.Chemscore.Hbond>
1.9512

> <Gold.Chemscore.Metal>
0.0000

> <Gold.Chemscore.Lipo>
60.3501

> <Gold.Chemscore.Internal_Hbond>
0.0000

> <Gold.Chemscore.DEClash>
0.0491

> <Gold.Chemscore.DEInternal>
0.6264

> <Gold.Chemscore.Rot>
2.5903

> <Gold.Chemscore.Internal.Correction>
   9.000000E+99

> <Gold.Chemscore.Hbonds>
donor molecule, donor type, donor heavy atom, donor atom, acceptor molecule, acceptor atom, score
      L1  H     3    24       P1  7948  1.00
      P1  H  6896  6908       L1    10  0.29

> <Gold.Chemscore.Hbond.Weighted>
-6.5170

> <Gold.Chemscore.Metal.Weighted>
-0.0000

> <Gold.Chemscore.Lipo.Weighted>
-7.0610

> <Gold.Chemscore.Internal_Hbond.Weighted>
0.0000

> <Gold.Chemscore.DEClash.Weighted>
0.0491

> <Gold.Chemscore.DEInternal.Weighted>
0.6264

> <Gold.Chemscore.Rot.Weighted>
6.6311

> <Gold.Chemscore.Internal.Correction.Weighted>
   9.000000E+99

> <Gold.Protein.RotatedTorsions>
[ 6907 6896 6895 6894 ] final   82.95 input  -60.11 | X-H torsion
[ 7974 7965 7964 7962 ] final -132.18 input  175.53 | X-H torsion
[ 8008 7997 7996 7995 ] final   32.82 input   59.86 | X-H torsion
[ 10167 10162 10161 10158 ] final  160.97 input  -65.29 | X-H torsion
[ 10718 10713 10712 10709 ] final  106.10 input   66.30 | X-H torsion
[ 10763 10752 10751 10750 ] final  160.00 input  -60.55 | X-H torsion
[ 11005 11000 10999 10996 ] final  -44.91 input  -57.11 | X-H torsion

> <Gold.Protein.ActiveResidues>
 VAL166  LYS551  ARG553  GLY616  TRP617  ASP618  TYR619  PRO620  LYS621  CYS622 
 ASP623  PHE694  ASN695  SER759  ASP760  ASP761  ALA762  ILE779  LEU786  VAL792 
 PHE793  MET794  SER795  GLU796  ALA797  LYS798  CYS799  TRP800  GLU811  SER814 

> <Gold.Protein.RotatedAtoms>
  152.5314  134.2971  159.9064 H   0  0  0  0  0  0  0  0  0  0  0  0  # atno 6907 bound_to 6896
  151.2922  133.4153  159.2641 H   0  0  0  0  0  0  0  0  0  0  0  0  # atno 6908 bound_to 6896
  151.0191  134.9471  159.8106 H   0  0  0  0  0  0  0  0  0  0  0  0  # atno 6909 bound_to 6896
  144.9310  140.7128  143.4906 H   0  0  0  0  0  0  0  0  0  0  0  0  # atno 7974 bound_to 7965
  155.1286  140.3255  155.4479 H   0  0  0  0  0  0  0  0  0  0  0  0  # atno 8008 bound_to 7997
  156.2641  140.2014  156.6355 H   0  0  0  0  0  0  0  0  0  0  0  0  # atno 8009 bound_to 7997
  154.6629  140.0545  157.0069 H   0  0  0  0  0  0  0  0  0  0  0  0  # atno 8010 bound_to 7997
  139.4845  144.4582  151.8739 H   0  0  0  0  0  0  0  0  0  0  0  0  # atno 10167 bound_to 10162
  157.6681  131.0843  150.5956 H   0  0  0  0  0  0  0  0  0  0  0  0  # atno 10718 bound_to 10713
  154.2406  135.2775  155.2855 H   0  0  0  0  0  0  0  0  0  0  0  0  # atno 10763 bound_to 10752
  154.5548  135.5664  153.6958 H   0  0  0  0  0  0  0  0  0  0  0  0  # atno 10764 bound_to 10752
  153.0001  135.6283  154.2550 H   0  0  0  0  0  0  0  0  0  0  0  0  # atno 10765 bound_to 10752
  141.0481  133.6753  156.2939 H   0  0  0  0  0  0  0  0  0  0  0  0  # atno 11005 bound_to 11000
  145.3142  139.1809  143.4622 LP  0  0  0  0  0  0  0  0  0  0  0  0  # atno 17320 bound_to 7965
  146.3247  140.3151  142.8629 LP  0  0  0  0  0  0  0  0  0  0  0  0  # atno 17321 bound_to 7965
  140.4043  144.2452  150.5891 LP  0  0  0  0  0  0  0  0  0  0  0  0  # atno 17342 bound_to 10162
  140.5027  143.2313  151.8654 LP  0  0  0  0  0  0  0  0  0  0  0  0  # atno 17343 bound_to 10162
  156.6256  130.4418  149.5805 LP  0  0  0  0  0  0  0  0  0  0  0  0  # atno 17370 bound_to 10713
  156.2321  130.6801  151.1474 LP  0  0  0  0  0  0  0  0  0  0  0  0  # atno 17371 bound_to 10713
  140.6108  134.5461  157.5533 LP  0  0  0  0  0  0  0  0  0  0  0  0  # atno 17394 bound_to 11000
  139.9328  134.7931  156.0884 LP  0  0  0  0  0  0  0  0  0  0  0  0  # atno 17395 bound_to 11000

$$$$
