AV-unprocessed.smi:3154|AV-procd|sdf|12024|dock10
  -GOLD-   2272017443D 1   1.00000     0.00000
 Structure written by MMmdl.
 34 35  0  0  0  0  0  0  0  0  1 V2000
  144.2925  136.2550  153.1382 C   0  0  0  0  0  0  0  0  0  0  0  0
  145.5498  135.7284  152.4243 C   0  0  1  0  0  0  0  0  0  0  0  0
  145.3201  135.4810  150.9133 C   0  0  0  0  0  0  0  0  0  0  0  0
  145.2254  134.0715  150.5771 N   0  0  0  0  0  0  0  0  0  0  0  0
  144.1250  133.3664  150.1369 C   0  0  0  0  0  0  0  0  0  0  0  0
  144.5210  132.0739  149.9434 C   0  0  0  0  0  0  0  0  0  0  0  0
  145.9011  132.0883  150.2894 C   0  0  0  0  0  0  0  0  0  0  0  0
  146.3210  133.2860  150.6636 N   0  0  0  0  0  0  0  0  0  0  0  0
  146.6091  136.7097  152.6385 N   0  0  0  0  0  0  0  0  0  0  0  0
  146.2166  138.0680  152.2412 C   0  0  0  0  0  0  0  0  0  0  0  0
  147.0800  139.1164  152.9385 C   0  0  0  0  0  0  0  0  0  0  0  0
  148.1228  138.7811  153.4997 O   0  0  0  0  0  0  0  0  0  0  0  0
  146.6330  140.3802  152.8914 N   0  0  0  0  0  0  0  0  0  0  0  0
  147.2816  141.5119  153.4699 C   0  0  0  0  0  0  0  0  0  0  0  0
  147.4002  141.5590  154.9777 C   0  0  0  0  0  0  0  0  0  0  0  0
  146.4325  142.4715  154.2757 C   0  0  0  0  0  0  0  0  0  0  0  0
  143.4783  135.5311  153.0996 H   0  0  0  0  0  0  0  0  0  0  0  0
  143.9357  137.1803  152.6844 H   0  0  0  0  0  0  0  0  0  0  0  0
  144.4913  136.4552  154.1917 H   0  0  0  0  0  0  0  0  0  0  0  0
  145.8316  134.7920  152.9086 H   0  0  0  0  0  0  0  0  0  0  0  0
  144.4008  135.9708  150.5889 H   0  0  0  0  0  0  0  0  0  0  0  0
  146.1261  135.9063  150.3157 H   0  0  0  0  0  0  0  0  0  0  0  0
  143.1622  133.8368  150.0022 H   0  0  0  0  0  0  0  0  0  0  0  0
  143.9176  131.2447  149.6045 H   0  0  0  0  0  0  0  0  0  0  0  0
  146.6061  131.2701  150.2784 H   0  0  0  0  0  0  0  0  0  0  0  0
  147.4245  136.4115  152.1229 H   0  0  0  0  0  0  0  0  0  0  0  0
  146.3112  138.1842  151.1603 H   0  0  0  0  0  0  0  0  0  0  0  0
  145.1741  138.2558  152.4966 H   0  0  0  0  0  0  0  0  0  0  0  0
  145.7644  140.5537  152.4066 H   0  0  0  0  0  0  0  0  0  0  0  0
  148.1051  141.9558  152.9123 H   0  0  0  0  0  0  0  0  0  0  0  0
  146.9851  140.7301  155.5480 H   0  0  0  0  0  0  0  0  0  0  0  0
  148.2996  142.0066  155.3956 H   0  0  0  0  0  0  0  0  0  0  0  0
  146.6854  143.5287  154.2251 H   0  0  0  0  0  0  0  0  0  0  0  0
  145.3715  142.2514  154.3771 H   0  0  0  0  0  0  0  0  0  0  0  0
  1  2  1  0  0  0  0
  1 17  1  0  0  0  0
  1 18  1  0  0  0  0
  1 19  1  0  0  0  0
  2  3  1  0  0  0  0
  2  9  1  0  0  0  0
  2 20  1  0  0  0  0
  3  4  1  0  0  0  0
  3 21  1  0  0  0  0
  3 22  1  0  0  0  0
  4  8  1  0  0  0  0
  4  5  1  0  0  0  0
  5  6  2  0  0  0  0
  5 23  1  0  0  0  0
  6  7  1  0  0  0  0
  6 24  1  0  0  0  0
  7  8  2  0  0  0  0
  7 25  1  0  0  0  0
  9 10  1  0  0  0  0
  9 26  1  0  0  0  0
 10 11  1  0  0  0  0
 10 27  1  0  0  0  0
 10 28  1  0  0  0  0
 11 12  2  0  0  0  0
 11 13  1  0  0  0  0
 13 14  1  0  0  0  0
 13 29  1  0  0  0  0
 14 16  1  0  0  0  0
 14 15  1  0  0  0  0
 14 30  1  0  0  0  0
 15 16  1  0  0  0  0
 15 31  1  0  0  0  0
 15 32  1  0  0  0  0
 16 33  1  0  0  0  0
 16 34  1  0  0  0  0
M  END
> <s_m_source_file>
AV-unprocessed.smi

> <i_m_source_file_index>
3154

> <i_lp_mmshare_version>
43012

> <i_f3d_flags>
0

> <s_epik_input>
bjFbY0hdW2NIXVtjSF1uMVtDSDJdW0NAQEhdKFtDSDNdKVtOSF1bQ0gyXUMoPU8pW05IXVtDSF0yW0NIMl1bQ0gyXTI=

> <s_epik_cmdline>
J2VwaWtfcHl0aG9uJywgJy1waCcsICc3LjAnLCAnLXRuJywgJzgnLCAnLW1hJywgJzIwMCcsICctbWV0YWxfYmluZGluZycsICctaW1hZScsICc8aW5maWxlLm1hZT4nLCAnLW9tYWUnLCAnPG91dGZpbGUubWFlPic=

> <r_lp_tautomer_probability>
1

> <r_epik_Ionization_Penalty>
1.00229

> <r_epik_Ionization_Penalty_Charging>
0

> <r_epik_Ionization_Penalty_Neutral>
1.00229

> <r_epik_State_Penalty>
1.0509

> <r_epik_Charging_Adjusted_Penalty>
1.0509

> <i_epik_Tot_Q>
0

> <i_epik_Tot_abs_Q>
0

> <r_epik_Metal_State_Penalty>
1.05084

> <b_epik_Metal_Only>
0

> <s_lp_Force_Field>
OPLS_2005

> <r_lp_Energy>
18.1237

> <b_lp_Chiralities_Consistent>
1

> <s_lp_Variant>
AV-unprocessed.smi:3154-4

> <Gold.Version>
5.8.1

> <Gold.Id.Protein>
6NUR|6NUR_protein|mol2

> <Gold.PLP.Fitness>
42.9879

> <Gold.PLP.PLP>
-33.3328

> <Gold.PLP.part.hbond>
-2.0000

> <Gold.PLP.part.metal>
0.0000

> <Gold.PLP.part.buried>
-6.0813

> <Gold.PLP.part.nonpolar>
-26.9229

> <Gold.PLP.part.repulsive>
0.9396

> <Gold.PLP.ligand.clash>
0.0000

> <Gold.PLP.ligand.torsion>
1.1427

> <Gold.PLP.Chemscore.Hbond>
1.9600

> <Gold.PLP.Chemscore.CHOScore>
2.0000

> <Gold.PLP.Chemscore.Metal>
0.0000

> <Gold.Chemscore.Hbonds>
donor molecule, donor type, donor heavy atom, donor atom, acceptor molecule, acceptor atom, score
      L1  H     9    26       P1  7948  1.00
      L1  H    13    29       P1 10175  0.86
      L1  C     5    23       P1 10186  1.00
      L1  C     7    25       P1 10747  1.00

> <Gold.PLP.Chemscore.Internal.Correction>
0.0606

> <Gold.Rescore>
     Score         DG    S(hbond)    S(metal)    S(lipo)     H(rot)  DE(clash)    DE(int)     intcor
     12.81     -13.99       1.90        0.00      65.04       2.12       0.03       1.15       ----

> <Gold.Chemscore.Fitness>
12.8144

> <Gold.Chemscore.DG>
-13.9892

> <Gold.Chemscore.ZeroCoef>
-5.4800

> <Gold.Chemscore.Hbond>
1.8962

> <Gold.Chemscore.Metal>
0.0000

> <Gold.Chemscore.Lipo>
65.0384

> <Gold.Chemscore.Internal_Hbond>
0.0000

> <Gold.Chemscore.DEClash>
0.0251

> <Gold.Chemscore.DEInternal>
1.1498

> <Gold.Chemscore.Rot>
2.1225

> <Gold.Chemscore.Internal.Correction>
   9.000000E+99

> <Gold.Chemscore.Hbonds>
donor molecule, donor type, donor heavy atom, donor atom, acceptor molecule, acceptor atom, score
      L1  H     9    26       P1  7948  0.93
      L1  H    13    29       P1 10175  0.28

> <Gold.Chemscore.Hbond.Weighted>
-6.3334

> <Gold.Chemscore.Metal.Weighted>
-0.0000

> <Gold.Chemscore.Lipo.Weighted>
-7.6095

> <Gold.Chemscore.Internal_Hbond.Weighted>
0.0000

> <Gold.Chemscore.DEClash.Weighted>
0.0251

> <Gold.Chemscore.DEInternal.Weighted>
1.1498

> <Gold.Chemscore.Rot.Weighted>
5.4337

> <Gold.Chemscore.Internal.Correction.Weighted>
   9.000000E+99

> <Gold.Protein.RotatedTorsions>
[ 6907 6896 6895 6894 ] final   91.67 input  -60.11 | X-H torsion
[ 7974 7965 7964 7962 ] final -116.34 input  175.53 | X-H torsion
[ 8008 7997 7996 7995 ] final   55.19 input   59.86 | X-H torsion
[ 10167 10162 10161 10158 ] final   41.86 input  -65.29 | X-H torsion
[ 10718 10713 10712 10709 ] final  165.34 input   66.30 | X-H torsion
[ 10763 10752 10751 10750 ] final  -85.22 input  -60.55 | X-H torsion
[ 11005 11000 10999 10996 ] final  -25.72 input  -57.11 | X-H torsion

> <Gold.Protein.ActiveResidues>
 VAL166  LYS551  ARG553  GLY616  TRP617  ASP618  TYR619  PRO620  LYS621  CYS622 
 ASP623  PHE694  ASN695  SER759  ASP760  ASP761  ALA762  ILE779  LEU786  VAL792 
 PHE793  MET794  SER795  GLU796  ALA797  LYS798  CYS799  TRP800  GLU811  SER814 

> <Gold.Protein.RotatedAtoms>
  152.5451  134.1620  159.8561 H   0  0  0  0  0  0  0  0  0  0  0  0  # atno 6907 bound_to 6896
  151.1638  133.4821  159.2601 H   0  0  0  0  0  0  0  0  0  0  0  0  # atno 6908 bound_to 6896
  151.1345  135.0159  159.8653 H   0  0  0  0  0  0  0  0  0  0  0  0  # atno 6909 bound_to 6896
  145.0979  140.8532  143.3944 H   0  0  0  0  0  0  0  0  0  0  0  0  # atno 7974 bound_to 7965
  155.4971  140.3473  155.4364 H   0  0  0  0  0  0  0  0  0  0  0  0  # atno 8008 bound_to 7997
  156.0939  140.1417  156.9585 H   0  0  0  0  0  0  0  0  0  0  0  0  # atno 8009 bound_to 7997
  154.4651  140.0920  156.6976 H   0  0  0  0  0  0  0  0  0  0  0  0  # atno 8010 bound_to 7997
  140.3602  144.2238  150.6139 H   0  0  0  0  0  0  0  0  0  0  0  0  # atno 10167 bound_to 10162
  157.0815  131.0393  151.2573 H   0  0  0  0  0  0  0  0  0  0  0  0  # atno 10718 bound_to 10713
  154.6086  135.5493  153.7449 H   0  0  0  0  0  0  0  0  0  0  0  0  # atno 10763 bound_to 10752
  153.0185  135.6384  154.1611 H   0  0  0  0  0  0  0  0  0  0  0  0  # atno 10764 bound_to 10752
  154.1549  135.2900  155.3105 H   0  0  0  0  0  0  0  0  0  0  0  0  # atno 10765 bound_to 10752
  140.8963  133.7554  156.0486 H   0  0  0  0  0  0  0  0  0  0  0  0  # atno 11005 bound_to 11000
  145.0990  139.2836  143.5696 LP  0  0  0  0  0  0  0  0  0  0  0  0  # atno 17320 bound_to 7965
  146.3530  140.0551  142.8633 LP  0  0  0  0  0  0  0  0  0  0  0  0  # atno 17321 bound_to 7965
  140.5135  143.2284  151.8499 LP  0  0  0  0  0  0  0  0  0  0  0  0  # atno 17342 bound_to 10162
  139.4815  144.4922  151.9170 LP  0  0  0  0  0  0  0  0  0  0  0  0  # atno 17343 bound_to 10162
  157.4796  130.7757  149.7401 LP  0  0  0  0  0  0  0  0  0  0  0  0  # atno 17370 bound_to 10713
  155.9922  130.3932  150.2951 LP  0  0  0  0  0  0  0  0  0  0  0  0  # atno 17371 bound_to 10713
  140.8285  134.3206  157.5357 LP  0  0  0  0  0  0  0  0  0  0  0  0  # atno 17394 bound_to 11000
  139.8736  134.9350  156.3621 LP  0  0  0  0  0  0  0  0  0  0  0  0  # atno 17395 bound_to 11000

$$$$
