AV-unprocessed.smi:672|AV-procd|sdf|3289|dock10
  -GOLD-   22720 0253D 1   1.00000     0.00000
 Structure written by MMmdl.
 36 37  0  0  0  0  0  0  0  0  1 V2000
  145.8355  129.5592  151.8916 C   0  0  0  0  0  0  0  0  0  0  0  0
  146.7222  129.3647  153.1261 C   0  0  0  0  0  0  0  0  0  0  0  0
  147.4004  130.6248  153.5491 C   0  0  0  0  0  0  0  0  0  0  0  0
  148.2476  130.6786  154.5844 N   0  0  0  0  0  0  0  0  0  0  0  0
  148.7743  131.9496  154.7679 N   0  0  0  0  0  0  0  0  0  0  0  0
  148.3193  132.8158  153.8523 C   0  0  0  0  0  0  0  0  0  0  0  0
  148.6967  134.1836  153.8030 N   0  0  0  0  0  0  0  0  0  0  0  0
  149.0858  134.9784  154.8152 C   0  0  0  0  0  0  0  0  0  0  0  0
  149.1894  134.6345  155.9928 O   0  0  0  0  0  0  0  0  0  0  0  0
  149.3525  136.2187  154.3814 N   0  0  0  0  0  0  0  0  0  0  0  0
  149.8085  137.3224  155.2225 C   0  0  2  0  0  0  0  0  0  0  0  0
  148.9229  138.5731  155.0550 C   0  0  0  0  0  0  0  0  0  0  0  0
  149.7966  139.6235  154.3662 C   0  0  0  0  0  0  0  0  0  0  0  0
  151.2279  139.2857  154.7836 C   0  0  1  0  0  0  0  0  0  0  0  0
  151.6318  140.0203  156.3986 S   0  0  0  0  0  0  0  0  0  0  0  0
  151.0059  141.7046  156.1580 C   0  0  0  0  0  0  0  0  0  0  0  0
  151.2356  137.7532  154.8348 C   0  0  0  0  0  0  0  0  0  0  0  0
  147.1987  132.1424  152.6814 S   0  0  0  0  0  0  0  0  0  0  0  0
  145.3523  128.6238  151.6089 H   0  0  0  0  0  0  0  0  0  0  0  0
  146.4202  129.9040  151.0384 H   0  0  0  0  0  0  0  0  0  0  0  0
  145.0531  130.2946  152.0816 H   0  0  0  0  0  0  0  0  0  0  0  0
  146.1235  128.9936  153.9583 H   0  0  0  0  0  0  0  0  0  0  0  0
  147.4796  128.6061  152.9243 H   0  0  0  0  0  0  0  0  0  0  0  0
  148.6629  134.6082  152.8880 H   0  0  0  0  0  0  0  0  0  0  0  0
  149.2381  136.4144  153.3978 H   0  0  0  0  0  0  0  0  0  0  0  0
  149.8003  137.0131  156.2694 H   0  0  0  0  0  0  0  0  0  0  0  0
  148.0043  138.3847  154.4973 H   0  0  0  0  0  0  0  0  0  0  0  0
  148.6268  138.9375  156.0394 H   0  0  0  0  0  0  0  0  0  0  0  0
  149.7019  139.5161  153.2849 H   0  0  0  0  0  0  0  0  0  0  0  0
  149.5059  140.6436  154.6191 H   0  0  0  0  0  0  0  0  0  0  0  0
  151.9413  139.6652  154.0512 H   0  0  0  0  0  0  0  0  0  0  0  0
  151.1590  142.2931  157.0624 H   0  0  0  0  0  0  0  0  0  0  0  0
  149.9391  141.6862  155.9355 H   0  0  0  0  0  0  0  0  0  0  0  0
  151.5243  142.1979  155.3363 H   0  0  0  0  0  0  0  0  0  0  0  0
  151.9835  137.3516  155.5184 H   0  0  0  0  0  0  0  0  0  0  0  0
  151.4863  137.3774  153.8414 H   0  0  0  0  0  0  0  0  0  0  0  0
  1  2  1  0  0  0  0
  1 19  1  0  0  0  0
  1 20  1  0  0  0  0
  1 21  1  0  0  0  0
  2  3  1  0  0  0  0
  2 22  1  0  0  0  0
  2 23  1  0  0  0  0
  3 18  1  0  0  0  0
  3  4  2  0  0  0  0
  4  5  1  0  0  0  0
  5  6  2  0  0  0  0
  6  7  1  0  0  0  0
  6 18  1  0  0  0  0
  7  8  1  0  0  0  0
  7 24  1  0  0  0  0
  8  9  2  0  0  0  0
  8 10  1  0  0  0  0
 10 11  1  0  0  0  0
 10 25  1  0  0  0  0
 11 17  1  0  0  0  0
 11 12  1  0  0  0  0
 11 26  1  0  0  0  0
 12 13  1  0  0  0  0
 12 27  1  0  0  0  0
 12 28  1  0  0  0  0
 13 14  1  0  0  0  0
 13 29  1  0  0  0  0
 13 30  1  0  0  0  0
 14 15  1  0  0  0  0
 14 17  1  0  0  0  0
 14 31  1  0  0  0  0
 15 16  1  0  0  0  0
 16 32  1  0  0  0  0
 16 33  1  0  0  0  0
 16 34  1  0  0  0  0
 17 35  1  0  0  0  0
 17 36  1  0  0  0  0
M  END
> <s_m_source_file>
AV-unprocessed.smi

> <i_m_source_file_index>
672

> <i_lp_mmshare_version>
43012

> <i_f3d_flags>
0

> <s_epik_input>
W0NIM11bQ0gyXWMxbm5jKHMxKVtOSF1DKD1PKVtOSF1bQ0BASF0yW0NIMl1bQ0gyXVtDQEhdKFtDSDJdMilTW0NIM10=

> <s_epik_cmdline>
J2VwaWtfcHl0aG9uJywgJy1waCcsICc3LjAnLCAnLXRuJywgJzgnLCAnLW1hJywgJzIwMCcsICctbWV0YWxfYmluZGluZycsICctaW1hZScsICc8aW5maWxlLm1hZT4nLCAnLW9tYWUnLCAnPG91dGZpbGUubWFlPic=

> <r_lp_tautomer_probability>
1

> <r_epik_Ionization_Penalty>
0.000422169

> <r_epik_Ionization_Penalty_Charging>
0

> <r_epik_Ionization_Penalty_Neutral>
0.000422169

> <r_epik_State_Penalty>
-0

> <r_epik_Charging_Adjusted_Penalty>
0

> <i_epik_Tot_Q>
0

> <i_epik_Tot_abs_Q>
0

> <r_epik_Metal_State_Penalty>
0.200061

> <b_epik_Metal_Only>
0

> <s_lp_Force_Field>
OPLS_2005

> <r_lp_Energy>
12.7649

> <b_lp_Chiralities_Consistent>
1

> <s_lp_Variant>
AV-unprocessed.smi:672-1

> <Gold.Version>
5.8.1

> <Gold.Id.Protein>
6NUR|6NUR_protein|mol2

> <Gold.PLP.Fitness>
35.2063

> <Gold.PLP.PLP>
-30.1526

> <Gold.PLP.part.hbond>
-2.0000

> <Gold.PLP.part.metal>
0.0000

> <Gold.PLP.part.buried>
-2.0875

> <Gold.PLP.part.nonpolar>
-25.3482

> <Gold.PLP.part.repulsive>
0.1017

> <Gold.PLP.ligand.clash>
0.0000

> <Gold.PLP.ligand.torsion>
0.3273

> <Gold.PLP.Chemscore.Hbond>
1.8968

> <Gold.PLP.Chemscore.CHOScore>
0.0000

> <Gold.PLP.Chemscore.Metal>
0.0000

> <Gold.Chemscore.Hbonds>
donor molecule, donor type, donor heavy atom, donor atom, acceptor molecule, acceptor atom, score
      L1  H     7    24       P1  7948  0.79
      L1  H    10    25       P1  7948  1.00

> <Gold.PLP.Chemscore.Internal.Correction>
0.0178

> <Gold.Rescore>
     Score         DG    S(hbond)    S(metal)    S(lipo)     H(rot)  DE(clash)    DE(int)     intcor
     14.50     -15.02       1.70        0.00      63.00       1.37       0.01       0.52       ----

> <Gold.Chemscore.Fitness>
14.4973

> <Gold.Chemscore.DG>
-15.0228

> <Gold.Chemscore.ZeroCoef>
-5.4800

> <Gold.Chemscore.Hbond>
1.6978

> <Gold.Chemscore.Metal>
0.0000

> <Gold.Chemscore.Lipo>
63.0045

> <Gold.Chemscore.Internal_Hbond>
0.0000

> <Gold.Chemscore.DEClash>
0.0058

> <Gold.Chemscore.DEInternal>
0.5197

> <Gold.Chemscore.Rot>
1.3669

> <Gold.Chemscore.Internal.Correction>
   9.000000E+99

> <Gold.Chemscore.Hbonds>
donor molecule, donor type, donor heavy atom, donor atom, acceptor molecule, acceptor atom, score
      L1  H     7    24       P1  7948  0.13
      L1  H    10    25       P1  7948  0.88

> <Gold.Chemscore.Hbond.Weighted>
-5.6705

> <Gold.Chemscore.Metal.Weighted>
-0.0000

> <Gold.Chemscore.Lipo.Weighted>
-7.3715

> <Gold.Chemscore.Internal_Hbond.Weighted>
0.0000

> <Gold.Chemscore.DEClash.Weighted>
0.0058

> <Gold.Chemscore.DEInternal.Weighted>
0.5197

> <Gold.Chemscore.Rot.Weighted>
3.4992

> <Gold.Chemscore.Internal.Correction.Weighted>
   9.000000E+99

> <Gold.Protein.RotatedTorsions>
[ 6907 6896 6895 6894 ] final  -28.56 input  -60.11 | X-H torsion
[ 7974 7965 7964 7962 ] final    6.28 input  175.53 | X-H torsion
[ 8008 7997 7996 7995 ] final -130.29 input   59.86 | X-H torsion
[ 10167 10162 10161 10158 ] final  156.18 input  -65.29 | X-H torsion
[ 10718 10713 10712 10709 ] final   92.02 input   66.30 | X-H torsion
[ 10763 10752 10751 10750 ] final   12.21 input  -60.55 | X-H torsion
[ 11005 11000 10999 10996 ] final  -57.32 input  -57.11 | X-H torsion

> <Gold.Protein.ActiveResidues>
 VAL166  LYS551  ARG553  GLY616  TRP617  ASP618  TYR619  PRO620  LYS621  CYS622 
 ASP623  PHE694  ASN695  SER759  ASP760  ASP761  ALA762  ILE779  LEU786  VAL792 
 PHE793  MET794  SER795  GLU796  ALA797  LYS798  CYS799  TRP800  GLU811  SER814 

> <Gold.Protein.RotatedAtoms>
  151.1313  135.0131  159.8583 H   0  0  0  0  0  0  0  0  0  0  0  0  # atno 6907 bound_to 6896
  152.5451  134.1607  159.8567 H   0  0  0  0  0  0  0  0  0  0  0  0  # atno 6908 bound_to 6896
  151.1674  133.4761  159.2627 H   0  0  0  0  0  0  0  0  0  0  0  0  # atno 6909 bound_to 6896
  146.2436  140.0257  142.8394 H   0  0  0  0  0  0  0  0  0  0  0  0  # atno 7974 bound_to 7965
  155.2933  140.0449  157.3024 H   0  0  0  0  0  0  0  0  0  0  0  0  # atno 8008 bound_to 7997
  154.5528  140.2322  155.8425 H   0  0  0  0  0  0  0  0  0  0  0  0  # atno 8009 bound_to 7997
  156.1982  140.3033  155.9478 H   0  0  0  0  0  0  0  0  0  0  0  0  # atno 8010 bound_to 7997
  139.4821  144.5032  151.8138 H   0  0  0  0  0  0  0  0  0  0  0  0  # atno 10167 bound_to 10162
  157.6959  131.0428  150.3817 H   0  0  0  0  0  0  0  0  0  0  0  0  # atno 10718 bound_to 10713
  153.1846  135.6833  153.8432 H   0  0  0  0  0  0  0  0  0  0  0  0  # atno 10763 bound_to 10752
  153.7753  135.3190  155.3359 H   0  0  0  0  0  0  0  0  0  0  0  0  # atno 10764 bound_to 10752
  154.8081  135.4735  154.0540 H   0  0  0  0  0  0  0  0  0  0  0  0  # atno 10765 bound_to 10752
  141.1159  133.6610  156.4751 H   0  0  0  0  0  0  0  0  0  0  0  0  # atno 11005 bound_to 11000
  145.1200  140.9457  143.4606 LP  0  0  0  0  0  0  0  0  0  0  0  0  # atno 17320 bound_to 7965
  145.0490  139.3197  143.5938 LP  0  0  0  0  0  0  0  0  0  0  0  0  # atno 17321 bound_to 7965
  140.4527  144.1833  150.5899 LP  0  0  0  0  0  0  0  0  0  0  0  0  # atno 17342 bound_to 10162
  140.4568  143.2464  151.9274 LP  0  0  0  0  0  0  0  0  0  0  0  0  # atno 17343 bound_to 10162
  156.4230  130.3957  149.6812 LP  0  0  0  0  0  0  0  0  0  0  0  0  # atno 17370 bound_to 10713
  156.4056  130.7696  151.2706 LP  0  0  0  0  0  0  0  0  0  0  0  0  # atno 17371 bound_to 10713
  140.4646  134.6809  157.5101 LP  0  0  0  0  0  0  0  0  0  0  0  0  # atno 17394 bound_to 11000
  140.0081  134.6732  155.9423 LP  0  0  0  0  0  0  0  0  0  0  0  0  # atno 17395 bound_to 11000

$$$$
