AV-unprocessed.smi:1951|AV-procd|sdf|7881|dock6
  -GOLD-   2272010 33D 1   1.00000     0.00000
 Structure written by MMmdl.
 46 47  0  0  0  0  0  0  0  0  2 V2000
  152.3033  138.5224  154.4820 C   0  0  0  0  0  0  0  0  0  0  0  0
  150.9354  138.2375  154.2096 O   0  0  0  0  0  0  0  0  0  0  0  0
  150.0017  139.2372  154.4052 C   0  0  0  0  0  0  0  0  0  0  0  0
  150.4421  140.4753  154.7427 N   0  0  0  0  0  0  0  0  0  0  0  0
  149.5310  141.4509  154.9363 C   0  0  0  0  0  0  0  0  0  0  0  0
  148.1445  141.2461  154.8125 C   0  0  0  0  0  0  0  0  0  0  0  0
  147.6851  139.9634  154.4612 C   0  0  0  0  0  0  0  0  0  0  0  0
  148.6304  138.9327  154.2392 C   0  0  0  0  0  0  0  0  0  0  0  0
  148.2720  137.5995  153.9000 N   0  0  0  0  0  0  0  0  0  0  0  0
  147.2562  136.8632  154.3804 C   0  0  0  0  0  0  0  0  0  0  0  0
  146.4426  137.2358  155.2257 O   0  0  0  0  0  0  0  0  0  0  0  0
  147.2134  135.6564  153.7984 N   0  0  0  0  0  0  0  0  0  0  0  0
  146.2093  134.6352  154.0727 C   0  0  0  0  0  0  0  0  0  0  0  0
  146.5168  133.3289  153.3155 C   0  0  0  0  0  0  0  0  0  0  0  0
  145.9784  133.3349  151.9321 N   0  3  2  0  0  0  0  0  0  0  0  0
  144.5853  133.8488  151.8761 C   0  0  0  0  0  0  0  0  0  0  0  0
  144.0928  133.9696  150.4243 C   0  0  0  0  0  0  0  0  0  0  0  0
  144.1924  132.6236  149.6879 C   0  0  1  0  0  0  0  0  0  0  0  0
  143.7283  132.7385  148.2292 C   0  0  0  0  0  0  0  0  0  0  0  0
  145.6344  132.0995  149.7888 C   0  0  0  0  0  0  0  0  0  0  0  0
  146.0989  132.0170  151.2529 C   0  0  0  0  0  0  0  0  0  0  0  0
  152.9038  137.6368  154.2752 H   0  0  0  0  0  0  0  0  0  0  0  0
  152.4552  138.7872  155.5294 H   0  0  0  0  0  0  0  0  0  0  0  0
  152.6767  139.3297  153.8503 H   0  0  0  0  0  0  0  0  0  0  0  0
  149.9186  142.4225  155.2045 H   0  0  0  0  0  0  0  0  0  0  0  0
  147.4494  142.0537  154.9879 H   0  0  0  0  0  0  0  0  0  0  0  0
  146.6226  139.7910  154.3838 H   0  0  0  0  0  0  0  0  0  0  0  0
  148.7999  137.1918  153.1420 H   0  0  0  0  0  0  0  0  0  0  0  0
  147.9212  135.4320  153.1138 H   0  0  0  0  0  0  0  0  0  0  0  0
  146.2006  134.4484  155.1468 H   0  0  0  0  0  0  0  0  0  0  0  0
  145.2237  135.0260  153.8185 H   0  0  0  0  0  0  0  0  0  0  0  0
  147.5896  133.1309  153.2878 H   0  0  0  0  0  0  0  0  0  0  0  0
  146.0683  132.5056  153.8738 H   0  0  0  0  0  0  0  0  0  0  0  0
  143.9288  133.1869  152.4436 H   0  0  0  0  0  0  0  0  0  0  0  0
  144.5341  134.8295  152.3502 H   0  0  0  0  0  0  0  0  0  0  0  0
  143.0615  134.3243  150.4160 H   0  0  0  0  0  0  0  0  0  0  0  0
  144.6830  134.7232  149.9011 H   0  0  0  0  0  0  0  0  0  0  0  0
  143.5356  131.9111  150.1894 H   0  0  0  0  0  0  0  0  0  0  0  0
  144.3500  133.4366  147.6679 H   0  0  0  0  0  0  0  0  0  0  0  0
  142.6980  133.0908  148.1725 H   0  0  0  0  0  0  0  0  0  0  0  0
  143.7736  131.7726  147.7254 H   0  0  0  0  0  0  0  0  0  0  0  0
  145.7062  131.1143  149.3262 H   0  0  0  0  0  0  0  0  0  0  0  0
  146.3069  132.7522  149.2300 H   0  0  0  0  0  0  0  0  0  0  0  0
  147.1319  131.6721  151.2739 H   0  0  0  0  0  0  0  0  0  0  0  0
  145.5086  131.2733  151.7910 H   0  0  0  0  0  0  0  0  0  0  0  0
  146.5404  133.9908  151.4087 H   0  0  0  0  0  0  0  0  0  0  0  0
  1  2  1  0  0  0  0
  1 22  1  0  0  0  0
  1 23  1  0  0  0  0
  1 24  1  0  0  0  0
  2  3  1  0  0  0  0
  3  8  1  0  0  0  0
  3  4  2  0  0  0  0
  4  5  1  0  0  0  0
  5  6  2  0  0  0  0
  5 25  1  0  0  0  0
  6  7  1  0  0  0  0
  6 26  1  0  0  0  0
  7  8  2  0  0  0  0
  7 27  1  0  0  0  0
  8  9  1  0  0  0  0
  9 10  1  0  0  0  0
  9 28  1  0  0  0  0
 10 11  2  0  0  0  0
 10 12  1  0  0  0  0
 12 13  1  0  0  0  0
 12 29  1  0  0  0  0
 13 14  1  0  0  0  0
 13 30  1  0  0  0  0
 13 31  1  0  0  0  0
 14 15  1  0  0  0  0
 14 32  1  0  0  0  0
 14 33  1  0  0  0  0
 15 21  1  0  0  0  0
 15 16  1  0  0  0  0
 15 46  1  0  0  0  0
 16 17  1  0  0  0  0
 16 34  1  0  0  0  0
 16 35  1  0  0  0  0
 17 18  1  0  0  0  0
 17 36  1  0  0  0  0
 17 37  1  0  0  0  0
 18 19  1  0  0  0  0
 18 20  1  0  0  0  0
 18 38  1  0  0  0  0
 19 39  1  0  0  0  0
 19 40  1  0  0  0  0
 19 41  1  0  0  0  0
 20 21  1  0  0  0  0
 20 42  1  0  0  0  0
 20 43  1  0  0  0  0
 21 44  1  0  0  0  0
 21 45  1  0  0  0  0
M  CHG  1  15   1
M  END
> <s_m_source_file>
AV-unprocessed.smi

> <i_m_source_file_index>
1951

> <i_lp_mmshare_version>
43012

> <i_f3d_flags>
0

> <s_epik_input>
W0NIM11PYzFuW2NIXVtjSF1bY0hdYzFbTkhdQyg9TylbTkhdW0NIMl1bQ0gyXU4yW0NIMl1bQ0gyXVtDSF0oW0NIM10pW0NIMl1bQ0gyXTI=

> <s_epik_cmdline>
J2VwaWtfcHl0aG9uJywgJy1waCcsICc3LjAnLCAnLXRuJywgJzgnLCAnLW1hJywgJzIwMCcsICctbWV0YWxfYmluZGluZycsICctaW1hZScsICc8aW5maWxlLm1hZT4nLCAnLW9tYWUnLCAnPG91dGZpbGUubWFlPic=

> <r_lp_tautomer_probability>
1

> <r_epik_Ionization_Penalty>
0.00147101

> <r_epik_Ionization_Penalty_Charging>
0.00139388

> <r_epik_Ionization_Penalty_Neutral>
7.71355e-05

> <r_epik_State_Penalty>
0.000929204

> <r_epik_Charging_Adjusted_Penalty>
0.00232308

> <i_epik_Tot_Q>
1

> <i_epik_Tot_abs_Q>
1

> <r_epik_Metal_State_Penalty>
-0

> <b_epik_Metal_Only>
0

> <s_lp_Force_Field>
OPLS_2005

> <r_lp_Energy>
18.8997

> <b_lp_Chiralities_Consistent>
1

> <s_lp_Variant>
AV-unprocessed.smi:1951-1

> <Gold.Version>
5.8.1

> <Gold.Id.Protein>
6NUR|6NUR_protein|mol2

> <Gold.PLP.Fitness>
47.8601

> <Gold.PLP.PLP>
-37.5118

> <Gold.PLP.part.hbond>
-3.0000

> <Gold.PLP.part.metal>
0.0000

> <Gold.PLP.part.buried>
-3.8542

> <Gold.PLP.part.nonpolar>
-30.3925

> <Gold.PLP.part.repulsive>
0.3525

> <Gold.PLP.ligand.clash>
0.0000

> <Gold.PLP.ligand.torsion>
0.5711

> <Gold.PLP.Chemscore.Hbond>
2.8240

> <Gold.PLP.Chemscore.CHOScore>
1.0000

> <Gold.PLP.Chemscore.Metal>
0.0000

> <Gold.Chemscore.Hbonds>
donor molecule, donor type, donor heavy atom, donor atom, acceptor molecule, acceptor atom, score
      L1  H     9    28       P1  7948  1.00
      L1  H    12    29       P1  7948  0.83
      P1  H  7989  7998       L1     4  1.00
      L1  C     5    25       P1  8028  0.94

> <Gold.PLP.Chemscore.Internal.Correction>
0.0186

> <Gold.Rescore>
     Score         DG    S(hbond)    S(metal)    S(lipo)     H(rot)  DE(clash)    DE(int)     intcor
     18.60     -20.20       2.36        0.00      96.03       1.71       0.08       1.53       ----

> <Gold.Chemscore.Fitness>
18.5967

> <Gold.Chemscore.DG>
-20.2027

> <Gold.Chemscore.ZeroCoef>
-5.4800

> <Gold.Chemscore.Hbond>
2.3552

> <Gold.Chemscore.Metal>
0.0000

> <Gold.Chemscore.Lipo>
96.0329

> <Gold.Chemscore.Internal_Hbond>
0.0000

> <Gold.Chemscore.DEClash>
0.0782

> <Gold.Chemscore.DEInternal>
1.5277

> <Gold.Chemscore.Rot>
1.7107

> <Gold.Chemscore.Internal.Correction>
   9.000000E+99

> <Gold.Chemscore.Hbonds>
donor molecule, donor type, donor heavy atom, donor atom, acceptor molecule, acceptor atom, score
      L1  H     9    28       P1  7948  0.96
      L1  H    12    29       P1  7948  0.83
      P1  H  7989  7998       L1     4  0.41

> <Gold.Chemscore.Hbond.Weighted>
-7.8662

> <Gold.Chemscore.Metal.Weighted>
-0.0000

> <Gold.Chemscore.Lipo.Weighted>
-11.2359

> <Gold.Chemscore.Internal_Hbond.Weighted>
0.0000

> <Gold.Chemscore.DEClash.Weighted>
0.0782

> <Gold.Chemscore.DEInternal.Weighted>
1.5277

> <Gold.Chemscore.Rot.Weighted>
4.3794

> <Gold.Chemscore.Internal.Correction.Weighted>
   9.000000E+99

> <Gold.Protein.RotatedTorsions>
[ 6907 6896 6895 6894 ] final -110.07 input  -60.11 | X-H torsion
[ 7974 7965 7964 7962 ] final  146.29 input  175.53 | X-H torsion
[ 8008 7997 7996 7995 ] final  173.89 input   59.86 | X-H torsion
[ 10167 10162 10161 10158 ] final   73.26 input  -65.29 | X-H torsion
[ 10718 10713 10712 10709 ] final -141.94 input   66.30 | X-H torsion
[ 10763 10752 10751 10750 ] final  -55.60 input  -60.55 | X-H torsion
[ 11005 11000 10999 10996 ] final  174.28 input  -57.11 | X-H torsion

> <Gold.Protein.ActiveResidues>
 VAL166  LYS551  ARG553  GLY616  TRP617  ASP618  TYR619  PRO620  LYS621  CYS622 
 ASP623  PHE694  ASN695  SER759  ASP760  ASP761  ALA762  ILE779  LEU786  VAL792 
 PHE793  MET794  SER795  GLU796  ALA797  LYS798  CYS799  TRP800  GLU811  SER814 

> <Gold.Protein.RotatedAtoms>
  150.7601  133.9436  159.3463 H   0  0  0  0  0  0  0  0  0  0  0  0  # atno 6907 bound_to 6896
  151.7347  135.0865  160.0315 H   0  0  0  0  0  0  0  0  0  0  0  0  # atno 6908 bound_to 6896
  152.3567  133.6208  159.6020 H   0  0  0  0  0  0  0  0  0  0  0  0  # atno 6909 bound_to 6896
  144.8683  139.5887  143.5898 H   0  0  0  0  0  0  0  0  0  0  0  0  # atno 7974 bound_to 7965
  156.1029  140.1448  156.9443 H   0  0  0  0  0  0  0  0  0  0  0  0  # atno 8008 bound_to 7997
  154.4714  140.0908  156.7200 H   0  0  0  0  0  0  0  0  0  0  0  0  # atno 8009 bound_to 7997
  155.4729  140.3442  155.4330 H   0  0  0  0  0  0  0  0  0  0  0  0  # atno 8010 bound_to 7997
  140.0264  144.5500  150.7541 H   0  0  0  0  0  0  0  0  0  0  0  0  # atno 10167 bound_to 10162
  156.3400  130.7632  151.1766 H   0  0  0  0  0  0  0  0  0  0  0  0  # atno 10718 bound_to 10713
  154.1934  135.6423  153.5066 H   0  0  0  0  0  0  0  0  0  0  0  0  # atno 10763 bound_to 10752
  153.0029  135.5434  154.6391 H   0  0  0  0  0  0  0  0  0  0  0  0  # atno 10764 bound_to 10752
  154.5786  135.2923  155.0729 H   0  0  0  0  0  0  0  0  0  0  0  0  # atno 10765 bound_to 10752
  140.3496  134.7207  157.4258 H   0  0  0  0  0  0  0  0  0  0  0  0  # atno 11005 bound_to 11000
  146.2912  139.7144  142.9160 LP  0  0  0  0  0  0  0  0  0  0  0  0  # atno 17320 bound_to 7965
  145.4179  141.0403  143.2980 LP  0  0  0  0  0  0  0  0  0  0  0  0  # atno 17321 bound_to 7965
  140.7320  143.2701  151.3916 LP  0  0  0  0  0  0  0  0  0  0  0  0  # atno 17342 bound_to 10162
  139.6105  144.1108  152.2293 LP  0  0  0  0  0  0  0  0  0  0  0  0  # atno 17343 bound_to 10162
  157.7445  131.0457  150.4857 LP  0  0  0  0  0  0  0  0  0  0  0  0  # atno 17370 bound_to 10713
  156.5036  130.4123  149.6339 LP  0  0  0  0  0  0  0  0  0  0  0  0  # atno 17371 bound_to 10713
  140.0714  134.5857  155.8638 LP  0  0  0  0  0  0  0  0  0  0  0  0  # atno 17394 bound_to 11000
  141.2016  133.6619  156.5959 LP  0  0  0  0  0  0  0  0  0  0  0  0  # atno 17395 bound_to 11000

$$$$
