AV-unprocessed.smi:601|AV-procd|sdf|3031|dock2
  -GOLD-   2262023543D 1   1.00000     0.00000
 Structure written by MMmdl.
 50 51  0  0  0  0  0  0  0  0  1 V2000
  147.9336  135.3749  160.3665 C   0  0  0  0  0  0  0  0  0  0  0  0
  148.6080  136.5960  159.7275 C   0  0  0  0  0  0  0  0  0  0  0  0
  148.8370  136.4556  158.2142 C   0  0  0  0  0  0  0  0  0  0  0  0
  149.8017  135.3118  157.8406 C   0  0  0  0  0  0  0  0  0  0  0  0
  150.1539  135.3066  156.4119 N   0  0  0  0  0  0  0  0  0  0  0  0
  150.8443  136.3380  155.8565 C   0  0  0  0  0  0  0  0  0  0  0  0
  151.1577  136.3405  154.6645 O   0  0  0  0  0  0  0  0  0  0  0  0
  151.2575  137.5415  156.7438 C   0  0  2  0  0  0  0  0  0  0  0  0
  150.5951  138.8756  156.3770 C   0  0  0  0  0  0  0  0  0  0  0  0
  151.4649  139.4322  155.2576 C   0  0  0  0  0  0  0  0  0  0  0  0
  152.7721  138.6412  155.3701 C   0  0  0  0  0  0  0  0  0  0  0  0
  152.6329  137.8515  156.5474 O   0  0  0  0  0  0  0  0  0  0  0  0
  149.8475  134.1392  155.6899 C   0  0  0  0  0  0  0  0  0  0  0  0
  149.1002  134.1696  154.5464 C   0  0  0  0  0  0  0  0  0  0  0  0
  148.6446  135.3763  154.0377 N   0  0  0  0  0  0  0  0  0  0  0  0
  148.7968  133.0033  153.8379 N   0  0  0  0  0  0  0  0  0  0  0  0
  148.0326  132.9896  152.6065 C   0  0  0  0  0  0  0  0  0  0  0  0
  146.5967  133.5060  152.7991 C   0  0  0  0  0  0  0  0  0  0  0  0
  145.8103  133.5470  151.4853 C   0  0  0  0  0  0  0  0  0  0  0  0
  149.2903  131.7531  154.2827 C   0  0  0  0  0  0  0  0  0  0  0  0
  149.1001  130.6940  153.6838 O   0  0  0  0  0  0  0  0  0  0  0  0
  150.0287  131.7456  155.4610 N   0  0  0  0  0  0  0  0  0  0  0  0
  150.3453  132.8654  156.2253 C   0  0  0  0  0  0  0  0  0  0  0  0
  151.0023  132.7293  157.2566 O   0  0  0  0  0  0  0  0  0  0  0  0
  150.3701  130.8527  155.7859 H   0  0  0  0  0  0  0  0  0  0  0  0
  147.7265  135.5579  161.4211 H   0  0  0  0  0  0  0  0  0  0  0  0
  148.5660  134.4893  160.3063 H   0  0  0  0  0  0  0  0  0  0  0  0
  146.9865  135.1470  159.8771 H   0  0  0  0  0  0  0  0  0  0  0  0
  147.9797  137.4695  159.9045 H   0  0  0  0  0  0  0  0  0  0  0  0
  149.5548  136.7997  160.2287 H   0  0  0  0  0  0  0  0  0  0  0  0
  147.8763  136.3134  157.7208 H   0  0  0  0  0  0  0  0  0  0  0  0
  149.2307  137.4010  157.8403 H   0  0  0  0  0  0  0  0  0  0  0  0
  150.7104  135.3764  158.4415 H   0  0  0  0  0  0  0  0  0  0  0  0
  149.3498  134.3545  158.1031 H   0  0  0  0  0  0  0  0  0  0  0  0
  151.0656  137.3041  157.7901 H   0  0  0  0  0  0  0  0  0  0  0  0
  149.5456  138.7869  156.0937 H   0  0  0  0  0  0  0  0  0  0  0  0
  150.6383  139.5437  157.2378 H   0  0  0  0  0  0  0  0  0  0  0  0
  151.0044  139.2678  154.2826 H   0  0  0  0  0  0  0  0  0  0  0  0
  151.6237  140.5044  155.3766 H   0  0  0  0  0  0  0  0  0  0  0  0
  152.9047  137.9892  154.5056 H   0  0  0  0  0  0  0  0  0  0  0  0
  153.6463  139.2885  155.4422 H   0  0  0  0  0  0  0  0  0  0  0  0
  148.8514  136.2530  154.4946 H   0  0  0  0  0  0  0  0  0  0  0  0
  148.2221  135.4391  153.1227 H   0  0  0  0  0  0  0  0  0  0  0  0
  148.5806  133.5644  151.8579 H   0  0  0  0  0  0  0  0  0  0  0  0
  148.0434  131.9647  152.2362 H   0  0  0  0  0  0  0  0  0  0  0  0
  146.0709  132.8705  153.5129 H   0  0  0  0  0  0  0  0  0  0  0  0
  146.6173  134.5056  153.2348 H   0  0  0  0  0  0  0  0  0  0  0  0
  144.7953  133.9080  151.6517 H   0  0  0  0  0  0  0  0  0  0  0  0
  145.7419  132.5559  151.0361 H   0  0  0  0  0  0  0  0  0  0  0  0
  146.2862  134.2110  150.7631 H   0  0  0  0  0  0  0  0  0  0  0  0
  1  2  1  0  0  0  0
  1 26  1  0  0  0  0
  1 27  1  0  0  0  0
  1 28  1  0  0  0  0
  2  3  1  0  0  0  0
  2 29  1  0  0  0  0
  2 30  1  0  0  0  0
  3  4  1  0  0  0  0
  3 31  1  0  0  0  0
  3 32  1  0  0  0  0
  4  5  1  0  0  0  0
  4 33  1  0  0  0  0
  4 34  1  0  0  0  0
  5  6  1  0  0  0  0
  5 13  1  0  0  0  0
  6  7  2  0  0  0  0
  6  8  1  0  0  0  0
  8 12  1  0  0  0  0
  8  9  1  0  0  0  0
  8 35  1  0  0  0  0
  9 10  1  0  0  0  0
  9 36  1  0  0  0  0
  9 37  1  0  0  0  0
 10 11  1  0  0  0  0
 10 38  1  0  0  0  0
 10 39  1  0  0  0  0
 11 12  1  0  0  0  0
 11 40  1  0  0  0  0
 11 41  1  0  0  0  0
 13 23  1  0  0  0  0
 13 14  2  0  0  0  0
 14 15  1  0  0  0  0
 14 16  1  0  0  0  0
 15 42  1  0  0  0  0
 15 43  1  0  0  0  0
 16 17  1  0  0  0  0
 16 20  1  0  0  0  0
 17 18  1  0  0  0  0
 17 44  1  0  0  0  0
 17 45  1  0  0  0  0
 18 19  1  0  0  0  0
 18 46  1  0  0  0  0
 18 47  1  0  0  0  0
 19 48  1  0  0  0  0
 19 49  1  0  0  0  0
 19 50  1  0  0  0  0
 20 21  2  0  0  0  0
 20 22  1  0  0  0  0
 22 25  1  0  0  0  0
 22 23  1  0  0  0  0
 23 24  2  0  0  0  0
M  END
> <s_m_source_file>
AV-unprocessed.smi

> <i_m_source_file_index>
601

> <i_lp_mmshare_version>
43012

> <i_f3d_flags>
0

> <s_epik_input>
TzFbQ0gyXVtDSDJdW0NIMl1bQ0BIXTFDKD1PKU4oW0NIMl1bQ0gyXVtDSDJdW0NIM10pYzJjKFtOSDJdKW4oW0NIMl1bQ0gyXVtDSDNdKWMoPU8pW25IXWMyPU8=

> <s_epik_cmdline>
J2VwaWtfcHl0aG9uJywgJy1waCcsICc3LjAnLCAnLXRuJywgJzgnLCAnLW1hJywgJzIwMCcsICctbWV0YWxfYmluZGluZycsICctaW1hZScsICc8aW5maWxlLm1hZT4nLCAnLW9tYWUnLCAnPG91dGZpbGUubWFlPic=

> <r_lp_tautomer_probability>
1

> <r_epik_Ionization_Penalty>
6.19718e-05

> <r_epik_Ionization_Penalty_Charging>
2.78773e-05

> <r_epik_Ionization_Penalty_Neutral>
3.40944e-05

> <r_epik_State_Penalty>
-0

> <r_epik_Charging_Adjusted_Penalty>
2.78773e-05

> <i_epik_Tot_Q>
0

> <i_epik_Tot_abs_Q>
0

> <r_epik_Metal_State_Penalty>
0.0271358

> <b_epik_Metal_Only>
0

> <s_lp_Force_Field>
OPLS_2005

> <r_lp_Energy>
42.1273

> <b_lp_Chiralities_Consistent>
1

> <s_lp_Variant>
AV-unprocessed.smi:601-1

> <Gold.Version>
5.8.1

> <Gold.Id.Protein>
6NUR|6NUR_protein|mol2

> <Gold.PLP.Fitness>
40.5028

> <Gold.PLP.PLP>
-33.2722

> <Gold.PLP.part.hbond>
-2.4963

> <Gold.PLP.part.metal>
0.0000

> <Gold.PLP.part.buried>
-1.7981

> <Gold.PLP.part.nonpolar>
-29.3826

> <Gold.PLP.part.repulsive>
0.2664

> <Gold.PLP.ligand.clash>
0.0000

> <Gold.PLP.ligand.torsion>
1.2346

> <Gold.PLP.Chemscore.Hbond>
2.4800

> <Gold.PLP.Chemscore.CHOScore>
0.0000

> <Gold.PLP.Chemscore.Metal>
0.0000

> <Gold.Chemscore.Hbonds>
donor molecule, donor type, donor heavy atom, donor atom, acceptor molecule, acceptor atom, score
      L1  H    15    43       P1  7948  0.45
      P1  H  6896  6908       L1    24  0.88
      P1  H 10752 10765       L1     7  1.00

> <Gold.PLP.Chemscore.Internal.Correction>
2.2599

> <Gold.Rescore>
     Score         DG    S(hbond)    S(metal)    S(lipo)     H(rot)  DE(clash)    DE(int)     intcor
     11.32     -14.99       2.34        0.00      57.49       1.96       0.11       3.56       ----

> <Gold.Chemscore.Fitness>
11.3222

> <Gold.Chemscore.DG>
-14.9924

> <Gold.Chemscore.ZeroCoef>
-5.4800

> <Gold.Chemscore.Hbond>
2.3368

> <Gold.Chemscore.Metal>
0.0000

> <Gold.Chemscore.Lipo>
57.4862

> <Gold.Chemscore.Internal_Hbond>
0.0000

> <Gold.Chemscore.DEClash>
0.1087

> <Gold.Chemscore.DEInternal>
3.5615

> <Gold.Chemscore.Rot>
1.9603

> <Gold.Chemscore.Internal.Correction>
   9.000000E+99

> <Gold.Chemscore.Hbonds>
donor molecule, donor type, donor heavy atom, donor atom, acceptor molecule, acceptor atom, score
      L1  H    15    43       P1  7948  0.44
      P1  H  6896  6908       L1    24  0.83
      P1  H 10752 10765       L1     7  0.88

> <Gold.Chemscore.Hbond.Weighted>
-7.8050

> <Gold.Chemscore.Metal.Weighted>
-0.0000

> <Gold.Chemscore.Lipo.Weighted>
-6.7259

> <Gold.Chemscore.Internal_Hbond.Weighted>
0.0000

> <Gold.Chemscore.DEClash.Weighted>
0.1087

> <Gold.Chemscore.DEInternal.Weighted>
3.5615

> <Gold.Chemscore.Rot.Weighted>
5.0185

> <Gold.Chemscore.Internal.Correction.Weighted>
   9.000000E+99

> <Gold.Protein.RotatedTorsions>
[ 6907 6896 6895 6894 ] final   78.81 input  -60.11 | X-H torsion
[ 7974 7965 7964 7962 ] final -152.21 input  175.53 | X-H torsion
[ 8008 7997 7996 7995 ] final -153.15 input   59.86 | X-H torsion
[ 10167 10162 10161 10158 ] final   68.78 input  -65.29 | X-H torsion
[ 10718 10713 10712 10709 ] final  144.80 input   66.30 | X-H torsion
[ 10763 10752 10751 10750 ] final  163.59 input  -60.55 | X-H torsion
[ 11005 11000 10999 10996 ] final  -89.94 input  -57.11 | X-H torsion

> <Gold.Protein.ActiveResidues>
 VAL166  LYS551  ARG553  GLY616  TRP617  ASP618  TYR619  PRO620  LYS621  CYS622 
 ASP623  PHE694  ASN695  SER759  ASP760  ASP761  ALA762  ILE779  LEU786  VAL792 
 PHE793  MET794  SER795  GLU796  ALA797  LYS798  CYS799  TRP800  GLU811  SER814 

> <Gold.Protein.RotatedAtoms>
  152.5174  134.3606  159.9283 H   0  0  0  0  0  0  0  0  0  0  0  0  # atno 6907 bound_to 6896
  151.3559  133.3901  159.2692 H   0  0  0  0  0  0  0  0  0  0  0  0  # atno 6908 bound_to 6896
  150.9690  134.9085  159.7835 H   0  0  0  0  0  0  0  0  0  0  0  0  # atno 6909 bound_to 6896
  144.7806  140.4692  143.5842 H   0  0  0  0  0  0  0  0  0  0  0  0  # atno 7974 bound_to 7965
  155.6664  140.0728  157.2536 H   0  0  0  0  0  0  0  0  0  0  0  0  # atno 8008 bound_to 7997
  154.4132  140.1707  156.1882 H   0  0  0  0  0  0  0  0  0  0  0  0  # atno 8009 bound_to 7997
  155.9654  140.3366  155.6531 H   0  0  0  0  0  0  0  0  0  0  0  0  # atno 8010 bound_to 7997
  140.0749  144.5121  150.7201 H   0  0  0  0  0  0  0  0  0  0  0  0  # atno 10167 bound_to 10162
  157.3528  131.0953  151.0984 H   0  0  0  0  0  0  0  0  0  0  0  0  # atno 10718 bound_to 10713
  154.2960  135.2760  155.2633 H   0  0  0  0  0  0  0  0  0  0  0  0  # atno 10763 bound_to 10752
  154.5091  135.5787  153.6594 H   0  0  0  0  0  0  0  0  0  0  0  0  # atno 10764 bound_to 10752
  152.9907  135.6176  154.3127 H   0  0  0  0  0  0  0  0  0  0  0  0  # atno 10765 bound_to 10752
  141.1575  133.7661  156.9667 H   0  0  0  0  0  0  0  0  0  0  0  0  # atno 11005 bound_to 11000
  145.6060  139.1508  143.3102 LP  0  0  0  0  0  0  0  0  0  0  0  0  # atno 17320 bound_to 7965
  146.2012  140.6179  142.9101 LP  0  0  0  0  0  0  0  0  0  0  0  0  # atno 17321 bound_to 7965
  140.7107  143.2503  151.4590 LP  0  0  0  0  0  0  0  0  0  0  0  0  # atno 17342 bound_to 10162
  139.5814  144.1702  152.1972 LP  0  0  0  0  0  0  0  0  0  0  0  0  # atno 17343 bound_to 10162
  157.2154  130.6457  149.5790 LP  0  0  0  0  0  0  0  0  0  0  0  0  # atno 17370 bound_to 10713
  155.9724  130.4646  150.6225 LP  0  0  0  0  0  0  0  0  0  0  0  0  # atno 17371 bound_to 10713
  140.1156  134.9449  157.2130 LP  0  0  0  0  0  0  0  0  0  0  0  0  # atno 17394 bound_to 11000
  140.3137  134.2995  155.7261 LP  0  0  0  0  0  0  0  0  0  0  0  0  # atno 17395 bound_to 11000

$$$$
