AV-unprocessed.smi:2445|AV-procd|sdf|9638|dock8
  -GOLD-   2272013273D 1   1.00000     0.00000
 Structure written by MMmdl.
 40 41  0  0  0  0  0  0  0  0  1 V2000
  151.7927  141.7775  158.6311 C   0  0  0  0  0  0  0  0  0  0  0  0
  151.3077  141.1538  157.3666 C   0  0  0  0  0  0  0  0  0  0  0  0
  150.9155  141.7876  156.2138 C   0  0  0  0  0  0  0  0  0  0  0  0
  150.5138  140.9164  155.1993 N   0  0  0  0  0  0  0  0  0  0  0  0
  150.5947  139.6337  155.5633 C   0  0  0  0  0  0  0  0  0  0  0  0
  150.1999  138.4958  154.6698 C   0  0  1  0  0  0  0  0  0  0  0  0
  151.3553  137.5075  154.4558 C   0  0  0  0  0  0  0  0  0  0  0  0
  148.9052  137.7917  155.1335 C   0  0  0  0  0  0  0  0  0  0  0  0
  148.3824  136.8568  154.1409 N   0  0  0  0  0  0  0  0  0  0  0  0
  147.2139  136.2091  154.2384 C   0  0  0  0  0  0  0  0  0  0  0  0
  146.4166  136.3607  155.1640 O   0  0  0  0  0  0  0  0  0  0  0  0
  147.0250  135.3708  153.2101 N   0  0  0  0  0  0  0  0  0  0  0  0
  145.8734  134.4842  153.0419 C   0  0  2  0  0  0  0  0  0  0  0  0
  146.3150  133.0219  153.0692 C   0  0  0  0  0  0  0  0  0  0  0  0
  145.6263  132.4040  151.8575 C   0  0  0  0  0  0  0  0  0  0  0  0
  145.5604  133.4812  150.9402 O   0  0  0  0  0  0  0  0  0  0  0  0
  145.1661  134.6317  151.6739 C   0  0  2  0  0  0  0  0  0  0  0  0
  145.4524  135.9017  150.8569 C   0  0  0  0  0  0  0  0  0  0  0  0
  151.1794  139.4215  157.2116 S   0  0  0  0  0  0  0  0  0  0  0  0
  151.8392  142.8630  158.5418 H   0  0  0  0  0  0  0  0  0  0  0  0
  152.7909  141.4178  158.8811 H   0  0  0  0  0  0  0  0  0  0  0  0
  151.1286  141.5365  159.4614 H   0  0  0  0  0  0  0  0  0  0  0  0
  150.8910  142.8515  156.0286 H   0  0  0  0  0  0  0  0  0  0  0  0
  149.9896  138.9294  153.6906 H   0  0  0  0  0  0  0  0  0  0  0  0
  152.2324  138.0118  154.0492 H   0  0  0  0  0  0  0  0  0  0  0  0
  151.0730  136.7215  153.7547 H   0  0  0  0  0  0  0  0  0  0  0  0
  151.6491  137.0284  155.3900 H   0  0  0  0  0  0  0  0  0  0  0  0
  149.0667  137.2782  156.0826 H   0  0  0  0  0  0  0  0  0  0  0  0
  148.1290  138.5354  155.3156 H   0  0  0  0  0  0  0  0  0  0  0  0
  148.9677  136.6666  153.3405 H   0  0  0  0  0  0  0  0  0  0  0  0
  147.7385  135.3251  152.4976 H   0  0  0  0  0  0  0  0  0  0  0  0
  145.1472  134.6557  153.8389 H   0  0  0  0  0  0  0  0  0  0  0  0
  147.3961  132.9379  152.9466 H   0  0  0  0  0  0  0  0  0  0  0  0
  146.0485  132.5179  153.9987 H   0  0  0  0  0  0  0  0  0  0  0  0
  146.1739  131.5554  151.4475 H   0  0  0  0  0  0  0  0  0  0  0  0
  144.6167  132.0743  152.1084 H   0  0  0  0  0  0  0  0  0  0  0  0
  144.0889  134.5591  151.8349 H   0  0  0  0  0  0  0  0  0  0  0  0
  145.1584  136.7961  151.4064 H   0  0  0  0  0  0  0  0  0  0  0  0
  144.8929  135.8914  149.9215 H   0  0  0  0  0  0  0  0  0  0  0  0
  146.5095  135.9898  150.6047 H   0  0  0  0  0  0  0  0  0  0  0  0
  1  2  1  0  0  0  0
  1 20  1  0  0  0  0
  1 21  1  0  0  0  0
  1 22  1  0  0  0  0
  2 19  1  0  0  0  0
  2  3  2  0  0  0  0
  3  4  1  0  0  0  0
  3 23  1  0  0  0  0
  4  5  2  0  0  0  0
  5  6  1  0  0  0  0
  5 19  1  0  0  0  0
  6  7  1  0  0  0  0
  6  8  1  0  0  0  0
  6 24  1  0  0  0  0
  7 25  1  0  0  0  0
  7 26  1  0  0  0  0
  7 27  1  0  0  0  0
  8  9  1  0  0  0  0
  8 28  1  0  0  0  0
  8 29  1  0  0  0  0
  9 10  1  0  0  0  0
  9 30  1  0  0  0  0
 10 11  2  0  0  0  0
 10 12  1  0  0  0  0
 12 13  1  0  0  0  0
 12 31  1  0  0  0  0
 13 17  1  0  0  0  0
 13 14  1  0  0  0  0
 13 32  1  0  0  0  0
 14 15  1  0  0  0  0
 14 33  1  0  0  0  0
 14 34  1  0  0  0  0
 15 16  1  0  0  0  0
 15 35  1  0  0  0  0
 15 36  1  0  0  0  0
 16 17  1  0  0  0  0
 17 18  1  0  0  0  0
 17 37  1  0  0  0  0
 18 38  1  0  0  0  0
 18 39  1  0  0  0  0
 18 40  1  0  0  0  0
M  END
> <s_m_source_file>
AV-unprocessed.smi

> <i_m_source_file_index>
2445

> <i_lp_mmshare_version>
43012

> <i_f3d_flags>
0

> <s_epik_input>
W0NIM11jMVtjSF1uYyhzMSlbQ0BIXShbQ0gzXSlbQ0gyXVtOSF1DKD1PKVtOSF1bQ0BASF0yW0NIMl1bQ0gyXU9bQ0BIXTJbQ0gzXQ==

> <s_epik_cmdline>
J2VwaWtfcHl0aG9uJywgJy1waCcsICc3LjAnLCAnLXRuJywgJzgnLCAnLW1hJywgJzIwMCcsICctbWV0YWxfYmluZGluZycsICctaW1hZScsICc8aW5maWxlLm1hZT4nLCAnLW9tYWUnLCAnPG91dGZpbGUubWFlPic=

> <r_epik_Ionization_Penalty>
0.000649483

> <r_epik_Ionization_Penalty_Charging>
0

> <r_epik_Ionization_Penalty_Neutral>
0.000649483

> <r_epik_State_Penalty>
0.000379895

> <r_epik_Charging_Adjusted_Penalty>
0.000379895

> <i_epik_Tot_Q>
0

> <i_epik_Tot_abs_Q>
0

> <r_epik_Metal_State_Penalty>
-0

> <b_epik_Metal_Only>
0

> <s_lp_Force_Field>
OPLS_2005

> <r_lp_Energy>
6.13351

> <b_lp_Chiralities_Consistent>
1

> <s_lp_Variant>
AV-unprocessed.smi:2445-6

> <Gold.Version>
5.8.1

> <Gold.Id.Protein>
6NUR|6NUR_protein|mol2

> <Gold.PLP.Fitness>
37.4618

> <Gold.PLP.PLP>
-27.5524

> <Gold.PLP.part.hbond>
-2.5541

> <Gold.PLP.part.metal>
0.0000

> <Gold.PLP.part.buried>
-2.9856

> <Gold.PLP.part.nonpolar>
-22.0972

> <Gold.PLP.part.repulsive>
0.2735

> <Gold.PLP.ligand.clash>
0.0000

> <Gold.PLP.ligand.torsion>
0.1805

> <Gold.PLP.Chemscore.Hbond>
2.3944

> <Gold.PLP.Chemscore.CHOScore>
1.0000

> <Gold.PLP.Chemscore.Metal>
0.0000

> <Gold.Chemscore.Hbonds>
donor molecule, donor type, donor heavy atom, donor atom, acceptor molecule, acceptor atom, score
      L1  H     9    30       P1  7948  0.90
      L1  H    12    31       P1  7948  0.85
      P1  H  7989  7998       L1     4  0.77
      L1  C     3    23       P1  8028  0.43

> <Gold.PLP.Chemscore.Internal.Correction>
0.0873

> <Gold.Rescore>
     Score         DG    S(hbond)    S(metal)    S(lipo)     H(rot)  DE(clash)    DE(int)     intcor
     17.61     -17.80       2.47        0.00      68.28       1.53       0.07       0.12       ----

> <Gold.Chemscore.Fitness>
17.6120

> <Gold.Chemscore.DG>
-17.8032

> <Gold.Chemscore.ZeroCoef>
-5.4800

> <Gold.Chemscore.Hbond>
2.4724

> <Gold.Chemscore.Metal>
0.0000

> <Gold.Chemscore.Lipo>
68.2806

> <Gold.Chemscore.Internal_Hbond>
0.0000

> <Gold.Chemscore.DEClash>
0.0676

> <Gold.Chemscore.DEInternal>
0.1237

> <Gold.Chemscore.Rot>
1.5325

> <Gold.Chemscore.Internal.Correction>
   9.000000E+99

> <Gold.Chemscore.Hbonds>
donor molecule, donor type, donor heavy atom, donor atom, acceptor molecule, acceptor atom, score
      L1  H     9    30       P1  7948  0.81
      L1  H    12    31       P1  7948  0.82
      P1  H  7989  7998       L1     4  0.20

> <Gold.Chemscore.Hbond.Weighted>
-8.2577

> <Gold.Chemscore.Metal.Weighted>
-0.0000

> <Gold.Chemscore.Lipo.Weighted>
-7.9888

> <Gold.Chemscore.Internal_Hbond.Weighted>
0.0000

> <Gold.Chemscore.DEClash.Weighted>
0.0676

> <Gold.Chemscore.DEInternal.Weighted>
0.1237

> <Gold.Chemscore.Rot.Weighted>
3.9233

> <Gold.Chemscore.Internal.Correction.Weighted>
   9.000000E+99

> <Gold.Protein.RotatedTorsions>
[ 6907 6896 6895 6894 ] final  161.60 input  -60.11 | X-H torsion
[ 7974 7965 7964 7962 ] final -162.11 input  175.53 | X-H torsion
[ 8008 7997 7996 7995 ] final   67.82 input   59.86 | X-H torsion
[ 10167 10162 10161 10158 ] final  -59.40 input  -65.29 | X-H torsion
[ 10718 10713 10712 10709 ] final   29.60 input   66.30 | X-H torsion
[ 10763 10752 10751 10750 ] final    5.82 input  -60.55 | X-H torsion
[ 11005 11000 10999 10996 ] final -154.31 input  -57.11 | X-H torsion

> <Gold.Protein.ActiveResidues>
 VAL166  LYS551  ARG553  GLY616  TRP617  ASP618  TYR619  PRO620  LYS621  CYS622 
 ASP623  PHE694  ASN695  SER759  ASP760  ASP761  ALA762  ILE779  LEU786  VAL792 
 PHE793  MET794  SER795  GLU796  ALA797  LYS798  CYS799  TRP800  GLU811  SER814 

> <Gold.Protein.RotatedAtoms>
  151.9531  133.3672  159.4007 H   0  0  0  0  0  0  0  0  0  0  0  0  # atno 6907 bound_to 6896
  150.6977  134.4319  159.5262 H   0  0  0  0  0  0  0  0  0  0  0  0  # atno 6908 bound_to 6896
  152.1996  134.8600  160.0560 H   0  0  0  0  0  0  0  0  0  0  0  0  # atno 6909 bound_to 6896
  144.7368  140.3300  143.6155 H   0  0  0  0  0  0  0  0  0  0  0  0  # atno 7974 bound_to 7965
  155.6988  140.3495  155.4924 H   0  0  0  0  0  0  0  0  0  0  0  0  # atno 8008 bound_to 7997
  155.9459  140.1110  157.1039 H   0  0  0  0  0  0  0  0  0  0  0  0  # atno 8009 bound_to 7997
  154.4112  140.1203  156.4975 H   0  0  0  0  0  0  0  0  0  0  0  0  # atno 8010 bound_to 7997
  140.6137  143.2395  151.5647 H   0  0  0  0  0  0  0  0  0  0  0  0  # atno 10167 bound_to 10162
  157.2487  130.7104  149.6394 H   0  0  0  0  0  0  0  0  0  0  0  0  # atno 10718 bound_to 10713
  153.2549  135.6917  153.7640 H   0  0  0  0  0  0  0  0  0  0  0  0  # atno 10763 bound_to 10752
  153.6721  135.3342  155.3157 H   0  0  0  0  0  0  0  0  0  0  0  0  # atno 10764 bound_to 10752
  154.8408  135.4502  154.1519 H   0  0  0  0  0  0  0  0  0  0  0  0  # atno 10765 bound_to 10752
  140.6988  134.3961  157.5212 H   0  0  0  0  0  0  0  0  0  0  0  0  # atno 11005 bound_to 11000
  145.7481  139.1785  143.2337 LP  0  0  0  0  0  0  0  0  0  0  0  0  # atno 17320 bound_to 7965
  146.1082  140.7461  142.9516 LP  0  0  0  0  0  0  0  0  0  0  0  0  # atno 17321 bound_to 7965
  139.5382  144.2722  152.1295 LP  0  0  0  0  0  0  0  0  0  0  0  0  # atno 17342 bound_to 10162
  140.1927  144.4736  150.6471 LP  0  0  0  0  0  0  0  0  0  0  0  0  # atno 17343 bound_to 10162
  155.9667  130.4434  150.5422 LP  0  0  0  0  0  0  0  0  0  0  0  0  # atno 17370 bound_to 10713
  157.3301  131.0698  151.1867 LP  0  0  0  0  0  0  0  0  0  0  0  0  # atno 17371 bound_to 10713
  139.8903  134.8809  156.2379 LP  0  0  0  0  0  0  0  0  0  0  0  0  # atno 17394 bound_to 11000
  141.0181  133.7057  156.1222 LP  0  0  0  0  0  0  0  0  0  0  0  0  # atno 17395 bound_to 11000

$$$$
