AV-unprocessed.smi:1411|AV-procd|sdf|5739|dock5
  -GOLD-   22720 5373D 1   1.00000     0.00000
 Structure written by MMmdl.
 43 44  0  0  0  0  0  0  0  0  3 V2000
  153.7891  139.5759  158.5730 O   0  0  0  0  0  0  0  0  0  0  0  0
  152.5764  139.7362  158.7190 C   0  0  0  0  0  0  0  0  0  0  0  0
  151.5816  138.6227  158.3611 C   0  0  0  0  0  0  0  0  0  0  0  0
  151.0655  138.7214  156.9856 N   0  0  0  0  0  0  0  0  0  0  0  0
  150.1839  139.7865  156.7154 C   0  0  0  0  0  0  0  0  0  0  0  0
  149.6521  139.9841  155.4933 C   0  0  0  0  0  0  0  0  0  0  0  0
  148.7520  141.0863  155.2336 N   0  3  0  0  0  0  0  0  0  0  0  0
  148.2183  141.6468  156.1856 O   0  0  0  0  0  0  0  0  0  0  0  0
  148.5490  141.4285  154.0725 O   0  5  0  0  0  0  0  0  0  0  0  0
  150.0161  139.0542  154.4419 C   0  0  0  0  0  0  0  0  0  0  0  0
  150.8629  138.0362  154.6925 C   0  0  0  0  0  0  0  0  0  0  0  0
  151.4439  137.8259  156.0226 C   0  0  0  0  0  0  0  0  0  0  0  0
  152.2234  136.9020  156.2556 O   0  0  0  0  0  0  0  0  0  0  0  0
  152.0376  140.8688  159.1960 N   0  0  0  0  0  0  0  0  0  0  0  0
  152.7775  142.0638  159.5970 C   0  0  0  0  0  0  0  0  0  0  0  0
  152.4904  142.3552  161.0863 C   0  0  0  0  0  0  0  0  0  0  0  0
  153.0039  143.7104  161.6131 C   0  0  0  0  0  0  0  0  0  0  0  0
  151.9134  144.7901  161.7705 C   0  0  0  0  0  0  0  0  0  0  0  0
  151.3035  145.3606  160.4734 C   0  0  0  0  0  0  0  0  0  0  0  0
  150.4188  144.3723  159.6860 C   0  0  0  0  0  0  0  0  0  0  0  0
  151.0799  143.7299  158.4510 C   0  0  0  0  0  0  0  0  0  0  0  0
  152.5302  143.2346  158.6154 C   0  0  0  0  0  0  0  0  0  0  0  0
  152.0635  137.6583  158.5301 H   0  0  0  0  0  0  0  0  0  0  0  0
  150.7507  138.6502  159.0682 H   0  0  0  0  0  0  0  0  0  0  0  0
  149.9818  140.4251  157.5635 H   0  0  0  0  0  0  0  0  0  0  0  0
  149.6139  139.1680  153.4459 H   0  0  0  0  0  0  0  0  0  0  0  0
  151.1215  137.3565  153.8938 H   0  0  0  0  0  0  0  0  0  0  0  0
  151.0327  140.9097  159.2861 H   0  0  0  0  0  0  0  0  0  0  0  0
  153.8423  141.8315  159.5352 H   0  0  0  0  0  0  0  0  0  0  0  0
  151.4310  142.2411  161.3131 H   0  0  0  0  0  0  0  0  0  0  0  0
  152.9724  141.5657  161.6648 H   0  0  0  0  0  0  0  0  0  0  0  0
  153.4211  143.5376  162.6058 H   0  0  0  0  0  0  0  0  0  0  0  0
  153.8408  144.0792  161.0203 H   0  0  0  0  0  0  0  0  0  0  0  0
  151.1158  144.4101  162.4102 H   0  0  0  0  0  0  0  0  0  0  0  0
  152.3515  145.6227  162.3222 H   0  0  0  0  0  0  0  0  0  0  0  0
  150.6724  146.2007  160.7659 H   0  0  0  0  0  0  0  0  0  0  0  0
  152.0733  145.7995  159.8387 H   0  0  0  0  0  0  0  0  0  0  0  0
  150.0154  143.6082  160.3483 H   0  0  0  0  0  0  0  0  0  0  0  0
  149.5389  144.9107  159.3319 H   0  0  0  0  0  0  0  0  0  0  0  0
  150.4492  142.9180  158.0879 H   0  0  0  0  0  0  0  0  0  0  0  0
  151.0817  144.4725  157.6523 H   0  0  0  0  0  0  0  0  0  0  0  0
  153.1824  144.0708  158.8605 H   0  0  0  0  0  0  0  0  0  0  0  0
  152.8756  142.9216  157.6293 H   0  0  0  0  0  0  0  0  0  0  0  0
  1  2  2  0  0  0  0
  2  3  1  0  0  0  0
  2 14  1  0  0  0  0
  3  4  1  0  0  0  0
  3 23  1  0  0  0  0
  3 24  1  0  0  0  0
  4 12  1  0  0  0  0
  4  5  1  0  0  0  0
  5  6  2  0  0  0  0
  5 25  1  0  0  0  0
  6  7  1  0  0  0  0
  6 10  1  0  0  0  0
  7  8  2  0  0  0  0
  7  9  1  0  0  0  0
 10 11  2  0  0  0  0
 10 26  1  0  0  0  0
 11 12  1  0  0  0  0
 11 27  1  0  0  0  0
 12 13  2  0  0  0  0
 14 15  1  0  0  0  0
 14 28  1  0  0  0  0
 15 22  1  0  0  0  0
 15 16  1  0  0  0  0
 15 29  1  0  0  0  0
 16 17  1  0  0  0  0
 16 30  1  0  0  0  0
 16 31  1  0  0  0  0
 17 18  1  0  0  0  0
 17 32  1  0  0  0  0
 17 33  1  0  0  0  0
 18 19  1  0  0  0  0
 18 34  1  0  0  0  0
 18 35  1  0  0  0  0
 19 20  1  0  0  0  0
 19 36  1  0  0  0  0
 19 37  1  0  0  0  0
 20 21  1  0  0  0  0
 20 38  1  0  0  0  0
 20 39  1  0  0  0  0
 21 22  1  0  0  0  0
 21 40  1  0  0  0  0
 21 41  1  0  0  0  0
 22 42  1  0  0  0  0
 22 43  1  0  0  0  0
M  CHG  1   7   1
M  CHG  1   9  -1
M  END
> <s_m_source_file>
AV-unprocessed.smi

> <i_m_source_file_index>
1411

> <i_lp_mmshare_version>
43012

> <i_f3d_flags>
0

> <s_epik_input>
Tz1jMVtjSF1bY0hdYyhbTitdKD1PKVtPLV0pW2NIXW4xW0NIMl1DKD1PKVtOSF1bQ0hdMltDSDJdW0NIMl1bQ0gyXVtDSDJdW0NIMl1bQ0gyXVtDSDJdMg==

> <s_epik_cmdline>
J2VwaWtfcHl0aG9uJywgJy1waCcsICc3LjAnLCAnLXRuJywgJzgnLCAnLW1hJywgJzIwMCcsICctbWV0YWxfYmluZGluZycsICctaW1hZScsICc8aW5maWxlLm1hZT4nLCAnLW9tYWUnLCAnPG91dGZpbGUubWFlPic=

> <r_lp_tautomer_probability>
1

> <r_epik_Ionization_Penalty>
2.02954e-08

> <r_epik_Ionization_Penalty_Charging>
8.05481e-11

> <r_epik_Ionization_Penalty_Neutral>
2.02148e-08

> <r_epik_State_Penalty>
-0

> <r_epik_Charging_Adjusted_Penalty>
8.05481e-11

> <i_epik_Tot_Q>
0

> <i_epik_Tot_abs_Q>
2

> <r_epik_Metal_State_Penalty>
-0

> <b_epik_Metal_Only>
0

> <s_lp_Force_Field>
OPLS_2005

> <r_lp_Energy>
31.3753

> <b_lp_Chiralities_Consistent>
1

> <s_lp_Variant>
AV-unprocessed.smi:1411-1

> <Gold.Version>
5.8.1

> <Gold.Id.Protein>
6NUR|6NUR_protein|mol2

> <Gold.PLP.Fitness>
47.1382

> <Gold.PLP.PLP>
-39.6773

> <Gold.PLP.part.hbond>
-4.0000

> <Gold.PLP.part.metal>
0.0000

> <Gold.PLP.part.buried>
-3.2633

> <Gold.PLP.part.nonpolar>
-34.5799

> <Gold.PLP.part.repulsive>
3.6328

> <Gold.PLP.ligand.clash>
0.0000

> <Gold.PLP.ligand.torsion>
0.6532

> <Gold.PLP.Chemscore.Hbond>
2.9040

> <Gold.PLP.Chemscore.CHOScore>
0.0000

> <Gold.PLP.Chemscore.Metal>
0.0000

> <Gold.Chemscore.Hbonds>
donor molecule, donor type, donor heavy atom, donor atom, acceptor molecule, acceptor atom, score
      P1  H  7997  8010       L1     1  1.00
      P1  H  8011  8017       L1     9  0.13
      P1  H 10752 10764       L1    13  0.89

> <Gold.PLP.Chemscore.Internal.Correction>
0.0553

> <Gold.Rescore>
     Score         DG    S(hbond)    S(metal)    S(lipo)     H(rot)  DE(clash)    DE(int)     intcor
     20.96     -24.71       2.92        0.00     114.79       1.54       3.18       0.56       ----

> <Gold.Chemscore.Fitness>
20.9648

> <Gold.Chemscore.DG>
-24.7086

> <Gold.Chemscore.ZeroCoef>
-5.4800

> <Gold.Chemscore.Hbond>
2.9160

> <Gold.Chemscore.Metal>
0.0000

> <Gold.Chemscore.Lipo>
114.7869

> <Gold.Chemscore.Internal_Hbond>
0.0000

> <Gold.Chemscore.DEClash>
3.1838

> <Gold.Chemscore.DEInternal>
0.5601

> <Gold.Chemscore.Rot>
1.5393

> <Gold.Chemscore.Internal.Correction>
   9.000000E+99

> <Gold.Chemscore.Hbonds>
donor molecule, donor type, donor heavy atom, donor atom, acceptor molecule, acceptor atom, score
      P1  H  7997  8010       L1     1  1.00
      P1  H  8011  8017       L1     9  0.14
      P1  H 10752 10764       L1    13  0.84

> <Gold.Chemscore.Hbond.Weighted>
-9.7393

> <Gold.Chemscore.Metal.Weighted>
-0.0000

> <Gold.Chemscore.Lipo.Weighted>
-13.4301

> <Gold.Chemscore.Internal_Hbond.Weighted>
0.0000

> <Gold.Chemscore.DEClash.Weighted>
3.1838

> <Gold.Chemscore.DEInternal.Weighted>
0.5601

> <Gold.Chemscore.Rot.Weighted>
3.9407

> <Gold.Chemscore.Internal.Correction.Weighted>
   9.000000E+99

> <Gold.Protein.RotatedTorsions>
[ 6907 6896 6895 6894 ] final  -60.38 input  -60.11 | X-H torsion
[ 7974 7965 7964 7962 ] final    8.06 input  175.53 | X-H torsion
[ 8008 7997 7996 7995 ] final   16.94 input   59.86 | X-H torsion
[ 10167 10162 10161 10158 ] final  135.94 input  -65.29 | X-H torsion
[ 10718 10713 10712 10709 ] final  -25.40 input   66.30 | X-H torsion
[ 10763 10752 10751 10750 ] final  -29.40 input  -60.55 | X-H torsion
[ 11005 11000 10999 10996 ] final -127.47 input  -57.11 | X-H torsion

> <Gold.Protein.ActiveResidues>
 VAL166  LYS551  ARG553  GLY616  TRP617  ASP618  TYR619  PRO620  LYS621  CYS622 
 ASP623  PHE694  ASN695  SER759  ASP760  ASP761  ALA762  ILE779  LEU786  VAL792 
 PHE793  MET794  SER795  GLU796  ALA797  LYS798  CYS799  TRP800  GLU811  SER814 

> <Gold.Protein.RotatedAtoms>
  150.7860  134.6844  159.6461 H   0  0  0  0  0  0  0  0  0  0  0  0  # atno 6907 bound_to 6896
  152.3956  134.6367  160.0099 H   0  0  0  0  0  0  0  0  0  0  0  0  # atno 6908 bound_to 6896
  151.6654  133.3279  159.3220 H   0  0  0  0  0  0  0  0  0  0  0  0  # atno 6909 bound_to 6896
  146.2420  139.9990  142.8418 H   0  0  0  0  0  0  0  0  0  0  0  0  # atno 7974 bound_to 7965
  154.8842  140.2977  155.5408 H   0  0  0  0  0  0  0  0  0  0  0  0  # atno 8008 bound_to 7997
  156.3021  140.2437  156.3782 H   0  0  0  0  0  0  0  0  0  0  0  0  # atno 8009 bound_to 7997
  154.8686  140.0402  157.1699 H   0  0  0  0  0  0  0  0  0  0  0  0  # atno 8010 bound_to 7997
  139.5198  144.6490  151.5356 H   0  0  0  0  0  0  0  0  0  0  0  0  # atno 10167 bound_to 10162
  156.4648  130.4512  149.6906 H   0  0  0  0  0  0  0  0  0  0  0  0  # atno 10718 bound_to 10713
  153.7641  135.6917  153.4919 H   0  0  0  0  0  0  0  0  0  0  0  0  # atno 10763 bound_to 10752
  153.1919  135.4468  155.0158 H   0  0  0  0  0  0  0  0  0  0  0  0  # atno 10764 bound_to 10752
  154.8142  135.3391  154.7154 H   0  0  0  0  0  0  0  0  0  0  0  0  # atno 10765 bound_to 10752
  140.9597  134.0953  157.3981 H   0  0  0  0  0  0  0  0  0  0  0  0  # atno 11005 bound_to 11000
  145.1433  140.9583  143.4476 LP  0  0  0  0  0  0  0  0  0  0  0  0  # atno 17320 bound_to 7965
  145.0275  139.3370  143.6041 LP  0  0  0  0  0  0  0  0  0  0  0  0  # atno 17321 bound_to 7965
  140.6287  143.9117  150.6587 LP  0  0  0  0  0  0  0  0  0  0  0  0  # atno 17342 bound_to 10162
  140.2415  143.3660  152.1483 LP  0  0  0  0  0  0  0  0  0  0  0  0  # atno 17343 bound_to 10162
  156.3679  130.7515  151.2495 LP  0  0  0  0  0  0  0  0  0  0  0  0  # atno 17370 bound_to 10713
  157.7495  131.0331  150.4259 LP  0  0  0  0  0  0  0  0  0  0  0  0  # atno 17371 bound_to 10713
  139.8874  135.0089  156.6557 LP  0  0  0  0  0  0  0  0  0  0  0  0  # atno 17394 bound_to 11000
  140.7485  133.8917  155.8330 LP  0  0  0  0  0  0  0  0  0  0  0  0  # atno 17395 bound_to 11000

$$$$
