AV-unprocessed.smi:711|AV-procd|sdf|3467|dock6
  -GOLD-   22720 0453D 1   1.00000     0.00000
 Structure written by MMmdl.
 28 29  0  0  0  0  0  0  0  0  2 V2000
  151.9340  137.9864  154.3795 O   0  0  0  0  0  0  0  0  0  0  0  0
  151.5934  138.9479  155.0670 C   0  0  0  0  0  0  0  0  0  0  0  0
  150.6789  139.8690  154.6438 N   0  5  0  0  0  0  0  0  0  0  0  0
  150.2842  140.9432  155.3949 C   0  0  0  0  0  0  0  0  0  0  0  0
  149.4577  141.7599  154.9882 O   0  0  0  0  0  0  0  0  0  0  0  0
  150.8260  141.1105  156.6376 N   0  0  0  0  0  0  0  0  0  0  0  0
  150.4652  142.2335  157.5149 C   0  0  0  0  0  0  0  0  0  0  0  0
  151.6579  143.1797  157.7673 C   0  0  1  0  0  0  0  0  0  0  0  0
  151.2885  144.4947  157.4002 O   0  0  0  0  0  0  0  0  0  0  0  0
  152.0997  143.1103  159.2240 C   0  0  0  0  0  0  0  0  0  0  0  0
  153.0249  142.1281  159.6446 C   0  0  0  0  0  0  0  0  0  0  0  0
  153.4454  142.0732  160.9875 C   0  0  0  0  0  0  0  0  0  0  0  0
  152.9474  143.0031  161.9193 C   0  0  0  0  0  0  0  0  0  0  0  0
  153.3524  142.9524  163.2103 F   0  0  0  0  0  0  0  0  0  0  0  0
  152.0309  143.9885  161.5066 C   0  0  0  0  0  0  0  0  0  0  0  0
  151.6093  144.0458  160.1637 C   0  0  0  0  0  0  0  0  0  0  0  0
  150.7355  145.0089  159.7832 F   0  0  0  0  0  0  0  0  0  0  0  0
  151.7761  140.1936  157.1190 C   0  0  0  0  0  0  0  0  0  0  0  0
  152.1779  139.1320  156.3938 C   0  0  0  0  0  0  0  0  0  0  0  0
  153.3500  138.0228  157.0108 Cl  0  0  0  0  0  0  0  0  0  0  0  0
  149.5942  142.7862  157.1581 H   0  0  0  0  0  0  0  0  0  0  0  0
  150.1453  141.8046  158.4661 H   0  0  0  0  0  0  0  0  0  0  0  0
  152.4984  142.8949  157.1337 H   0  0  0  0  0  0  0  0  0  0  0  0
  150.4611  144.4585  156.9457 H   0  0  0  0  0  0  0  0  0  0  0  0
  153.4203  141.4141  158.9369 H   0  0  0  0  0  0  0  0  0  0  0  0
  154.1519  141.3191  161.3012 H   0  0  0  0  0  0  0  0  0  0  0  0
  151.6525  144.7044  162.2211 H   0  0  0  0  0  0  0  0  0  0  0  0
  152.1574  140.4099  158.1066 H   0  0  0  0  0  0  0  0  0  0  0  0
  1  2  2  0  0  0  0
  2 19  1  0  0  0  0
  2  3  1  0  0  0  0
  3  4  1  0  0  0  0
  4  5  2  0  0  0  0
  4  6  1  0  0  0  0
  6  7  1  0  0  0  0
  6 18  1  0  0  0  0
  7  8  1  0  0  0  0
  7 21  1  0  0  0  0
  7 22  1  0  0  0  0
  8  9  1  0  0  0  0
  8 10  1  0  0  0  0
  8 23  1  0  0  0  0
  9 24  1  0  0  0  0
 10 16  1  0  0  0  0
 10 11  2  0  0  0  0
 11 12  1  0  0  0  0
 11 25  1  0  0  0  0
 12 13  2  0  0  0  0
 12 26  1  0  0  0  0
 13 14  1  0  0  0  0
 13 15  1  0  0  0  0
 15 16  2  0  0  0  0
 15 27  1  0  0  0  0
 16 17  1  0  0  0  0
 18 19  2  0  0  0  0
 18 28  1  0  0  0  0
 19 20  1  0  0  0  0
M  CHG  1   3  -1
M  END
> <s_m_source_file>
AV-unprocessed.smi

> <i_m_source_file_index>
711

> <i_lp_mmshare_version>
43012

> <i_f3d_flags>
0

> <s_epik_input>
Tz1jMVtuSF1jKD1PKW4oW2NIXWMxQ2wpW0NIMl1bQ0BIXShbT0hdKWMyW2NIXVtjSF1jKEYpW2NIXWMyRg==

> <s_epik_cmdline>
J2VwaWtfcHl0aG9uJywgJy1waCcsICc3LjAnLCAnLXRuJywgJzgnLCAnLW1hJywgJzIwMCcsICctbWV0YWxfYmluZGluZycsICctaW1hZScsICc8aW5maWxlLm1hZT4nLCAnLW9tYWUnLCAnPG91dGZpbGUubWFlPic=

> <r_epik_Ionization_Penalty>
1.7979

> <r_epik_Ionization_Penalty_Charging>
3.23819e-08

> <r_epik_Ionization_Penalty_Neutral>
1.7979

> <r_epik_State_Penalty>
1.91135

> <r_epik_Charging_Adjusted_Penalty>
1.91135

> <i_epik_Tot_Q>
-1

> <i_epik_Tot_abs_Q>
1

> <r_epik_Metal_State_Penalty>
0.014155

> <b_epik_Metal_Only>
0

> <s_lp_Force_Field>
OPLS_2005

> <r_lp_Energy>
21.7913

> <b_lp_Chiralities_Consistent>
1

> <s_lp_Variant>
AV-unprocessed.smi:711-4

> <Gold.Version>
5.8.1

> <Gold.Id.Protein>
6NUR|6NUR_protein|mol2

> <Gold.PLP.Fitness>
52.8674

> <Gold.PLP.PLP>
-50.5751

> <Gold.PLP.part.hbond>
-2.0000

> <Gold.PLP.part.metal>
0.0000

> <Gold.PLP.part.buried>
-5.6861

> <Gold.PLP.part.nonpolar>
-42.4178

> <Gold.PLP.part.repulsive>
0.7267

> <Gold.PLP.ligand.clash>
0.0100

> <Gold.PLP.ligand.torsion>
1.4789

> <Gold.PLP.Chemscore.Hbond>
1.7500

> <Gold.PLP.Chemscore.CHOScore>
0.0000

> <Gold.PLP.Chemscore.Metal>
0.0000

> <Gold.Chemscore.Hbonds>
donor molecule, donor type, donor heavy atom, donor atom, acceptor molecule, acceptor atom, score
      L1  H     9    24       P1  8028  1.00
      P1  H  7989  7998       L1     3  0.70

> <Gold.PLP.Chemscore.Internal.Correction>
0.0100

> <Gold.Rescore>
     Score         DG    S(hbond)    S(metal)    S(lipo)     H(rot)  DE(clash)    DE(int)     intcor
     14.18     -17.21       1.84        0.00      98.43       2.32       0.10       2.94       ----

> <Gold.Chemscore.Fitness>
14.1762

> <Gold.Chemscore.DG>
-17.2142

> <Gold.Chemscore.ZeroCoef>
-5.4800

> <Gold.Chemscore.Hbond>
1.8406

> <Gold.Chemscore.Metal>
0.0000

> <Gold.Chemscore.Lipo>
98.4315

> <Gold.Chemscore.Internal_Hbond>
0.0000

> <Gold.Chemscore.DEClash>
0.0955

> <Gold.Chemscore.DEInternal>
2.9425

> <Gold.Chemscore.Rot>
2.3164

> <Gold.Chemscore.Internal.Correction>
   9.000000E+99

> <Gold.Chemscore.Hbonds>
donor molecule, donor type, donor heavy atom, donor atom, acceptor molecule, acceptor atom, score
      L1  H     9    24       P1  8028  0.83
      P1  H  7989  7998       L1     3  0.03

> <Gold.Chemscore.Hbond.Weighted>
-6.1478

> <Gold.Chemscore.Metal.Weighted>
-0.0000

> <Gold.Chemscore.Lipo.Weighted>
-11.5165

> <Gold.Chemscore.Internal_Hbond.Weighted>
0.0000

> <Gold.Chemscore.DEClash.Weighted>
0.0955

> <Gold.Chemscore.DEInternal.Weighted>
2.9425

> <Gold.Chemscore.Rot.Weighted>
5.9301

> <Gold.Chemscore.Internal.Correction.Weighted>
   9.000000E+99

> <Gold.Protein.RotatedTorsions>
[ 6907 6896 6895 6894 ] final -125.34 input  -60.11 | X-H torsion
[ 7974 7965 7964 7962 ] final   -2.62 input  175.53 | X-H torsion
[ 8008 7997 7996 7995 ] final   63.04 input   59.86 | X-H torsion
[ 10167 10162 10161 10158 ] final -178.11 input  -65.29 | X-H torsion
[ 10718 10713 10712 10709 ] final   44.85 input   66.30 | X-H torsion
[ 10763 10752 10751 10750 ] final  -51.61 input  -60.55 | X-H torsion
[ 11005 11000 10999 10996 ] final  -46.14 input  -57.11 | X-H torsion

> <Gold.Protein.ActiveResidues>
 VAL166  LYS551  ARG553  GLY616  TRP617  ASP618  TYR619  PRO620  LYS621  CYS622 
 ASP623  PHE694  ASN695  SER759  ASP760  ASP761  ALA762  ILE779  LEU786  VAL792 
 PHE793  MET794  SER795  GLU796  ALA797  LYS798  CYS799  TRP800  GLU811  SER814 

> <Gold.Protein.RotatedAtoms>
  150.8858  133.7310  159.2918 H   0  0  0  0  0  0  0  0  0  0  0  0  # atno 6907 bound_to 6896
  151.4876  135.1054  159.9804 H   0  0  0  0  0  0  0  0  0  0  0  0  # atno 6908 bound_to 6896
  152.4789  133.8159  159.7083 H   0  0  0  0  0  0  0  0  0  0  0  0  # atno 6909 bound_to 6896
  146.2402  140.1598  142.8333 H   0  0  0  0  0  0  0  0  0  0  0  0  # atno 7974 bound_to 7965
  155.6238  140.3496  155.4660 H   0  0  0  0  0  0  0  0  0  0  0  0  # atno 8008 bound_to 7997
  156.0058  140.1223  157.0527 H   0  0  0  0  0  0  0  0  0  0  0  0  # atno 8009 bound_to 7997
  154.4264  140.1091  156.5746 H   0  0  0  0  0  0  0  0  0  0  0  0  # atno 8010 bound_to 7997
  139.5448  144.2265  152.0966 H   0  0  0  0  0  0  0  0  0  0  0  0  # atno 10167 bound_to 10162
  157.4312  130.8026  149.7605 H   0  0  0  0  0  0  0  0  0  0  0  0  # atno 10718 bound_to 10713
  154.1293  135.6522  153.4919 H   0  0  0  0  0  0  0  0  0  0  0  0  # atno 10763 bound_to 10752
  153.0200  135.5289  154.7017 H   0  0  0  0  0  0  0  0  0  0  0  0  # atno 10764 bound_to 10752
  154.6247  135.2969  155.0256 H   0  0  0  0  0  0  0  0  0  0  0  0  # atno 10765 bound_to 10752
  141.0560  133.6725  156.3112 H   0  0  0  0  0  0  0  0  0  0  0  0  # atno 11005 bound_to 11000
  145.0099  140.8705  143.5230 LP  0  0  0  0  0  0  0  0  0  0  0  0  # atno 17320 bound_to 7965
  145.1630  139.2448  143.5382 LP  0  0  0  0  0  0  0  0  0  0  0  0  # atno 17321 bound_to 7965
  140.1750  144.4899  150.6559 LP  0  0  0  0  0  0  0  0  0  0  0  0  # atno 17342 bound_to 10162
  140.6692  143.2279  151.5668 LP  0  0  0  0  0  0  0  0  0  0  0  0  # atno 17343 bound_to 10162
  155.9914  130.3938  150.2987 LP  0  0  0  0  0  0  0  0  0  0  0  0  # atno 17370 bound_to 10713
  157.1144  131.0230  151.3035 LP  0  0  0  0  0  0  0  0  0  0  0  0  # atno 17371 bound_to 10713
  140.5963  134.5600  157.5509 LP  0  0  0  0  0  0  0  0  0  0  0  0  # atno 17394 bound_to 11000
  139.9390  134.7821  156.0726 LP  0  0  0  0  0  0  0  0  0  0  0  0  # atno 17395 bound_to 11000

$$$$
