AV-unprocessed.smi:2079|AV-procd|sdf|8483|dock8
  -GOLD-   2272011193D 1   1.00000     0.00000
 Structure written by MMmdl.
 41 42  0  0  0  0  0  0  0  0  3 V2000
  155.3939  136.2379  165.4090 C   0  0  0  0  0  0  0  0  0  0  0  0
  155.5116  136.7507  164.0142 C   0  0  0  0  0  0  0  0  0  0  0  0
  154.9118  137.7855  163.3537 C   0  0  0  0  0  0  0  0  0  0  0  0
  155.4828  137.7120  162.0553 C   0  0  0  0  0  0  0  0  0  0  0  0
  155.1061  138.6360  161.0454 N   0  0  0  0  0  0  0  0  0  0  0  0
  155.7606  138.9616  159.9163 C   0  0  0  0  0  0  0  0  0  0  0  0
  156.8627  138.4600  159.6643 O   0  0  0  0  0  0  0  0  0  0  0  0
  155.0627  139.8458  159.1511 N   0  5  0  0  0  0  0  0  0  0  0  0
  154.6271  141.1761  159.5840 C   0  0  0  0  0  0  0  0  0  0  0  0
  153.2213  141.1175  160.2232 C   0  0  0  0  0  0  0  0  0  0  0  0
  152.3616  142.2688  159.8144 N   0  3  2  0  0  0  0  0  0  0  0  0
  152.1841  142.3110  158.3333 C   0  0  0  0  0  0  0  0  0  0  0  0
  151.1835  143.3878  157.8997 C   0  0  0  0  0  0  0  0  0  0  0  0
  151.6427  144.7581  158.3952 C   0  0  0  0  0  0  0  0  0  0  0  0
  151.8011  144.7136  159.9166 C   0  0  0  0  0  0  0  0  0  0  0  0
  152.7640  143.5973  160.3841 C   0  0  1  0  0  0  0  0  0  0  0  0
  152.7841  143.6135  161.9289 C   0  0  0  0  0  0  0  0  0  0  0  0
  156.3495  136.7174  161.9332 N   0  0  0  0  0  0  0  0  0  0  0  0
  156.3740  136.0979  163.1883 O   0  0  0  0  0  0  0  0  0  0  0  0
  154.3536  136.0256  165.6552 H   0  0  0  0  0  0  0  0  0  0  0  0
  155.7673  136.9729  166.1221 H   0  0  0  0  0  0  0  0  0  0  0  0
  155.9658  135.3190  165.5407 H   0  0  0  0  0  0  0  0  0  0  0  0
  154.1840  138.4836  163.7396 H   0  0  0  0  0  0  0  0  0  0  0  0
  154.2245  139.1052  161.1916 H   0  0  0  0  0  0  0  0  0  0  0  0
  155.3196  141.5848  160.3195 H   0  0  0  0  0  0  0  0  0  0  0  0
  154.6198  141.8988  158.7670 H   0  0  0  0  0  0  0  0  0  0  0  0
  152.7659  140.1569  159.9937 H   0  0  0  0  0  0  0  0  0  0  0  0
  153.3256  141.1065  161.3091 H   0  0  0  0  0  0  0  0  0  0  0  0
  153.1494  142.4924  157.8576 H   0  0  0  0  0  0  0  0  0  0  0  0
  151.8351  141.3419  157.9745 H   0  0  0  0  0  0  0  0  0  0  0  0
  151.0903  143.3954  156.8133 H   0  0  0  0  0  0  0  0  0  0  0  0
  150.1939  143.1572  158.2972 H   0  0  0  0  0  0  0  0  0  0  0  0
  152.5900  145.0293  157.9276 H   0  0  0  0  0  0  0  0  0  0  0  0
  150.9196  145.5240  158.1129 H   0  0  0  0  0  0  0  0  0  0  0  0
  152.1542  145.6833  160.2697 H   0  0  0  0  0  0  0  0  0  0  0  0
  150.8201  144.5627  160.3703 H   0  0  0  0  0  0  0  0  0  0  0  0
  153.7664  143.8268  160.0192 H   0  0  0  0  0  0  0  0  0  0  0  0
  153.0046  144.6148  162.2999 H   0  0  0  0  0  0  0  0  0  0  0  0
  153.5378  142.9585  162.3612 H   0  0  0  0  0  0  0  0  0  0  0  0
  151.8167  143.3246  162.3402 H   0  0  0  0  0  0  0  0  0  0  0  0
  151.4517  142.0696  160.2079 H   0  0  0  0  0  0  0  0  0  0  0  0
  1  2  1  0  0  0  0
  1 20  1  0  0  0  0
  1 21  1  0  0  0  0
  1 22  1  0  0  0  0
  2 19  1  0  0  0  0
  2  3  2  0  0  0  0
  3  4  1  0  0  0  0
  3 23  1  0  0  0  0
  4  5  1  0  0  0  0
  4 18  2  0  0  0  0
  5  6  1  0  0  0  0
  5 24  1  0  0  0  0
  6  7  2  0  0  0  0
  6  8  1  0  0  0  0
  8  9  1  0  0  0  0
  9 10  1  0  0  0  0
  9 25  1  0  0  0  0
  9 26  1  0  0  0  0
 10 11  1  0  0  0  0
 10 27  1  0  0  0  0
 10 28  1  0  0  0  0
 11 16  1  0  0  0  0
 11 12  1  0  0  0  0
 11 41  1  0  0  0  0
 12 13  1  0  0  0  0
 12 29  1  0  0  0  0
 12 30  1  0  0  0  0
 13 14  1  0  0  0  0
 13 31  1  0  0  0  0
 13 32  1  0  0  0  0
 14 15  1  0  0  0  0
 14 33  1  0  0  0  0
 14 34  1  0  0  0  0
 15 16  1  0  0  0  0
 15 35  1  0  0  0  0
 15 36  1  0  0  0  0
 16 17  1  0  0  0  0
 16 37  1  0  0  0  0
 17 38  1  0  0  0  0
 17 39  1  0  0  0  0
 17 40  1  0  0  0  0
 18 19  1  0  0  0  0
M  CHG  1   8  -1
M  CHG  1  11   1
M  END
> <s_m_source_file>
AV-unprocessed.smi

> <i_m_source_file_index>
2079

> <i_lp_mmshare_version>
43012

> <i_f3d_flags>
0

> <s_epik_input>
W0NIM11jMVtjSF1jKG5vMSlbTkhdQyg9TylbTkhdW0NIMl1bQ0gyXU4yW0NIMl1bQ0gyXVtDSDJdW0NIMl1bQ0BIXTJbQ0gzXQ==

> <s_epik_cmdline>
J2VwaWtfcHl0aG9uJywgJy1waCcsICc3LjAnLCAnLXRuJywgJzgnLCAnLW1hJywgJzIwMCcsICctbWV0YWxfYmluZGluZycsICctaW1hZScsICc8aW5maWxlLm1hZT4nLCAnLW9tYWUnLCAnPG91dGZpbGUubWFlPic=

> <r_epik_Ionization_Penalty>
6.7666

> <r_epik_Ionization_Penalty_Charging>
6.7666

> <r_epik_Ionization_Penalty_Neutral>
5.77131e-06

> <r_epik_State_Penalty>
6.79217

> <r_epik_Charging_Adjusted_Penalty>
13.5588

> <i_epik_Tot_Q>
0

> <i_epik_Tot_abs_Q>
2

> <r_epik_Metal_State_Penalty>
2.72569

> <b_epik_Metal_Only>
1

> <s_lp_Force_Field>
OPLS_2005

> <r_lp_Energy>
12.5834

> <b_lp_Chiralities_Consistent>
1

> <s_lp_Variant>
AV-unprocessed.smi:2079-9

> <Gold.Version>
5.8.1

> <Gold.Id.Protein>
6NUR|6NUR_protein|mol2

> <Gold.PLP.Fitness>
43.6927

> <Gold.PLP.PLP>
-39.9077

> <Gold.PLP.part.hbond>
-1.0000

> <Gold.PLP.part.metal>
0.0000

> <Gold.PLP.part.buried>
-4.0065

> <Gold.PLP.part.nonpolar>
-34.4917

> <Gold.PLP.part.repulsive>
0.1334

> <Gold.PLP.ligand.clash>
0.0000

> <Gold.PLP.ligand.torsion>
1.1349

> <Gold.PLP.Chemscore.Hbond>
2.0000

> <Gold.PLP.Chemscore.CHOScore>
0.0000

> <Gold.PLP.Chemscore.Metal>
0.0000

> <Gold.Chemscore.Hbonds>
donor molecule, donor type, donor heavy atom, donor atom, acceptor molecule, acceptor atom, score
      P1  H  7997  8008       L1     8  2.00

> <Gold.PLP.Chemscore.Internal.Correction>
0.0547

> <Gold.Rescore>
     Score         DG    S(hbond)    S(metal)    S(lipo)     H(rot)  DE(clash)    DE(int)     intcor
     15.72     -18.04       0.87        0.00     116.23       1.54       0.00       2.32       ----

> <Gold.Chemscore.Fitness>
15.7154

> <Gold.Chemscore.DG>
-18.0415

> <Gold.Chemscore.ZeroCoef>
-5.4800

> <Gold.Chemscore.Hbond>
0.8705

> <Gold.Chemscore.Metal>
0.0000

> <Gold.Chemscore.Lipo>
116.2284

> <Gold.Chemscore.Internal_Hbond>
0.0000

> <Gold.Chemscore.DEClash>
0.0029

> <Gold.Chemscore.DEInternal>
2.3232

> <Gold.Chemscore.Rot>
1.5409

> <Gold.Chemscore.Internal.Correction>
   9.000000E+99

> <Gold.Chemscore.Hbonds>
donor molecule, donor type, donor heavy atom, donor atom, acceptor molecule, acceptor atom, score
      P1  H  7997  8008       L1     8  0.34

> <Gold.Chemscore.Hbond.Weighted>
-2.9074

> <Gold.Chemscore.Metal.Weighted>
-0.0000

> <Gold.Chemscore.Lipo.Weighted>
-13.5987

> <Gold.Chemscore.Internal_Hbond.Weighted>
0.0000

> <Gold.Chemscore.DEClash.Weighted>
0.0029

> <Gold.Chemscore.DEInternal.Weighted>
2.3232

> <Gold.Chemscore.Rot.Weighted>
3.9446

> <Gold.Chemscore.Internal.Correction.Weighted>
   9.000000E+99

> <Gold.Protein.RotatedTorsions>
[ 6907 6896 6895 6894 ] final  158.16 input  -60.11 | X-H torsion
[ 7974 7965 7964 7962 ] final   80.31 input  175.53 | X-H torsion
[ 8008 7997 7996 7995 ] final -122.72 input   59.86 | X-H torsion
[ 10167 10162 10161 10158 ] final  -60.08 input  -65.29 | X-H torsion
[ 10718 10713 10712 10709 ] final  -22.13 input   66.30 | X-H torsion
[ 10763 10752 10751 10750 ] final  167.60 input  -60.55 | X-H torsion
[ 11005 11000 10999 10996 ] final    6.91 input  -57.11 | X-H torsion

> <Gold.Protein.ActiveResidues>
 VAL166  LYS551  ARG553  GLY616  TRP617  ASP618  TYR619  PRO620  LYS621  CYS622 
 ASP623  PHE694  ASN695  SER759  ASP760  ASP761  ALA762  ILE779  LEU786  VAL792 
 PHE793  MET794  SER795  GLU796  ALA797  LYS798  CYS799  TRP800  GLU811  SER814 

> <Gold.Protein.RotatedAtoms>
  152.0045  133.3838  159.4194 H   0  0  0  0  0  0  0  0  0  0  0  0  # atno 6907 bound_to 6896
  150.6906  134.3797  159.5038 H   0  0  0  0  0  0  0  0  0  0  0  0  # atno 6908 bound_to 6896
  152.1549  134.8958  160.0596 H   0  0  0  0  0  0  0  0  0  0  0  0  # atno 6909 bound_to 6896
  145.6529  139.2452  143.1967 H   0  0  0  0  0  0  0  0  0  0  0  0  # atno 7974 bound_to 7965
  155.1688  140.0407  157.2858 H   0  0  0  0  0  0  0  0  0  0  0  0  # atno 8008 bound_to 7997
  154.6284  140.2518  155.7436 H   0  0  0  0  0  0  0  0  0  0  0  0  # atno 8009 bound_to 7997
  156.2471  140.2880  156.0624 H   0  0  0  0  0  0  0  0  0  0  0  0  # atno 8010 bound_to 7997
  140.6094  143.2383  151.5744 H   0  0  0  0  0  0  0  0  0  0  0  0  # atno 10167 bound_to 10162
  156.5087  130.4605  149.6660 H   0  0  0  0  0  0  0  0  0  0  0  0  # atno 10718 bound_to 10713
  154.3563  135.2753  155.2345 H   0  0  0  0  0  0  0  0  0  0  0  0  # atno 10763 bound_to 10752
  154.4552  135.5921  153.6222 H   0  0  0  0  0  0  0  0  0  0  0  0  # atno 10764 bound_to 10752
  152.9846  135.6051  154.3778 H   0  0  0  0  0  0  0  0  0  0  0  0  # atno 10765 bound_to 10752
  140.5542  134.0254  155.7948 H   0  0  0  0  0  0  0  0  0  0  0  0  # atno 11005 bound_to 11000
  146.1189  140.7334  142.9467 LP  0  0  0  0  0  0  0  0  0  0  0  0  # atno 17320 bound_to 7965
  144.7116  140.4060  143.7076 LP  0  0  0  0  0  0  0  0  0  0  0  0  # atno 17321 bound_to 7965
  139.5350  144.2807  152.1231 LP  0  0  0  0  0  0  0  0  0  0  0  0  # atno 17342 bound_to 10162
  140.2004  144.4664  150.6434 LP  0  0  0  0  0  0  0  0  0  0  0  0  # atno 17343 bound_to 10162
  156.3262  130.7307  151.2228 LP  0  0  0  0  0  0  0  0  0  0  0  0  # atno 17370 bound_to 10713
  157.7453  131.0442  150.4783 LP  0  0  0  0  0  0  0  0  0  0  0  0  # atno 17371 bound_to 10713
  141.1154  133.9549  157.2833 LP  0  0  0  0  0  0  0  0  0  0  0  0  # atno 17394 bound_to 11000
  139.9440  135.0187  156.8796 LP  0  0  0  0  0  0  0  0  0  0  0  0  # atno 17395 bound_to 11000

$$$$
