AV-unprocessed.smi:1012|AV-procd|sdf|4425|dock6
  -GOLD-   22720 2383D 1   1.00000     0.00000
 Structure written by MMmdl.
 44 46  0  0  0  0  0  0  0  0  2 V2000
  151.1605  138.0706  154.2037 C   0  0  0  0  0  0  0  0  0  0  0  0
  151.0130  139.4492  154.5109 O   0  0  0  0  0  0  0  0  0  0  0  0
  149.7696  139.9029  154.9033 C   0  0  0  0  0  0  0  0  0  0  0  0
  148.5497  139.3245  154.4677 C   0  0  0  0  0  0  0  0  0  0  0  0
  147.3152  139.8379  154.9087 C   0  0  0  0  0  0  0  0  0  0  0  0
  147.2809  140.9334  155.7894 C   0  0  0  0  0  0  0  0  0  0  0  0
  148.4834  141.5157  156.2287 C   0  0  0  0  0  0  0  0  0  0  0  0
  149.7236  141.0062  155.7890 C   0  0  0  0  0  0  0  0  0  0  0  0
  151.0097  141.6465  156.2780 C   0  0  0  0  0  0  0  0  0  0  0  0
  151.2275  141.3844  157.6545 O   0  0  0  0  0  0  0  0  0  0  0  0
  150.4207  142.1856  158.5006 C   0  0  0  0  0  0  0  0  0  0  0  0
  150.5956  143.6643  158.1095 C   0  0  1  0  0  0  0  0  0  0  0  0
  149.4712  144.3846  158.5693 O   0  0  0  0  0  0  0  0  0  0  0  0
  151.8442  144.3307  158.7216 C   0  0  0  0  0  0  0  0  0  0  0  0
  151.9838  144.0712  160.1618 N   0  0  0  0  0  0  0  0  0  0  0  0
  151.5031  144.7851  161.2160 C   0  0  0  0  0  0  0  0  0  0  0  0
  151.8870  144.1466  162.3555 N   0  3  0  0  0  0  0  0  0  0  0  0
  152.6238  143.0071  162.0259 C   0  0  0  0  0  0  0  0  0  0  0  0
  153.2237  142.0467  162.8337 C   0  0  0  0  0  0  0  0  0  0  0  0
  153.9117  141.0047  162.1782 C   0  0  0  0  0  0  0  0  0  0  0  0
  154.5165  140.0447  162.9169 F   0  0  0  0  0  0  0  0  0  0  0  0
  153.9832  140.9450  160.7703 C   0  0  0  0  0  0  0  0  0  0  0  0
  154.6570  139.9295  160.1805 F   0  0  0  0  0  0  0  0  0  0  0  0
  153.3679  141.9232  159.9616 C   0  0  0  0  0  0  0  0  0  0  0  0
  152.6898  142.9506  160.6175 C   0  0  0  0  0  0  0  0  0  0  0  0
  152.1914  137.8770  153.9077 H   0  0  0  0  0  0  0  0  0  0  0  0
  150.5185  137.7756  153.3727 H   0  0  0  0  0  0  0  0  0  0  0  0
  150.9435  137.4436  155.0697 H   0  0  0  0  0  0  0  0  0  0  0  0
  148.5324  138.4823  153.7930 H   0  0  0  0  0  0  0  0  0  0  0  0
  146.3930  139.3892  154.5705 H   0  0  0  0  0  0  0  0  0  0  0  0
  146.3335  141.3266  156.1278 H   0  0  0  0  0  0  0  0  0  0  0  0
  148.4490  142.3575  156.9046 H   0  0  0  0  0  0  0  0  0  0  0  0
  151.8545  141.2756  155.6955 H   0  0  0  0  0  0  0  0  0  0  0  0
  150.9513  142.7220  156.1031 H   0  0  0  0  0  0  0  0  0  0  0  0
  149.3714  141.8882  158.4543 H   0  0  0  0  0  0  0  0  0  0  0  0
  150.7574  142.0208  159.5237 H   0  0  0  0  0  0  0  0  0  0  0  0
  150.6441  143.7544  157.0234 H   0  0  0  0  0  0  0  0  0  0  0  0
  148.8657  144.4915  157.8519 H   0  0  0  0  0  0  0  0  0  0  0  0
  152.7431  143.9357  158.2461 H   0  0  0  0  0  0  0  0  0  0  0  0
  151.8514  145.4049  158.5380 H   0  0  0  0  0  0  0  0  0  0  0  0
  150.9221  145.6947  161.1582 H   0  0  0  0  0  0  0  0  0  0  0  0
  153.1725  142.0896  163.9117 H   0  0  0  0  0  0  0  0  0  0  0  0
  153.4362  141.8658  158.8857 H   0  0  0  0  0  0  0  0  0  0  0  0
  151.6611  144.4683  163.2883 H   0  0  0  0  0  0  0  0  0  0  0  0
  1  2  1  0  0  0  0
  1 26  1  0  0  0  0
  1 27  1  0  0  0  0
  1 28  1  0  0  0  0
  2  3  1  0  0  0  0
  3  8  1  0  0  0  0
  3  4  2  0  0  0  0
  4  5  1  0  0  0  0
  4 29  1  0  0  0  0
  5  6  2  0  0  0  0
  5 30  1  0  0  0  0
  6  7  1  0  0  0  0
  6 31  1  0  0  0  0
  7  8  2  0  0  0  0
  7 32  1  0  0  0  0
  8  9  1  0  0  0  0
  9 10  1  0  0  0  0
  9 33  1  0  0  0  0
  9 34  1  0  0  0  0
 10 11  1  0  0  0  0
 11 12  1  0  0  0  0
 11 35  1  0  0  0  0
 11 36  1  0  0  0  0
 12 13  1  0  0  0  0
 12 14  1  0  0  0  0
 12 37  1  0  0  0  0
 13 38  1  0  0  0  0
 14 15  1  0  0  0  0
 14 39  1  0  0  0  0
 14 40  1  0  0  0  0
 15 25  1  0  0  0  0
 15 16  1  0  0  0  0
 16 17  2  0  0  0  0
 16 41  1  0  0  0  0
 17 18  1  0  0  0  0
 17 44  1  0  0  0  0
 18 25  2  0  0  0  0
 18 19  1  0  0  0  0
 19 20  2  0  0  0  0
 19 42  1  0  0  0  0
 20 21  1  0  0  0  0
 20 22  1  0  0  0  0
 22 23  1  0  0  0  0
 22 24  2  0  0  0  0
 24 25  1  0  0  0  0
 24 43  1  0  0  0  0
M  CHG  1  17   1
M  END
> <s_m_source_file>
AV-unprocessed.smi

> <i_m_source_file_index>
1012

> <i_lp_mmshare_version>
43012

> <i_f3d_flags>
0

> <s_epik_input>
W0NIM11PYzFbY0hdW2NIXVtjSF1bY0hdYzFbQ0gyXU9bQ0gyXVtDQEhdKFtPSF0pW0NIMl1uKFtjSF1uMiljKGMyMylbY0hdYyhGKWMoRilbY0hdMw==

> <s_epik_cmdline>
J2VwaWtfcHl0aG9uJywgJy1waCcsICc3LjAnLCAnLXRuJywgJzgnLCAnLW1hJywgJzIwMCcsICctbWV0YWxfYmluZGluZycsICctaW1hZScsICc8aW5maWxlLm1hZT4nLCAnLW9tYWUnLCAnPG91dGZpbGUubWFlPic=

> <r_lp_tautomer_probability>
1

> <r_epik_Ionization_Penalty>
2.14697

> <r_epik_Ionization_Penalty_Charging>
2.14697

> <r_epik_Ionization_Penalty_Neutral>
1.07667e-06

> <r_epik_State_Penalty>
2.28651

> <r_epik_Charging_Adjusted_Penalty>
4.43348

> <i_epik_Tot_Q>
1

> <i_epik_Tot_abs_Q>
1

> <r_epik_Metal_State_Penalty>
6.36664

> <b_epik_Metal_Only>
0

> <s_lp_Force_Field>
OPLS_2005

> <r_lp_Energy>
25.548

> <b_lp_Chiralities_Consistent>
1

> <s_lp_Variant>
AV-unprocessed.smi:1012-4

> <Gold.Version>
5.8.1

> <Gold.Id.Protein>
6NUR|6NUR_protein|mol2

> <Gold.PLP.Fitness>
58.6697

> <Gold.PLP.PLP>
-56.7622

> <Gold.PLP.part.hbond>
-4.8507

> <Gold.PLP.part.metal>
0.0000

> <Gold.PLP.part.buried>
-4.0562

> <Gold.PLP.part.nonpolar>
-47.7996

> <Gold.PLP.part.repulsive>
0.2166

> <Gold.PLP.ligand.clash>
0.0000

> <Gold.PLP.ligand.torsion>
1.2261

> <Gold.PLP.Chemscore.Hbond>
1.3936

> <Gold.PLP.Chemscore.CHOScore>
0.0000

> <Gold.PLP.Chemscore.Metal>
0.0000

> <Gold.Chemscore.Hbonds>
donor molecule, donor type, donor heavy atom, donor atom, acceptor molecule, acceptor atom, score
      L1  H    13    38       P1  8029  0.39
      P1  H  7989  7998       L1     2  1.00

> <Gold.PLP.Chemscore.Internal.Correction>
0.1789

> <Gold.Rescore>
     Score         DG    S(hbond)    S(metal)    S(lipo)     H(rot)  DE(clash)    DE(int)     intcor
     14.37     -16.70       0.97        0.00     134.43       3.03       0.07       2.26       ----

> <Gold.Chemscore.Fitness>
14.3673

> <Gold.Chemscore.DG>
-16.6969

> <Gold.Chemscore.ZeroCoef>
-5.4800

> <Gold.Chemscore.Hbond>
0.9701

> <Gold.Chemscore.Metal>
0.0000

> <Gold.Chemscore.Lipo>
134.4252

> <Gold.Chemscore.Internal_Hbond>
0.0000

> <Gold.Chemscore.DEClash>
0.0688

> <Gold.Chemscore.DEInternal>
2.2608

> <Gold.Chemscore.Rot>
3.0278

> <Gold.Chemscore.Internal.Correction>
   9.000000E+99

> <Gold.Chemscore.Hbonds>
donor molecule, donor type, donor heavy atom, donor atom, acceptor molecule, acceptor atom, score
      L1  H    13    38       P1  8029  0.03
      P1  H  7989  7998       L1     2  0.35

> <Gold.Chemscore.Hbond.Weighted>
-3.2403

> <Gold.Chemscore.Metal.Weighted>
-0.0000

> <Gold.Chemscore.Lipo.Weighted>
-15.7278

> <Gold.Chemscore.Internal_Hbond.Weighted>
0.0000

> <Gold.Chemscore.DEClash.Weighted>
0.0688

> <Gold.Chemscore.DEInternal.Weighted>
2.2608

> <Gold.Chemscore.Rot.Weighted>
7.7512

> <Gold.Chemscore.Internal.Correction.Weighted>
   9.000000E+99

> <Gold.Protein.RotatedTorsions>
[ 6907 6896 6895 6894 ] final -100.45 input  -60.11 | X-H torsion
[ 7974 7965 7964 7962 ] final -128.57 input  175.53 | X-H torsion
[ 8008 7997 7996 7995 ] final  145.94 input   59.86 | X-H torsion
[ 10167 10162 10161 10158 ] final  -14.19 input  -65.29 | X-H torsion
[ 10718 10713 10712 10709 ] final  138.92 input   66.30 | X-H torsion
[ 10763 10752 10751 10750 ] final  163.06 input  -60.55 | X-H torsion
[ 11005 11000 10999 10996 ] final  -35.89 input  -57.11 | X-H torsion

> <Gold.Protein.ActiveResidues>
 VAL166  LYS551  ARG553  GLY616  TRP617  ASP618  TYR619  PRO620  LYS621  CYS622 
 ASP623  PHE694  ASN695  SER759  ASP760  ASP761  ALA762  ILE779  LEU786  VAL792 
 PHE793  MET794  SER795  GLU796  ALA797  LYS798  CYS799  TRP800  GLU811  SER814 

> <Gold.Protein.RotatedAtoms>
  150.7116  134.0885  159.3922 H   0  0  0  0  0  0  0  0  0  0  0  0  # atno 6907 bound_to 6896
  151.8870  135.0429  160.0503 H   0  0  0  0  0  0  0  0  0  0  0  0  # atno 6908 bound_to 6896
  152.2522  133.5189  159.5369 H   0  0  0  0  0  0  0  0  0  0  0  0  # atno 6909 bound_to 6896
  144.9657  140.7494  143.4701 H   0  0  0  0  0  0  0  0  0  0  0  0  # atno 7974 bound_to 7965
  156.2869  140.2196  156.5296 H   0  0  0  0  0  0  0  0  0  0  0  0  # atno 8008 bound_to 7997
  154.7460  140.0484  157.0875 H   0  0  0  0  0  0  0  0  0  0  0  0  # atno 8009 bound_to 7997
  155.0170  140.3119  155.4811 H   0  0  0  0  0  0  0  0  0  0  0  0  # atno 8010 bound_to 7997
  140.7196  143.5347  150.9478 H   0  0  0  0  0  0  0  0  0  0  0  0  # atno 10167 bound_to 10162
  157.4201  131.1037  151.0363 H   0  0  0  0  0  0  0  0  0  0  0  0  # atno 10718 bound_to 10713
  154.2878  135.2761  155.2668 H   0  0  0  0  0  0  0  0  0  0  0  0  # atno 10763 bound_to 10752
  154.5160  135.5769  153.6646 H   0  0  0  0  0  0  0  0  0  0  0  0  # atno 10764 bound_to 10752
  152.9919  135.6193  154.3041 H   0  0  0  0  0  0  0  0  0  0  0  0  # atno 10765 bound_to 10752
  140.9832  133.7045  156.1719 H   0  0  0  0  0  0  0  0  0  0  0  0  # atno 11005 bound_to 11000
  145.2633  139.1984  143.4880 LP  0  0  0  0  0  0  0  0  0  0  0  0  # atno 17320 bound_to 7965
  146.3367  140.2566  142.8600 LP  0  0  0  0  0  0  0  0  0  0  0  0  # atno 17321 bound_to 7965
  139.9069  143.6768  152.3122 LP  0  0  0  0  0  0  0  0  0  0  0  0  # atno 17342 bound_to 10162
  139.7137  144.7615  151.1069 LP  0  0  0  0  0  0  0  0  0  0  0  0  # atno 17343 bound_to 10162
  157.1296  130.6096  149.5526 LP  0  0  0  0  0  0  0  0  0  0  0  0  # atno 17370 bound_to 10713
  155.9878  130.4918  150.7140 LP  0  0  0  0  0  0  0  0  0  0  0  0  # atno 17371 bound_to 10713
  140.7155  134.4415  157.5579 LP  0  0  0  0  0  0  0  0  0  0  0  0  # atno 17394 bound_to 11000
  139.8959  134.8672  156.2111 LP  0  0  0  0  0  0  0  0  0  0  0  0  # atno 17395 bound_to 11000

$$$$
