AV-unprocessed.smi:2857|AV-procd|sdf|10997|dock8
  -GOLD-   2272015453D 1   1.00000     0.00000
 Structure written by MMmdl.
 44 46  0  0  0  0  0  0  0  0  1 V2000
  150.8108  144.7311  158.7269 C   0  0  0  0  0  0  0  0  0  0  0  0
  151.5886  143.8760  159.7062 C   0  0  0  0  0  0  0  0  0  0  0  0
  151.9237  144.3768  160.9790 C   0  0  0  0  0  0  0  0  0  0  0  0
  152.6446  143.5749  161.8817 C   0  0  0  0  0  0  0  0  0  0  0  0
  153.0344  142.2689  161.5192 C   0  0  0  0  0  0  0  0  0  0  0  0
  153.8129  141.4187  162.5056 C   0  0  0  0  0  0  0  0  0  0  0  0
  152.7059  141.7538  160.2436 C   0  0  0  0  0  0  0  0  0  0  0  0
  153.1185  140.4697  159.9522 O   0  0  0  0  0  0  0  0  0  0  0  0
  152.4505  139.7573  158.9197 C   0  0  0  0  0  0  0  0  0  0  0  0
  153.1836  138.4268  158.6901 C   0  0  2  0  0  0  0  0  0  0  0  0
  154.2394  138.6520  157.7763 O   0  0  0  0  0  0  0  0  0  0  0  0
  152.2446  137.3426  158.1249 C   0  0  0  0  0  0  0  0  0  0  0  0
  151.6948  137.7018  156.8261 N   0  0  0  0  0  0  0  0  0  0  0  0
  152.2682  137.2060  155.6990 N   0  0  0  0  0  0  0  0  0  0  0  0
  151.5680  137.7089  154.6844 C   0  0  0  0  0  0  0  0  0  0  0  0
  150.5140  138.5522  155.1306 C   0  0  0  0  0  0  0  0  0  0  0  0
  149.4744  139.3413  154.4774 C   0  0  0  0  0  0  0  0  0  0  0  0
  148.6574  140.0172  155.2232 N   0  0  0  0  0  0  0  0  0  0  0  0
  148.7615  139.9977  156.6187 N   0  0  0  0  0  0  0  0  0  0  0  0
  147.7693  140.8113  157.3175 C   0  0  0  0  0  0  0  0  0  0  0  0
  149.6939  139.2913  157.3266 C   0  0  0  0  0  0  0  0  0  0  0  0
  149.7651  139.2851  158.5555 O   0  0  0  0  0  0  0  0  0  0  0  0
  150.6331  138.5153  156.4810 C   0  0  0  0  0  0  0  0  0  0  0  0
  151.9781  142.5714  159.3414 C   0  0  0  0  0  0  0  0  0  0  0  0
  150.6290  145.7296  159.1258 H   0  0  0  0  0  0  0  0  0  0  0  0
  149.8470  144.2711  158.5079 H   0  0  0  0  0  0  0  0  0  0  0  0
  151.3629  144.8341  157.7925 H   0  0  0  0  0  0  0  0  0  0  0  0
  151.6302  145.3754  161.2682 H   0  0  0  0  0  0  0  0  0  0  0  0
  152.8979  143.9681  162.8555 H   0  0  0  0  0  0  0  0  0  0  0  0
  154.8121  141.2148  162.1205 H   0  0  0  0  0  0  0  0  0  0  0  0
  153.3069  140.4673  162.6706 H   0  0  0  0  0  0  0  0  0  0  0  0
  153.9153  141.9175  163.4694 H   0  0  0  0  0  0  0  0  0  0  0  0
  151.4292  139.5548  159.2463 H   0  0  0  0  0  0  0  0  0  0  0  0
  152.3987  140.3365  157.9958 H   0  0  0  0  0  0  0  0  0  0  0  0
  153.6029  138.0742  159.6335 H   0  0  0  0  0  0  0  0  0  0  0  0
  154.2905  137.9109  157.1919 H   0  0  0  0  0  0  0  0  0  0  0  0
  152.7889  136.4036  158.0126 H   0  0  0  0  0  0  0  0  0  0  0  0
  151.4300  137.1344  158.8177 H   0  0  0  0  0  0  0  0  0  0  0  0
  151.8467  137.4494  153.6738 H   0  0  0  0  0  0  0  0  0  0  0  0
  149.3924  139.3583  153.3907 H   0  0  0  0  0  0  0  0  0  0  0  0
  148.2571  141.5624  157.9407 H   0  0  0  0  0  0  0  0  0  0  0  0
  147.1459  140.1872  157.9591 H   0  0  0  0  0  0  0  0  0  0  0  0
  147.1092  141.3361  156.6248 H   0  0  0  0  0  0  0  0  0  0  0  0
  151.7044  142.2177  158.3590 H   0  0  0  0  0  0  0  0  0  0  0  0
  1  2  1  0  0  0  0
  1 25  1  0  0  0  0
  1 26  1  0  0  0  0
  1 27  1  0  0  0  0
  2 24  1  0  0  0  0
  2  3  2  0  0  0  0
  3  4  1  0  0  0  0
  3 28  1  0  0  0  0
  4  5  2  0  0  0  0
  4 29  1  0  0  0  0
  5  6  1  0  0  0  0
  5  7  1  0  0  0  0
  6 30  1  0  0  0  0
  6 31  1  0  0  0  0
  6 32  1  0  0  0  0
  7  8  1  0  0  0  0
  7 24  2  0  0  0  0
  8  9  1  0  0  0  0
  9 10  1  0  0  0  0
  9 33  1  0  0  0  0
  9 34  1  0  0  0  0
 10 11  1  0  0  0  0
 10 12  1  0  0  0  0
 10 35  1  0  0  0  0
 11 36  1  0  0  0  0
 12 13  1  0  0  0  0
 12 37  1  0  0  0  0
 12 38  1  0  0  0  0
 13 23  1  0  0  0  0
 13 14  1  0  0  0  0
 14 15  2  0  0  0  0
 15 16  1  0  0  0  0
 15 39  1  0  0  0  0
 16 23  2  0  0  0  0
 16 17  1  0  0  0  0
 17 18  2  0  0  0  0
 17 40  1  0  0  0  0
 18 19  1  0  0  0  0
 19 20  1  0  0  0  0
 19 21  1  0  0  0  0
 20 41  1  0  0  0  0
 20 42  1  0  0  0  0
 20 43  1  0  0  0  0
 21 22  2  0  0  0  0
 21 23  1  0  0  0  0
 24 44  1  0  0  0  0
M  END
> <s_m_source_file>
AV-unprocessed.smi

> <i_m_source_file_index>
2857

> <i_lp_mmshare_version>
43012

> <i_f3d_flags>
0

> <s_epik_input>
W0NIM11jMVtjSF1bY0hdYyhbQ0gzXSljKFtjSF0xKU9bQ0gyXVtDQEhdKFtPSF0pW0NIMl1uKG5bY0hdMiljKGMyMyljKD1PKW4oW0NIM10pbltjSF0z

> <s_epik_cmdline>
J2VwaWtfcHl0aG9uJywgJy1waCcsICc3LjAnLCAnLXRuJywgJzgnLCAnLW1hJywgJzIwMCcsICctbWV0YWxfYmluZGluZycsICctaW1hZScsICc8aW5maWxlLm1hZT4nLCAnLW9tYWUnLCAnPG91dGZpbGUubWFlPic=

> <r_lp_tautomer_probability>
1

> <r_epik_Ionization_Penalty>
2.24607e-06

> <r_epik_Ionization_Penalty_Charging>
1.42095e-10

> <r_epik_Ionization_Penalty_Neutral>
2.24593e-06

> <r_epik_State_Penalty>
-0

> <r_epik_Charging_Adjusted_Penalty>
1.42095e-10

> <i_epik_Tot_Q>
0

> <i_epik_Tot_abs_Q>
0

> <r_epik_Metal_State_Penalty>
-0

> <b_epik_Metal_Only>
0

> <s_lp_Force_Field>
OPLS_2005

> <r_lp_Energy>
31.8826

> <b_lp_Chiralities_Consistent>
1

> <s_lp_Variant>
AV-unprocessed.smi:2857-1

> <Gold.Version>
5.8.1

> <Gold.Id.Protein>
6NUR|6NUR_protein|mol2

> <Gold.PLP.Fitness>
51.8436

> <Gold.PLP.PLP>
-42.4296

> <Gold.PLP.part.hbond>
-1.6397

> <Gold.PLP.part.metal>
0.0000

> <Gold.PLP.part.buried>
-6.7168

> <Gold.PLP.part.nonpolar>
-34.6945

> <Gold.PLP.part.repulsive>
0.1205

> <Gold.PLP.ligand.clash>
0.0000

> <Gold.PLP.ligand.torsion>
0.9192

> <Gold.PLP.Chemscore.Hbond>
1.7440

> <Gold.PLP.Chemscore.CHOScore>
2.0000

> <Gold.PLP.Chemscore.Metal>
0.0000

> <Gold.Chemscore.Hbonds>
donor molecule, donor type, donor heavy atom, donor atom, acceptor molecule, acceptor atom, score
      P1  H  7997  8008       L1    11  0.98
      P1  H 10752 10764       L1    14  0.83
      L1  C    15    39       P1  7949  0.55
      L1  C    17    40       P1  7957  1.00

> <Gold.PLP.Chemscore.Internal.Correction>
0.0205

> <Gold.Rescore>
     Score         DG    S(hbond)    S(metal)    S(lipo)     H(rot)  DE(clash)    DE(int)     intcor
     17.97     -18.95       1.47        0.00     124.12       2.32       0.09       0.89       ----

> <Gold.Chemscore.Fitness>
17.9737

> <Gold.Chemscore.DG>
-18.9512

> <Gold.Chemscore.ZeroCoef>
-5.4800

> <Gold.Chemscore.Hbond>
1.4663

> <Gold.Chemscore.Metal>
0.0000

> <Gold.Chemscore.Lipo>
124.1208

> <Gold.Chemscore.Internal_Hbond>
0.0000

> <Gold.Chemscore.DEClash>
0.0855

> <Gold.Chemscore.DEInternal>
0.8920

> <Gold.Chemscore.Rot>
2.3236

> <Gold.Chemscore.Internal.Correction>
   9.000000E+99

> <Gold.Chemscore.Hbonds>
donor molecule, donor type, donor heavy atom, donor atom, acceptor molecule, acceptor atom, score
      P1  H  7997  8008       L1    11  0.77
      P1  H 10752 10764       L1    14  0.20

> <Gold.Chemscore.Hbond.Weighted>
-4.8974

> <Gold.Chemscore.Metal.Weighted>
-0.0000

> <Gold.Chemscore.Lipo.Weighted>
-14.5221

> <Gold.Chemscore.Internal_Hbond.Weighted>
0.0000

> <Gold.Chemscore.DEClash.Weighted>
0.0855

> <Gold.Chemscore.DEInternal.Weighted>
0.8920

> <Gold.Chemscore.Rot.Weighted>
5.9484

> <Gold.Chemscore.Internal.Correction.Weighted>
   9.000000E+99

> <Gold.Protein.RotatedTorsions>
[ 6907 6896 6895 6894 ] final   86.38 input  -60.11 | X-H torsion
[ 7974 7965 7964 7962 ] final  167.67 input  175.53 | X-H torsion
[ 8008 7997 7996 7995 ] final  -92.55 input   59.86 | X-H torsion
[ 10167 10162 10161 10158 ] final  -98.43 input  -65.29 | X-H torsion
[ 10718 10713 10712 10709 ] final  151.04 input   66.30 | X-H torsion
[ 10763 10752 10751 10750 ] final  -45.44 input  -60.55 | X-H torsion
[ 11005 11000 10999 10996 ] final  -71.98 input  -57.11 | X-H torsion

> <Gold.Protein.ActiveResidues>
 VAL166  LYS551  ARG553  GLY616  TRP617  ASP618  TYR619  PRO620  LYS621  CYS622 
 ASP623  PHE694  ASN695  SER759  ASP760  ASP761  ALA762  ILE779  LEU786  VAL792 
 PHE793  MET794  SER795  GLU796  ALA797  LYS798  CYS799  TRP800  GLU811  SER814 

> <Gold.Protein.RotatedAtoms>
  152.5393  134.2439  159.8872 H   0  0  0  0  0  0  0  0  0  0  0  0  # atno 6907 bound_to 6896
  151.2406  133.4395  159.2615 H   0  0  0  0  0  0  0  0  0  0  0  0  # atno 6908 bound_to 6896
  151.0631  134.9763  159.8326 H   0  0  0  0  0  0  0  0  0  0  0  0  # atno 6909 bound_to 6896
  144.7416  139.8795  143.6395 H   0  0  0  0  0  0  0  0  0  0  0  0  # atno 7974 bound_to 7965
  154.7245  140.0508  157.0670 H   0  0  0  0  0  0  0  0  0  0  0  0  # atno 8008 bound_to 7997
  155.0383  140.3165  155.4714 H   0  0  0  0  0  0  0  0  0  0  0  0  # atno 8009 bound_to 7997
  156.2825  140.2137  156.5506 H   0  0  0  0  0  0  0  0  0  0  0  0  # atno 8010 bound_to 7997
  140.2730  143.3331  152.0516 H   0  0  0  0  0  0  0  0  0  0  0  0  # atno 10167 bound_to 10162
  157.2758  131.0826  151.1567 H   0  0  0  0  0  0  0  0  0  0  0  0  # atno 10718 bound_to 10713
  154.0285  135.6660  153.4778 H   0  0  0  0  0  0  0  0  0  0  0  0  # atno 10763 bound_to 10752
  153.0550  135.5061  154.7955 H   0  0  0  0  0  0  0  0  0  0  0  0  # atno 10764 bound_to 10752
  154.6893  135.3058  154.9468 H   0  0  0  0  0  0  0  0  0  0  0  0  # atno 10765 bound_to 10752
  141.1601  133.6833  156.6989 H   0  0  0  0  0  0  0  0  0  0  0  0  # atno 11005 bound_to 11000
  146.1221  139.4241  143.0221 LP  0  0  0  0  0  0  0  0  0  0  0  0  # atno 17320 bound_to 7965
  145.7289  141.0049  143.1362 LP  0  0  0  0  0  0  0  0  0  0  0  0  # atno 17321 bound_to 7965
  139.4983  144.6643  151.6392 LP  0  0  0  0  0  0  0  0  0  0  0  0  # atno 17342 bound_to 10162
  140.5874  143.9840  150.6304 LP  0  0  0  0  0  0  0  0  0  0  0  0  # atno 17343 bound_to 10162
  157.3021  130.6848  149.6170 LP  0  0  0  0  0  0  0  0  0  0  0  0  # atno 17370 bound_to 10713
  155.9663  130.4389  150.5235 LP  0  0  0  0  0  0  0  0  0  0  0  0  # atno 17371 bound_to 10713
  140.2974  134.8192  157.4068 LP  0  0  0  0  0  0  0  0  0  0  0  0  # atno 17394 bound_to 11000
  140.1292  134.5117  155.8119 LP  0  0  0  0  0  0  0  0  0  0  0  0  # atno 17395 bound_to 11000

$$$$
