AV-unprocessed.smi:123|AV-procd|sdf|1146|dock1
  -GOLD-   2262018283D 1   1.00000     0.00000
 Structure written by MMmdl.
 43 45  0  0  0  0  0  0  0  0  1 V2000
  151.4244  139.3798  155.1497 C   0  0  0  0  0  0  0  0  0  0  0  0
  150.2759  138.6408  154.4506 C   0  0  1  0  0  0  0  0  0  0  0  0
  149.8292  137.5382  155.2968 N   0  0  0  0  0  0  0  0  0  0  0  0
  150.6309  136.6287  155.8715 C   0  0  0  0  0  0  0  0  0  0  0  0
  151.8571  136.6403  155.7515 O   0  0  0  0  0  0  0  0  0  0  0  0
  149.9240  135.5487  156.7048 C   0  0  0  0  0  0  0  0  0  0  0  0
  149.9147  134.2165  156.0608 N   0  0  0  0  0  0  0  0  0  0  0  0
  149.0533  134.0029  154.9565 C   0  0  0  0  0  0  0  0  0  0  0  0
  148.3378  134.9055  154.5194 O   0  0  0  0  0  0  0  0  0  0  0  0
  149.0691  132.6564  154.3981 C   0  0  0  0  0  0  0  0  0  0  0  0
  148.2735  132.3576  153.3573 F   0  0  0  0  0  0  0  0  0  0  0  0
  149.8688  131.7006  154.9138 C   0  0  0  0  0  0  0  0  0  0  0  0
  150.7198  131.9248  155.9785 N   0  0  0  0  0  0  0  0  0  0  0  0
  151.5383  130.7701  156.5149 C   0  0  1  0  0  0  0  0  0  0  0  0
  151.1856  129.4146  155.8843 C   0  0  0  0  0  0  0  0  0  0  0  0
  152.5431  128.7464  155.8436 C   0  0  0  0  0  0  0  0  0  0  0  0
  153.4700  129.9256  155.5690 C   0  0  0  0  0  0  0  0  0  0  0  0
  152.8941  131.0189  156.2791 O   0  0  0  0  0  0  0  0  0  0  0  0
  150.7364  133.1965  156.5988 C   0  0  0  0  0  0  0  0  0  0  0  0
  151.4386  133.4149  157.5871 O   0  0  0  0  0  0  0  0  0  0  0  0
  149.1447  139.5581  154.1037 C   0  0  0  0  0  0  0  0  0  0  0  0
  148.9383  140.8989  154.2767 C   0  0  0  0  0  0  0  0  0  0  0  0
  147.6526  141.1803  153.7378 C   0  0  0  0  0  0  0  0  0  0  0  0
  147.1670  139.9888  153.2802 C   0  0  0  0  0  0  0  0  0  0  0  0
  148.0625  138.9882  153.4991 O   0  0  0  0  0  0  0  0  0  0  0  0
  151.8131  140.1810  154.5207 H   0  0  0  0  0  0  0  0  0  0  0  0
  152.2511  138.7037  155.3695 H   0  0  0  0  0  0  0  0  0  0  0  0
  151.0979  139.8247  156.0904 H   0  0  0  0  0  0  0  0  0  0  0  0
  150.6755  138.2198  153.5262 H   0  0  0  0  0  0  0  0  0  0  0  0
  148.8342  137.4528  155.4444 H   0  0  0  0  0  0  0  0  0  0  0  0
  150.3971  135.5071  157.6872 H   0  0  0  0  0  0  0  0  0  0  0  0
  148.9075  135.8840  156.9171 H   0  0  0  0  0  0  0  0  0  0  0  0
  149.8370  130.7184  154.4654 H   0  0  0  0  0  0  0  0  0  0  0  0
  151.3815  130.7652  157.5943 H   0  0  0  0  0  0  0  0  0  0  0  0
  150.4547  128.8801  156.4914 H   0  0  0  0  0  0  0  0  0  0  0  0
  150.7852  129.5310  154.8782 H   0  0  0  0  0  0  0  0  0  0  0  0
  152.7740  128.3085  156.8157 H   0  0  0  0  0  0  0  0  0  0  0  0
  152.6130  127.9632  155.0886 H   0  0  0  0  0  0  0  0  0  0  0  0
  154.4936  129.7371  155.8928 H   0  0  0  0  0  0  0  0  0  0  0  0
  153.4929  130.1550  154.5035 H   0  0  0  0  0  0  0  0  0  0  0  0
  149.6300  141.5919  154.7321 H   0  0  0  0  0  0  0  0  0  0  0  0
  147.1469  142.1334  153.6912 H   0  0  0  0  0  0  0  0  0  0  0  0
  146.2485  139.6889  152.7978 H   0  0  0  0  0  0  0  0  0  0  0  0
  1  2  1  0  0  0  0
  1 26  1  0  0  0  0
  1 27  1  0  0  0  0
  1 28  1  0  0  0  0
  2  3  1  0  0  0  0
  2 21  1  0  0  0  0
  2 29  1  0  0  0  0
  3  4  1  0  0  0  0
  3 30  1  0  0  0  0
  4  5  2  0  0  0  0
  4  6  1  0  0  0  0
  6  7  1  0  0  0  0
  6 31  1  0  0  0  0
  6 32  1  0  0  0  0
  7 19  1  0  0  0  0
  7  8  1  0  0  0  0
  8  9  2  0  0  0  0
  8 10  1  0  0  0  0
 10 11  1  0  0  0  0
 10 12  2  0  0  0  0
 12 13  1  0  0  0  0
 12 33  1  0  0  0  0
 13 14  1  0  0  0  0
 13 19  1  0  0  0  0
 14 18  1  0  0  0  0
 14 15  1  0  0  0  0
 14 34  1  0  0  0  0
 15 16  1  0  0  0  0
 15 35  1  0  0  0  0
 15 36  1  0  0  0  0
 16 17  1  0  0  0  0
 16 37  1  0  0  0  0
 16 38  1  0  0  0  0
 17 18  1  0  0  0  0
 17 39  1  0  0  0  0
 17 40  1  0  0  0  0
 19 20  2  0  0  0  0
 21 25  1  0  0  0  0
 21 22  2  0  0  0  0
 22 23  1  0  0  0  0
 22 41  1  0  0  0  0
 23 24  2  0  0  0  0
 23 42  1  0  0  0  0
 24 25  1  0  0  0  0
 24 43  1  0  0  0  0
M  END
> <s_m_source_file>
AV-unprocessed.smi

> <i_m_source_file_index>
123

> <i_lp_mmshare_version>
43012

> <i_f3d_flags>
0

> <s_epik_input>
bzFbY0hdW2NIXVtjSF1jMVtDQEhdKFtDSDNdKVtOSF1DKD1PKVtDSDJdbjJjKD1PKWMoRilbY0hdbihjMj1PKVtDQEBIXTNbQ0gyXVtDSDJdW0NIMl1PMw==

> <s_epik_cmdline>
J2VwaWtfcHl0aG9uJywgJy1waCcsICc3LjAnLCAnLXRuJywgJzgnLCAnLW1hJywgJzIwMCcsICctbWV0YWxfYmluZGluZycsICctaW1hZScsICc8aW5maWxlLm1hZT4nLCAnLW9tYWUnLCAnPG91dGZpbGUubWFlPic=

> <r_lp_tautomer_probability>
1

> <r_epik_Ionization_Penalty>
2.31906e-08

> <r_epik_Ionization_Penalty_Charging>
3.85846e-09

> <r_epik_Ionization_Penalty_Neutral>
1.93321e-08

> <r_epik_State_Penalty>
-0

> <r_epik_Charging_Adjusted_Penalty>
3.85846e-09

> <i_epik_Tot_Q>
0

> <i_epik_Tot_abs_Q>
0

> <r_epik_Metal_State_Penalty>
-0

> <b_epik_Metal_Only>
0

> <s_epik_Chemistry_Notes>
This compound contains an acetal/aminal-like group ( X-CH(R)-Y where X, Y are N, S, or O) that may be acid/base labile, releasing an aldehyde.

> <s_lp_Force_Field>
OPLS_2005

> <r_lp_Energy>
16.2808

> <b_lp_Chiralities_Consistent>
1

> <s_lp_Variant>
AV-unprocessed.smi:123-4

> <Gold.Version>
5.8.1

> <Gold.Id.Protein>
6NUR|6NUR_protein|mol2

> <Gold.PLP.Fitness>
49.9708

> <Gold.PLP.PLP>
-43.1113

> <Gold.PLP.part.hbond>
-2.0000

> <Gold.PLP.part.metal>
0.0000

> <Gold.PLP.part.buried>
-4.4868

> <Gold.PLP.part.nonpolar>
-39.7212

> <Gold.PLP.part.repulsive>
2.7853

> <Gold.PLP.ligand.clash>
0.0000

> <Gold.PLP.ligand.torsion>
0.5214

> <Gold.PLP.Chemscore.Hbond>
1.7613

> <Gold.PLP.Chemscore.CHOScore>
0.8394

> <Gold.PLP.Chemscore.Metal>
0.0000

> <Gold.Chemscore.Hbonds>
donor molecule, donor type, donor heavy atom, donor atom, acceptor molecule, acceptor atom, score
      P1  H  6896  6907       L1    20  0.64
      P1  H 10752 10764       L1     5  1.00
      L1  C    24    43       P1 10175  0.58

> <Gold.PLP.Chemscore.Internal.Correction>
0.1004

> <Gold.Rescore>
     Score         DG    S(hbond)    S(metal)    S(lipo)     H(rot)  DE(clash)    DE(int)     intcor
     13.20     -14.28       1.93        0.00      69.00       2.23       0.05       1.03       ----

> <Gold.Chemscore.Fitness>
13.1953

> <Gold.Chemscore.DG>
-14.2758

> <Gold.Chemscore.ZeroCoef>
-5.4800

> <Gold.Chemscore.Hbond>
1.9293

> <Gold.Chemscore.Metal>
0.0000

> <Gold.Chemscore.Lipo>
68.9963

> <Gold.Chemscore.Internal_Hbond>
0.0000

> <Gold.Chemscore.DEClash>
0.0462

> <Gold.Chemscore.DEInternal>
1.0342

> <Gold.Chemscore.Rot>
2.2347

> <Gold.Chemscore.Internal.Correction>
   9.000000E+99

> <Gold.Chemscore.Hbonds>
donor molecule, donor type, donor heavy atom, donor atom, acceptor molecule, acceptor atom, score
      P1  H  6896  6907       L1    20  0.63
      P1  H 10752 10764       L1     5  0.99

> <Gold.Chemscore.Hbond.Weighted>
-6.4440

> <Gold.Chemscore.Metal.Weighted>
-0.0000

> <Gold.Chemscore.Lipo.Weighted>
-8.0726

> <Gold.Chemscore.Internal_Hbond.Weighted>
0.0000

> <Gold.Chemscore.DEClash.Weighted>
0.0462

> <Gold.Chemscore.DEInternal.Weighted>
1.0342

> <Gold.Chemscore.Rot.Weighted>
5.7208

> <Gold.Chemscore.Internal.Correction.Weighted>
   9.000000E+99

> <Gold.Protein.RotatedTorsions>
[ 6907 6896 6895 6894 ] final -156.67 input  -60.11 | X-H torsion
[ 7974 7965 7964 7962 ] final   26.14 input  175.53 | X-H torsion
[ 8008 7997 7996 7995 ] final  -17.20 input   59.86 | X-H torsion
[ 10167 10162 10161 10158 ] final -129.09 input  -65.29 | X-H torsion
[ 10718 10713 10712 10709 ] final  130.06 input   66.30 | X-H torsion
[ 10763 10752 10751 10750 ] final  -50.74 input  -60.55 | X-H torsion
[ 11005 11000 10999 10996 ] final -177.09 input  -57.11 | X-H torsion

> <Gold.Protein.ActiveResidues>
 VAL166  LYS551  ARG553  GLY616  TRP617  ASP618  TYR619  PRO620  LYS621  CYS622 
 ASP623  PHE694  ASN695  SER759  ASP760  ASP761  ALA762  ILE779  LEU786  VAL792 
 PHE793  MET794  SER795  GLU796  ALA797  LYS798  CYS799  TRP800  GLU811  SER814 

> <Gold.Protein.RotatedAtoms>
  151.2912  133.4164  159.2632 H   0  0  0  0  0  0  0  0  0  0  0  0  # atno 6907 bound_to 6896
  151.0276  134.9516  159.8104 H   0  0  0  0  0  0  0  0  0  0  0  0  # atno 6908 bound_to 6896
  152.5338  134.2874  159.9082 H   0  0  0  0  0  0  0  0  0  0  0  0  # atno 6909 bound_to 6896
  146.1853  139.7370  142.8871 H   0  0  0  0  0  0  0  0  0  0  0  0  # atno 7974 bound_to 7965
  154.4996  140.2149  155.9374 H   0  0  0  0  0  0  0  0  0  0  0  0  # atno 8008 bound_to 7997
  156.1416  140.3178  155.8472 H   0  0  0  0  0  0  0  0  0  0  0  0  # atno 8009 bound_to 7997
  155.4109  140.0490  157.3022 H   0  0  0  0  0  0  0  0  0  0  0  0  # atno 8010 bound_to 7997
  139.9434  143.6137  152.2497 H   0  0  0  0  0  0  0  0  0  0  0  0  # atno 10167 bound_to 10162
  157.5097  131.1096  150.9311 H   0  0  0  0  0  0  0  0  0  0  0  0  # atno 10718 bound_to 10713
  154.1152  135.6543  153.4892 H   0  0  0  0  0  0  0  0  0  0  0  0  # atno 10763 bound_to 10752
  153.0243  135.5257  154.7152 H   0  0  0  0  0  0  0  0  0  0  0  0  # atno 10764 bound_to 10752
  154.6343  135.2980  155.0149 H   0  0  0  0  0  0  0  0  0  0  0  0  # atno 10765 bound_to 10752
  140.4448  134.6397  157.4774 H   0  0  0  0  0  0  0  0  0  0  0  0  # atno 11005 bound_to 11000
  145.3957  141.0378  143.3099 LP  0  0  0  0  0  0  0  0  0  0  0  0  # atno 17320 bound_to 7965
  144.8386  139.5509  143.6910 LP  0  0  0  0  0  0  0  0  0  0  0  0  # atno 17321 bound_to 7965
  139.6686  144.7661  151.1826 LP  0  0  0  0  0  0  0  0  0  0  0  0  # atno 17342 bound_to 10162
  140.7604  143.5900  150.8806 LP  0  0  0  0  0  0  0  0  0  0  0  0  # atno 17343 bound_to 10162
  156.9955  130.5580  149.5307 LP  0  0  0  0  0  0  0  0  0  0  0  0  # atno 17370 bound_to 10713
  156.0281  130.5374  150.8461 LP  0  0  0  0  0  0  0  0  0  0  0  0  # atno 17371 bound_to 10713
  140.0045  134.6784  155.9476 LP  0  0  0  0  0  0  0  0  0  0  0  0  # atno 17394 bound_to 11000
  141.1690  133.6537  156.4581 LP  0  0  0  0  0  0  0  0  0  0  0  0  # atno 17395 bound_to 11000

$$$$
