AV-unprocessed.smi:1672|AV-procd|sdf|6702|dock2
  -GOLD-   22720 7443D 1   1.00000     0.00000
 Structure written by MMmdl.
 48 50  0  0  0  0  0  0  0  0  2 V2000
  145.0965  133.5153  151.0420 C   0  0  0  0  0  0  0  0  0  0  0  0
  145.9814  133.5080  152.2964 C   0  0  2  0  0  0  0  0  0  0  0  0
  146.0430  134.8947  152.9589 C   0  0  0  0  0  0  0  0  0  0  0  0
  146.9639  134.8872  154.1910 C   0  0  0  0  0  0  0  0  0  0  0  0
  148.3289  134.4209  153.8370 N   0  3  1  0  0  0  0  0  0  0  0  0
  149.2820  134.5422  154.9704 C   0  0  0  0  0  0  0  0  0  0  0  0
  149.4796  136.0043  155.4149 C   0  0  1  0  0  0  0  0  0  0  0  0
  149.7832  136.0230  156.7965 O   0  0  0  0  0  0  0  0  0  0  0  0
  150.6104  136.6992  154.6314 C   0  0  0  0  0  0  0  0  0  0  0  0
  150.4887  138.1511  154.6528 N   0  0  0  0  0  0  0  0  0  0  0  0
  151.4438  139.0813  154.9097 C   0  0  0  0  0  0  0  0  0  0  0  0
  152.8604  138.7116  155.2259 C   0  0  0  0  0  0  0  0  0  0  0  0
  153.2053  138.9817  156.5675 O   0  0  0  0  0  0  0  0  0  0  0  0
  151.0431  140.3521  154.8605 N   0  0  0  0  0  0  0  0  0  0  0  0
  149.7045  140.2382  154.5407 C   0  0  0  0  0  0  0  0  0  0  0  0
  148.7178  141.2309  154.3454 C   0  0  0  0  0  0  0  0  0  0  0  0
  147.3943  140.8676  154.0201 C   0  0  0  0  0  0  0  0  0  0  0  0
  147.0393  139.5098  153.8847 C   0  0  0  0  0  0  0  0  0  0  0  0
  148.0071  138.5049  154.0745 C   0  0  0  0  0  0  0  0  0  0  0  0
  149.3262  138.8729  154.4008 C   0  0  0  0  0  0  0  0  0  0  0  0
  148.2993  133.0614  153.2345 C   0  0  0  0  0  0  0  0  0  0  0  0
  147.4092  133.0321  151.9808 C   0  0  0  0  0  0  0  0  0  0  0  0
  145.4894  134.1918  150.2821 H   0  0  0  0  0  0  0  0  0  0  0  0
  144.0815  133.8348  151.2787 H   0  0  0  0  0  0  0  0  0  0  0  0
  145.0339  132.5202  150.6006 H   0  0  0  0  0  0  0  0  0  0  0  0
  145.5402  132.8103  153.0097 H   0  0  0  0  0  0  0  0  0  0  0  0
  146.4024  135.6332  152.2407 H   0  0  0  0  0  0  0  0  0  0  0  0
  145.0418  135.2128  153.2527 H   0  0  0  0  0  0  0  0  0  0  0  0
  147.0142  135.8961  154.6025 H   0  0  0  0  0  0  0  0  0  0  0  0
  146.5486  134.2462  154.9704 H   0  0  0  0  0  0  0  0  0  0  0  0
  148.9222  133.9676  155.8255 H   0  0  0  0  0  0  0  0  0  0  0  0
  150.2350  134.0938  154.6855 H   0  0  0  0  0  0  0  0  0  0  0  0
  148.5599  136.5689  155.2671 H   0  0  0  0  0  0  0  0  0  0  0  0
  149.5955  135.1711  157.1606 H   0  0  0  0  0  0  0  0  0  0  0  0
  151.5865  136.4022  155.0145 H   0  0  0  0  0  0  0  0  0  0  0  0
  150.5873  136.3803  153.5886 H   0  0  0  0  0  0  0  0  0  0  0  0
  153.0048  137.6470  155.0384 H   0  0  0  0  0  0  0  0  0  0  0  0
  153.5419  139.2393  154.5594 H   0  0  0  0  0  0  0  0  0  0  0  0
  152.7302  138.3870  157.1269 H   0  0  0  0  0  0  0  0  0  0  0  0
  148.9792  142.2740  154.4464 H   0  0  0  0  0  0  0  0  0  0  0  0
  146.6481  141.6345  153.8733 H   0  0  0  0  0  0  0  0  0  0  0  0
  146.0233  139.2407  153.6349 H   0  0  0  0  0  0  0  0  0  0  0  0
  147.7378  137.4646  153.9710 H   0  0  0  0  0  0  0  0  0  0  0  0
  149.3040  132.7430  152.9596 H   0  0  0  0  0  0  0  0  0  0  0  0
  147.9335  132.3428  153.9697 H   0  0  0  0  0  0  0  0  0  0  0  0
  147.3834  132.0205  151.5740 H   0  0  0  0  0  0  0  0  0  0  0  0
  147.8490  133.6639  151.2077 H   0  0  0  0  0  0  0  0  0  0  0  0
  148.6634  135.0527  153.1228 H   0  0  0  0  0  0  0  0  0  0  0  0
  1  2  1  0  0  0  0
  1 23  1  0  0  0  0
  1 24  1  0  0  0  0
  1 25  1  0  0  0  0
  2 22  1  0  0  0  0
  2  3  1  0  0  0  0
  2 26  1  0  0  0  0
  3  4  1  0  0  0  0
  3 27  1  0  0  0  0
  3 28  1  0  0  0  0
  4  5  1  0  0  0  0
  4 29  1  0  0  0  0
  4 30  1  0  0  0  0
  5  6  1  0  0  0  0
  5 21  1  0  0  0  0
  5 48  1  0  0  0  0
  6  7  1  0  0  0  0
  6 31  1  0  0  0  0
  6 32  1  0  0  0  0
  7  8  1  0  0  0  0
  7  9  1  0  0  0  0
  7 33  1  0  0  0  0
  8 34  1  0  0  0  0
  9 10  1  0  0  0  0
  9 35  1  0  0  0  0
  9 36  1  0  0  0  0
 10 20  1  0  0  0  0
 10 11  1  0  0  0  0
 11 12  1  0  0  0  0
 11 14  2  0  0  0  0
 12 13  1  0  0  0  0
 12 37  1  0  0  0  0
 12 38  1  0  0  0  0
 13 39  1  0  0  0  0
 14 15  1  0  0  0  0
 15 20  2  0  0  0  0
 15 16  1  0  0  0  0
 16 17  2  0  0  0  0
 16 40  1  0  0  0  0
 17 18  1  0  0  0  0
 17 41  1  0  0  0  0
 18 19  2  0  0  0  0
 18 42  1  0  0  0  0
 19 20  1  0  0  0  0
 19 43  1  0  0  0  0
 21 22  1  0  0  0  0
 21 44  1  0  0  0  0
 21 45  1  0  0  0  0
 22 46  1  0  0  0  0
 22 47  1  0  0  0  0
M  CHG  1   5   1
M  END
> <s_m_source_file>
AV-unprocessed.smi

> <i_m_source_file_index>
1672

> <i_lp_mmshare_version>
43012

> <i_f3d_flags>
0

> <s_epik_input>
W0NIM11bQ0hdMVtDSDJdW0NIMl1OKFtDSDJdW0NIMl0xKVtDSDJdW0NASF0oW09IXSlbQ0gyXW4oYyhuMilbQ0gyXVtPSF0pYyhjMjMpW2NIXVtjSF1bY0hdW2NIXTM=

> <s_epik_cmdline>
J2VwaWtfcHl0aG9uJywgJy1waCcsICc3LjAnLCAnLXRuJywgJzgnLCAnLW1hJywgJzIwMCcsICctbWV0YWxfYmluZGluZycsICctaW1hZScsICc8aW5maWxlLm1hZT4nLCAnLW9tYWUnLCAnPG91dGZpbGUubWFlPic=

> <r_epik_Ionization_Penalty>
0.0498263

> <r_epik_Ionization_Penalty_Charging>
0.00181365

> <r_epik_Ionization_Penalty_Neutral>
0.0480127

> <r_epik_State_Penalty>
0.0408546

> <r_epik_Charging_Adjusted_Penalty>
0.0426682

> <i_epik_Tot_Q>
1

> <i_epik_Tot_abs_Q>
1

> <r_epik_Metal_State_Penalty>
4.22946e-05

> <b_epik_Metal_Only>
0

> <s_lp_Force_Field>
OPLS_2005

> <r_lp_Energy>
23.0912

> <b_lp_Chiralities_Consistent>
1

> <s_lp_Variant>
AV-unprocessed.smi:1672-2

> <Gold.Version>
5.8.1

> <Gold.Id.Protein>
6NUR|6NUR_protein|mol2

> <Gold.PLP.Fitness>
49.6195

> <Gold.PLP.PLP>
-39.1456

> <Gold.PLP.part.hbond>
-3.0000

> <Gold.PLP.part.metal>
0.0000

> <Gold.PLP.part.buried>
-1.5275

> <Gold.PLP.part.nonpolar>
-35.3956

> <Gold.PLP.part.repulsive>
0.0666

> <Gold.PLP.ligand.clash>
0.0000

> <Gold.PLP.ligand.torsion>
0.8169

> <Gold.PLP.Chemscore.Hbond>
4.0000

> <Gold.PLP.Chemscore.CHOScore>
0.0000

> <Gold.PLP.Chemscore.Metal>
0.0000

> <Gold.Chemscore.Hbonds>
donor molecule, donor type, donor heavy atom, donor atom, acceptor molecule, acceptor atom, score
      L1  H     5    48       P1  7948  2.00
      P1  H  7989  7998       L1    14  1.00
      P1  H  7997  8010       L1    13  1.00

> <Gold.PLP.Chemscore.Internal.Correction>
0.1076

> <Gold.Rescore>
     Score         DG    S(hbond)    S(metal)    S(lipo)     H(rot)  DE(clash)    DE(int)     intcor
     15.29     -16.39       2.34        0.00      89.52       2.88       0.05       1.06       ----

> <Gold.Chemscore.Fitness>
15.2913

> <Gold.Chemscore.DG>
-16.3942

> <Gold.Chemscore.ZeroCoef>
-5.4800

> <Gold.Chemscore.Hbond>
2.3375

> <Gold.Chemscore.Metal>
0.0000

> <Gold.Chemscore.Lipo>
89.5228

> <Gold.Chemscore.Internal_Hbond>
0.0000

> <Gold.Chemscore.DEClash>
0.0460

> <Gold.Chemscore.DEInternal>
1.0569

> <Gold.Chemscore.Rot>
2.8778

> <Gold.Chemscore.Internal.Correction>
   9.000000E+99

> <Gold.Chemscore.Hbonds>
donor molecule, donor type, donor heavy atom, donor atom, acceptor molecule, acceptor atom, score
      L1  H     5    48       P1  7948  0.60
      P1  H  7989  7998       L1    14  0.13
      P1  H  7997  8010       L1    13  0.64

> <Gold.Chemscore.Hbond.Weighted>
-7.8071

> <Gold.Chemscore.Metal.Weighted>
-0.0000

> <Gold.Chemscore.Lipo.Weighted>
-10.4742

> <Gold.Chemscore.Internal_Hbond.Weighted>
0.0000

> <Gold.Chemscore.DEClash.Weighted>
0.0460

> <Gold.Chemscore.DEInternal.Weighted>
1.0569

> <Gold.Chemscore.Rot.Weighted>
7.3671

> <Gold.Chemscore.Internal.Correction.Weighted>
   9.000000E+99

> <Gold.Protein.RotatedTorsions>
[ 6907 6896 6895 6894 ] final   -9.81 input  -60.11 | X-H torsion
[ 7974 7965 7964 7962 ] final  -90.21 input  175.53 | X-H torsion
[ 8008 7997 7996 7995 ] final   64.30 input   59.86 | X-H torsion
[ 10167 10162 10161 10158 ] final   -6.76 input  -65.29 | X-H torsion
[ 10718 10713 10712 10709 ] final  134.87 input   66.30 | X-H torsion
[ 10763 10752 10751 10750 ] final   82.36 input  -60.55 | X-H torsion
[ 11005 11000 10999 10996 ] final   28.63 input  -57.11 | X-H torsion

> <Gold.Protein.ActiveResidues>
 VAL166  LYS551  ARG553  GLY616  TRP617  ASP618  TYR619  PRO620  LYS621  CYS622 
 ASP623  PHE694  ASN695  SER759  ASP760  ASP761  ALA762  ILE779  LEU786  VAL792 
 PHE793  MET794  SER795  GLU796  ALA797  LYS798  CYS799  TRP800  GLU811  SER814 

> <Gold.Protein.RotatedAtoms>
  151.4119  135.0986  159.9587 H   0  0  0  0  0  0  0  0  0  0  0  0  # atno 6907 bound_to 6896
  152.5017  133.8789  159.7346 H   0  0  0  0  0  0  0  0  0  0  0  0  # atno 6908 bound_to 6896
  150.9286  133.6737  159.2844 H   0  0  0  0  0  0  0  0  0  0  0  0  # atno 6909 bound_to 6896
  145.4295  140.9555  143.2136 H   0  0  0  0  0  0  0  0  0  0  0  0  # atno 7974 bound_to 7965
  155.6438  140.3497  155.4724 H   0  0  0  0  0  0  0  0  0  0  0  0  # atno 8008 bound_to 7997
  155.9904  140.1192  157.0667 H   0  0  0  0  0  0  0  0  0  0  0  0  # atno 8009 bound_to 7997
  154.4217  140.1120  156.5544 H   0  0  0  0  0  0  0  0  0  0  0  0  # atno 8010 bound_to 7997
  140.7007  143.6158  150.8660 H   0  0  0  0  0  0  0  0  0  0  0  0  # atno 10167 bound_to 10162
  157.4629  131.1075  150.9898 H   0  0  0  0  0  0  0  0  0  0  0  0  # atno 10718 bound_to 10713
  153.1196  135.4731  154.9173 H   0  0  0  0  0  0  0  0  0  0  0  0  # atno 10763 bound_to 10752
  154.7563  135.3119  154.8467 H   0  0  0  0  0  0  0  0  0  0  0  0  # atno 10764 bound_to 10752
  153.9034  135.6872  153.4808 H   0  0  0  0  0  0  0  0  0  0  0  0  # atno 10765 bound_to 10752
  140.3136  134.2622  155.7729 H   0  0  0  0  0  0  0  0  0  0  0  0  # atno 11005 bound_to 11000
  144.8192  139.5822  143.6994 LP  0  0  0  0  0  0  0  0  0  0  0  0  # atno 17320 bound_to 7965
  146.2614  139.6420  142.9359 LP  0  0  0  0  0  0  0  0  0  0  0  0  # atno 17321 bound_to 7965
  139.9880  143.5878  152.2920 LP  0  0  0  0  0  0  0  0  0  0  0  0  # atno 17342 bound_to 10162
  139.6523  144.7661  151.2123 LP  0  0  0  0  0  0  0  0  0  0  0  0  # atno 17343 bound_to 10162
  157.0689  130.5856  149.5399 LP  0  0  0  0  0  0  0  0  0  0  0  0  # atno 17370 bound_to 10713
  156.0037  130.5120  150.7754 LP  0  0  0  0  0  0  0  0  0  0  0  0  # atno 17371 bound_to 10713
  141.2103  133.7724  156.9943 LP  0  0  0  0  0  0  0  0  0  0  0  0  # atno 17394 bound_to 11000
  140.1003  134.9539  157.1913 LP  0  0  0  0  0  0  0  0  0  0  0  0  # atno 17395 bound_to 11000

$$$$
