AV-unprocessed.smi:813|AV-procd|sdf|3819|dock2
  -GOLD-   22720 1253D 1   1.00000     0.00000
 Structure written by MMmdl.
 35 36  0  0  0  0  0  0  0  0  2 V2000
  149.6247  140.0336  154.6719 C   0  0  0  0  0  0  0  0  0  0  0  0
  150.8852  140.1948  155.5380 C   0  0  2  0  0  0  0  0  0  0  0  0
  151.3182  138.8633  155.9621 N   0  0  0  0  0  0  0  0  0  0  0  0
  152.5126  138.3057  155.7112 C   0  0  0  0  0  0  0  0  0  0  0  0
  153.3578  138.9280  155.0631 O   0  0  0  0  0  0  0  0  0  0  0  0
  152.6525  137.0623  156.2243 N   0  5  0  0  0  0  0  0  0  0  0  0
  153.2053  136.8951  157.4369 C   0  0  0  0  0  0  0  0  0  0  0  0
  153.4704  135.6804  157.9442 N   0  0  0  0  0  0  0  0  0  0  0  0
  154.0454  135.7298  159.2070 N   0  0  0  0  0  0  0  0  0  0  0  0
  154.2068  136.9871  159.6184 C   0  0  0  0  0  0  0  0  0  0  0  0
  153.6736  138.2248  158.5003 S   0  0  0  0  0  0  0  0  0  0  0  0
  150.5256  141.0619  156.7552 C   0  0  0  0  0  0  0  0  0  0  0  0
  149.6783  140.6861  157.5672 O   0  0  0  0  0  0  0  0  0  0  0  0
  151.1741  142.2318  156.8583 N   0  0  0  0  0  0  0  0  0  0  0  0
  150.9966  143.1994  157.9375 C   0  0  0  0  0  0  0  0  0  0  0  0
  151.5117  144.5898  157.5181 C   0  0  0  0  0  0  0  0  0  0  0  0
  152.4011  145.0759  158.6640 C   0  0  0  0  0  0  0  0  0  0  0  0
  152.9652  143.7956  159.2714 C   0  0  0  0  0  0  0  0  0  0  0  0
  151.8072  142.8012  159.1872 C   0  0  0  0  0  0  0  0  0  0  0  0
  149.2572  140.9997  154.3235 H   0  0  0  0  0  0  0  0  0  0  0  0
  148.8154  139.5456  155.2175 H   0  0  0  0  0  0  0  0  0  0  0  0
  149.8357  139.4301  153.7886 H   0  0  0  0  0  0  0  0  0  0  0  0
  151.6721  140.6716  154.9502 H   0  0  0  0  0  0  0  0  0  0  0  0
  150.6604  138.3222  156.5034 H   0  0  0  0  0  0  0  0  0  0  0  0
  154.6448  137.1870  160.5847 H   0  0  0  0  0  0  0  0  0  0  0  0
  151.8556  142.4578  156.1487 H   0  0  0  0  0  0  0  0  0  0  0  0
  149.9388  143.2695  158.1974 H   0  0  0  0  0  0  0  0  0  0  0  0
  152.1118  144.5208  156.6089 H   0  0  0  0  0  0  0  0  0  0  0  0
  150.6972  145.2852  157.3125 H   0  0  0  0  0  0  0  0  0  0  0  0
  153.1797  145.7619  158.3296 H   0  0  0  0  0  0  0  0  0  0  0  0
  151.7944  145.5964  159.4062 H   0  0  0  0  0  0  0  0  0  0  0  0
  153.8002  143.4387  158.6669 H   0  0  0  0  0  0  0  0  0  0  0  0
  153.3258  143.9353  160.2909 H   0  0  0  0  0  0  0  0  0  0  0  0
  151.1771  142.9069  160.0712 H   0  0  0  0  0  0  0  0  0  0  0  0
  152.1576  141.7678  159.1682 H   0  0  0  0  0  0  0  0  0  0  0  0
  1  2  1  0  0  0  0
  1 20  1  0  0  0  0
  1 21  1  0  0  0  0
  1 22  1  0  0  0  0
  2  3  1  0  0  0  0
  2 12  1  0  0  0  0
  2 23  1  0  0  0  0
  3  4  1  0  0  0  0
  3 24  1  0  0  0  0
  4  5  2  0  0  0  0
  4  6  1  0  0  0  0
  6  7  1  0  0  0  0
  7 11  1  0  0  0  0
  7  8  2  0  0  0  0
  8  9  1  0  0  0  0
  9 10  2  0  0  0  0
 10 11  1  0  0  0  0
 10 25  1  0  0  0  0
 12 13  2  0  0  0  0
 12 14  1  0  0  0  0
 14 15  1  0  0  0  0
 14 26  1  0  0  0  0
 15 19  1  0  0  0  0
 15 16  1  0  0  0  0
 15 27  1  0  0  0  0
 16 17  1  0  0  0  0
 16 28  1  0  0  0  0
 16 29  1  0  0  0  0
 17 18  1  0  0  0  0
 17 30  1  0  0  0  0
 17 31  1  0  0  0  0
 18 19  1  0  0  0  0
 18 32  1  0  0  0  0
 18 33  1  0  0  0  0
 19 34  1  0  0  0  0
 19 35  1  0  0  0  0
M  CHG  1   6  -1
M  END
> <s_m_source_file>
AV-unprocessed.smi

> <i_m_source_file_index>
813

> <i_lp_mmshare_version>
43012

> <i_f3d_flags>
0

> <s_epik_input>
W0NIMl0xW0NIMl1bQ0gyXVtDSDJdW0NIXTFbTkhdQyg9TylbQ0BIXShbQ0gzXSlbTkhdQyg9TylbTkhdYzJubltjSF1zMg==

> <s_epik_cmdline>
J2VwaWtfcHl0aG9uJywgJy1waCcsICc3LjAnLCAnLXRuJywgJzgnLCAnLW1hJywgJzIwMCcsICctbWV0YWxfYmluZGluZycsICctaW1hZScsICc8aW5maWxlLm1hZT4nLCAnLW9tYWUnLCAnPG91dGZpbGUubWFlPic=

> <r_lp_tautomer_probability>
1

> <r_epik_Ionization_Penalty>
3.13682

> <r_epik_Ionization_Penalty_Charging>
3.09647

> <r_epik_Ionization_Penalty_Neutral>
0.0403479

> <r_epik_State_Penalty>
3.09328

> <r_epik_Charging_Adjusted_Penalty>
6.18976

> <i_epik_Tot_Q>
-1

> <i_epik_Tot_abs_Q>
1

> <r_epik_Metal_State_Penalty>
0.461392

> <b_epik_Metal_Only>
1

> <s_lp_Force_Field>
OPLS_2005

> <r_lp_Energy>
16.0843

> <b_lp_Chiralities_Consistent>
1

> <s_lp_Variant>
AV-unprocessed.smi:813-3

> <Gold.Version>
5.8.1

> <Gold.Id.Protein>
6NUR|6NUR_protein|mol2

> <Gold.PLP.Fitness>
43.3333

> <Gold.PLP.PLP>
-34.6119

> <Gold.PLP.part.hbond>
-3.8381

> <Gold.PLP.part.metal>
0.0000

> <Gold.PLP.part.buried>
-3.2479

> <Gold.PLP.part.nonpolar>
-27.5437

> <Gold.PLP.part.repulsive>
0.1928

> <Gold.PLP.ligand.clash>
0.0000

> <Gold.PLP.ligand.torsion>
1.0540

> <Gold.PLP.Chemscore.Hbond>
3.5920

> <Gold.PLP.Chemscore.CHOScore>
0.0000

> <Gold.PLP.Chemscore.Metal>
0.0000

> <Gold.Chemscore.Hbonds>
donor molecule, donor type, donor heavy atom, donor atom, acceptor molecule, acceptor atom, score
      P1  H  6896  6909       L1     9  0.27
      P1  H  7997  8009       L1     5  1.00
      P1  H 10752 10765       L1     6  1.70

> <Gold.PLP.Chemscore.Internal.Correction>
0.0534

> <Gold.Rescore>
     Score         DG    S(hbond)    S(metal)    S(lipo)     H(rot)  DE(clash)    DE(int)     intcor
     15.98     -17.12       1.90        0.00      82.81       1.72       0.09       1.05       ----

> <Gold.Chemscore.Fitness>
15.9836

> <Gold.Chemscore.DG>
-17.1250

> <Gold.Chemscore.ZeroCoef>
-5.4800

> <Gold.Chemscore.Hbond>
1.9036

> <Gold.Chemscore.Metal>
0.0000

> <Gold.Chemscore.Lipo>
82.8089

> <Gold.Chemscore.Internal_Hbond>
0.0000

> <Gold.Chemscore.DEClash>
0.0874

> <Gold.Chemscore.DEInternal>
1.0540

> <Gold.Chemscore.Rot>
1.7194

> <Gold.Chemscore.Internal.Correction>
   9.000000E+99

> <Gold.Chemscore.Hbonds>
donor molecule, donor type, donor heavy atom, donor atom, acceptor molecule, acceptor atom, score
      P1  H  6896  6909       L1     9  0.01
      P1  H  7997  8009       L1     5  0.97
      P1  H 10752 10765       L1     6  0.51

> <Gold.Chemscore.Hbond.Weighted>
-6.3580

> <Gold.Chemscore.Metal.Weighted>
-0.0000

> <Gold.Chemscore.Lipo.Weighted>
-9.6886

> <Gold.Chemscore.Internal_Hbond.Weighted>
0.0000

> <Gold.Chemscore.DEClash.Weighted>
0.0874

> <Gold.Chemscore.DEInternal.Weighted>
1.0540

> <Gold.Chemscore.Rot.Weighted>
4.4016

> <Gold.Chemscore.Internal.Correction.Weighted>
   9.000000E+99

> <Gold.Protein.RotatedTorsions>
[ 6907 6896 6895 6894 ] final -154.13 input  -60.11 | X-H torsion
[ 7974 7965 7964 7962 ] final  163.50 input  175.53 | X-H torsion
[ 8008 7997 7996 7995 ] final -129.52 input   59.86 | X-H torsion
[ 10167 10162 10161 10158 ] final -135.82 input  -65.29 | X-H torsion
[ 10718 10713 10712 10709 ] final  169.77 input   66.30 | X-H torsion
[ 10763 10752 10751 10750 ] final -147.53 input  -60.55 | X-H torsion
[ 11005 11000 10999 10996 ] final -178.79 input  -57.11 | X-H torsion

> <Gold.Protein.ActiveResidues>
 VAL166  LYS551  ARG553  GLY616  TRP617  ASP618  TYR619  PRO620  LYS621  CYS622 
 ASP623  PHE694  ASN695  SER759  ASP760  ASP761  ALA762  ILE779  LEU786  VAL792 
 PHE793  MET794  SER795  GLU796  ALA797  LYS798  CYS799  TRP800  GLU811  SER814 

> <Gold.Protein.RotatedAtoms>
  151.2530  133.4340  159.2612 H   0  0  0  0  0  0  0  0  0  0  0  0  # atno 6907 bound_to 6896
  151.0600  134.9731  159.8266 H   0  0  0  0  0  0  0  0  0  0  0  0  # atno 6908 bound_to 6896
  152.5397  134.2480  159.8940 H   0  0  0  0  0  0  0  0  0  0  0  0  # atno 6909 bound_to 6896
  144.7587  139.8191  143.6340 H   0  0  0  0  0  0  0  0  0  0  0  0  # atno 7974 bound_to 7965
  155.2806  140.0444  157.3015 H   0  0  0  0  0  0  0  0  0  0  0  0  # atno 8008 bound_to 7997
  154.5599  140.2343  155.8319 H   0  0  0  0  0  0  0  0  0  0  0  0  # atno 8009 bound_to 7997
  156.2039  140.3018  155.9591 H   0  0  0  0  0  0  0  0  0  0  0  0  # atno 8010 bound_to 7997
  139.8740  143.6921  152.2636 H   0  0  0  0  0  0  0  0  0  0  0  0  # atno 10167 bound_to 10162
  157.0178  131.0223  151.2784 H   0  0  0  0  0  0  0  0  0  0  0  0  # atno 10718 bound_to 10713
  154.8281  135.3358  154.6832 H   0  0  0  0  0  0  0  0  0  0  0  0  # atno 10763 bound_to 10752
  153.7456  135.6943  153.4961 H   0  0  0  0  0  0  0  0  0  0  0  0  # atno 10764 bound_to 10752
  153.2213  135.4448  155.0443 H   0  0  0  0  0  0  0  0  0  0  0  0  # atno 10765 bound_to 10752
  140.4259  134.6563  157.4687 H   0  0  0  0  0  0  0  0  0  0  0  0  # atno 11005 bound_to 11000
  146.1627  139.4747  142.9978 LP  0  0  0  0  0  0  0  0  0  0  0  0  # atno 17320 bound_to 7965
  145.6691  141.0221  143.1667 LP  0  0  0  0  0  0  0  0  0  0  0  0  # atno 17321 bound_to 7965
  139.7257  144.7593  151.0882 LP  0  0  0  0  0  0  0  0  0  0  0  0  # atno 17342 bound_to 10162
  140.7756  143.5151  150.9605 LP  0  0  0  0  0  0  0  0  0  0  0  0  # atno 17343 bound_to 10162
  157.5272  130.8035  149.7876 LP  0  0  0  0  0  0  0  0  0  0  0  0  # atno 17370 bound_to 10713
  156.0113  130.3832  150.2256 LP  0  0  0  0  0  0  0  0  0  0  0  0  # atno 17371 bound_to 10713
  140.0168  134.6607  155.9298 LP  0  0  0  0  0  0  0  0  0  0  0  0  # atno 17394 bound_to 11000
  141.1765  133.6541  156.4851 LP  0  0  0  0  0  0  0  0  0  0  0  0  # atno 17395 bound_to 11000

$$$$
