AV-unprocessed.smi:224|AV-procd|sdf|1711|dock9
  -GOLD-   2262020183D 1   1.00000     0.00000
 Structure written by MMmdl.
 56 59  0  0  0  0  0  0  0  0  2 V2000
  147.3704  140.6923  153.1780 C   0  0  0  0  0  0  0  0  0  0  0  0
  146.9776  141.9272  154.0026 C   0  0  2  0  0  0  0  0  0  0  0  0
  147.9097  142.9530  153.7327 O   0  0  0  0  0  0  0  0  0  0  0  0
  146.9738  141.6583  155.5210 C   0  0  0  0  0  0  0  0  0  0  0  0
  148.3299  141.7934  156.1261 N   0  3  2  0  0  0  0  0  0  0  0  0
  149.3019  140.8735  155.4674 C   0  0  0  0  0  0  0  0  0  0  0  0
  150.7180  140.9897  156.0568 C   0  0  0  0  0  0  0  0  0  0  0  0
  150.6970  140.8477  157.5081 N   0  0  0  0  0  0  0  0  0  0  0  0
  150.7731  139.6078  158.0636 C   0  0  0  0  0  0  0  0  0  0  0  0
  151.9859  139.0855  158.3892 N   0  0  0  0  0  0  0  0  0  0  0  0
  152.0798  137.8601  158.9126 C   0  0  0  0  0  0  0  0  0  0  0  0
  151.1028  136.9968  159.1919 N   0  0  0  0  0  0  0  0  0  0  0  0
  149.8808  137.5165  158.8836 C   0  0  0  0  0  0  0  0  0  0  0  0
  149.6272  138.8030  158.3284 C   0  0  0  0  0  0  0  0  0  0  0  0
  148.2575  138.9864  158.1758 N   0  0  0  0  0  0  0  0  0  0  0  0
  147.7343  137.8686  158.5993 C   0  0  0  0  0  0  0  0  0  0  0  0
  148.6386  136.9247  159.0297 N   0  0  0  0  0  0  0  0  0  0  0  0
  148.3384  135.5945  159.5354 C   0  0  0  0  0  0  0  0  0  0  0  0
  147.2328  135.5875  160.6170 C   0  0  2  0  0  0  0  0  0  0  0  0
  145.9860  135.8767  160.0082 O   0  0  0  0  0  0  0  0  0  0  0  0
  147.4613  136.5872  161.7480 C   0  0  0  0  0  0  0  0  0  0  0  0
  146.8542  135.8831  162.9534 C   0  0  0  0  0  0  0  0  0  0  0  0
  147.2398  134.5354  162.7460 O   0  0  0  0  0  0  0  0  0  0  0  0
  147.1145  134.2408  161.3586 C   0  0  0  0  0  0  0  0  0  0  0  0
  149.8016  141.7956  158.1586 C   0  0  0  0  0  0  0  0  0  0  0  0
  148.3564  141.6858  157.6210 C   0  0  1  0  0  0  0  0  0  0  0  0
  147.5082  142.7711  158.3167 C   0  0  0  0  0  0  0  0  0  0  0  0
  146.6572  139.8798  153.3188 H   0  0  0  0  0  0  0  0  0  0  0  0
  148.3562  140.3207  153.4604 H   0  0  0  0  0  0  0  0  0  0  0  0
  147.3944  140.9232  152.1123 H   0  0  0  0  0  0  0  0  0  0  0  0
  146.0054  142.2896  153.6708 H   0  0  0  0  0  0  0  0  0  0  0  0
  148.2131  143.3144  154.5517 H   0  0  0  0  0  0  0  0  0  0  0  0
  146.2573  142.3417  155.9689 H   0  0  0  0  0  0  0  0  0  0  0  0
  146.5859  140.6602  155.7316 H   0  0  0  0  0  0  0  0  0  0  0  0
  148.9444  139.8481  155.5672 H   0  0  0  0  0  0  0  0  0  0  0  0
  149.3542  141.0772  154.3989 H   0  0  0  0  0  0  0  0  0  0  0  0
  151.3888  140.2595  155.6019 H   0  0  0  0  0  0  0  0  0  0  0  0
  151.1338  141.9694  155.8184 H   0  0  0  0  0  0  0  0  0  0  0  0
  153.0806  137.5216  159.1372 H   0  0  0  0  0  0  0  0  0  0  0  0
  146.6674  137.6991  158.6032 H   0  0  0  0  0  0  0  0  0  0  0  0
  148.0495  134.9614  158.6952 H   0  0  0  0  0  0  0  0  0  0  0  0
  149.2592  135.1684  159.9360 H   0  0  0  0  0  0  0  0  0  0  0  0
  146.1256  135.9988  159.0815 H   0  0  0  0  0  0  0  0  0  0  0  0
  148.5293  136.7200  161.9247 H   0  0  0  0  0  0  0  0  0  0  0  0
  147.0305  137.5720  161.5616 H   0  0  0  0  0  0  0  0  0  0  0  0
  147.2283  136.2688  163.9017 H   0  0  0  0  0  0  0  0  0  0  0  0
  145.7659  135.9618  162.9499 H   0  0  0  0  0  0  0  0  0  0  0  0
  146.1546  133.7546  161.1760 H   0  0  0  0  0  0  0  0  0  0  0  0
  147.8956  133.5365  161.0705 H   0  0  0  0  0  0  0  0  0  0  0  0
  149.8002  141.6703  159.2399 H   0  0  0  0  0  0  0  0  0  0  0  0
  150.1876  142.7993  157.9756 H   0  0  0  0  0  0  0  0  0  0  0  0
  147.9620  140.7058  157.8955 H   0  0  0  0  0  0  0  0  0  0  0  0
  147.6872  142.7697  159.3926 H   0  0  0  0  0  0  0  0  0  0  0  0
  146.4372  142.6196  158.1941 H   0  0  0  0  0  0  0  0  0  0  0  0
  147.7562  143.7667  157.9469 H   0  0  0  0  0  0  0  0  0  0  0  0
  148.6399  142.7327  155.9221 H   0  0  0  0  0  0  0  0  0  0  0  0
  1  2  1  0  0  0  0
  1 28  1  0  0  0  0
  1 29  1  0  0  0  0
  1 30  1  0  0  0  0
  2  3  1  0  0  0  0
  2  4  1  0  0  0  0
  2 31  1  0  0  0  0
  3 32  1  0  0  0  0
  4  5  1  0  0  0  0
  4 33  1  0  0  0  0
  4 34  1  0  0  0  0
  5 26  1  0  0  0  0
  5  6  1  0  0  0  0
  5 56  1  0  0  0  0
  6  7  1  0  0  0  0
  6 35  1  0  0  0  0
  6 36  1  0  0  0  0
  7  8  1  0  0  0  0
  7 37  1  0  0  0  0
  7 38  1  0  0  0  0
  8  9  1  0  0  0  0
  8 25  1  0  0  0  0
  9 14  1  0  0  0  0
  9 10  2  0  0  0  0
 10 11  1  0  0  0  0
 11 12  2  0  0  0  0
 11 39  1  0  0  0  0
 12 13  1  0  0  0  0
 13 17  1  0  0  0  0
 13 14  2  0  0  0  0
 14 15  1  0  0  0  0
 15 16  2  0  0  0  0
 16 17  1  0  0  0  0
 16 40  1  0  0  0  0
 17 18  1  0  0  0  0
 18 19  1  0  0  0  0
 18 41  1  0  0  0  0
 18 42  1  0  0  0  0
 19 24  1  0  0  0  0
 19 20  1  0  0  0  0
 19 21  1  0  0  0  0
 20 43  1  0  0  0  0
 21 22  1  0  0  0  0
 21 44  1  0  0  0  0
 21 45  1  0  0  0  0
 22 23  1  0  0  0  0
 22 46  1  0  0  0  0
 22 47  1  0  0  0  0
 23 24  1  0  0  0  0
 24 48  1  0  0  0  0
 24 49  1  0  0  0  0
 25 26  1  0  0  0  0
 25 50  1  0  0  0  0
 25 51  1  0  0  0  0
 26 27  1  0  0  0  0
 26 52  1  0  0  0  0
 27 53  1  0  0  0  0
 27 54  1  0  0  0  0
 27 55  1  0  0  0  0
M  CHG  1   5   1
M  END
> <s_m_source_file>
AV-unprocessed.smi

> <i_m_source_file_index>
224

> <i_lp_mmshare_version>
43012

> <i_f3d_flags>
0

> <s_epik_input>
W0NIM11bQ0BIXShbT0hdKVtDSDJdTjFbQ0gyXVtDSDJdTihbQ0gyXVtDQEhdMVtDSDNdKWMobltjSF1uMiljKGMyMyluW2NIXW4zW0NIMl1bQ0BAXTQoW09IXSlbQ0gyXVtDSDJdT1tDSDJdNA==

> <s_epik_cmdline>
J2VwaWtfcHl0aG9uJywgJy1waCcsICc3LjAnLCAnLXRuJywgJzgnLCAnLW1hJywgJzIwMCcsICctbWV0YWxfYmluZGluZycsICctaW1hZScsICc8aW5maWxlLm1hZT4nLCAnLW9tYWUnLCAnPG91dGZpbGUubWFlPic=

> <r_lp_tautomer_probability>
1

> <r_epik_Ionization_Penalty>
0.00516958

> <r_epik_Ionization_Penalty_Charging>
0.00509693

> <r_epik_Ionization_Penalty_Neutral>
7.26542e-05

> <r_epik_State_Penalty>
-0

> <r_epik_Charging_Adjusted_Penalty>
0.00509693

> <i_epik_Tot_Q>
1

> <i_epik_Tot_abs_Q>
1

> <r_epik_Metal_State_Penalty>
-0

> <b_epik_Metal_Only>
0

> <s_lp_Force_Field>
OPLS_2005

> <r_lp_Energy>
47.9311

> <b_lp_Chiralities_Consistent>
1

> <s_lp_Variant>
AV-unprocessed.smi:224-5

> <Gold.Version>
5.8.1

> <Gold.Id.Protein>
6NUR|6NUR_protein|mol2

> <Gold.PLP.Fitness>
50.6152

> <Gold.PLP.PLP>
-39.7725

> <Gold.PLP.part.hbond>
-5.9228

> <Gold.PLP.part.metal>
0.0000

> <Gold.PLP.part.buried>
-3.2816

> <Gold.PLP.part.nonpolar>
-31.0803

> <Gold.PLP.part.repulsive>
0.0294

> <Gold.PLP.ligand.clash>
0.0000

> <Gold.PLP.ligand.torsion>
0.8912

> <Gold.PLP.Chemscore.Hbond>
3.9920

> <Gold.PLP.Chemscore.CHOScore>
0.0000

> <Gold.PLP.Chemscore.Metal>
0.0000

> <Gold.Chemscore.Hbonds>
donor molecule, donor type, donor heavy atom, donor atom, acceptor molecule, acceptor atom, score
      L1  H     3    32       P1  8028  1.00
      L1  H     5    56       P1  8028  2.00
      P1  H  6896  6909       L1    12  0.99

> <Gold.PLP.Chemscore.Internal.Correction>
0.6492

> <Gold.Rescore>
     Score         DG    S(hbond)    S(metal)    S(lipo)     H(rot)  DE(clash)    DE(int)     intcor
     10.49     -14.94       2.80        0.00      74.60       3.36       0.77       3.69       ----

> <Gold.Chemscore.Fitness>
10.4893

> <Gold.Chemscore.DG>
-14.9421

> <Gold.Chemscore.ZeroCoef>
-5.4800

> <Gold.Chemscore.Hbond>
2.7959

> <Gold.Chemscore.Metal>
0.0000

> <Gold.Chemscore.Lipo>
74.5999

> <Gold.Chemscore.Internal_Hbond>
0.0000

> <Gold.Chemscore.DEClash>
0.7650

> <Gold.Chemscore.DEInternal>
3.6878

> <Gold.Chemscore.Rot>
3.3611

> <Gold.Chemscore.Internal.Correction>
   9.000000E+99

> <Gold.Chemscore.Hbonds>
donor molecule, donor type, donor heavy atom, donor atom, acceptor molecule, acceptor atom, score
      L1  H     3    32       P1  8028  0.93
      L1  H     5    56       P1  8028  0.95
      P1  H  6896  6909       L1    12  0.84

> <Gold.Chemscore.Hbond.Weighted>
-9.3384

> <Gold.Chemscore.Metal.Weighted>
-0.0000

> <Gold.Chemscore.Lipo.Weighted>
-8.7282

> <Gold.Chemscore.Internal_Hbond.Weighted>
0.0000

> <Gold.Chemscore.DEClash.Weighted>
0.7650

> <Gold.Chemscore.DEInternal.Weighted>
3.6878

> <Gold.Chemscore.Rot.Weighted>
8.6045

> <Gold.Chemscore.Internal.Correction.Weighted>
   9.000000E+99

> <Gold.Protein.RotatedTorsions>
[ 6907 6896 6895 6894 ] final   89.91 input  -60.11 | X-H torsion
[ 7974 7965 7964 7962 ] final -178.38 input  175.53 | X-H torsion
[ 8008 7997 7996 7995 ] final   18.54 input   59.86 | X-H torsion
[ 10167 10162 10161 10158 ] final  -92.84 input  -65.29 | X-H torsion
[ 10718 10713 10712 10709 ] final   73.86 input   66.30 | X-H torsion
[ 10763 10752 10751 10750 ] final  -86.42 input  -60.55 | X-H torsion
[ 11005 11000 10999 10996 ] final   64.34 input  -57.11 | X-H torsion

> <Gold.Protein.ActiveResidues>
 VAL166  LYS551  ARG553  GLY616  TRP617  ASP618  TYR619  PRO620  LYS621  CYS622 
 ASP623  PHE694  ASN695  SER759  ASP760  ASP761  ALA762  ILE779  LEU786  VAL792 
 PHE793  MET794  SER795  GLU796  ALA797  LYS798  CYS799  TRP800  GLU811  SER814 

> <Gold.Protein.RotatedAtoms>
  152.5440  134.1893  159.8666 H   0  0  0  0  0  0  0  0  0  0  0  0  # atno 6907 bound_to 6896
  151.1889  133.4672  159.2602 H   0  0  0  0  0  0  0  0  0  0  0  0  # atno 6908 bound_to 6896
  151.1103  135.0034  159.8546 H   0  0  0  0  0  0  0  0  0  0  0  0  # atno 6909 bound_to 6896
  144.7131  140.0877  143.6423 H   0  0  0  0  0  0  0  0  0  0  0  0  # atno 7974 bound_to 7965
  154.9075  140.3009  155.5284 H   0  0  0  0  0  0  0  0  0  0  0  0  # atno 8008 bound_to 7997
  156.3016  140.2395  156.4046 H   0  0  0  0  0  0  0  0  0  0  0  0  # atno 8009 bound_to 7997
  154.8459  140.0411  157.1561 H   0  0  0  0  0  0  0  0  0  0  0  0  # atno 8010 bound_to 7997
  140.3307  143.2996  151.9945 H   0  0  0  0  0  0  0  0  0  0  0  0  # atno 10167 bound_to 10162
  157.6567  130.9649  150.1129 H   0  0  0  0  0  0  0  0  0  0  0  0  # atno 10718 bound_to 10713
  154.6222  135.5450  153.7588 H   0  0  0  0  0  0  0  0  0  0  0  0  # atno 10763 bound_to 10752
  153.0244  135.6415  154.1424 H   0  0  0  0  0  0  0  0  0  0  0  0  # atno 10764 bound_to 10752
  154.1358  135.2911  155.3153 H   0  0  0  0  0  0  0  0  0  0  0  0  # atno 10765 bound_to 10752
  139.9965  134.6508  156.0001 H   0  0  0  0  0  0  0  0  0  0  0  0  # atno 11005 bound_to 11000
  145.9647  139.2826  143.1134 LP  0  0  0  0  0  0  0  0  0  0  0  0  # atno 17320 bound_to 7965
  145.9182  140.9134  143.0419 LP  0  0  0  0  0  0  0  0  0  0  0  0  # atno 17321 bound_to 7965
  139.4857  144.6237  151.7205 LP  0  0  0  0  0  0  0  0  0  0  0  0  # atno 17342 bound_to 10162
  140.5400  144.0595  150.6084 LP  0  0  0  0  0  0  0  0  0  0  0  0  # atno 17343 bound_to 10162
  156.2021  130.3661  149.8775 LP  0  0  0  0  0  0  0  0  0  0  0  0  # atno 17370 bound_to 10713
  156.6676  130.8807  151.3557 LP  0  0  0  0  0  0  0  0  0  0  0  0  # atno 17371 bound_to 10713
  141.1609  133.6539  156.4315 LP  0  0  0  0  0  0  0  0  0  0  0  0  # atno 17394 bound_to 11000
  140.4808  134.6667  157.5170 LP  0  0  0  0  0  0  0  0  0  0  0  0  # atno 17395 bound_to 11000

$$$$
