AV-unprocessed.smi:1790|AV-procd|sdf|7217|dock9
  -GOLD-   22720 8463D 1   1.00000     0.00000
 Structure written by MMmdl.
 32 33  0  0  0  0  0  0  0  0  2 V2000
  152.5982  139.9370  155.0837 O   0  0  0  0  0  0  0  0  0  0  0  0
  151.6998  139.3394  155.6746 C   0  0  0  0  0  0  0  0  0  0  0  0
  150.8694  138.3079  154.9124 C   0  0  0  0  0  0  0  0  0  0  0  0
  150.0229  138.9802  153.9932 O   0  0  0  0  0  0  0  0  0  0  0  0
  149.2443  139.9919  154.6067 C   0  0  0  0  0  0  0  0  0  0  0  0
  148.5184  140.7710  153.5311 C   0  0  0  0  0  0  0  0  0  0  0  0
  147.4172  141.7412  153.8935 C   0  0  0  0  0  0  0  0  0  0  0  0
  147.0802  140.4497  153.1930 C   0  0  0  0  0  0  0  0  0  0  0  0
  151.3830  139.4869  156.9765 N   0  0  0  0  0  0  0  0  0  0  0  0
  151.9320  140.3403  157.9496 C   0  0  0  0  0  0  0  0  0  0  0  0
  151.6936  141.6784  158.0418 C   0  0  0  0  0  0  0  0  0  0  0  0
  152.2888  142.5075  159.0826 C   0  0  0  0  0  0  0  0  0  0  0  0
  151.9834  143.9841  159.2630 C   0  0  0  0  0  0  0  0  0  0  0  0
  152.5182  144.7080  158.2795 F   0  0  0  0  0  0  0  0  0  0  0  0
  150.6656  144.1794  159.2528 F   0  0  0  0  0  0  0  0  0  0  0  0
  152.4615  144.4335  160.4235 F   0  0  0  0  0  0  0  0  0  0  0  0
  153.0749  141.7748  159.9507 C   0  0  0  0  0  0  0  0  0  0  0  0
  153.3692  140.4567  159.9253 N   0  5  0  0  0  0  0  0  0  0  0  0
  152.8132  139.6922  158.9434 C   0  0  0  0  0  0  0  0  0  0  0  0
  153.0306  138.4822  158.8693 O   0  0  0  0  0  0  0  0  0  0  0  0
  151.5289  137.6159  154.3856 H   0  0  0  0  0  0  0  0  0  0  0  0
  150.2783  137.7305  155.6251 H   0  0  0  0  0  0  0  0  0  0  0  0
  148.5110  139.5490  155.2820 H   0  0  0  0  0  0  0  0  0  0  0  0
  149.8761  140.6650  155.1887 H   0  0  0  0  0  0  0  0  0  0  0  0
  149.1492  141.0505  152.6895 H   0  0  0  0  0  0  0  0  0  0  0  0
  147.1446  141.8297  154.9435 H   0  0  0  0  0  0  0  0  0  0  0  0
  147.3503  142.6610  153.3161 H   0  0  0  0  0  0  0  0  0  0  0  0
  146.7852  140.5074  152.1473 H   0  0  0  0  0  0  0  0  0  0  0  0
  146.5813  139.6781  153.7761 H   0  0  0  0  0  0  0  0  0  0  0  0
  150.6521  138.8824  157.3233 H   0  0  0  0  0  0  0  0  0  0  0  0
  151.0385  142.1756  157.3466 H   0  0  0  0  0  0  0  0  0  0  0  0
  153.5328  142.3317  160.7958 H   0  0  0  0  0  0  0  0  0  0  0  0
  1  2  2  0  0  0  0
  2  3  1  0  0  0  0
  2  9  1  0  0  0  0
  3  4  1  0  0  0  0
  3 21  1  0  0  0  0
  3 22  1  0  0  0  0
  4  5  1  0  0  0  0
  5  6  1  0  0  0  0
  5 23  1  0  0  0  0
  5 24  1  0  0  0  0
  6  8  1  0  0  0  0
  6  7  1  0  0  0  0
  6 25  1  0  0  0  0
  7  8  1  0  0  0  0
  7 26  1  0  0  0  0
  7 27  1  0  0  0  0
  8 28  1  0  0  0  0
  8 29  1  0  0  0  0
  9 10  1  0  0  0  0
  9 30  1  0  0  0  0
 10 19  1  0  0  0  0
 10 11  2  0  0  0  0
 11 12  1  0  0  0  0
 11 31  1  0  0  0  0
 12 13  1  0  0  0  0
 12 17  2  0  0  0  0
 13 14  1  0  0  0  0
 13 15  1  0  0  0  0
 13 16  1  0  0  0  0
 17 18  1  0  0  0  0
 17 32  1  0  0  0  0
 18 19  1  0  0  0  0
 19 20  2  0  0  0  0
M  CHG  1  18  -1
M  END
> <s_m_source_file>
AV-unprocessed.smi

> <i_m_source_file_index>
1790

> <i_lp_mmshare_version>
43012

> <i_f3d_flags>
0

> <s_epik_input>
W0NIMl0xW0NIMl1bQ0hdMVtDSDJdT1tDSDJdQyg9TylbTkhdYzJbY0hdYyhDKEYpKEYpRilbY0hdW25IXWMyPU8=

> <s_epik_cmdline>
J2VwaWtfcHl0aG9uJywgJy1waCcsICc3LjAnLCAnLXRuJywgJzgnLCAnLW1hJywgJzIwMCcsICctbWV0YWxfYmluZGluZycsICctaW1hZScsICc8aW5maWxlLm1hZT4nLCAnLW9tYWUnLCAnPG91dGZpbGUubWFlPic=

> <r_epik_Ionization_Penalty>
2.6027

> <r_epik_Ionization_Penalty_Charging>
0.0561891

> <r_epik_Ionization_Penalty_Neutral>
2.54651

> <r_epik_State_Penalty>
2.71477

> <r_epik_Charging_Adjusted_Penalty>
2.77096

> <i_epik_Tot_Q>
-1

> <i_epik_Tot_abs_Q>
1

> <r_epik_Metal_State_Penalty>
0.521168

> <b_epik_Metal_Only>
0

> <s_lp_Force_Field>
OPLS_2005

> <r_lp_Energy>
28.814

> <b_lp_Chiralities_Consistent>
1

> <s_lp_Variant>
AV-unprocessed.smi:1790-2

> <Gold.Version>
5.8.1

> <Gold.Id.Protein>
6NUR|6NUR_protein|mol2

> <Gold.PLP.Fitness>
45.8575

> <Gold.PLP.PLP>
-43.2873

> <Gold.PLP.part.hbond>
-2.0000

> <Gold.PLP.part.metal>
0.0000

> <Gold.PLP.part.buried>
-2.6145

> <Gold.PLP.part.nonpolar>
-39.3351

> <Gold.PLP.part.repulsive>
0.9579

> <Gold.PLP.ligand.clash>
0.0000

> <Gold.PLP.ligand.torsion>
1.3492

> <Gold.PLP.Chemscore.Hbond>
1.5392

> <Gold.PLP.Chemscore.CHOScore>
0.0000

> <Gold.PLP.Chemscore.Metal>
0.0000

> <Gold.Chemscore.Hbonds>
donor molecule, donor type, donor heavy atom, donor atom, acceptor molecule, acceptor atom, score
      P1  H  7989  7998       L1     1  0.52
      P1  H  7997  8008       L1     1  0.98

> <Gold.PLP.Chemscore.Internal.Correction>
0.6508

> <Gold.Rescore>
     Score         DG    S(hbond)    S(metal)    S(lipo)     H(rot)  DE(clash)    DE(int)     intcor
     12.29     -14.22       1.28        0.00      78.37       1.83       0.62       1.31       ----

> <Gold.Chemscore.Fitness>
12.2879

> <Gold.Chemscore.DG>
-14.2179

> <Gold.Chemscore.ZeroCoef>
-5.4800

> <Gold.Chemscore.Hbond>
1.2753

> <Gold.Chemscore.Metal>
0.0000

> <Gold.Chemscore.Lipo>
78.3747

> <Gold.Chemscore.Internal_Hbond>
0.0000

> <Gold.Chemscore.DEClash>
0.6181

> <Gold.Chemscore.DEInternal>
1.3119

> <Gold.Chemscore.Rot>
1.8326

> <Gold.Chemscore.Internal.Correction>
   9.000000E+99

> <Gold.Chemscore.Hbonds>
donor molecule, donor type, donor heavy atom, donor atom, acceptor molecule, acceptor atom, score
      P1  H  7989  7998       L1     1  0.28
      P1  H  7997  8008       L1     1  0.91

> <Gold.Chemscore.Hbond.Weighted>
-4.2596

> <Gold.Chemscore.Metal.Weighted>
-0.0000

> <Gold.Chemscore.Lipo.Weighted>
-9.1698

> <Gold.Chemscore.Internal_Hbond.Weighted>
0.0000

> <Gold.Chemscore.DEClash.Weighted>
0.6181

> <Gold.Chemscore.DEInternal.Weighted>
1.3119

> <Gold.Chemscore.Rot.Weighted>
4.6916

> <Gold.Chemscore.Internal.Correction.Weighted>
   9.000000E+99

> <Gold.Protein.RotatedTorsions>
[ 6907 6896 6895 6894 ] final -114.06 input  -60.11 | X-H torsion
[ 7974 7965 7964 7962 ] final -179.52 input  175.53 | X-H torsion
[ 8008 7997 7996 7995 ] final  -12.83 input   59.86 | X-H torsion
[ 10167 10162 10161 10158 ] final    3.82 input  -65.29 | X-H torsion
[ 10718 10713 10712 10709 ] final -171.99 input   66.30 | X-H torsion
[ 10763 10752 10751 10750 ] final  -67.64 input  -60.55 | X-H torsion
[ 11005 11000 10999 10996 ] final  -13.46 input  -57.11 | X-H torsion

> <Gold.Protein.ActiveResidues>
 VAL166  LYS551  ARG553  GLY616  TRP617  ASP618  TYR619  PRO620  LYS621  CYS622 
 ASP623  PHE694  ASN695  SER759  ASP760  ASP761  ALA762  ILE779  LEU786  VAL792 
 PHE793  MET794  SER795  GLU796  ALA797  LYS798  CYS799  TRP800  GLU811  SER814 

> <Gold.Protein.RotatedAtoms>
  150.7875  133.8855  159.3297 H   0  0  0  0  0  0  0  0  0  0  0  0  # atno 6907 bound_to 6896
  151.6701  135.0975  160.0206 H   0  0  0  0  0  0  0  0  0  0  0  0  # atno 6908 bound_to 6896
  152.3942  133.6683  159.6297 H   0  0  0  0  0  0  0  0  0  0  0  0  # atno 6909 bound_to 6896
  144.7137  140.0705  143.6429 H   0  0  0  0  0  0  0  0  0  0  0  0  # atno 7974 bound_to 7965
  154.5344  140.2266  155.8748 H   0  0  0  0  0  0  0  0  0  0  0  0  # atno 8008 bound_to 7997
  156.1796  140.3103  155.9088 H   0  0  0  0  0  0  0  0  0  0  0  0  # atno 8009 bound_to 7997
  155.3385  140.0449  157.3035 H   0  0  0  0  0  0  0  0  0  0  0  0  # atno 8010 bound_to 7997
  140.6566  143.7411  150.7665 H   0  0  0  0  0  0  0  0  0  0  0  0  # atno 10167 bound_to 10162
  156.7490  130.9371  151.3114 H   0  0  0  0  0  0  0  0  0  0  0  0  # atno 10718 bound_to 10713
  154.3774  135.6081  153.5772 H   0  0  0  0  0  0  0  0  0  0  0  0  # atno 10763 bound_to 10752
  152.9789  135.5852  154.4450 H   0  0  0  0  0  0  0  0  0  0  0  0  # atno 10764 bound_to 10752
  154.4214  135.2846  155.1951 H   0  0  0  0  0  0  0  0  0  0  0  0  # atno 10765 bound_to 10752
  140.7763  133.8398  155.9252 H   0  0  0  0  0  0  0  0  0  0  0  0  # atno 11005 bound_to 11000
  145.9788  139.2925  143.1054 LP  0  0  0  0  0  0  0  0  0  0  0  0  # atno 17320 bound_to 7965
  145.9034  140.9228  143.0491 LP  0  0  0  0  0  0  0  0  0  0  0  0  # atno 17321 bound_to 7965
  140.1072  143.4733  152.2391 LP  0  0  0  0  0  0  0  0  0  0  0  0  # atno 17342 bound_to 10162
  139.5790  144.7501  151.3689 LP  0  0  0  0  0  0  0  0  0  0  0  0  # atno 17343 bound_to 10162
  157.6785  130.9117  150.0209 LP  0  0  0  0  0  0  0  0  0  0  0  0  # atno 17370 bound_to 10713
  156.1413  130.3642  149.9577 LP  0  0  0  0  0  0  0  0  0  0  0  0  # atno 17371 bound_to 10713
  140.9525  134.1760  157.4717 LP  0  0  0  0  0  0  0  0  0  0  0  0  # atno 17394 bound_to 11000
  139.8748  134.9914  156.5550 LP  0  0  0  0  0  0  0  0  0  0  0  0  # atno 17395 bound_to 11000

$$$$
