AV-unprocessed.smi:157|AV-procd|sdf|1296|dock8
  -GOLD-   2262018583D 1   1.00000     0.00000
 Structure written by MMmdl.
 35 37  0  0  0  0  0  0  0  0  1 V2000
  147.9768  142.8964  154.0865 O   0  0  0  0  0  0  0  0  0  0  0  0
  147.4025  141.9424  154.9548 C   0  0  0  0  0  0  0  0  0  0  0  0
  148.4768  140.9681  155.4688 C   0  0  2  0  0  0  0  0  0  0  0  0
  149.4900  141.6629  156.1960 O   0  0  0  0  0  0  0  0  0  0  0  0
  150.7452  141.1281  155.8998 C   0  0  1  0  0  0  0  0  0  0  0  0
  151.4913  140.8817  157.1758 N   0  0  0  0  0  0  0  0  0  0  0  0
  151.9704  139.6937  157.5637 C   0  0  0  0  0  0  0  0  0  0  0  0
  152.5935  139.7035  158.7295 N   0  0  0  0  0  0  0  0  0  0  0  0
  152.5217  141.0341  159.1376 C   0  0  0  0  0  0  0  0  0  0  0  0
  151.8464  141.7859  158.1859 C   0  0  0  0  0  0  0  0  0  0  0  0
  151.4764  143.1107  158.0534 N   0  0  0  0  0  0  0  0  0  0  0  0
  152.1068  143.9932  158.7620 C   0  0  0  0  0  0  0  0  0  0  0  0
  153.0672  143.8258  159.7491 N   0  0  0  0  0  0  0  0  0  0  0  0
  152.9062  142.9003  160.8571 C   0  0  0  0  0  0  0  0  0  0  0  0
  153.1061  141.4312  160.4638 C   0  0  2  0  0  0  0  0  0  0  0  0
  154.4895  141.1485  160.4084 O   0  0  0  0  0  0  0  0  0  0  0  0
  150.5254  139.8312  155.1206 C   0  0  0  0  0  0  0  0  0  0  0  0
  149.2195  140.1289  154.4145 C   0  0  2  0  0  0  0  0  0  0  0  0
  149.4530  140.8432  153.2146 O   0  0  0  0  0  0  0  0  0  0  0  0
  148.0147  140.2823  156.1811 H   0  0  0  0  0  0  0  0  0  0  0  0
  151.3346  141.8619  155.3478 H   0  0  0  0  0  0  0  0  0  0  0  0
  152.6891  140.8048  161.2531 H   0  0  0  0  0  0  0  0  0  0  0  0
  148.6744  139.2171  154.1696 H   0  0  0  0  0  0  0  0  0  0  0  0
  148.4171  142.4383  153.3869 H   0  0  0  0  0  0  0  0  0  0  0  0
  146.8929  142.4466  155.7760 H   0  0  0  0  0  0  0  0  0  0  0  0
  146.6413  141.3930  154.4004 H   0  0  0  0  0  0  0  0  0  0  0  0
  151.8528  138.7940  156.9777 H   0  0  0  0  0  0  0  0  0  0  0  0
  151.8761  145.0472  158.6019 H   0  0  0  0  0  0  0  0  0  0  0  0
  153.6250  144.6236  160.0176 H   0  0  0  0  0  0  0  0  0  0  0  0
  153.5704  143.1789  161.6758 H   0  0  0  0  0  0  0  0  0  0  0  0
  151.8903  143.0251  161.2346 H   0  0  0  0  0  0  0  0  0  0  0  0
  154.7481  140.7804  161.2398 H   0  0  0  0  0  0  0  0  0  0  0  0
  151.3632  139.6162  154.4564 H   0  0  0  0  0  0  0  0  0  0  0  0
  150.3975  138.9962  155.8101 H   0  0  0  0  0  0  0  0  0  0  0  0
  149.2072  140.2917  152.4874 H   0  0  0  0  0  0  0  0  0  0  0  0
  1  2  1  0  0  0  0
  1 24  1  0  0  0  0
  2  3  1  0  0  0  0
  2 25  1  0  0  0  0
  2 26  1  0  0  0  0
  3 20  1  0  0  0  0
  3 18  1  0  0  0  0
  3  4  1  0  0  0  0
  4  5  1  0  0  0  0
  5 21  1  0  0  0  0
  5  6  1  0  0  0  0
  5 17  1  0  0  0  0
  6 10  1  0  0  0  0
  6  7  1  0  0  0  0
  7  8  2  0  0  0  0
  7 27  1  0  0  0  0
  8  9  1  0  0  0  0
  9 15  1  0  0  0  0
  9 10  2  0  0  0  0
 10 11  1  0  0  0  0
 11 12  2  0  0  0  0
 12 13  1  0  0  0  0
 12 28  1  0  0  0  0
 13 14  1  0  0  0  0
 13 29  1  0  0  0  0
 14 15  1  0  0  0  0
 14 30  1  0  0  0  0
 14 31  1  0  0  0  0
 15 22  1  0  0  0  0
 15 16  1  0  0  0  0
 16 32  1  0  0  0  0
 17 18  1  0  0  0  0
 17 33  1  0  0  0  0
 17 34  1  0  0  0  0
 18 23  1  0  0  0  0
 18 19  1  0  0  0  0
 19 35  1  0  0  0  0
M  END
> <s_m_source_file>
AV-unprocessed.smi

> <i_m_source_file_index>
157

> <i_lp_mmshare_version>
43012

> <i_f3d_flags>
0

> <s_epik_input>
W09IXVtDSDJdW0NASF0xT1tDQEhdKFtDSDJdW0NAQEhdMVtPSF0pbihbY0hdbjIpYyhjMjMpTj1bQ0hdW05IXVtDSDJdW0NASF0zW09IXQ==

> <s_epik_cmdline>
J2VwaWtfcHl0aG9uJywgJy1waCcsICc3LjAnLCAnLXRuJywgJzgnLCAnLW1hJywgJzIwMCcsICctbWV0YWxfYmluZGluZycsICctaW1hZScsICc8aW5maWxlLm1hZT4nLCAnLW9tYWUnLCAnPG91dGZpbGUubWFlPic=

> <r_lp_tautomer_probability>
1

> <r_epik_Ionization_Penalty>
0.0357149

> <r_epik_Ionization_Penalty_Charging>
0.0355056

> <r_epik_Ionization_Penalty_Neutral>
0.000209255

> <r_epik_State_Penalty>
0.0296046

> <r_epik_Charging_Adjusted_Penalty>
0.0651102

> <i_epik_Tot_Q>
0

> <i_epik_Tot_abs_Q>
0

> <r_epik_Metal_State_Penalty>
3.03559e-05

> <b_epik_Metal_Only>
0

> <s_epik_Chemistry_Notes>
This compound has an imine and may undergo hydrolysis. This compound contains an acetal/aminal-like group ( X-CH(R)-Y where X, Y are N, S, or O) that may be acid/base labile, releasing an aldehyde.

> <s_lp_Force_Field>
OPLS_2005

> <r_lp_Energy>
46.6241

> <b_lp_Chiralities_Consistent>
1

> <s_lp_Variant>
AV-unprocessed.smi:157-6

> <Gold.Version>
5.8.1

> <Gold.Id.Protein>
6NUR|6NUR_protein|mol2

> <Gold.PLP.Fitness>
45.9597

> <Gold.PLP.PLP>
-38.5658

> <Gold.PLP.part.hbond>
-4.7913

> <Gold.PLP.part.metal>
0.0000

> <Gold.PLP.part.buried>
-3.6070

> <Gold.PLP.part.nonpolar>
-28.6370

> <Gold.PLP.part.repulsive>
0.1905

> <Gold.PLP.ligand.clash>
0.0000

> <Gold.PLP.ligand.torsion>
0.0116

> <Gold.PLP.Chemscore.Hbond>
2.4716

> <Gold.PLP.Chemscore.CHOScore>
0.0000

> <Gold.PLP.Chemscore.Metal>
0.0000

> <Gold.Chemscore.Hbonds>
donor molecule, donor type, donor heavy atom, donor atom, acceptor molecule, acceptor atom, score
      L1  H    19    35       P1  7957  0.55
      P1  H  7989  7998       L1    19  0.11
      P1  H  8011  8017       L1    19  1.00
      P1  H  8022  8030       L1     1  0.81

> <Gold.PLP.Chemscore.Internal.Correction>
0.0023

> <Gold.Rescore>
     Score         DG    S(hbond)    S(metal)    S(lipo)     H(rot)  DE(clash)    DE(int)     intcor
      5.96      -6.03       1.07        0.00      53.85       3.64       0.07       0.00       ----

> <Gold.Chemscore.Fitness>
5.9586

> <Gold.Chemscore.DG>
-6.0303

> <Gold.Chemscore.ZeroCoef>
-5.4800

> <Gold.Chemscore.Hbond>
1.0654

> <Gold.Chemscore.Metal>
0.0000

> <Gold.Chemscore.Lipo>
53.8512

> <Gold.Chemscore.Internal_Hbond>
0.0000

> <Gold.Chemscore.DEClash>
0.0700

> <Gold.Chemscore.DEInternal>
0.0017

> <Gold.Chemscore.Rot>
3.6362

> <Gold.Chemscore.Internal.Correction>
   9.000000E+99

> <Gold.Chemscore.Hbonds>
donor molecule, donor type, donor heavy atom, donor atom, acceptor molecule, acceptor atom, score
      L1  H    19    35       P1  7957  0.53
      P1  H  7989  7998       L1    19  0.01
      P1  H  8011  8017       L1    19  0.26
      P1  H  8022  8030       L1     1  0.15

> <Gold.Chemscore.Hbond.Weighted>
-3.5584

> <Gold.Chemscore.Metal.Weighted>
-0.0000

> <Gold.Chemscore.Lipo.Weighted>
-6.3006

> <Gold.Chemscore.Internal_Hbond.Weighted>
0.0000

> <Gold.Chemscore.DEClash.Weighted>
0.0700

> <Gold.Chemscore.DEInternal.Weighted>
0.0017

> <Gold.Chemscore.Rot.Weighted>
9.3087

> <Gold.Chemscore.Internal.Correction.Weighted>
   9.000000E+99

> <Gold.Protein.RotatedTorsions>
[ 6907 6896 6895 6894 ] final -158.04 input  -60.11 | X-H torsion
[ 7974 7965 7964 7962 ] final  146.59 input  175.53 | X-H torsion
[ 8008 7997 7996 7995 ] final  137.06 input   59.86 | X-H torsion
[ 10167 10162 10161 10158 ] final   62.34 input  -65.29 | X-H torsion
[ 10718 10713 10712 10709 ] final   27.00 input   66.30 | X-H torsion
[ 10763 10752 10751 10750 ] final  -51.02 input  -60.55 | X-H torsion
[ 11005 11000 10999 10996 ] final  -77.13 input  -57.11 | X-H torsion

> <Gold.Protein.ActiveResidues>
 VAL166  LYS551  ARG553  GLY616  TRP617  ASP618  TYR619  PRO620  LYS621  CYS622 
 ASP623  PHE694  ASN695  SER759  ASP760  ASP761  ALA762  ILE779  LEU786  VAL792 
 PHE793  MET794  SER795  GLU796  ALA797  LYS798  CYS799  TRP800  GLU811  SER814 

> <Gold.Protein.RotatedAtoms>
  151.3121  133.4076  159.2647 H   0  0  0  0  0  0  0  0  0  0  0  0  # atno 6907 bound_to 6896
  151.0106  134.9394  159.8015 H   0  0  0  0  0  0  0  0  0  0  0  0  # atno 6908 bound_to 6896
  152.5299  134.3085  159.9157 H   0  0  0  0  0  0  0  0  0  0  0  0  # atno 6909 bound_to 6896
  144.8659  139.5924  143.5909 H   0  0  0  0  0  0  0  0  0  0  0  0  # atno 7974 bound_to 7965
  156.3003  140.2429  156.3847 H   0  0  0  0  0  0  0  0  0  0  0  0  # atno 8008 bound_to 7997
  154.8669  140.0417  157.1720 H   0  0  0  0  0  0  0  0  0  0  0  0  # atno 8009 bound_to 7997
  154.8837  140.2953  155.5414 H   0  0  0  0  0  0  0  0  0  0  0  0  # atno 8010 bound_to 7997
  140.1449  144.4518  150.6790 H   0  0  0  0  0  0  0  0  0  0  0  0  # atno 10167 bound_to 10162
  157.2143  130.6949  149.6242 H   0  0  0  0  0  0  0  0  0  0  0  0  # atno 10718 bound_to 10713
  154.1198  135.6536  153.4901 H   0  0  0  0  0  0  0  0  0  0  0  0  # atno 10763 bound_to 10752
  153.0229  135.5267  154.7108 H   0  0  0  0  0  0  0  0  0  0  0  0  # atno 10764 bound_to 10752
  154.6312  135.2976  155.0184 H   0  0  0  0  0  0  0  0  0  0  0  0  # atno 10765 bound_to 10752
  141.1658  133.7010  156.7774 H   0  0  0  0  0  0  0  0  0  0  0  0  # atno 11005 bound_to 11000
  146.2895  139.7099  142.9171 LP  0  0  0  0  0  0  0  0  0  0  0  0  # atno 17320 bound_to 7965
  145.4223  141.0407  143.2957 LP  0  0  0  0  0  0  0  0  0  0  0  0  # atno 17321 bound_to 7965
  140.6738  143.2296  151.5559 LP  0  0  0  0  0  0  0  0  0  0  0  0  # atno 17342 bound_to 10162
  139.5454  144.2536  152.1431 LP  0  0  0  0  0  0  0  0  0  0  0  0  # atno 17343 bound_to 10162
  155.9688  130.4541  150.5836 LP  0  0  0  0  0  0  0  0  0  0  0  0  # atno 17370 bound_to 10713
  157.3640  131.0754  151.1613 LP  0  0  0  0  0  0  0  0  0  0  0  0  # atno 17371 bound_to 10713
  140.2419  134.8607  157.3582 LP  0  0  0  0  0  0  0  0  0  0  0  0  # atno 17394 bound_to 11000
  140.1787  134.4517  155.7785 LP  0  0  0  0  0  0  0  0  0  0  0  0  # atno 17395 bound_to 11000

$$$$
