AV-unprocessed.smi:2684|AV-procd|sdf|10381|dock1
  -GOLD-   2272014413D 1   1.00000     0.00000
 Structure written by MMmdl.
 44 45  0  0  0  0  0  0  0  0  1 V2000
  151.3299  145.4962  160.1563 C   0  0  0  0  0  0  0  0  0  0  0  0
  151.9787  144.1652  160.4067 C   0  0  0  0  0  0  0  0  0  0  0  0
  152.3589  143.6012  161.6574 C   0  0  0  0  0  0  0  0  0  0  0  0
  152.9034  142.4015  161.5365 N   0  0  0  0  0  0  0  0  0  0  0  0
  152.9043  142.1633  160.2074 N   0  0  0  0  0  0  0  0  0  0  0  0
  153.4337  140.9119  159.6939 C   0  0  0  0  0  0  0  0  0  0  0  0
  152.3604  139.8220  159.4625 C   0  0  1  0  0  0  0  0  0  0  0  0
  151.0810  140.4396  158.8810 C   0  0  0  0  0  0  0  0  0  0  0  0
  152.8213  138.8183  158.5063 N   0  0  0  0  0  0  0  0  0  0  0  0
  154.1720  138.3211  158.8044 C   0  0  0  0  0  0  0  0  0  0  0  0
  154.2276  137.4292  160.0539 C   0  0  0  0  0  0  0  0  0  0  0  0
  153.5285  136.4196  160.1288 O   0  0  0  0  0  0  0  0  0  0  0  0
  155.0485  137.7719  161.0616 N   0  0  0  0  0  0  0  0  0  0  0  0
  155.2468  137.0643  162.3254 C   0  0  0  0  0  0  0  0  0  0  0  0
  155.4941  135.5668  162.0761 C   0  0  0  0  0  0  0  0  0  0  0  0
  155.5551  134.8006  163.4069 C   0  0  0  0  0  0  0  0  0  0  0  0
  154.3561  135.0109  164.1455 O   0  0  0  0  0  0  0  0  0  0  0  0
  154.1473  136.3760  164.4921 C   0  0  0  0  0  0  0  0  0  0  0  0
  154.0089  137.2279  163.2191 C   0  0  0  0  0  0  0  0  0  0  0  0
  152.3445  143.2081  159.5029 C   0  0  0  0  0  0  0  0  0  0  0  0
  150.5004  145.6742  160.8407 H   0  0  0  0  0  0  0  0  0  0  0  0
  150.9322  145.5699  159.1440 H   0  0  0  0  0  0  0  0  0  0  0  0
  152.0343  146.3175  160.2844 H   0  0  0  0  0  0  0  0  0  0  0  0
  152.2513  144.0250  162.6450 H   0  0  0  0  0  0  0  0  0  0  0  0
  153.9409  141.1347  158.7543 H   0  0  0  0  0  0  0  0  0  0  0  0
  154.2033  140.5504  160.3775 H   0  0  0  0  0  0  0  0  0  0  0  0
  152.0893  139.3529  160.4099 H   0  0  0  0  0  0  0  0  0  0  0  0
  150.6657  141.1868  159.5581 H   0  0  0  0  0  0  0  0  0  0  0  0
  150.3133  139.6814  158.7218 H   0  0  0  0  0  0  0  0  0  0  0  0
  151.2707  140.9288  157.9247 H   0  0  0  0  0  0  0  0  0  0  0  0
  152.7504  139.1820  157.5670 H   0  0  0  0  0  0  0  0  0  0  0  0
  154.5477  137.7584  157.9536 H   0  0  0  0  0  0  0  0  0  0  0  0
  154.8430  139.1670  158.9595 H   0  0  0  0  0  0  0  0  0  0  0  0
  155.5857  138.6184  160.9407 H   0  0  0  0  0  0  0  0  0  0  0  0
  156.0977  137.4824  162.8652 H   0  0  0  0  0  0  0  0  0  0  0  0
  154.6919  135.1549  161.4622 H   0  0  0  0  0  0  0  0  0  0  0  0
  156.4181  135.4167  161.5186 H   0  0  0  0  0  0  0  0  0  0  0  0
  155.6684  133.7329  163.2195 H   0  0  0  0  0  0  0  0  0  0  0  0
  156.4190  135.1133  163.9953 H   0  0  0  0  0  0  0  0  0  0  0  0
  153.2414  136.4517  165.0937 H   0  0  0  0  0  0  0  0  0  0  0  0
  154.9707  136.7339  165.1121 H   0  0  0  0  0  0  0  0  0  0  0  0
  153.8692  138.2764  163.4848 H   0  0  0  0  0  0  0  0  0  0  0  0
  153.1135  136.9199  162.6772 H   0  0  0  0  0  0  0  0  0  0  0  0
  152.2560  143.1854  158.4267 H   0  0  0  0  0  0  0  0  0  0  0  0
  1  2  1  0  0  0  0
  1 21  1  0  0  0  0
  1 22  1  0  0  0  0
  1 23  1  0  0  0  0
  2 20  2  0  0  0  0
  2  3  1  0  0  0  0
  3  4  2  0  0  0  0
  3 24  1  0  0  0  0
  4  5  1  0  0  0  0
  5  6  1  0  0  0  0
  5 20  1  0  0  0  0
  6  7  1  0  0  0  0
  6 25  1  0  0  0  0
  6 26  1  0  0  0  0
  7  8  1  0  0  0  0
  7  9  1  0  0  0  0
  7 27  1  0  0  0  0
  8 28  1  0  0  0  0
  8 29  1  0  0  0  0
  8 30  1  0  0  0  0
  9 10  1  0  0  0  0
  9 31  1  0  0  0  0
 10 11  1  0  0  0  0
 10 32  1  0  0  0  0
 10 33  1  0  0  0  0
 11 12  2  0  0  0  0
 11 13  1  0  0  0  0
 13 14  1  0  0  0  0
 13 34  1  0  0  0  0
 14 19  1  0  0  0  0
 14 15  1  0  0  0  0
 14 35  1  0  0  0  0
 15 16  1  0  0  0  0
 15 36  1  0  0  0  0
 15 37  1  0  0  0  0
 16 17  1  0  0  0  0
 16 38  1  0  0  0  0
 16 39  1  0  0  0  0
 17 18  1  0  0  0  0
 18 19  1  0  0  0  0
 18 40  1  0  0  0  0
 18 41  1  0  0  0  0
 19 42  1  0  0  0  0
 19 43  1  0  0  0  0
 20 44  1  0  0  0  0
M  END
> <s_m_source_file>
AV-unprocessed.smi

> <i_m_source_file_index>
2684

> <i_lp_mmshare_version>
43012

> <i_f3d_flags>
0

> <s_epik_input>
W0NIM11jMVtjSF1ubihbY0hdMSlbQ0gyXVtDQEhdKFtDSDNdKVtOSF1bQ0gyXUMoPU8pW05IXVtDSF0yW0NIMl1bQ0gyXU9bQ0gyXVtDSDJdMg==

> <s_epik_cmdline>
J2VwaWtfcHl0aG9uJywgJy1waCcsICc3LjAnLCAnLXRuJywgJzgnLCAnLW1hJywgJzIwMCcsICctbWV0YWxfYmluZGluZycsICctaW1hZScsICc8aW5maWxlLm1hZT4nLCAnLW9tYWUnLCAnPG91dGZpbGUubWFlPic=

> <r_lp_tautomer_probability>
1

> <r_epik_Ionization_Penalty>
0.968507

> <r_epik_Ionization_Penalty_Charging>
0

> <r_epik_Ionization_Penalty_Neutral>
0.968507

> <r_epik_State_Penalty>
1.01412

> <r_epik_Charging_Adjusted_Penalty>
1.01412

> <i_epik_Tot_Q>
0

> <i_epik_Tot_abs_Q>
0

> <r_epik_Metal_State_Penalty>
1.01401

> <b_epik_Metal_Only>
0

> <s_lp_Force_Field>
OPLS_2005

> <r_lp_Energy>
12.4601

> <b_lp_Chiralities_Consistent>
1

> <s_lp_Variant>
AV-unprocessed.smi:2684-4

> <Gold.Version>
5.8.1

> <Gold.Id.Protein>
6NUR|6NUR_protein|mol2

> <Gold.PLP.Fitness>
43.9855

> <Gold.PLP.PLP>
-42.4725

> <Gold.PLP.part.hbond>
-0.9781

> <Gold.PLP.part.metal>
0.0000

> <Gold.PLP.part.buried>
-6.1197

> <Gold.PLP.part.nonpolar>
-36.4826

> <Gold.PLP.part.repulsive>
0.1142

> <Gold.PLP.ligand.clash>
0.0000

> <Gold.PLP.ligand.torsion>
0.7676

> <Gold.PLP.Chemscore.Hbond>
1.0000

> <Gold.PLP.Chemscore.CHOScore>
0.0000

> <Gold.PLP.Chemscore.Metal>
0.0000

> <Gold.Chemscore.Hbonds>
donor molecule, donor type, donor heavy atom, donor atom, acceptor molecule, acceptor atom, score
      P1  H  6896  6907       L1    12  1.00

> <Gold.PLP.Chemscore.Internal.Correction>
0.0482

> <Gold.Rescore>
     Score         DG    S(hbond)    S(metal)    S(lipo)     H(rot)  DE(clash)    DE(int)     intcor
     14.87     -16.48       1.00        0.00     108.64       1.97       0.01       1.59       ----

> <Gold.Chemscore.Fitness>
14.8719

> <Gold.Chemscore.DG>
-16.4768

> <Gold.Chemscore.ZeroCoef>
-5.4800

> <Gold.Chemscore.Hbond>
0.9995

> <Gold.Chemscore.Metal>
0.0000

> <Gold.Chemscore.Lipo>
108.6390

> <Gold.Chemscore.Internal_Hbond>
0.0000

> <Gold.Chemscore.DEClash>
0.0106

> <Gold.Chemscore.DEInternal>
1.5943

> <Gold.Chemscore.Rot>
1.9736

> <Gold.Chemscore.Internal.Correction>
   9.000000E+99

> <Gold.Chemscore.Hbonds>
donor molecule, donor type, donor heavy atom, donor atom, acceptor molecule, acceptor atom, score
      P1  H  6896  6907       L1    12  0.97

> <Gold.Chemscore.Hbond.Weighted>
-3.3384

> <Gold.Chemscore.Metal.Weighted>
-0.0000

> <Gold.Chemscore.Lipo.Weighted>
-12.7108

> <Gold.Chemscore.Internal_Hbond.Weighted>
0.0000

> <Gold.Chemscore.DEClash.Weighted>
0.0106

> <Gold.Chemscore.DEInternal.Weighted>
1.5943

> <Gold.Chemscore.Rot.Weighted>
5.0523

> <Gold.Chemscore.Internal.Correction.Weighted>
   9.000000E+99

> <Gold.Protein.RotatedTorsions>
[ 6907 6896 6895 6894 ] final   43.16 input  -60.11 | X-H torsion
[ 7974 7965 7964 7962 ] final  -38.29 input  175.53 | X-H torsion
[ 8008 7997 7996 7995 ] final -122.21 input   59.86 | X-H torsion
[ 10167 10162 10161 10158 ] final   21.35 input  -65.29 | X-H torsion
[ 10718 10713 10712 10709 ] final  -64.39 input   66.30 | X-H torsion
[ 10763 10752 10751 10750 ] final  -53.68 input  -60.55 | X-H torsion
[ 11005 11000 10999 10996 ] final -120.95 input  -57.11 | X-H torsion

> <Gold.Protein.ActiveResidues>
 VAL166  LYS551  ARG553  GLY616  TRP617  ASP618  TYR619  PRO620  LYS621  CYS622 
 ASP623  PHE694  ASN695  SER759  ASP760  ASP761  ALA762  ILE779  LEU786  VAL792 
 PHE793  MET794  SER795  GLU796  ALA797  LYS798  CYS799  TRP800  GLU811  SER814 

> <Gold.Protein.RotatedAtoms>
  152.2169  134.8449  160.0490 H   0  0  0  0  0  0  0  0  0  0  0  0  # atno 6907 bound_to 6896
  151.9247  133.3590  159.3917 H   0  0  0  0  0  0  0  0  0  0  0  0  # atno 6908 bound_to 6896
  150.6990  134.4524  159.5386 H   0  0  0  0  0  0  0  0  0  0  0  0  # atno 6909 bound_to 6896
  146.0500  140.6494  142.9046 H   0  0  0  0  0  0  0  0  0  0  0  0  # atno 7974 bound_to 7965
  155.1605  140.0406  157.2841 H   0  0  0  0  0  0  0  0  0  0  0  0  # atno 8008 bound_to 7997
  154.6340  140.2531  155.7373 H   0  0  0  0  0  0  0  0  0  0  0  0  # atno 8009 bound_to 7997
  156.2499  140.2869  156.0704 H   0  0  0  0  0  0  0  0  0  0  0  0  # atno 8010 bound_to 7997
  140.5433  143.9638  150.6532 H   0  0  0  0  0  0  0  0  0  0  0  0  # atno 10167 bound_to 10162
  156.0732  130.4233  150.1413 H   0  0  0  0  0  0  0  0  0  0  0  0  # atno 10718 bound_to 10713
  154.1627  135.6472  153.4990 H   0  0  0  0  0  0  0  0  0  0  0  0  # atno 10763 bound_to 10752
  153.0106  135.5364  154.6694 H   0  0  0  0  0  0  0  0  0  0  0  0  # atno 10764 bound_to 10752
  154.6012  135.2944  155.0505 H   0  0  0  0  0  0  0  0  0  0  0  0  # atno 10765 bound_to 10752
  141.0106  134.0270  157.3418 H   0  0  0  0  0  0  0  0  0  0  0  0  # atno 11005 bound_to 11000
  144.7117  140.4064  143.7075 LP  0  0  0  0  0  0  0  0  0  0  0  0  # atno 17320 bound_to 7965
  145.6741  139.1605  143.2738 LP  0  0  0  0  0  0  0  0  0  0  0  0  # atno 17321 bound_to 7965
  140.3045  143.3239  152.0940 LP  0  0  0  0  0  0  0  0  0  0  0  0  # atno 17342 bound_to 10162
  139.4997  144.6676  151.6320 LP  0  0  0  0  0  0  0  0  0  0  0  0  # atno 17343 bound_to 10162
  156.9460  130.9759  151.3507 LP  0  0  0  0  0  0  0  0  0  0  0  0  # atno 17370 bound_to 10713
  157.5814  130.8379  149.8528 LP  0  0  0  0  0  0  0  0  0  0  0  0  # atno 17371 bound_to 10713
  139.9088  135.0186  156.7601 LP  0  0  0  0  0  0  0  0  0  0  0  0  # atno 17394 bound_to 11000
  140.6740  133.9534  155.7872 LP  0  0  0  0  0  0  0  0  0  0  0  0  # atno 17395 bound_to 11000

$$$$
