AV-unprocessed.smi:3105|AV-procd|sdf|11822|dock1
  -GOLD-   2272017193D 1   1.00000     0.00000
 Structure written by MMmdl.
 34 34  0  0  0  0  0  0  0  0  2 V2000
  153.1045  139.0126  158.8549 C   0  0  0  0  0  0  0  0  0  0  0  0
  152.7010  140.4291  158.4046 C   0  0  1  0  0  0  0  0  0  0  0  0
  151.6231  140.3452  157.3915 N   0  3  0  0  0  0  0  0  0  0  0  0
  151.9451  139.5498  156.1863 C   0  0  0  0  0  0  0  0  0  0  0  0
  150.7349  139.4216  155.2399 C   0  0  0  0  0  0  0  0  0  0  0  0
  150.6596  138.0931  154.4733 C   0  0  0  0  0  0  0  0  0  0  0  0
  149.7690  138.0265  153.4815 N   0  0  0  0  0  0  0  0  0  0  0  0
  151.3878  137.1439  154.7592 O   0  0  0  0  0  0  0  0  0  0  0  0
  152.2420  141.3235  159.5885 C   0  0  1  0  0  0  0  0  0  0  0  0
  153.3284  141.5130  160.6636 C   0  0  0  0  0  0  0  0  0  0  0  0
  151.7787  142.6287  159.1279 N   0  0  0  0  0  0  0  0  0  0  0  0
  152.5201  143.6447  158.5602 C   0  0  0  0  0  0  0  0  0  0  0  0
  151.6639  144.6726  158.2874 C   0  0  0  0  0  0  0  0  0  0  0  0
  150.3999  144.1841  158.7199 C   0  0  0  0  0  0  0  0  0  0  0  0
  150.4708  142.9609  159.2188 N   0  0  0  0  0  0  0  0  0  0  0  0
  153.9582  139.0332  159.5314 H   0  0  0  0  0  0  0  0  0  0  0  0
  153.3943  138.3898  158.0087 H   0  0  0  0  0  0  0  0  0  0  0  0
  152.2837  138.5108  159.3685 H   0  0  0  0  0  0  0  0  0  0  0  0
  153.5687  140.9019  157.9417 H   0  0  0  0  0  0  0  0  0  0  0  0
  150.7826  139.9906  157.8243 H   0  0  0  0  0  0  0  0  0  0  0  0
  152.7808  140.0097  155.6563 H   0  0  0  0  0  0  0  0  0  0  0  0
  152.2735  138.5555  156.4887 H   0  0  0  0  0  0  0  0  0  0  0  0
  149.8208  139.5262  155.8261 H   0  0  0  0  0  0  0  0  0  0  0  0
  150.7343  140.2421  154.5215 H   0  0  0  0  0  0  0  0  0  0  0  0
  149.6751  137.1797  152.9390 H   0  0  0  0  0  0  0  0  0  0  0  0
  149.1904  138.8279  153.2730 H   0  0  0  0  0  0  0  0  0  0  0  0
  151.3892  140.8387  160.0667 H   0  0  0  0  0  0  0  0  0  0  0  0
  153.5821  140.5735  161.1534 H   0  0  0  0  0  0  0  0  0  0  0  0
  152.9897  142.1957  161.4436 H   0  0  0  0  0  0  0  0  0  0  0  0
  154.2437  141.9262  160.2383 H   0  0  0  0  0  0  0  0  0  0  0  0
  153.5847  143.5549  158.4012 H   0  0  0  0  0  0  0  0  0  0  0  0
  151.9033  145.6274  157.8434 H   0  0  0  0  0  0  0  0  0  0  0  0
  149.4400  144.6780  158.6860 H   0  0  0  0  0  0  0  0  0  0  0  0
  151.4457  141.2873  157.0711 H   0  0  0  0  0  0  0  0  0  0  0  0
  1  2  1  0  0  0  0
  1 16  1  0  0  0  0
  1 17  1  0  0  0  0
  1 18  1  0  0  0  0
  2  3  1  0  0  0  0
  2  9  1  0  0  0  0
  2 19  1  0  0  0  0
  3  4  1  0  0  0  0
  3 20  1  0  0  0  0
  3 34  1  0  0  0  0
  4  5  1  0  0  0  0
  4 21  1  0  0  0  0
  4 22  1  0  0  0  0
  5  6  1  0  0  0  0
  5 23  1  0  0  0  0
  5 24  1  0  0  0  0
  6  7  1  0  0  0  0
  6  8  2  0  0  0  0
  7 25  1  0  0  0  0
  7 26  1  0  0  0  0
  9 10  1  0  0  0  0
  9 11  1  0  0  0  0
  9 27  1  0  0  0  0
 10 28  1  0  0  0  0
 10 29  1  0  0  0  0
 10 30  1  0  0  0  0
 11 15  1  0  0  0  0
 11 12  1  0  0  0  0
 12 13  2  0  0  0  0
 12 31  1  0  0  0  0
 13 14  1  0  0  0  0
 13 32  1  0  0  0  0
 14 15  2  0  0  0  0
 14 33  1  0  0  0  0
M  CHG  1   3   1
M  END
> <s_m_source_file>
AV-unprocessed.smi

> <i_m_source_file_index>
3105

> <i_lp_mmshare_version>
43012

> <i_f3d_flags>
0

> <s_epik_input>
W05IMl1DKD1PKVtDSDJdW0NIMl1bTkhdW0NAQEhdKFtDSDNdKVtDQEhdKFtDSDNdKW4xW2NIXVtjSF1bY0hdbjE=

> <s_epik_cmdline>
J2VwaWtfcHl0aG9uJywgJy1waCcsICc3LjAnLCAnLXRuJywgJzgnLCAnLW1hJywgJzIwMCcsICctbWV0YWxfYmluZGluZycsICctaW1hZScsICc8aW5maWxlLm1hZT4nLCAnLW9tYWUnLCAnPG91dGZpbGUubWFlPic=

> <r_lp_tautomer_probability>
1

> <r_epik_Ionization_Penalty>
0.00475669

> <r_epik_Ionization_Penalty_Charging>
0.00474654

> <r_epik_Ionization_Penalty_Neutral>
1.01546e-05

> <r_epik_State_Penalty>
-0

> <r_epik_Charging_Adjusted_Penalty>
0.00474654

> <i_epik_Tot_Q>
1

> <i_epik_Tot_abs_Q>
1

> <r_epik_Metal_State_Penalty>
-0

> <b_epik_Metal_Only>
0

> <s_lp_Force_Field>
OPLS_2005

> <r_lp_Energy>
4.89455

> <b_lp_Chiralities_Consistent>
1

> <s_lp_Variant>
AV-unprocessed.smi:3105-4

> <Gold.Version>
5.8.1

> <Gold.Id.Protein>
6NUR|6NUR_protein|mol2

> <Gold.PLP.Fitness>
42.7490

> <Gold.PLP.PLP>
-34.9252

> <Gold.PLP.part.hbond>
-4.0948

> <Gold.PLP.part.metal>
0.0000

> <Gold.PLP.part.buried>
-2.2154

> <Gold.PLP.part.nonpolar>
-28.6377

> <Gold.PLP.part.repulsive>
0.3693

> <Gold.PLP.ligand.clash>
0.0000

> <Gold.PLP.ligand.torsion>
0.4248

> <Gold.PLP.Chemscore.Hbond>
1.8450

> <Gold.PLP.Chemscore.CHOScore>
0.9998

> <Gold.PLP.Chemscore.Metal>
0.0000

> <Gold.Chemscore.Hbonds>
donor molecule, donor type, donor heavy atom, donor atom, acceptor molecule, acceptor atom, score
      L1  H     7    25       P1  7948  1.00
      P1  H 10752 10765       L1     8  0.62
      L1  C    14    33       P1  8029  1.00

> <Gold.PLP.Chemscore.Internal.Correction>
0.1392

> <Gold.Rescore>
     Score         DG    S(hbond)    S(metal)    S(lipo)     H(rot)  DE(clash)    DE(int)     intcor
     13.12     -14.17       1.90        0.00      82.41       2.85       0.00       1.05       ----

> <Gold.Chemscore.Fitness>
13.1173

> <Gold.Chemscore.DG>
-14.1719

> <Gold.Chemscore.ZeroCoef>
-5.4800

> <Gold.Chemscore.Hbond>
1.8981

> <Gold.Chemscore.Metal>
0.0000

> <Gold.Chemscore.Lipo>
82.4060

> <Gold.Chemscore.Internal_Hbond>
0.0000

> <Gold.Chemscore.DEClash>
0.0004

> <Gold.Chemscore.DEInternal>
1.0542

> <Gold.Chemscore.Rot>
2.8473

> <Gold.Chemscore.Internal.Correction>
   9.000000E+99

> <Gold.Chemscore.Hbonds>
donor molecule, donor type, donor heavy atom, donor atom, acceptor molecule, acceptor atom, score
      L1  H     7    25       P1  7948  0.47
      L1  H     7    26       P1  7957  0.01
      P1  H 10752 10765       L1     8  0.62

> <Gold.Chemscore.Hbond.Weighted>
-6.3397

> <Gold.Chemscore.Metal.Weighted>
-0.0000

> <Gold.Chemscore.Lipo.Weighted>
-9.6415

> <Gold.Chemscore.Internal_Hbond.Weighted>
0.0000

> <Gold.Chemscore.DEClash.Weighted>
0.0004

> <Gold.Chemscore.DEInternal.Weighted>
1.0542

> <Gold.Chemscore.Rot.Weighted>
7.2892

> <Gold.Chemscore.Internal.Correction.Weighted>
   9.000000E+99

> <Gold.Protein.RotatedTorsions>
[ 6907 6896 6895 6894 ] final  -33.82 input  -60.11 | X-H torsion
[ 7974 7965 7964 7962 ] final   42.01 input  175.53 | X-H torsion
[ 8008 7997 7996 7995 ] final  -88.81 input   59.86 | X-H torsion
[ 10167 10162 10161 10158 ] final  -69.50 input  -65.29 | X-H torsion
[ 10718 10713 10712 10709 ] final   52.29 input   66.30 | X-H torsion
[ 10763 10752 10751 10750 ] final  166.09 input  -60.55 | X-H torsion
[ 11005 11000 10999 10996 ] final  140.61 input  -57.11 | X-H torsion

> <Gold.Protein.ActiveResidues>
 VAL166  LYS551  ARG553  GLY616  TRP617  ASP618  TYR619  PRO620  LYS621  CYS622 
 ASP623  PHE694  ASN695  SER759  ASP760  ASP761  ALA762  ILE779  LEU786  VAL792 
 PHE793  MET794  SER795  GLU796  ALA797  LYS798  CYS799  TRP800  GLU811  SER814 

> <Gold.Protein.RotatedAtoms>
  151.0607  134.9734  159.8258 H   0  0  0  0  0  0  0  0  0  0  0  0  # atno 6907 bound_to 6896
  152.5395  134.2422  159.8876 H   0  0  0  0  0  0  0  0  0  0  0  0  # atno 6908 bound_to 6896
  151.2441  133.4341  159.2642 H   0  0  0  0  0  0  0  0  0  0  0  0  # atno 6909 bound_to 6896
  146.0776  139.5350  142.9557 H   0  0  0  0  0  0  0  0  0  0  0  0  # atno 7974 bound_to 7965
  154.6792  140.0549  157.0247 H   0  0  0  0  0  0  0  0  0  0  0  0  # atno 8008 bound_to 7997
  155.0977  140.3225  155.4537 H   0  0  0  0  0  0  0  0  0  0  0  0  # atno 8009 bound_to 7997
  156.2687  140.2037  156.6103 H   0  0  0  0  0  0  0  0  0  0  0  0  # atno 8010 bound_to 7997
  140.5426  143.2314  151.7061 H   0  0  0  0  0  0  0  0  0  0  0  0  # atno 10167 bound_to 10162
  157.5061  130.8469  149.8376 H   0  0  0  0  0  0  0  0  0  0  0  0  # atno 10718 bound_to 10713
  154.3338  135.2754  155.2458 H   0  0  0  0  0  0  0  0  0  0  0  0  # atno 10763 bound_to 10752
  154.4759  135.5871  153.6358 H   0  0  0  0  0  0  0  0  0  0  0  0  # atno 10764 bound_to 10752
  152.9864  135.6099  154.3532 H   0  0  0  0  0  0  0  0  0  0  0  0  # atno 10765 bound_to 10752
  140.0340  134.9338  157.0717 H   0  0  0  0  0  0  0  0  0  0  0  0  # atno 11005 bound_to 11000
  145.6277  141.0310  143.1880 LP  0  0  0  0  0  0  0  0  0  0  0  0  # atno 17320 bound_to 7965
  144.7272  139.7839  143.7360 LP  0  0  0  0  0  0  0  0  0  0  0  0  # atno 17321 bound_to 7965
  139.4994  144.3945  152.0245 LP  0  0  0  0  0  0  0  0  0  0  0  0  # atno 17342 bound_to 10162
  140.3055  144.3597  150.6048 LP  0  0  0  0  0  0  0  0  0  0  0  0  # atno 17343 bound_to 10162
  156.0259  130.3780  150.1825 LP  0  0  0  0  0  0  0  0  0  0  0  0  # atno 17370 bound_to 10713
  157.0015  130.9923  151.3389 LP  0  0  0  0  0  0  0  0  0  0  0  0  # atno 17371 bound_to 10713
  140.4178  134.1913  155.7164 LP  0  0  0  0  0  0  0  0  0  0  0  0  # atno 17394 bound_to 11000
  141.1847  133.8338  157.1130 LP  0  0  0  0  0  0  0  0  0  0  0  0  # atno 17395 bound_to 11000

$$$$
