AV-unprocessed.smi:2136|AV-procd|sdf|8703|dock9
  -GOLD-   2272011463D 1   1.00000     0.00000
 Structure written by MMmdl.
 42 43  0  0  0  0  0  0  0  0  1 V2000
  159.8221  136.3832  158.2857 C   0  0  0  0  0  0  0  0  0  0  0  0
  158.0428  136.8448  158.3718 S   0  0  0  0  0  0  0  0  0  0  0  0
  157.9383  138.2977  158.1723 O   0  0  0  0  0  0  0  0  0  0  0  0
  157.2944  135.9476  157.4780 O   0  0  0  0  0  0  0  0  0  0  0  0
  157.6123  136.4406  160.0241 N   0  0  0  0  0  0  0  0  0  0  0  0
  158.7132  135.8240  160.8052 C   0  0  0  0  0  0  0  0  0  0  0  0
  158.2506  135.2279  162.1398 C   0  0  0  0  0  0  0  0  0  0  0  0
  157.5421  136.2831  162.9797 C   0  0  0  0  0  0  0  0  0  0  0  0
  156.3390  136.7871  162.1894 C   0  0  0  0  0  0  0  0  0  0  0  0
  156.7319  137.3678  160.8083 C   0  0  2  0  0  0  0  0  0  0  0  0
  155.4419  137.8391  160.1208 C   0  0  0  0  0  0  0  0  0  0  0  0
  154.6443  137.0108  159.6818 O   0  0  0  0  0  0  0  0  0  0  0  0
  155.2502  139.1656  160.0325 N   0  0  0  0  0  0  0  0  0  0  0  0
  154.0865  139.8048  159.4328 C   0  0  0  0  0  0  0  0  0  0  0  0
  153.5020  140.8911  160.3500 C   0  0  0  0  0  0  0  0  0  0  0  0
  152.1113  141.3111  159.9186 C   0  0  0  0  0  0  0  0  0  0  0  0
  151.3977  142.2982  160.6289 C   0  0  0  0  0  0  0  0  0  0  0  0
  150.1063  142.6483  160.1898 C   0  0  0  0  0  0  0  0  0  0  0  0
  149.5830  141.9941  159.0564 C   0  0  0  0  0  0  0  0  0  0  0  0
  150.2573  141.0472  158.3691 N   0  0  0  0  0  0  0  0  0  0  0  0
  151.4952  140.7175  158.7966 C   0  0  0  0  0  0  0  0  0  0  0  0
  160.1887  136.5531  157.2739 H   0  0  0  0  0  0  0  0  0  0  0  0
  159.9442  135.3311  158.5399 H   0  0  0  0  0  0  0  0  0  0  0  0
  160.3947  136.9969  158.9806 H   0  0  0  0  0  0  0  0  0  0  0  0
  159.1814  135.0318  160.2216 H   0  0  0  0  0  0  0  0  0  0  0  0
  159.4813  136.5767  160.9854 H   0  0  0  0  0  0  0  0  0  0  0  0
  157.5846  134.3833  161.9582 H   0  0  0  0  0  0  0  0  0  0  0  0
  159.1086  134.8342  162.6855 H   0  0  0  0  0  0  0  0  0  0  0  0
  157.2191  135.8574  163.9302 H   0  0  0  0  0  0  0  0  0  0  0  0
  158.2191  137.1066  163.2108 H   0  0  0  0  0  0  0  0  0  0  0  0
  155.6339  135.9633  162.0642 H   0  0  0  0  0  0  0  0  0  0  0  0
  155.8180  137.5435  162.7786 H   0  0  0  0  0  0  0  0  0  0  0  0
  157.3245  138.2637  160.9995 H   0  0  0  0  0  0  0  0  0  0  0  0
  155.9529  139.7726  160.4292 H   0  0  0  0  0  0  0  0  0  0  0  0
  154.3534  140.2231  158.4606 H   0  0  0  0  0  0  0  0  0  0  0  0
  153.3380  139.0346  159.2444 H   0  0  0  0  0  0  0  0  0  0  0  0
  153.4654  140.5326  161.3797 H   0  0  0  0  0  0  0  0  0  0  0  0
  154.1453  141.7721  160.3540 H   0  0  0  0  0  0  0  0  0  0  0  0
  151.8294  142.7778  161.4951 H   0  0  0  0  0  0  0  0  0  0  0  0
  149.5302  143.3998  160.7091 H   0  0  0  0  0  0  0  0  0  0  0  0
  148.5959  142.2376  158.6924 H   0  0  0  0  0  0  0  0  0  0  0  0
  152.0081  139.9560  158.2277 H   0  0  0  0  0  0  0  0  0  0  0  0
  1  2  1  0  0  0  0
  1 22  1  0  0  0  0
  1 23  1  0  0  0  0
  1 24  1  0  0  0  0
  2  3  2  0  0  0  0
  2  4  2  0  0  0  0
  2  5  1  0  0  0  0
  5 10  1  0  0  0  0
  5  6  1  0  0  0  0
  6  7  1  0  0  0  0
  6 25  1  0  0  0  0
  6 26  1  0  0  0  0
  7  8  1  0  0  0  0
  7 27  1  0  0  0  0
  7 28  1  0  0  0  0
  8  9  1  0  0  0  0
  8 29  1  0  0  0  0
  8 30  1  0  0  0  0
  9 10  1  0  0  0  0
  9 31  1  0  0  0  0
  9 32  1  0  0  0  0
 10 11  1  0  0  0  0
 10 33  1  0  0  0  0
 11 12  2  0  0  0  0
 11 13  1  0  0  0  0
 13 14  1  0  0  0  0
 13 34  1  0  0  0  0
 14 15  1  0  0  0  0
 14 35  1  0  0  0  0
 14 36  1  0  0  0  0
 15 16  1  0  0  0  0
 15 37  1  0  0  0  0
 15 38  1  0  0  0  0
 16 21  1  0  0  0  0
 16 17  2  0  0  0  0
 17 18  1  0  0  0  0
 17 39  1  0  0  0  0
 18 19  2  0  0  0  0
 18 40  1  0  0  0  0
 19 20  1  0  0  0  0
 19 41  1  0  0  0  0
 20 21  2  0  0  0  0
 21 42  1  0  0  0  0
M  END
> <s_m_source_file>
AV-unprocessed.smi

> <i_m_source_file_index>
2136

> <i_lp_mmshare_version>
43012

> <i_f3d_flags>
0

> <s_epik_input>
W0NIM11TKD1PKSg9TylOMVtDSDJdW0NIMl1bQ0gyXVtDSDJdW0NASF0xQyg9TylbTkhdW0NIMl1bQ0gyXWMyW2NIXVtjSF1bY0hdbltjSF0y

> <s_epik_cmdline>
J2VwaWtfcHl0aG9uJywgJy1waCcsICc3LjAnLCAnLXRuJywgJzgnLCAnLW1hJywgJzIwMCcsICctbWV0YWxfYmluZGluZycsICctaW1hZScsICc8aW5maWxlLm1hZT4nLCAnLW9tYWUnLCAnPG91dGZpbGUubWFlPic=

> <r_epik_Ionization_Penalty>
0.0126915

> <r_epik_Ionization_Penalty_Charging>
0

> <r_epik_Ionization_Penalty_Neutral>
0.0126915

> <r_epik_State_Penalty>
0.0098379

> <r_epik_Charging_Adjusted_Penalty>
0.0098379

> <i_epik_Tot_Q>
0

> <i_epik_Tot_abs_Q>
0

> <r_epik_Metal_State_Penalty>
0.00962913

> <b_epik_Metal_Only>
0

> <s_lp_Force_Field>
OPLS_2005

> <r_lp_Energy>
2.71494

> <b_lp_Chiralities_Consistent>
1

> <s_lp_Variant>
AV-unprocessed.smi:2136-2

> <Gold.Version>
5.8.1

> <Gold.Id.Protein>
6NUR|6NUR_protein|mol2

> <Gold.PLP.Fitness>
46.0364

> <Gold.PLP.PLP>
-40.6834

> <Gold.PLP.part.hbond>
-1.0000

> <Gold.PLP.part.metal>
0.0000

> <Gold.PLP.part.buried>
-4.9237

> <Gold.PLP.part.nonpolar>
-35.1087

> <Gold.PLP.part.repulsive>
0.1001

> <Gold.PLP.ligand.clash>
0.0000

> <Gold.PLP.ligand.torsion>
0.6866

> <Gold.PLP.Chemscore.Hbond>
0.9920

> <Gold.PLP.Chemscore.CHOScore>
1.0000

> <Gold.PLP.Chemscore.Metal>
0.0000

> <Gold.PLP.Chemscore.Internal.Correction>
0.7502

> <Gold.Rescore>
     Score         DG    S(hbond)    S(metal)    S(lipo)     H(rot)  DE(clash)    DE(int)     intcor
     15.48     -16.58       0.97        0.00     107.57       1.84       0.13       0.98       ----

> <Gold.Chemscore.Fitness>
15.4795

> <Gold.Chemscore.DG>
-16.5850

> <Gold.Chemscore.ZeroCoef>
-5.4800

> <Gold.Chemscore.Hbond>
0.9684

> <Gold.Chemscore.Metal>
0.0000

> <Gold.Chemscore.Lipo>
107.5700

> <Gold.Chemscore.Internal_Hbond>
0.0000

> <Gold.Chemscore.DEClash>
0.1303

> <Gold.Chemscore.DEInternal>
0.9751

> <Gold.Chemscore.Rot>
1.8419

> <Gold.Chemscore.Internal.Correction>
   9.000000E+99

> <Gold.Chemscore.Hbond.Weighted>
-3.2346

> <Gold.Chemscore.Metal.Weighted>
-0.0000

> <Gold.Chemscore.Lipo.Weighted>
-12.5857

> <Gold.Chemscore.Internal_Hbond.Weighted>
0.0000

> <Gold.Chemscore.DEClash.Weighted>
0.1303

> <Gold.Chemscore.DEInternal.Weighted>
0.9751

> <Gold.Chemscore.Rot.Weighted>
4.7153

> <Gold.Chemscore.Internal.Correction.Weighted>
   9.000000E+99

> <Gold.Protein.RotatedTorsions>
[ 6907 6896 6895 6894 ] final -167.37 input  -60.11 | X-H torsion
[ 7974 7965 7964 7962 ] final  137.73 input  175.53 | X-H torsion
[ 8008 7997 7996 7995 ] final  177.95 input   59.86 | X-H torsion
[ 10167 10162 10161 10158 ] final  -30.25 input  -65.29 | X-H torsion
[ 10718 10713 10712 10709 ] final  -58.98 input   66.30 | X-H torsion
[ 10763 10752 10751 10750 ] final -167.75 input  -60.55 | X-H torsion
[ 11005 11000 10999 10996 ] final -128.28 input  -57.11 | X-H torsion

> <Gold.Protein.ActiveResidues>
 VAL166  LYS551  ARG553  GLY616  TRP617  ASP618  TYR619  PRO620  LYS621  CYS622 
 ASP623  PHE694  ASN695  SER759  ASP760  ASP761  ALA762  ILE779  LEU786  VAL792 
 PHE793  MET794  SER795  GLU796  ALA797  LYS798  CYS799  TRP800  GLU811  SER814 

> <Gold.Protein.RotatedAtoms>
  151.4584  133.3599  159.2805 H   0  0  0  0  0  0  0  0  0  0  0  0  # atno 6907 bound_to 6896
  150.9042  134.8458  159.7392 H   0  0  0  0  0  0  0  0  0  0  0  0  # atno 6908 bound_to 6896
  152.4897  134.4508  159.9625 H   0  0  0  0  0  0  0  0  0  0  0  0  # atno 6909 bound_to 6896
  144.9440  139.4897  143.5558 H   0  0  0  0  0  0  0  0  0  0  0  0  # atno 7974 bound_to 7965
  156.0601  140.1346  156.9951 H   0  0  0  0  0  0  0  0  0  0  0  0  # atno 8008 bound_to 7997
  154.4477  140.0993  156.6575 H   0  0  0  0  0  0  0  0  0  0  0  0  # atno 8009 bound_to 7997
  155.5391  140.3460  155.4445 H   0  0  0  0  0  0  0  0  0  0  0  0  # atno 8010 bound_to 7997
  140.7251  143.3864  151.1508 H   0  0  0  0  0  0  0  0  0  0  0  0  # atno 10167 bound_to 10162
  156.1095  130.4176  150.0652 H   0  0  0  0  0  0  0  0  0  0  0  0  # atno 10718 bound_to 10713
  154.6699  135.2938  154.9755 H   0  0  0  0  0  0  0  0  0  0  0  0  # atno 10763 bound_to 10752
  154.0786  135.6608  153.4838 H   0  0  0  0  0  0  0  0  0  0  0  0  # atno 10764 bound_to 10752
  153.0480  135.5192  154.7690 H   0  0  0  0  0  0  0  0  0  0  0  0  # atno 10765 bound_to 10752
  140.9529  134.1041  157.4044 H   0  0  0  0  0  0  0  0  0  0  0  0  # atno 11005 bound_to 11000
  146.3296  139.8478  142.8878 LP  0  0  0  0  0  0  0  0  0  0  0  0  # atno 17320 bound_to 7965
  145.2947  141.0177  143.3643 LP  0  0  0  0  0  0  0  0  0  0  0  0  # atno 17321 bound_to 7965
  139.7461  143.8849  152.3064 LP  0  0  0  0  0  0  0  0  0  0  0  0  # atno 17342 bound_to 10162
  139.8687  144.7079  150.9013 LP  0  0  0  0  0  0  0  0  0  0  0  0  # atno 17343 bound_to 10162
  156.8619  130.9494  151.3617 LP  0  0  0  0  0  0  0  0  0  0  0  0  # atno 17370 bound_to 10713
  157.6275  130.8703  149.9215 LP  0  0  0  0  0  0  0  0  0  0  0  0  # atno 17371 bound_to 10713
  139.8853  135.0071  156.6426 LP  0  0  0  0  0  0  0  0  0  0  0  0  # atno 17394 bound_to 11000
  140.7577  133.8844  155.8394 LP  0  0  0  0  0  0  0  0  0  0  0  0  # atno 17395 bound_to 11000

$$$$
