AV-unprocessed.smi:2451|AV-procd|sdf|9674|dock5
  -GOLD-   2272013313D 1   1.00000     0.00000
 Structure written by MMmdl.
 38 39  0  0  0  0  0  0  0  0  1 V2000
  153.3316  142.0291  161.1748 C   0  0  0  0  0  0  0  0  0  0  0  0
  152.3138  142.6118  160.1771 C   0  0  1  0  0  0  0  0  0  0  0  0
  152.5222  144.1348  160.0583 C   0  0  0  0  0  0  0  0  0  0  0  0
  151.5083  144.7741  159.1037 C   0  0  0  0  0  0  0  0  0  0  0  0
  151.6054  144.1364  157.7156 C   0  0  0  0  0  0  0  0  0  0  0  0
  151.4005  142.6131  157.7836 C   0  0  1  0  0  0  0  0  0  0  0  0
  151.5855  142.0610  156.4377 N   0  0  0  0  0  0  0  0  0  0  0  0
  150.5223  140.8162  155.8961 S   0  0  0  0  0  0  0  0  0  0  0  0
  151.3026  139.9008  155.0488 O   0  0  0  0  0  0  0  0  0  0  0  0
  149.8088  140.2983  157.0734 O   0  0  0  0  0  0  0  0  0  0  0  0
  149.3418  141.7420  154.8280 C   0  0  0  0  0  0  0  0  0  0  0  0
  148.4147  140.7770  154.1470 C   0  0  0  0  0  0  0  0  0  0  0  0
  147.2226  141.0590  153.4241 C   0  0  0  0  0  0  0  0  0  0  0  0
  146.7899  139.8260  153.0297 C   0  0  0  0  0  0  0  0  0  0  0  0
  147.6363  138.8618  153.4719 O   0  0  0  0  0  0  0  0  0  0  0  0
  148.6697  139.4786  154.1863 N   0  0  0  0  0  0  0  0  0  0  0  0
  152.3664  141.9231  158.7832 C   0  0  2  0  0  0  0  0  0  0  0  0
  152.0551  140.4136  158.8841 C   0  0  0  0  0  0  0  0  0  0  0  0
  154.3459  142.0720  160.7770 H   0  0  0  0  0  0  0  0  0  0  0  0
  153.1107  140.9917  161.4234 H   0  0  0  0  0  0  0  0  0  0  0  0
  153.3213  142.5841  162.1133 H   0  0  0  0  0  0  0  0  0  0  0  0
  151.3186  142.4514  160.5947 H   0  0  0  0  0  0  0  0  0  0  0  0
  152.4339  144.6014  161.0402 H   0  0  0  0  0  0  0  0  0  0  0  0
  153.5345  144.3437  159.7088 H   0  0  0  0  0  0  0  0  0  0  0  0
  150.4988  144.6515  159.4983 H   0  0  0  0  0  0  0  0  0  0  0  0
  151.6875  145.8475  159.0339 H   0  0  0  0  0  0  0  0  0  0  0  0
  150.8645  144.5855  157.0529 H   0  0  0  0  0  0  0  0  0  0  0  0
  152.5823  144.3608  157.2849 H   0  0  0  0  0  0  0  0  0  0  0  0
  150.3768  142.4218  158.1089 H   0  0  0  0  0  0  0  0  0  0  0  0
  151.6749  142.8020  155.7429 H   0  0  0  0  0  0  0  0  0  0  0  0
  148.7980  142.4553  155.4479 H   0  0  0  0  0  0  0  0  0  0  0  0
  149.9168  142.3079  154.0953 H   0  0  0  0  0  0  0  0  0  0  0  0
  146.7614  142.0146  153.2236 H   0  0  0  0  0  0  0  0  0  0  0  0
  145.9390  139.4856  152.4583 H   0  0  0  0  0  0  0  0  0  0  0  0
  153.3814  142.0300  158.3965 H   0  0  0  0  0  0  0  0  0  0  0  0
  151.0698  140.2414  159.3184 H   0  0  0  0  0  0  0  0  0  0  0  0
  152.7879  139.8868  159.4936 H   0  0  0  0  0  0  0  0  0  0  0  0
  152.0700  139.9309  157.9070 H   0  0  0  0  0  0  0  0  0  0  0  0
  1  2  1  0  0  0  0
  1 19  1  0  0  0  0
  1 20  1  0  0  0  0
  1 21  1  0  0  0  0
  2 17  1  0  0  0  0
  2  3  1  0  0  0  0
  2 22  1  0  0  0  0
  3  4  1  0  0  0  0
  3 23  1  0  0  0  0
  3 24  1  0  0  0  0
  4  5  1  0  0  0  0
  4 25  1  0  0  0  0
  4 26  1  0  0  0  0
  5  6  1  0  0  0  0
  5 27  1  0  0  0  0
  5 28  1  0  0  0  0
  6  7  1  0  0  0  0
  6 17  1  0  0  0  0
  6 29  1  0  0  0  0
  7  8  1  0  0  0  0
  7 30  1  0  0  0  0
  8  9  2  0  0  0  0
  8 10  2  0  0  0  0
  8 11  1  0  0  0  0
 11 12  1  0  0  0  0
 11 31  1  0  0  0  0
 11 32  1  0  0  0  0
 12 16  2  0  0  0  0
 12 13  1  0  0  0  0
 13 14  2  0  0  0  0
 13 33  1  0  0  0  0
 14 15  1  0  0  0  0
 14 34  1  0  0  0  0
 15 16  1  0  0  0  0
 17 18  1  0  0  0  0
 17 35  1  0  0  0  0
 18 36  1  0  0  0  0
 18 37  1  0  0  0  0
 18 38  1  0  0  0  0
M  END
> <s_m_source_file>
AV-unprocessed.smi

> <i_m_source_file_index>
2451

> <i_lp_mmshare_version>
43012

> <i_f3d_flags>
0

> <s_epik_input>
W0NIM11bQ0BASF0xW0NIMl1bQ0gyXVtDSDJdW0NASF0oW0NASF0xW0NIM10pW05IXVMoPU8pKD1PKVtDSDJdYzJbY0hdW2NIXW9uMg==

> <s_epik_cmdline>
J2VwaWtfcHl0aG9uJywgJy1waCcsICc3LjAnLCAnLXRuJywgJzgnLCAnLW1hJywgJzIwMCcsICctbWV0YWxfYmluZGluZycsICctaW1hZScsICc8aW5maWxlLm1hZT4nLCAnLW9tYWUnLCAnPG91dGZpbGUubWFlPic=

> <r_lp_tautomer_probability>
1

> <r_epik_Ionization_Penalty>
8.73668e-05

> <r_epik_Ionization_Penalty_Charging>
0

> <r_epik_Ionization_Penalty_Neutral>
8.73668e-05

> <r_epik_State_Penalty>
-0

> <r_epik_Charging_Adjusted_Penalty>
0

> <i_epik_Tot_Q>
0

> <i_epik_Tot_abs_Q>
0

> <r_epik_Metal_State_Penalty>
0.0716439

> <b_epik_Metal_Only>
0

> <s_lp_Force_Field>
OPLS_2005

> <r_lp_Energy>
6.58047

> <b_lp_Chiralities_Consistent>
1

> <s_lp_Variant>
AV-unprocessed.smi:2451-6

> <Gold.Version>
5.8.1

> <Gold.Id.Protein>
6NUR|6NUR_protein|mol2

> <Gold.PLP.Fitness>
41.4503

> <Gold.PLP.PLP>
-37.8701

> <Gold.PLP.part.hbond>
-1.0000

> <Gold.PLP.part.metal>
0.0000

> <Gold.PLP.part.buried>
-0.9764

> <Gold.PLP.part.nonpolar>
-37.0442

> <Gold.PLP.part.repulsive>
0.4127

> <Gold.PLP.ligand.clash>
0.0000

> <Gold.PLP.ligand.torsion>
1.1409

> <Gold.PLP.Chemscore.Hbond>
1.0000

> <Gold.PLP.Chemscore.CHOScore>
0.9056

> <Gold.PLP.Chemscore.Metal>
0.0000

> <Gold.Chemscore.Hbonds>
donor molecule, donor type, donor heavy atom, donor atom, acceptor molecule, acceptor atom, score
      P1  H  7989  7998       L1     9  1.00
      L1  C    14    34       P1 10175  0.93

> <Gold.PLP.Chemscore.Internal.Correction>
0.1452

> <Gold.Rescore>
     Score         DG    S(hbond)    S(metal)    S(lipo)     H(rot)  DE(clash)    DE(int)     intcor
     12.25     -17.29       0.85        0.00     112.90       1.66       1.34       3.69       ----

> <Gold.Chemscore.Fitness>
12.2547

> <Gold.Chemscore.DG>
-17.2864

> <Gold.Chemscore.ZeroCoef>
-5.4800

> <Gold.Chemscore.Hbond>
0.8514

> <Gold.Chemscore.Metal>
0.0000

> <Gold.Chemscore.Lipo>
112.8993

> <Gold.Chemscore.Internal_Hbond>
0.0000

> <Gold.Chemscore.DEClash>
1.3401

> <Gold.Chemscore.DEInternal>
3.6917

> <Gold.Chemscore.Rot>
1.6588

> <Gold.Chemscore.Internal.Correction>
   9.000000E+99

> <Gold.Chemscore.Hbonds>
donor molecule, donor type, donor heavy atom, donor atom, acceptor molecule, acceptor atom, score
      P1  H  7989  7998       L1     9  0.50

> <Gold.Chemscore.Hbond.Weighted>
-2.8438

> <Gold.Chemscore.Metal.Weighted>
-0.0000

> <Gold.Chemscore.Lipo.Weighted>
-13.2092

> <Gold.Chemscore.Internal_Hbond.Weighted>
0.0000

> <Gold.Chemscore.DEClash.Weighted>
1.3401

> <Gold.Chemscore.DEInternal.Weighted>
3.6917

> <Gold.Chemscore.Rot.Weighted>
4.2466

> <Gold.Chemscore.Internal.Correction.Weighted>
   9.000000E+99

> <Gold.Protein.RotatedTorsions>
[ 6907 6896 6895 6894 ] final -124.61 input  -60.11 | X-H torsion
[ 7974 7965 7964 7962 ] final -134.21 input  175.53 | X-H torsion
[ 8008 7997 7996 7995 ] final -143.68 input   59.86 | X-H torsion
[ 10167 10162 10161 10158 ] final -139.02 input  -65.29 | X-H torsion
[ 10718 10713 10712 10709 ] final   17.54 input   66.30 | X-H torsion
[ 10763 10752 10751 10750 ] final  139.62 input  -60.55 | X-H torsion
[ 11005 11000 10999 10996 ] final   55.27 input  -57.11 | X-H torsion

> <Gold.Protein.ActiveResidues>
 VAL166  LYS551  ARG553  GLY616  TRP617  ASP618  TYR619  PRO620  LYS621  CYS622 
 ASP623  PHE694  ASN695  SER759  ASP760  ASP761  ALA762  ILE779  LEU786  VAL792 
 PHE793  MET794  SER795  GLU796  ALA797  LYS798  CYS799  TRP800  GLU811  SER814 

> <Gold.Protein.RotatedAtoms>
  150.8785  133.7405  159.2939 H   0  0  0  0  0  0  0  0  0  0  0  0  # atno 6907 bound_to 6896
  151.4994  135.1059  159.9834 H   0  0  0  0  0  0  0  0  0  0  0  0  # atno 6908 bound_to 6896
  152.4744  133.8057  159.7032 H   0  0  0  0  0  0  0  0  0  0  0  0  # atno 6909 bound_to 6896
  144.9123  140.6911  143.5017 H   0  0  0  0  0  0  0  0  0  0  0  0  # atno 7974 bound_to 7965
  155.5145  140.0586  157.2918 H   0  0  0  0  0  0  0  0  0  0  0  0  # atno 8008 bound_to 7997
  154.4540  140.1963  156.0382 H   0  0  0  0  0  0  0  0  0  0  0  0  # atno 8009 bound_to 7997
  156.0761  140.3253  155.7640 H   0  0  0  0  0  0  0  0  0  0  0  0  # atno 8010 bound_to 7997
  139.8421  143.7308  152.2662 H   0  0  0  0  0  0  0  0  0  0  0  0  # atno 10167 bound_to 10162
  157.0836  130.6398  149.5832 H   0  0  0  0  0  0  0  0  0  0  0  0  # atno 10718 bound_to 10713
  153.9091  135.3013  155.3448 H   0  0  0  0  0  0  0  0  0  0  0  0  # atno 10763 bound_to 10752
  154.7632  135.4923  153.9507 H   0  0  0  0  0  0  0  0  0  0  0  0  # atno 10764 bound_to 10752
  153.1202  135.6780  153.9449 H   0  0  0  0  0  0  0  0  0  0  0  0  # atno 10765 bound_to 10752
  140.0620  134.5589  155.9141 H   0  0  0  0  0  0  0  0  0  0  0  0  # atno 11005 bound_to 11000
  145.3433  139.1726  143.4474 LP  0  0  0  0  0  0  0  0  0  0  0  0  # atno 17320 bound_to 7965
  146.3165  140.3477  142.8653 LP  0  0  0  0  0  0  0  0  0  0  0  0  # atno 17321 bound_to 7965
  139.7548  144.7524  151.0451 LP  0  0  0  0  0  0  0  0  0  0  0  0  # atno 17342 bound_to 10162
  140.7797  143.4818  151.0008 LP  0  0  0  0  0  0  0  0  0  0  0  0  # atno 17343 bound_to 10162
  155.9917  130.4972  150.7309 LP  0  0  0  0  0  0  0  0  0  0  0  0  # atno 17370 bound_to 10713
  157.4780  131.0899  151.0569 LP  0  0  0  0  0  0  0  0  0  0  0  0  # atno 17371 bound_to 10713
  141.1977  133.6598  156.5755 LP  0  0  0  0  0  0  0  0  0  0  0  0  # atno 17394 bound_to 11000
  140.3755  134.7568  157.4627 LP  0  0  0  0  0  0  0  0  0  0  0  0  # atno 17395 bound_to 11000

$$$$
