AV-unprocessed.smi:2655|AV-procd|sdf|10301|dock5
  -GOLD-   2272014313D 1   1.00000     0.00000
 Structure written by MMmdl.
 32 33  0  0  0  0  0  0  0  0  3 V2000
  151.0281  141.2859  156.3003 C   0  0  0  0  0  0  0  0  0  0  0  0
  151.0806  139.9475  155.6219 C   0  0  0  0  0  0  0  0  0  0  0  0
  150.4828  139.7984  154.4441 N   0  0  0  0  0  0  0  0  0  0  0  0
  150.7116  138.5126  154.1171 N   0  0  0  0  0  0  0  0  0  0  0  0
  151.4420  137.8638  155.0788 C   0  0  0  0  0  0  0  0  0  0  0  0
  151.7796  136.5685  154.9426 O   0  5  0  0  0  0  0  0  0  0  0  0
  151.7085  138.7487  156.0838 C   0  0  0  0  0  0  0  0  0  0  0  0
  152.4732  138.5322  157.3624 C   0  0  0  0  0  0  0  0  0  0  0  0
  151.5854  138.7616  158.5965 C   0  0  0  0  0  0  0  0  0  0  0  0
  150.9043  137.5379  159.0069 N   0  0  0  0  0  0  0  0  0  0  0  0
  149.5781  137.3713  159.1124 C   0  0  0  0  0  0  0  0  0  0  0  0
  148.8170  138.3034  158.8430 O   0  0  0  0  0  0  0  0  0  0  0  0
  149.2155  136.1346  159.5272 N   0  5  0  0  0  0  0  0  0  0  0  0
  148.2397  135.9876  160.4364 C   0  0  0  0  0  0  0  0  0  0  0  0
  147.7255  134.7521  160.9164 C   0  0  0  0  0  0  0  0  0  0  0  0
  146.7578  135.1384  161.7995 C   0  0  0  0  0  0  0  0  0  0  0  0
  145.8209  134.3742  162.6713 C   0  0  0  0  0  0  0  0  0  0  0  0
  146.6776  136.4955  161.8480 O   0  0  0  0  0  0  0  0  0  0  0  0
  147.6252  137.0315  160.9677 N   0  0  0  0  0  0  0  0  0  0  0  0
  151.8555  141.4080  156.9990 H   0  0  0  0  0  0  0  0  0  0  0  0
  150.1004  141.4020  156.8603 H   0  0  0  0  0  0  0  0  0  0  0  0
  151.0867  142.1000  155.5778 H   0  0  0  0  0  0  0  0  0  0  0  0
  150.3719  138.1057  153.2577 H   0  0  0  0  0  0  0  0  0  0  0  0
  153.3361  139.1975  157.4072 H   0  0  0  0  0  0  0  0  0  0  0  0
  152.8810  137.5214  157.3941 H   0  0  0  0  0  0  0  0  0  0  0  0
  152.1728  139.1648  159.4231 H   0  0  0  0  0  0  0  0  0  0  0  0
  150.8205  139.5045  158.3692 H   0  0  0  0  0  0  0  0  0  0  0  0
  151.4892  136.7483  159.2366 H   0  0  0  0  0  0  0  0  0  0  0  0
  148.0235  133.7471  160.6577 H   0  0  0  0  0  0  0  0  0  0  0  0
  145.1295  133.7846  162.0694 H   0  0  0  0  0  0  0  0  0  0  0  0
  145.2343  135.0434  163.3010 H   0  0  0  0  0  0  0  0  0  0  0  0
  146.3692  133.6929  163.3218 H   0  0  0  0  0  0  0  0  0  0  0  0
  1 20  1  0  0  0  0
  1 21  1  0  0  0  0
  1 22  1  0  0  0  0
  1  2  1  0  0  0  0
  2  7  1  0  0  0  0
  2  3  2  0  0  0  0
  3  4  1  0  0  0  0
  4 23  1  0  0  0  0
  4  5  1  0  0  0  0
  5  7  2  0  0  0  0
  5  6  1  0  0  0  0
  7  8  1  0  0  0  0
  8  9  1  0  0  0  0
  8 24  1  0  0  0  0
  8 25  1  0  0  0  0
  9 10  1  0  0  0  0
  9 26  1  0  0  0  0
  9 27  1  0  0  0  0
 10 11  1  0  0  0  0
 10 28  1  0  0  0  0
 11 12  2  0  0  0  0
 11 13  1  0  0  0  0
 13 14  1  0  0  0  0
 14 19  2  0  0  0  0
 14 15  1  0  0  0  0
 15 16  2  0  0  0  0
 15 29  1  0  0  0  0
 16 17  1  0  0  0  0
 16 18  1  0  0  0  0
 17 30  1  0  0  0  0
 17 31  1  0  0  0  0
 17 32  1  0  0  0  0
 18 19  1  0  0  0  0
M  CHG  1   6  -1
M  CHG  1  13  -1
M  END
> <s_m_source_file>
AV-unprocessed.smi

> <i_m_source_file_index>
2655

> <i_lp_mmshare_version>
43012

> <i_f3d_flags>
0

> <s_epik_input>
W0NIM11DMT1OW05IXUMoPU8pW0NASF0xW0NIMl1bQ0gyXVtOSF1DKD1PKVtOSF1jMltjSF1jKFtDSDNdKW9uMg==

> <s_epik_cmdline>
J2VwaWtfcHl0aG9uJywgJy1waCcsICc3LjAnLCAnLXRuJywgJzgnLCAnLW1hJywgJzIwMCcsICctbWV0YWxfYmluZGluZycsICctaW1hZScsICc8aW5maWxlLm1hZT4nLCAnLW9tYWUnLCAnPG91dGZpbGUubWFlPic=

> <r_lp_tautomer_probability>
0.99495

> <r_epik_Ionization_Penalty>
8.09923

> <r_epik_Ionization_Penalty_Charging>
6.55729

> <r_epik_Ionization_Penalty_Neutral>
1.54195

> <r_epik_State_Penalty>
6.87174

> <r_epik_Charging_Adjusted_Penalty>
13.429

> <i_epik_Tot_Q>
-2

> <i_epik_Tot_abs_Q>
2

> <r_epik_Metal_State_Penalty>
4.19188

> <b_epik_Metal_Only>
1

> <s_lp_Force_Field>
OPLS_2005

> <r_lp_Energy>
-4.19881

> <b_lp_Chiralities_Consistent>
1

> <s_lp_Variant>
AV-unprocessed.smi:2655-4

> <Gold.Version>
5.8.1

> <Gold.Id.Protein>
6NUR|6NUR_protein|mol2

> <Gold.PLP.Fitness>
50.5431

> <Gold.PLP.PLP>
-31.0894

> <Gold.PLP.part.hbond>
-6.2281

> <Gold.PLP.part.metal>
0.0000

> <Gold.PLP.part.buried>
-5.8018

> <Gold.PLP.part.nonpolar>
-21.3005

> <Gold.PLP.part.repulsive>
0.4779

> <Gold.PLP.ligand.clash>
0.0000

> <Gold.PLP.ligand.torsion>
0.5261

> <Gold.PLP.Chemscore.Hbond>
6.8190

> <Gold.PLP.Chemscore.CHOScore>
0.0000

> <Gold.PLP.Chemscore.Metal>
0.0000

> <Gold.Chemscore.Hbonds>
donor molecule, donor type, donor heavy atom, donor atom, acceptor molecule, acceptor atom, score
      P1  H  6896  6907       L1    13  1.85
      P1  H  6931  6943       L1    19  0.81
      P1  H  6934  6947       L1    19  0.94
      P1  H  7989  7998       L1     3  0.85
      P1  H 10752 10763       L1     6  2.00

> <Gold.PLP.Chemscore.Internal.Correction>
0.0486

> <Gold.Rescore>
     Score         DG    S(hbond)    S(metal)    S(lipo)     H(rot)  DE(clash)    DE(int)     intcor
     16.81     -18.96       3.68        0.00      50.10       1.82       0.15       2.00       ----

> <Gold.Chemscore.Fitness>
16.8144

> <Gold.Chemscore.DG>
-18.9561

> <Gold.Chemscore.ZeroCoef>
-5.4800

> <Gold.Chemscore.Hbond>
3.6759

> <Gold.Chemscore.Metal>
0.0000

> <Gold.Chemscore.Lipo>
50.0991

> <Gold.Chemscore.Internal_Hbond>
0.0000

> <Gold.Chemscore.DEClash>
0.1461

> <Gold.Chemscore.DEInternal>
1.9956

> <Gold.Chemscore.Rot>
1.8215

> <Gold.Chemscore.Internal.Correction>
   9.000000E+99

> <Gold.Chemscore.Hbonds>
donor molecule, donor type, donor heavy atom, donor atom, acceptor molecule, acceptor atom, score
      P1  H  6896  6907       L1    13  0.73
      P1  H  6931  6943       L1    19  0.47
      P1  H  6934  6947       L1    19  0.38
      P1  H  7989  7998       L1     3  0.10
      P1  H 10752 10763       L1     6  0.96

> <Gold.Chemscore.Hbond.Weighted>
-12.2776

> <Gold.Chemscore.Metal.Weighted>
-0.0000

> <Gold.Chemscore.Lipo.Weighted>
-5.8616

> <Gold.Chemscore.Internal_Hbond.Weighted>
0.0000

> <Gold.Chemscore.DEClash.Weighted>
0.1461

> <Gold.Chemscore.DEInternal.Weighted>
1.9956

> <Gold.Chemscore.Rot.Weighted>
4.6631

> <Gold.Chemscore.Internal.Correction.Weighted>
   9.000000E+99

> <Gold.Protein.RotatedTorsions>
[ 6907 6896 6895 6894 ] final  -56.84 input  -60.11 | X-H torsion
[ 7974 7965 7964 7962 ] final   99.82 input  175.53 | X-H torsion
[ 8008 7997 7996 7995 ] final  -15.28 input   59.86 | X-H torsion
[ 10167 10162 10161 10158 ] final  -98.16 input  -65.29 | X-H torsion
[ 10718 10713 10712 10709 ] final  -95.86 input   66.30 | X-H torsion
[ 10763 10752 10751 10750 ] final   70.88 input  -60.55 | X-H torsion
[ 11005 11000 10999 10996 ] final   97.06 input  -57.11 | X-H torsion

> <Gold.Protein.ActiveResidues>
 VAL166  LYS551  ARG553  GLY616  TRP617  ASP618  TYR619  PRO620  LYS621  CYS622 
 ASP623  PHE694  ASN695  SER759  ASP760  ASP761  ALA762  ILE779  LEU786  VAL792 
 PHE793  MET794  SER795  GLU796  ALA797  LYS798  CYS799  TRP800  GLU811  SER814 

> <Gold.Protein.RotatedAtoms>
  150.8135  134.7303  159.6708 H   0  0  0  0  0  0  0  0  0  0  0  0  # atno 6907 bound_to 6896
  152.4254  134.5874  159.9974 H   0  0  0  0  0  0  0  0  0  0  0  0  # atno 6908 bound_to 6896
  151.6078  133.3313  159.3097 H   0  0  0  0  0  0  0  0  0  0  0  0  # atno 6909 bound_to 6896
  145.3937  139.2358  143.3337 H   0  0  0  0  0  0  0  0  0  0  0  0  # atno 7974 bound_to 7965
  154.5143  140.2200  155.9096 H   0  0  0  0  0  0  0  0  0  0  0  0  # atno 8008 bound_to 7997
  156.1589  140.3146  155.8739 H   0  0  0  0  0  0  0  0  0  0  0  0  # atno 8009 bound_to 7997
  155.3791  140.0471  157.3034 H   0  0  0  0  0  0  0  0  0  0  0  0  # atno 8010 bound_to 7997
  140.2759  143.3313  152.0489 H   0  0  0  0  0  0  0  0  0  0  0  0  # atno 10167 bound_to 10162
  156.0051  130.5127  150.6140 H   0  0  0  0  0  0  0  0  0  0  0  0  # atno 10718 bound_to 10713
  153.0366  135.5157  154.7508 H   0  0  0  0  0  0  0  0  0  0  0  0  # atno 10763 bound_to 10752
  154.6479  135.2921  155.0026 H   0  0  0  0  0  0  0  0  0  0  0  0  # atno 10764 bound_to 10752
  154.0920  135.6649  153.4906 H   0  0  0  0  0  0  0  0  0  0  0  0  # atno 10765 bound_to 10752
  139.8778  134.8982  156.4250 H   0  0  0  0  0  0  0  0  0  0  0  0  # atno 11005 bound_to 11000
  146.2785  140.4624  142.8786 LP  0  0  0  0  0  0  0  0  0  0  0  0  # atno 17320 bound_to 7965
  144.8422  140.6874  143.6222 LP  0  0  0  0  0  0  0  0  0  0  0  0  # atno 17321 bound_to 7965
  139.4976  144.6625  151.6432 LP  0  0  0  0  0  0  0  0  0  0  0  0  # atno 17342 bound_to 10162
  140.5852  143.9877  150.6291 LP  0  0  0  0  0  0  0  0  0  0  0  0  # atno 17343 bound_to 10162
  157.3967  131.0804  151.1345 LP  0  0  0  0  0  0  0  0  0  0  0  0  # atno 17370 bound_to 10713
  157.2019  130.6398  149.5742 LP  0  0  0  0  0  0  0  0  0  0  0  0  # atno 17371 bound_to 10713
  140.9107  133.7714  155.9788 LP  0  0  0  0  0  0  0  0  0  0  0  0  # atno 17394 bound_to 11000
  140.8550  134.2909  157.5259 LP  0  0  0  0  0  0  0  0  0  0  0  0  # atno 17395 bound_to 11000

$$$$
