AV-unprocessed.smi:35|AV-procd|sdf|264|dock4
  -GOLD-   2262016 33D 1   1.00000     0.00000
 Structure written by MMmdl.
 28 29  0  0  0  0  0  0  0  0  2 V2000
  151.3383  137.2176  159.4560 O   0  0  0  0  0  0  0  0  0  0  0  0
  151.1252  137.8850  158.4452 C   0  0  0  0  0  0  0  0  0  0  0  0
  152.1255  138.4078  157.6782 N   0  5  0  0  0  0  0  0  0  0  0  0
  151.8842  139.1480  156.5562 C   0  0  0  0  0  0  0  0  0  0  0  0
  152.7798  139.6501  155.8768 O   0  0  0  0  0  0  0  0  0  0  0  0
  150.5377  139.3699  156.1559 N   0  0  0  0  0  0  0  0  0  0  0  0
  150.2460  140.1865  154.9141 C   0  0  1  0  0  0  0  0  0  0  0  0
  149.3599  139.4720  154.1036 O   0  0  0  0  0  0  0  0  0  0  0  0
  148.3606  140.3480  153.5910 C   0  0  1  0  0  0  0  0  0  0  0  0
  147.0976  139.5717  153.1778 C   0  0  0  0  0  0  0  0  0  0  0  0
  147.3923  138.6910  152.1142 O   0  0  0  0  0  0  0  0  0  0  0  0
  148.1701  141.3679  154.7216 C   0  0  1  0  0  0  0  0  0  0  0  0
  147.3009  140.8581  155.7197 O   0  0  0  0  0  0  0  0  0  0  0  0
  149.5954  141.5501  155.2303 C   0  0  1  0  0  0  0  0  0  0  0  0
  149.6525  141.9708  156.5833 O   0  0  0  0  0  0  0  0  0  0  0  0
  149.5018  138.8638  156.9219 C   0  0  0  0  0  0  0  0  0  0  0  0
  149.7475  138.1419  158.0335 C   0  0  0  0  0  0  0  0  0  0  0  0
  148.1684  137.4838  159.0337 Br  0  0  0  0  0  0  0  0  0  0  0  0
  151.1908  140.2810  154.3772 H   0  0  0  0  0  0  0  0  0  0  0  0
  148.7761  140.8744  152.7293 H   0  0  0  0  0  0  0  0  0  0  0  0
  146.6761  139.0214  154.0197 H   0  0  0  0  0  0  0  0  0  0  0  0
  146.3320  140.2628  152.8238 H   0  0  0  0  0  0  0  0  0  0  0  0
  148.2400  138.9177  151.7637 H   0  0  0  0  0  0  0  0  0  0  0  0
  147.7525  142.3064  154.3555 H   0  0  0  0  0  0  0  0  0  0  0  0
  147.4200  139.9214  155.7629 H   0  0  0  0  0  0  0  0  0  0  0  0
  150.1020  142.2947  154.6148 H   0  0  0  0  0  0  0  0  0  0  0  0
  149.4477  142.8935  156.6149 H   0  0  0  0  0  0  0  0  0  0  0  0
  148.4778  139.0497  156.6343 H   0  0  0  0  0  0  0  0  0  0  0  0
  1  2  2  0  0  0  0
  2 17  1  0  0  0  0
  2  3  1  0  0  0  0
  3  4  1  0  0  0  0
  4  5  2  0  0  0  0
  4  6  1  0  0  0  0
  6  7  1  0  0  0  0
  6 16  1  0  0  0  0
  7 14  1  0  0  0  0
  7  8  1  0  0  0  0
  7 19  1  0  0  0  0
  8  9  1  0  0  0  0
  9 10  1  0  0  0  0
  9 12  1  0  0  0  0
  9 20  1  0  0  0  0
 10 11  1  0  0  0  0
 10 21  1  0  0  0  0
 10 22  1  0  0  0  0
 11 23  1  0  0  0  0
 12 13  1  0  0  0  0
 12 14  1  0  0  0  0
 12 24  1  0  0  0  0
 13 25  1  0  0  0  0
 14 15  1  0  0  0  0
 14 26  1  0  0  0  0
 15 27  1  0  0  0  0
 16 17  2  0  0  0  0
 16 28  1  0  0  0  0
 17 18  1  0  0  0  0
M  CHG  1   3  -1
M  END
> <s_m_source_file>
AV-unprocessed.smi

> <i_m_source_file_index>
35

> <i_lp_mmshare_version>
43012

> <i_f3d_flags>
0

> <s_epik_input>
Tz1jMVtuSF1jKD1PKW4oW2NIXWMxQnIpW0NAQEhdMk9bQ0BASF0oW0NIMl1bT0hdKVtDQEBIXShbT0hdKVtDQEhdMltPSF0=

> <s_epik_cmdline>
J2VwaWtfcHl0aG9uJywgJy1waCcsICc3LjAnLCAnLXRuJywgJzgnLCAnLW1hJywgJzIwMCcsICctbWV0YWxfYmluZGluZycsICctaW1hZScsICc8aW5maWxlLm1hZT4nLCAnLW9tYWUnLCAnPG91dGZpbGUubWFlPic=

> <r_epik_Ionization_Penalty>
1.06112

> <r_epik_Ionization_Penalty_Charging>
2.1796e-09

> <r_epik_Ionization_Penalty_Neutral>
1.06112

> <r_epik_State_Penalty>
1.11484

> <r_epik_Charging_Adjusted_Penalty>
1.11484

> <i_epik_Tot_Q>
-1

> <i_epik_Tot_abs_Q>
1

> <r_epik_Metal_State_Penalty>
0.0032876

> <b_epik_Metal_Only>
0

> <s_epik_Chemistry_Notes>
This compound contains an acetal/aminal-like group ( X-CH(R)-Y where X, Y are N, S, or O) that may be acid/base labile, releasing an aldehyde.

> <s_lp_Force_Field>
OPLS_2005

> <r_lp_Energy>
48.9456

> <b_lp_Chiralities_Consistent>
1

> <s_lp_Variant>
AV-unprocessed.smi:35-18

> <Gold.Version>
5.8.1

> <Gold.Id.Protein>
6NUR|6NUR_protein|mol2

> <Gold.PLP.Fitness>
33.6713

> <Gold.PLP.PLP>
-23.1342

> <Gold.PLP.part.hbond>
-4.9863

> <Gold.PLP.part.metal>
0.0000

> <Gold.PLP.part.buried>
-0.5840

> <Gold.PLP.part.nonpolar>
-18.2521

> <Gold.PLP.part.repulsive>
0.9362

> <Gold.PLP.ligand.clash>
0.0000

> <Gold.PLP.ligand.torsion>
0.1482

> <Gold.PLP.Chemscore.Hbond>
3.6088

> <Gold.PLP.Chemscore.CHOScore>
0.0000

> <Gold.PLP.Chemscore.Metal>
0.0000

> <Gold.Chemscore.Hbonds>
donor molecule, donor type, donor heavy atom, donor atom, acceptor molecule, acceptor atom, score
      L1  H    11    23       P1  7957  1.00
      L1  H    15    27       P1  8028  0.73
      P1  H  6896  6909       L1     1  0.76
      P1  H  7997  8010       L1     5  1.00

> <Gold.PLP.Chemscore.Internal.Correction>
0.0072

> <Gold.Rescore>
     Score         DG    S(hbond)    S(metal)    S(lipo)     H(rot)  DE(clash)    DE(int)     intcor
     10.87     -11.64       3.42        0.00      34.30       3.63       0.62       0.15       ----

> <Gold.Chemscore.Fitness>
10.8683

> <Gold.Chemscore.DG>
-11.6392

> <Gold.Chemscore.ZeroCoef>
-5.4800

> <Gold.Chemscore.Hbond>
3.4220

> <Gold.Chemscore.Metal>
0.0000

> <Gold.Chemscore.Lipo>
34.2958

> <Gold.Chemscore.Internal_Hbond>
0.0000

> <Gold.Chemscore.DEClash>
0.6234

> <Gold.Chemscore.DEInternal>
0.1475

> <Gold.Chemscore.Rot>
3.6261

> <Gold.Chemscore.Internal.Correction>
   9.000000E+99

> <Gold.Chemscore.Hbonds>
donor molecule, donor type, donor heavy atom, donor atom, acceptor molecule, acceptor atom, score
      L1  H    11    23       P1  7957  0.87
      L1  H    15    27       P1  8028  0.70
      P1  H  6896  6909       L1     1  0.75
      P1  H  7997  8010       L1     5  0.97

> <Gold.Chemscore.Hbond.Weighted>
-11.4294

> <Gold.Chemscore.Metal.Weighted>
-0.0000

> <Gold.Chemscore.Lipo.Weighted>
-4.0126

> <Gold.Chemscore.Internal_Hbond.Weighted>
0.0000

> <Gold.Chemscore.DEClash.Weighted>
0.6234

> <Gold.Chemscore.DEInternal.Weighted>
0.1475

> <Gold.Chemscore.Rot.Weighted>
9.2828

> <Gold.Chemscore.Internal.Correction.Weighted>
   9.000000E+99

> <Gold.Protein.RotatedTorsions>
[ 6907 6896 6895 6894 ] final  101.87 input  -60.11 | X-H torsion
[ 7974 7965 7964 7962 ] final    2.12 input  175.53 | X-H torsion
[ 8008 7997 7996 7995 ] final   67.78 input   59.86 | X-H torsion
[ 10167 10162 10161 10158 ] final  -12.79 input  -65.29 | X-H torsion
[ 10718 10713 10712 10709 ] final  108.67 input   66.30 | X-H torsion
[ 10763 10752 10751 10750 ] final   50.19 input  -60.55 | X-H torsion
[ 11005 11000 10999 10996 ] final -125.26 input  -57.11 | X-H torsion

> <Gold.Protein.ActiveResidues>
 VAL166  LYS551  ARG553  GLY616  TRP617  ASP618  TYR619  PRO620  LYS621  CYS622 
 ASP623  PHE694  ASN695  SER759  ASP760  ASP761  ALA762  ILE779  LEU786  VAL792 
 PHE793  MET794  SER795  GLU796  ALA797  LYS798  CYS799  TRP800  GLU811  SER814 

> <Gold.Protein.RotatedAtoms>
  152.5338  134.0061  159.7916 H   0  0  0  0  0  0  0  0  0  0  0  0  # atno 6907 bound_to 6896
  151.0271  133.5816  159.2672 H   0  0  0  0  0  0  0  0  0  0  0  0  # atno 6908 bound_to 6896
  151.2834  135.0727  159.9231 H   0  0  0  0  0  0  0  0  0  0  0  0  # atno 6909 bound_to 6896
  146.2443  140.0885  142.8353 H   0  0  0  0  0  0  0  0  0  0  0  0  # atno 7974 bound_to 7965
  155.6981  140.3495  155.4921 H   0  0  0  0  0  0  0  0  0  0  0  0  # atno 8008 bound_to 7997
  155.9465  140.1111  157.1035 H   0  0  0  0  0  0  0  0  0  0  0  0  # atno 8009 bound_to 7997
  154.4113  140.1202  156.4982 H   0  0  0  0  0  0  0  0  0  0  0  0  # atno 8010 bound_to 7997
  140.7169  143.5495  150.9317 H   0  0  0  0  0  0  0  0  0  0  0  0  # atno 10167 bound_to 10162
  157.6576  131.0898  150.6339 H   0  0  0  0  0  0  0  0  0  0  0  0  # atno 10718 bound_to 10713
  152.9785  135.5887  154.4212 H   0  0  0  0  0  0  0  0  0  0  0  0  # atno 10763 bound_to 10752
  154.3836  135.2767  155.2198 H   0  0  0  0  0  0  0  0  0  0  0  0  # atno 10764 bound_to 10752
  154.4101  135.6083  153.6002 H   0  0  0  0  0  0  0  0  0  0  0  0  # atno 10765 bound_to 10752
  140.9776  134.0718  157.3801 H   0  0  0  0  0  0  0  0  0  0  0  0  # atno 11005 bound_to 11000
  145.0671  140.9129  143.4904 LP  0  0  0  0  0  0  0  0  0  0  0  0  # atno 17320 bound_to 7965
  145.1011  139.2822  143.5685 LP  0  0  0  0  0  0  0  0  0  0  0  0  # atno 17321 bound_to 7965
  139.9219  143.6596  152.3095 LP  0  0  0  0  0  0  0  0  0  0  0  0  # atno 17342 bound_to 10162
  139.7016  144.7634  151.1264 LP  0  0  0  0  0  0  0  0  0  0  0  0  # atno 17343 bound_to 10162
  156.6644  130.4521  149.5677 LP  0  0  0  0  0  0  0  0  0  0  0  0  # atno 17370 bound_to 10713
  156.2043  130.6639  151.1201 LP  0  0  0  0  0  0  0  0  0  0  0  0  # atno 17371 bound_to 10713
  139.8937  135.0132  156.6912 LP  0  0  0  0  0  0  0  0  0  0  0  0  # atno 17394 bound_to 11000
  140.7235  133.9120  155.8163 LP  0  0  0  0  0  0  0  0  0  0  0  0  # atno 17395 bound_to 11000

$$$$
