AV-unprocessed.smi:922|AV-procd|sdf|4176|dock4
  -GOLD-   22720 2 83D 1   1.00000     0.00000
 Structure written by MMmdl.
 33 34  0  0  0  0  0  0  0  0  1 V2000
  153.7288  141.4547  160.0896 C   0  0  0  0  0  0  0  0  0  0  0  0
  152.7734  141.9906  159.0187 C   0  0  1  0  0  0  0  0  0  0  0  0
  151.6662  140.9755  158.6789 C   0  0  0  0  0  0  0  0  0  0  0  0
  150.7106  141.5584  157.7460 N   0  0  0  0  0  0  0  0  0  0  0  0
  150.3223  140.9912  156.5312 C   0  0  0  0  0  0  0  0  0  0  0  0
  150.1290  141.8447  155.3634 C   0  0  0  0  0  0  0  0  0  0  0  0
  149.7702  141.3953  154.2103 N   0  0  0  0  0  0  0  0  0  0  0  0
  149.5577  140.0473  154.0752 N   0  0  0  0  0  0  0  0  0  0  0  0
  149.6921  139.1093  155.0410 C   0  0  0  0  0  0  0  0  0  0  0  0
  149.4797  137.9203  154.8101 O   0  0  0  0  0  0  0  0  0  0  0  0
  150.1063  139.6534  156.3430 C   0  0  0  0  0  0  0  0  0  0  0  0
  150.3588  138.4966  157.6072 Cl  0  0  0  0  0  0  0  0  0  0  0  0
  150.1214  142.7729  158.2993 C   0  0  0  0  0  0  0  0  0  0  0  0
  151.2131  143.8076  158.6569 C   0  0  0  0  0  0  0  0  0  0  0  0
  151.8840  144.3998  157.3991 C   0  0  0  0  0  0  0  0  0  0  0  0
  150.5974  144.9463  159.4844 C   0  0  0  0  0  0  0  0  0  0  0  0
  152.1795  143.1907  159.5159 O   0  0  0  0  0  0  0  0  0  0  0  0
  149.2758  139.7634  153.1478 H   0  0  0  0  0  0  0  0  0  0  0  0
  154.2216  140.5420  159.7536 H   0  0  0  0  0  0  0  0  0  0  0  0
  153.1981  141.2284  161.0149 H   0  0  0  0  0  0  0  0  0  0  0  0
  154.5043  142.1854  160.3201 H   0  0  0  0  0  0  0  0  0  0  0  0
  153.3614  142.2173  158.1303 H   0  0  0  0  0  0  0  0  0  0  0  0
  152.0918  140.0571  158.2748 H   0  0  0  0  0  0  0  0  0  0  0  0
  151.1323  140.6892  159.5859 H   0  0  0  0  0  0  0  0  0  0  0  0
  150.3036  142.9089  155.5234 H   0  0  0  0  0  0  0  0  0  0  0  0
  149.4148  143.2148  157.5960 H   0  0  0  0  0  0  0  0  0  0  0  0
  149.5496  142.5027  159.1880 H   0  0  0  0  0  0  0  0  0  0  0  0
  151.1654  144.9642  156.8044 H   0  0  0  0  0  0  0  0  0  0  0  0
  152.2996  143.6332  156.7460 H   0  0  0  0  0  0  0  0  0  0  0  0
  152.6938  145.0781  157.6688 H   0  0  0  0  0  0  0  0  0  0  0  0
  149.8279  145.4757  158.9213 H   0  0  0  0  0  0  0  0  0  0  0  0
  151.3540  145.6750  159.7778 H   0  0  0  0  0  0  0  0  0  0  0  0
  150.1374  144.5670  160.3975 H   0  0  0  0  0  0  0  0  0  0  0  0
  1  2  1  0  0  0  0
  1 19  1  0  0  0  0
  1 20  1  0  0  0  0
  1 21  1  0  0  0  0
  2 17  1  0  0  0  0
  2  3  1  0  0  0  0
  2 22  1  0  0  0  0
  3  4  1  0  0  0  0
  3 23  1  0  0  0  0
  3 24  1  0  0  0  0
  4  5  1  0  0  0  0
  4 13  1  0  0  0  0
  5 11  2  0  0  0  0
  5  6  1  0  0  0  0
  6  7  2  0  0  0  0
  6 25  1  0  0  0  0
  7  8  1  0  0  0  0
  8 18  1  0  0  0  0
  8  9  1  0  0  0  0
  9 10  2  0  0  0  0
  9 11  1  0  0  0  0
 11 12  1  0  0  0  0
 13 14  1  0  0  0  0
 13 26  1  0  0  0  0
 13 27  1  0  0  0  0
 14 15  1  0  0  0  0
 14 16  1  0  0  0  0
 14 17  1  0  0  0  0
 15 28  1  0  0  0  0
 15 29  1  0  0  0  0
 15 30  1  0  0  0  0
 16 31  1  0  0  0  0
 16 32  1  0  0  0  0
 16 33  1  0  0  0  0
M  END
> <s_m_source_file>
AV-unprocessed.smi

> <i_m_source_file_index>
922

> <i_lp_mmshare_version>
43012

> <i_f3d_flags>
0

> <s_epik_input>
W0NIM11bQ0BASF0oTzEpW0NIMl1OKFtDSDJdQzEoW0NIM10pW0NIM10pYzJbY0hdbltuSF1jKD1PKWMyQ2w=

> <s_epik_cmdline>
J2VwaWtfcHl0aG9uJywgJy1waCcsICc3LjAnLCAnLXRuJywgJzgnLCAnLW1hJywgJzIwMCcsICctbWV0YWxfYmluZGluZycsICctaW1hZScsICc8aW5maWxlLm1hZT4nLCAnLW9tYWUnLCAnPG91dGZpbGUubWFlPic=

> <r_lp_tautomer_probability>
0.986175

> <r_epik_Ionization_Penalty>
0.00909695

> <r_epik_Ionization_Penalty_Charging>
0.00909694

> <r_epik_Ionization_Penalty_Neutral>
4.87729e-09

> <r_epik_State_Penalty>
1.54226

> <r_epik_Charging_Adjusted_Penalty>
1.55136

> <i_epik_Tot_Q>
0

> <i_epik_Tot_abs_Q>
0

> <r_epik_Metal_State_Penalty>
3.93934

> <b_epik_Metal_Only>
0

> <s_lp_Force_Field>
OPLS_2005

> <r_lp_Energy>
35.5656

> <b_lp_Chiralities_Consistent>
1

> <s_lp_Variant>
AV-unprocessed.smi:922-4

> <Gold.Version>
5.8.1

> <Gold.Id.Protein>
6NUR|6NUR_protein|mol2

> <Gold.PLP.Fitness>
37.7647

> <Gold.PLP.PLP>
-30.9389

> <Gold.PLP.part.hbond>
-3.0000

> <Gold.PLP.part.metal>
0.0000

> <Gold.PLP.part.buried>
-2.9036

> <Gold.PLP.part.nonpolar>
-23.8012

> <Gold.PLP.part.repulsive>
0.5190

> <Gold.PLP.ligand.clash>
0.0000

> <Gold.PLP.ligand.torsion>
0.6726

> <Gold.PLP.Chemscore.Hbond>
1.4122

> <Gold.PLP.Chemscore.CHOScore>
1.0000

> <Gold.PLP.Chemscore.Metal>
0.0000

> <Gold.Chemscore.Hbonds>
donor molecule, donor type, donor heavy atom, donor atom, acceptor molecule, acceptor atom, score
      L1  H     8    18       P1  7957  0.89
      P1  H  7989  7998       L1     7  0.05
      P1  H  8011  8017       L1     7  0.48
      L1  C     6    25       P1  8028  1.00

> <Gold.PLP.Chemscore.Internal.Correction>
0.9344

> <Gold.Rescore>
     Score         DG    S(hbond)    S(metal)    S(lipo)     H(rot)  DE(clash)    DE(int)     intcor
     17.97     -20.02       1.28        0.00      87.70       0.00       0.32       1.73       ----

> <Gold.Chemscore.Fitness>
17.9716

> <Gold.Chemscore.DG>
-20.0185

> <Gold.Chemscore.ZeroCoef>
-5.4800

> <Gold.Chemscore.Hbond>
1.2807

> <Gold.Chemscore.Metal>
0.0000

> <Gold.Chemscore.Lipo>
87.6992

> <Gold.Chemscore.Internal_Hbond>
0.0000

> <Gold.Chemscore.DEClash>
0.3178

> <Gold.Chemscore.DEInternal>
1.7292

> <Gold.Chemscore.Rot>
0.0000

> <Gold.Chemscore.Internal.Correction>
   9.000000E+99

> <Gold.Chemscore.Hbonds>
donor molecule, donor type, donor heavy atom, donor atom, acceptor molecule, acceptor atom, score
      L1  H     8    18       P1  7957  0.81
      P1  H  8011  8017       L1     7  0.41

> <Gold.Chemscore.Hbond.Weighted>
-4.2777

> <Gold.Chemscore.Metal.Weighted>
-0.0000

> <Gold.Chemscore.Lipo.Weighted>
-10.2608

> <Gold.Chemscore.Internal_Hbond.Weighted>
0.0000

> <Gold.Chemscore.DEClash.Weighted>
0.3178

> <Gold.Chemscore.DEInternal.Weighted>
1.7292

> <Gold.Chemscore.Rot.Weighted>
0.0000

> <Gold.Chemscore.Internal.Correction.Weighted>
   9.000000E+99

> <Gold.Protein.RotatedTorsions>
[ 6907 6896 6895 6894 ] final  -41.94 input  -60.11 | X-H torsion
[ 7974 7965 7964 7962 ] final  104.28 input  175.53 | X-H torsion
[ 8008 7997 7996 7995 ] final  114.00 input   59.86 | X-H torsion
[ 10167 10162 10161 10158 ] final   46.13 input  -65.29 | X-H torsion
[ 10718 10713 10712 10709 ] final   35.97 input   66.30 | X-H torsion
[ 10763 10752 10751 10750 ] final  -48.78 input  -60.55 | X-H torsion
[ 11005 11000 10999 10996 ] final   77.98 input  -57.11 | X-H torsion

> <Gold.Protein.ActiveResidues>
 VAL166  LYS551  ARG553  GLY616  TRP617  ASP618  TYR619  PRO620  LYS621  CYS622 
 ASP623  PHE694  ASN695  SER759  ASP760  ASP761  ALA762  ILE779  LEU786  VAL792 
 PHE793  MET794  SER795  GLU796  ALA797  LYS798  CYS799  TRP800  GLU811  SER814 

> <Gold.Protein.RotatedAtoms>
  150.9609  134.8997  159.7729 H   0  0  0  0  0  0  0  0  0  0  0  0  # atno 6907 bound_to 6896
  152.5156  134.3674  159.9316 H   0  0  0  0  0  0  0  0  0  0  0  0  # atno 6908 bound_to 6896
  151.3686  133.3822  159.2732 H   0  0  0  0  0  0  0  0  0  0  0  0  # atno 6909 bound_to 6896
  145.3349  139.2477  143.3641 H   0  0  0  0  0  0  0  0  0  0  0  0  # atno 7974 bound_to 7965
  156.2294  140.2968  156.0149 H   0  0  0  0  0  0  0  0  0  0  0  0  # atno 8008 bound_to 7997
  155.2267  140.0417  157.2973 H   0  0  0  0  0  0  0  0  0  0  0  0  # atno 8009 bound_to 7997
  154.5970  140.2416  155.7852 H   0  0  0  0  0  0  0  0  0  0  0  0  # atno 8010 bound_to 7997
  140.3171  144.2750  150.6189 H   0  0  0  0  0  0  0  0  0  0  0  0  # atno 10167 bound_to 10162
  157.3291  130.7488  149.6835 H   0  0  0  0  0  0  0  0  0  0  0  0  # atno 10718 bound_to 10713
  154.0833  135.6588  153.4841 H   0  0  0  0  0  0  0  0  0  0  0  0  # atno 10763 bound_to 10752
  153.0348  135.5185  154.7452 H   0  0  0  0  0  0  0  0  0  0  0  0  # atno 10764 bound_to 10752
  154.6554  135.3007  154.9903 H   0  0  0  0  0  0  0  0  0  0  0  0  # atno 10765 bound_to 10752
  139.9231  134.7727  156.1591 H   0  0  0  0  0  0  0  0  0  0  0  0  # atno 11005 bound_to 11000
  146.3031  140.3934  142.8697 LP  0  0  0  0  0  0  0  0  0  0  0  0  # atno 17320 bound_to 7965
  144.8835  140.7432  143.5971 LP  0  0  0  0  0  0  0  0  0  0  0  0  # atno 17321 bound_to 7965
  140.5517  143.2205  151.7916 LP  0  0  0  0  0  0  0  0  0  0  0  0  # atno 17342 bound_to 10162
  139.4882  144.4468  151.9701 LP  0  0  0  0  0  0  0  0  0  0  0  0  # atno 17343 bound_to 10162
  155.9694  130.4200  150.4404 LP  0  0  0  0  0  0  0  0  0  0  0  0  # atno 17370 bound_to 10713
  157.2432  131.0530  151.2424 LP  0  0  0  0  0  0  0  0  0  0  0  0  # atno 17371 bound_to 10713
  141.0769  133.6771  156.2254 LP  0  0  0  0  0  0  0  0  0  0  0  0  # atno 17394 bound_to 11000
  140.6414  134.5162  157.5570 LP  0  0  0  0  0  0  0  0  0  0  0  0  # atno 17395 bound_to 11000

$$$$
