AV-unprocessed.smi:1570|AV-procd|sdf|6325|dock2
  -GOLD-   22720 6533D 1   1.00000     0.00000
 Structure written by MMmdl.
 52 54  0  0  0  0  0  0  0  0  2 V2000
  145.0442  131.6195  151.4677 C   0  0  0  0  0  0  0  0  0  0  0  0
  143.7700  132.4038  151.1309 C   0  0  0  0  0  0  0  0  0  0  0  0
  143.9180  133.8197  151.4574 N   0  0  0  0  0  0  0  0  0  0  0  0
  144.9199  134.6387  151.0603 C   0  0  0  0  0  0  0  0  0  0  0  0
  145.8740  134.3257  150.3480 O   0  0  0  0  0  0  0  0  0  0  0  0
  144.6800  135.8720  151.5652 N   0  0  0  0  0  0  0  0  0  0  0  0
  145.5038  137.0630  151.3694 C   0  0  0  0  0  0  0  0  0  0  0  0
  146.0948  137.5691  152.7015 C   0  0  1  0  0  0  0  0  0  0  0  0
  146.9883  136.5863  153.1874 O   0  0  0  0  0  0  0  0  0  0  0  0
  146.8930  138.8751  152.5116 C   0  0  0  0  0  0  0  0  0  0  0  0
  146.5291  139.9191  153.5081 N   0  3  1  0  0  0  0  0  0  0  0  0
  146.0429  139.3666  154.7955 C   0  0  0  0  0  0  0  0  0  0  0  0
  147.2123  138.8683  155.6691 C   0  0  2  0  0  0  0  0  0  0  0  0
  146.7367  138.3742  157.0396 C   0  0  0  0  0  0  0  0  0  0  0  0
  148.1218  139.9432  155.8784 O   0  0  0  0  0  0  0  0  0  0  0  0
  148.6945  140.4271  154.6681 C   0  0  2  0  0  0  0  0  0  0  0  0
  149.7023  141.5252  155.0246 C   0  0  0  0  0  0  0  0  0  0  0  0
  147.5709  140.9511  153.7483 C   0  0  0  0  0  0  0  0  0  0  0  0
  143.4746  135.8489  152.2810 C   0  0  0  0  0  0  0  0  0  0  0  0
  142.7825  136.8649  152.9630 C   0  0  0  0  0  0  0  0  0  0  0  0
  141.5614  136.5112  153.5835 C   0  0  0  0  0  0  0  0  0  0  0  0
  141.0672  135.1831  153.5114 C   0  0  0  0  0  0  0  0  0  0  0  0
  141.7836  134.1798  152.8177 C   0  0  0  0  0  0  0  0  0  0  0  0
  142.9946  134.5576  152.2119 C   0  0  0  0  0  0  0  0  0  0  0  0
  144.9265  130.5647  151.2194 H   0  0  0  0  0  0  0  0  0  0  0  0
  145.2801  131.6866  152.5302 H   0  0  0  0  0  0  0  0  0  0  0  0
  145.9003  131.9987  150.9086 H   0  0  0  0  0  0  0  0  0  0  0  0
  143.5323  132.2953  150.0722 H   0  0  0  0  0  0  0  0  0  0  0  0
  142.9217  131.9847  151.6746 H   0  0  0  0  0  0  0  0  0  0  0  0
  146.2820  136.8844  150.6261 H   0  0  0  0  0  0  0  0  0  0  0  0
  144.8635  137.8321  150.9345 H   0  0  0  0  0  0  0  0  0  0  0  0
  145.2969  137.7175  153.4283 H   0  0  0  0  0  0  0  0  0  0  0  0
  147.8122  136.6737  152.7325 H   0  0  0  0  0  0  0  0  0  0  0  0
  147.9563  138.6437  152.5929 H   0  0  0  0  0  0  0  0  0  0  0  0
  146.7482  139.2623  151.5031 H   0  0  0  0  0  0  0  0  0  0  0  0
  145.5049  140.1558  155.3227 H   0  0  0  0  0  0  0  0  0  0  0  0
  145.3190  138.5699  154.6201 H   0  0  0  0  0  0  0  0  0  0  0  0
  147.7317  138.0486  155.1699 H   0  0  0  0  0  0  0  0  0  0  0  0
  146.0407  137.5414  156.9369 H   0  0  0  0  0  0  0  0  0  0  0  0
  146.2315  139.1670  157.5920 H   0  0  0  0  0  0  0  0  0  0  0  0
  147.5772  138.0313  157.6432 H   0  0  0  0  0  0  0  0  0  0  0  0
  149.2370  139.6166  154.1802 H   0  0  0  0  0  0  0  0  0  0  0  0
  150.1819  141.9232  154.1300 H   0  0  0  0  0  0  0  0  0  0  0  0
  150.4858  141.1385  155.6768 H   0  0  0  0  0  0  0  0  0  0  0  0
  149.2185  142.3545  155.5419 H   0  0  0  0  0  0  0  0  0  0  0  0
  147.9841  141.3229  152.8118 H   0  0  0  0  0  0  0  0  0  0  0  0
  147.0875  141.8061  154.2232 H   0  0  0  0  0  0  0  0  0  0  0  0
  143.1596  137.8757  153.0108 H   0  0  0  0  0  0  0  0  0  0  0  0
  140.9969  137.2624  154.1164 H   0  0  0  0  0  0  0  0  0  0  0  0
  140.1312  134.9354  153.9902 H   0  0  0  0  0  0  0  0  0  0  0  0
  141.4095  133.1686  152.7553 H   0  0  0  0  0  0  0  0  0  0  0  0
  145.7394  140.3985  153.0987 H   0  0  0  0  0  0  0  0  0  0  0  0
  1  2  1  0  0  0  0
  1 25  1  0  0  0  0
  1 26  1  0  0  0  0
  1 27  1  0  0  0  0
  2  3  1  0  0  0  0
  2 28  1  0  0  0  0
  2 29  1  0  0  0  0
  3 24  1  0  0  0  0
  3  4  1  0  0  0  0
  4  5  2  0  0  0  0
  4  6  1  0  0  0  0
  6  7  1  0  0  0  0
  6 19  1  0  0  0  0
  7  8  1  0  0  0  0
  7 30  1  0  0  0  0
  7 31  1  0  0  0  0
  8  9  1  0  0  0  0
  8 10  1  0  0  0  0
  8 32  1  0  0  0  0
  9 33  1  0  0  0  0
 10 11  1  0  0  0  0
 10 34  1  0  0  0  0
 10 35  1  0  0  0  0
 11 18  1  0  0  0  0
 11 12  1  0  0  0  0
 11 52  1  0  0  0  0
 12 13  1  0  0  0  0
 12 36  1  0  0  0  0
 12 37  1  0  0  0  0
 13 14  1  0  0  0  0
 13 15  1  0  0  0  0
 13 38  1  0  0  0  0
 14 39  1  0  0  0  0
 14 40  1  0  0  0  0
 14 41  1  0  0  0  0
 15 16  1  0  0  0  0
 16 17  1  0  0  0  0
 16 18  1  0  0  0  0
 16 42  1  0  0  0  0
 17 43  1  0  0  0  0
 17 44  1  0  0  0  0
 17 45  1  0  0  0  0
 18 46  1  0  0  0  0
 18 47  1  0  0  0  0
 19 24  2  0  0  0  0
 19 20  1  0  0  0  0
 20 21  2  0  0  0  0
 20 48  1  0  0  0  0
 21 22  1  0  0  0  0
 21 49  1  0  0  0  0
 22 23  2  0  0  0  0
 22 50  1  0  0  0  0
 23 24  1  0  0  0  0
 23 51  1  0  0  0  0
M  CHG  1  11   1
M  END
> <s_m_source_file>
AV-unprocessed.smi

> <i_m_source_file_index>
1570

> <i_lp_mmshare_version>
43012

> <i_f3d_flags>
0

> <s_epik_input>
W2NIXTFbY0hdW2NIXVtjSF1jKGMxMiluKFtDSDJdW0NIM10pYyg9TyluMltDSDJdW0NASF0oW09IXSlbQ0gyXU4zW0NIMl1bQ0BASF0oW0NIM10pT1tDQEBIXShbQ0gzXSlbQ0gyXTM=

> <s_epik_cmdline>
J2VwaWtfcHl0aG9uJywgJy1waCcsICc3LjAnLCAnLXRuJywgJzgnLCAnLW1hJywgJzIwMCcsICctbWV0YWxfYmluZGluZycsICctaW1hZScsICc8aW5maWxlLm1hZT4nLCAnLW9tYWUnLCAnPG91dGZpbGUubWFlPic=

> <r_epik_Ionization_Penalty>
0.706332

> <r_epik_Ionization_Penalty_Charging>
0.706318

> <r_epik_Ionization_Penalty_Neutral>
1.42224e-05

> <r_epik_State_Penalty>
0.729493

> <r_epik_Charging_Adjusted_Penalty>
1.43581

> <i_epik_Tot_Q>
1

> <i_epik_Tot_abs_Q>
1

> <r_epik_Metal_State_Penalty>
0.729493

> <b_epik_Metal_Only>
0

> <s_lp_Force_Field>
OPLS_2005

> <r_lp_Energy>
54.0737

> <b_lp_Chiralities_Consistent>
1

> <s_lp_Variant>
AV-unprocessed.smi:1570-14

> <Gold.Version>
5.8.1

> <Gold.Id.Protein>
6NUR|6NUR_protein|mol2

> <Gold.PLP.Fitness>
47.3882

> <Gold.PLP.PLP>
-40.5453

> <Gold.PLP.part.hbond>
-1.9444

> <Gold.PLP.part.metal>
0.0000

> <Gold.PLP.part.buried>
-2.6888

> <Gold.PLP.part.nonpolar>
-38.3859

> <Gold.PLP.part.repulsive>
1.4811

> <Gold.PLP.ligand.clash>
0.0000

> <Gold.PLP.ligand.torsion>
1.1242

> <Gold.PLP.Chemscore.Hbond>
3.0000

> <Gold.PLP.Chemscore.CHOScore>
0.0000

> <Gold.PLP.Chemscore.Metal>
0.0000

> <Gold.Chemscore.Hbonds>
donor molecule, donor type, donor heavy atom, donor atom, acceptor molecule, acceptor atom, score
      L1  H     9    33       P1  7948  0.93
      L1  H    11    52       P1 10175  1.43

> <Gold.PLP.Chemscore.Internal.Correction>
0.0912

> <Gold.Rescore>
     Score         DG    S(hbond)    S(metal)    S(lipo)     H(rot)  DE(clash)    DE(int)     intcor
     15.08     -17.71       1.94        0.00      95.89       2.13       1.51       1.12       ----

> <Gold.Chemscore.Fitness>
15.0817

> <Gold.Chemscore.DG>
-17.7108

> <Gold.Chemscore.ZeroCoef>
-5.4800

> <Gold.Chemscore.Hbond>
1.9356

> <Gold.Chemscore.Metal>
0.0000

> <Gold.Chemscore.Lipo>
95.8925

> <Gold.Chemscore.Internal_Hbond>
0.0000

> <Gold.Chemscore.DEClash>
1.5123

> <Gold.Chemscore.DEInternal>
1.1168

> <Gold.Chemscore.Rot>
2.1303

> <Gold.Chemscore.Internal.Correction>
   9.000000E+99

> <Gold.Chemscore.Hbonds>
donor molecule, donor type, donor heavy atom, donor atom, acceptor molecule, acceptor atom, score
      L1  H     9    33       P1  7948  0.87
      L1  H    11    52       P1 10175  0.64

> <Gold.Chemscore.Hbond.Weighted>
-6.4649

> <Gold.Chemscore.Metal.Weighted>
-0.0000

> <Gold.Chemscore.Lipo.Weighted>
-11.2194

> <Gold.Chemscore.Internal_Hbond.Weighted>
0.0000

> <Gold.Chemscore.DEClash.Weighted>
1.5123

> <Gold.Chemscore.DEInternal.Weighted>
1.1168

> <Gold.Chemscore.Rot.Weighted>
5.4535

> <Gold.Chemscore.Internal.Correction.Weighted>
   9.000000E+99

> <Gold.Protein.RotatedTorsions>
[ 6907 6896 6895 6894 ] final    1.60 input  -60.11 | X-H torsion
[ 7974 7965 7964 7962 ] final  169.71 input  175.53 | X-H torsion
[ 8008 7997 7996 7995 ] final  143.25 input   59.86 | X-H torsion
[ 10167 10162 10161 10158 ] final  154.30 input  -65.29 | X-H torsion
[ 10718 10713 10712 10709 ] final -170.28 input   66.30 | X-H torsion
[ 10763 10752 10751 10750 ] final  -58.09 input  -60.55 | X-H torsion
[ 11005 11000 10999 10996 ] final   54.75 input  -57.11 | X-H torsion

> <Gold.Protein.ActiveResidues>
 VAL166  LYS551  ARG553  GLY616  TRP617  ASP618  TYR619  PRO620  LYS621  CYS622 
 ASP623  PHE694  ASN695  SER759  ASP760  ASP761  ALA762  ILE779  LEU786  VAL792 
 PHE793  MET794  SER795  GLU796  ALA797  LYS798  CYS799  TRP800  GLU811  SER814 

> <Gold.Protein.RotatedAtoms>
  151.5953  135.1051  160.0047 H   0  0  0  0  0  0  0  0  0  0  0  0  # atno 6907 bound_to 6896
  152.4285  133.7233  159.6556 H   0  0  0  0  0  0  0  0  0  0  0  0  # atno 6908 bound_to 6896
  150.8176  133.8238  159.3176 H   0  0  0  0  0  0  0  0  0  0  0  0  # atno 6909 bound_to 6896
  144.7346  139.9094  143.6414 H   0  0  0  0  0  0  0  0  0  0  0  0  # atno 7974 bound_to 7965
  156.2934  140.2267  156.4860 H   0  0  0  0  0  0  0  0  0  0  0  0  # atno 8008 bound_to 7997
  154.7812  140.0460  157.1149 H   0  0  0  0  0  0  0  0  0  0  0  0  # atno 8009 bound_to 7997
  154.9757  140.3072  155.4972 H   0  0  0  0  0  0  0  0  0  0  0  0  # atno 8010 bound_to 7997
  139.4824  144.5198  151.7893 H   0  0  0  0  0  0  0  0  0  0  0  0  # atno 10167 bound_to 10162
  156.7239  130.9280  151.3099 H   0  0  0  0  0  0  0  0  0  0  0  0  # atno 10718 bound_to 10713
  154.2326  135.6358  153.5180 H   0  0  0  0  0  0  0  0  0  0  0  0  # atno 10763 bound_to 10752
  152.9946  135.5523  154.5996 H   0  0  0  0  0  0  0  0  0  0  0  0  # atno 10764 bound_to 10752
  154.5482  135.2899  155.1007 H   0  0  0  0  0  0  0  0  0  0  0  0  # atno 10765 bound_to 10752
  140.0661  134.5534  155.9097 H   0  0  0  0  0  0  0  0  0  0  0  0  # atno 11005 bound_to 11000
  146.1012  139.4008  143.0345 LP  0  0  0  0  0  0  0  0  0  0  0  0  # atno 17320 bound_to 7965
  145.7576  140.9948  143.1217 LP  0  0  0  0  0  0  0  0  0  0  0  0  # atno 17321 bound_to 7965
  140.4711  144.1585  150.5918 LP  0  0  0  0  0  0  0  0  0  0  0  0  # atno 17342 bound_to 10162
  140.4381  143.2538  151.9509 LP  0  0  0  0  0  0  0  0  0  0  0  0  # atno 17343 bound_to 10162
  157.6887  130.9211  150.0454 LP  0  0  0  0  0  0  0  0  0  0  0  0  # atno 17370 bound_to 10713
  156.1575  130.3643  149.9347 LP  0  0  0  0  0  0  0  0  0  0  0  0  # atno 17371 bound_to 10713
  141.1993  133.6606  156.5838 LP  0  0  0  0  0  0  0  0  0  0  0  0  # atno 17394 bound_to 11000
  140.3696  134.7617  157.4590 LP  0  0  0  0  0  0  0  0  0  0  0  0  # atno 17395 bound_to 11000

$$$$
