AV-unprocessed.smi:112|AV-procd|sdf|1085|dock9
  -GOLD-   2262018183D 1   1.00000     0.00000
 Structure written by MMmdl.
 54 57  0  0  0  0  0  0  0  0  3 V2000
  151.8307  144.9847  157.8380 C   0  0  0  0  0  0  0  0  0  0  0  0
  151.7191  143.4848  158.0631 C   0  0  0  0  0  0  0  0  0  0  0  0
  150.8655  142.7128  157.3517 C   0  0  0  0  0  0  0  0  0  0  0  0
  150.7423  141.3465  157.5304 N   0  0  0  0  0  0  0  0  0  0  0  0
  149.8000  140.5083  156.6945 C   0  0  2  0  0  0  0  0  0  0  0  0
  150.3282  140.3849  155.2567 C   0  0  0  0  0  0  0  0  0  0  0  0
  149.0680  140.5554  154.4319 C   0  0  2  0  0  0  0  0  0  0  0  0
  149.3653  141.0818  153.1549 O   0  0  0  0  0  0  0  0  0  0  0  0
  148.2784  141.5371  155.3002 C   0  0  1  0  0  0  0  0  0  0  0  0
  146.7639  141.6357  155.0491 C   0  0  0  0  0  0  0  0  0  0  0  0
  146.4627  141.7359  153.6731 O   0  0  0  0  0  0  0  0  0  0  0  0
  148.5444  141.1236  156.6360 O   0  0  0  0  0  0  0  0  0  0  0  0
  151.5469  140.6930  158.4842 C   0  0  0  0  0  0  0  0  0  0  0  0
  151.4770  139.4709  158.6355 O   0  0  0  0  0  0  0  0  0  0  0  0
  152.4423  141.4717  159.2508 N   0  0  0  0  0  0  0  0  0  0  0  0
  153.3006  140.7857  160.2431 C   0  0  0  0  0  0  0  0  0  0  0  0
  154.2722  139.7586  159.6200 C   0  0  0  0  0  0  0  0  0  0  0  0
  154.0280  139.3150  158.4973 O   0  0  0  0  0  0  0  0  0  0  0  0
  155.3617  139.3964  160.3420 N   0  0  0  0  0  0  0  0  0  0  0  0
  155.6660  139.9336  161.6798 C   0  0  0  0  0  0  0  0  0  0  0  0
  157.0005  139.2893  162.1135 C   0  0  0  0  0  0  0  0  0  0  0  0
  157.3318  138.3880  160.9614 C   0  0  0  0  0  0  0  0  0  0  0  0
  158.4503  137.5452  160.8509 C   0  0  0  0  0  0  0  0  0  0  0  0
  158.6038  136.7609  159.6809 C   0  0  0  0  0  0  0  0  0  0  0  0
  159.7674  135.8648  159.5294 N   0  3  0  0  0  0  0  0  0  0  0  0
  159.8891  135.2409  158.4801 O   0  0  0  0  0  0  0  0  0  0  0  0
  160.5625  135.7834  160.4602 O   0  5  0  0  0  0  0  0  0  0  0  0
  157.6233  136.8495  158.6571 C   0  0  0  0  0  0  0  0  0  0  0  0
  156.5043  137.7014  158.7853 C   0  0  0  0  0  0  0  0  0  0  0  0
  156.3723  138.4744  159.9594 C   0  0  0  0  0  0  0  0  0  0  0  0
  152.5769  142.8714  159.0801 C   0  0  0  0  0  0  0  0  0  0  0  0
  153.3856  143.5115  159.7550 O   0  0  0  0  0  0  0  0  0  0  0  0
  151.1364  145.3338  157.0731 H   0  0  0  0  0  0  0  0  0  0  0  0
  152.8394  145.2467  157.5171 H   0  0  0  0  0  0  0  0  0  0  0  0
  151.6110  145.5273  158.7580 H   0  0  0  0  0  0  0  0  0  0  0  0
  150.2592  143.2022  156.6049 H   0  0  0  0  0  0  0  0  0  0  0  0
  149.6906  139.5532  157.2109 H   0  0  0  0  0  0  0  0  0  0  0  0
  151.0335  141.1943  155.0574 H   0  0  0  0  0  0  0  0  0  0  0  0
  150.8316  139.4305  155.1000 H   0  0  0  0  0  0  0  0  0  0  0  0
  148.5576  139.5963  154.3384 H   0  0  0  0  0  0  0  0  0  0  0  0
  149.3611  140.3731  152.5296 H   0  0  0  0  0  0  0  0  0  0  0  0
  148.7112  142.5334  155.1912 H   0  0  0  0  0  0  0  0  0  0  0  0
  146.2472  140.7758  155.4761 H   0  0  0  0  0  0  0  0  0  0  0  0
  146.3671  142.5233  155.5423 H   0  0  0  0  0  0  0  0  0  0  0  0
  147.1372  141.2874  153.1860 H   0  0  0  0  0  0  0  0  0  0  0  0
  153.8809  141.5067  160.8203 H   0  0  0  0  0  0  0  0  0  0  0  0
  152.6762  140.2896  160.9871 H   0  0  0  0  0  0  0  0  0  0  0  0
  155.7558  141.0204  161.6550 H   0  0  0  0  0  0  0  0  0  0  0  0
  154.8773  139.6699  162.3858 H   0  0  0  0  0  0  0  0  0  0  0  0
  157.7850  140.0344  162.2500 H   0  0  0  0  0  0  0  0  0  0  0  0
  156.8955  138.7137  163.0338 H   0  0  0  0  0  0  0  0  0  0  0  0
  159.1727  137.5070  161.6530 H   0  0  0  0  0  0  0  0  0  0  0  0
  157.7197  136.2604  157.7569 H   0  0  0  0  0  0  0  0  0  0  0  0
  155.7822  137.7375  157.9850 H   0  0  0  0  0  0  0  0  0  0  0  0
  1  2  1  0  0  0  0
  1 33  1  0  0  0  0
  1 34  1  0  0  0  0
  1 35  1  0  0  0  0
  2 31  1  0  0  0  0
  2  3  2  0  0  0  0
  3  4  1  0  0  0  0
  3 36  1  0  0  0  0
  4  5  1  0  0  0  0
  4 13  1  0  0  0  0
  5 12  1  0  0  0  0
  5  6  1  0  0  0  0
  5 37  1  0  0  0  0
  6  7  1  0  0  0  0
  6 38  1  0  0  0  0
  6 39  1  0  0  0  0
  7  8  1  0  0  0  0
  7  9  1  0  0  0  0
  7 40  1  0  0  0  0
  8 41  1  0  0  0  0
  9 10  1  0  0  0  0
  9 12  1  0  0  0  0
  9 42  1  0  0  0  0
 10 11  1  0  0  0  0
 10 43  1  0  0  0  0
 10 44  1  0  0  0  0
 11 45  1  0  0  0  0
 13 14  2  0  0  0  0
 13 15  1  0  0  0  0
 15 16  1  0  0  0  0
 15 31  1  0  0  0  0
 16 17  1  0  0  0  0
 16 46  1  0  0  0  0
 16 47  1  0  0  0  0
 17 18  2  0  0  0  0
 17 19  1  0  0  0  0
 19 30  1  0  0  0  0
 19 20  1  0  0  0  0
 20 21  1  0  0  0  0
 20 48  1  0  0  0  0
 20 49  1  0  0  0  0
 21 22  1  0  0  0  0
 21 50  1  0  0  0  0
 21 51  1  0  0  0  0
 22 30  2  0  0  0  0
 22 23  1  0  0  0  0
 23 24  2  0  0  0  0
 23 52  1  0  0  0  0
 24 25  1  0  0  0  0
 24 28  1  0  0  0  0
 25 26  2  0  0  0  0
 25 27  1  0  0  0  0
 28 29  2  0  0  0  0
 28 53  1  0  0  0  0
 29 30  1  0  0  0  0
 29 54  1  0  0  0  0
 31 32  2  0  0  0  0
M  CHG  1  25   1
M  CHG  1  27  -1
M  END
> <s_m_source_file>
AV-unprocessed.smi

> <i_m_source_file_index>
112

> <i_lp_mmshare_version>
43012

> <i_f3d_flags>
0

> <s_epik_input>
W09IXVtDSDJdW0NAQEhdKE8xKVtDQEhdKFtPSF0pW0NIMl1bQ0BIXTFuKFtjSF1jMltDSDNdKWMoPU8pbihjMj1PKVtDSDJdQyg9TylOKFtDSDJdW0NIMl0zKWMoYzM0KVtjSF1bY0hdYyhbY0hdNClbTitdKD1PKVtPLV0=

> <s_epik_cmdline>
J2VwaWtfcHl0aG9uJywgJy1waCcsICc3LjAnLCAnLXRuJywgJzgnLCAnLW1hJywgJzIwMCcsICctbWV0YWxfYmluZGluZycsICctaW1hZScsICc8aW5maWxlLm1hZT4nLCAnLW9tYWUnLCAnPG91dGZpbGUubWFlPic=

> <r_lp_tautomer_probability>
1

> <r_epik_Ionization_Penalty>
2.5696e-07

> <r_epik_Ionization_Penalty_Charging>
1.04886e-08

> <r_epik_Ionization_Penalty_Neutral>
2.46472e-07

> <r_epik_State_Penalty>
-0

> <r_epik_Charging_Adjusted_Penalty>
1.04886e-08

> <i_epik_Tot_Q>
0

> <i_epik_Tot_abs_Q>
2

> <r_epik_Metal_State_Penalty>
-0

> <b_epik_Metal_Only>
0

> <s_epik_Chemistry_Notes>
This compound contains an acetal/aminal-like group ( X-CH(R)-Y where X, Y are N, S, or O) that may be acid/base labile, releasing an aldehyde.

> <s_lp_Force_Field>
OPLS_2005

> <r_lp_Energy>
57.8842

> <b_lp_Chiralities_Consistent>
1

> <s_lp_Variant>
AV-unprocessed.smi:112-3

> <Gold.Version>
5.8.1

> <Gold.Id.Protein>
6NUR|6NUR_protein|mol2

> <Gold.PLP.Fitness>
54.1656

> <Gold.PLP.PLP>
-43.8277

> <Gold.PLP.part.hbond>
-3.8079

> <Gold.PLP.part.metal>
0.0000

> <Gold.PLP.part.buried>
-4.8645

> <Gold.PLP.part.nonpolar>
-34.5455

> <Gold.PLP.part.repulsive>
0.2851

> <Gold.PLP.ligand.clash>
0.0000

> <Gold.PLP.ligand.torsion>
0.6863

> <Gold.PLP.Chemscore.Hbond>
2.8972

> <Gold.PLP.Chemscore.CHOScore>
1.0000

> <Gold.PLP.Chemscore.Metal>
0.0000

> <Gold.Chemscore.Hbonds>
donor molecule, donor type, donor heavy atom, donor atom, acceptor molecule, acceptor atom, score
      L1  H     8    41       P1  7957  0.65
      P1  H  7989  7998       L1     8  0.02
      P1  H  7997  8009       L1    18  1.00
      P1  H  8011  8017       L1     8  1.00
      L1  C     3    36       P1  8028  1.00

> <Gold.PLP.Chemscore.Internal.Correction>
0.0190

> <Gold.Rescore>
     Score         DG    S(hbond)    S(metal)    S(lipo)     H(rot)  DE(clash)    DE(int)     intcor
      9.10     -14.77       2.30        0.00      85.72       3.29       0.28       5.39       ----

> <Gold.Chemscore.Fitness>
9.1016

> <Gold.Chemscore.DG>
-14.7658

> <Gold.Chemscore.ZeroCoef>
-5.4800

> <Gold.Chemscore.Hbond>
2.3005

> <Gold.Chemscore.Metal>
0.0000

> <Gold.Chemscore.Lipo>
85.7161

> <Gold.Chemscore.Internal_Hbond>
0.0000

> <Gold.Chemscore.DEClash>
0.2774

> <Gold.Chemscore.DEInternal>
5.3868

> <Gold.Chemscore.Rot>
3.2916

> <Gold.Chemscore.Internal.Correction>
   9.000000E+99

> <Gold.Chemscore.Hbonds>
donor molecule, donor type, donor heavy atom, donor atom, acceptor molecule, acceptor atom, score
      L1  H     8    41       P1  7957  0.63
      P1  H  7997  8009       L1    18  0.95
      P1  H  8011  8017       L1     8  0.55

> <Gold.Chemscore.Hbond.Weighted>
-7.6836

> <Gold.Chemscore.Metal.Weighted>
-0.0000

> <Gold.Chemscore.Lipo.Weighted>
-10.0288

> <Gold.Chemscore.Internal_Hbond.Weighted>
0.0000

> <Gold.Chemscore.DEClash.Weighted>
0.2774

> <Gold.Chemscore.DEInternal.Weighted>
5.3868

> <Gold.Chemscore.Rot.Weighted>
8.4265

> <Gold.Chemscore.Internal.Correction.Weighted>
   9.000000E+99

> <Gold.Protein.RotatedTorsions>
[ 6907 6896 6895 6894 ] final -130.13 input  -60.11 | X-H torsion
[ 7974 7965 7964 7962 ] final   12.22 input  175.53 | X-H torsion
[ 8008 7997 7996 7995 ] final  156.94 input   59.86 | X-H torsion
[ 10167 10162 10161 10158 ] final   22.04 input  -65.29 | X-H torsion
[ 10718 10713 10712 10709 ] final  -25.37 input   66.30 | X-H torsion
[ 10763 10752 10751 10750 ] final   22.55 input  -60.55 | X-H torsion
[ 11005 11000 10999 10996 ] final  159.41 input  -57.11 | X-H torsion

> <Gold.Protein.ActiveResidues>
 VAL166  LYS551  ARG553  GLY616  TRP617  ASP618  TYR619  PRO620  LYS621  CYS622 
 ASP623  PHE694  ASN695  SER759  ASP760  ASP761  ALA762  ILE779  LEU786  VAL792 
 PHE793  MET794  SER795  GLU796  ALA797  LYS798  CYS799  TRP800  GLU811  SER814 

> <Gold.Protein.RotatedAtoms>
  150.9363  133.6708  159.2799 H   0  0  0  0  0  0  0  0  0  0  0  0  # atno 6907 bound_to 6896
  151.4113  135.0984  159.9595 H   0  0  0  0  0  0  0  0  0  0  0  0  # atno 6908 bound_to 6896
  152.5049  133.8835  159.7413 H   0  0  0  0  0  0  0  0  0  0  0  0  # atno 6909 bound_to 6896
  146.2356  139.9369  142.8488 H   0  0  0  0  0  0  0  0  0  0  0  0  # atno 7974 bound_to 7965
  156.2393  140.1899  156.7032 H   0  0  0  0  0  0  0  0  0  0  0  0  # atno 8008 bound_to 7997
  154.6166  140.0614  156.9589 H   0  0  0  0  0  0  0  0  0  0  0  0  # atno 8009 bound_to 7997
  155.1929  140.3286  155.4358 H   0  0  0  0  0  0  0  0  0  0  0  0  # atno 8010 bound_to 7997
  140.5379  143.9728  150.6502 H   0  0  0  0  0  0  0  0  0  0  0  0  # atno 10167 bound_to 10162
  156.4653  130.4512  149.6903 H   0  0  0  0  0  0  0  0  0  0  0  0  # atno 10718 bound_to 10713
  153.0907  135.6646  153.9860 H   0  0  0  0  0  0  0  0  0  0  0  0  # atno 10763 bound_to 10752
  153.9458  135.2989  155.3442 H   0  0  0  0  0  0  0  0  0  0  0  0  # atno 10764 bound_to 10752
  154.7321  135.5118  153.9053 H   0  0  0  0  0  0  0  0  0  0  0  0  # atno 10765 bound_to 10752
  140.1959  134.8373  157.2965 H   0  0  0  0  0  0  0  0  0  0  0  0  # atno 11005 bound_to 11000
  145.1990  140.9846  143.4167 LP  0  0  0  0  0  0  0  0  0  0  0  0  # atno 17320 bound_to 7965
  144.9790  139.3802  143.6271 LP  0  0  0  0  0  0  0  0  0  0  0  0  # atno 17321 bound_to 7965
  140.3120  143.3192  152.0869 LP  0  0  0  0  0  0  0  0  0  0  0  0  # atno 17342 bound_to 10162
  139.4978  144.6630  151.6422 LP  0  0  0  0  0  0  0  0  0  0  0  0  # atno 17343 bound_to 10162
  156.3674  130.7513  151.2492 LP  0  0  0  0  0  0  0  0  0  0  0  0  # atno 17370 bound_to 10713
  157.7495  131.0333  150.4265 LP  0  0  0  0  0  0  0  0  0  0  0  0  # atno 17371 bound_to 10713
  140.2107  134.4142  155.7614 LP  0  0  0  0  0  0  0  0  0  0  0  0  # atno 17394 bound_to 11000
  141.2227  133.7117  156.8334 LP  0  0  0  0  0  0  0  0  0  0  0  0  # atno 17395 bound_to 11000

$$$$
