AV-unprocessed.smi:1079|AV-procd|sdf|4705|dock2
  -GOLD-   22720 3233D 1   1.00000     0.00000
 Structure written by MMmdl.
 43 44  0  0  0  0  0  0  0  0  2 V2000
  143.1491  134.5024  162.9024 C   0  0  0  0  0  0  0  0  0  0  0  0
  144.2779  133.9842  162.2222 O   0  0  0  0  0  0  0  0  0  0  0  0
  145.4734  134.6739  162.5486 C   0  0  0  0  0  0  0  0  0  0  0  0
  146.6831  133.9283  161.9600 C   0  0  0  0  0  0  0  0  0  0  0  0
  147.5124  134.8098  161.1084 N   0  0  0  0  0  0  0  0  0  0  0  0
  147.8336  134.4026  159.7850 C   0  0  0  0  0  0  0  0  0  0  0  0
  147.3824  133.1724  159.3283 N   0  0  0  0  0  0  0  0  0  0  0  0
  148.6028  135.1994  158.9949 C   0  0  0  0  0  0  0  0  0  0  0  0
  148.9115  134.8563  157.6627 N   0  0  0  0  0  0  0  0  0  0  0  0
  148.3780  135.7269  156.6016 C   0  0  0  0  0  0  0  0  0  0  0  0
  149.4485  136.5218  155.8698 C   0  0  0  0  0  0  0  0  0  0  0  0
  150.8140  136.2892  156.1385 C   0  0  0  0  0  0  0  0  0  0  0  0
  151.8057  137.0209  155.4574 C   0  0  0  0  0  0  0  0  0  0  0  0
  151.4362  137.9918  154.5066 C   0  0  0  0  0  0  0  0  0  0  0  0
  150.0747  138.2303  154.2376 C   0  0  0  0  0  0  0  0  0  0  0  0
  149.0829  137.4976  154.9182 C   0  0  0  0  0  0  0  0  0  0  0  0
  149.5686  133.7092  157.3453 C   0  0  0  0  0  0  0  0  0  0  0  0
  149.8984  133.4039  155.8787 C   0  0  0  0  0  0  0  0  0  0  0  0
  149.9466  132.9046  158.1981 O   0  0  0  0  0  0  0  0  0  0  0  0
  149.0602  136.4909  159.5246 C   0  0  0  0  0  0  0  0  0  0  0  0
  149.7182  137.2540  158.8173 O   0  0  0  0  0  0  0  0  0  0  0  0
  148.7298  136.8026  160.8053 N   0  5  0  0  0  0  0  0  0  0  0  0
  147.9784  135.9960  161.6070 C   0  0  0  0  0  0  0  0  0  0  0  0
  147.7098  136.3088  162.7680 O   0  0  0  0  0  0  0  0  0  0  0  0
  142.2605  133.9392  162.6183 H   0  0  0  0  0  0  0  0  0  0  0  0
  142.9813  135.5493  162.6463 H   0  0  0  0  0  0  0  0  0  0  0  0
  143.2681  134.4200  163.9836 H   0  0  0  0  0  0  0  0  0  0  0  0
  145.4323  135.6819  162.1340 H   0  0  0  0  0  0  0  0  0  0  0  0
  145.5738  134.7752  163.6304 H   0  0  0  0  0  0  0  0  0  0  0  0
  147.2585  133.4611  162.7586 H   0  0  0  0  0  0  0  0  0  0  0  0
  146.3255  133.0767  161.3789 H   0  0  0  0  0  0  0  0  0  0  0  0
  146.8324  132.5646  159.9178 H   0  0  0  0  0  0  0  0  0  0  0  0
  147.3735  132.9577  158.3415 H   0  0  0  0  0  0  0  0  0  0  0  0
  147.8000  135.1331  155.8911 H   0  0  0  0  0  0  0  0  0  0  0  0
  147.6706  136.4457  157.0185 H   0  0  0  0  0  0  0  0  0  0  0  0
  151.1046  135.5481  156.8684 H   0  0  0  0  0  0  0  0  0  0  0  0
  152.8495  136.8363  155.6643 H   0  0  0  0  0  0  0  0  0  0  0  0
  152.1967  138.5530  153.9843 H   0  0  0  0  0  0  0  0  0  0  0  0
  149.7903  138.9738  153.5079 H   0  0  0  0  0  0  0  0  0  0  0  0
  148.0408  137.6827  154.7030 H   0  0  0  0  0  0  0  0  0  0  0  0
  150.3720  134.2580  155.3937 H   0  0  0  0  0  0  0  0  0  0  0  0
  148.9975  133.1391  155.3254 H   0  0  0  0  0  0  0  0  0  0  0  0
  150.5883  132.5621  155.8107 H   0  0  0  0  0  0  0  0  0  0  0  0
  1  2  1  0  0  0  0
  1 25  1  0  0  0  0
  1 26  1  0  0  0  0
  1 27  1  0  0  0  0
  2  3  1  0  0  0  0
  3  4  1  0  0  0  0
  3 28  1  0  0  0  0
  3 29  1  0  0  0  0
  4  5  1  0  0  0  0
  4 30  1  0  0  0  0
  4 31  1  0  0  0  0
  5 23  1  0  0  0  0
  5  6  1  0  0  0  0
  6  7  1  0  0  0  0
  6  8  2  0  0  0  0
  7 32  1  0  0  0  0
  7 33  1  0  0  0  0
  8  9  1  0  0  0  0
  8 20  1  0  0  0  0
  9 10  1  0  0  0  0
  9 17  1  0  0  0  0
 10 11  1  0  0  0  0
 10 34  1  0  0  0  0
 10 35  1  0  0  0  0
 11 16  1  0  0  0  0
 11 12  2  0  0  0  0
 12 13  1  0  0  0  0
 12 36  1  0  0  0  0
 13 14  2  0  0  0  0
 13 37  1  0  0  0  0
 14 15  1  0  0  0  0
 14 38  1  0  0  0  0
 15 16  2  0  0  0  0
 15 39  1  0  0  0  0
 16 40  1  0  0  0  0
 17 18  1  0  0  0  0
 17 19  2  0  0  0  0
 18 41  1  0  0  0  0
 18 42  1  0  0  0  0
 18 43  1  0  0  0  0
 20 21  2  0  0  0  0
 20 22  1  0  0  0  0
 22 23  1  0  0  0  0
 23 24  2  0  0  0  0
M  CHG  1  22  -1
M  END
> <s_m_source_file>
AV-unprocessed.smi

> <i_m_source_file_index>
1079

> <i_lp_mmshare_version>
43012

> <i_f3d_flags>
0

> <s_epik_input>
W0NIM11PW0NIMl1bQ0gyXW4xYyhbTkgyXSljKGMoPU8pW25IXWMxPU8pTihDKD1PKVtDSDNdKVtDSDJdYzJbY0hdW2NIXVtjSF1bY0hdW2NIXTI=

> <s_epik_cmdline>
J2VwaWtfcHl0aG9uJywgJy1waCcsICc3LjAnLCAnLXRuJywgJzgnLCAnLW1hJywgJzIwMCcsICctbWV0YWxfYmluZGluZycsICctaW1hZScsICc8aW5maWxlLm1hZT4nLCAnLW9tYWUnLCAnPG91dGZpbGUubWFlPic=

> <r_lp_tautomer_probability>
1

> <r_epik_Ionization_Penalty>
7.02899

> <r_epik_Ionization_Penalty_Charging>
0.353543

> <r_epik_Ionization_Penalty_Neutral>
6.67545

> <r_epik_State_Penalty>
6.67544

> <r_epik_Charging_Adjusted_Penalty>
7.02899

> <i_epik_Tot_Q>
-1

> <i_epik_Tot_abs_Q>
1

> <r_epik_Metal_State_Penalty>
2.59023

> <b_epik_Metal_Only>
1

> <s_epik_Chemistry_Notes>
This compound has an imine and may undergo hydrolysis.

> <s_lp_Force_Field>
OPLS_2005

> <r_lp_Energy>
37.6248

> <b_lp_Chiralities_Consistent>
1

> <s_lp_Variant>
AV-unprocessed.smi:1079-2

> <Gold.Version>
5.8.1

> <Gold.Id.Protein>
6NUR|6NUR_protein|mol2

> <Gold.PLP.Fitness>
42.0803

> <Gold.PLP.PLP>
-34.4495

> <Gold.PLP.part.hbond>
-2.2188

> <Gold.PLP.part.metal>
0.0000

> <Gold.PLP.part.buried>
-7.5470

> <Gold.PLP.part.nonpolar>
-25.8843

> <Gold.PLP.part.repulsive>
0.0989

> <Gold.PLP.ligand.clash>
0.0000

> <Gold.PLP.ligand.torsion>
1.7359

> <Gold.PLP.Chemscore.Hbond>
2.9840

> <Gold.PLP.Chemscore.CHOScore>
0.0000

> <Gold.PLP.Chemscore.Metal>
0.0000

> <Gold.Chemscore.Hbonds>
donor molecule, donor type, donor heavy atom, donor atom, acceptor molecule, acceptor atom, score
      P1  H  6896  6907       L1    19  1.00
      P1  H  6931  6943       L1    22  1.92

> <Gold.PLP.Chemscore.Internal.Correction>
2.1505

> <Gold.Rescore>
     Score         DG    S(hbond)    S(metal)    S(lipo)     H(rot)  DE(clash)    DE(int)     intcor
      8.53     -13.25       1.90        0.00      55.64       1.98       0.00       4.72       ----

> <Gold.Chemscore.Fitness>
8.5278

> <Gold.Chemscore.DG>
-13.2484

> <Gold.Chemscore.ZeroCoef>
-5.4800

> <Gold.Chemscore.Hbond>
1.8961

> <Gold.Chemscore.Metal>
0.0000

> <Gold.Chemscore.Lipo>
55.6443

> <Gold.Chemscore.Internal_Hbond>
0.0000

> <Gold.Chemscore.DEClash>
0.0000

> <Gold.Chemscore.DEInternal>
4.7206

> <Gold.Chemscore.Rot>
1.9824

> <Gold.Chemscore.Internal.Correction>
   9.000000E+99

> <Gold.Chemscore.Hbonds>
donor molecule, donor type, donor heavy atom, donor atom, acceptor molecule, acceptor atom, score
      P1  H  6896  6907       L1    19  0.84
      P1  H  6931  6943       L1    22  0.37

> <Gold.Chemscore.Hbond.Weighted>
-6.3329

> <Gold.Chemscore.Metal.Weighted>
-0.0000

> <Gold.Chemscore.Lipo.Weighted>
-6.5104

> <Gold.Chemscore.Internal_Hbond.Weighted>
0.0000

> <Gold.Chemscore.DEClash.Weighted>
0.0000

> <Gold.Chemscore.DEInternal.Weighted>
4.7206

> <Gold.Chemscore.Rot.Weighted>
5.0749

> <Gold.Chemscore.Internal.Correction.Weighted>
   9.000000E+99

> <Gold.Protein.RotatedTorsions>
[ 6907 6896 6895 6894 ] final -141.20 input  -60.11 | X-H torsion
[ 7974 7965 7964 7962 ] final  -81.53 input  175.53 | X-H torsion
[ 8008 7997 7996 7995 ] final -137.94 input   59.86 | X-H torsion
[ 10167 10162 10161 10158 ] final  -13.72 input  -65.29 | X-H torsion
[ 10718 10713 10712 10709 ] final -149.40 input   66.30 | X-H torsion
[ 10763 10752 10751 10750 ] final -136.81 input  -60.55 | X-H torsion
[ 11005 11000 10999 10996 ] final   30.19 input  -57.11 | X-H torsion

> <Gold.Protein.ActiveResidues>
 VAL166  LYS551  ARG553  GLY616  TRP617  ASP618  TYR619  PRO620  LYS621  CYS622 
 ASP623  PHE694  ASN695  SER759  ASP760  ASP761  ALA762  ILE779  LEU786  VAL792 
 PHE793  MET794  SER795  GLU796  ALA797  LYS798  CYS799  TRP800  GLU811  SER814 

> <Gold.Protein.RotatedAtoms>
  151.0707  133.5469  159.2627 H   0  0  0  0  0  0  0  0  0  0  0  0  # atno 6907 bound_to 6896
  151.2409  135.0588  159.9034 H   0  0  0  0  0  0  0  0  0  0  0  0  # atno 6908 bound_to 6896
  152.5411  134.0482  159.8152 H   0  0  0  0  0  0  0  0  0  0  0  0  # atno 6909 bound_to 6896
  145.5454  140.9504  143.1528 H   0  0  0  0  0  0  0  0  0  0  0  0  # atno 7974 bound_to 7965
  155.4201  140.0518  157.3026 H   0  0  0  0  0  0  0  0  0  0  0  0  # atno 8008 bound_to 7997
  154.4906  140.2118  155.9515 H   0  0  0  0  0  0  0  0  0  0  0  0  # atno 8009 bound_to 7997
  156.1337  140.3167  155.8393 H   0  0  0  0  0  0  0  0  0  0  0  0  # atno 8010 bound_to 7997
  140.7187  143.5397  150.9424 H   0  0  0  0  0  0  0  0  0  0  0  0  # atno 10167 bound_to 10162
  156.4327  130.8083  151.2311 H   0  0  0  0  0  0  0  0  0  0  0  0  # atno 10718 bound_to 10713
  154.8676  135.3661  154.5122 H   0  0  0  0  0  0  0  0  0  0  0  0  # atno 10763 bound_to 10752
  153.5756  135.7019  153.5490 H   0  0  0  0  0  0  0  0  0  0  0  0  # atno 10764 bound_to 10752
  153.3503  135.4074  155.1603 H   0  0  0  0  0  0  0  0  0  0  0  0  # atno 10765 bound_to 10752
  140.2970  134.2799  155.7762 H   0  0  0  0  0  0  0  0  0  0  0  0  # atno 11005 bound_to 11000
  144.7556  139.7084  143.7255 LP  0  0  0  0  0  0  0  0  0  0  0  0  # atno 17320 bound_to 7965
  146.1953  139.5215  142.9779 LP  0  0  0  0  0  0  0  0  0  0  0  0  # atno 17321 bound_to 7965
  139.9119  143.6710  152.3113 LP  0  0  0  0  0  0  0  0  0  0  0  0  # atno 17342 bound_to 10162
  139.7096  144.7622  151.1135 LP  0  0  0  0  0  0  0  0  0  0  0  0  # atno 17343 bound_to 10162
  157.7508  131.0193  150.3662 LP  0  0  0  0  0  0  0  0  0  0  0  0  # atno 17370 bound_to 10713
  156.4003  130.3914  149.6965 LP  0  0  0  0  0  0  0  0  0  0  0  0  # atno 17371 bound_to 10713
  141.2135  133.7622  156.9710 LP  0  0  0  0  0  0  0  0  0  0  0  0  # atno 17394 bound_to 11000
  140.1143  134.9457  157.2112 LP  0  0  0  0  0  0  0  0  0  0  0  0  # atno 17395 bound_to 11000

$$$$
