AV-unprocessed.smi:242|AV-procd|sdf|1846|dock9
  -GOLD-   2262020463D 1   1.00000     0.00000
 Structure written by MMmdl.
 58 61  0  0  0  0  0  0  0  0  2 V2000
  152.6557  143.0592  158.9601 C   0  0  0  0  0  0  0  0  0  0  0  0
  151.8240  143.9848  158.0524 C   0  0  0  0  0  0  0  0  0  0  0  0
  151.1122  145.0454  158.9146 C   0  0  0  0  0  0  0  0  0  0  0  0
  150.8612  143.1999  157.2290 N   0  3  2  0  0  0  0  0  0  0  0  0
  149.9071  142.3623  158.0006 C   0  0  0  0  0  0  0  0  0  0  0  0
  149.8088  141.0112  157.2803 C   0  0  0  0  0  0  0  0  0  0  0  0
  150.3800  141.2832  155.8900 C   0  0  2  0  0  0  0  0  0  0  0  0
  150.8693  140.0840  155.2066 N   0  0  0  0  0  0  0  0  0  0  0  0
  152.1500  139.5531  155.6591 C   0  0  0  0  0  0  0  0  0  0  0  0
  149.9516  139.0995  155.0810 C   0  0  0  0  0  0  0  0  0  0  0  0
  150.2616  137.8314  155.4589 N   0  0  0  0  0  0  0  0  0  0  0  0
  149.3546  136.8582  155.3261 C   0  0  0  0  0  0  0  0  0  0  0  0
  148.1095  136.9364  154.8504 N   0  0  0  0  0  0  0  0  0  0  0  0
  147.7999  138.2103  154.4729 C   0  0  0  0  0  0  0  0  0  0  0  0
  148.6550  139.3434  154.5600 C   0  0  0  0  0  0  0  0  0  0  0  0
  147.9985  140.4772  154.1000 N   0  0  0  0  0  0  0  0  0  0  0  0
  146.8200  140.0369  153.7512 C   0  0  0  0  0  0  0  0  0  0  0  0
  146.6204  138.6853  153.9270 N   0  0  0  0  0  0  0  0  0  0  0  0
  145.4166  137.9332  153.6081 C   0  0  0  0  0  0  0  0  0  0  0  0
  145.6457  136.7806  152.5980 C   0  0  0  0  0  0  0  0  0  0  0  0
  146.5537  137.2415  151.6126 O   0  0  0  0  0  0  0  0  0  0  0  0
  146.2747  135.5638  153.3057 C   0  0  0  0  0  0  0  0  0  0  0  0
  146.3626  134.3362  152.3817 C   0  0  0  0  0  0  0  0  0  0  0  0
  145.0750  134.0239  151.8643 O   0  0  0  0  0  0  0  0  0  0  0  0
  144.5409  135.0641  151.0545 C   0  0  0  0  0  0  0  0  0  0  0  0
  144.3443  136.3404  151.8916 C   0  0  0  0  0  0  0  0  0  0  0  0
  151.4643  142.3181  156.2062 C   0  0  0  0  0  0  0  0  0  0  0  0
  153.3547  143.6340  159.5684 H   0  0  0  0  0  0  0  0  0  0  0  0
  153.2474  142.3442  158.3888 H   0  0  0  0  0  0  0  0  0  0  0  0
  152.0165  142.4938  159.6392 H   0  0  0  0  0  0  0  0  0  0  0  0
  152.5038  144.5044  157.3750 H   0  0  0  0  0  0  0  0  0  0  0  0
  151.8253  145.5750  159.5470 H   0  0  0  0  0  0  0  0  0  0  0  0
  150.3664  144.5919  159.5684 H   0  0  0  0  0  0  0  0  0  0  0  0
  150.6125  145.7999  158.3071 H   0  0  0  0  0  0  0  0  0  0  0  0
  150.2290  142.2092  159.0314 H   0  0  0  0  0  0  0  0  0  0  0  0
  148.9402  142.8656  158.0254 H   0  0  0  0  0  0  0  0  0  0  0  0
  150.4276  140.2786  157.8013 H   0  0  0  0  0  0  0  0  0  0  0  0
  148.7896  140.6245  157.2512 H   0  0  0  0  0  0  0  0  0  0  0  0
  149.6067  141.7537  155.2801 H   0  0  0  0  0  0  0  0  0  0  0  0
  152.3685  138.5891  155.1965 H   0  0  0  0  0  0  0  0  0  0  0  0
  152.1555  139.4221  156.7418 H   0  0  0  0  0  0  0  0  0  0  0  0
  152.9580  140.2344  155.3932 H   0  0  0  0  0  0  0  0  0  0  0  0
  149.6724  135.8757  155.6427 H   0  0  0  0  0  0  0  0  0  0  0  0
  146.0617  140.6884  153.3415 H   0  0  0  0  0  0  0  0  0  0  0  0
  144.9975  137.5454  154.5377 H   0  0  0  0  0  0  0  0  0  0  0  0
  144.6795  138.6339  153.2132 H   0  0  0  0  0  0  0  0  0  0  0  0
  147.4344  137.0948  151.9220 H   0  0  0  0  0  0  0  0  0  0  0  0
  147.2642  135.8141  153.6903 H   0  0  0  0  0  0  0  0  0  0  0  0
  145.6694  135.2978  154.1734 H   0  0  0  0  0  0  0  0  0  0  0  0
  147.0652  134.5068  151.5646 H   0  0  0  0  0  0  0  0  0  0  0  0
  146.7330  133.4764  152.9400 H   0  0  0  0  0  0  0  0  0  0  0  0
  145.1960  135.2503  150.2021 H   0  0  0  0  0  0  0  0  0  0  0  0
  143.5840  134.7355  150.6488 H   0  0  0  0  0  0  0  0  0  0  0  0
  143.5761  136.1483  152.6417 H   0  0  0  0  0  0  0  0  0  0  0  0
  143.9585  137.1362  151.2534 H   0  0  0  0  0  0  0  0  0  0  0  0
  151.7706  142.8807  155.3234 H   0  0  0  0  0  0  0  0  0  0  0  0
  152.3451  141.8239  156.6209 H   0  0  0  0  0  0  0  0  0  0  0  0
  150.2974  143.8651  156.7192 H   0  0  0  0  0  0  0  0  0  0  0  0
  1  2  1  0  0  0  0
  1 28  1  0  0  0  0
  1 29  1  0  0  0  0
  1 30  1  0  0  0  0
  2  3  1  0  0  0  0
  2  4  1  0  0  0  0
  2 31  1  0  0  0  0
  3 32  1  0  0  0  0
  3 33  1  0  0  0  0
  3 34  1  0  0  0  0
  4 27  1  0  0  0  0
  4  5  1  0  0  0  0
  4 58  1  0  0  0  0
  5  6  1  0  0  0  0
  5 35  1  0  0  0  0
  5 36  1  0  0  0  0
  6  7  1  0  0  0  0
  6 37  1  0  0  0  0
  6 38  1  0  0  0  0
  7  8  1  0  0  0  0
  7 27  1  0  0  0  0
  7 39  1  0  0  0  0
  8  9  1  0  0  0  0
  8 10  1  0  0  0  0
  9 40  1  0  0  0  0
  9 41  1  0  0  0  0
  9 42  1  0  0  0  0
 10 15  1  0  0  0  0
 10 11  2  0  0  0  0
 11 12  1  0  0  0  0
 12 13  2  0  0  0  0
 12 43  1  0  0  0  0
 13 14  1  0  0  0  0
 14 18  1  0  0  0  0
 14 15  2  0  0  0  0
 15 16  1  0  0  0  0
 16 17  2  0  0  0  0
 17 18  1  0  0  0  0
 17 44  1  0  0  0  0
 18 19  1  0  0  0  0
 19 20  1  0  0  0  0
 19 45  1  0  0  0  0
 19 46  1  0  0  0  0
 20 26  1  0  0  0  0
 20 21  1  0  0  0  0
 20 22  1  0  0  0  0
 21 47  1  0  0  0  0
 22 23  1  0  0  0  0
 22 48  1  0  0  0  0
 22 49  1  0  0  0  0
 23 24  1  0  0  0  0
 23 50  1  0  0  0  0
 23 51  1  0  0  0  0
 24 25  1  0  0  0  0
 25 26  1  0  0  0  0
 25 52  1  0  0  0  0
 25 53  1  0  0  0  0
 26 54  1  0  0  0  0
 26 55  1  0  0  0  0
 27 56  1  0  0  0  0
 27 57  1  0  0  0  0
M  CHG  1   4   1
M  END
> <s_m_source_file>
AV-unprocessed.smi

> <i_m_source_file_index>
242

> <i_lp_mmshare_version>
43012

> <i_f3d_flags>
0

> <s_epik_input>
W0NIM11bQ0hdKFtDSDNdKU4xW0NIMl1bQ0gyXVtDQEhdKFtDSDJdMSlOKFtDSDNdKWMobltjSF1uMiljKGMyMyluW2NIXW4zW0NIMl1DNChbT0hdKVtDSDJdW0NIMl1PW0NIMl1bQ0gyXTQ=

> <s_epik_cmdline>
J2VwaWtfcHl0aG9uJywgJy1waCcsICc3LjAnLCAnLXRuJywgJzgnLCAnLW1hJywgJzIwMCcsICctbWV0YWxfYmluZGluZycsICctaW1hZScsICc8aW5maWxlLm1hZT4nLCAnLW9tYWUnLCAnPG91dGZpbGUubWFlPic=

> <r_lp_tautomer_probability>
1

> <r_epik_Ionization_Penalty>
0.000825961

> <r_epik_Ionization_Penalty_Charging>
0.00034898

> <r_epik_Ionization_Penalty_Neutral>
0.000476981

> <r_epik_State_Penalty>
-0

> <r_epik_Charging_Adjusted_Penalty>
0.00034898

> <i_epik_Tot_Q>
1

> <i_epik_Tot_abs_Q>
1

> <r_epik_Metal_State_Penalty>
-0

> <b_epik_Metal_Only>
0

> <s_lp_Force_Field>
OPLS_2005

> <r_lp_Energy>
47.5475

> <b_lp_Chiralities_Consistent>
1

> <s_lp_Variant>
AV-unprocessed.smi:242-3

> <Gold.Version>
5.8.1

> <Gold.Id.Protein>
6NUR|6NUR_protein|mol2

> <Gold.PLP.Fitness>
50.9012

> <Gold.PLP.PLP>
-37.6698

> <Gold.PLP.part.hbond>
-3.0000

> <Gold.PLP.part.metal>
0.0000

> <Gold.PLP.part.buried>
-7.0007

> <Gold.PLP.part.nonpolar>
-28.8377

> <Gold.PLP.part.repulsive>
0.4685

> <Gold.PLP.ligand.clash>
0.0000

> <Gold.PLP.ligand.torsion>
0.6098

> <Gold.PLP.Chemscore.Hbond>
3.7000

> <Gold.PLP.Chemscore.CHOScore>
0.9995

> <Gold.PLP.Chemscore.Metal>
0.0000

> <Gold.Chemscore.Hbonds>
donor molecule, donor type, donor heavy atom, donor atom, acceptor molecule, acceptor atom, score
      L1  H     4    58       P1  8028  2.00
      L1  H    21    47       P1  7948  0.99
      P1  H  7989  7998       L1     8  0.70
      L1  C    17    44       P1 10175  0.99

> <Gold.PLP.Chemscore.Internal.Correction>
0.3527

> <Gold.Rescore>
     Score         DG    S(hbond)    S(metal)    S(lipo)     H(rot)  DE(clash)    DE(int)     intcor
     13.21     -17.28       1.99        0.00      98.63       2.50       2.03       2.04       ----

> <Gold.Chemscore.Fitness>
13.2117

> <Gold.Chemscore.DG>
-17.2820

> <Gold.Chemscore.ZeroCoef>
-5.4800

> <Gold.Chemscore.Hbond>
1.9945

> <Gold.Chemscore.Metal>
0.0000

> <Gold.Chemscore.Lipo>
98.6252

> <Gold.Chemscore.Internal_Hbond>
0.0000

> <Gold.Chemscore.DEClash>
2.0289

> <Gold.Chemscore.DEInternal>
2.0414

> <Gold.Chemscore.Rot>
2.4996

> <Gold.Chemscore.Internal.Correction>
   9.000000E+99

> <Gold.Chemscore.Hbonds>
donor molecule, donor type, donor heavy atom, donor atom, acceptor molecule, acceptor atom, score
      L1  H     4    58       P1  8028  0.99
      L1  H    21    47       P1  7948  0.94
      P1  H  7989  7998       L1     8  0.02

> <Gold.Chemscore.Hbond.Weighted>
-6.6618

> <Gold.Chemscore.Metal.Weighted>
-0.0000

> <Gold.Chemscore.Lipo.Weighted>
-11.5392

> <Gold.Chemscore.Internal_Hbond.Weighted>
0.0000

> <Gold.Chemscore.DEClash.Weighted>
2.0289

> <Gold.Chemscore.DEInternal.Weighted>
2.0414

> <Gold.Chemscore.Rot.Weighted>
6.3990

> <Gold.Chemscore.Internal.Correction.Weighted>
   9.000000E+99

> <Gold.Protein.RotatedTorsions>
[ 6907 6896 6895 6894 ] final   36.70 input  -60.11 | X-H torsion
[ 7974 7965 7964 7962 ] final -139.30 input  175.53 | X-H torsion
[ 8008 7997 7996 7995 ] final  -38.84 input   59.86 | X-H torsion
[ 10167 10162 10161 10158 ] final  -57.74 input  -65.29 | X-H torsion
[ 10718 10713 10712 10709 ] final -170.15 input   66.30 | X-H torsion
[ 10763 10752 10751 10750 ] final   91.83 input  -60.55 | X-H torsion
[ 11005 11000 10999 10996 ] final  -66.87 input  -57.11 | X-H torsion

> <Gold.Protein.ActiveResidues>
 VAL166  LYS551  ARG553  GLY616  TRP617  ASP618  TYR619  PRO620  LYS621  CYS622 
 ASP623  PHE694  ASN695  SER759  ASP760  ASP761  ALA762  ILE779  LEU786  VAL792 
 PHE793  MET794  SER795  GLU796  ALA797  LYS798  CYS799  TRP800  GLU811  SER814 

> <Gold.Protein.RotatedAtoms>
  152.1332  134.9119  160.0557 H   0  0  0  0  0  0  0  0  0  0  0  0  # atno 6907 bound_to 6896
  152.0215  133.3895  159.4268 H   0  0  0  0  0  0  0  0  0  0  0  0  # atno 6908 bound_to 6896
  150.6858  134.3542  159.4966 H   0  0  0  0  0  0  0  0  0  0  0  0  # atno 6909 bound_to 6896
  144.8688  140.6335  143.5280 H   0  0  0  0  0  0  0  0  0  0  0  0  # atno 7974 bound_to 7965
  154.4031  140.1567  156.2766 H   0  0  0  0  0  0  0  0  0  0  0  0  # atno 8008 bound_to 7997
  155.8907  140.3439  155.5932 H   0  0  0  0  0  0  0  0  0  0  0  0  # atno 8009 bound_to 7997
  155.7562  140.0811  157.2168 H   0  0  0  0  0  0  0  0  0  0  0  0  # atno 8010 bound_to 7997
  140.6240  143.2430  151.5410 H   0  0  0  0  0  0  0  0  0  0  0  0  # atno 10167 bound_to 10162
  156.7220  130.9273  151.3098 H   0  0  0  0  0  0  0  0  0  0  0  0  # atno 10718 bound_to 10713
  153.2126  135.4383  155.0397 H   0  0  0  0  0  0  0  0  0  0  0  0  # atno 10763 bound_to 10752
  154.8208  135.3336  154.7046 H   0  0  0  0  0  0  0  0  0  0  0  0  # atno 10764 bound_to 10752
  153.7483  135.7000  153.5007 H   0  0  0  0  0  0  0  0  0  0  0  0  # atno 10765 bound_to 10752
  141.1493  133.6707  156.6205 H   0  0  0  0  0  0  0  0  0  0  0  0  # atno 11005 bound_to 11000
  145.4170  139.1570  143.4095 LP  0  0  0  0  0  0  0  0  0  0  0  0  # atno 17320 bound_to 7965
  146.2915  140.4278  142.8737 LP  0  0  0  0  0  0  0  0  0  0  0  0  # atno 17321 bound_to 7965
  139.5463  144.2512  152.1448 LP  0  0  0  0  0  0  0  0  0  0  0  0  # atno 17342 bound_to 10162
  140.1739  144.4909  150.6564 LP  0  0  0  0  0  0  0  0  0  0  0  0  # atno 17343 bound_to 10162
  157.6894  130.9218  150.0473 LP  0  0  0  0  0  0  0  0  0  0  0  0  # atno 17370 bound_to 10713
  156.1588  130.3643  149.9330 LP  0  0  0  0  0  0  0  0  0  0  0  0  # atno 17371 bound_to 10713
  140.3544  134.7741  157.4490 LP  0  0  0  0  0  0  0  0  0  0  0  0  # atno 17394 bound_to 11000
  140.0835  134.5699  155.8516 LP  0  0  0  0  0  0  0  0  0  0  0  0  # atno 17395 bound_to 11000

$$$$
