AV-unprocessed.smi:2819|AV-procd|sdf|10853|dock3
  -GOLD-   2272015293D 1   1.00000     0.00000
 Structure written by MMmdl.
 50 51  0  0  0  0  0  0  0  0  2 V2000
  153.1322  142.5257  162.6005 C   0  0  0  0  0  0  0  0  0  0  0  0
  152.7562  142.1861  161.2321 N   0  0  0  0  0  0  0  0  0  0  0  0
  153.1178  140.8907  160.6716 C   0  0  0  0  0  0  0  0  0  0  0  0
  152.0413  143.1202  160.4506 C   0  0  0  0  0  0  0  0  0  0  0  0
  152.0930  144.5120  160.7060 C   0  0  0  0  0  0  0  0  0  0  0  0
  151.3341  145.3430  159.8588 C   0  0  0  0  0  0  0  0  0  0  0  0
  150.5898  144.8445  158.8494 N   0  0  0  0  0  0  0  0  0  0  0  0
  150.6013  143.5205  158.6802 C   0  0  0  0  0  0  0  0  0  0  0  0
  149.8173  143.0736  157.6388 N   0  0  0  0  0  0  0  0  0  0  0  0
  149.3147  141.8516  157.3800 C   0  0  0  0  0  0  0  0  0  0  0  0
  149.5033  140.8414  158.0594 O   0  0  0  0  0  0  0  0  0  0  0  0
  148.5603  141.8609  156.2706 N   0  0  0  0  0  0  0  0  0  0  0  0
  147.8681  140.7023  155.7067 C   0  0  0  0  0  0  0  0  0  0  0  0
  146.5134  141.0568  155.0208 C   0  0  0  0  0  0  0  0  0  0  0  0
  145.4566  141.4693  156.0763 C   0  0  0  0  0  0  0  0  0  0  0  0
  146.7024  142.2898  154.1019 C   0  0  0  0  0  0  0  0  0  0  0  0
  145.9878  139.8968  154.2139 N   0  3  0  0  0  0  0  0  0  0  0  0
  146.8646  139.4247  153.1048 C   0  0  0  0  0  0  0  0  0  0  0  0
  146.1366  138.3746  152.2487 C   0  0  0  0  0  0  0  0  0  0  0  0
  145.7304  137.2869  153.0666 O   0  0  0  0  0  0  0  0  0  0  0  0
  144.8219  137.7010  154.0769 C   0  0  0  0  0  0  0  0  0  0  0  0
  145.5053  138.7246  154.9989 C   0  0  0  0  0  0  0  0  0  0  0  0
  151.2868  142.6470  159.4298 N   0  0  0  0  0  0  0  0  0  0  0  0
  153.7628  143.4153  162.6149 H   0  0  0  0  0  0  0  0  0  0  0  0
  153.6872  141.7159  163.0741 H   0  0  0  0  0  0  0  0  0  0  0  0
  152.2451  142.7210  163.2042 H   0  0  0  0  0  0  0  0  0  0  0  0
  153.7555  141.0169  159.7962 H   0  0  0  0  0  0  0  0  0  0  0  0
  152.2250  140.3379  160.3778 H   0  0  0  0  0  0  0  0  0  0  0  0
  153.6619  140.2835  161.3950 H   0  0  0  0  0  0  0  0  0  0  0  0
  152.6776  144.9412  161.5054 H   0  0  0  0  0  0  0  0  0  0  0  0
  151.3233  146.4144  159.9930 H   0  0  0  0  0  0  0  0  0  0  0  0
  149.5791  143.7875  156.9665 H   0  0  0  0  0  0  0  0  0  0  0  0
  148.4610  142.7342  155.7733 H   0  0  0  0  0  0  0  0  0  0  0  0
  148.5547  140.2622  154.9843 H   0  0  0  0  0  0  0  0  0  0  0  0
  147.7306  139.9475  156.4814 H   0  0  0  0  0  0  0  0  0  0  0  0
  145.6926  142.4307  156.5330 H   0  0  0  0  0  0  0  0  0  0  0  0
  145.3882  140.7541  156.8957 H   0  0  0  0  0  0  0  0  0  0  0  0
  144.4657  141.5657  155.6309 H   0  0  0  0  0  0  0  0  0  0  0  0
  146.8935  143.1962  154.6778 H   0  0  0  0  0  0  0  0  0  0  0  0
  145.8127  142.4770  153.4995 H   0  0  0  0  0  0  0  0  0  0  0  0
  147.5497  142.1791  153.4255 H   0  0  0  0  0  0  0  0  0  0  0  0
  147.1575  140.2421  152.4488 H   0  0  0  0  0  0  0  0  0  0  0  0
  147.7794  138.9884  153.5062 H   0  0  0  0  0  0  0  0  0  0  0  0
  145.2727  138.8119  151.7454 H   0  0  0  0  0  0  0  0  0  0  0  0
  146.8012  137.9988  151.4703 H   0  0  0  0  0  0  0  0  0  0  0  0
  143.9212  138.1212  153.6263 H   0  0  0  0  0  0  0  0  0  0  0  0
  144.5118  136.8277  154.6509 H   0  0  0  0  0  0  0  0  0  0  0  0
  146.3376  138.2441  155.5136 H   0  0  0  0  0  0  0  0  0  0  0  0
  144.7836  139.0169  155.7590 H   0  0  0  0  0  0  0  0  0  0  0  0
  145.1634  140.2619  153.7585 H   0  0  0  0  0  0  0  0  0  0  0  0
  1  2  1  0  0  0  0
  1 24  1  0  0  0  0
  1 25  1  0  0  0  0
  1 26  1  0  0  0  0
  2  3  1  0  0  0  0
  2  4  1  0  0  0  0
  3 27  1  0  0  0  0
  3 28  1  0  0  0  0
  3 29  1  0  0  0  0
  4 23  1  0  0  0  0
  4  5  2  0  0  0  0
  5  6  1  0  0  0  0
  5 30  1  0  0  0  0
  6  7  2  0  0  0  0
  6 31  1  0  0  0  0
  7  8  1  0  0  0  0
  8  9  1  0  0  0  0
  8 23  2  0  0  0  0
  9 10  1  0  0  0  0
  9 32  1  0  0  0  0
 10 11  2  0  0  0  0
 10 12  1  0  0  0  0
 12 13  1  0  0  0  0
 12 33  1  0  0  0  0
 13 14  1  0  0  0  0
 13 34  1  0  0  0  0
 13 35  1  0  0  0  0
 14 15  1  0  0  0  0
 14 16  1  0  0  0  0
 14 17  1  0  0  0  0
 15 36  1  0  0  0  0
 15 37  1  0  0  0  0
 15 38  1  0  0  0  0
 16 39  1  0  0  0  0
 16 40  1  0  0  0  0
 16 41  1  0  0  0  0
 17 22  1  0  0  0  0
 17 18  1  0  0  0  0
 17 50  1  0  0  0  0
 18 19  1  0  0  0  0
 18 42  1  0  0  0  0
 18 43  1  0  0  0  0
 19 20  1  0  0  0  0
 19 44  1  0  0  0  0
 19 45  1  0  0  0  0
 20 21  1  0  0  0  0
 21 22  1  0  0  0  0
 21 46  1  0  0  0  0
 21 47  1  0  0  0  0
 22 48  1  0  0  0  0
 22 49  1  0  0  0  0
M  CHG  1  17   1
M  END
> <s_m_source_file>
AV-unprocessed.smi

> <i_m_source_file_index>
2819

> <i_lp_mmshare_version>
43012

> <i_f3d_flags>
0

> <s_epik_input>
W0NIM11OKFtDSDNdKWMxW2NIXVtjSF1uYyhuMSlbTkhdQyg9TylbTkhdW0NIMl1DKFtDSDNdKShbQ0gzXSlOMltDSDJdW0NIMl1PW0NIMl1bQ0gyXTI=

> <s_epik_cmdline>
J2VwaWtfcHl0aG9uJywgJy1waCcsICc3LjAnLCAnLXRuJywgJzgnLCAnLW1hJywgJzIwMCcsICctbWV0YWxfYmluZGluZycsICctaW1hZScsICc8aW5maWxlLm1hZT4nLCAnLW9tYWUnLCAnPG91dGZpbGUubWFlPic=

> <r_epik_Ionization_Penalty>
1.64867

> <r_epik_Ionization_Penalty_Charging>
0.602531

> <r_epik_Ionization_Penalty_Neutral>
1.04614

> <r_epik_State_Penalty>
1.74763

> <r_epik_Charging_Adjusted_Penalty>
2.35016

> <i_epik_Tot_Q>
1

> <i_epik_Tot_abs_Q>
1

> <r_epik_Metal_State_Penalty>
1.04264

> <b_epik_Metal_Only>
0

> <s_lp_Force_Field>
OPLS_2005

> <r_lp_Energy>
22.1801

> <b_lp_Chiralities_Consistent>
1

> <s_lp_Variant>
AV-unprocessed.smi:2819-4

> <Gold.Version>
5.8.1

> <Gold.Id.Protein>
6NUR|6NUR_protein|mol2

> <Gold.PLP.Fitness>
55.4656

> <Gold.PLP.PLP>
-44.7334

> <Gold.PLP.part.hbond>
-3.0000

> <Gold.PLP.part.metal>
0.0000

> <Gold.PLP.part.buried>
-5.6702

> <Gold.PLP.part.nonpolar>
-36.9979

> <Gold.PLP.part.repulsive>
0.5493

> <Gold.PLP.ligand.clash>
0.0000

> <Gold.PLP.ligand.torsion>
0.6959

> <Gold.PLP.Chemscore.Hbond>
3.9920

> <Gold.PLP.Chemscore.CHOScore>
0.0000

> <Gold.PLP.Chemscore.Metal>
0.0000

> <Gold.Chemscore.Hbonds>
donor molecule, donor type, donor heavy atom, donor atom, acceptor molecule, acceptor atom, score
      L1  H     9    32       P1  8028  1.00
      L1  H    12    33       P1  8028  0.98
      L1  H    17    50       P1 10175  2.00

> <Gold.PLP.Chemscore.Internal.Correction>
0.1479

> <Gold.Rescore>
     Score         DG    S(hbond)    S(metal)    S(lipo)     H(rot)  DE(clash)    DE(int)     intcor
     18.82     -20.64       2.86        0.00      81.77       1.55       0.04       1.78       ----

> <Gold.Chemscore.Fitness>
18.8231

> <Gold.Chemscore.DG>
-20.6442

> <Gold.Chemscore.ZeroCoef>
-5.4800

> <Gold.Chemscore.Hbond>
2.8642

> <Gold.Chemscore.Metal>
0.0000

> <Gold.Chemscore.Lipo>
81.7716

> <Gold.Chemscore.Internal_Hbond>
0.0000

> <Gold.Chemscore.DEClash>
0.0427

> <Gold.Chemscore.DEInternal>
1.7784

> <Gold.Chemscore.Rot>
1.5506

> <Gold.Chemscore.Internal.Correction>
   9.000000E+99

> <Gold.Chemscore.Hbonds>
donor molecule, donor type, donor heavy atom, donor atom, acceptor molecule, acceptor atom, score
      L1  H     9    32       P1  8028  0.88
      L1  H    12    33       P1  8028  0.87
      L1  H    17    50       P1 10175  0.98

> <Gold.Chemscore.Hbond.Weighted>
-9.5664

> <Gold.Chemscore.Metal.Weighted>
-0.0000

> <Gold.Chemscore.Lipo.Weighted>
-9.5673

> <Gold.Chemscore.Internal_Hbond.Weighted>
0.0000

> <Gold.Chemscore.DEClash.Weighted>
0.0427

> <Gold.Chemscore.DEInternal.Weighted>
1.7784

> <Gold.Chemscore.Rot.Weighted>
3.9695

> <Gold.Chemscore.Internal.Correction.Weighted>
   9.000000E+99

> <Gold.Protein.RotatedTorsions>
[ 6907 6896 6895 6894 ] final  -13.45 input  -60.11 | X-H torsion
[ 7974 7965 7964 7962 ] final  160.01 input  175.53 | X-H torsion
[ 8008 7997 7996 7995 ] final   34.32 input   59.86 | X-H torsion
[ 10167 10162 10161 10158 ] final  -61.15 input  -65.29 | X-H torsion
[ 10718 10713 10712 10709 ] final   89.51 input   66.30 | X-H torsion
[ 10763 10752 10751 10750 ] final -154.41 input  -60.55 | X-H torsion
[ 11005 11000 10999 10996 ] final -153.44 input  -57.11 | X-H torsion

> <Gold.Protein.ActiveResidues>
 VAL166  LYS551  ARG553  GLY616  TRP617  ASP618  TYR619  PRO620  LYS621  CYS622 
 ASP623  PHE694  ASN695  SER759  ASP760  ASP761  ALA762  ILE779  LEU786  VAL792 
 PHE793  MET794  SER795  GLU796  ALA797  LYS798  CYS799  TRP800  GLU811  SER814 

> <Gold.Protein.RotatedAtoms>
  151.3547  135.0892  159.9414 H   0  0  0  0  0  0  0  0  0  0  0  0  # atno 6907 bound_to 6896
  152.5178  133.9317  159.7594 H   0  0  0  0  0  0  0  0  0  0  0  0  # atno 6908 bound_to 6896
  150.9700  133.6300  159.2769 H   0  0  0  0  0  0  0  0  0  0  0  0  # atno 6909 bound_to 6896
  144.7760  139.7697  143.6278 H   0  0  0  0  0  0  0  0  0  0  0  0  # atno 7974 bound_to 7965
  155.1529  140.3276  155.4427 H   0  0  0  0  0  0  0  0  0  0  0  0  # atno 8008 bound_to 7997
  156.2568  140.1974  156.6590 H   0  0  0  0  0  0  0  0  0  0  0  0  # atno 8009 bound_to 7997
  154.6460  140.0564  156.9887 H   0  0  0  0  0  0  0  0  0  0  0  0  # atno 8010 bound_to 7997
  140.6025  143.2365  151.5897 H   0  0  0  0  0  0  0  0  0  0  0  0  # atno 10167 bound_to 10162
  157.6955  131.0336  150.3437 H   0  0  0  0  0  0  0  0  0  0  0  0  # atno 10718 bound_to 10713
  154.7860  135.3190  154.7884 H   0  0  0  0  0  0  0  0  0  0  0  0  # atno 10763 bound_to 10752
  153.8584  135.6855  153.4789 H   0  0  0  0  0  0  0  0  0  0  0  0  # atno 10764 bound_to 10752
  153.1512  135.4698  154.9578 H   0  0  0  0  0  0  0  0  0  0  0  0  # atno 10765 bound_to 10752
  140.7081  134.3863  157.5201 H   0  0  0  0  0  0  0  0  0  0  0  0  # atno 11005 bound_to 11000
  146.1939  139.5194  142.9787 LP  0  0  0  0  0  0  0  0  0  0  0  0  # atno 17320 bound_to 7965
  145.6186  141.0327  143.1927 LP  0  0  0  0  0  0  0  0  0  0  0  0  # atno 17321 bound_to 7965
  139.5301  144.2942  152.1127 LP  0  0  0  0  0  0  0  0  0  0  0  0  # atno 17342 bound_to 10162
  140.2125  144.4548  150.6379 LP  0  0  0  0  0  0  0  0  0  0  0  0  # atno 17343 bound_to 10162
  156.3894  130.3895  149.7041 LP  0  0  0  0  0  0  0  0  0  0  0  0  # atno 17370 bound_to 10713
  156.4396  130.7854  151.2875 LP  0  0  0  0  0  0  0  0  0  0  0  0  # atno 17371 bound_to 10713
  139.8879  134.8871  156.2505 LP  0  0  0  0  0  0  0  0  0  0  0  0  # atno 17394 bound_to 11000
  141.0107  133.7097  156.1107 LP  0  0  0  0  0  0  0  0  0  0  0  0  # atno 17395 bound_to 11000

$$$$
