AV-unprocessed.smi:841|AV-procd|sdf|3916|dock1
  -GOLD-   22720 1373D 1   1.00000     0.00000
 Structure written by MMmdl.
 30 31  0  0  0  0  0  0  0  0  1 V2000
  154.3419  140.0844  159.2357 O   0  0  0  0  0  0  0  0  0  0  0  0
  153.2324  140.5300  159.5288 C   0  0  0  0  0  0  0  0  0  0  0  0
  153.0799  141.5011  160.7024 C   0  0  0  0  0  0  0  0  0  0  0  0
  152.6039  142.8009  160.2606 N   0  0  0  0  0  0  0  0  0  0  0  0
  152.0817  143.8280  161.0201 C   0  0  0  0  0  0  0  0  0  0  0  0
  151.7631  144.8450  160.1663 C   0  0  0  0  0  0  0  0  0  0  0  0
  152.1262  144.3382  158.8873 C   0  0  0  0  0  0  0  0  0  0  0  0
  152.6254  143.1141  158.9465 N   0  0  0  0  0  0  0  0  0  0  0  0
  152.1091  140.2141  158.8652 N   0  0  0  0  0  0  0  0  0  0  0  0
  152.0246  139.3145  157.7189 C   0  0  0  0  0  0  0  0  0  0  0  0
  150.9262  139.7466  156.7292 C   0  0  1  0  0  0  0  0  0  0  0  0
  150.7261  141.2445  156.5983 C   0  0  0  0  0  0  0  0  0  0  0  0
  149.9910  141.3532  155.2656 C   0  0  0  0  0  0  0  0  0  0  0  0
  150.4383  140.2513  154.4807 O   0  0  0  0  0  0  0  0  0  0  0  0
  151.2212  139.3683  155.2783 C   0  0  0  0  0  0  0  0  0  0  0  0
  152.3814  141.0808  161.4278 H   0  0  0  0  0  0  0  0  0  0  0  0
  154.0318  141.6399  161.2172 H   0  0  0  0  0  0  0  0  0  0  0  0
  151.9832  143.7502  162.0928 H   0  0  0  0  0  0  0  0  0  0  0  0
  151.3344  145.8040  160.4168 H   0  0  0  0  0  0  0  0  0  0  0  0
  152.0398  144.8190  157.9241 H   0  0  0  0  0  0  0  0  0  0  0  0
  151.2443  140.6317  159.1772 H   0  0  0  0  0  0  0  0  0  0  0  0
  152.9889  139.2349  157.2139 H   0  0  0  0  0  0  0  0  0  0  0  0
  151.7986  138.3178  158.0986 H   0  0  0  0  0  0  0  0  0  0  0  0
  149.9774  139.2913  157.0185 H   0  0  0  0  0  0  0  0  0  0  0  0
  150.1651  141.6792  157.4260 H   0  0  0  0  0  0  0  0  0  0  0  0
  151.6894  141.7525  156.5348 H   0  0  0  0  0  0  0  0  0  0  0  0
  148.9149  141.2575  155.4153 H   0  0  0  0  0  0  0  0  0  0  0  0
  150.1797  142.3027  154.7645 H   0  0  0  0  0  0  0  0  0  0  0  0
  152.2731  139.5330  155.0409 H   0  0  0  0  0  0  0  0  0  0  0  0
  150.9860  138.3259  155.0627 H   0  0  0  0  0  0  0  0  0  0  0  0
  1  2  2  0  0  0  0
  2  3  1  0  0  0  0
  2  9  1  0  0  0  0
  3  4  1  0  0  0  0
  3 16  1  0  0  0  0
  3 17  1  0  0  0  0
  4  8  1  0  0  0  0
  4  5  1  0  0  0  0
  5  6  2  0  0  0  0
  5 18  1  0  0  0  0
  6  7  1  0  0  0  0
  6 19  1  0  0  0  0
  7  8  2  0  0  0  0
  7 20  1  0  0  0  0
  9 10  1  0  0  0  0
  9 21  1  0  0  0  0
 10 11  1  0  0  0  0
 10 22  1  0  0  0  0
 10 23  1  0  0  0  0
 11 15  1  0  0  0  0
 11 12  1  0  0  0  0
 11 24  1  0  0  0  0
 12 13  1  0  0  0  0
 12 25  1  0  0  0  0
 12 26  1  0  0  0  0
 13 14  1  0  0  0  0
 13 27  1  0  0  0  0
 13 28  1  0  0  0  0
 14 15  1  0  0  0  0
 15 29  1  0  0  0  0
 15 30  1  0  0  0  0
M  END
> <s_m_source_file>
AV-unprocessed.smi

> <i_m_source_file_index>
841

> <i_lp_mmshare_version>
43012

> <i_f3d_flags>
0

> <s_epik_input>
bjFbY0hdW2NIXVtjSF1uMVtDSDJdQyg9TylbTkhdW0NIMl1bQ0BASF0yW0NIMl1bQ0gyXU9bQ0gyXTI=

> <s_epik_cmdline>
J2VwaWtfcHl0aG9uJywgJy1waCcsICc3LjAnLCAnLXRuJywgJzgnLCAnLW1hJywgJzIwMCcsICctbWV0YWxfYmluZGluZycsICctaW1hZScsICc8aW5maWxlLm1hZT4nLCAnLW9tYWUnLCAnPG91dGZpbGUubWFlPic=

> <r_lp_tautomer_probability>
1

> <r_epik_Ionization_Penalty>
1.49823e-05

> <r_epik_Ionization_Penalty_Charging>
0

> <r_epik_Ionization_Penalty_Neutral>
1.49823e-05

> <r_epik_State_Penalty>
-0

> <r_epik_Charging_Adjusted_Penalty>
0

> <i_epik_Tot_Q>
0

> <i_epik_Tot_abs_Q>
0

> <r_epik_Metal_State_Penalty>
-0

> <b_epik_Metal_Only>
0

> <s_lp_Force_Field>
OPLS_2005

> <r_lp_Energy>
18.8738

> <b_lp_Chiralities_Consistent>
1

> <s_lp_Variant>
AV-unprocessed.smi:841-2

> <Gold.Version>
5.8.1

> <Gold.Id.Protein>
6NUR|6NUR_protein|mol2

> <Gold.PLP.Fitness>
41.6640

> <Gold.PLP.PLP>
-37.1185

> <Gold.PLP.part.hbond>
-2.0000

> <Gold.PLP.part.metal>
0.0000

> <Gold.PLP.part.buried>
-4.2889

> <Gold.PLP.part.nonpolar>
-30.5672

> <Gold.PLP.part.repulsive>
0.2167

> <Gold.PLP.ligand.clash>
0.0000

> <Gold.PLP.ligand.torsion>
0.7025

> <Gold.PLP.Chemscore.Hbond>
1.9760

> <Gold.PLP.Chemscore.CHOScore>
0.0000

> <Gold.PLP.Chemscore.Metal>
0.0000

> <Gold.Chemscore.Hbonds>
donor molecule, donor type, donor heavy atom, donor atom, acceptor molecule, acceptor atom, score
      P1  H  7989  7998       L1    14  1.00
      P1  H  7997  8010       L1     1  0.95

> <Gold.PLP.Chemscore.Internal.Correction>
0.0226

> <Gold.Rescore>
     Score         DG    S(hbond)    S(metal)    S(lipo)     H(rot)  DE(clash)    DE(int)     intcor
     14.07     -14.79       1.28        0.00      79.63       1.68       0.12       0.60       ----

> <Gold.Chemscore.Fitness>
14.0735

> <Gold.Chemscore.DG>
-14.7936

> <Gold.Chemscore.ZeroCoef>
-5.4800

> <Gold.Chemscore.Hbond>
1.2847

> <Gold.Chemscore.Metal>
0.0000

> <Gold.Chemscore.Lipo>
79.6261

> <Gold.Chemscore.Internal_Hbond>
0.0000

> <Gold.Chemscore.DEClash>
0.1199

> <Gold.Chemscore.DEInternal>
0.6002

> <Gold.Chemscore.Rot>
1.6771

> <Gold.Chemscore.Internal.Correction>
   9.000000E+99

> <Gold.Chemscore.Hbonds>
donor molecule, donor type, donor heavy atom, donor atom, acceptor molecule, acceptor atom, score
      P1  H  7989  7998       L1    14  0.13
      P1  H  7997  8010       L1     1  0.85

> <Gold.Chemscore.Hbond.Weighted>
-4.2907

> <Gold.Chemscore.Metal.Weighted>
-0.0000

> <Gold.Chemscore.Lipo.Weighted>
-9.3163

> <Gold.Chemscore.Internal_Hbond.Weighted>
0.0000

> <Gold.Chemscore.DEClash.Weighted>
0.1199

> <Gold.Chemscore.DEInternal.Weighted>
0.6002

> <Gold.Chemscore.Rot.Weighted>
4.2934

> <Gold.Chemscore.Internal.Correction.Weighted>
   9.000000E+99

> <Gold.Protein.RotatedTorsions>
[ 6907 6896 6895 6894 ] final  125.48 input  -60.11 | X-H torsion
[ 7974 7965 7964 7962 ] final  132.70 input  175.53 | X-H torsion
[ 8008 7997 7996 7995 ] final    1.00 input   59.86 | X-H torsion
[ 10167 10162 10161 10158 ] final  -17.91 input  -65.29 | X-H torsion
[ 10718 10713 10712 10709 ] final  103.05 input   66.30 | X-H torsion
[ 10763 10752 10751 10750 ] final   72.41 input  -60.55 | X-H torsion
[ 11005 11000 10999 10996 ] final   44.36 input  -57.11 | X-H torsion

> <Gold.Protein.ActiveResidues>
 VAL166  LYS551  ARG553  GLY616  TRP617  ASP618  TYR619  PRO620  LYS621  CYS622 
 ASP623  PHE694  ASN695  SER759  ASP760  ASP761  ALA762  ILE779  LEU786  VAL792 
 PHE793  MET794  SER795  GLU796  ALA797  LYS798  CYS799  TRP800  GLU811  SER814 

> <Gold.Protein.RotatedAtoms>
  152.3988  133.6787  159.6298 H   0  0  0  0  0  0  0  0  0  0  0  0  # atno 6907 bound_to 6896
  150.7883  133.8827  159.3299 H   0  0  0  0  0  0  0  0  0  0  0  0  # atno 6908 bound_to 6896
  151.6597  135.0992  160.0228 H   0  0  0  0  0  0  0  0  0  0  0  0  # atno 6909 bound_to 6896
  144.9941  139.4377  143.5325 H   0  0  0  0  0  0  0  0  0  0  0  0  # atno 7974 bound_to 7965
  154.6746  140.2619  155.6971 H   0  0  0  0  0  0  0  0  0  0  0  0  # atno 8008 bound_to 7997
  156.2672  140.2822  156.1190 H   0  0  0  0  0  0  0  0  0  0  0  0  # atno 8009 bound_to 7997
  155.1119  140.0376  157.2716 H   0  0  0  0  0  0  0  0  0  0  0  0  # atno 8010 bound_to 7997
  140.7253  143.4968  150.9920 H   0  0  0  0  0  0  0  0  0  0  0  0  # atno 10167 bound_to 10162
  157.6784  131.0769  150.5497 H   0  0  0  0  0  0  0  0  0  0  0  0  # atno 10718 bound_to 10713
  153.0457  135.5101  154.7740 H   0  0  0  0  0  0  0  0  0  0  0  0  # atno 10763 bound_to 10752
  154.6642  135.2943  154.9829 H   0  0  0  0  0  0  0  0  0  0  0  0  # atno 10764 bound_to 10752
  154.0670  135.6683  153.4872 H   0  0  0  0  0  0  0  0  0  0  0  0  # atno 10765 bound_to 10752
  140.1559  134.4402  155.8350 H   0  0  0  0  0  0  0  0  0  0  0  0  # atno 11005 bound_to 11000
  146.3438  139.9290  142.8756 LP  0  0  0  0  0  0  0  0  0  0  0  0  # atno 17320 bound_to 7965
  145.2244  140.9948  143.4027 LP  0  0  0  0  0  0  0  0  0  0  0  0  # atno 17321 bound_to 7965
  139.8676  143.7234  152.3169 LP  0  0  0  0  0  0  0  0  0  0  0  0  # atno 17342 bound_to 10162
  139.7471  144.7544  151.0562 LP  0  0  0  0  0  0  0  0  0  0  0  0  # atno 17343 bound_to 10162
  156.5802  130.4302  149.5981 LP  0  0  0  0  0  0  0  0  0  0  0  0  # atno 17370 bound_to 10713
  156.2668  130.6994  151.1779 LP  0  0  0  0  0  0  0  0  0  0  0  0  # atno 17371 bound_to 10713
  141.2204  133.6892  156.7506 LP  0  0  0  0  0  0  0  0  0  0  0  0  # atno 17394 bound_to 11000
  140.2548  134.8512  157.3702 LP  0  0  0  0  0  0  0  0  0  0  0  0  # atno 17395 bound_to 11000

$$$$
