AV-unprocessed.smi:3255|AV-procd|sdf|12464|dock8
  -GOLD-   2272018363D 1   1.00000     0.00000
 Structure written by MMmdl.
 38 39  0  0  0  0  0  0  0  0  1 V2000
  147.5379  140.7148  153.6670 C   0  0  0  0  0  0  0  0  0  0  0  0
  148.1501  139.4028  154.1880 C   0  0  1  0  0  0  0  0  0  0  0  0
  147.7529  138.2949  153.3230 N   0  0  0  0  0  0  0  0  0  0  0  0
  146.5130  137.7958  153.2242 C   0  0  0  0  0  0  0  0  0  0  0  0
  145.5395  138.2367  153.8358 O   0  0  0  0  0  0  0  0  0  0  0  0
  146.4617  136.7546  152.3824 N   0  0  0  0  0  0  0  0  0  0  0  0
  145.2577  135.9931  152.0722 C   0  0  0  0  0  0  0  0  0  0  0  0
  145.3601  135.3106  150.6984 C   0  0  0  0  0  0  0  0  0  0  0  0
  144.9187  133.9324  150.7571 N   0  0  0  0  0  0  0  0  0  0  0  0
  143.8764  133.3569  150.0430 C   0  0  0  0  0  0  0  0  0  0  0  0
  143.8287  132.0328  150.4168 C   0  0  0  0  0  0  0  0  0  0  0  0
  144.8271  131.7735  151.3530 N   0  0  0  0  0  0  0  0  0  0  0  0
  145.4312  132.9452  151.5042 C   0  0  0  0  0  0  0  0  0  0  0  0
  149.6880  139.4622  154.2538 C   0  0  1  0  0  0  0  0  0  0  0  0
  150.2495  140.3204  155.3892 C   0  0  0  0  0  0  0  0  0  0  0  0
  151.6168  139.7123  155.6625 C   0  0  0  0  0  0  0  0  0  0  0  0
  151.5847  138.3709  154.9260 C   0  0  0  0  0  0  0  0  0  0  0  0
  150.2251  138.1842  154.5606 O   0  0  0  0  0  0  0  0  0  0  0  0
  147.7868  141.5544  154.3160 H   0  0  0  0  0  0  0  0  0  0  0  0
  146.4499  140.6540  153.6233 H   0  0  0  0  0  0  0  0  0  0  0  0
  147.8982  140.9500  152.6651 H   0  0  0  0  0  0  0  0  0  0  0  0
  147.7727  139.2180  155.1956 H   0  0  0  0  0  0  0  0  0  0  0  0
  148.4853  137.8592  152.7819 H   0  0  0  0  0  0  0  0  0  0  0  0
  147.3157  136.4649  151.9286 H   0  0  0  0  0  0  0  0  0  0  0  0
  145.0713  135.2549  152.8543 H   0  0  0  0  0  0  0  0  0  0  0  0
  144.4107  136.6796  152.0853 H   0  0  0  0  0  0  0  0  0  0  0  0
  144.7541  135.8394  149.9614 H   0  0  0  0  0  0  0  0  0  0  0  0
  146.3882  135.3259  150.3340 H   0  0  0  0  0  0  0  0  0  0  0  0
  143.2729  133.9214  149.3473 H   0  0  0  0  0  0  0  0  0  0  0  0
  143.1588  131.2531  150.0857 H   0  0  0  0  0  0  0  0  0  0  0  0
  146.2675  133.0883  152.1728 H   0  0  0  0  0  0  0  0  0  0  0  0
  150.0995  139.7958  153.2988 H   0  0  0  0  0  0  0  0  0  0  0  0
  150.3029  141.3781  155.1299 H   0  0  0  0  0  0  0  0  0  0  0  0
  149.6260  140.2240  156.2791 H   0  0  0  0  0  0  0  0  0  0  0  0
  152.4207  140.3426  155.2811 H   0  0  0  0  0  0  0  0  0  0  0  0
  151.7729  139.5790  156.7335 H   0  0  0  0  0  0  0  0  0  0  0  0
  152.1955  138.4145  154.0232 H   0  0  0  0  0  0  0  0  0  0  0  0
  151.9437  137.5452  155.5409 H   0  0  0  0  0  0  0  0  0  0  0  0
  1  2  1  0  0  0  0
  1 19  1  0  0  0  0
  1 20  1  0  0  0  0
  1 21  1  0  0  0  0
  2  3  1  0  0  0  0
  2 14  1  0  0  0  0
  2 22  1  0  0  0  0
  3  4  1  0  0  0  0
  3 23  1  0  0  0  0
  4  5  2  0  0  0  0
  4  6  1  0  0  0  0
  6  7  1  0  0  0  0
  6 24  1  0  0  0  0
  7  8  1  0  0  0  0
  7 25  1  0  0  0  0
  7 26  1  0  0  0  0
  8  9  1  0  0  0  0
  8 27  1  0  0  0  0
  8 28  1  0  0  0  0
  9 13  1  0  0  0  0
  9 10  1  0  0  0  0
 10 11  2  0  0  0  0
 10 29  1  0  0  0  0
 11 12  1  0  0  0  0
 11 30  1  0  0  0  0
 12 13  2  0  0  0  0
 13 31  1  0  0  0  0
 14 18  1  0  0  0  0
 14 15  1  0  0  0  0
 14 32  1  0  0  0  0
 15 16  1  0  0  0  0
 15 33  1  0  0  0  0
 15 34  1  0  0  0  0
 16 17  1  0  0  0  0
 16 35  1  0  0  0  0
 16 36  1  0  0  0  0
 17 18  1  0  0  0  0
 17 37  1  0  0  0  0
 17 38  1  0  0  0  0
M  END
> <s_m_source_file>
AV-unprocessed.smi

> <i_m_source_file_index>
3255

> <i_lp_mmshare_version>
43012

> <i_f3d_flags>
0

> <s_epik_input>
TzFbQ0gyXVtDSDJdW0NIMl1bQ0BIXTFbQ0BIXShbQ0gzXSlbTkhdQyg9TylbTkhdW0NIMl1bQ0gyXW4yW2NIXVtjSF1uW2NIXTI=

> <s_epik_cmdline>
J2VwaWtfcHl0aG9uJywgJy1waCcsICc3LjAnLCAnLXRuJywgJzgnLCAnLW1hJywgJzIwMCcsICctbWV0YWxfYmluZGluZycsICctaW1hZScsICc8aW5maWxlLm1hZT4nLCAnLW9tYWUnLCAnPG91dGZpbGUubWFlPic=

> <r_lp_tautomer_probability>
1

> <r_epik_Ionization_Penalty>
0.620274

> <r_epik_Ionization_Penalty_Charging>
0.620225

> <r_epik_Ionization_Penalty_Neutral>
4.91362e-05

> <r_epik_State_Penalty>
0.636186

> <r_epik_Charging_Adjusted_Penalty>
1.25641

> <i_epik_Tot_Q>
0

> <i_epik_Tot_abs_Q>
0

> <r_epik_Metal_State_Penalty>
0.306491

> <b_epik_Metal_Only>
0

> <s_lp_Force_Field>
OPLS_2005

> <r_lp_Energy>
17.3194

> <b_lp_Chiralities_Consistent>
1

> <s_lp_Variant>
AV-unprocessed.smi:3255-8

> <Gold.Version>
5.8.1

> <Gold.Id.Protein>
6NUR|6NUR_protein|mol2

> <Gold.PLP.Fitness>
42.2100

> <Gold.PLP.PLP>
-31.9789

> <Gold.PLP.part.hbond>
-2.0793

> <Gold.PLP.part.metal>
0.0000

> <Gold.PLP.part.buried>
-1.8904

> <Gold.PLP.part.nonpolar>
-29.2125

> <Gold.PLP.part.repulsive>
0.5705

> <Gold.PLP.ligand.clash>
0.0000

> <Gold.PLP.ligand.torsion>
0.7498

> <Gold.PLP.Chemscore.Hbond>
1.8960

> <Gold.PLP.Chemscore.CHOScore>
1.9966

> <Gold.PLP.Chemscore.Metal>
0.0000

> <Gold.Chemscore.Hbonds>
donor molecule, donor type, donor heavy atom, donor atom, acceptor molecule, acceptor atom, score
      L1  H     3    23       P1  7948  0.88
      L1  H     6    24       P1  7948  1.00
      L1  C    10    29       P1 10186  0.95
      L1  C    11    30       P1 10952  0.92

> <Gold.PLP.Chemscore.Internal.Correction>
0.0529

> <Gold.Rescore>
     Score         DG    S(hbond)    S(metal)    S(lipo)     H(rot)  DE(clash)    DE(int)     intcor
     13.63     -14.30       1.84        0.00      70.67       2.18       0.03       0.64       ----

> <Gold.Chemscore.Fitness>
13.6259

> <Gold.Chemscore.DG>
-14.3036

> <Gold.Chemscore.ZeroCoef>
-5.4800

> <Gold.Chemscore.Hbond>
1.8394

> <Gold.Chemscore.Metal>
0.0000

> <Gold.Chemscore.Lipo>
70.6672

> <Gold.Chemscore.Internal_Hbond>
0.0000

> <Gold.Chemscore.DEClash>
0.0341

> <Gold.Chemscore.DEInternal>
0.6436

> <Gold.Chemscore.Rot>
2.1828

> <Gold.Chemscore.Internal.Correction>
   9.000000E+99

> <Gold.Chemscore.Hbonds>
donor molecule, donor type, donor heavy atom, donor atom, acceptor molecule, acceptor atom, score
      L1  H     3    23       P1  7948  0.86
      L1  H     6    24       P1  7948  0.98

> <Gold.Chemscore.Hbond.Weighted>
-6.1436

> <Gold.Chemscore.Metal.Weighted>
-0.0000

> <Gold.Chemscore.Lipo.Weighted>
-8.2681

> <Gold.Chemscore.Internal_Hbond.Weighted>
0.0000

> <Gold.Chemscore.DEClash.Weighted>
0.0341

> <Gold.Chemscore.DEInternal.Weighted>
0.6436

> <Gold.Chemscore.Rot.Weighted>
5.5881

> <Gold.Chemscore.Internal.Correction.Weighted>
   9.000000E+99

> <Gold.Protein.RotatedTorsions>
[ 6907 6896 6895 6894 ] final -134.83 input  -60.11 | X-H torsion
[ 7974 7965 7964 7962 ] final   49.36 input  175.53 | X-H torsion
[ 8008 7997 7996 7995 ] final  144.89 input   59.86 | X-H torsion
[ 10167 10162 10161 10158 ] final -156.41 input  -65.29 | X-H torsion
[ 10718 10713 10712 10709 ] final -150.72 input   66.30 | X-H torsion
[ 10763 10752 10751 10750 ] final  132.28 input  -60.55 | X-H torsion
[ 11005 11000 10999 10996 ] final  155.57 input  -57.11 | X-H torsion

> <Gold.Protein.ActiveResidues>
 VAL166  LYS551  ARG553  GLY616  TRP617  ASP618  TYR619  PRO620  LYS621  CYS622 
 ASP623  PHE694  ASN695  SER759  ASP760  ASP761  ALA762  ILE779  LEU786  VAL792 
 PHE793  MET794  SER795  GLU796  ALA797  LYS798  CYS799  TRP800  GLU811  SER814 

> <Gold.Protein.RotatedAtoms>
  150.9906  133.6153  159.2708 H   0  0  0  0  0  0  0  0  0  0  0  0  # atno 6907 bound_to 6896
  151.3375  135.0855  159.9369 H   0  0  0  0  0  0  0  0  0  0  0  0  # atno 6908 bound_to 6896
  152.5244  133.9523  159.7732 H   0  0  0  0  0  0  0  0  0  0  0  0  # atno 6909 bound_to 6896
  146.0116  139.4549  142.9953 H   0  0  0  0  0  0  0  0  0  0  0  0  # atno 7974 bound_to 7965
  156.2897  140.2224  156.5126 H   0  0  0  0  0  0  0  0  0  0  0  0  # atno 8008 bound_to 7997
  154.7596  140.0474  157.0984 H   0  0  0  0  0  0  0  0  0  0  0  0  # atno 8009 bound_to 7997
  155.0007  140.3101  155.4871 H   0  0  0  0  0  0  0  0  0  0  0  0  # atno 8010 bound_to 7997
  139.6853  143.9512  152.2358 H   0  0  0  0  0  0  0  0  0  0  0  0  # atno 10167 bound_to 10162
  156.4498  130.8162  151.2393 H   0  0  0  0  0  0  0  0  0  0  0  0  # atno 10718 bound_to 10713
  153.7881  135.3159  155.3375 H   0  0  0  0  0  0  0  0  0  0  0  0  # atno 10763 bound_to 10752
  154.8136  135.4651  154.0585 H   0  0  0  0  0  0  0  0  0  0  0  0  # atno 10764 bound_to 10752
  153.1895  135.6906  153.8458 H   0  0  0  0  0  0  0  0  0  0  0  0  # atno 10765 bound_to 10752
  140.1594  134.8620  157.2555 H   0  0  0  0  0  0  0  0  0  0  0  0  # atno 11005 bound_to 11000
  145.7333  141.0034  143.1340 LP  0  0  0  0  0  0  0  0  0  0  0  0  # atno 17320 bound_to 7965
  144.6955  139.9011  143.7458 LP  0  0  0  0  0  0  0  0  0  0  0  0  # atno 17321 bound_to 7965
  139.9313  144.6739  150.8360 LP  0  0  0  0  0  0  0  0  0  0  0  0  # atno 17342 bound_to 10162
  140.7665  143.3306  151.2418 LP  0  0  0  0  0  0  0  0  0  0  0  0  # atno 17343 bound_to 10162
  157.7503  131.0141  150.3452 LP  0  0  0  0  0  0  0  0  0  0  0  0  # atno 17370 bound_to 10713
  156.3828  130.3883  149.7089 LP  0  0  0  0  0  0  0  0  0  0  0  0  # atno 17371 bound_to 10713
  140.2508  134.3685  155.7443 LP  0  0  0  0  0  0  0  0  0  0  0  0  # atno 17394 bound_to 11000
  141.2208  133.7315  156.8932 LP  0  0  0  0  0  0  0  0  0  0  0  0  # atno 17395 bound_to 11000

$$$$
