AV-unprocessed.smi:285|AV-procd|sdf|2167|dock6
  -GOLD-   2262021523D 1   1.00000     0.00000
 Structure written by MMmdl.
 31 33  0  0  0  0  0  0  0  0  1 V2000
  154.4723  141.5228  162.0185 N   0  0  0  0  0  0  0  0  0  0  0  0
  153.4705  142.1062  161.3464 C   0  0  0  0  0  0  0  0  0  0  0  0
  152.8882  143.2032  161.8845 N   0  0  0  0  0  0  0  0  0  0  0  0
  151.8889  143.8059  161.2320 C   0  0  0  0  0  0  0  0  0  0  0  0
  151.3392  143.4785  160.0597 N   0  0  0  0  0  0  0  0  0  0  0  0
  151.9249  142.3698  159.5184 C   0  0  0  0  0  0  0  0  0  0  0  0
  152.9952  141.6284  160.0992 C   0  0  0  0  0  0  0  0  0  0  0  0
  153.3447  140.5645  159.2769 N   0  0  0  0  0  0  0  0  0  0  0  0
  152.5187  140.6919  158.2762 C   0  0  0  0  0  0  0  0  0  0  0  0
  152.5794  139.4705  156.8158 Br  0  0  0  0  0  0  0  0  0  0  0  0
  151.6284  141.7407  158.3249 N   0  0  0  0  0  0  0  0  0  0  0  0
  150.5806  142.1330  157.3331 C   0  0  2  0  0  0  0  0  0  0  0  0
  149.1853  142.0013  157.9364 C   0  0  0  0  0  0  0  0  0  0  0  0
  148.3785  141.6569  156.7043 C   0  0  2  0  0  0  0  0  0  0  0  0
  147.1773  141.0042  157.0608 O   0  0  0  0  0  0  0  0  0  0  0  0
  149.3502  140.7383  155.9525 C   0  0  1  0  0  0  0  0  0  0  0  0
  149.1446  140.6912  154.4307 C   0  0  0  0  0  0  0  0  0  0  0  0
  150.2056  139.9978  153.8086 O   0  0  0  0  0  0  0  0  0  0  0  0
  150.6449  141.2669  156.2400 O   0  0  0  0  0  0  0  0  0  0  0  0
  154.9235  140.7038  161.6368 H   0  0  0  0  0  0  0  0  0  0  0  0
  154.7771  141.9053  162.9018 H   0  0  0  0  0  0  0  0  0  0  0  0
  151.4703  144.6751  161.7177 H   0  0  0  0  0  0  0  0  0  0  0  0
  150.8231  143.1464  157.0147 H   0  0  0  0  0  0  0  0  0  0  0  0
  149.1668  141.1819  158.6575 H   0  0  0  0  0  0  0  0  0  0  0  0
  148.8761  142.9230  158.4300 H   0  0  0  0  0  0  0  0  0  0  0  0
  148.1662  142.5581  156.1272 H   0  0  0  0  0  0  0  0  0  0  0  0
  146.5281  141.1919  156.3996 H   0  0  0  0  0  0  0  0  0  0  0  0
  149.3165  139.7309  156.3720 H   0  0  0  0  0  0  0  0  0  0  0  0
  148.1963  140.2163  154.1777 H   0  0  0  0  0  0  0  0  0  0  0  0
  149.1164  141.7035  154.0268 H   0  0  0  0  0  0  0  0  0  0  0  0
  149.9329  139.7497  152.9384 H   0  0  0  0  0  0  0  0  0  0  0  0
  1  2  1  0  0  0  0
  1 20  1  0  0  0  0
  1 21  1  0  0  0  0
  2  7  1  0  0  0  0
  2  3  2  0  0  0  0
  3  4  1  0  0  0  0
  4  5  2  0  0  0  0
  4 22  1  0  0  0  0
  5  6  1  0  0  0  0
  6 11  1  0  0  0  0
  6  7  2  0  0  0  0
  7  8  1  0  0  0  0
  8  9  2  0  0  0  0
  9 10  1  0  0  0  0
  9 11  1  0  0  0  0
 11 12  1  0  0  0  0
 12 19  1  0  0  0  0
 12 13  1  0  0  0  0
 12 23  1  0  0  0  0
 13 14  1  0  0  0  0
 13 24  1  0  0  0  0
 13 25  1  0  0  0  0
 14 15  1  0  0  0  0
 14 16  1  0  0  0  0
 14 26  1  0  0  0  0
 15 27  1  0  0  0  0
 16 17  1  0  0  0  0
 16 19  1  0  0  0  0
 16 28  1  0  0  0  0
 17 18  1  0  0  0  0
 17 29  1  0  0  0  0
 17 30  1  0  0  0  0
 18 31  1  0  0  0  0
M  END
> <s_m_source_file>
AV-unprocessed.smi

> <i_m_source_file_index>
285

> <i_lp_mmshare_version>
43012

> <i_f3d_flags>
0

> <s_epik_input>
bjFbY0hdbmMoW05IMl0pYyhjMTIpbmMoQnIpbjJbQ0BASF0zW0NIMl1bQ0BASF0oW09IXSlbQ0BIXShPMylbQ0gyXVtPSF0=

> <s_epik_cmdline>
J2VwaWtfcHl0aG9uJywgJy1waCcsICc3LjAnLCAnLXRuJywgJzgnLCAnLW1hJywgJzIwMCcsICctbWV0YWxfYmluZGluZycsICctaW1hZScsICc8aW5maWxlLm1hZT4nLCAnLW9tYWUnLCAnPG91dGZpbGUubWFlPic=

> <r_lp_tautomer_probability>
1

> <r_epik_Ionization_Penalty>
0.000103242

> <r_epik_Ionization_Penalty_Charging>
0

> <r_epik_Ionization_Penalty_Neutral>
0.000103242

> <r_epik_State_Penalty>
-0

> <r_epik_Charging_Adjusted_Penalty>
0

> <i_epik_Tot_Q>
0

> <i_epik_Tot_abs_Q>
0

> <r_epik_Metal_State_Penalty>
-0

> <b_epik_Metal_Only>
0

> <s_epik_Chemistry_Notes>
This compound contains an acetal/aminal-like group ( X-CH(R)-Y where X, Y are N, S, or O) that may be acid/base labile, releasing an aldehyde.

> <s_lp_Force_Field>
OPLS_2005

> <r_lp_Energy>
29.9109

> <b_lp_Chiralities_Consistent>
1

> <s_lp_Variant>
AV-unprocessed.smi:285-3

> <Gold.Version>
5.8.1

> <Gold.Id.Protein>
6NUR|6NUR_protein|mol2

> <Gold.PLP.Fitness>
38.1778

> <Gold.PLP.PLP>
-32.5749

> <Gold.PLP.part.hbond>
-3.0000

> <Gold.PLP.part.metal>
0.0000

> <Gold.PLP.part.buried>
-4.7771

> <Gold.PLP.part.nonpolar>
-24.3664

> <Gold.PLP.part.repulsive>
0.2006

> <Gold.PLP.ligand.clash>
0.0000

> <Gold.PLP.ligand.torsion>
0.0578

> <Gold.PLP.Chemscore.Hbond>
1.9040

> <Gold.PLP.Chemscore.CHOScore>
0.0000

> <Gold.PLP.Chemscore.Metal>
0.0000

> <Gold.Chemscore.Hbonds>
donor molecule, donor type, donor heavy atom, donor atom, acceptor molecule, acceptor atom, score
      L1  H    18    31       P1  7957  1.00
      P1  H  7989  7998       L1    18  0.88

> <Gold.PLP.Chemscore.Internal.Correction>
0.0066

> <Gold.Rescore>
     Score         DG    S(hbond)    S(metal)    S(lipo)     H(rot)  DE(clash)    DE(int)     intcor
      4.80      -6.46       1.42        0.00      34.67       3.06       0.08       1.58       ----

> <Gold.Chemscore.Fitness>
4.7957

> <Gold.Chemscore.DG>
-6.4556

> <Gold.Chemscore.ZeroCoef>
-5.4800

> <Gold.Chemscore.Hbond>
1.4236

> <Gold.Chemscore.Metal>
0.0000

> <Gold.Chemscore.Lipo>
34.6689

> <Gold.Chemscore.Internal_Hbond>
0.0000

> <Gold.Chemscore.DEClash>
0.0815

> <Gold.Chemscore.DEInternal>
1.5784

> <Gold.Chemscore.Rot>
3.0607

> <Gold.Chemscore.Internal.Correction>
   9.000000E+99

> <Gold.Chemscore.Hbonds>
donor molecule, donor type, donor heavy atom, donor atom, acceptor molecule, acceptor atom, score
      L1  H    18    31       P1  7957  0.98
      P1  H  7989  7998       L1    18  0.25

> <Gold.Chemscore.Hbond.Weighted>
-4.7547

> <Gold.Chemscore.Metal.Weighted>
-0.0000

> <Gold.Chemscore.Lipo.Weighted>
-4.0563

> <Gold.Chemscore.Internal_Hbond.Weighted>
0.0000

> <Gold.Chemscore.DEClash.Weighted>
0.0815

> <Gold.Chemscore.DEInternal.Weighted>
1.5784

> <Gold.Chemscore.Rot.Weighted>
7.8354

> <Gold.Chemscore.Internal.Correction.Weighted>
   9.000000E+99

> <Gold.Protein.RotatedTorsions>
[ 6907 6896 6895 6894 ] final  -78.96 input  -60.11 | X-H torsion
[ 7974 7965 7964 7962 ] final  -14.77 input  175.53 | X-H torsion
[ 8008 7997 7996 7995 ] final  -67.43 input   59.86 | X-H torsion
[ 10167 10162 10161 10158 ] final  127.98 input  -65.29 | X-H torsion
[ 10718 10713 10712 10709 ] final -106.28 input   66.30 | X-H torsion
[ 10763 10752 10751 10750 ] final -118.11 input  -60.55 | X-H torsion
[ 11005 11000 10999 10996 ] final -169.53 input  -57.11 | X-H torsion

> <Gold.Protein.ActiveResidues>
 VAL166  LYS551  ARG553  GLY616  TRP617  ASP618  TYR619  PRO620  LYS621  CYS622 
 ASP623  PHE694  ASN695  SER759  ASP760  ASP761  ALA762  ILE779  LEU786  VAL792 
 PHE793  MET794  SER795  GLU796  ALA797  LYS798  CYS799  TRP800  GLU811  SER814 

> <Gold.Protein.RotatedAtoms>
  150.6960  134.4194  159.5197 H   0  0  0  0  0  0  0  0  0  0  0  0  # atno 6907 bound_to 6896
  152.1939  134.8645  160.0524 H   0  0  0  0  0  0  0  0  0  0  0  0  # atno 6908 bound_to 6896
  151.9590  133.3654  159.4065 H   0  0  0  0  0  0  0  0  0  0  0  0  # atno 6909 bound_to 6896
  146.2060  140.3396  142.8407 H   0  0  0  0  0  0  0  0  0  0  0  0  # atno 7974 bound_to 7965
  154.4799  140.0893  156.7353 H   0  0  0  0  0  0  0  0  0  0  0  0  # atno 8008 bound_to 7997
  155.4497  140.3457  155.4281 H   0  0  0  0  0  0  0  0  0  0  0  0  # atno 8009 bound_to 7997
  156.1175  140.1465  156.9239 H   0  0  0  0  0  0  0  0  0  0  0  0  # atno 8010 bound_to 7997
  139.5550  144.6842  151.4209 H   0  0  0  0  0  0  0  0  0  0  0  0  # atno 10167 bound_to 10162
  156.0383  130.5605  150.7659 H   0  0  0  0  0  0  0  0  0  0  0  0  # atno 10718 bound_to 10713
  154.8577  135.4285  154.2087 H   0  0  0  0  0  0  0  0  0  0  0  0  # atno 10763 bound_to 10752
  153.3117  135.6976  153.7115 H   0  0  0  0  0  0  0  0  0  0  0  0  # atno 10764 bound_to 10752
  153.6205  135.3503  155.2983 H   0  0  0  0  0  0  0  0  0  0  0  0  # atno 10765 bound_to 10752
  140.5297  134.5628  157.5071 H   0  0  0  0  0  0  0  0  0  0  0  0  # atno 11005 bound_to 11000
  144.8795  140.7381  143.5996 LP  0  0  0  0  0  0  0  0  0  0  0  0  # atno 17320 bound_to 7965
  145.3316  139.1758  143.4534 LP  0  0  0  0  0  0  0  0  0  0  0  0  # atno 17321 bound_to 7965
  140.6821  143.8058  150.7136 LP  0  0  0  0  0  0  0  0  0  0  0  0  # atno 17342 bound_to 10162
  140.1514  143.4354  152.2128 LP  0  0  0  0  0  0  0  0  0  0  0  0  # atno 17343 bound_to 10162
  157.5166  131.0929  151.0131 LP  0  0  0  0  0  0  0  0  0  0  0  0  # atno 17370 bound_to 10713
  157.0473  130.5773  149.5365 LP  0  0  0  0  0  0  0  0  0  0  0  0  # atno 17371 bound_to 10713
  139.9561  134.7533  156.0339 LP  0  0  0  0  0  0  0  0  0  0  0  0  # atno 17394 bound_to 11000
  141.1288  133.6592  156.3409 LP  0  0  0  0  0  0  0  0  0  0  0  0  # atno 17395 bound_to 11000

$$$$
