AV-unprocessed.smi:1627|AV-procd|sdf|6517|dock7
  -GOLD-   22720 7193D 1   1.00000     0.00000
 Structure written by MMmdl.
 43 44  0  0  0  0  0  0  0  0  1 V2000
  154.8699  135.2275  162.6397 C   0  0  0  0  0  0  0  0  0  0  0  0
  154.9293  135.4558  161.1221 C   0  0  1  0  0  0  0  0  0  0  0  0
  154.3573  134.3107  160.4945 O   0  0  0  0  0  0  0  0  0  0  0  0
  155.2204  133.1853  160.3645 C   0  0  0  0  0  0  0  0  0  0  0  0
  154.4428  132.0196  159.7417 C   0  0  0  0  0  0  0  0  0  0  0  0
  155.2954  131.0517  159.4075 F   0  0  0  0  0  0  0  0  0  0  0  0
  153.5640  131.5316  160.6165 F   0  0  0  0  0  0  0  0  0  0  0  0
  153.8047  132.4256  158.6444 F   0  0  0  0  0  0  0  0  0  0  0  0
  154.1651  136.7277  160.7188 C   0  0  0  0  0  0  0  0  0  0  0  0
  153.1543  136.6347  160.0226 O   0  0  0  0  0  0  0  0  0  0  0  0
  154.6992  137.8886  161.1414 N   0  0  0  0  0  0  0  0  0  0  0  0
  154.2285  139.2129  160.9311 C   0  0  0  0  0  0  0  0  0  0  0  0
  154.4232  140.2836  161.8332 C   0  0  0  0  0  0  0  0  0  0  0  0
  153.9230  141.5573  161.5009 C   0  0  0  0  0  0  0  0  0  0  0  0
  153.2435  141.7383  160.2697 C   0  0  0  0  0  0  0  0  0  0  0  0
  152.7246  142.9920  159.8725 N   0  0  0  0  0  0  0  0  0  0  0  0
  152.0784  143.0392  158.5568 C   0  0  0  0  0  0  0  0  0  0  0  0
  151.9673  144.4828  158.0375 C   0  0  0  0  0  0  0  0  0  0  0  0
  151.2823  145.3903  159.0685 C   0  0  0  0  0  0  0  0  0  0  0  0
  152.0290  145.3135  160.4072 C   0  0  0  0  0  0  0  0  0  0  0  0
  152.1426  143.8601  160.8982 C   0  0  0  0  0  0  0  0  0  0  0  0
  153.0726  140.7097  159.4045 N   0  0  0  0  0  0  0  0  0  0  0  0
  153.5543  139.4916  159.7265 C   0  0  0  0  0  0  0  0  0  0  0  0
  155.2826  136.0768  163.1853 H   0  0  0  0  0  0  0  0  0  0  0  0
  155.4462  134.3456  162.9201 H   0  0  0  0  0  0  0  0  0  0  0  0
  153.8462  135.0729  162.9833 H   0  0  0  0  0  0  0  0  0  0  0  0
  155.9779  135.5427  160.8304 H   0  0  0  0  0  0  0  0  0  0  0  0
  156.0814  133.4230  159.7386 H   0  0  0  0  0  0  0  0  0  0  0  0
  155.6002  132.8927  161.3446 H   0  0  0  0  0  0  0  0  0  0  0  0
  155.5798  137.8161  161.6303 H   0  0  0  0  0  0  0  0  0  0  0  0
  154.9540  140.1607  162.7643 H   0  0  0  0  0  0  0  0  0  0  0  0
  154.0672  142.3657  162.2014 H   0  0  0  0  0  0  0  0  0  0  0  0
  152.6184  142.4472  157.8182 H   0  0  0  0  0  0  0  0  0  0  0  0
  151.0846  142.5984  158.6436 H   0  0  0  0  0  0  0  0  0  0  0  0
  152.9639  144.8677  157.8165 H   0  0  0  0  0  0  0  0  0  0  0  0
  151.4138  144.4989  157.0984 H   0  0  0  0  0  0  0  0  0  0  0  0
  151.2570  146.4192  158.7087 H   0  0  0  0  0  0  0  0  0  0  0  0
  150.2458  145.0791  159.2048 H   0  0  0  0  0  0  0  0  0  0  0  0
  153.0274  145.7375  160.2917 H   0  0  0  0  0  0  0  0  0  0  0  0
  151.5197  145.9205  161.1558 H   0  0  0  0  0  0  0  0  0  0  0  0
  151.1574  143.4790  161.1710 H   0  0  0  0  0  0  0  0  0  0  0  0
  152.7589  143.8474  161.7976 H   0  0  0  0  0  0  0  0  0  0  0  0
  153.3897  138.7120  158.9968 H   0  0  0  0  0  0  0  0  0  0  0  0
  1  2  1  0  0  0  0
  1 24  1  0  0  0  0
  1 25  1  0  0  0  0
  1 26  1  0  0  0  0
  2  3  1  0  0  0  0
  2  9  1  0  0  0  0
  2 27  1  0  0  0  0
  3  4  1  0  0  0  0
  4  5  1  0  0  0  0
  4 28  1  0  0  0  0
  4 29  1  0  0  0  0
  5  6  1  0  0  0  0
  5  7  1  0  0  0  0
  5  8  1  0  0  0  0
  9 10  2  0  0  0  0
  9 11  1  0  0  0  0
 11 12  1  0  0  0  0
 11 30  1  0  0  0  0
 12 23  1  0  0  0  0
 12 13  2  0  0  0  0
 13 14  1  0  0  0  0
 13 31  1  0  0  0  0
 14 15  2  0  0  0  0
 14 32  1  0  0  0  0
 15 16  1  0  0  0  0
 15 22  1  0  0  0  0
 16 21  1  0  0  0  0
 16 17  1  0  0  0  0
 17 18  1  0  0  0  0
 17 33  1  0  0  0  0
 17 34  1  0  0  0  0
 18 19  1  0  0  0  0
 18 35  1  0  0  0  0
 18 36  1  0  0  0  0
 19 20  1  0  0  0  0
 19 37  1  0  0  0  0
 19 38  1  0  0  0  0
 20 21  1  0  0  0  0
 20 39  1  0  0  0  0
 20 40  1  0  0  0  0
 21 41  1  0  0  0  0
 21 42  1  0  0  0  0
 22 23  2  0  0  0  0
 23 43  1  0  0  0  0
M  END
> <s_m_source_file>
AV-unprocessed.smi

> <i_m_source_file_index>
1627

> <i_lp_mmshare_version>
43012

> <i_f3d_flags>
0

> <s_epik_input>
RkMoRikoRilbQ0gyXU9bQ0BASF0oW0NIM10pQyg9TylbTkhdYzFbY0hdW2NIXWMobltjSF0xKU4yW0NIMl1bQ0gyXVtDSDJdW0NIMl1bQ0gyXTI=

> <s_epik_cmdline>
J2VwaWtfcHl0aG9uJywgJy1waCcsICc3LjAnLCAnLXRuJywgJzgnLCAnLW1hJywgJzIwMCcsICctbWV0YWxfYmluZGluZycsICctaW1hZScsICc8aW5maWxlLm1hZT4nLCAnLW9tYWUnLCAnPG91dGZpbGUubWFlPic=

> <r_lp_tautomer_probability>
1

> <r_epik_Ionization_Penalty>
0.0254771

> <r_epik_Ionization_Penalty_Charging>
0

> <r_epik_Ionization_Penalty_Neutral>
0.0254771

> <r_epik_State_Penalty>
0.0187406

> <r_epik_Charging_Adjusted_Penalty>
0.0187406

> <i_epik_Tot_Q>
0

> <i_epik_Tot_abs_Q>
0

> <r_epik_Metal_State_Penalty>
0.017939

> <b_epik_Metal_Only>
0

> <s_lp_Force_Field>
OPLS_2005

> <r_lp_Energy>
25.1621

> <b_lp_Chiralities_Consistent>
1

> <s_lp_Variant>
AV-unprocessed.smi:1627-2

> <Gold.Version>
5.8.1

> <Gold.Id.Protein>
6NUR|6NUR_protein|mol2

> <Gold.PLP.Fitness>
47.4673

> <Gold.PLP.PLP>
-45.8588

> <Gold.PLP.part.hbond>
-1.6668

> <Gold.PLP.part.metal>
0.0000

> <Gold.PLP.part.buried>
-5.4426

> <Gold.PLP.part.nonpolar>
-39.1148

> <Gold.PLP.part.repulsive>
0.0000

> <Gold.PLP.ligand.clash>
0.0000

> <Gold.PLP.ligand.torsion>
0.8552

> <Gold.PLP.Chemscore.Hbond>
1.0000

> <Gold.PLP.Chemscore.CHOScore>
0.0000

> <Gold.PLP.Chemscore.Metal>
0.0000

> <Gold.Chemscore.Hbonds>
donor molecule, donor type, donor heavy atom, donor atom, acceptor molecule, acceptor atom, score
      P1  H  6896  6908       L1    10  1.00

> <Gold.PLP.Chemscore.Internal.Correction>
0.3189

> <Gold.Rescore>
     Score         DG    S(hbond)    S(metal)    S(lipo)     H(rot)  DE(clash)    DE(int)     intcor
     15.05     -16.85       1.00        0.00     104.23       1.63       0.09       1.71       ----

> <Gold.Chemscore.Fitness>
15.0503

> <Gold.Chemscore.DG>
-16.8464

> <Gold.Chemscore.ZeroCoef>
-5.4800

> <Gold.Chemscore.Hbond>
0.9982

> <Gold.Chemscore.Metal>
0.0000

> <Gold.Chemscore.Lipo>
104.2301

> <Gold.Chemscore.Internal_Hbond>
0.0000

> <Gold.Chemscore.DEClash>
0.0883

> <Gold.Chemscore.DEInternal>
1.7078

> <Gold.Chemscore.Rot>
1.6260

> <Gold.Chemscore.Internal.Correction>
   9.000000E+99

> <Gold.Chemscore.Hbonds>
donor molecule, donor type, donor heavy atom, donor atom, acceptor molecule, acceptor atom, score
      P1  H  6896  6908       L1    10  0.95

> <Gold.Chemscore.Hbond.Weighted>
-3.3340

> <Gold.Chemscore.Metal.Weighted>
-0.0000

> <Gold.Chemscore.Lipo.Weighted>
-12.1949

> <Gold.Chemscore.Internal_Hbond.Weighted>
0.0000

> <Gold.Chemscore.DEClash.Weighted>
0.0883

> <Gold.Chemscore.DEInternal.Weighted>
1.7078

> <Gold.Chemscore.Rot.Weighted>
4.1625

> <Gold.Chemscore.Internal.Correction.Weighted>
   9.000000E+99

> <Gold.Protein.RotatedTorsions>
[ 6907 6896 6895 6894 ] final  -81.33 input  -60.11 | X-H torsion
[ 7974 7965 7964 7962 ] final  -70.49 input  175.53 | X-H torsion
[ 8008 7997 7996 7995 ] final  -19.23 input   59.86 | X-H torsion
[ 10167 10162 10161 10158 ] final  166.62 input  -65.29 | X-H torsion
[ 10718 10713 10712 10709 ] final   24.60 input   66.30 | X-H torsion
[ 10763 10752 10751 10750 ] final  -40.17 input  -60.55 | X-H torsion
[ 11005 11000 10999 10996 ] final  145.15 input  -57.11 | X-H torsion

> <Gold.Protein.ActiveResidues>
 VAL166  LYS551  ARG553  GLY616  TRP617  ASP618  TYR619  PRO620  LYS621  CYS622 
 ASP623  PHE694  ASN695  SER759  ASP760  ASP761  ALA762  ILE779  LEU786  VAL792 
 PHE793  MET794  SER795  GLU796  ALA797  LYS798  CYS799  TRP800  GLU811  SER814 

> <Gold.Protein.RotatedAtoms>
  150.6914  134.3833  159.5043 H   0  0  0  0  0  0  0  0  0  0  0  0  # atno 6907 bound_to 6896
  152.1632  134.8892  160.0549 H   0  0  0  0  0  0  0  0  0  0  0  0  # atno 6908 bound_to 6896
  151.9946  133.3768  159.4194 H   0  0  0  0  0  0  0  0  0  0  0  0  # atno 6909 bound_to 6896
  145.6902  140.9156  143.0785 H   0  0  0  0  0  0  0  0  0  0  0  0  # atno 7974 bound_to 7965
  154.4851  140.2094  155.9674 H   0  0  0  0  0  0  0  0  0  0  0  0  # atno 8008 bound_to 7997
  156.1223  140.3211  155.8196 H   0  0  0  0  0  0  0  0  0  0  0  0  # atno 8009 bound_to 7997
  155.4445  140.0512  157.2998 H   0  0  0  0  0  0  0  0  0  0  0  0  # atno 8010 bound_to 7997
  139.4928  144.4008  151.9412 H   0  0  0  0  0  0  0  0  0  0  0  0  # atno 10167 bound_to 10162
  157.1820  130.6807  149.6117 H   0  0  0  0  0  0  0  0  0  0  0  0  # atno 10718 bound_to 10713
  153.9414  135.6761  153.4744 H   0  0  0  0  0  0  0  0  0  0  0  0  # atno 10763 bound_to 10752
  153.0929  135.4865  154.8721 H   0  0  0  0  0  0  0  0  0  0  0  0  # atno 10764 bound_to 10752
  154.7375  135.3152  154.8745 H   0  0  0  0  0  0  0  0  0  0  0  0  # atno 10765 bound_to 10752
  140.0689  134.9163  157.1311 H   0  0  0  0  0  0  0  0  0  0  0  0  # atno 11005 bound_to 11000
  144.6999  139.8812  143.7447 LP  0  0  0  0  0  0  0  0  0  0  0  0  # atno 17320 bound_to 7965
  146.0888  139.3877  143.0418 LP  0  0  0  0  0  0  0  0  0  0  0  0  # atno 17321 bound_to 7965
  140.3447  144.3161  150.5960 LP  0  0  0  0  0  0  0  0  0  0  0  0  # atno 17342 bound_to 10162
  140.5536  143.2202  151.7885 LP  0  0  0  0  0  0  0  0  0  0  0  0  # atno 17343 bound_to 10162
  155.9723  130.4643  150.6214 LP  0  0  0  0  0  0  0  0  0  0  0  0  # atno 17370 bound_to 10713
  157.3943  131.0800  151.1366 LP  0  0  0  0  0  0  0  0  0  0  0  0  # atno 17371 bound_to 10713
  140.3657  134.2445  155.7182 LP  0  0  0  0  0  0  0  0  0  0  0  0  # atno 17394 bound_to 11000
  141.2004  133.7989  157.0492 LP  0  0  0  0  0  0  0  0  0  0  0  0  # atno 17395 bound_to 11000

$$$$
