AV-unprocessed.smi:37|AV-procd|sdf|330|dock3
  -GOLD-   2262016163D 1   1.00000     0.00000
 Structure written by MMmdl.
 43 44  0  0  0  0  0  0  0  0  2 V2000
  145.6694  141.0753  153.3088 C   0  0  0  0  0  0  0  0  0  0  0  0
  146.2078  139.7639  153.8968 C   0  0  0  0  0  0  0  0  0  0  0  0
  146.8341  139.9660  155.2744 C   0  0  0  0  0  0  0  0  0  0  0  0
  146.9194  141.0832  155.7845 O   0  0  0  0  0  0  0  0  0  0  0  0
  147.2588  138.8173  155.8197 O   0  0  0  0  0  0  0  0  0  0  0  0
  147.8799  138.8266  157.0933 C   0  0  0  0  0  0  0  0  0  0  0  0
  148.7628  137.5834  157.2714 C   0  0  1  0  0  0  0  0  0  0  0  0
  149.6934  137.4845  156.1912 O   0  0  0  0  0  0  0  0  0  0  0  0
  150.9267  137.0227  156.6582 C   0  0  2  0  0  0  0  0  0  0  0  0
  150.9724  135.5005  156.6255 N   0  0  0  0  0  0  0  0  0  0  0  0
  149.9460  134.7503  156.0707 C   0  0  0  0  0  0  0  0  0  0  0  0
  149.9954  133.4030  156.0414 C   0  0  0  0  0  0  0  0  0  0  0  0
  148.9805  132.7077  155.4999 F   0  0  0  0  0  0  0  0  0  0  0  0
  151.1580  132.7101  156.5905 C   0  0  0  0  0  0  0  0  0  0  0  0
  151.1813  131.4805  156.5963 O   0  0  0  0  0  0  0  0  0  0  0  0
  152.1812  133.4709  157.0740 N   0  5  0  0  0  0  0  0  0  0  0  0
  152.1427  134.8352  157.0887 C   0  0  0  0  0  0  0  0  0  0  0  0
  153.0833  135.5255  157.4810 O   0  0  0  0  0  0  0  0  0  0  0  0
  151.0315  137.5595  158.0934 C   0  0  1  0  0  0  0  0  0  0  0  0
  151.7125  139.4305  158.0490 Br  0  0  0  0  0  0  0  0  0  0  0  0
  149.5832  137.5486  158.5728 C   0  0  2  0  0  0  0  0  0  0  0  0
  149.3042  136.3249  159.2447 O   0  0  0  0  0  0  0  0  0  0  0  0
  148.3147  136.2505  160.1528 C   0  0  0  0  0  0  0  0  0  0  0  0
  147.6091  137.1860  160.5303 O   0  0  0  0  0  0  0  0  0  0  0  0
  148.1327  134.8404  160.7093 C   0  0  0  0  0  0  0  0  0  0  0  0
  147.9346  134.8396  162.2321 C   0  0  0  0  0  0  0  0  0  0  0  0
  145.2349  140.9035  152.3242 H   0  0  0  0  0  0  0  0  0  0  0  0
  146.4632  141.8144  153.1956 H   0  0  0  0  0  0  0  0  0  0  0  0
  144.8930  141.5100  153.9396 H   0  0  0  0  0  0  0  0  0  0  0  0
  145.4015  139.0350  153.9816 H   0  0  0  0  0  0  0  0  0  0  0  0
  146.9536  139.3348  153.2272 H   0  0  0  0  0  0  0  0  0  0  0  0
  148.4861  139.7281  157.1915 H   0  0  0  0  0  0  0  0  0  0  0  0
  147.1214  138.8571  157.8769 H   0  0  0  0  0  0  0  0  0  0  0  0
  148.1048  136.7150  157.2310 H   0  0  0  0  0  0  0  0  0  0  0  0
  151.7402  137.3346  156.0013 H   0  0  0  0  0  0  0  0  0  0  0  0
  149.0836  135.2307  155.6373 H   0  0  0  0  0  0  0  0  0  0  0  0
  151.7109  136.9866  158.7232 H   0  0  0  0  0  0  0  0  0  0  0  0
  149.3603  138.3957  159.2233 H   0  0  0  0  0  0  0  0  0  0  0  0
  147.2677  134.3851  160.2262 H   0  0  0  0  0  0  0  0  0  0  0  0
  148.9997  134.2362  160.4420 H   0  0  0  0  0  0  0  0  0  0  0  0
  147.6953  133.8381  162.5886 H   0  0  0  0  0  0  0  0  0  0  0  0
  147.1199  135.5006  162.5309 H   0  0  0  0  0  0  0  0  0  0  0  0
  148.8369  135.1647  162.7505 H   0  0  0  0  0  0  0  0  0  0  0  0
  1  2  1  0  0  0  0
  1 27  1  0  0  0  0
  1 28  1  0  0  0  0
  1 29  1  0  0  0  0
  2  3  1  0  0  0  0
  2 30  1  0  0  0  0
  2 31  1  0  0  0  0
  3  4  2  0  0  0  0
  3  5  1  0  0  0  0
  5  6  1  0  0  0  0
  6  7  1  0  0  0  0
  6 32  1  0  0  0  0
  6 33  1  0  0  0  0
  7 21  1  0  0  0  0
  7  8  1  0  0  0  0
  7 34  1  0  0  0  0
  8  9  1  0  0  0  0
  9 10  1  0  0  0  0
  9 19  1  0  0  0  0
  9 35  1  0  0  0  0
 10 17  1  0  0  0  0
 10 11  1  0  0  0  0
 11 12  2  0  0  0  0
 11 36  1  0  0  0  0
 12 13  1  0  0  0  0
 12 14  1  0  0  0  0
 14 15  2  0  0  0  0
 14 16  1  0  0  0  0
 16 17  1  0  0  0  0
 17 18  2  0  0  0  0
 19 20  1  0  0  0  0
 19 21  1  0  0  0  0
 19 37  1  0  0  0  0
 21 22  1  0  0  0  0
 21 38  1  0  0  0  0
 22 23  1  0  0  0  0
 23 24  2  0  0  0  0
 23 25  1  0  0  0  0
 25 26  1  0  0  0  0
 25 39  1  0  0  0  0
 25 40  1  0  0  0  0
 26 41  1  0  0  0  0
 26 42  1  0  0  0  0
 26 43  1  0  0  0  0
M  CHG  1  16  -1
M  END
> <s_m_source_file>
AV-unprocessed.smi

> <i_m_source_file_index>
37

> <i_lp_mmshare_version>
43012

> <i_f3d_flags>
0

> <s_epik_input>
W0NIM11bQ0gyXUMoPU8pT1tDSDJdW0NAQEhdMU9bQ0BASF0objJbY0hdYyhGKWMoPU8pW25IXWMyPU8pW0NAQEhdKEJyKVtDQEhdMU9DKD1PKVtDSDJdW0NIM10=

> <s_epik_cmdline>
J2VwaWtfcHl0aG9uJywgJy1waCcsICc3LjAnLCAnLXRuJywgJzgnLCAnLW1hJywgJzIwMCcsICctbWV0YWxfYmluZGluZycsICctaW1hZScsICc8aW5maWxlLm1hZT4nLCAnLW9tYWUnLCAnPG91dGZpbGUubWFlPic=

> <r_epik_Ionization_Penalty>
1.08158

> <r_epik_Ionization_Penalty_Charging>
9.05154e-09

> <r_epik_Ionization_Penalty_Neutral>
1.08158

> <r_epik_State_Penalty>
1.13706

> <r_epik_Charging_Adjusted_Penalty>
1.13706

> <i_epik_Tot_Q>
-1

> <i_epik_Tot_abs_Q>
1

> <r_epik_Metal_State_Penalty>
0.00343535

> <b_epik_Metal_Only>
0

> <s_epik_Chemistry_Notes>
This compound has an ester and may undergo hydrolysis at high or low pH. This compound contains an acetal/aminal-like group ( X-CH(R)-Y where X, Y are N, S, or O) that may be acid/base labile, releasing an aldehyde.

> <s_lp_Force_Field>
OPLS_2005

> <r_lp_Energy>
28.0261

> <b_lp_Chiralities_Consistent>
1

> <s_lp_Variant>
AV-unprocessed.smi:37-28

> <Gold.Version>
5.8.1

> <Gold.Id.Protein>
6NUR|6NUR_protein|mol2

> <Gold.PLP.Fitness>
37.0684

> <Gold.PLP.PLP>
-30.2608

> <Gold.PLP.part.hbond>
-4.0857

> <Gold.PLP.part.metal>
0.0000

> <Gold.PLP.part.buried>
-4.9614

> <Gold.PLP.part.nonpolar>
-21.5163

> <Gold.PLP.part.repulsive>
0.1563

> <Gold.PLP.ligand.clash>
0.0000

> <Gold.PLP.ligand.torsion>
0.7209

> <Gold.PLP.Chemscore.Hbond>
2.6960

> <Gold.PLP.Chemscore.CHOScore>
0.0000

> <Gold.PLP.Chemscore.Metal>
0.0000

> <Gold.Chemscore.Hbonds>
donor molecule, donor type, donor heavy atom, donor atom, acceptor molecule, acceptor atom, score
      P1  H  6931  6943       L1    24  0.35
      P1  H  6934  6947       L1    24  0.98
      P1  H 10752 10763       L1    18  0.06

> <Gold.PLP.Chemscore.Internal.Correction>
0.1614

> <Gold.Rescore>
     Score         DG    S(hbond)    S(metal)    S(lipo)     H(rot)  DE(clash)    DE(int)     intcor
      7.78      -8.68       1.90        0.00      44.66       3.27       0.02       0.88       ----

> <Gold.Chemscore.Fitness>
7.7814

> <Gold.Chemscore.DG>
-8.6812

> <Gold.Chemscore.ZeroCoef>
-5.4800

> <Gold.Chemscore.Hbond>
1.8979

> <Gold.Chemscore.Metal>
0.0000

> <Gold.Chemscore.Lipo>
44.6636

> <Gold.Chemscore.Internal_Hbond>
0.0000

> <Gold.Chemscore.DEClash>
0.0234

> <Gold.Chemscore.DEInternal>
0.8764

> <Gold.Chemscore.Rot>
3.2669

> <Gold.Chemscore.Internal.Correction>
   9.000000E+99

> <Gold.Chemscore.Hbonds>
donor molecule, donor type, donor heavy atom, donor atom, acceptor molecule, acceptor atom, score
      P1  H  6931  6943       L1    24  0.11
      P1  H  6934  6947       L1    24  0.93

> <Gold.Chemscore.Hbond.Weighted>
-6.3389

> <Gold.Chemscore.Metal.Weighted>
-0.0000

> <Gold.Chemscore.Lipo.Weighted>
-5.2256

> <Gold.Chemscore.Internal_Hbond.Weighted>
0.0000

> <Gold.Chemscore.DEClash.Weighted>
0.0234

> <Gold.Chemscore.DEInternal.Weighted>
0.8764

> <Gold.Chemscore.Rot.Weighted>
8.3634

> <Gold.Chemscore.Internal.Correction.Weighted>
   9.000000E+99

> <Gold.Protein.RotatedTorsions>
[ 6907 6896 6895 6894 ] final  124.01 input  -60.11 | X-H torsion
[ 7974 7965 7964 7962 ] final  -53.49 input  175.53 | X-H torsion
[ 8008 7997 7996 7995 ] final  101.35 input   59.86 | X-H torsion
[ 10167 10162 10161 10158 ] final -175.19 input  -65.29 | X-H torsion
[ 10718 10713 10712 10709 ] final -135.11 input   66.30 | X-H torsion
[ 10763 10752 10751 10750 ] final  128.56 input  -60.55 | X-H torsion
[ 11005 11000 10999 10996 ] final  -84.43 input  -57.11 | X-H torsion

> <Gold.Protein.ActiveResidues>
 VAL166  LYS551  ARG553  GLY616  TRP617  ASP618  TYR619  PRO620  LYS621  CYS622 
 ASP623  PHE694  ASN695  SER759  ASP760  ASP761  ALA762  ILE779  LEU786  VAL792 
 PHE793  MET794  SER795  GLU796  ALA797  LYS798  CYS799  TRP800  GLU811  SER814 

> <Gold.Protein.RotatedAtoms>
  152.4114  133.6969  159.6400 H   0  0  0  0  0  0  0  0  0  0  0  0  # atno 6907 bound_to 6896
  150.7994  133.8618  159.3242 H   0  0  0  0  0  0  0  0  0  0  0  0  # atno 6908 bound_to 6896
  151.6359  135.1020  160.0183 H   0  0  0  0  0  0  0  0  0  0  0  0  # atno 6909 bound_to 6896
  145.8963  140.8031  142.9766 H   0  0  0  0  0  0  0  0  0  0  0  0  # atno 7974 bound_to 7965
  156.1291  140.3199  155.8322 H   0  0  0  0  0  0  0  0  0  0  0  0  # atno 8008 bound_to 7997
  155.4365  140.0522  157.3031 H   0  0  0  0  0  0  0  0  0  0  0  0  # atno 8009 bound_to 7997
  154.4885  140.2082  155.9614 H   0  0  0  0  0  0  0  0  0  0  0  0  # atno 8010 bound_to 7997
  139.5594  144.1908  152.1213 H   0  0  0  0  0  0  0  0  0  0  0  0  # atno 10167 bound_to 10162
  156.2626  130.7218  151.1158 H   0  0  0  0  0  0  0  0  0  0  0  0  # atno 10718 bound_to 10713
  153.7275  135.3244  155.3279 H   0  0  0  0  0  0  0  0  0  0  0  0  # atno 10763 bound_to 10752
  154.8336  135.4514  154.1155 H   0  0  0  0  0  0  0  0  0  0  0  0  # atno 10764 bound_to 10752
  153.2293  135.6958  153.7989 H   0  0  0  0  0  0  0  0  0  0  0  0  # atno 10765 bound_to 10752
  141.1650  133.7345  156.8866 H   0  0  0  0  0  0  0  0  0  0  0  0  # atno 11005 bound_to 11000
  144.6733  140.1607  143.7422 LP  0  0  0  0  0  0  0  0  0  0  0  0  # atno 17320 bound_to 7965
  145.8847  139.2342  143.1585 LP  0  0  0  0  0  0  0  0  0  0  0  0  # atno 17321 bound_to 7965
  140.1418  144.5195  150.6739 LP  0  0  0  0  0  0  0  0  0  0  0  0  # atno 17342 bound_to 10162
  140.6872  143.2356  151.5230 LP  0  0  0  0  0  0  0  0  0  0  0  0  # atno 17343 bound_to 10162
  157.7256  131.0652  150.5946 LP  0  0  0  0  0  0  0  0  0  0  0  0  # atno 17370 bound_to 10713
  156.6035  130.4361  149.5887 LP  0  0  0  0  0  0  0  0  0  0  0  0  # atno 17371 bound_to 10713
  140.1678  134.9121  157.2795 LP  0  0  0  0  0  0  0  0  0  0  0  0  # atno 17394 bound_to 11000
  140.2537  134.3653  155.7432 LP  0  0  0  0  0  0  0  0  0  0  0  0  # atno 17395 bound_to 11000

$$$$
