AV-unprocessed.smi:1843|AV-procd|sdf|7501|dock10
  -GOLD-   22720 9203D 1   1.00000     0.00000
 Structure written by MMmdl.
 37 39  0  0  0  0  0  0  0  0  1 V2000
  145.8541  129.4423  153.0975 O   0  0  0  0  0  0  0  0  0  0  0  0
  146.8191  129.8215  152.4335 C   0  0  0  0  0  0  0  0  0  0  0  0
  147.9209  129.0942  152.1777 N   0  0  0  0  0  0  0  0  0  0  0  0
  148.2137  127.7668  152.5887 C   0  0  0  0  0  0  0  0  0  0  0  0
  147.9499  127.2913  153.8135 N   0  0  0  0  0  0  0  0  0  0  0  0
  148.3386  125.9659  153.9495 N   0  0  0  0  0  0  0  0  0  0  0  0
  148.8810  125.4777  152.8277 C   0  0  0  0  0  0  0  0  0  0  0  0
  149.3782  124.0738  152.7301 C   0  0  0  0  0  0  0  0  0  0  0  0
  148.8971  123.1358  151.6445 C   0  0  0  0  0  0  0  0  0  0  0  0
  148.4786  122.9093  153.0750 C   0  0  0  0  0  0  0  0  0  0  0  0
  148.9616  126.6202  151.4903 S   0  0  0  0  0  0  0  0  0  0  0  0
  146.8971  131.0352  151.8686 N   0  0  0  0  0  0  0  0  0  0  0  0
  145.8651  132.0680  151.9407 C   0  0  1  0  0  0  0  0  0  0  0  0
  146.3276  133.3891  151.2909 C   0  0  0  0  0  0  0  0  0  0  0  0
  145.2331  134.4644  151.3937 C   0  0  0  0  0  0  0  0  0  0  0  0
  143.9076  133.9799  150.7835 C   0  0  0  0  0  0  0  0  0  0  0  0
  143.4487  132.6491  151.4089 C   0  0  0  0  0  0  0  0  0  0  0  0
  144.5391  131.5627  151.3285 C   0  0  1  0  0  0  0  0  0  0  0  0
  144.7131  131.1872  149.9740 O   0  0  0  0  0  0  0  0  0  0  0  0
  148.6346  129.5422  151.6222 H   0  0  0  0  0  0  0  0  0  0  0  0
  150.4234  124.0151  153.0275 H   0  0  0  0  0  0  0  0  0  0  0  0
  148.1342  123.4921  150.9554 H   0  0  0  0  0  0  0  0  0  0  0  0
  149.6240  122.4475  151.2187 H   0  0  0  0  0  0  0  0  0  0  0  0
  148.9255  122.0700  153.6035 H   0  0  0  0  0  0  0  0  0  0  0  0
  147.4452  123.1291  153.3363 H   0  0  0  0  0  0  0  0  0  0  0  0
  147.7290  131.2621  151.3445 H   0  0  0  0  0  0  0  0  0  0  0  0
  145.6685  132.2691  152.9960 H   0  0  0  0  0  0  0  0  0  0  0  0
  147.2349  133.7505  151.7760 H   0  0  0  0  0  0  0  0  0  0  0  0
  146.5839  133.2240  150.2436 H   0  0  0  0  0  0  0  0  0  0  0  0
  145.0774  134.7248  152.4413 H   0  0  0  0  0  0  0  0  0  0  0  0
  145.5599  135.3772  150.8947 H   0  0  0  0  0  0  0  0  0  0  0  0
  143.1368  134.7386  150.9230 H   0  0  0  0  0  0  0  0  0  0  0  0
  144.0257  133.8588  149.7061 H   0  0  0  0  0  0  0  0  0  0  0  0
  143.1926  132.8195  152.4554 H   0  0  0  0  0  0  0  0  0  0  0  0
  142.5341  132.3040  150.9255 H   0  0  0  0  0  0  0  0  0  0  0  0
  144.2011  130.6792  151.8717 H   0  0  0  0  0  0  0  0  0  0  0  0
  145.5422  130.7431  149.8894 H   0  0  0  0  0  0  0  0  0  0  0  0
  1  2  2  0  0  0  0
  2  3  1  0  0  0  0
  2 12  1  0  0  0  0
  3  4  1  0  0  0  0
  3 20  1  0  0  0  0
  4 11  1  0  0  0  0
  4  5  2  0  0  0  0
  5  6  1  0  0  0  0
  6  7  2  0  0  0  0
  7  8  1  0  0  0  0
  7 11  1  0  0  0  0
  8 10  1  0  0  0  0
  8  9  1  0  0  0  0
  8 21  1  0  0  0  0
  9 10  1  0  0  0  0
  9 22  1  0  0  0  0
  9 23  1  0  0  0  0
 10 24  1  0  0  0  0
 10 25  1  0  0  0  0
 12 13  1  0  0  0  0
 12 26  1  0  0  0  0
 13 18  1  0  0  0  0
 13 14  1  0  0  0  0
 13 27  1  0  0  0  0
 14 15  1  0  0  0  0
 14 28  1  0  0  0  0
 14 29  1  0  0  0  0
 15 16  1  0  0  0  0
 15 30  1  0  0  0  0
 15 31  1  0  0  0  0
 16 17  1  0  0  0  0
 16 32  1  0  0  0  0
 16 33  1  0  0  0  0
 17 18  1  0  0  0  0
 17 34  1  0  0  0  0
 17 35  1  0  0  0  0
 18 19  1  0  0  0  0
 18 36  1  0  0  0  0
 19 37  1  0  0  0  0
M  END
> <s_m_source_file>
AV-unprocessed.smi

> <i_m_source_file_index>
1843

> <i_lp_mmshare_version>
43012

> <i_f3d_flags>
0

> <s_epik_input>
W09IXVtDQEBIXTFbQ0gyXVtDSDJdW0NIMl1bQ0gyXVtDQEhdMVtOSF1DKD1PKVtOSF1jMm5uYyhzMilbQ0hdM1tDSDJdW0NIMl0z

> <s_epik_cmdline>
J2VwaWtfcHl0aG9uJywgJy1waCcsICc3LjAnLCAnLXRuJywgJzgnLCAnLW1hJywgJzIwMCcsICctbWV0YWxfYmluZGluZycsICctaW1hZScsICc8aW5maWxlLm1hZT4nLCAnLW9tYWUnLCAnPG91dGZpbGUubWFlPic=

> <r_lp_tautomer_probability>
1

> <r_epik_Ionization_Penalty>
0.000257313

> <r_epik_Ionization_Penalty_Charging>
0

> <r_epik_Ionization_Penalty_Neutral>
0.000257313

> <r_epik_State_Penalty>
-0

> <r_epik_Charging_Adjusted_Penalty>
0

> <i_epik_Tot_Q>
0

> <i_epik_Tot_abs_Q>
0

> <r_epik_Metal_State_Penalty>
0.147479

> <b_epik_Metal_Only>
0

> <s_lp_Force_Field>
OPLS_2005

> <r_lp_Energy>
11.0621

> <b_lp_Chiralities_Consistent>
1

> <s_lp_Variant>
AV-unprocessed.smi:1843-2

> <Gold.Version>
5.8.1

> <Gold.Id.Protein>
6NUR|6NUR_protein|mol2

> <Gold.PLP.Fitness>
40.9324

> <Gold.PLP.PLP>
-36.1766

> <Gold.PLP.part.hbond>
-4.5112

> <Gold.PLP.part.metal>
0.0000

> <Gold.PLP.part.buried>
-4.8232

> <Gold.PLP.part.nonpolar>
-27.8794

> <Gold.PLP.part.repulsive>
0.2848

> <Gold.PLP.ligand.clash>
0.0000

> <Gold.PLP.ligand.torsion>
0.4106

> <Gold.PLP.Chemscore.Hbond>
1.8117

> <Gold.PLP.Chemscore.CHOScore>
0.0000

> <Gold.PLP.Chemscore.Metal>
0.0000

> <Gold.Chemscore.Hbonds>
donor molecule, donor type, donor heavy atom, donor atom, acceptor molecule, acceptor atom, score
      L1  H     3    20       P1 10747  0.70
      L1  H    12    26       P1 10747  1.00
      P1  H 10785 10796       L1    19  0.17

> <Gold.PLP.Chemscore.Internal.Correction>
0.1419

> <Gold.Rescore>
     Score         DG    S(hbond)    S(metal)    S(lipo)     H(rot)  DE(clash)    DE(int)     intcor
     10.33     -12.80       1.27        0.00      64.29       1.74       0.52       1.95       ----

> <Gold.Chemscore.Fitness>
10.3329

> <Gold.Chemscore.DG>
-12.7982

> <Gold.Chemscore.ZeroCoef>
-5.4800

> <Gold.Chemscore.Hbond>
1.2731

> <Gold.Chemscore.Metal>
0.0000

> <Gold.Chemscore.Lipo>
64.2873

> <Gold.Chemscore.Internal_Hbond>
0.0000

> <Gold.Chemscore.DEClash>
0.5155

> <Gold.Chemscore.DEInternal>
1.9499

> <Gold.Chemscore.Rot>
1.7404

> <Gold.Chemscore.Internal.Correction>
   9.000000E+99

> <Gold.Chemscore.Hbonds>
donor molecule, donor type, donor heavy atom, donor atom, acceptor molecule, acceptor atom, score
      L1  H     3    20       P1 10747  0.09
      L1  H    12    26       P1 10747  0.96
      P1  H 10785 10796       L1    19  0.12

> <Gold.Chemscore.Hbond.Weighted>
-4.2520

> <Gold.Chemscore.Metal.Weighted>
-0.0000

> <Gold.Chemscore.Lipo.Weighted>
-7.5216

> <Gold.Chemscore.Internal_Hbond.Weighted>
0.0000

> <Gold.Chemscore.DEClash.Weighted>
0.5155

> <Gold.Chemscore.DEInternal.Weighted>
1.9499

> <Gold.Chemscore.Rot.Weighted>
4.4555

> <Gold.Chemscore.Internal.Correction.Weighted>
   9.000000E+99

> <Gold.Protein.RotatedTorsions>
[ 6907 6896 6895 6894 ] final  -19.27 input  -60.11 | X-H torsion
[ 7974 7965 7964 7962 ] final -179.87 input  175.53 | X-H torsion
[ 8008 7997 7996 7995 ] final  144.36 input   59.86 | X-H torsion
[ 10167 10162 10161 10158 ] final -107.51 input  -65.29 | X-H torsion
[ 10718 10713 10712 10709 ] final   30.87 input   66.30 | X-H torsion
[ 10763 10752 10751 10750 ] final  -79.78 input  -60.55 | X-H torsion
[ 11005 11000 10999 10996 ] final  -92.86 input  -57.11 | X-H torsion

> <Gold.Protein.ActiveResidues>
 VAL166  LYS551  ARG553  GLY616  TRP617  ASP618  TYR619  PRO620  LYS621  CYS622 
 ASP623  PHE694  ASN695  SER759  ASP760  ASP761  ALA762  ILE779  LEU786  VAL792 
 PHE793  MET794  SER795  GLU796  ALA797  LYS798  CYS799  TRP800  GLU811  SER814 

> <Gold.Protein.RotatedAtoms>
  151.2656  135.0668  159.9114 H   0  0  0  0  0  0  0  0  0  0  0  0  # atno 6907 bound_to 6896
  152.5359  134.0184  159.7981 H   0  0  0  0  0  0  0  0  0  0  0  0  # atno 6908 bound_to 6896
  151.0414  133.5653  159.2682 H   0  0  0  0  0  0  0  0  0  0  0  0  # atno 6909 bound_to 6896
  144.7140  140.0653  143.6431 H   0  0  0  0  0  0  0  0  0  0  0  0  # atno 7974 bound_to 7965
  156.2910  140.2238  156.5040 H   0  0  0  0  0  0  0  0  0  0  0  0  # atno 8008 bound_to 7997
  154.7665  140.0469  157.1038 H   0  0  0  0  0  0  0  0  0  0  0  0  # atno 8009 bound_to 7997
  154.9926  140.3092  155.4903 H   0  0  0  0  0  0  0  0  0  0  0  0  # atno 8010 bound_to 7997
  140.1762  143.4003  152.1317 H   0  0  0  0  0  0  0  0  0  0  0  0  # atno 10167 bound_to 10162
  157.2652  130.7181  149.6475 H   0  0  0  0  0  0  0  0  0  0  0  0  # atno 10718 bound_to 10713
  154.5430  135.5684  153.6855 H   0  0  0  0  0  0  0  0  0  0  0  0  # atno 10763 bound_to 10752
  152.9968  135.6232  154.2477 H   0  0  0  0  0  0  0  0  0  0  0  0  # atno 10764 bound_to 10752
  154.2409  135.2862  155.2834 H   0  0  0  0  0  0  0  0  0  0  0  0  # atno 10765 bound_to 10752
  141.1511  133.7849  157.0079 H   0  0  0  0  0  0  0  0  0  0  0  0  # atno 11005 bound_to 11000
  145.9830  139.2955  143.1031 LP  0  0  0  0  0  0  0  0  0  0  0  0  # atno 17320 bound_to 7965
  145.8989  140.9255  143.0513 LP  0  0  0  0  0  0  0  0  0  0  0  0  # atno 17321 bound_to 7965
  139.5316  144.7165  151.5036 LP  0  0  0  0  0  0  0  0  0  0  0  0  # atno 17342 bound_to 10162
  140.6550  143.8618  150.6825 LP  0  0  0  0  0  0  0  0  0  0  0  0  # atno 17343 bound_to 10162
  155.9663  130.4385  150.5219 LP  0  0  0  0  0  0  0  0  0  0  0  0  # atno 17370 bound_to 10713
  157.3132  131.0668  151.1986 LP  0  0  0  0  0  0  0  0  0  0  0  0  # atno 17371 bound_to 10713
  140.0897  134.9600  157.1756 LP  0  0  0  0  0  0  0  0  0  0  0  0  # atno 17394 bound_to 11000
  140.3463  134.2648  155.7204 LP  0  0  0  0  0  0  0  0  0  0  0  0  # atno 17395 bound_to 11000

$$$$
