AV-unprocessed.smi:817|AV-procd|sdf|3828|dock5
  -GOLD-   22720 1273D 1   1.00000     0.00000
 Structure written by MMmdl.
 48 49  0  0  0  0  0  0  0  0  2 V2000
  151.0030  138.8899  154.4335 C   0  0  0  0  0  0  0  0  0  0  0  0
  150.8212  137.7315  155.4243 C   0  0  2  0  0  0  0  0  0  0  0  0
  152.0916  137.5134  156.2663 C   0  0  0  0  0  0  0  0  0  0  0  0
  151.9466  136.3142  157.2145 C   0  0  0  0  0  0  0  0  0  0  0  0
  151.5331  135.0465  156.4450 C   0  0  0  0  0  0  0  0  0  0  0  0
  150.1961  135.2257  155.6641 C   0  0  1  0  0  0  0  0  0  0  0  0
  149.8874  133.9362  154.8433 C   0  0  0  0  0  0  0  0  0  0  0  0
  148.9399  134.1594  153.7493 N   0  0  0  0  0  0  0  0  0  0  0  0
  147.9682  133.3332  153.3250 C   0  0  0  0  0  0  0  0  0  0  0  0
  147.7957  132.2359  153.8498 O   0  0  0  0  0  0  0  0  0  0  0  0
  147.2511  133.8147  152.2904 N   0  0  0  0  0  0  0  0  0  0  0  0
  146.1582  133.2146  151.6089 C   0  0  0  0  0  0  0  0  0  0  0  0
  145.7581  131.9241  152.0132 C   0  0  0  0  0  0  0  0  0  0  0  0
  144.6887  131.2961  151.3473 C   0  0  0  0  0  0  0  0  0  0  0  0
  144.0619  131.9842  150.2907 C   0  0  0  0  0  0  0  0  0  0  0  0
  144.4412  133.2124  149.8800 N   0  0  0  0  0  0  0  0  0  0  0  0
  145.4671  133.8096  150.5239 C   0  0  0  0  0  0  0  0  0  0  0  0
  149.0645  135.5247  156.6203 N   0  3  0  0  0  0  0  0  0  0  0  0
  148.8867  134.5625  157.7401 C   0  0  0  0  0  0  0  0  0  0  0  0
  147.7511  135.8374  155.9964 C   0  0  0  0  0  0  0  0  0  0  0  0
  150.4283  136.4268  154.6957 C   0  0  0  0  0  0  0  0  0  0  0  0
  151.7984  138.6794  153.7176 H   0  0  0  0  0  0  0  0  0  0  0  0
  151.2591  139.8142  154.9523 H   0  0  0  0  0  0  0  0  0  0  0  0
  150.0880  139.0721  153.8693 H   0  0  0  0  0  0  0  0  0  0  0  0
  150.0127  138.0129  156.0998 H   0  0  0  0  0  0  0  0  0  0  0  0
  152.9443  137.3473  155.6062 H   0  0  0  0  0  0  0  0  0  0  0  0
  152.3197  138.4113  156.8419 H   0  0  0  0  0  0  0  0  0  0  0  0
  152.8920  136.1398  157.7288 H   0  0  0  0  0  0  0  0  0  0  0  0
  151.2158  136.5416  157.9912 H   0  0  0  0  0  0  0  0  0  0  0  0
  152.3390  134.8120  155.7486 H   0  0  0  0  0  0  0  0  0  0  0  0
  151.4993  134.1896  157.1163 H   0  0  0  0  0  0  0  0  0  0  0  0
  150.8023  133.5329  154.4088 H   0  0  0  0  0  0  0  0  0  0  0  0
  149.4723  133.1634  155.4901 H   0  0  0  0  0  0  0  0  0  0  0  0
  149.0318  135.0356  153.2553 H   0  0  0  0  0  0  0  0  0  0  0  0
  147.5603  134.6984  151.9137 H   0  0  0  0  0  0  0  0  0  0  0  0
  146.2603  131.4201  152.8260 H   0  0  0  0  0  0  0  0  0  0  0  0
  144.3562  130.3110  151.6390 H   0  0  0  0  0  0  0  0  0  0  0  0
  143.2376  131.5340  149.7577 H   0  0  0  0  0  0  0  0  0  0  0  0
  145.7382  134.7775  150.1327 H   0  0  0  0  0  0  0  0  0  0  0  0
  148.5842  133.5774  157.3865 H   0  0  0  0  0  0  0  0  0  0  0  0
  148.1069  134.9141  158.4164 H   0  0  0  0  0  0  0  0  0  0  0  0
  149.7821  134.4564  158.3494 H   0  0  0  0  0  0  0  0  0  0  0  0
  147.3512  134.9899  155.4405 H   0  0  0  0  0  0  0  0  0  0  0  0
  147.7971  136.7004  155.3344 H   0  0  0  0  0  0  0  0  0  0  0  0
  147.0201  136.0925  156.7646 H   0  0  0  0  0  0  0  0  0  0  0  0
  149.5628  136.5918  154.0549 H   0  0  0  0  0  0  0  0  0  0  0  0
  151.2343  136.1868  154.0009 H   0  0  0  0  0  0  0  0  0  0  0  0
  149.3411  136.3865  157.0693 H   0  0  0  0  0  0  0  0  0  0  0  0
  1  2  1  0  0  0  0
  1 22  1  0  0  0  0
  1 23  1  0  0  0  0
  1 24  1  0  0  0  0
  2 21  1  0  0  0  0
  2  3  1  0  0  0  0
  2 25  1  0  0  0  0
  3  4  1  0  0  0  0
  3 26  1  0  0  0  0
  3 27  1  0  0  0  0
  4  5  1  0  0  0  0
  4 28  1  0  0  0  0
  4 29  1  0  0  0  0
  5  6  1  0  0  0  0
  5 30  1  0  0  0  0
  5 31  1  0  0  0  0
  6  7  1  0  0  0  0
  6 18  1  0  0  0  0
  6 21  1  0  0  0  0
  7  8  1  0  0  0  0
  7 32  1  0  0  0  0
  7 33  1  0  0  0  0
  8  9  1  0  0  0  0
  8 34  1  0  0  0  0
  9 10  2  0  0  0  0
  9 11  1  0  0  0  0
 11 12  1  0  0  0  0
 11 35  1  0  0  0  0
 12 17  1  0  0  0  0
 12 13  2  0  0  0  0
 13 14  1  0  0  0  0
 13 36  1  0  0  0  0
 14 15  2  0  0  0  0
 14 37  1  0  0  0  0
 15 16  1  0  0  0  0
 15 38  1  0  0  0  0
 16 17  2  0  0  0  0
 17 39  1  0  0  0  0
 18 19  1  0  0  0  0
 18 20  1  0  0  0  0
 18 48  1  0  0  0  0
 19 40  1  0  0  0  0
 19 41  1  0  0  0  0
 19 42  1  0  0  0  0
 20 43  1  0  0  0  0
 20 44  1  0  0  0  0
 20 45  1  0  0  0  0
 21 46  1  0  0  0  0
 21 47  1  0  0  0  0
M  CHG  1  18   1
M  END
> <s_m_source_file>
AV-unprocessed.smi

> <i_m_source_file_index>
817

> <i_lp_mmshare_version>
43012

> <i_f3d_flags>
0

> <s_epik_input>
W0NIM11bQ0BASF0oW0NIMl0xKVtDSDJdW0NIMl1bQ0gyXVtDQF0xKE4oW0NIM10pW0NIM10pW0NIMl1bTkhdQyg9TylbTkhdYzJbY0hdW2NIXVtjSF1uW2NIXTI=

> <s_epik_cmdline>
J2VwaWtfcHl0aG9uJywgJy1waCcsICc3LjAnLCAnLXRuJywgJzgnLCAnLW1hJywgJzIwMCcsICctbWV0YWxfYmluZGluZycsICctaW1hZScsICc8aW5maWxlLm1hZT4nLCAnLW9tYWUnLCAnPG91dGZpbGUubWFlPic=

> <r_lp_tautomer_probability>
1

> <r_epik_Ionization_Penalty>
0.00584939

> <r_epik_Ionization_Penalty_Charging>
0.00160539

> <r_epik_Ionization_Penalty_Neutral>
0.004244

> <r_epik_State_Penalty>
-0

> <r_epik_Charging_Adjusted_Penalty>
0.00160539

> <i_epik_Tot_Q>
1

> <i_epik_Tot_abs_Q>
1

> <r_epik_Metal_State_Penalty>
-0

> <b_epik_Metal_Only>
0

> <s_lp_Force_Field>
OPLS_2005

> <r_lp_Energy>
44.2375

> <b_lp_Chiralities_Consistent>
1

> <s_lp_Variant>
AV-unprocessed.smi:817-1

> <Gold.Version>
5.8.1

> <Gold.Id.Protein>
6NUR|6NUR_protein|mol2

> <Gold.PLP.Fitness>
38.5731

> <Gold.PLP.PLP>
-29.5194

> <Gold.PLP.part.hbond>
-2.0000

> <Gold.PLP.part.metal>
0.0000

> <Gold.PLP.part.buried>
-2.1697

> <Gold.PLP.part.nonpolar>
-24.8422

> <Gold.PLP.part.repulsive>
0.3056

> <Gold.PLP.ligand.clash>
0.0000

> <Gold.PLP.ligand.torsion>
0.4510

> <Gold.PLP.Chemscore.Hbond>
1.9920

> <Gold.PLP.Chemscore.CHOScore>
1.2868

> <Gold.PLP.Chemscore.Metal>
0.0000

> <Gold.Chemscore.Hbonds>
donor molecule, donor type, donor heavy atom, donor atom, acceptor molecule, acceptor atom, score
      L1  H     8    34       P1  7948  0.95
      L1  H    11    35       P1  7948  0.99
      L1  C    15    38       P1 10952  0.58
      L1  C    17    39       P1  7921  0.69

> <Gold.PLP.Chemscore.Internal.Correction>
0.1194

> <Gold.Rescore>
     Score         DG    S(hbond)    S(metal)    S(lipo)     H(rot)  DE(clash)    DE(int)     intcor
     12.62     -15.69       1.42        0.00      78.16       1.44       0.00       3.07       ----

> <Gold.Chemscore.Fitness>
12.6236

> <Gold.Chemscore.DG>
-15.6895

> <Gold.Chemscore.ZeroCoef>
-5.4800

> <Gold.Chemscore.Hbond>
1.4230

> <Gold.Chemscore.Metal>
0.0000

> <Gold.Chemscore.Lipo>
78.1578

> <Gold.Chemscore.Internal_Hbond>
0.0000

> <Gold.Chemscore.DEClash>
0.0009

> <Gold.Chemscore.DEInternal>
3.0650

> <Gold.Chemscore.Rot>
1.4405

> <Gold.Chemscore.Internal.Correction>
   9.000000E+99

> <Gold.Chemscore.Hbonds>
donor molecule, donor type, donor heavy atom, donor atom, acceptor molecule, acceptor atom, score
      L1  H     8    34       P1  7948  0.21
      L1  H    11    35       P1  7948  0.54

> <Gold.Chemscore.Hbond.Weighted>
-4.7528

> <Gold.Chemscore.Metal.Weighted>
-0.0000

> <Gold.Chemscore.Lipo.Weighted>
-9.1445

> <Gold.Chemscore.Internal_Hbond.Weighted>
0.0000

> <Gold.Chemscore.DEClash.Weighted>
0.0009

> <Gold.Chemscore.DEInternal.Weighted>
3.0650

> <Gold.Chemscore.Rot.Weighted>
3.6878

> <Gold.Chemscore.Internal.Correction.Weighted>
   9.000000E+99

> <Gold.Protein.RotatedTorsions>
[ 6907 6896 6895 6894 ] final -160.49 input  -60.11 | X-H torsion
[ 7974 7965 7964 7962 ] final   90.79 input  175.53 | X-H torsion
[ 8008 7997 7996 7995 ] final  130.33 input   59.86 | X-H torsion
[ 10167 10162 10161 10158 ] final  -80.97 input  -65.29 | X-H torsion
[ 10718 10713 10712 10709 ] final -152.90 input   66.30 | X-H torsion
[ 10763 10752 10751 10750 ] final  -82.72 input  -60.55 | X-H torsion
[ 11005 11000 10999 10996 ] final  -54.27 input  -57.11 | X-H torsion

> <Gold.Protein.ActiveResidues>
 VAL166  LYS551  ARG553  GLY616  TRP617  ASP618  TYR619  PRO620  LYS621  CYS622 
 ASP623  PHE694  ASN695  SER759  ASP760  ASP761  ALA762  ILE779  LEU786  VAL792 
 PHE793  MET794  SER795  GLU796  ALA797  LYS798  CYS799  TRP800  GLU811  SER814 

> <Gold.Protein.RotatedAtoms>
  151.3499  133.3929  159.2678 H   0  0  0  0  0  0  0  0  0  0  0  0  # atno 6907 bound_to 6896
  150.9809  134.9165  159.7854 H   0  0  0  0  0  0  0  0  0  0  0  0  # atno 6908 bound_to 6896
  152.5217  134.3463  159.9287 H   0  0  0  0  0  0  0  0  0  0  0  0  # atno 6909 bound_to 6896
  145.5143  139.2277  143.2707 H   0  0  0  0  0  0  0  0  0  0  0  0  # atno 7974 bound_to 7965
  156.2952  140.2599  156.2744 H   0  0  0  0  0  0  0  0  0  0  0  0  # atno 8008 bound_to 7997
  154.9664  140.0391  157.2232 H   0  0  0  0  0  0  0  0  0  0  0  0  # atno 8009 bound_to 7997
  154.7899  140.2810  155.6004 H   0  0  0  0  0  0  0  0  0  0  0  0  # atno 8010 bound_to 7997
  140.4454  143.2500  151.8565 H   0  0  0  0  0  0  0  0  0  0  0  0  # atno 10167 bound_to 10162
  156.4786  130.8292  151.2520 H   0  0  0  0  0  0  0  0  0  0  0  0  # atno 10718 bound_to 10713
  154.5792  135.5581  153.7168 H   0  0  0  0  0  0  0  0  0  0  0  0  # atno 10763 bound_to 10752
  153.0075  135.6316  154.2007 H   0  0  0  0  0  0  0  0  0  0  0  0  # atno 10764 bound_to 10752
  154.1947  135.2880  155.2990 H   0  0  0  0  0  0  0  0  0  0  0  0  # atno 10765 bound_to 10752
  141.1017  133.6617  156.4296 H   0  0  0  0  0  0  0  0  0  0  0  0  # atno 11005 bound_to 11000
  146.2146  140.5952  142.9044 LP  0  0  0  0  0  0  0  0  0  0  0  0  # atno 17320 bound_to 7965
  144.7710  140.5637  143.6670 LP  0  0  0  0  0  0  0  0  0  0  0  0  # atno 17321 bound_to 7965
  139.4792  144.5181  151.8840 LP  0  0  0  0  0  0  0  0  0  0  0  0  # atno 17342 bound_to 10162
  140.4269  144.2168  150.5887 LP  0  0  0  0  0  0  0  0  0  0  0  0  # atno 17343 bound_to 10162
  157.7485  131.0052  150.3106 LP  0  0  0  0  0  0  0  0  0  0  0  0  # atno 17370 bound_to 10713
  156.3545  130.3836  149.7302 LP  0  0  0  0  0  0  0  0  0  0  0  0  # atno 17371 bound_to 10713
  140.5004  134.6491  157.5246 LP  0  0  0  0  0  0  0  0  0  0  0  0  # atno 17394 bound_to 11000
  139.9872  134.7043  155.9753 LP  0  0  0  0  0  0  0  0  0  0  0  0  # atno 17395 bound_to 11000

$$$$
