AV-unprocessed.smi:1403|AV-procd|sdf|5698|dock10
  -GOLD-   22720 5333D 1   1.00000     0.00000
 Structure written by MMmdl.
 36 37  0  0  0  0  0  0  0  0  1 V2000
  151.7336  145.2098  159.0679 C   0  0  0  0  0  0  0  0  0  0  0  0
  151.5881  143.6833  159.1504 C   0  0  1  0  0  0  0  0  0  0  0  0
  151.4428  143.1528  157.7959 N   0  0  0  0  0  0  0  0  0  0  0  0
  150.8898  141.9756  157.4638 C   0  0  0  0  0  0  0  0  0  0  0  0
  150.4495  141.1766  158.2913 O   0  0  0  0  0  0  0  0  0  0  0  0
  150.8602  141.6470  155.9644 C   0  0  0  0  0  0  0  0  0  0  0  0
  151.0140  140.2118  155.6864 N   0  0  0  0  0  0  0  0  0  0  0  0
  150.2304  139.5968  154.7201 C   0  0  0  0  0  0  0  0  0  0  0  0
  150.3275  138.2831  154.4066 C   0  0  0  0  0  0  0  0  0  0  0  0
  151.2916  137.4292  155.0924 C   0  0  0  0  0  0  0  0  0  0  0  0
  151.4533  136.2296  154.8805 O   0  0  0  0  0  0  0  0  0  0  0  0
  152.0628  138.0850  156.0558 N   0  0  0  0  0  0  0  0  0  0  0  0
  151.9689  139.4387  156.3828 C   0  0  0  0  0  0  0  0  0  0  0  0
  152.7015  139.9182  157.2474 O   0  0  0  0  0  0  0  0  0  0  0  0
  152.7916  143.0293  159.8609 C   0  0  2  0  0  0  0  0  0  0  0  0
  152.8169  141.5003  159.8190 C   0  0  0  0  0  0  0  0  0  0  0  0
  153.7086  141.1792  160.9960 C   0  0  0  0  0  0  0  0  0  0  0  0
  153.2917  142.2416  162.0095 C   0  0  0  0  0  0  0  0  0  0  0  0
  152.7824  143.3376  161.2523 O   0  0  0  0  0  0  0  0  0  0  0  0
  152.7463  137.5343  156.5549 H   0  0  0  0  0  0  0  0  0  0  0  0
  151.7997  145.6539  160.0615 H   0  0  0  0  0  0  0  0  0  0  0  0
  150.8760  145.6598  158.5662 H   0  0  0  0  0  0  0  0  0  0  0  0
  152.6300  145.4950  158.5163 H   0  0  0  0  0  0  0  0  0  0  0  0
  150.6880  143.4712  159.7301 H   0  0  0  0  0  0  0  0  0  0  0  0
  151.7852  143.7362  157.0464 H   0  0  0  0  0  0  0  0  0  0  0  0
  149.9329  142.0171  155.5220 H   0  0  0  0  0  0  0  0  0  0  0  0
  151.6561  142.2138  155.4791 H   0  0  0  0  0  0  0  0  0  0  0  0
  149.5054  140.1917  154.1828 H   0  0  0  0  0  0  0  0  0  0  0  0
  149.6895  137.8616  153.6433 H   0  0  0  0  0  0  0  0  0  0  0  0
  153.7256  143.4095  159.4431 H   0  0  0  0  0  0  0  0  0  0  0  0
  151.8184  141.0933  159.9859 H   0  0  0  0  0  0  0  0  0  0  0  0
  153.1963  141.1044  158.8766 H   0  0  0  0  0  0  0  0  0  0  0  0
  153.5821  140.1620  161.3673 H   0  0  0  0  0  0  0  0  0  0  0  0
  154.7548  141.3144  160.7179 H   0  0  0  0  0  0  0  0  0  0  0  0
  152.4952  141.8669  162.6532 H   0  0  0  0  0  0  0  0  0  0  0  0
  154.1224  142.5511  162.6443 H   0  0  0  0  0  0  0  0  0  0  0  0
  1  2  1  0  0  0  0
  1 21  1  0  0  0  0
  1 22  1  0  0  0  0
  1 23  1  0  0  0  0
  2  3  1  0  0  0  0
  2 15  1  0  0  0  0
  2 24  1  0  0  0  0
  3  4  1  0  0  0  0
  3 25  1  0  0  0  0
  4  5  2  0  0  0  0
  4  6  1  0  0  0  0
  6  7  1  0  0  0  0
  6 26  1  0  0  0  0
  6 27  1  0  0  0  0
  7 13  1  0  0  0  0
  7  8  1  0  0  0  0
  8  9  2  0  0  0  0
  8 28  1  0  0  0  0
  9 10  1  0  0  0  0
  9 29  1  0  0  0  0
 10 11  2  0  0  0  0
 10 12  1  0  0  0  0
 12 20  1  0  0  0  0
 12 13  1  0  0  0  0
 13 14  2  0  0  0  0
 15 19  1  0  0  0  0
 15 16  1  0  0  0  0
 15 30  1  0  0  0  0
 16 17  1  0  0  0  0
 16 31  1  0  0  0  0
 16 32  1  0  0  0  0
 17 18  1  0  0  0  0
 17 33  1  0  0  0  0
 17 34  1  0  0  0  0
 18 19  1  0  0  0  0
 18 35  1  0  0  0  0
 18 36  1  0  0  0  0
M  END
> <s_m_source_file>
AV-unprocessed.smi

> <i_m_source_file_index>
1403

> <i_lp_mmshare_version>
43012

> <i_f3d_flags>
0

> <s_epik_input>
TzFbQ0gyXVtDSDJdW0NIMl1bQ0BIXTFbQ0BIXShbQ0gzXSlbTkhdQyg9TylbQ0gyXW4yW2NIXVtjSF1jKD1PKVtuSF1jMj1P

> <s_epik_cmdline>
J2VwaWtfcHl0aG9uJywgJy1waCcsICc3LjAnLCAnLXRuJywgJzgnLCAnLW1hJywgJzIwMCcsICctbWV0YWxfYmluZGluZycsICctaW1hZScsICc8aW5maWxlLm1hZT4nLCAnLW9tYWUnLCAnPG91dGZpbGUubWFlPic=

> <r_lp_tautomer_probability>
0.999537

> <r_epik_Ionization_Penalty>
0.00331407

> <r_epik_Ionization_Penalty_Charging>
0.00331405

> <r_epik_Ionization_Penalty_Neutral>
2.30132e-08

> <r_epik_State_Penalty>
0.00234266

> <r_epik_Charging_Adjusted_Penalty>
0.00565671

> <i_epik_Tot_Q>
0

> <i_epik_Tot_abs_Q>
0

> <r_epik_Metal_State_Penalty>
0.365604

> <b_epik_Metal_Only>
0

> <s_lp_Force_Field>
OPLS_2005

> <r_lp_Energy>
17.659

> <b_lp_Chiralities_Consistent>
1

> <s_lp_Variant>
AV-unprocessed.smi:1403-2

> <Gold.Version>
5.8.1

> <Gold.Id.Protein>
6NUR|6NUR_protein|mol2

> <Gold.PLP.Fitness>
47.5050

> <Gold.PLP.PLP>
-43.4669

> <Gold.PLP.part.hbond>
-2.0000

> <Gold.PLP.part.metal>
0.0000

> <Gold.PLP.part.buried>
-4.1218

> <Gold.PLP.part.nonpolar>
-36.8729

> <Gold.PLP.part.repulsive>
0.3943

> <Gold.PLP.ligand.clash>
0.0044

> <Gold.PLP.ligand.torsion>
0.9852

> <Gold.PLP.Chemscore.Hbond>
2.0000

> <Gold.PLP.Chemscore.CHOScore>
0.0000

> <Gold.PLP.Chemscore.Metal>
0.0000

> <Gold.Chemscore.Hbonds>
donor molecule, donor type, donor heavy atom, donor atom, acceptor molecule, acceptor atom, score
      P1  H  7997  8010       L1    14  1.00
      P1  H 10752 10763       L1    11  1.00

> <Gold.PLP.Chemscore.Internal.Correction>
0.0129

> <Gold.Rescore>
     Score         DG    S(hbond)    S(metal)    S(lipo)     H(rot)  DE(clash)    DE(int)     intcor
     12.78     -16.86       1.86        0.00      88.72       2.04       0.04       4.04       ----

> <Gold.Chemscore.Fitness>
12.7828

> <Gold.Chemscore.DG>
-16.8596

> <Gold.Chemscore.ZeroCoef>
-5.4800

> <Gold.Chemscore.Hbond>
1.8623

> <Gold.Chemscore.Metal>
0.0000

> <Gold.Chemscore.Lipo>
88.7242

> <Gold.Chemscore.Internal_Hbond>
0.0000

> <Gold.Chemscore.DEClash>
0.0369

> <Gold.Chemscore.DEInternal>
4.0400

> <Gold.Chemscore.Rot>
2.0395

> <Gold.Chemscore.Internal.Correction>
   9.000000E+99

> <Gold.Chemscore.Hbonds>
donor molecule, donor type, donor heavy atom, donor atom, acceptor molecule, acceptor atom, score
      P1  H  7997  8010       L1    14  0.82
      P1  H 10752 10763       L1    11  0.98

> <Gold.Chemscore.Hbond.Weighted>
-6.2200

> <Gold.Chemscore.Metal.Weighted>
-0.0000

> <Gold.Chemscore.Lipo.Weighted>
-10.3807

> <Gold.Chemscore.Internal_Hbond.Weighted>
0.0000

> <Gold.Chemscore.DEClash.Weighted>
0.0369

> <Gold.Chemscore.DEInternal.Weighted>
4.0400

> <Gold.Chemscore.Rot.Weighted>
5.2211

> <Gold.Chemscore.Internal.Correction.Weighted>
   9.000000E+99

> <Gold.Protein.RotatedTorsions>
[ 6907 6896 6895 6894 ] final   69.88 input  -60.11 | X-H torsion
[ 7974 7965 7964 7962 ] final  -71.45 input  175.53 | X-H torsion
[ 8008 7997 7996 7995 ] final   57.27 input   59.86 | X-H torsion
[ 10167 10162 10161 10158 ] final  111.31 input  -65.29 | X-H torsion
[ 10718 10713 10712 10709 ] final  -39.18 input   66.30 | X-H torsion
[ 10763 10752 10751 10750 ] final   57.76 input  -60.55 | X-H torsion
[ 11005 11000 10999 10996 ] final -124.15 input  -57.11 | X-H torsion

> <Gold.Protein.ActiveResidues>
 VAL166  LYS551  ARG553  GLY616  TRP617  ASP618  TYR619  PRO620  LYS621  CYS622 
 ASP623  PHE694  ASN695  SER759  ASP760  ASP761  ALA762  ILE779  LEU786  VAL792 
 PHE793  MET794  SER795  GLU796  ALA797  LYS798  CYS799  TRP800  GLU811  SER814 

> <Gold.Protein.RotatedAtoms>
  152.4714  134.4951  159.9707 H   0  0  0  0  0  0  0  0  0  0  0  0  # atno 6907 bound_to 6896
  151.4976  133.3505  159.2871 H   0  0  0  0  0  0  0  0  0  0  0  0  # atno 6908 bound_to 6896
  150.8726  134.8131  159.7228 H   0  0  0  0  0  0  0  0  0  0  0  0  # atno 6909 bound_to 6896
  145.6779  140.9198  143.0848 H   0  0  0  0  0  0  0  0  0  0  0  0  # atno 7974 bound_to 7965
  155.5310  140.3482  155.4426 H   0  0  0  0  0  0  0  0  0  0  0  0  # atno 8008 bound_to 7997
  156.0718  140.1365  156.9846 H   0  0  0  0  0  0  0  0  0  0  0  0  # atno 8009 bound_to 7997
  154.4532  140.0964  156.6656 H   0  0  0  0  0  0  0  0  0  0  0  0  # atno 8010 bound_to 7997
  139.6621  144.7128  151.1846 H   0  0  0  0  0  0  0  0  0  0  0  0  # atno 10167 bound_to 10162
  156.2954  130.4233  149.8196 H   0  0  0  0  0  0  0  0  0  0  0  0  # atno 10718 bound_to 10713
  152.9856  135.5630  154.5442 H   0  0  0  0  0  0  0  0  0  0  0  0  # atno 10763 bound_to 10752
  154.4891  135.2792  155.1512 H   0  0  0  0  0  0  0  0  0  0  0  0  # atno 10764 bound_to 10752
  154.2989  135.6311  153.5469 H   0  0  0  0  0  0  0  0  0  0  0  0  # atno 10765 bound_to 10752
  140.9864  134.0601  157.3706 H   0  0  0  0  0  0  0  0  0  0  0  0  # atno 11005 bound_to 11000
  144.7035  139.8658  143.7437 LP  0  0  0  0  0  0  0  0  0  0  0  0  # atno 17320 bound_to 7965
  146.0989  139.3983  143.0359 LP  0  0  0  0  0  0  0  0  0  0  0  0  # atno 17321 bound_to 7965
  140.7584  143.5978  150.8730 LP  0  0  0  0  0  0  0  0  0  0  0  0  # atno 17342 bound_to 10162
  139.9636  143.6135  152.2995 LP  0  0  0  0  0  0  0  0  0  0  0  0  # atno 17343 bound_to 10162
  156.5594  130.8377  151.3324 LP  0  0  0  0  0  0  0  0  0  0  0  0  # atno 17370 bound_to 10713
  157.7354  130.9761  150.2078 LP  0  0  0  0  0  0  0  0  0  0  0  0  # atno 17371 bound_to 10713
  139.8972  135.0149  156.7090 LP  0  0  0  0  0  0  0  0  0  0  0  0  # atno 17394 bound_to 11000
  140.7108  133.9225  155.8083 LP  0  0  0  0  0  0  0  0  0  0  0  0  # atno 17395 bound_to 11000

$$$$
