AV-unprocessed.smi:1797|AV-procd|sdf|7258|dock1
  -GOLD-   22720 8513D 1   1.00000     0.00000
 Structure written by MMmdl.
 29 30  0  0  0  0  0  0  0  0  2 V2000
  153.0950  142.6559  161.8553 C   0  0  0  0  0  0  0  0  0  0  0  0
  152.6703  142.1048  160.5375 C   0  0  0  0  0  0  0  0  0  0  0  0
  151.5556  142.4969  159.9156 N   0  0  0  0  0  0  0  0  0  0  0  0
  151.3736  141.8418  158.7063 N   0  0  0  0  0  0  0  0  0  0  0  0
  152.3569  140.9750  158.4247 C   0  0  0  0  0  0  0  0  0  0  0  0
  152.3742  140.2398  157.2974 N   0  5  0  0  0  0  0  0  0  0  0  0
  151.2494  139.7055  156.7530 C   0  0  0  0  0  0  0  0  0  0  0  0
  150.8709  138.5570  156.9800 O   0  0  0  0  0  0  0  0  0  0  0  0
  150.5201  140.4815  155.9274 N   0  0  0  0  0  0  0  0  0  0  0  0
  149.2931  140.0975  155.2362 C   0  0  1  0  0  0  0  0  0  0  0  0
  148.7051  141.2852  154.4595 C   0  0  0  0  0  0  0  0  0  0  0  0
  147.4126  140.8831  153.7312 C   0  0  0  0  0  0  0  0  0  0  0  0
  147.5182  139.5428  152.9880 C   0  0  0  0  0  0  0  0  0  0  0  0
  146.6891  139.2638  152.1246 O   0  0  0  0  0  0  0  0  0  0  0  0
  148.4971  138.6847  153.3251 N   0  0  0  0  0  0  0  0  0  0  0  0
  149.5875  138.9395  154.2661 C   0  0  0  0  0  0  0  0  0  0  0  0
  153.5982  140.8900  159.6742 S   0  0  0  0  0  0  0  0  0  0  0  0
  153.5763  143.6241  161.7161 H   0  0  0  0  0  0  0  0  0  0  0  0
  153.8007  141.9799  162.3384 H   0  0  0  0  0  0  0  0  0  0  0  0
  152.2313  142.7823  162.5086 H   0  0  0  0  0  0  0  0  0  0  0  0
  150.8511  141.4219  155.7687 H   0  0  0  0  0  0  0  0  0  0  0  0
  148.5600  139.7537  155.9686 H   0  0  0  0  0  0  0  0  0  0  0  0
  148.4954  142.1146  155.1358 H   0  0  0  0  0  0  0  0  0  0  0  0
  149.4342  141.6548  153.7366 H   0  0  0  0  0  0  0  0  0  0  0  0
  146.6026  140.7933  154.4556 H   0  0  0  0  0  0  0  0  0  0  0  0
  147.1202  141.6666  153.0316 H   0  0  0  0  0  0  0  0  0  0  0  0
  148.5202  137.7977  152.8430 H   0  0  0  0  0  0  0  0  0  0  0  0
  150.4784  139.1621  153.6771 H   0  0  0  0  0  0  0  0  0  0  0  0
  149.8001  138.0256  154.8216 H   0  0  0  0  0  0  0  0  0  0  0  0
  1  2  1  0  0  0  0
  1 18  1  0  0  0  0
  1 19  1  0  0  0  0
  1 20  1  0  0  0  0
  2 17  1  0  0  0  0
  2  3  2  0  0  0  0
  3  4  1  0  0  0  0
  4  5  2  0  0  0  0
  5  6  1  0  0  0  0
  5 17  1  0  0  0  0
  6  7  1  0  0  0  0
  7  8  2  0  0  0  0
  7  9  1  0  0  0  0
  9 10  1  0  0  0  0
  9 21  1  0  0  0  0
 10 16  1  0  0  0  0
 10 11  1  0  0  0  0
 10 22  1  0  0  0  0
 11 12  1  0  0  0  0
 11 23  1  0  0  0  0
 11 24  1  0  0  0  0
 12 13  1  0  0  0  0
 12 25  1  0  0  0  0
 12 26  1  0  0  0  0
 13 14  2  0  0  0  0
 13 15  1  0  0  0  0
 15 16  1  0  0  0  0
 15 27  1  0  0  0  0
 16 28  1  0  0  0  0
 16 29  1  0  0  0  0
M  CHG  1   6  -1
M  END
> <s_m_source_file>
AV-unprocessed.smi

> <i_m_source_file_index>
1797

> <i_lp_mmshare_version>
43012

> <i_f3d_flags>
0

> <s_epik_input>
W0NIM11jMW5uYyhzMSlbTkhdQyg9TylbTkhdW0NAQEhdMltDSDJdW0NIMl1DKD1PKVtOSF1bQ0gyXTI=

> <s_epik_cmdline>
J2VwaWtfcHl0aG9uJywgJy1waCcsICc3LjAnLCAnLXRuJywgJzgnLCAnLW1hJywgJzIwMCcsICctbWV0YWxfYmluZGluZycsICctaW1hZScsICc8aW5maWxlLm1hZT4nLCAnLW9tYWUnLCAnPG91dGZpbGUubWFlPic=

> <r_lp_tautomer_probability>
1

> <r_epik_Ionization_Penalty>
3.31792

> <r_epik_Ionization_Penalty_Charging>
3.17379

> <r_epik_Ionization_Penalty_Neutral>
0.144127

> <r_epik_State_Penalty>
3.17099

> <r_epik_Charging_Adjusted_Penalty>
6.34478

> <i_epik_Tot_Q>
-1

> <i_epik_Tot_abs_Q>
1

> <r_epik_Metal_State_Penalty>
0.468583

> <b_epik_Metal_Only>
1

> <s_lp_Force_Field>
OPLS_2005

> <r_lp_Energy>
8.48183

> <b_lp_Chiralities_Consistent>
1

> <s_lp_Variant>
AV-unprocessed.smi:1797-4

> <Gold.Version>
5.8.1

> <Gold.Id.Protein>
6NUR|6NUR_protein|mol2

> <Gold.PLP.Fitness>
37.1826

> <Gold.PLP.PLP>
-30.2678

> <Gold.PLP.part.hbond>
-3.4181

> <Gold.PLP.part.metal>
0.0000

> <Gold.PLP.part.buried>
-2.1913

> <Gold.PLP.part.nonpolar>
-24.8427

> <Gold.PLP.part.repulsive>
1.2895

> <Gold.PLP.ligand.clash>
0.0000

> <Gold.PLP.ligand.torsion>
1.0432

> <Gold.PLP.Chemscore.Hbond>
3.0000

> <Gold.PLP.Chemscore.CHOScore>
0.0000

> <Gold.PLP.Chemscore.Metal>
0.0000

> <Gold.Chemscore.Hbonds>
donor molecule, donor type, donor heavy atom, donor atom, acceptor molecule, acceptor atom, score
      L1  H    15    27       P1  7948  1.00
      P1  H  7997  8008       L1     6  1.62

> <Gold.PLP.Chemscore.Internal.Correction>
0.0012

> <Gold.Rescore>
     Score         DG    S(hbond)    S(metal)    S(lipo)     H(rot)  DE(clash)    DE(int)     intcor
     13.90     -15.22       1.67        0.00      57.33       1.00       0.16       1.16       ----

> <Gold.Chemscore.Fitness>
13.9015

> <Gold.Chemscore.DG>
-15.2204

> <Gold.Chemscore.ZeroCoef>
-5.4800

> <Gold.Chemscore.Hbond>
1.6746

> <Gold.Chemscore.Metal>
0.0000

> <Gold.Chemscore.Lipo>
57.3276

> <Gold.Chemscore.Internal_Hbond>
0.0000

> <Gold.Chemscore.DEClash>
0.1568

> <Gold.Chemscore.DEInternal>
1.1621

> <Gold.Chemscore.Rot>
1.0000

> <Gold.Chemscore.Internal.Correction>
   9.000000E+99

> <Gold.Chemscore.Hbonds>
donor molecule, donor type, donor heavy atom, donor atom, acceptor molecule, acceptor atom, score
      L1  H    15    27       P1  7948  1.00
      P1  H  7997  8008       L1     6  0.52

> <Gold.Chemscore.Hbond.Weighted>
-5.5931

> <Gold.Chemscore.Metal.Weighted>
-0.0000

> <Gold.Chemscore.Lipo.Weighted>
-6.7073

> <Gold.Chemscore.Internal_Hbond.Weighted>
0.0000

> <Gold.Chemscore.DEClash.Weighted>
0.1568

> <Gold.Chemscore.DEInternal.Weighted>
1.1621

> <Gold.Chemscore.Rot.Weighted>
2.5600

> <Gold.Chemscore.Internal.Correction.Weighted>
   9.000000E+99

> <Gold.Protein.RotatedTorsions>
[ 6907 6896 6895 6894 ] final -175.70 input  -60.11 | X-H torsion
[ 7974 7965 7964 7962 ] final    0.84 input  175.53 | X-H torsion
[ 8008 7997 7996 7995 ] final  -57.54 input   59.86 | X-H torsion
[ 10167 10162 10161 10158 ] final  113.08 input  -65.29 | X-H torsion
[ 10718 10713 10712 10709 ] final  120.23 input   66.30 | X-H torsion
[ 10763 10752 10751 10750 ] final  148.02 input  -60.55 | X-H torsion
[ 11005 11000 10999 10996 ] final  -74.53 input  -57.11 | X-H torsion

> <Gold.Protein.ActiveResidues>
 VAL166  LYS551  ARG553  GLY616  TRP617  ASP618  TYR619  PRO620  LYS621  CYS622 
 ASP623  PHE694  ASN695  SER759  ASP760  ASP761  ALA762  ILE779  LEU786  VAL792 
 PHE793  MET794  SER795  GLU796  ALA797  LYS798  CYS799  TRP800  GLU811  SER814 

> <Gold.Protein.RotatedAtoms>
  151.5928  133.3364  159.3030 H   0  0  0  0  0  0  0  0  0  0  0  0  # atno 6907 bound_to 6896
  150.8250  134.7481  159.6817 H   0  0  0  0  0  0  0  0  0  0  0  0  # atno 6908 bound_to 6896
  152.4341  134.5727  159.9977 H   0  0  0  0  0  0  0  0  0  0  0  0  # atno 6909 bound_to 6896
  146.2437  140.1077  142.8345 H   0  0  0  0  0  0  0  0  0  0  0  0  # atno 7974 bound_to 7965
  154.4272  140.1104  156.5814 H   0  0  0  0  0  0  0  0  0  0  0  0  # atno 8008 bound_to 7997
  155.6108  140.3494  155.4603 H   0  0  0  0  0  0  0  0  0  0  0  0  # atno 8009 bound_to 7997
  156.0100  140.1217  157.0452 H   0  0  0  0  0  0  0  0  0  0  0  0  # atno 8010 bound_to 7997
  139.6488  144.7127  151.2089 H   0  0  0  0  0  0  0  0  0  0  0  0  # atno 10167 bound_to 10162
  157.5906  131.1064  150.8006 H   0  0  0  0  0  0  0  0  0  0  0  0  # atno 10718 bound_to 10713
  154.0478  135.2884  155.3345 H   0  0  0  0  0  0  0  0  0  0  0  0  # atno 10763 bound_to 10752
  154.6888  135.5234  153.8367 H   0  0  0  0  0  0  0  0  0  0  0  0  # atno 10764 bound_to 10752
  153.0573  135.6600  154.0677 H   0  0  0  0  0  0  0  0  0  0  0  0  # atno 10765 bound_to 10752
  141.1636  133.6914  156.7378 H   0  0  0  0  0  0  0  0  0  0  0  0  # atno 11005 bound_to 11000
  145.0514  140.9020  143.4993 LP  0  0  0  0  0  0  0  0  0  0  0  0  # atno 17320 bound_to 7965
  145.1175  139.2715  143.5605 LP  0  0  0  0  0  0  0  0  0  0  0  0  # atno 17321 bound_to 7965
  140.7528  143.6185  150.8536 LP  0  0  0  0  0  0  0  0  0  0  0  0  # atno 17342 bound_to 10162
  139.9831  143.5929  152.2936 LP  0  0  0  0  0  0  0  0  0  0  0  0  # atno 17343 bound_to 10162
  156.8429  130.5054  149.5319 LP  0  0  0  0  0  0  0  0  0  0  0  0  # atno 17370 bound_to 10713
  156.0960  130.5932  150.9814 LP  0  0  0  0  0  0  0  0  0  0  0  0  # atno 17371 bound_to 10713
  140.2697  134.8402  157.3835 LP  0  0  0  0  0  0  0  0  0  0  0  0  # atno 17394 bound_to 11000
  140.1533  134.4822  155.7945 LP  0  0  0  0  0  0  0  0  0  0  0  0  # atno 17395 bound_to 11000

$$$$
