AV-unprocessed.smi:3349|AV-procd|sdf|12934|dock5
  -GOLD-   2272019363D 1   1.00000     0.00000
 Structure written by MMmdl.
 40 41  0  0  0  0  0  0  0  0  1 V2000
  150.7164  141.1773  156.6226 C   0  0  0  0  0  0  0  0  0  0  0  0
  150.2351  141.0006  158.0861 C   0  0  1  0  0  0  0  0  0  0  0  0
  150.5864  139.5640  158.5631 C   0  0  0  0  0  0  0  0  0  0  0  0
  149.4309  138.6742  158.5639 N   0  0  0  0  0  0  0  0  0  0  0  0
  149.4315  137.4251  159.0521 C   0  0  0  0  0  0  0  0  0  0  0  0
  150.4200  136.9086  159.5747 O   0  0  0  0  0  0  0  0  0  0  0  0
  148.1118  136.6477  158.9302 C   0  0  1  0  0  0  0  0  0  0  0  0
  148.2407  135.3951  158.0442 C   0  0  0  0  0  0  0  0  0  0  0  0
  147.6011  136.3015  160.2492 N   0  0  0  0  0  0  0  0  0  0  0  0
  147.3060  135.1168  160.7926 C   0  0  0  0  0  0  0  0  0  0  0  0
  146.8421  135.1951  162.0319 N   0  0  0  0  0  0  0  0  0  0  0  0
  146.8733  136.5503  162.2015 C   0  0  0  0  0  0  0  0  0  0  0  0
  147.3160  137.2597  161.1633 N   0  0  0  0  0  0  0  0  0  0  0  0
  150.7516  142.0565  158.9885 N   0  0  0  0  0  0  0  0  0  0  0  0
  150.4839  143.4117  158.4926 C   0  0  0  0  0  0  0  0  0  0  0  0
  151.0426  144.5079  159.4168 C   0  0  0  0  0  0  0  0  0  0  0  0
  152.4394  144.3188  159.5962 O   0  0  0  0  0  0  0  0  0  0  0  0
  152.7377  143.0451  160.1504 C   0  0  0  0  0  0  0  0  0  0  0  0
  152.1949  141.9399  159.2279 C   0  0  0  0  0  0  0  0  0  0  0  0
  150.3746  140.3754  155.9690 H   0  0  0  0  0  0  0  0  0  0  0  0
  151.8052  141.2023  156.5671 H   0  0  0  0  0  0  0  0  0  0  0  0
  150.3343  142.0903  156.1685 H   0  0  0  0  0  0  0  0  0  0  0  0
  149.1463  141.0735  158.0729 H   0  0  0  0  0  0  0  0  0  0  0  0
  151.3717  139.1448  157.9316 H   0  0  0  0  0  0  0  0  0  0  0  0
  150.9610  139.5644  159.5858 H   0  0  0  0  0  0  0  0  0  0  0  0
  148.5776  139.0285  158.1562 H   0  0  0  0  0  0  0  0  0  0  0  0
  147.3885  137.3111  158.4515 H   0  0  0  0  0  0  0  0  0  0  0  0
  148.6275  135.6471  157.0563 H   0  0  0  0  0  0  0  0  0  0  0  0
  147.2701  134.9191  157.9029 H   0  0  0  0  0  0  0  0  0  0  0  0
  148.9089  134.6543  158.4849 H   0  0  0  0  0  0  0  0  0  0  0  0
  147.4324  134.1793  160.2704 H   0  0  0  0  0  0  0  0  0  0  0  0
  146.5583  137.0291  163.1170 H   0  0  0  0  0  0  0  0  0  0  0  0
  150.9056  143.5305  157.4934 H   0  0  0  0  0  0  0  0  0  0  0  0
  149.4134  143.5877  158.4087 H   0  0  0  0  0  0  0  0  0  0  0  0
  150.8706  145.4928  158.9825 H   0  0  0  0  0  0  0  0  0  0  0  0
  150.5376  144.4919  160.3840 H   0  0  0  0  0  0  0  0  0  0  0  0
  153.8180  142.9493  160.2606 H   0  0  0  0  0  0  0  0  0  0  0  0
  152.3051  142.9625  161.1489 H   0  0  0  0  0  0  0  0  0  0  0  0
  152.4313  140.9882  159.7003 H   0  0  0  0  0  0  0  0  0  0  0  0
  152.7310  141.9653  158.2780 H   0  0  0  0  0  0  0  0  0  0  0  0
  1  2  1  0  0  0  0
  1 20  1  0  0  0  0
  1 21  1  0  0  0  0
  1 22  1  0  0  0  0
  2  3  1  0  0  0  0
  2 14  1  0  0  0  0
  2 23  1  0  0  0  0
  3  4  1  0  0  0  0
  3 24  1  0  0  0  0
  3 25  1  0  0  0  0
  4  5  1  0  0  0  0
  4 26  1  0  0  0  0
  5  6  2  0  0  0  0
  5  7  1  0  0  0  0
  7  8  1  0  0  0  0
  7  9  1  0  0  0  0
  7 27  1  0  0  0  0
  8 28  1  0  0  0  0
  8 29  1  0  0  0  0
  8 30  1  0  0  0  0
  9 13  1  0  0  0  0
  9 10  1  0  0  0  0
 10 11  2  0  0  0  0
 10 31  1  0  0  0  0
 11 12  1  0  0  0  0
 12 13  2  0  0  0  0
 12 32  1  0  0  0  0
 14 19  1  0  0  0  0
 14 15  1  0  0  0  0
 15 16  1  0  0  0  0
 15 33  1  0  0  0  0
 15 34  1  0  0  0  0
 16 17  1  0  0  0  0
 16 35  1  0  0  0  0
 16 36  1  0  0  0  0
 17 18  1  0  0  0  0
 18 19  1  0  0  0  0
 18 37  1  0  0  0  0
 18 38  1  0  0  0  0
 19 39  1  0  0  0  0
 19 40  1  0  0  0  0
M  END
> <s_m_source_file>
AV-unprocessed.smi

> <i_m_source_file_index>
3349

> <i_lp_mmshare_version>
43012

> <i_f3d_flags>
0

> <s_epik_input>
W0NIMl0xW0NIMl1PW0NIMl1bQ0gyXU4xW0NASF0oW0NIM10pW0NIMl1bTkhdQyg9TylbQ0BIXShbQ0gzXSluMltjSF1uW2NIXW4y

> <s_epik_cmdline>
J2VwaWtfcHl0aG9uJywgJy1waCcsICc3LjAnLCAnLXRuJywgJzgnLCAnLW1hJywgJzIwMCcsICctbWV0YWxfYmluZGluZycsICctaW1hZScsICc8aW5maWxlLm1hZT4nLCAnLW9tYWUnLCAnPG91dGZpbGUubWFlPic=

> <r_lp_tautomer_probability>
1

> <r_epik_Ionization_Penalty>
0.211373

> <r_epik_Ionization_Penalty_Charging>
0

> <r_epik_Ionization_Penalty_Neutral>
0.211373

> <r_epik_State_Penalty>
0.201459

> <r_epik_Charging_Adjusted_Penalty>
0.201459

> <i_epik_Tot_Q>
0

> <i_epik_Tot_abs_Q>
0

> <r_epik_Metal_State_Penalty>
0.201458

> <b_epik_Metal_Only>
0

> <s_lp_Force_Field>
OPLS_2005

> <r_lp_Energy>
35.0343

> <b_lp_Chiralities_Consistent>
1

> <s_lp_Variant>
AV-unprocessed.smi:3349-4

> <Gold.Version>
5.8.1

> <Gold.Id.Protein>
6NUR|6NUR_protein|mol2

> <Gold.PLP.Fitness>
41.1032

> <Gold.PLP.PLP>
-34.0659

> <Gold.PLP.part.hbond>
-3.1292

> <Gold.PLP.part.metal>
0.0000

> <Gold.PLP.part.buried>
-6.9150

> <Gold.PLP.part.nonpolar>
-24.4854

> <Gold.PLP.part.repulsive>
0.2281

> <Gold.PLP.ligand.clash>
0.0000

> <Gold.PLP.ligand.torsion>
0.7531

> <Gold.PLP.Chemscore.Hbond>
2.8160

> <Gold.PLP.Chemscore.CHOScore>
0.0000

> <Gold.PLP.Chemscore.Metal>
0.0000

> <Gold.Chemscore.Hbonds>
donor molecule, donor type, donor heavy atom, donor atom, acceptor molecule, acceptor atom, score
      P1  H  6896  6909       L1     6  1.00
      P1  H  6931  6943       L1    13  0.65
      P1  H  6934  6947       L1    13  1.00

> <Gold.PLP.Chemscore.Internal.Correction>
0.0956

> <Gold.Rescore>
     Score         DG    S(hbond)    S(metal)    S(lipo)     H(rot)  DE(clash)    DE(int)     intcor
     14.00     -14.81       2.60        0.00      61.53       2.56       0.00       0.81       ----

> <Gold.Chemscore.Fitness>
13.9983

> <Gold.Chemscore.DG>
-14.8091

> <Gold.Chemscore.ZeroCoef>
-5.4800

> <Gold.Chemscore.Hbond>
2.5977

> <Gold.Chemscore.Metal>
0.0000

> <Gold.Chemscore.Lipo>
61.5271

> <Gold.Chemscore.Internal_Hbond>
0.0000

> <Gold.Chemscore.DEClash>
0.0048

> <Gold.Chemscore.DEInternal>
0.8060

> <Gold.Chemscore.Rot>
2.5570

> <Gold.Chemscore.Internal.Correction>
   9.000000E+99

> <Gold.Chemscore.Hbonds>
donor molecule, donor type, donor heavy atom, donor atom, acceptor molecule, acceptor atom, score
      P1  H  6896  6909       L1     6  0.95
      P1  H  6931  6943       L1    13  0.25
      P1  H  6934  6947       L1    13  0.96

> <Gold.Chemscore.Hbond.Weighted>
-8.6763

> <Gold.Chemscore.Metal.Weighted>
-0.0000

> <Gold.Chemscore.Lipo.Weighted>
-7.1987

> <Gold.Chemscore.Internal_Hbond.Weighted>
0.0000

> <Gold.Chemscore.DEClash.Weighted>
0.0048

> <Gold.Chemscore.DEInternal.Weighted>
0.8060

> <Gold.Chemscore.Rot.Weighted>
6.5459

> <Gold.Chemscore.Internal.Correction.Weighted>
   9.000000E+99

> <Gold.Protein.RotatedTorsions>
[ 6907 6896 6895 6894 ] final   79.95 input  -60.11 | X-H torsion
[ 7974 7965 7964 7962 ] final   -3.43 input  175.53 | X-H torsion
[ 8008 7997 7996 7995 ] final   17.86 input   59.86 | X-H torsion
[ 10167 10162 10161 10158 ] final  110.92 input  -65.29 | X-H torsion
[ 10718 10713 10712 10709 ] final -163.07 input   66.30 | X-H torsion
[ 10763 10752 10751 10750 ] final   -3.57 input  -60.55 | X-H torsion
[ 11005 11000 10999 10996 ] final -155.73 input  -57.11 | X-H torsion

> <Gold.Protein.ActiveResidues>
 VAL166  LYS551  ARG553  GLY616  TRP617  ASP618  TYR619  PRO620  LYS621  CYS622 
 ASP623  PHE694  ASN695  SER759  ASP760  ASP761  ALA762  ILE779  LEU786  VAL792 
 PHE793  MET794  SER795  GLU796  ALA797  LYS798  CYS799  TRP800  GLU811  SER814 

> <Gold.Protein.RotatedAtoms>
  152.5217  134.3432  159.9224 H   0  0  0  0  0  0  0  0  0  0  0  0  # atno 6907 bound_to 6896
  151.3382  133.3967  159.2676 H   0  0  0  0  0  0  0  0  0  0  0  0  # atno 6908 bound_to 6896
  150.9825  134.9195  159.7910 H   0  0  0  0  0  0  0  0  0  0  0  0  # atno 6909 bound_to 6896
  146.2389  140.1720  142.8332 H   0  0  0  0  0  0  0  0  0  0  0  0  # atno 7974 bound_to 7965
  154.8976  140.2996  155.5336 H   0  0  0  0  0  0  0  0  0  0  0  0  # atno 8008 bound_to 7997
  156.3019  140.2413  156.3934 H   0  0  0  0  0  0  0  0  0  0  0  0  # atno 8009 bound_to 7997
  154.8554  140.0407  157.1620 H   0  0  0  0  0  0  0  0  0  0  0  0  # atno 8010 bound_to 7997
  139.6651  144.7127  151.1792 H   0  0  0  0  0  0  0  0  0  0  0  0  # atno 10167 bound_to 10162
  156.6194  130.8884  151.2954 H   0  0  0  0  0  0  0  0  0  0  0  0  # atno 10718 bound_to 10713
  153.3732  135.6995  153.6622 H   0  0  0  0  0  0  0  0  0  0  0  0  # atno 10763 bound_to 10752
  153.5263  135.3601  155.2656 H   0  0  0  0  0  0  0  0  0  0  0  0  # atno 10764 bound_to 10752
  154.8684  135.4170  154.3014 H   0  0  0  0  0  0  0  0  0  0  0  0  # atno 10765 bound_to 10752
  140.6833  134.4121  157.5225 H   0  0  0  0  0  0  0  0  0  0  0  0  # atno 11005 bound_to 11000
  145.0004  140.8626  143.5285 LP  0  0  0  0  0  0  0  0  0  0  0  0  # atno 17320 bound_to 7965
  145.1739  139.2389  143.5328 LP  0  0  0  0  0  0  0  0  0  0  0  0  # atno 17321 bound_to 7965
  140.7596  143.5932  150.8774 LP  0  0  0  0  0  0  0  0  0  0  0  0  # atno 17342 bound_to 10162
  139.9593  143.6182  152.3007 LP  0  0  0  0  0  0  0  0  0  0  0  0  # atno 17343 bound_to 10162
  157.7232  130.9586  150.1524 LP  0  0  0  0  0  0  0  0  0  0  0  0  # atno 17370 bound_to 10713
  156.2324  130.3683  149.8430 LP  0  0  0  0  0  0  0  0  0  0  0  0  # atno 17371 bound_to 10713
  139.8945  134.8705  156.2174 LP  0  0  0  0  0  0  0  0  0  0  0  0  # atno 17394 bound_to 11000
  141.0300  133.6994  156.1413 LP  0  0  0  0  0  0  0  0  0  0  0  0  # atno 17395 bound_to 11000

$$$$
