AV-unprocessed.smi:910|AV-procd|sdf|4126|dock3
  -GOLD-   22720 2 23D 1   1.00000     0.00000
 Structure written by MMmdl.
 46 47  0  0  0  0  0  0  0  0  1 V2000
  152.0164  144.5063  159.6537 C   0  0  0  0  0  0  0  0  0  0  0  0
  152.1796  143.0092  159.5115 C   0  0  0  0  0  0  0  0  0  0  0  0
  151.9948  142.3705  158.3172 N   0  0  0  0  0  0  0  0  0  0  0  0
  152.2086  141.0082  158.5146 C   0  0  0  0  0  0  0  0  0  0  0  0
  152.1432  139.9879  157.7158 N   0  0  0  0  0  0  0  0  0  0  0  0
  151.8051  140.2430  156.3997 C   0  0  0  0  0  0  0  0  0  0  0  0
  152.5315  140.0814  155.4147 O   0  0  0  0  0  0  0  0  0  0  0  0
  150.5798  140.7843  156.3096 N   0  0  0  0  0  0  0  0  0  0  0  0
  149.9577  141.2596  155.0777 C   0  0  0  0  0  0  0  0  0  0  0  0
  148.7788  140.3674  154.6646 C   0  0  0  0  0  0  0  0  0  0  0  0
  147.5803  140.8891  155.2158 O   0  0  0  0  0  0  0  0  0  0  0  0
  146.4407  140.7712  154.3742 C   0  0  2  0  0  0  0  0  0  0  0  0
  146.5888  141.7504  153.1929 C   0  0  0  0  0  0  0  0  0  0  0  0
  146.5889  143.2142  153.6669 C   0  0  0  0  0  0  0  0  0  0  0  0
  145.3412  143.5322  154.5057 C   0  0  0  0  0  0  0  0  0  0  0  0
  145.1949  142.5580  155.6857 C   0  0  0  0  0  0  0  0  0  0  0  0
  145.1795  141.0933  155.2049 C   0  0  2  0  0  0  0  0  0  0  0  0
  144.9875  140.1025  156.3635 C   0  0  0  0  0  0  0  0  0  0  0  0
  152.5313  140.8578  159.8395 O   0  0  0  0  0  0  0  0  0  0  0  0
  152.5032  142.0910  160.4186 C   0  0  0  0  0  0  0  0  0  0  0  0
  152.8222  142.2105  161.8917 C   0  0  0  0  0  0  0  0  0  0  0  0
  152.9436  144.9535  160.0123 H   0  0  0  0  0  0  0  0  0  0  0  0
  151.2240  144.7333  160.3672 H   0  0  0  0  0  0  0  0  0  0  0  0
  151.7605  144.9644  158.6983 H   0  0  0  0  0  0  0  0  0  0  0  0
  151.7346  142.8440  157.4640 H   0  0  0  0  0  0  0  0  0  0  0  0
  150.0524  140.9032  157.1624 H   0  0  0  0  0  0  0  0  0  0  0  0
  149.6325  142.2966  155.1766 H   0  0  0  0  0  0  0  0  0  0  0  0
  150.7138  141.2502  154.2924 H   0  0  0  0  0  0  0  0  0  0  0  0
  148.7128  140.3332  153.5764 H   0  0  0  0  0  0  0  0  0  0  0  0
  148.9330  139.3460  155.0157 H   0  0  0  0  0  0  0  0  0  0  0  0
  146.3515  139.7514  153.9945 H   0  0  0  0  0  0  0  0  0  0  0  0
  147.5025  141.5409  152.6363 H   0  0  0  0  0  0  0  0  0  0  0  0
  145.7657  141.5985  152.4937 H   0  0  0  0  0  0  0  0  0  0  0  0
  147.4845  143.4075  154.2589 H   0  0  0  0  0  0  0  0  0  0  0  0
  146.6385  143.8829  152.8073 H   0  0  0  0  0  0  0  0  0  0  0  0
  145.3928  144.5571  154.8746 H   0  0  0  0  0  0  0  0  0  0  0  0
  144.4536  143.4755  153.8745 H   0  0  0  0  0  0  0  0  0  0  0  0
  146.0136  142.7115  156.3899 H   0  0  0  0  0  0  0  0  0  0  0  0
  144.2760  142.7814  156.2281 H   0  0  0  0  0  0  0  0  0  0  0  0
  144.3165  140.9779  154.5474 H   0  0  0  0  0  0  0  0  0  0  0  0
  145.8351  140.1171  157.0477 H   0  0  0  0  0  0  0  0  0  0  0  0
  144.8842  139.0830  155.9917 H   0  0  0  0  0  0  0  0  0  0  0  0
  144.0909  140.3366  156.9380 H   0  0  0  0  0  0  0  0  0  0  0  0
  153.8417  142.5713  162.0279 H   0  0  0  0  0  0  0  0  0  0  0  0
  152.7291  141.2416  162.3826 H   0  0  0  0  0  0  0  0  0  0  0  0
  152.1391  142.9093  162.3744 H   0  0  0  0  0  0  0  0  0  0  0  0
  1 22  1  0  0  0  0
  1 23  1  0  0  0  0
  1 24  1  0  0  0  0
  1  2  1  0  0  0  0
  2  3  1  0  0  0  0
  2 20  2  0  0  0  0
  3 25  1  0  0  0  0
  3  4  1  0  0  0  0
  4 19  1  0  0  0  0
  4  5  2  0  0  0  0
  5  6  1  0  0  0  0
  6  8  1  0  0  0  0
  6  7  2  0  0  0  0
  8  9  1  0  0  0  0
  8 26  1  0  0  0  0
  9 10  1  0  0  0  0
  9 27  1  0  0  0  0
  9 28  1  0  0  0  0
 10 11  1  0  0  0  0
 10 29  1  0  0  0  0
 10 30  1  0  0  0  0
 11 12  1  0  0  0  0
 12 17  1  0  0  0  0
 12 13  1  0  0  0  0
 12 31  1  0  0  0  0
 13 14  1  0  0  0  0
 13 32  1  0  0  0  0
 13 33  1  0  0  0  0
 14 15  1  0  0  0  0
 14 34  1  0  0  0  0
 14 35  1  0  0  0  0
 15 16  1  0  0  0  0
 15 36  1  0  0  0  0
 15 37  1  0  0  0  0
 16 17  1  0  0  0  0
 16 38  1  0  0  0  0
 16 39  1  0  0  0  0
 17 18  1  0  0  0  0
 17 40  1  0  0  0  0
 18 41  1  0  0  0  0
 18 42  1  0  0  0  0
 18 43  1  0  0  0  0
 19 20  1  0  0  0  0
 20 21  1  0  0  0  0
 21 44  1  0  0  0  0
 21 45  1  0  0  0  0
 21 46  1  0  0  0  0
M  END
> <s_m_source_file>
AV-unprocessed.smi

> <i_m_source_file_index>
910

> <i_lp_mmshare_version>
43012

> <i_f3d_flags>
0

> <s_epik_input>
W0NIM11jMW5jKG9jMVtDSDNdKVtOSF1DKD1PKVtOSF1bQ0gyXVtDSDJdT1tDQEBIXTJbQ0gyXVtDSDJdW0NIMl1bQ0gyXVtDQEhdMltDSDNd

> <s_epik_cmdline>
J2VwaWtfcHl0aG9uJywgJy1waCcsICc3LjAnLCAnLXRuJywgJzgnLCAnLW1hJywgJzIwMCcsICctbWV0YWxfYmluZGluZycsICctaW1hZScsICc8aW5maWxlLm1hZT4nLCAnLW9tYWUnLCAnPG91dGZpbGUubWFlPic=

> <r_lp_tautomer_probability>
0.107061

> <r_epik_Ionization_Penalty>
0.727192

> <r_epik_Ionization_Penalty_Charging>
0.726719

> <r_epik_Ionization_Penalty_Neutral>
0.000473387

> <r_epik_State_Penalty>
2.53712

> <r_epik_Charging_Adjusted_Penalty>
3.26383

> <i_epik_Tot_Q>
0

> <i_epik_Tot_abs_Q>
0

> <r_epik_Metal_State_Penalty>
3.71015

> <b_epik_Metal_Only>
0

> <s_lp_Force_Field>
OPLS_2005

> <r_lp_Energy>
29.7751

> <b_lp_Chiralities_Consistent>
1

> <s_lp_Variant>
AV-unprocessed.smi:910-11

> <Gold.Version>
5.8.1

> <Gold.Id.Protein>
6NUR|6NUR_protein|mol2

> <Gold.PLP.Fitness>
38.9458

> <Gold.PLP.PLP>
-37.3646

> <Gold.PLP.part.hbond>
-2.0347

> <Gold.PLP.part.metal>
0.0000

> <Gold.PLP.part.buried>
-2.2816

> <Gold.PLP.part.nonpolar>
-31.6003

> <Gold.PLP.part.repulsive>
0.1904

> <Gold.PLP.ligand.clash>
0.0000

> <Gold.PLP.ligand.torsion>
1.1670

> <Gold.PLP.Chemscore.Hbond>
1.2766

> <Gold.PLP.Chemscore.CHOScore>
0.0000

> <Gold.PLP.Chemscore.Metal>
0.0000

> <Gold.Chemscore.Hbonds>
donor molecule, donor type, donor heavy atom, donor atom, acceptor molecule, acceptor atom, score
      P1  H  7989  7998       L1     7  0.28
      P1  H  7997  8010       L1     7  1.00

> <Gold.PLP.Chemscore.Internal.Correction>
0.0853

> <Gold.Rescore>
     Score         DG    S(hbond)    S(metal)    S(lipo)     H(rot)  DE(clash)    DE(int)     intcor
     11.47     -14.24       0.90        0.00      85.46       1.66       0.25       2.53       ----

> <Gold.Chemscore.Fitness>
11.4669

> <Gold.Chemscore.DG>
-14.2420

> <Gold.Chemscore.ZeroCoef>
-5.4800

> <Gold.Chemscore.Hbond>
0.9001

> <Gold.Chemscore.Metal>
0.0000

> <Gold.Chemscore.Lipo>
85.4645

> <Gold.Chemscore.Internal_Hbond>
0.0000

> <Gold.Chemscore.DEClash>
0.2466

> <Gold.Chemscore.DEInternal>
2.5284

> <Gold.Chemscore.Rot>
1.6576

> <Gold.Chemscore.Internal.Correction>
   9.000000E+99

> <Gold.Chemscore.Hbonds>
donor molecule, donor type, donor heavy atom, donor atom, acceptor molecule, acceptor atom, score
      P1  H  7989  7998       L1     7  0.25
      P1  H  7997  8010       L1     7  0.59

> <Gold.Chemscore.Hbond.Weighted>
-3.0062

> <Gold.Chemscore.Metal.Weighted>
-0.0000

> <Gold.Chemscore.Lipo.Weighted>
-9.9994

> <Gold.Chemscore.Internal_Hbond.Weighted>
0.0000

> <Gold.Chemscore.DEClash.Weighted>
0.2466

> <Gold.Chemscore.DEInternal.Weighted>
2.5284

> <Gold.Chemscore.Rot.Weighted>
4.2436

> <Gold.Chemscore.Internal.Correction.Weighted>
   9.000000E+99

> <Gold.Protein.RotatedTorsions>
[ 6907 6896 6895 6894 ] final   98.12 input  -60.11 | X-H torsion
[ 7974 7965 7964 7962 ] final   45.69 input  175.53 | X-H torsion
[ 8008 7997 7996 7995 ] final   95.33 input   59.86 | X-H torsion
[ 10167 10162 10161 10158 ] final   -4.73 input  -65.29 | X-H torsion
[ 10718 10713 10712 10709 ] final   22.40 input   66.30 | X-H torsion
[ 10763 10752 10751 10750 ] final  -27.78 input  -60.55 | X-H torsion
[ 11005 11000 10999 10996 ] final  153.93 input  -57.11 | X-H torsion

> <Gold.Protein.ActiveResidues>
 VAL166  LYS551  ARG553  GLY616  TRP617  ASP618  TYR619  PRO620  LYS621  CYS622 
 ASP623  PHE694  ASN695  SER759  ASP760  ASP761  ALA762  ILE779  LEU786  VAL792 
 PHE793  MET794  SER795  GLU796  ALA797  LYS798  CYS799  TRP800  GLU811  SER814 

> <Gold.Protein.RotatedAtoms>
  152.5414  134.0629  159.8159 H   0  0  0  0  0  0  0  0  0  0  0  0  # atno 6907 bound_to 6896
  151.0754  133.5425  159.2631 H   0  0  0  0  0  0  0  0  0  0  0  0  # atno 6908 bound_to 6896
  151.2272  135.0549  159.9027 H   0  0  0  0  0  0  0  0  0  0  0  0  # atno 6909 bound_to 6896
  146.0457  139.4937  142.9750 H   0  0  0  0  0  0  0  0  0  0  0  0  # atno 7974 bound_to 7965
  156.0676  140.3288  155.7537 H   0  0  0  0  0  0  0  0  0  0  0  0  # atno 8008 bound_to 7997
  155.5356  140.0597  157.2898 H   0  0  0  0  0  0  0  0  0  0  0  0  # atno 8009 bound_to 7997
  154.4513  140.1920  156.0527 H   0  0  0  0  0  0  0  0  0  0  0  0  # atno 8010 bound_to 7997
  140.6938  143.6390  150.8453 H   0  0  0  0  0  0  0  0  0  0  0  0  # atno 10167 bound_to 10162
  157.1518  130.6678  149.6014 H   0  0  0  0  0  0  0  0  0  0  0  0  # atno 10718 bound_to 10713
  153.7376  135.6934  153.4974 H   0  0  0  0  0  0  0  0  0  0  0  0  # atno 10763 bound_to 10752
  153.2091  135.4409  155.0357 H   0  0  0  0  0  0  0  0  0  0  0  0  # atno 10764 bound_to 10752
  154.8231  135.3432  154.6903 H   0  0  0  0  0  0  0  0  0  0  0  0  # atno 10765 bound_to 10752
  140.1443  134.8718  157.2371 H   0  0  0  0  0  0  0  0  0  0  0  0  # atno 11005 bound_to 11000
  145.6809  141.0191  143.1607 LP  0  0  0  0  0  0  0  0  0  0  0  0  # atno 17320 bound_to 7965
  144.7097  139.8420  143.7418 LP  0  0  0  0  0  0  0  0  0  0  0  0  # atno 17321 bound_to 7965
  140.0106  143.5647  152.2840 LP  0  0  0  0  0  0  0  0  0  0  0  0  # atno 17342 bound_to 10162
  139.6369  144.7651  151.2419 LP  0  0  0  0  0  0  0  0  0  0  0  0  # atno 17343 bound_to 10162
  155.9769  130.4742  150.6559 LP  0  0  0  0  0  0  0  0  0  0  0  0  # atno 17370 bound_to 10713
  157.4213  131.0837  151.1128 LP  0  0  0  0  0  0  0  0  0  0  0  0  # atno 17371 bound_to 10713
  140.2684  134.3489  155.7382 LP  0  0  0  0  0  0  0  0  0  0  0  0  # atno 17394 bound_to 11000
  141.2190  133.7409  156.9185 LP  0  0  0  0  0  0  0  0  0  0  0  0  # atno 17395 bound_to 11000

$$$$
