AV-unprocessed.smi:1049|AV-procd|sdf|4611|dock9
  -GOLD-   22720 3113D 1   1.00000     0.00000
 Structure written by MMmdl.
 41 42  0  0  0  0  0  0  0  0  2 V2000
  153.3167  142.5628  162.4102 C   0  0  0  0  0  0  0  0  0  0  0  0
  152.5112  142.6998  161.1106 C   0  0  1  0  0  0  0  0  0  0  0  0
  151.7764  144.0564  161.0403 C   0  0  0  0  0  0  0  0  0  0  0  0
  151.0673  144.2585  159.6880 C   0  0  0  0  0  0  0  0  0  0  0  0
  152.0309  143.9930  158.5181 C   0  0  0  0  0  0  0  0  0  0  0  0
  152.5781  142.6324  158.6561 N   0  0  0  0  0  0  0  0  0  0  0  0
  152.2585  141.5550  157.8943 C   0  0  0  0  0  0  0  0  0  0  0  0
  152.8251  140.4655  157.9923 O   0  0  0  0  0  0  0  0  0  0  0  0
  151.2747  141.7645  157.0026 N   0  0  0  0  0  0  0  0  0  0  0  0
  150.7546  140.7663  156.0757 C   0  0  0  0  0  0  0  0  0  0  0  0
  149.2735  140.4565  156.3557 C   0  0  0  0  0  0  0  0  0  0  0  0
  148.3391  140.9710  155.3005 C   0  0  0  0  0  0  0  0  0  0  0  0
  148.0738  142.2608  155.0569 N   0  3  0  0  0  0  0  0  0  0  0  0
  147.1594  142.3804  154.0469 C   0  0  0  0  0  0  0  0  0  0  0  0
  146.8375  141.1049  153.6652 C   0  0  0  0  0  0  0  0  0  0  0  0
  147.5660  140.2584  154.4616 N   0  0  0  0  0  0  0  0  0  0  0  0
  147.5385  138.7929  154.4133 C   0  0  0  0  0  0  0  0  0  0  0  0
  147.0801  138.3009  155.5641 F   0  0  0  0  0  0  0  0  0  0  0  0
  146.7886  138.3721  153.3942 F   0  0  0  0  0  0  0  0  0  0  0  0
  153.4043  142.5128  159.8652 C   0  0  0  0  0  0  0  0  0  0  0  0
  154.0916  143.3271  162.4791 H   0  0  0  0  0  0  0  0  0  0  0  0
  153.8032  141.5889  162.4690 H   0  0  0  0  0  0  0  0  0  0  0  0
  152.6718  142.6622  163.2837 H   0  0  0  0  0  0  0  0  0  0  0  0
  151.7592  141.9091  161.1053 H   0  0  0  0  0  0  0  0  0  0  0  0
  151.0547  144.1388  161.8536 H   0  0  0  0  0  0  0  0  0  0  0  0
  152.4959  144.8637  161.1850 H   0  0  0  0  0  0  0  0  0  0  0  0
  150.2127  143.5842  159.6176 H   0  0  0  0  0  0  0  0  0  0  0  0
  150.6691  145.2716  159.6247 H   0  0  0  0  0  0  0  0  0  0  0  0
  151.5224  144.1740  157.5715 H   0  0  0  0  0  0  0  0  0  0  0  0
  152.8517  144.7114  158.5432 H   0  0  0  0  0  0  0  0  0  0  0  0
  150.8539  142.6820  156.9718 H   0  0  0  0  0  0  0  0  0  0  0  0
  150.8935  141.1094  155.0490 H   0  0  0  0  0  0  0  0  0  0  0  0
  151.3510  139.8601  156.1851 H   0  0  0  0  0  0  0  0  0  0  0  0
  149.1285  139.3796  156.4350 H   0  0  0  0  0  0  0  0  0  0  0  0
  148.9490  140.9023  157.2966 H   0  0  0  0  0  0  0  0  0  0  0  0
  146.8130  143.3386  153.6880 H   0  0  0  0  0  0  0  0  0  0  0  0
  146.1558  140.7457  152.9078 H   0  0  0  0  0  0  0  0  0  0  0  0
  148.5503  138.4144  154.2639 H   0  0  0  0  0  0  0  0  0  0  0  0
  154.1868  143.2730  159.8438 H   0  0  0  0  0  0  0  0  0  0  0  0
  153.9270  141.5567  159.9203 H   0  0  0  0  0  0  0  0  0  0  0  0
  148.4933  143.0371  155.5534 H   0  0  0  0  0  0  0  0  0  0  0  0
  1  2  1  0  0  0  0
  1 21  1  0  0  0  0
  1 22  1  0  0  0  0
  1 23  1  0  0  0  0
  2 20  1  0  0  0  0
  2  3  1  0  0  0  0
  2 24  1  0  0  0  0
  3  4  1  0  0  0  0
  3 25  1  0  0  0  0
  3 26  1  0  0  0  0
  4  5  1  0  0  0  0
  4 27  1  0  0  0  0
  4 28  1  0  0  0  0
  5  6  1  0  0  0  0
  5 29  1  0  0  0  0
  5 30  1  0  0  0  0
  6  7  1  0  0  0  0
  6 20  1  0  0  0  0
  7  8  2  0  0  0  0
  7  9  1  0  0  0  0
  9 10  1  0  0  0  0
  9 31  1  0  0  0  0
 10 11  1  0  0  0  0
 10 32  1  0  0  0  0
 10 33  1  0  0  0  0
 11 12  1  0  0  0  0
 11 34  1  0  0  0  0
 11 35  1  0  0  0  0
 12 16  1  0  0  0  0
 12 13  2  0  0  0  0
 13 14  1  0  0  0  0
 13 41  1  0  0  0  0
 14 15  2  0  0  0  0
 14 36  1  0  0  0  0
 15 16  1  0  0  0  0
 15 37  1  0  0  0  0
 16 17  1  0  0  0  0
 17 18  1  0  0  0  0
 17 19  1  0  0  0  0
 17 38  1  0  0  0  0
 20 39  1  0  0  0  0
 20 40  1  0  0  0  0
M  CHG  1  13   1
M  END
> <s_m_source_file>
AV-unprocessed.smi

> <i_m_source_file_index>
1049

> <i_lp_mmshare_version>
43012

> <i_f3d_flags>
0

> <s_epik_input>
W0NIM11bQ0BASF0xW0NIMl1bQ0gyXVtDSDJdTihbQ0gyXTEpQyg9TylbTkhdW0NIMl1bQ0gyXWMybltjSF1bY0hdbjJbQ0hdKEYpRg==

> <s_epik_cmdline>
J2VwaWtfcHl0aG9uJywgJy1waCcsICc3LjAnLCAnLXRuJywgJzgnLCAnLW1hJywgJzIwMCcsICctbWV0YWxfYmluZGluZycsICctaW1hZScsICc8aW5maWxlLm1hZT4nLCAnLW9tYWUnLCAnPG91dGZpbGUubWFlPic=

> <r_lp_tautomer_probability>
1

> <r_epik_Ionization_Penalty>
1.09766

> <r_epik_Ionization_Penalty_Charging>
0

> <r_epik_Ionization_Penalty_Neutral>
1.09766

> <r_epik_State_Penalty>
1.15444

> <r_epik_Charging_Adjusted_Penalty>
1.15444

> <i_epik_Tot_Q>
1

> <i_epik_Tot_abs_Q>
1

> <r_epik_Metal_State_Penalty>
1.24204

> <b_epik_Metal_Only>
0

> <s_lp_Force_Field>
OPLS_2005

> <r_lp_Energy>
35.939

> <b_lp_Chiralities_Consistent>
1

> <s_lp_Variant>
AV-unprocessed.smi:1049-4

> <Gold.Version>
5.8.1

> <Gold.Id.Protein>
6NUR|6NUR_protein|mol2

> <Gold.PLP.Fitness>
51.6025

> <Gold.PLP.PLP>
-41.3668

> <Gold.PLP.part.hbond>
-2.0000

> <Gold.PLP.part.metal>
0.0000

> <Gold.PLP.part.buried>
-5.8420

> <Gold.PLP.part.nonpolar>
-32.7853

> <Gold.PLP.part.repulsive>
0.2329

> <Gold.PLP.ligand.clash>
0.1234

> <Gold.PLP.ligand.torsion>
0.5074

> <Gold.PLP.Chemscore.Hbond>
2.7722

> <Gold.PLP.Chemscore.CHOScore>
1.0000

> <Gold.PLP.Chemscore.Metal>
0.0000

> <Gold.Chemscore.Hbonds>
donor molecule, donor type, donor heavy atom, donor atom, acceptor molecule, acceptor atom, score
      L1  H    13    41       P1  8028  1.98
      P1  H  7997  8008       L1     8  0.85
      L1  C    15    37       P1 10175  1.00

> <Gold.PLP.Chemscore.Internal.Correction>
0.0573

> <Gold.Rescore>
     Score         DG    S(hbond)    S(metal)    S(lipo)     H(rot)  DE(clash)    DE(int)     intcor
     18.10     -18.61       1.84        0.00      94.82       1.61       0.06       0.45       ----

> <Gold.Chemscore.Fitness>
18.1010

> <Gold.Chemscore.DG>
-18.6101

> <Gold.Chemscore.ZeroCoef>
-5.4800

> <Gold.Chemscore.Hbond>
1.8400

> <Gold.Chemscore.Metal>
0.0000

> <Gold.Chemscore.Lipo>
94.8177

> <Gold.Chemscore.Internal_Hbond>
0.0000

> <Gold.Chemscore.DEClash>
0.0582

> <Gold.Chemscore.DEInternal>
0.4508

> <Gold.Chemscore.Rot>
1.6051

> <Gold.Chemscore.Internal.Correction>
   9.000000E+99

> <Gold.Chemscore.Hbonds>
donor molecule, donor type, donor heavy atom, donor atom, acceptor molecule, acceptor atom, score
      L1  H    13    41       P1  8028  0.93
      P1  H  7997  8008       L1     8  0.76

> <Gold.Chemscore.Hbond.Weighted>
-6.1456

> <Gold.Chemscore.Metal.Weighted>
-0.0000

> <Gold.Chemscore.Lipo.Weighted>
-11.0937

> <Gold.Chemscore.Internal_Hbond.Weighted>
0.0000

> <Gold.Chemscore.DEClash.Weighted>
0.0582

> <Gold.Chemscore.DEInternal.Weighted>
0.4508

> <Gold.Chemscore.Rot.Weighted>
4.1092

> <Gold.Chemscore.Internal.Correction.Weighted>
   9.000000E+99

> <Gold.Protein.RotatedTorsions>
[ 6907 6896 6895 6894 ] final  175.32 input  -60.11 | X-H torsion
[ 7974 7965 7964 7962 ] final -125.00 input  175.53 | X-H torsion
[ 8008 7997 7996 7995 ] final  -78.81 input   59.86 | X-H torsion
[ 10167 10162 10161 10158 ] final  -94.63 input  -65.29 | X-H torsion
[ 10718 10713 10712 10709 ] final  -82.18 input   66.30 | X-H torsion
[ 10763 10752 10751 10750 ] final -169.18 input  -60.55 | X-H torsion
[ 11005 11000 10999 10996 ] final -173.10 input  -57.11 | X-H torsion

> <Gold.Protein.ActiveResidues>
 VAL166  LYS551  ARG553  GLY616  TRP617  ASP618  TYR619  PRO620  LYS621  CYS622 
 ASP623  PHE694  ASN695  SER759  ASP760  ASP761  ALA762  ILE779  LEU786  VAL792 
 PHE793  MET794  SER795  GLU796  ALA797  LYS798  CYS799  TRP800  GLU811  SER814 

> <Gold.Protein.RotatedAtoms>
  151.7381  133.3320  159.3358 H   0  0  0  0  0  0  0  0  0  0  0  0  # atno 6907 bound_to 6896
  150.7585  134.6303  159.6192 H   0  0  0  0  0  0  0  0  0  0  0  0  # atno 6908 bound_to 6896
  152.3548  134.6957  160.0277 H   0  0  0  0  0  0  0  0  0  0  0  0  # atno 6909 bound_to 6896
  145.0021  140.7830  143.4490 H   0  0  0  0  0  0  0  0  0  0  0  0  # atno 7974 bound_to 7965
  154.5725  140.0688  156.8985 H   0  0  0  0  0  0  0  0  0  0  0  0  # atno 8008 bound_to 7997
  155.2609  140.3358  155.4255 H   0  0  0  0  0  0  0  0  0  0  0  0  # atno 8009 bound_to 7997
  156.2129  140.1766  156.7640 H   0  0  0  0  0  0  0  0  0  0  0  0  # atno 8010 bound_to 7997
  140.3124  143.3097  152.0134 H   0  0  0  0  0  0  0  0  0  0  0  0  # atno 10167 bound_to 10162
  156.0037  130.4626  150.4066 H   0  0  0  0  0  0  0  0  0  0  0  0  # atno 10718 bound_to 10713
  154.6550  135.2916  154.9939 H   0  0  0  0  0  0  0  0  0  0  0  0  # atno 10763 bound_to 10752
  154.1019  135.6575  153.4873 H   0  0  0  0  0  0  0  0  0  0  0  0  # atno 10764 bound_to 10752
  153.0397  135.5244  154.7475 H   0  0  0  0  0  0  0  0  0  0  0  0  # atno 10765 bound_to 10752
  140.4895  134.5998  157.4949 H   0  0  0  0  0  0  0  0  0  0  0  0  # atno 11005 bound_to 11000
  145.2138  139.2191  143.5129 LP  0  0  0  0  0  0  0  0  0  0  0  0  # atno 17320 bound_to 7965
  146.3454  140.1982  142.8589 LP  0  0  0  0  0  0  0  0  0  0  0  0  # atno 17321 bound_to 7965
  139.4891  144.6374  151.6947 LP  0  0  0  0  0  0  0  0  0  0  0  0  # atno 17342 bound_to 10162
  140.5556  144.0353  150.6146 LP  0  0  0  0  0  0  0  0  0  0  0  0  # atno 17343 bound_to 10162
  157.2131  131.0465  151.2588 LP  0  0  0  0  0  0  0  0  0  0  0  0  # atno 17370 bound_to 10713
  157.3870  130.7261  149.6670 LP  0  0  0  0  0  0  0  0  0  0  0  0  # atno 17371 bound_to 10713
  139.9778  134.7187  155.9917 LP  0  0  0  0  0  0  0  0  0  0  0  0  # atno 17394 bound_to 11000
  141.1491  133.6551  156.3958 LP  0  0  0  0  0  0  0  0  0  0  0  0  # atno 17395 bound_to 11000

$$$$
