AV-unprocessed.smi:236|AV-procd|sdf|1816|dock1
  -GOLD-   2262020403D 1   1.00000     0.00000
 Structure written by MMmdl.
 58 62  0  0  0  0  0  0  0  0  1 V2000
  144.2001  134.3348  162.5338 C   0  0  0  0  0  0  0  0  0  0  0  0
  145.6331  133.7829  162.5213 C   0  0  1  0  0  0  0  0  0  0  0  0
  145.6989  132.5641  161.7856 O   0  0  0  0  0  0  0  0  0  0  0  0
  146.9596  132.4530  161.1308 C   0  0  0  0  0  0  0  0  0  0  0  0
  147.7856  133.6401  161.6183 C   0  0  0  0  0  0  0  0  0  0  0  0
  146.7210  134.6893  161.9145 C   0  0  2  0  0  0  0  0  0  0  0  0
  147.2194  135.5818  162.8930 O   0  0  0  0  0  0  0  0  0  0  0  0
  146.2587  135.4862  160.6630 C   0  0  0  0  0  0  0  0  0  0  0  0
  147.3118  136.2753  160.0433 N   0  0  0  0  0  0  0  0  0  0  0  0
  148.6552  136.2390  160.3417 C   0  0  0  0  0  0  0  0  0  0  0  0
  149.4012  137.0550  159.6485 N   0  0  0  0  0  0  0  0  0  0  0  0
  148.5089  137.6878  158.7902 C   0  0  0  0  0  0  0  0  0  0  0  0
  148.6392  138.6835  157.7799 C   0  0  0  0  0  0  0  0  0  0  0  0
  149.8311  139.2402  157.4425 N   0  0  0  0  0  0  0  0  0  0  0  0
  150.6860  138.5127  156.5073 C   0  0  0  0  0  0  0  0  0  0  0  0
  151.8431  139.4091  156.0404 C   0  0  0  0  0  0  0  0  0  0  0  0
  152.5490  139.8979  157.1757 O   0  0  0  0  0  0  0  0  0  0  0  0
  151.7275  140.7065  158.0148 C   0  0  2  0  0  0  0  0  0  0  0  0
  152.5975  141.2594  159.1505 C   0  0  0  0  0  0  0  0  0  0  0  0
  151.7920  142.0606  159.9991 O   0  0  0  0  0  0  0  0  0  0  0  0
  152.4650  143.2195  160.4586 C   0  0  0  0  0  0  0  0  0  0  0  0
  152.7634  144.1170  159.2766 C   0  0  0  0  0  0  0  0  0  0  0  0
  151.8876  145.3136  158.9823 C   0  0  0  0  0  0  0  0  0  0  0  0
  151.8621  144.1189  158.0629 C   0  0  0  0  0  0  0  0  0  0  0  0
  150.5708  139.8394  158.5494 C   0  0  0  0  0  0  0  0  0  0  0  0
  147.5025  139.0780  157.1446 N   0  0  0  0  0  0  0  0  0  0  0  0
  146.3247  138.5328  157.4620 C   0  0  0  0  0  0  0  0  0  0  0  0
  146.0576  137.5968  158.3740 N   0  0  0  0  0  0  0  0  0  0  0  0
  147.1898  137.2052  159.0253 C   0  0  0  0  0  0  0  0  0  0  0  0
  144.1512  135.2855  163.0651 H   0  0  0  0  0  0  0  0  0  0  0  0
  143.5256  133.6404  163.0351 H   0  0  0  0  0  0  0  0  0  0  0  0
  143.8170  134.4889  161.5250 H   0  0  0  0  0  0  0  0  0  0  0  0
  145.9162  133.5327  163.5456 H   0  0  0  0  0  0  0  0  0  0  0  0
  147.4389  131.4989  161.3507 H   0  0  0  0  0  0  0  0  0  0  0  0
  146.8000  132.5114  160.0537 H   0  0  0  0  0  0  0  0  0  0  0  0
  148.2991  133.3550  162.5383 H   0  0  0  0  0  0  0  0  0  0  0  0
  148.5512  133.9517  160.9093 H   0  0  0  0  0  0  0  0  0  0  0  0
  147.8053  135.1069  163.4626 H   0  0  0  0  0  0  0  0  0  0  0  0
  145.8558  134.8098  159.9082 H   0  0  0  0  0  0  0  0  0  0  0  0
  145.4463  136.1655  160.9240 H   0  0  0  0  0  0  0  0  0  0  0  0
  149.0654  135.5928  161.1043 H   0  0  0  0  0  0  0  0  0  0  0  0
  151.0823  137.6202  156.9937 H   0  0  0  0  0  0  0  0  0  0  0  0
  150.1062  138.1849  155.6434 H   0  0  0  0  0  0  0  0  0  0  0  0
  152.5287  138.8407  155.4120 H   0  0  0  0  0  0  0  0  0  0  0  0
  151.4749  140.2417  155.4390 H   0  0  0  0  0  0  0  0  0  0  0  0
  151.3206  141.5415  157.4410 H   0  0  0  0  0  0  0  0  0  0  0  0
  153.0171  140.4350  159.7297 H   0  0  0  0  0  0  0  0  0  0  0  0
  153.4317  141.8361  158.7476 H   0  0  0  0  0  0  0  0  0  0  0  0
  151.8514  143.7541  161.1856 H   0  0  0  0  0  0  0  0  0  0  0  0
  153.4045  142.9502  160.9434 H   0  0  0  0  0  0  0  0  0  0  0  0
  153.8265  144.2475  159.0825 H   0  0  0  0  0  0  0  0  0  0  0  0
  151.0178  145.4759  159.6158 H   0  0  0  0  0  0  0  0  0  0  0  0
  152.3764  146.2164  158.6212 H   0  0  0  0  0  0  0  0  0  0  0  0
  152.3340  144.2233  157.0880 H   0  0  0  0  0  0  0  0  0  0  0  0
  150.9784  143.4843  158.0872 H   0  0  0  0  0  0  0  0  0  0  0  0
  149.9226  140.4504  159.1762 H   0  0  0  0  0  0  0  0  0  0  0  0
  150.9614  139.0417  159.1830 H   0  0  0  0  0  0  0  0  0  0  0  0
  145.4749  138.9007  156.9061 H   0  0  0  0  0  0  0  0  0  0  0  0
  1  2  1  0  0  0  0
  1 30  1  0  0  0  0
  1 31  1  0  0  0  0
  1 32  1  0  0  0  0
  2  6  1  0  0  0  0
  2  3  1  0  0  0  0
  2 33  1  0  0  0  0
  3  4  1  0  0  0  0
  4  5  1  0  0  0  0
  4 34  1  0  0  0  0
  4 35  1  0  0  0  0
  5  6  1  0  0  0  0
  5 36  1  0  0  0  0
  5 37  1  0  0  0  0
  6  7  1  0  0  0  0
  6  8  1  0  0  0  0
  7 38  1  0  0  0  0
  8  9  1  0  0  0  0
  8 39  1  0  0  0  0
  8 40  1  0  0  0  0
  9 29  1  0  0  0  0
  9 10  1  0  0  0  0
 10 11  2  0  0  0  0
 10 41  1  0  0  0  0
 11 12  1  0  0  0  0
 12 29  2  0  0  0  0
 12 13  1  0  0  0  0
 13 14  1  0  0  0  0
 13 26  2  0  0  0  0
 14 25  1  0  0  0  0
 14 15  1  0  0  0  0
 15 16  1  0  0  0  0
 15 42  1  0  0  0  0
 15 43  1  0  0  0  0
 16 17  1  0  0  0  0
 16 44  1  0  0  0  0
 16 45  1  0  0  0  0
 17 18  1  0  0  0  0
 18 19  1  0  0  0  0
 18 25  1  0  0  0  0
 18 46  1  0  0  0  0
 19 20  1  0  0  0  0
 19 47  1  0  0  0  0
 19 48  1  0  0  0  0
 20 21  1  0  0  0  0
 21 22  1  0  0  0  0
 21 49  1  0  0  0  0
 21 50  1  0  0  0  0
 22 24  1  0  0  0  0
 22 23  1  0  0  0  0
 22 51  1  0  0  0  0
 23 24  1  0  0  0  0
 23 52  1  0  0  0  0
 23 53  1  0  0  0  0
 24 54  1  0  0  0  0
 24 55  1  0  0  0  0
 25 56  1  0  0  0  0
 25 57  1  0  0  0  0
 26 27  1  0  0  0  0
 27 28  2  0  0  0  0
 27 58  1  0  0  0  0
 28 29  1  0  0  0  0
M  END
> <s_m_source_file>
AV-unprocessed.smi

> <i_m_source_file_index>
236

> <i_lp_mmshare_version>
43012

> <i_f3d_flags>
0

> <s_epik_input>
W0NIMl0xW0NIMl1PW0NAQEhdKFtDSDNdKVtDQEBdMShbT0hdKVtDSDJdbihbY0hdbjIpYyhjMjMpbltjSF1uYzNONFtDSDJdW0NIMl1PW0NASF0oW0NIMl00KVtDSDJdT1tDSDJdW0NIXTVbQ0gyXVtDSDJdNQ==

> <s_epik_cmdline>
J2VwaWtfcHl0aG9uJywgJy1waCcsICc3LjAnLCAnLXRuJywgJzgnLCAnLW1hJywgJzIwMCcsICctbWV0YWxfYmluZGluZycsICctaW1hZScsICc8aW5maWxlLm1hZT4nLCAnLW9tYWUnLCAnPG91dGZpbGUubWFlPic=

> <r_lp_tautomer_probability>
1

> <r_epik_Ionization_Penalty>
7.21838e-05

> <r_epik_Ionization_Penalty_Charging>
0

> <r_epik_Ionization_Penalty_Neutral>
7.21838e-05

> <r_epik_State_Penalty>
-0

> <r_epik_Charging_Adjusted_Penalty>
0

> <i_epik_Tot_Q>
0

> <i_epik_Tot_abs_Q>
0

> <r_epik_Metal_State_Penalty>
-0

> <b_epik_Metal_Only>
0

> <s_lp_Force_Field>
OPLS_2005

> <r_lp_Energy>
48.2383

> <b_lp_Chiralities_Consistent>
1

> <s_lp_Variant>
AV-unprocessed.smi:236-8

> <Gold.Version>
5.8.1

> <Gold.Id.Protein>
6NUR|6NUR_protein|mol2

> <Gold.PLP.Fitness>
50.1332

> <Gold.PLP.PLP>
-48.5016

> <Gold.PLP.part.hbond>
-2.0815

> <Gold.PLP.part.metal>
0.0000

> <Gold.PLP.part.buried>
-8.2625

> <Gold.PLP.part.nonpolar>
-39.0332

> <Gold.PLP.part.repulsive>
0.0647

> <Gold.PLP.ligand.clash>
0.0000

> <Gold.PLP.ligand.torsion>
1.1758

> <Gold.PLP.Chemscore.Hbond>
1.0000

> <Gold.PLP.Chemscore.CHOScore>
0.0000

> <Gold.PLP.Chemscore.Metal>
0.0000

> <Gold.Chemscore.Hbonds>
donor molecule, donor type, donor heavy atom, donor atom, acceptor molecule, acceptor atom, score
      P1  H  7997  8009       L1    17  1.00

> <Gold.PLP.Chemscore.Internal.Correction>
0.9831

> <Gold.Rescore>
     Score         DG    S(hbond)    S(metal)    S(lipo)     H(rot)  DE(clash)    DE(int)     intcor
     13.73     -16.17       0.91        0.00     128.11       2.87       0.02       2.43       ----

> <Gold.Chemscore.Fitness>
13.7270

> <Gold.Chemscore.DG>
-16.1717

> <Gold.Chemscore.ZeroCoef>
-5.4800

> <Gold.Chemscore.Hbond>
0.9098

> <Gold.Chemscore.Metal>
0.0000

> <Gold.Chemscore.Lipo>
128.1082

> <Gold.Chemscore.Internal_Hbond>
0.0000

> <Gold.Chemscore.DEClash>
0.0174

> <Gold.Chemscore.DEInternal>
2.4272

> <Gold.Chemscore.Rot>
2.8655

> <Gold.Chemscore.Internal.Correction>
   9.000000E+99

> <Gold.Chemscore.Hbonds>
donor molecule, donor type, donor heavy atom, donor atom, acceptor molecule, acceptor atom, score
      P1  H  7997  8009       L1    17  0.80

> <Gold.Chemscore.Hbond.Weighted>
-3.0388

> <Gold.Chemscore.Metal.Weighted>
-0.0000

> <Gold.Chemscore.Lipo.Weighted>
-14.9887

> <Gold.Chemscore.Internal_Hbond.Weighted>
0.0000

> <Gold.Chemscore.DEClash.Weighted>
0.0174

> <Gold.Chemscore.DEInternal.Weighted>
2.4272

> <Gold.Chemscore.Rot.Weighted>
7.3358

> <Gold.Chemscore.Internal.Correction.Weighted>
   9.000000E+99

> <Gold.Protein.RotatedTorsions>
[ 6907 6896 6895 6894 ] final    8.38 input  -60.11 | X-H torsion
[ 7974 7965 7964 7962 ] final -118.71 input  175.53 | X-H torsion
[ 8008 7997 7996 7995 ] final  164.12 input   59.86 | X-H torsion
[ 10167 10162 10161 10158 ] final  -54.87 input  -65.29 | X-H torsion
[ 10718 10713 10712 10709 ] final   28.79 input   66.30 | X-H torsion
[ 10763 10752 10751 10750 ] final -171.90 input  -60.55 | X-H torsion
[ 11005 11000 10999 10996 ] final    6.39 input  -57.11 | X-H torsion

> <Gold.Protein.ActiveResidues>
 VAL166  LYS551  ARG553  GLY616  TRP617  ASP618  TYR619  PRO620  LYS621  CYS622 
 ASP623  PHE694  ASN695  SER759  ASP760  ASP761  ALA762  ILE779  LEU786  VAL792 
 PHE793  MET794  SER795  GLU796  ALA797  LYS798  CYS799  TRP800  GLU811  SER814 

> <Gold.Protein.RotatedAtoms>
  151.7052  135.0923  160.0257 H   0  0  0  0  0  0  0  0  0  0  0  0  # atno 6907 bound_to 6896
  152.3696  133.6397  159.6085 H   0  0  0  0  0  0  0  0  0  0  0  0  # atno 6908 bound_to 6896
  150.7663  133.9208  159.3439 H   0  0  0  0  0  0  0  0  0  0  0  0  # atno 6909 bound_to 6896
  145.0707  140.8357  143.4097 H   0  0  0  0  0  0  0  0  0  0  0  0  # atno 7974 bound_to 7965
  156.1905  140.1705  156.8101 H   0  0  0  0  0  0  0  0  0  0  0  0  # atno 8008 bound_to 7997
  154.5465  140.0726  156.8630 H   0  0  0  0  0  0  0  0  0  0  0  0  # atno 8009 bound_to 7997
  155.3111  140.3367  155.4246 H   0  0  0  0  0  0  0  0  0  0  0  0  # atno 8010 bound_to 7997
  140.6407  143.2506  151.4998 H   0  0  0  0  0  0  0  0  0  0  0  0  # atno 10167 bound_to 10162
  157.2381  130.7056  149.6345 H   0  0  0  0  0  0  0  0  0  0  0  0  # atno 10718 bound_to 10713
  154.6253  135.2880  155.0279 H   0  0  0  0  0  0  0  0  0  0  0  0  # atno 10763 bound_to 10752
  154.1460  135.6511  153.4956 H   0  0  0  0  0  0  0  0  0  0  0  0  # atno 10764 bound_to 10752
  153.0254  135.5344  154.7059 H   0  0  0  0  0  0  0  0  0  0  0  0  # atno 10765 bound_to 10752
  140.5600  134.0202  155.7968 H   0  0  0  0  0  0  0  0  0  0  0  0  # atno 11005 bound_to 11000
  145.1296  139.2640  143.5546 LP  0  0  0  0  0  0  0  0  0  0  0  0  # atno 17320 bound_to 7965
  146.3528  140.0943  142.8611 LP  0  0  0  0  0  0  0  0  0  0  0  0  # atno 17321 bound_to 7965
  139.5616  144.2143  152.1700 LP  0  0  0  0  0  0  0  0  0  0  0  0  # atno 17342 bound_to 10162
  140.1412  144.5200  150.6743 LP  0  0  0  0  0  0  0  0  0  0  0  0  # atno 17343 bound_to 10162
  155.9671  130.4467  150.5551 LP  0  0  0  0  0  0  0  0  0  0  0  0  # atno 17370 bound_to 10713
  157.3408  131.0716  151.1790 LP  0  0  0  0  0  0  0  0  0  0  0  0  # atno 17371 bound_to 10713
  141.1120  133.9600  157.2892 LP  0  0  0  0  0  0  0  0  0  0  0  0  # atno 17394 bound_to 11000
  139.9413  135.0190  156.8715 LP  0  0  0  0  0  0  0  0  0  0  0  0  # atno 17395 bound_to 11000

$$$$
