AV-unprocessed.smi:227|AV-procd|sdf|1738|dock3
  -GOLD-   2262020243D 1   1.00000     0.00000
 Structure written by MMmdl.
 54 58  0  0  0  0  0  0  0  0  1 V2000
  150.7959  140.4880  154.8513 O   0  0  0  0  0  0  0  0  0  0  0  0
  149.9717  141.0138  155.8716 C   0  0  0  0  0  0  0  0  0  0  0  0
  150.4345  140.5406  157.2710 C   0  0  1  0  0  0  0  0  0  0  0  0
  150.8100  139.0338  157.1972 C   0  0  0  0  0  0  0  0  0  0  0  0
  150.2103  138.2035  158.2265 N   0  0  0  0  0  0  0  0  0  0  0  0
  150.8651  137.5676  159.2561 C   0  0  0  0  0  0  0  0  0  0  0  0
  150.1014  136.8701  160.0511 N   0  0  0  0  0  0  0  0  0  0  0  0
  148.8236  137.0209  159.5240 C   0  0  0  0  0  0  0  0  0  0  0  0
  147.5309  136.5398  159.8841 C   0  0  0  0  0  0  0  0  0  0  0  0
  147.2902  135.7510  160.9673 N   0  0  0  0  0  0  0  0  0  0  0  0
  147.7419  136.1607  162.2871 C   0  0  1  0  0  0  0  0  0  0  0  0
  146.7632  137.2827  162.6862 C   0  0  0  0  0  0  0  0  0  0  0  0
  145.4580  136.7848  162.0459 C   0  0  0  0  0  0  0  0  0  0  0  0
  145.9261  135.4651  161.3945 C   0  0  2  0  0  0  0  0  0  0  0  0
  146.1284  134.4109  162.5055 C   0  0  1  0  0  0  0  0  0  0  0  0
  146.2241  132.9686  161.9754 C   0  0  0  0  0  0  0  0  0  0  0  0
  144.9385  132.4708  161.6708 O   0  0  0  0  0  0  0  0  0  0  0  0
  147.4482  134.9083  163.1296 C   0  0  0  0  0  0  0  0  0  0  0  0
  146.4947  136.8770  159.0705 N   0  0  0  0  0  0  0  0  0  0  0  0
  146.6942  137.6515  158.0009 C   0  0  0  0  0  0  0  0  0  0  0  0
  147.8333  138.1865  157.5605 N   0  0  0  0  0  0  0  0  0  0  0  0
  148.8819  137.8395  158.3593 C   0  0  0  0  0  0  0  0  0  0  0  0
  151.5869  141.4315  157.8261 C   0  0  1  0  0  0  0  0  0  0  0  0
  151.2762  142.9196  157.9019 C   0  0  0  0  0  0  0  0  0  0  0  0
  152.3309  143.4238  158.8746 C   0  0  0  0  0  0  0  0  0  0  0  0
  152.4228  142.3987  159.8497 O   0  0  0  0  0  0  0  0  0  0  0  0
  151.9969  141.1618  159.2855 C   0  0  0  0  0  0  0  0  0  0  0  0
  151.2561  139.7365  155.1925 H   0  0  0  0  0  0  0  0  0  0  0  0
  149.9688  142.1026  155.8101 H   0  0  0  0  0  0  0  0  0  0  0  0
  148.9602  140.6780  155.6482 H   0  0  0  0  0  0  0  0  0  0  0  0
  149.5811  140.6542  157.9410 H   0  0  0  0  0  0  0  0  0  0  0  0
  150.5077  138.6102  156.2393 H   0  0  0  0  0  0  0  0  0  0  0  0
  151.8936  138.9203  157.2499 H   0  0  0  0  0  0  0  0  0  0  0  0
  151.9316  137.6475  159.4084 H   0  0  0  0  0  0  0  0  0  0  0  0
  148.7860  136.4594  162.3591 H   0  0  0  0  0  0  0  0  0  0  0  0
  146.6855  137.4087  163.7668 H   0  0  0  0  0  0  0  0  0  0  0  0
  147.0645  138.2377  162.2534 H   0  0  0  0  0  0  0  0  0  0  0  0
  144.6572  136.6381  162.7713 H   0  0  0  0  0  0  0  0  0  0  0  0
  145.1036  137.4932  161.2963 H   0  0  0  0  0  0  0  0  0  0  0  0
  145.2605  135.1211  160.6019 H   0  0  0  0  0  0  0  0  0  0  0  0
  145.3220  134.4605  163.2389 H   0  0  0  0  0  0  0  0  0  0  0  0
  146.8522  132.9167  161.0854 H   0  0  0  0  0  0  0  0  0  0  0  0
  146.6735  132.3188  162.7270 H   0  0  0  0  0  0  0  0  0  0  0  0
  144.7489  131.7520  162.2543 H   0  0  0  0  0  0  0  0  0  0  0  0
  148.2463  134.1744  163.0091 H   0  0  0  0  0  0  0  0  0  0  0  0
  147.3558  135.1299  164.1933 H   0  0  0  0  0  0  0  0  0  0  0  0
  145.8147  137.8760  157.4158 H   0  0  0  0  0  0  0  0  0  0  0  0
  152.4662  141.3111  157.1910 H   0  0  0  0  0  0  0  0  0  0  0  0
  151.3372  143.4233  156.9367 H   0  0  0  0  0  0  0  0  0  0  0  0
  150.2795  143.0831  158.3145 H   0  0  0  0  0  0  0  0  0  0  0  0
  153.2951  143.5274  158.3751 H   0  0  0  0  0  0  0  0  0  0  0  0
  152.0708  144.3833  159.3220 H   0  0  0  0  0  0  0  0  0  0  0  0
  151.1550  140.7979  159.8752 H   0  0  0  0  0  0  0  0  0  0  0  0
  152.8006  140.4304  159.3569 H   0  0  0  0  0  0  0  0  0  0  0  0
  1  2  1  0  0  0  0
  1 28  1  0  0  0  0
  2  3  1  0  0  0  0
  2 29  1  0  0  0  0
  2 30  1  0  0  0  0
  3  4  1  0  0  0  0
  3 23  1  0  0  0  0
  3 31  1  0  0  0  0
  4  5  1  0  0  0  0
  4 32  1  0  0  0  0
  4 33  1  0  0  0  0
  5 22  1  0  0  0  0
  5  6  1  0  0  0  0
  6  7  2  0  0  0  0
  6 34  1  0  0  0  0
  7  8  1  0  0  0  0
  8 22  2  0  0  0  0
  8  9  1  0  0  0  0
  9 10  1  0  0  0  0
  9 19  2  0  0  0  0
 10 14  1  0  0  0  0
 10 11  1  0  0  0  0
 11 18  1  0  0  0  0
 11 12  1  0  0  0  0
 11 35  1  0  0  0  0
 12 13  1  0  0  0  0
 12 36  1  0  0  0  0
 12 37  1  0  0  0  0
 13 14  1  0  0  0  0
 13 38  1  0  0  0  0
 13 39  1  0  0  0  0
 14 15  1  0  0  0  0
 14 40  1  0  0  0  0
 15 16  1  0  0  0  0
 15 18  1  0  0  0  0
 15 41  1  0  0  0  0
 16 17  1  0  0  0  0
 16 42  1  0  0  0  0
 16 43  1  0  0  0  0
 17 44  1  0  0  0  0
 18 45  1  0  0  0  0
 18 46  1  0  0  0  0
 19 20  1  0  0  0  0
 20 21  2  0  0  0  0
 20 47  1  0  0  0  0
 21 22  1  0  0  0  0
 23 27  1  0  0  0  0
 23 24  1  0  0  0  0
 23 48  1  0  0  0  0
 24 25  1  0  0  0  0
 24 49  1  0  0  0  0
 24 50  1  0  0  0  0
 25 26  1  0  0  0  0
 25 51  1  0  0  0  0
 25 52  1  0  0  0  0
 26 27  1  0  0  0  0
 27 53  1  0  0  0  0
 27 54  1  0  0  0  0
M  END
> <s_m_source_file>
AV-unprocessed.smi

> <i_m_source_file_index>
227

> <i_lp_mmshare_version>
43012

> <i_f3d_flags>
0

> <s_epik_input>
W0NIMl0xT1tDSDJdW0NIMl1bQ0BIXTFbQ0BIXShbQ0gyXVtPSF0pW0NIMl1uKFtjSF1uMiljKGMyMyluW2NIXW5jM04oW0NASF00NSlbQ0BASF0oW0NIMl1bQ0gyXTQpW0NASF0oW0NIMl01KVtDSDJdW09IXQ==

> <s_epik_cmdline>
J2VwaWtfcHl0aG9uJywgJy1waCcsICc3LjAnLCAnLXRuJywgJzgnLCAnLW1hJywgJzIwMCcsICctbWV0YWxfYmluZGluZycsICctaW1hZScsICc8aW5maWxlLm1hZT4nLCAnLW9tYWUnLCAnPG91dGZpbGUubWFlPic=

> <r_lp_tautomer_probability>
1

> <r_epik_Ionization_Penalty>
0.0055791

> <r_epik_Ionization_Penalty_Charging>
0

> <r_epik_Ionization_Penalty_Neutral>
0.0055791

> <r_epik_State_Penalty>
0.00401299

> <r_epik_Charging_Adjusted_Penalty>
0.00401299

> <i_epik_Tot_Q>
0

> <i_epik_Tot_abs_Q>
0

> <r_epik_Metal_State_Penalty>
-0

> <b_epik_Metal_Only>
0

> <s_lp_Force_Field>
OPLS_2005

> <r_lp_Energy>
89.2194

> <b_lp_Chiralities_Consistent>
1

> <s_lp_Variant>
AV-unprocessed.smi:227-12

> <Gold.Version>
5.8.1

> <Gold.Id.Protein>
6NUR|6NUR_protein|mol2

> <Gold.PLP.Fitness>
48.7204

> <Gold.PLP.PLP>
-45.1557

> <Gold.PLP.part.hbond>
-2.6389

> <Gold.PLP.part.metal>
0.0000

> <Gold.PLP.part.buried>
-6.6540

> <Gold.PLP.part.nonpolar>
-36.7747

> <Gold.PLP.part.repulsive>
0.0000

> <Gold.PLP.ligand.clash>
0.0000

> <Gold.PLP.ligand.torsion>
1.2441

> <Gold.PLP.Chemscore.Hbond>
1.9588

> <Gold.PLP.Chemscore.CHOScore>
0.0000

> <Gold.PLP.Chemscore.Metal>
0.0000

> <Gold.Chemscore.Hbonds>
donor molecule, donor type, donor heavy atom, donor atom, acceptor molecule, acceptor atom, score
      P1  H  6896  6909       L1     7  0.85
      P1  H  7989  7998       L1     1  1.00

> <Gold.PLP.Chemscore.Internal.Correction>
0.1766

> <Gold.Rescore>
     Score         DG    S(hbond)    S(metal)    S(lipo)     H(rot)  DE(clash)    DE(int)     intcor
     12.01     -13.27       1.17        0.00     112.07       3.61       0.04       1.22       ----

> <Gold.Chemscore.Fitness>
12.0141

> <Gold.Chemscore.DG>
-13.2723

> <Gold.Chemscore.ZeroCoef>
-5.4800

> <Gold.Chemscore.Hbond>
1.1721

> <Gold.Chemscore.Metal>
0.0000

> <Gold.Chemscore.Lipo>
112.0655

> <Gold.Chemscore.Internal_Hbond>
0.0000

> <Gold.Chemscore.DEClash>
0.0352

> <Gold.Chemscore.DEInternal>
1.2230

> <Gold.Chemscore.Rot>
3.6071

> <Gold.Chemscore.Internal.Correction>
   9.000000E+99

> <Gold.Chemscore.Hbonds>
donor molecule, donor type, donor heavy atom, donor atom, acceptor molecule, acceptor atom, score
      P1  H  6896  6909       L1     7  0.18
      P1  H  7989  7998       L1     1  0.43

> <Gold.Chemscore.Hbond.Weighted>
-3.9148

> <Gold.Chemscore.Metal.Weighted>
-0.0000

> <Gold.Chemscore.Lipo.Weighted>
-13.1117

> <Gold.Chemscore.Internal_Hbond.Weighted>
0.0000

> <Gold.Chemscore.DEClash.Weighted>
0.0352

> <Gold.Chemscore.DEInternal.Weighted>
1.2230

> <Gold.Chemscore.Rot.Weighted>
9.2342

> <Gold.Chemscore.Internal.Correction.Weighted>
   9.000000E+99

> <Gold.Protein.RotatedTorsions>
[ 6907 6896 6895 6894 ] final   83.34 input  -60.11 | X-H torsion
[ 7974 7965 7964 7962 ] final  -50.76 input  175.53 | X-H torsion
[ 8008 7997 7996 7995 ] final -146.65 input   59.86 | X-H torsion
[ 10167 10162 10161 10158 ] final  106.71 input  -65.29 | X-H torsion
[ 10718 10713 10712 10709 ] final   32.87 input   66.30 | X-H torsion
[ 10763 10752 10751 10750 ] final  137.62 input  -60.55 | X-H torsion
[ 11005 11000 10999 10996 ] final  176.49 input  -57.11 | X-H torsion

> <Gold.Protein.ActiveResidues>
 VAL166  LYS551  ARG553  GLY616  TRP617  ASP618  TYR619  PRO620  LYS621  CYS622 
 ASP623  PHE694  ASN695  SER759  ASP760  ASP761  ALA762  ILE779  LEU786  VAL792 
 PHE793  MET794  SER795  GLU796  ALA797  LYS798  CYS799  TRP800  GLU811  SER814 

> <Gold.Protein.RotatedAtoms>
  152.5324  134.2910  159.9042 H   0  0  0  0  0  0  0  0  0  0  0  0  # atno 6907 bound_to 6896
  151.2862  133.4180  159.2637 H   0  0  0  0  0  0  0  0  0  0  0  0  # atno 6908 bound_to 6896
  151.0240  134.9506  159.8132 H   0  0  0  0  0  0  0  0  0  0  0  0  # atno 6909 bound_to 6896
  145.9264  140.7789  142.9622 H   0  0  0  0  0  0  0  0  0  0  0  0  # atno 7974 bound_to 7965
  155.5628  140.0627  157.2825 H   0  0  0  0  0  0  0  0  0  0  0  0  # atno 8008 bound_to 7997
  154.4385  140.1882  156.0845 H   0  0  0  0  0  0  0  0  0  0  0  0  # atno 8009 bound_to 7997
  156.0434  140.3293  155.7273 H   0  0  0  0  0  0  0  0  0  0  0  0  # atno 8010 bound_to 7997
  139.6987  144.7097  151.1223 H   0  0  0  0  0  0  0  0  0  0  0  0  # atno 10167 bound_to 10162
  157.2907  130.7301  149.6609 H   0  0  0  0  0  0  0  0  0  0  0  0  # atno 10718 bound_to 10713
  153.8760  135.3050  155.3444 H   0  0  0  0  0  0  0  0  0  0  0  0  # atno 10763 bound_to 10752
  154.7784  135.4849  153.9795 H   0  0  0  0  0  0  0  0  0  0  0  0  # atno 10764 bound_to 10752
  153.1379  135.6818  153.9170 H   0  0  0  0  0  0  0  0  0  0  0  0  # atno 10765 bound_to 10752
  140.3736  134.7008  157.4408 H   0  0  0  0  0  0  0  0  0  0  0  0  # atno 11005 bound_to 11000
  144.6759  140.2057  143.7382 LP  0  0  0  0  0  0  0  0  0  0  0  0  # atno 17320 bound_to 7965
  145.8484  139.2163  143.1787 LP  0  0  0  0  0  0  0  0  0  0  0  0  # atno 17321 bound_to 7965
  140.7703  143.5455  150.9264 LP  0  0  0  0  0  0  0  0  0  0  0  0  # atno 17342 bound_to 10162
  139.9135  143.6691  152.3110 LP  0  0  0  0  0  0  0  0  0  0  0  0  # atno 17343 bound_to 10162
  155.9667  130.4309  150.4899 LP  0  0  0  0  0  0  0  0  0  0  0  0  # atno 17370 bound_to 10713
  157.2861  131.0617  151.2165 LP  0  0  0  0  0  0  0  0  0  0  0  0  # atno 17371 bound_to 10713
  140.0532  134.6100  155.8836 LP  0  0  0  0  0  0  0  0  0  0  0  0  # atno 17394 bound_to 11000
  141.1946  133.6584  156.5604 LP  0  0  0  0  0  0  0  0  0  0  0  0  # atno 17395 bound_to 11000

$$$$
