AV-unprocessed.smi:3030|AV-procd|sdf|11538|dock7
  -GOLD-   2272016483D 1   1.00000     0.00000
 Structure written by MMmdl.
 52 53  0  0  0  0  0  0  0  0  1 V2000
  145.8828  143.4983  153.6726 C   0  0  0  0  0  0  0  0  0  0  0  0
  145.6336  142.2444  154.5180 C   0  0  0  0  0  0  0  0  0  0  0  0
  146.7317  141.2947  154.4112 N   0  0  0  0  0  0  0  0  0  0  0  0
  148.0221  141.6352  154.8038 C   0  0  0  0  0  0  0  0  0  0  0  0
  149.0891  140.8235  154.6740 C   0  0  0  0  0  0  0  0  0  0  0  0
  148.9112  139.4843  154.0773 C   0  0  0  0  0  0  0  0  0  0  0  0
  149.8646  138.7169  153.9444 O   0  0  0  0  0  0  0  0  0  0  0  0
  147.5328  139.1218  153.6525 C   0  0  0  0  0  0  0  0  0  0  0  0
  147.3726  137.8424  153.0953 N   0  0  0  0  0  0  0  0  0  0  0  0
  146.3680  136.9610  153.2509 C   0  0  0  0  0  0  0  0  0  0  0  0
  145.3497  137.1349  153.9198 O   0  0  0  0  0  0  0  0  0  0  0  0
  146.6140  135.8372  152.5631 N   0  0  0  0  0  0  0  0  0  0  0  0
  145.7444  134.6636  152.5091 C   0  0  1  0  0  0  0  0  0  0  0  0
  145.2857  134.4425  151.0531 C   0  0  0  0  0  0  0  0  0  0  0  0
  144.3965  133.1952  150.9104 C   0  0  1  0  0  0  0  0  0  0  0  0
  143.9467  132.9898  149.4566 C   0  0  0  0  0  0  0  0  0  0  0  0
  145.1309  131.9583  151.4539 C   0  0  0  0  0  0  0  0  0  0  0  0
  145.5740  132.1626  152.9103 C   0  0  0  0  0  0  0  0  0  0  0  0
  146.4724  133.4119  153.0717 C   0  0  2  0  0  0  0  0  0  0  0  0
  147.0163  133.5966  154.5206 C   0  0  0  0  0  0  0  0  0  0  0  0
  148.0546  132.5263  154.8992 C   0  0  0  0  0  0  0  0  0  0  0  0
  145.9193  133.6944  155.5969 C   0  0  0  0  0  0  0  0  0  0  0  0
  146.5468  140.0353  153.8440 C   0  0  0  0  0  0  0  0  0  0  0  0
  145.0517  144.1976  153.7630 H   0  0  0  0  0  0  0  0  0  0  0  0
  145.9930  143.2462  152.6174 H   0  0  0  0  0  0  0  0  0  0  0  0
  146.7889  144.0145  153.9911 H   0  0  0  0  0  0  0  0  0  0  0  0
  145.4945  142.5239  155.5631 H   0  0  0  0  0  0  0  0  0  0  0  0
  144.7056  141.7649  154.2046 H   0  0  0  0  0  0  0  0  0  0  0  0
  148.1101  142.6207  155.2379 H   0  0  0  0  0  0  0  0  0  0  0  0
  150.0733  141.1301  154.9964 H   0  0  0  0  0  0  0  0  0  0  0  0
  148.1249  137.5579  152.4847 H   0  0  0  0  0  0  0  0  0  0  0  0
  147.4752  135.7835  152.0392 H   0  0  0  0  0  0  0  0  0  0  0  0
  144.8545  134.8422  153.1145 H   0  0  0  0  0  0  0  0  0  0  0  0
  144.7399  135.3201  150.7031 H   0  0  0  0  0  0  0  0  0  0  0  0
  146.1575  134.3452  150.4043 H   0  0  0  0  0  0  0  0  0  0  0  0
  143.5002  133.3484  151.5134 H   0  0  0  0  0  0  0  0  0  0  0  0
  144.7997  132.8339  148.7955 H   0  0  0  0  0  0  0  0  0  0  0  0
  143.3961  133.8566  149.0903 H   0  0  0  0  0  0  0  0  0  0  0  0
  143.2922  132.1224  149.3665 H   0  0  0  0  0  0  0  0  0  0  0  0
  144.4839  131.0827  151.3896 H   0  0  0  0  0  0  0  0  0  0  0  0
  146.0030  131.7427  150.8348 H   0  0  0  0  0  0  0  0  0  0  0  0
  144.6884  132.2521  153.5397 H   0  0  0  0  0  0  0  0  0  0  0  0
  146.0983  131.2670  153.2410 H   0  0  0  0  0  0  0  0  0  0  0  0
  147.3453  133.2517  152.4361 H   0  0  0  0  0  0  0  0  0  0  0  0
  147.5605  134.5407  154.5489 H   0  0  0  0  0  0  0  0  0  0  0  0
  147.6022  131.5409  155.0101 H   0  0  0  0  0  0  0  0  0  0  0  0
  148.5342  132.7699  155.8477 H   0  0  0  0  0  0  0  0  0  0  0  0
  148.8402  132.4529  154.1467 H   0  0  0  0  0  0  0  0  0  0  0  0
  145.3412  132.7738  155.6726 H   0  0  0  0  0  0  0  0  0  0  0  0
  145.2270  134.5116  155.3966 H   0  0  0  0  0  0  0  0  0  0  0  0
  146.3569  133.8826  156.5776 H   0  0  0  0  0  0  0  0  0  0  0  0
  145.5169  139.8533  153.5825 H   0  0  0  0  0  0  0  0  0  0  0  0
  1  2  1  0  0  0  0
  1 24  1  0  0  0  0
  1 25  1  0  0  0  0
  1 26  1  0  0  0  0
  2  3  1  0  0  0  0
  2 27  1  0  0  0  0
  2 28  1  0  0  0  0
  3 23  1  0  0  0  0
  3  4  1  0  0  0  0
  4  5  2  0  0  0  0
  4 29  1  0  0  0  0
  5  6  1  0  0  0  0
  5 30  1  0  0  0  0
  6  7  2  0  0  0  0
  6  8  1  0  0  0  0
  8  9  1  0  0  0  0
  8 23  2  0  0  0  0
  9 10  1  0  0  0  0
  9 31  1  0  0  0  0
 10 11  2  0  0  0  0
 10 12  1  0  0  0  0
 12 13  1  0  0  0  0
 12 32  1  0  0  0  0
 13 19  1  0  0  0  0
 13 14  1  0  0  0  0
 13 33  1  0  0  0  0
 14 15  1  0  0  0  0
 14 34  1  0  0  0  0
 14 35  1  0  0  0  0
 15 16  1  0  0  0  0
 15 17  1  0  0  0  0
 15 36  1  0  0  0  0
 16 37  1  0  0  0  0
 16 38  1  0  0  0  0
 16 39  1  0  0  0  0
 17 18  1  0  0  0  0
 17 40  1  0  0  0  0
 17 41  1  0  0  0  0
 18 19  1  0  0  0  0
 18 42  1  0  0  0  0
 18 43  1  0  0  0  0
 19 20  1  0  0  0  0
 19 44  1  0  0  0  0
 20 21  1  0  0  0  0
 20 22  1  0  0  0  0
 20 45  1  0  0  0  0
 21 46  1  0  0  0  0
 21 47  1  0  0  0  0
 21 48  1  0  0  0  0
 22 49  1  0  0  0  0
 22 50  1  0  0  0  0
 22 51  1  0  0  0  0
 23 52  1  0  0  0  0
M  END
> <s_m_source_file>
AV-unprocessed.smi

> <i_m_source_file_index>
3030

> <i_lp_mmshare_version>
43012

> <i_f3d_flags>
0

> <s_epik_input>
W0NIM11bQ0gyXW4xW2NIXVtjSF1jKD1PKWMoW2NIXTEpW05IXUMoPU8pW05IXVtDQEBIXTJbQ0gyXVtDQEBIXShbQ0gzXSlbQ0gyXVtDSDJdW0NASF0yW0NIXShbQ0gzXSlbQ0gzXQ==

> <s_epik_cmdline>
J2VwaWtfcHl0aG9uJywgJy1waCcsICc3LjAnLCAnLXRuJywgJzgnLCAnLW1hJywgJzIwMCcsICctbWV0YWxfYmluZGluZycsICctaW1hZScsICc8aW5maWxlLm1hZT4nLCAnLW9tYWUnLCAnPG91dGZpbGUubWFlPic=

> <r_lp_tautomer_probability>
1

> <r_epik_Ionization_Penalty>
0.00147933

> <r_epik_Ionization_Penalty_Charging>
0.00145753

> <r_epik_Ionization_Penalty_Neutral>
2.17987e-05

> <r_epik_State_Penalty>
0.00097457

> <r_epik_Charging_Adjusted_Penalty>
0.0024321

> <i_epik_Tot_Q>
0

> <i_epik_Tot_abs_Q>
0

> <r_epik_Metal_State_Penalty>
-0

> <b_epik_Metal_Only>
0

> <s_lp_Force_Field>
OPLS_2005

> <r_lp_Energy>
9.50568

> <b_lp_Chiralities_Consistent>
1

> <s_lp_Variant>
AV-unprocessed.smi:3030-6

> <Gold.Version>
5.8.1

> <Gold.Id.Protein>
6NUR|6NUR_protein|mol2

> <Gold.PLP.Fitness>
44.8065

> <Gold.PLP.PLP>
-33.9285

> <Gold.PLP.part.hbond>
-1.7223

> <Gold.PLP.part.metal>
0.0000

> <Gold.PLP.part.buried>
-3.8543

> <Gold.PLP.part.nonpolar>
-30.8460

> <Gold.PLP.part.repulsive>
0.7975

> <Gold.PLP.ligand.clash>
0.0000

> <Gold.PLP.ligand.torsion>
0.4145

> <Gold.PLP.Chemscore.Hbond>
1.8793

> <Gold.PLP.Chemscore.CHOScore>
2.0000

> <Gold.PLP.Chemscore.Metal>
0.0000

> <Gold.Chemscore.Hbonds>
donor molecule, donor type, donor heavy atom, donor atom, acceptor molecule, acceptor atom, score
      L1  H     9    31       P1  7948  0.91
      L1  H    12    32       P1  7948  0.99
      L1  C     4    29       P1  8028  1.00
      L1  C    23    52       P1 10175  1.00

> <Gold.PLP.Chemscore.Internal.Correction>
0.0691

> <Gold.Rescore>
     Score         DG    S(hbond)    S(metal)    S(lipo)     H(rot)  DE(clash)    DE(int)     intcor
     17.59     -18.20       1.87        0.00      83.13       1.27       0.27       0.34       ----

> <Gold.Chemscore.Fitness>
17.5893

> <Gold.Chemscore.DG>
-18.1987

> <Gold.Chemscore.ZeroCoef>
-5.4800

> <Gold.Chemscore.Hbond>
1.8681

> <Gold.Chemscore.Metal>
0.0000

> <Gold.Chemscore.Lipo>
83.1340

> <Gold.Chemscore.Internal_Hbond>
0.0000

> <Gold.Chemscore.DEClash>
0.2684

> <Gold.Chemscore.DEInternal>
0.3410

> <Gold.Chemscore.Rot>
1.2685

> <Gold.Chemscore.Internal.Correction>
   9.000000E+99

> <Gold.Chemscore.Hbonds>
donor molecule, donor type, donor heavy atom, donor atom, acceptor molecule, acceptor atom, score
      L1  H     9    31       P1  7948  0.89
      L1  H    12    32       P1  7948  0.88

> <Gold.Chemscore.Hbond.Weighted>
-6.2395

> <Gold.Chemscore.Metal.Weighted>
-0.0000

> <Gold.Chemscore.Lipo.Weighted>
-9.7267

> <Gold.Chemscore.Internal_Hbond.Weighted>
0.0000

> <Gold.Chemscore.DEClash.Weighted>
0.2684

> <Gold.Chemscore.DEInternal.Weighted>
0.3410

> <Gold.Chemscore.Rot.Weighted>
3.2474

> <Gold.Chemscore.Internal.Correction.Weighted>
   9.000000E+99

> <Gold.Protein.RotatedTorsions>
[ 6907 6896 6895 6894 ] final   83.93 input  -60.11 | X-H torsion
[ 7974 7965 7964 7962 ] final -108.14 input  175.53 | X-H torsion
[ 8008 7997 7996 7995 ] final   -8.02 input   59.86 | X-H torsion
[ 10167 10162 10161 10158 ] final    3.54 input  -65.29 | X-H torsion
[ 10718 10713 10712 10709 ] final  -62.27 input   66.30 | X-H torsion
[ 10763 10752 10751 10750 ] final  -85.85 input  -60.55 | X-H torsion
[ 11005 11000 10999 10996 ] final  -10.09 input  -57.11 | X-H torsion

> <Gold.Protein.ActiveResidues>
 VAL166  LYS551  ARG553  GLY616  TRP617  ASP618  TYR619  PRO620  LYS621  CYS622 
 ASP623  PHE694  ASN695  SER759  ASP760  ASP761  ALA762  ILE779  LEU786  VAL792 
 PHE793  MET794  SER795  GLU796  ALA797  LYS798  CYS799  TRP800  GLU811  SER814 

> <Gold.Protein.RotatedAtoms>
  152.5340  134.2819  159.9010 H   0  0  0  0  0  0  0  0  0  0  0  0  # atno 6907 bound_to 6896
  151.2773  133.4220  159.2632 H   0  0  0  0  0  0  0  0  0  0  0  0  # atno 6908 bound_to 6896
  151.0315  134.9557  159.8170 H   0  0  0  0  0  0  0  0  0  0  0  0  # atno 6909 bound_to 6896
  145.1965  140.9038  143.3394 H   0  0  0  0  0  0  0  0  0  0  0  0  # atno 7974 bound_to 7965
  154.5781  140.2392  155.8093 H   0  0  0  0  0  0  0  0  0  0  0  0  # atno 8008 bound_to 7997
  156.2159  140.3012  155.9794 H   0  0  0  0  0  0  0  0  0  0  0  0  # atno 8009 bound_to 7997
  155.2590  140.0413  157.2986 H   0  0  0  0  0  0  0  0  0  0  0  0  # atno 8010 bound_to 7997
  140.6580  143.7376  150.7688 H   0  0  0  0  0  0  0  0  0  0  0  0  # atno 10167 bound_to 10162
  156.0866  130.4207  150.1111 H   0  0  0  0  0  0  0  0  0  0  0  0  # atno 10718 bound_to 10713
  154.6158  135.5470  153.7522 H   0  0  0  0  0  0  0  0  0  0  0  0  # atno 10763 bound_to 10752
  153.0215  135.6400  154.1512 H   0  0  0  0  0  0  0  0  0  0  0  0  # atno 10764 bound_to 10752
  154.1448  135.2906  155.3131 H   0  0  0  0  0  0  0  0  0  0  0  0  # atno 10765 bound_to 10752
  140.7410  133.8670  155.8968 H   0  0  0  0  0  0  0  0  0  0  0  0  # atno 11005 bound_to 11000
  144.9989  139.3617  143.6177 LP  0  0  0  0  0  0  0  0  0  0  0  0  # atno 17320 bound_to 7965
  146.3426  139.9204  142.8767 LP  0  0  0  0  0  0  0  0  0  0  0  0  # atno 17321 bound_to 7965
  140.1040  143.4761  152.2409 LP  0  0  0  0  0  0  0  0  0  0  0  0  # atno 17342 bound_to 10162
  139.5807  144.7509  151.3646 LP  0  0  0  0  0  0  0  0  0  0  0  0  # atno 17343 bound_to 10162
  156.9130  130.9658  151.3560 LP  0  0  0  0  0  0  0  0  0  0  0  0  # atno 17370 bound_to 10713
  157.6003  130.8507  149.8791 LP  0  0  0  0  0  0  0  0  0  0  0  0  # atno 17371 bound_to 10713
  140.9836  134.1372  157.4472 LP  0  0  0  0  0  0  0  0  0  0  0  0  # atno 17394 bound_to 11000
  139.8806  135.0018  156.6091 LP  0  0  0  0  0  0  0  0  0  0  0  0  # atno 17395 bound_to 11000

$$$$
