AV-unprocessed.smi:72|AV-procd|sdf|689|dock3
  -GOLD-   2262017 03D 1   1.00000     0.00000
 Structure written by MMmdl.
 29 30  0  0  0  0  0  0  0  0  1 V2000
  154.0709  138.4120  154.9868 N   0  0  0  0  0  0  0  0  0  0  0  0
  152.7926  138.5289  154.9304 C   0  0  0  0  0  0  0  0  0  0  0  0
  151.9173  137.6031  154.3430 N   0  0  0  0  0  0  0  0  0  0  0  0
  150.6439  137.8533  154.3595 C   0  0  0  0  0  0  0  0  0  0  0  0
  150.0982  139.0617  154.9627 N   0  0  0  0  0  0  0  0  0  0  0  0
  148.6093  139.3614  154.9853 C   0  0  2  0  0  0  0  0  0  0  0  0
  147.8949  138.2918  154.4350 O   0  0  0  0  0  0  0  0  0  0  0  0
  147.3746  138.6523  153.1586 C   0  0  1  0  0  0  0  0  0  0  0  0
  146.1750  137.7682  152.7757 C   0  0  0  0  0  0  0  0  0  0  0  0
  145.4764  138.3428  151.6917 O   0  0  0  0  0  0  0  0  0  0  0  0
  147.0718  140.1468  153.3224 C   0  0  1  0  0  0  0  0  0  0  0  0
  145.8367  140.3489  153.9857 O   0  0  0  0  0  0  0  0  0  0  0  0
  148.2255  140.6336  154.1893 C   0  0  2  0  0  0  0  0  0  0  0  0
  149.2642  141.1317  153.3633 O   0  0  0  0  0  0  0  0  0  0  0  0
  150.9709  140.0054  155.5580 C   0  0  0  0  0  0  0  0  0  0  0  0
  150.5626  141.0474  156.0705 O   0  0  0  0  0  0  0  0  0  0  0  0
  152.2841  139.6939  155.5180 N   0  0  0  0  0  0  0  0  0  0  0  0
  148.3416  139.4213  156.0417 H   0  0  0  0  0  0  0  0  0  0  0  0
  148.1631  138.5524  152.4104 H   0  0  0  0  0  0  0  0  0  0  0  0
  147.0234  140.6594  152.3605 H   0  0  0  0  0  0  0  0  0  0  0  0
  147.9253  141.4244  154.8782 H   0  0  0  0  0  0  0  0  0  0  0  0
  154.3590  137.5509  154.5443 H   0  0  0  0  0  0  0  0  0  0  0  0
  149.9122  137.1736  153.9235 H   0  0  0  0  0  0  0  0  0  0  0  0
  146.4897  136.7542  152.5272 H   0  0  0  0  0  0  0  0  0  0  0  0
  145.4776  137.6987  153.6111 H   0  0  0  0  0  0  0  0  0  0  0  0
  144.7176  138.7944  152.0287 H   0  0  0  0  0  0  0  0  0  0  0  0
  145.1522  140.4046  153.3367 H   0  0  0  0  0  0  0  0  0  0  0  0
  149.4711  140.4746  152.7164 H   0  0  0  0  0  0  0  0  0  0  0  0
  152.9338  140.3457  155.9331 H   0  0  0  0  0  0  0  0  0  0  0  0
  1  2  2  0  0  0  0
  1 22  1  0  0  0  0
  2 17  1  0  0  0  0
  2  3  1  0  0  0  0
  3  4  2  0  0  0  0
  4  5  1  0  0  0  0
  4 23  1  0  0  0  0
  5  6  1  0  0  0  0
  5 15  1  0  0  0  0
  6 18  1  0  0  0  0
  6 13  1  0  0  0  0
  6  7  1  0  0  0  0
  7  8  1  0  0  0  0
  8 19  1  0  0  0  0
  8  9  1  0  0  0  0
  8 11  1  0  0  0  0
  9 10  1  0  0  0  0
  9 24  1  0  0  0  0
  9 25  1  0  0  0  0
 10 26  1  0  0  0  0
 11 20  1  0  0  0  0
 11 12  1  0  0  0  0
 11 13  1  0  0  0  0
 12 27  1  0  0  0  0
 13 21  1  0  0  0  0
 13 14  1  0  0  0  0
 14 28  1  0  0  0  0
 15 16  2  0  0  0  0
 15 17  1  0  0  0  0
 17 29  1  0  0  0  0
M  END
> <s_m_source_file>
AV-unprocessed.smi

> <i_m_source_file_index>
72

> <i_lp_mmshare_version>
43012

> <i_f3d_flags>
0

> <s_epik_input>
W05IMl1jMW5bY0hdbihjKD1PKW4xKVtDQEBIXTJPW0NASF0oW0NIMl1bT0hdKVtDQEBIXShbT0hdKVtDQEhdMltPSF0=

> <s_epik_cmdline>
J2VwaWtfcHl0aG9uJywgJy1waCcsICc3LjAnLCAnLXRuJywgJzgnLCAnLW1hJywgJzIwMCcsICctbWV0YWxfYmluZGluZycsICctaW1hZScsICc8aW5maWxlLm1hZT4nLCAnLW9tYWUnLCAnPG91dGZpbGUubWFlPic=

> <r_lp_tautomer_probability>
7.17554e-07

> <r_epik_Ionization_Penalty>
0.0066451

> <r_epik_Ionization_Penalty_Charging>
0.00663793

> <r_epik_Ionization_Penalty_Neutral>
7.17052e-06

> <r_epik_State_Penalty>
0.419231

> <r_epik_Charging_Adjusted_Penalty>
0.425868

> <i_epik_Tot_Q>
0

> <i_epik_Tot_abs_Q>
0

> <r_epik_Metal_State_Penalty>
1.44144

> <b_epik_Metal_Only>
0

> <s_epik_Chemistry_Notes>
This compound contains an acetal/aminal-like group ( X-CH(R)-Y where X, Y are N, S, or O) that may be acid/base labile, releasing an aldehyde.

> <s_lp_Force_Field>
OPLS_2005

> <r_lp_Energy>
44.3496

> <b_lp_Chiralities_Consistent>
1

> <s_lp_Variant>
AV-unprocessed.smi:72-27

> <Gold.Version>
5.8.1

> <Gold.Id.Protein>
6NUR|6NUR_protein|mol2

> <Gold.PLP.Fitness>
48.5886

> <Gold.PLP.PLP>
-30.8863

> <Gold.PLP.part.hbond>
-7.7096

> <Gold.PLP.part.metal>
0.0000

> <Gold.PLP.part.buried>
-5.0234

> <Gold.PLP.part.nonpolar>
-20.5008

> <Gold.PLP.part.repulsive>
0.6918

> <Gold.PLP.ligand.clash>
0.0098

> <Gold.PLP.ligand.torsion>
0.1115

> <Gold.PLP.Chemscore.Hbond>
4.9454

> <Gold.PLP.Chemscore.CHOScore>
1.0035

> <Gold.PLP.Chemscore.Metal>
0.0000

> <Gold.Chemscore.Hbonds>
donor molecule, donor type, donor heavy atom, donor atom, acceptor molecule, acceptor atom, score
      L1  H    10    26       P1 10175  1.00
      L1  H    12    27       P1 10175  1.00
      L1  H    14    28       P1  7957  0.98
      P1  H  7997  8010       L1     1  0.66
      P1  H  8011  8017       L1    14  0.60
      P1  H 10752 10765       L1     3  0.51
      L1  C     4    23       P1  7948  1.00

> <Gold.PLP.Chemscore.Internal.Correction>
0.0886

> <Gold.Rescore>
     Score         DG    S(hbond)    S(metal)    S(lipo)     H(rot)  DE(clash)    DE(int)     intcor
      9.08      -9.48       3.40        0.00      26.06       4.06       0.12       0.28       ----

> <Gold.Chemscore.Fitness>
9.0840

> <Gold.Chemscore.DG>
-9.4774

> <Gold.Chemscore.ZeroCoef>
-5.4800

> <Gold.Chemscore.Hbond>
3.3957

> <Gold.Chemscore.Metal>
0.0000

> <Gold.Chemscore.Lipo>
26.0623

> <Gold.Chemscore.Internal_Hbond>
0.0000

> <Gold.Chemscore.DEClash>
0.1172

> <Gold.Chemscore.DEInternal>
0.2762

> <Gold.Chemscore.Rot>
4.0600

> <Gold.Chemscore.Internal.Correction>
   9.000000E+99

> <Gold.Chemscore.Hbonds>
donor molecule, donor type, donor heavy atom, donor atom, acceptor molecule, acceptor atom, score
      L1  H    10    26       P1 10175  0.93
      L1  H    12    27       P1 10175  0.99
      L1  H    14    28       P1  7957  0.93
      P1  H  7997  8010       L1     1  0.21
      P1  H  8011  8017       L1    14  0.04
      P1  H 10752 10765       L1     3  0.33

> <Gold.Chemscore.Hbond.Weighted>
-11.3417

> <Gold.Chemscore.Metal.Weighted>
-0.0000

> <Gold.Chemscore.Lipo.Weighted>
-3.0493

> <Gold.Chemscore.Internal_Hbond.Weighted>
0.0000

> <Gold.Chemscore.DEClash.Weighted>
0.1172

> <Gold.Chemscore.DEInternal.Weighted>
0.2762

> <Gold.Chemscore.Rot.Weighted>
10.3936

> <Gold.Chemscore.Internal.Correction.Weighted>
   9.000000E+99

> <Gold.Protein.RotatedTorsions>
[ 6907 6896 6895 6894 ] final   31.21 input  -60.11 | X-H torsion
[ 7974 7965 7964 7962 ] final  106.38 input  175.53 | X-H torsion
[ 8008 7997 7996 7995 ] final  118.33 input   59.86 | X-H torsion
[ 10167 10162 10161 10158 ] final  135.62 input  -65.29 | X-H torsion
[ 10718 10713 10712 10709 ] final  -34.09 input   66.30 | X-H torsion
[ 10763 10752 10751 10750 ] final  149.88 input  -60.55 | X-H torsion
[ 11005 11000 10999 10996 ] final  118.76 input  -57.11 | X-H torsion

> <Gold.Protein.ActiveResidues>
 VAL166  LYS551  ARG553  GLY616  TRP617  ASP618  TYR619  PRO620  LYS621  CYS622 
 ASP623  PHE694  ASN695  SER759  ASP760  ASP761  ALA762  ILE779  LEU786  VAL792 
 PHE793  MET794  SER795  GLU796  ALA797  LYS798  CYS799  TRP800  GLU811  SER814 

> <Gold.Protein.RotatedAtoms>
  152.0570  134.9618  160.0574 H   0  0  0  0  0  0  0  0  0  0  0  0  # atno 6907 bound_to 6896
  152.0996  133.4238  159.4589 H   0  0  0  0  0  0  0  0  0  0  0  0  # atno 6908 bound_to 6896
  150.6839  134.2695  159.4625 H   0  0  0  0  0  0  0  0  0  0  0  0  # atno 6909 bound_to 6896
  145.3073  139.2551  143.3781 H   0  0  0  0  0  0  0  0  0  0  0  0  # atno 7974 bound_to 7965
  156.2541  140.2877  156.0817 H   0  0  0  0  0  0  0  0  0  0  0  0  # atno 8008 bound_to 7997
  155.1559  140.0398  157.2849 H   0  0  0  0  0  0  0  0  0  0  0  0  # atno 8009 bound_to 7997
  154.6427  140.2526  155.7310 H   0  0  0  0  0  0  0  0  0  0  0  0  # atno 8010 bound_to 7997
  139.5210  144.6507  151.5310 H   0  0  0  0  0  0  0  0  0  0  0  0  # atno 10167 bound_to 10162
  156.3547  130.4314  149.7674 H   0  0  0  0  0  0  0  0  0  0  0  0  # atno 10718 bound_to 10713
  154.0784  135.2861  155.3295 H   0  0  0  0  0  0  0  0  0  0  0  0  # atno 10763 bound_to 10752
  154.6700  135.5303  153.8130 H   0  0  0  0  0  0  0  0  0  0  0  0  # atno 10764 bound_to 10752
  153.0458  135.6555  154.0960 H   0  0  0  0  0  0  0  0  0  0  0  0  # atno 10765 bound_to 10752
  139.9121  134.9623  156.7552 H   0  0  0  0  0  0  0  0  0  0  0  0  # atno 11005 bound_to 11000
  146.3130  140.3601  142.8664 LP  0  0  0  0  0  0  0  0  0  0  0  0  # atno 17320 bound_to 7965
  144.9044  140.7682  143.5847 LP  0  0  0  0  0  0  0  0  0  0  0  0  # atno 17321 bound_to 7965
  140.6311  143.9074  150.6606 LP  0  0  0  0  0  0  0  0  0  0  0  0  # atno 17342 bound_to 10162
  140.2378  143.3686  152.1512 LP  0  0  0  0  0  0  0  0  0  0  0  0  # atno 17343 bound_to 10162
  156.4861  130.8063  151.3075 LP  0  0  0  0  0  0  0  0  0  0  0  0  # atno 17370 bound_to 10713
  157.7466  130.9990  150.2874 LP  0  0  0  0  0  0  0  0  0  0  0  0  # atno 17371 bound_to 10713
  140.6742  133.9532  155.7873 LP  0  0  0  0  0  0  0  0  0  0  0  0  # atno 17394 bound_to 11000
  141.0556  134.0421  157.3726 LP  0  0  0  0  0  0  0  0  0  0  0  0  # atno 17395 bound_to 11000

$$$$
