AV-unprocessed.smi:1427|AV-procd|sdf|5812|dock3
  -GOLD-   22720 5463D 1   1.00000     0.00000
 Structure written by MMmdl.
 33 34  0  0  0  0  0  0  0  0  1 V2000
  153.0761  142.8250  162.3584 C   0  0  0  0  0  0  0  0  0  0  0  0
  153.0991  141.8640  161.1621 C   0  0  1  0  0  0  0  0  0  0  0  0
  153.5593  142.5808  159.8740 C   0  0  0  0  0  0  0  0  0  0  0  0
  152.5646  143.5083  159.3624 N   0  0  0  0  0  0  0  0  0  0  0  0
  152.0535  144.6364  159.9684 C   0  0  0  0  0  0  0  0  0  0  0  0
  151.1295  145.1714  159.1174 C   0  0  0  0  0  0  0  0  0  0  0  0
  151.1488  144.2906  158.0002 C   0  0  0  0  0  0  0  0  0  0  0  0
  152.0114  143.2983  158.1477 N   0  0  0  0  0  0  0  0  0  0  0  0
  153.9771  140.7366  161.4732 N   0  0  0  0  0  0  0  0  0  0  0  0
  154.1168  139.6260  160.7315 C   0  0  0  0  0  0  0  0  0  0  0  0
  153.4692  139.4113  159.7056 O   0  0  0  0  0  0  0  0  0  0  0  0
  155.1445  138.6004  161.2301 C   0  0  1  0  0  0  0  0  0  0  0  0
  154.8922  138.1105  162.6697 C   0  0  0  0  0  0  0  0  0  0  0  0
  154.2432  136.7270  162.5250 C   0  0  0  0  0  0  0  0  0  0  0  0
  154.5933  136.3388  161.0980 C   0  0  0  0  0  0  0  0  0  0  0  0
  154.4239  135.2116  160.6393 O   0  0  0  0  0  0  0  0  0  0  0  0
  155.0975  137.3821  160.4384 N   0  0  0  0  0  0  0  0  0  0  0  0
  152.4052  143.6644  162.1734 H   0  0  0  0  0  0  0  0  0  0  0  0
  154.0676  143.2307  162.5624 H   0  0  0  0  0  0  0  0  0  0  0  0
  152.7292  142.3211  163.2612 H   0  0  0  0  0  0  0  0  0  0  0  0
  152.0772  141.5086  161.0167 H   0  0  0  0  0  0  0  0  0  0  0  0
  154.4708  143.1471  160.0682 H   0  0  0  0  0  0  0  0  0  0  0  0
  153.8058  141.8539  159.0980 H   0  0  0  0  0  0  0  0  0  0  0  0
  152.3799  144.9550  160.9474 H   0  0  0  0  0  0  0  0  0  0  0  0
  150.5289  146.0554  159.2711 H   0  0  0  0  0  0  0  0  0  0  0  0
  150.5652  144.3421  157.0928 H   0  0  0  0  0  0  0  0  0  0  0  0
  154.5476  140.8230  162.3017 H   0  0  0  0  0  0  0  0  0  0  0  0
  156.1462  139.0265  161.1528 H   0  0  0  0  0  0  0  0  0  0  0  0
  155.8398  138.0180  163.2022 H   0  0  0  0  0  0  0  0  0  0  0  0
  154.2654  138.7933  163.2458 H   0  0  0  0  0  0  0  0  0  0  0  0
  154.6304  136.0084  163.2479 H   0  0  0  0  0  0  0  0  0  0  0  0
  153.1590  136.7833  162.6273 H   0  0  0  0  0  0  0  0  0  0  0  0
  155.3842  137.3539  159.4707 H   0  0  0  0  0  0  0  0  0  0  0  0
  1  2  1  0  0  0  0
  1 18  1  0  0  0  0
  1 19  1  0  0  0  0
  1 20  1  0  0  0  0
  2  3  1  0  0  0  0
  2  9  1  0  0  0  0
  2 21  1  0  0  0  0
  3  4  1  0  0  0  0
  3 22  1  0  0  0  0
  3 23  1  0  0  0  0
  4  8  1  0  0  0  0
  4  5  1  0  0  0  0
  5  6  2  0  0  0  0
  5 24  1  0  0  0  0
  6  7  1  0  0  0  0
  6 25  1  0  0  0  0
  7  8  2  0  0  0  0
  7 26  1  0  0  0  0
  9 10  1  0  0  0  0
  9 27  1  0  0  0  0
 10 11  2  0  0  0  0
 10 12  1  0  0  0  0
 12 17  1  0  0  0  0
 12 13  1  0  0  0  0
 12 28  1  0  0  0  0
 13 14  1  0  0  0  0
 13 29  1  0  0  0  0
 13 30  1  0  0  0  0
 14 15  1  0  0  0  0
 14 31  1  0  0  0  0
 14 32  1  0  0  0  0
 15 16  2  0  0  0  0
 15 17  1  0  0  0  0
 17 33  1  0  0  0  0
M  END
> <s_m_source_file>
AV-unprocessed.smi

> <i_m_source_file_index>
1427

> <i_lp_mmshare_version>
43012

> <i_f3d_flags>
0

> <s_epik_input>
bjFbY0hdW2NIXVtjSF1uMVtDSDJdW0NAQEhdKFtDSDNdKVtOSF1DKD1PKVtDQEBIXTJbQ0gyXVtDSDJdQyg9TylbTkhdMg==

> <s_epik_cmdline>
J2VwaWtfcHl0aG9uJywgJy1waCcsICc3LjAnLCAnLXRuJywgJzgnLCAnLW1hJywgJzIwMCcsICctbWV0YWxfYmluZGluZycsICctaW1hZScsICc8aW5maWxlLm1hZT4nLCAnLW9tYWUnLCAnPG91dGZpbGUubWFlPic=

> <r_lp_tautomer_probability>
1

> <r_epik_Ionization_Penalty>
0.000310707

> <r_epik_Ionization_Penalty_Charging>
0

> <r_epik_Ionization_Penalty_Neutral>
0.000310707

> <r_epik_State_Penalty>
-0

> <r_epik_Charging_Adjusted_Penalty>
0

> <i_epik_Tot_Q>
0

> <i_epik_Tot_abs_Q>
0

> <r_epik_Metal_State_Penalty>
-0

> <b_epik_Metal_Only>
0

> <s_lp_Force_Field>
OPLS_2005

> <r_lp_Energy>
14.0885

> <b_lp_Chiralities_Consistent>
1

> <s_lp_Variant>
AV-unprocessed.smi:1427-4

> <Gold.Version>
5.8.1

> <Gold.Id.Protein>
6NUR|6NUR_protein|mol2

> <Gold.PLP.Fitness>
45.1299

> <Gold.PLP.PLP>
-39.4549

> <Gold.PLP.part.hbond>
-1.0000

> <Gold.PLP.part.metal>
0.0000

> <Gold.PLP.part.buried>
-5.1744

> <Gold.PLP.part.nonpolar>
-32.4382

> <Gold.PLP.part.repulsive>
0.0563

> <Gold.PLP.ligand.clash>
0.0000

> <Gold.PLP.ligand.torsion>
0.1811

> <Gold.PLP.Chemscore.Hbond>
1.0000

> <Gold.PLP.Chemscore.CHOScore>
1.0000

> <Gold.PLP.Chemscore.Metal>
0.0000

> <Gold.Chemscore.Hbonds>
donor molecule, donor type, donor heavy atom, donor atom, acceptor molecule, acceptor atom, score
      P1  H  6896  6908       L1    16  0.80
      L1  C     7    26       P1  8028  1.00

> <Gold.PLP.Chemscore.Internal.Correction>
0.0373

> <Gold.Rescore>
     Score         DG    S(hbond)    S(metal)    S(lipo)     H(rot)  DE(clash)    DE(int)     intcor
     14.41     -14.57       0.99        0.00      90.50       1.88       0.06       0.10       ----

> <Gold.Chemscore.Fitness>
14.4147

> <Gold.Chemscore.DG>
-14.5729

> <Gold.Chemscore.ZeroCoef>
-5.4800

> <Gold.Chemscore.Hbond>
0.9949

> <Gold.Chemscore.Metal>
0.0000

> <Gold.Chemscore.Lipo>
90.4971

> <Gold.Chemscore.Internal_Hbond>
0.0000

> <Gold.Chemscore.DEClash>
0.0578

> <Gold.Chemscore.DEInternal>
0.1004

> <Gold.Chemscore.Rot>
1.8821

> <Gold.Chemscore.Internal.Correction>
   9.000000E+99

> <Gold.Chemscore.Hbonds>
donor molecule, donor type, donor heavy atom, donor atom, acceptor molecule, acceptor atom, score
      P1  H  6896  6908       L1    16  0.78

> <Gold.Chemscore.Hbond.Weighted>
-3.3228

> <Gold.Chemscore.Metal.Weighted>
-0.0000

> <Gold.Chemscore.Lipo.Weighted>
-10.5882

> <Gold.Chemscore.Internal_Hbond.Weighted>
0.0000

> <Gold.Chemscore.DEClash.Weighted>
0.0578

> <Gold.Chemscore.DEInternal.Weighted>
0.1004

> <Gold.Chemscore.Rot.Weighted>
4.8181

> <Gold.Chemscore.Internal.Correction.Weighted>
   9.000000E+99

> <Gold.Protein.RotatedTorsions>
[ 6907 6896 6895 6894 ] final  -52.66 input  -60.11 | X-H torsion
[ 7974 7965 7964 7962 ] final    8.46 input  175.53 | X-H torsion
[ 8008 7997 7996 7995 ] final  -56.34 input   59.86 | X-H torsion
[ 10167 10162 10161 10158 ] final -164.28 input  -65.29 | X-H torsion
[ 10718 10713 10712 10709 ] final -113.08 input   66.30 | X-H torsion
[ 10763 10752 10751 10750 ] final  -68.46 input  -60.55 | X-H torsion
[ 11005 11000 10999 10996 ] final  152.12 input  -57.11 | X-H torsion

> <Gold.Protein.ActiveResidues>
 VAL166  LYS551  ARG553  GLY616  TRP617  ASP618  TYR619  PRO620  LYS621  CYS622 
 ASP623  PHE694  ASN695  SER759  ASP760  ASP761  ALA762  ILE779  LEU786  VAL792 
 PHE793  MET794  SER795  GLU796  ALA797  LYS798  CYS799  TRP800  GLU811  SER814 

> <Gold.Protein.RotatedAtoms>
  150.8498  134.7818  159.6998 H   0  0  0  0  0  0  0  0  0  0  0  0  # atno 6907 bound_to 6896
  152.4565  134.5276  159.9811 H   0  0  0  0  0  0  0  0  0  0  0  0  # atno 6908 bound_to 6896
  151.5399  133.3396  159.2969 H   0  0  0  0  0  0  0  0  0  0  0  0  # atno 6909 bound_to 6896
  146.2416  139.9930  142.8424 H   0  0  0  0  0  0  0  0  0  0  0  0  # atno 7974 bound_to 7965
  154.4227  140.1132  156.5622 H   0  0  0  0  0  0  0  0  0  0  0  0  # atno 8008 bound_to 7997
  155.6299  140.3495  155.4660 H   0  0  0  0  0  0  0  0  0  0  0  0  # atno 8009 bound_to 7997
  155.9956  140.1188  157.0586 H   0  0  0  0  0  0  0  0  0  0  0  0  # atno 8010 bound_to 7997
  139.6262  144.0529  152.1976 H   0  0  0  0  0  0  0  0  0  0  0  0  # atno 10167 bound_to 10162
  156.0745  130.5954  150.8594 H   0  0  0  0  0  0  0  0  0  0  0  0  # atno 10718 bound_to 10713
  154.3894  135.6056  153.5834 H   0  0  0  0  0  0  0  0  0  0  0  0  # atno 10763 bound_to 10752
  152.9787  135.5880  154.4316 H   0  0  0  0  0  0  0  0  0  0  0  0  # atno 10764 bound_to 10752
  154.4098  135.2844  155.2022 H   0  0  0  0  0  0  0  0  0  0  0  0  # atno 10765 bound_to 10752
  140.1280  134.8821  157.2164 H   0  0  0  0  0  0  0  0  0  0  0  0  # atno 11005 bound_to 11000
  145.1486  140.9610  143.4446 LP  0  0  0  0  0  0  0  0  0  0  0  0  # atno 17320 bound_to 7965
  145.0227  139.3410  143.6064 LP  0  0  0  0  0  0  0  0  0  0  0  0  # atno 17321 bound_to 7965
  140.0182  144.6172  150.7589 LP  0  0  0  0  0  0  0  0  0  0  0  0  # atno 17342 bound_to 10162
  140.7412  143.2815  151.3586 LP  0  0  0  0  0  0  0  0  0  0  0  0  # atno 17343 bound_to 10162
  157.5833  131.0946  150.9237 LP  0  0  0  0  0  0  0  0  0  0  0  0  # atno 17370 bound_to 10713
  156.9428  130.5391  149.5280 LP  0  0  0  0  0  0  0  0  0  0  0  0  # atno 17371 bound_to 10713
  140.2879  134.3274  155.7323 LP  0  0  0  0  0  0  0  0  0  0  0  0  # atno 17394 bound_to 11000
  141.2165  133.7517  156.9460 LP  0  0  0  0  0  0  0  0  0  0  0  0  # atno 17395 bound_to 11000

$$$$
