AV-unprocessed.smi:2078|AV-procd|sdf|8468|dock10
  -GOLD-   2272011173D 1   1.00000     0.00000
 Structure written by MMmdl.
 41 42  0  0  0  0  0  0  0  0  3 V2000
  151.4243  141.2216  157.8327 C   0  0  0  0  0  0  0  0  0  0  0  0
  150.7067  141.1254  156.5299 C   0  0  0  0  0  0  0  0  0  0  0  0
  149.5472  141.6795  156.0672 C   0  0  0  0  0  0  0  0  0  0  0  0
  149.4530  141.1764  154.7410 C   0  0  0  0  0  0  0  0  0  0  0  0
  148.4628  141.4292  153.8709 N   0  5  0  0  0  0  0  0  0  0  0  0
  147.4628  140.5351  153.6979 C   0  0  0  0  0  0  0  0  0  0  0  0
  146.5317  140.3155  154.4757 O   0  0  0  0  0  0  0  0  0  0  0  0
  147.5482  139.8485  152.5509 N   0  0  0  0  0  0  0  0  0  0  0  0
  146.6123  138.8206  152.1174 C   0  0  0  0  0  0  0  0  0  0  0  0
  146.4367  137.7626  153.2177 C   0  0  0  0  0  0  0  0  0  0  0  0
  146.3673  136.3842  152.6713 N   0  3  2  0  0  0  0  0  0  0  0  0
  145.4327  136.2836  151.5207 C   0  0  0  0  0  0  0  0  0  0  0  0
  145.4923  134.8901  150.8753 C   0  0  0  0  0  0  0  0  0  0  0  0
  145.2105  133.7919  151.9098 C   0  0  0  0  0  0  0  0  0  0  0  0
  146.1376  133.9259  153.1321 C   0  0  1  0  0  0  0  0  0  0  0  0
  147.5810  133.4813  152.8375 C   0  0  0  0  0  0  0  0  0  0  0  0
  146.0735  135.3564  153.7073 C   0  0  0  0  0  0  0  0  0  0  0  0
  150.4583  140.3746  154.4318 N   0  0  0  0  0  0  0  0  0  0  0  0
  151.2706  140.3419  155.5718 O   0  0  0  0  0  0  0  0  0  0  0  0
  150.7366  141.0644  158.6635 H   0  0  0  0  0  0  0  0  0  0  0  0
  151.8782  142.2055  157.9498 H   0  0  0  0  0  0  0  0  0  0  0  0
  152.2143  140.4737  157.9030 H   0  0  0  0  0  0  0  0  0  0  0  0
  148.8746  142.3414  156.5917 H   0  0  0  0  0  0  0  0  0  0  0  0
  148.3233  140.0595  151.9392 H   0  0  0  0  0  0  0  0  0  0  0  0
  145.6487  139.2769  151.8840 H   0  0  0  0  0  0  0  0  0  0  0  0
  146.9929  138.3775  151.1972 H   0  0  0  0  0  0  0  0  0  0  0  0
  147.2383  137.8295  153.9548 H   0  0  0  0  0  0  0  0  0  0  0  0
  145.5099  137.9847  153.7489 H   0  0  0  0  0  0  0  0  0  0  0  0
  144.4171  136.5023  151.8549 H   0  0  0  0  0  0  0  0  0  0  0  0
  145.6875  137.0328  150.7700 H   0  0  0  0  0  0  0  0  0  0  0  0
  144.7681  134.8264  150.0626 H   0  0  0  0  0  0  0  0  0  0  0  0
  146.4722  134.7346  150.4227 H   0  0  0  0  0  0  0  0  0  0  0  0
  144.1724  133.8696  152.2361 H   0  0  0  0  0  0  0  0  0  0  0  0
  145.3138  132.8061  151.4551 H   0  0  0  0  0  0  0  0  0  0  0  0
  145.7602  133.2488  153.8994 H   0  0  0  0  0  0  0  0  0  0  0  0
  148.0621  134.1187  152.0955 H   0  0  0  0  0  0  0  0  0  0  0  0
  147.6064  132.4577  152.4622 H   0  0  0  0  0  0  0  0  0  0  0  0
  148.1909  133.5124  153.7409 H   0  0  0  0  0  0  0  0  0  0  0  0
  146.7707  135.4388  154.5404 H   0  0  0  0  0  0  0  0  0  0  0  0
  145.0800  135.5424  154.1184 H   0  0  0  0  0  0  0  0  0  0  0  0
  147.2863  136.1791  152.3053 H   0  0  0  0  0  0  0  0  0  0  0  0
  1  2  1  0  0  0  0
  1 20  1  0  0  0  0
  1 21  1  0  0  0  0
  1 22  1  0  0  0  0
  2 19  1  0  0  0  0
  2  3  2  0  0  0  0
  3  4  1  0  0  0  0
  3 23  1  0  0  0  0
  4  5  1  0  0  0  0
  4 18  2  0  0  0  0
  5  6  1  0  0  0  0
  6  7  2  0  0  0  0
  6  8  1  0  0  0  0
  8  9  1  0  0  0  0
  8 24  1  0  0  0  0
  9 10  1  0  0  0  0
  9 25  1  0  0  0  0
  9 26  1  0  0  0  0
 10 11  1  0  0  0  0
 10 27  1  0  0  0  0
 10 28  1  0  0  0  0
 11 17  1  0  0  0  0
 11 12  1  0  0  0  0
 11 41  1  0  0  0  0
 12 13  1  0  0  0  0
 12 29  1  0  0  0  0
 12 30  1  0  0  0  0
 13 14  1  0  0  0  0
 13 31  1  0  0  0  0
 13 32  1  0  0  0  0
 14 15  1  0  0  0  0
 14 33  1  0  0  0  0
 14 34  1  0  0  0  0
 15 16  1  0  0  0  0
 15 17  1  0  0  0  0
 15 35  1  0  0  0  0
 16 36  1  0  0  0  0
 16 37  1  0  0  0  0
 16 38  1  0  0  0  0
 17 39  1  0  0  0  0
 17 40  1  0  0  0  0
 18 19  1  0  0  0  0
M  CHG  1   5  -1
M  CHG  1  11   1
M  END
> <s_m_source_file>
AV-unprocessed.smi

> <i_m_source_file_index>
2078

> <i_lp_mmshare_version>
43012

> <i_f3d_flags>
0

> <s_epik_input>
W0NIM11jMVtjSF1jKG5vMSlbTkhdQyg9TylbTkhdW0NIMl1bQ0gyXU4yW0NIMl1bQ0gyXVtDSDJdW0NAQEhdKFtDSDNdKVtDSDJdMg==

> <s_epik_cmdline>
J2VwaWtfcHl0aG9uJywgJy1waCcsICc3LjAnLCAnLXRuJywgJzgnLCAnLW1hJywgJzIwMCcsICctbWV0YWxfYmluZGluZycsICctaW1hZScsICc8aW5maWxlLm1hZT4nLCAnLW9tYWUnLCAnPG91dGZpbGUubWFlPic=

> <r_epik_Ionization_Penalty>
6.22434

> <r_epik_Ionization_Penalty_Charging>
6.22425

> <r_epik_Ionization_Penalty_Neutral>
9.37855e-05

> <r_epik_State_Penalty>
6.22423

> <r_epik_Charging_Adjusted_Penalty>
12.4485

> <i_epik_Tot_Q>
0

> <i_epik_Tot_abs_Q>
2

> <r_epik_Metal_State_Penalty>
2.16764

> <b_epik_Metal_Only>
1

> <s_lp_Force_Field>
OPLS_2005

> <r_lp_Energy>
8.87897

> <b_lp_Chiralities_Consistent>
1

> <s_lp_Variant>
AV-unprocessed.smi:2078-6

> <Gold.Version>
5.8.1

> <Gold.Id.Protein>
6NUR|6NUR_protein|mol2

> <Gold.PLP.Fitness>
40.5216

> <Gold.PLP.PLP>
-32.0819

> <Gold.PLP.part.hbond>
-3.9060

> <Gold.PLP.part.metal>
0.0000

> <Gold.PLP.part.buried>
-1.9802

> <Gold.PLP.part.nonpolar>
-25.9090

> <Gold.PLP.part.repulsive>
0.5135

> <Gold.PLP.ligand.clash>
0.0000

> <Gold.PLP.ligand.torsion>
1.7824

> <Gold.PLP.Chemscore.Hbond>
3.9906

> <Gold.PLP.Chemscore.CHOScore>
0.0000

> <Gold.PLP.Chemscore.Metal>
0.0000

> <Gold.Chemscore.Hbonds>
donor molecule, donor type, donor heavy atom, donor atom, acceptor molecule, acceptor atom, score
      L1  H     8    24       P1  7957  0.88
      L1  H    11    41       P1  7948  2.00
      P1  H  7989  7998       L1    18  0.70
      P1  H  8011  8017       L1     5  0.24

> <Gold.PLP.Chemscore.Internal.Correction>
0.0327

> <Gold.Rescore>
     Score         DG    S(hbond)    S(metal)    S(lipo)     H(rot)  DE(clash)    DE(int)     intcor
     14.05     -17.11       2.79        0.00      53.46       1.54       0.00       3.06       ----

> <Gold.Chemscore.Fitness>
14.0507

> <Gold.Chemscore.DG>
-17.1103

> <Gold.Chemscore.ZeroCoef>
-5.4800

> <Gold.Chemscore.Hbond>
2.7906

> <Gold.Chemscore.Metal>
0.0000

> <Gold.Chemscore.Lipo>
53.4551

> <Gold.Chemscore.Internal_Hbond>
0.0000

> <Gold.Chemscore.DEClash>
0.0021

> <Gold.Chemscore.DEInternal>
3.0575

> <Gold.Chemscore.Rot>
1.5409

> <Gold.Chemscore.Internal.Correction>
   9.000000E+99

> <Gold.Chemscore.Hbonds>
donor molecule, donor type, donor heavy atom, donor atom, acceptor molecule, acceptor atom, score
      L1  H     8    24       P1  7957  0.86
      L1  H    11    41       P1  7948  1.00
      P1  H  7989  7998       L1    18  0.07
      P1  H  8011  8017       L1     5  0.04

> <Gold.Chemscore.Hbond.Weighted>
-9.3207

> <Gold.Chemscore.Metal.Weighted>
-0.0000

> <Gold.Chemscore.Lipo.Weighted>
-6.2543

> <Gold.Chemscore.Internal_Hbond.Weighted>
0.0000

> <Gold.Chemscore.DEClash.Weighted>
0.0021

> <Gold.Chemscore.DEInternal.Weighted>
3.0575

> <Gold.Chemscore.Rot.Weighted>
3.9446

> <Gold.Chemscore.Internal.Correction.Weighted>
   9.000000E+99

> <Gold.Protein.RotatedTorsions>
[ 6907 6896 6895 6894 ] final  -87.83 input  -60.11 | X-H torsion
[ 7974 7965 7964 7962 ] final   85.35 input  175.53 | X-H torsion
[ 8008 7997 7996 7995 ] final   86.85 input   59.86 | X-H torsion
[ 10167 10162 10161 10158 ] final -129.17 input  -65.29 | X-H torsion
[ 10718 10713 10712 10709 ] final -151.49 input   66.30 | X-H torsion
[ 10763 10752 10751 10750 ] final   77.00 input  -60.55 | X-H torsion
[ 11005 11000 10999 10996 ] final  -98.77 input  -57.11 | X-H torsion

> <Gold.Protein.ActiveResidues>
 VAL166  LYS551  ARG553  GLY616  TRP617  ASP618  TYR619  PRO620  LYS621  CYS622 
 ASP623  PHE694  ASN695  SER759  ASP760  ASP761  ALA762  ILE779  LEU786  VAL792 
 PHE793  MET794  SER795  GLU796  ALA797  LYS798  CYS799  TRP800  GLU811  SER814 

> <Gold.Protein.RotatedAtoms>
  150.6867  134.2836  159.4637 H   0  0  0  0  0  0  0  0  0  0  0  0  # atno 6907 bound_to 6896
  152.0748  134.9507  160.0583 H   0  0  0  0  0  0  0  0  0  0  0  0  # atno 6908 bound_to 6896
  152.0883  133.4153  159.4569 H   0  0  0  0  0  0  0  0  0  0  0  0  # atno 6909 bound_to 6896
  145.5866  139.2332  143.2323 H   0  0  0  0  0  0  0  0  0  0  0  0  # atno 7974 bound_to 7965
  155.9680  140.3388  155.6550 H   0  0  0  0  0  0  0  0  0  0  0  0  # atno 8008 bound_to 7997
  155.6712  140.0727  157.2537 H   0  0  0  0  0  0  0  0  0  0  0  0  # atno 8009 bound_to 7997
  154.4159  140.1691  156.1868 H   0  0  0  0  0  0  0  0  0  0  0  0  # atno 8010 bound_to 7997
  139.9426  143.6146  152.2499 H   0  0  0  0  0  0  0  0  0  0  0  0  # atno 10167 bound_to 10162
  156.4599  130.8208  151.2439 H   0  0  0  0  0  0  0  0  0  0  0  0  # atno 10718 bound_to 10713
  153.0766  135.4930  154.8417 H   0  0  0  0  0  0  0  0  0  0  0  0  # atno 10763 bound_to 10752
  154.7095  135.3017  154.9221 H   0  0  0  0  0  0  0  0  0  0  0  0  # atno 10764 bound_to 10752
  153.9919  135.6777  153.4807 H   0  0  0  0  0  0  0  0  0  0  0  0  # atno 10765 bound_to 10752
  141.1333  133.8270  157.0883 H   0  0  0  0  0  0  0  0  0  0  0  0  # atno 11005 bound_to 11000
  146.1677  140.6693  142.9248 LP  0  0  0  0  0  0  0  0  0  0  0  0  # atno 17320 bound_to 7965
  144.7370  140.4835  143.6897 LP  0  0  0  0  0  0  0  0  0  0  0  0  # atno 17321 bound_to 7965
  139.6693  144.7661  151.1814 LP  0  0  0  0  0  0  0  0  0  0  0  0  # atno 17342 bound_to 10162
  140.7606  143.5890  150.8816 LP  0  0  0  0  0  0  0  0  0  0  0  0  # atno 17343 bound_to 10162
  157.7498  131.0110  150.3330 LP  0  0  0  0  0  0  0  0  0  0  0  0  # atno 17370 bound_to 10713
  156.3727  130.3866  149.7163 LP  0  0  0  0  0  0  0  0  0  0  0  0  # atno 17371 bound_to 10713
  140.0408  134.9855  157.0958 LP  0  0  0  0  0  0  0  0  0  0  0  0  # atno 17394 bound_to 11000
  140.4138  134.1953  155.7163 LP  0  0  0  0  0  0  0  0  0  0  0  0  # atno 17395 bound_to 11000

$$$$
