AV-unprocessed.smi:1420|AV-procd|sdf|5787|dock4
  -GOLD-   22720 5433D 1   1.00000     0.00000
 Structure written by MMmdl.
 38 39  0  0  0  0  0  0  0  0  1 V2000
  150.4479  140.4917  156.2312 C   0  0  0  0  0  0  0  0  0  0  0  0
  150.5955  140.7074  157.7591 C   0  0  1  0  0  0  0  0  0  0  0  0
  150.8798  139.3336  158.4340 C   0  0  0  0  0  0  0  0  0  0  0  0
  149.6924  138.4938  158.5637 N   0  0  0  0  0  0  0  0  0  0  0  0
  149.6850  137.2333  159.0249 C   0  0  0  0  0  0  0  0  0  0  0  0
  150.6983  136.6389  159.3917 O   0  0  0  0  0  0  0  0  0  0  0  0
  148.3248  136.5373  159.0893 C   0  0  0  0  0  0  0  0  0  0  0  0
  147.9714  136.1969  160.4560 N   0  0  0  0  0  0  0  0  0  0  0  0
  147.7861  134.9456  161.0068 C   0  0  0  0  0  0  0  0  0  0  0  0
  147.4632  135.1240  162.3215 C   0  0  0  0  0  0  0  0  0  0  0  0
  147.4755  136.5376  162.4841 C   0  0  0  0  0  0  0  0  0  0  0  0
  147.7797  137.1773  161.3663 N   0  0  0  0  0  0  0  0  0  0  0  0
  151.5969  141.7460  158.0971 N   0  0  0  0  0  0  0  0  0  0  0  0
  151.1702  143.0904  157.6916 C   0  0  0  0  0  0  0  0  0  0  0  0
  152.1902  144.1803  158.0640 C   0  0  0  0  0  0  0  0  0  0  0  0
  152.4326  144.1498  159.4635 O   0  0  0  0  0  0  0  0  0  0  0  0
  152.9233  142.8872  159.8912 C   0  0  0  0  0  0  0  0  0  0  0  0
  151.9107  141.7861  159.5304 C   0  0  0  0  0  0  0  0  0  0  0  0
  149.7510  139.6904  155.9888 H   0  0  0  0  0  0  0  0  0  0  0  0
  151.4060  140.2417  155.7740 H   0  0  0  0  0  0  0  0  0  0  0  0
  150.0522  141.3718  155.7262 H   0  0  0  0  0  0  0  0  0  0  0  0
  149.6264  141.0504  158.1247 H   0  0  0  0  0  0  0  0  0  0  0  0
  151.6224  138.7832  157.8555 H   0  0  0  0  0  0  0  0  0  0  0  0
  151.2927  139.4448  159.4355 H   0  0  0  0  0  0  0  0  0  0  0  0
  148.8119  138.9003  158.2812 H   0  0  0  0  0  0  0  0  0  0  0  0
  147.5516  137.1898  158.6814 H   0  0  0  0  0  0  0  0  0  0  0  0
  148.3386  135.6346  158.4761 H   0  0  0  0  0  0  0  0  0  0  0  0
  147.8970  134.0438  160.4226 H   0  0  0  0  0  0  0  0  0  0  0  0
  147.2507  134.3608  163.0555 H   0  0  0  0  0  0  0  0  0  0  0  0
  147.2740  137.1137  163.3753 H   0  0  0  0  0  0  0  0  0  0  0  0
  151.0316  143.1403  156.6134 H   0  0  0  0  0  0  0  0  0  0  0  0
  150.2073  143.3261  158.1472 H   0  0  0  0  0  0  0  0  0  0  0  0
  153.1255  144.0370  157.5206 H   0  0  0  0  0  0  0  0  0  0  0  0
  151.8090  145.1643  157.7908 H   0  0  0  0  0  0  0  0  0  0  0  0
  153.8917  142.6881  159.4293 H   0  0  0  0  0  0  0  0  0  0  0  0
  153.0831  142.9152  160.9692 H   0  0  0  0  0  0  0  0  0  0  0  0
  150.9954  141.9332  160.1059 H   0  0  0  0  0  0  0  0  0  0  0  0
  152.3437  140.8437  159.8584 H   0  0  0  0  0  0  0  0  0  0  0  0
  1  2  1  0  0  0  0
  1 19  1  0  0  0  0
  1 20  1  0  0  0  0
  1 21  1  0  0  0  0
  2  3  1  0  0  0  0
  2 13  1  0  0  0  0
  2 22  1  0  0  0  0
  3  4  1  0  0  0  0
  3 23  1  0  0  0  0
  3 24  1  0  0  0  0
  4  5  1  0  0  0  0
  4 25  1  0  0  0  0
  5  6  2  0  0  0  0
  5  7  1  0  0  0  0
  7  8  1  0  0  0  0
  7 26  1  0  0  0  0
  7 27  1  0  0  0  0
  8 12  1  0  0  0  0
  8  9  1  0  0  0  0
  9 10  2  0  0  0  0
  9 28  1  0  0  0  0
 10 11  1  0  0  0  0
 10 29  1  0  0  0  0
 11 12  2  0  0  0  0
 11 30  1  0  0  0  0
 13 18  1  0  0  0  0
 13 14  1  0  0  0  0
 14 15  1  0  0  0  0
 14 31  1  0  0  0  0
 14 32  1  0  0  0  0
 15 16  1  0  0  0  0
 15 33  1  0  0  0  0
 15 34  1  0  0  0  0
 16 17  1  0  0  0  0
 17 18  1  0  0  0  0
 17 35  1  0  0  0  0
 17 36  1  0  0  0  0
 18 37  1  0  0  0  0
 18 38  1  0  0  0  0
M  END
> <s_m_source_file>
AV-unprocessed.smi

> <i_m_source_file_index>
1420

> <i_lp_mmshare_version>
43012

> <i_f3d_flags>
0

> <s_epik_input>
W0NIMl0xW0NIMl1PW0NIMl1bQ0gyXU4xW0NASF0oW0NIM10pW0NIMl1bTkhdQyg9TylbQ0gyXW4yW2NIXVtjSF1bY0hdbjI=

> <s_epik_cmdline>
J2VwaWtfcHl0aG9uJywgJy1waCcsICc3LjAnLCAnLXRuJywgJzgnLCAnLW1hJywgJzIwMCcsICctbWV0YWxfYmluZGluZycsICctaW1hZScsICc8aW5maWxlLm1hZT4nLCAnLW9tYWUnLCAnPG91dGZpbGUubWFlPic=

> <r_lp_tautomer_probability>
1

> <r_epik_Ionization_Penalty>
0.196927

> <r_epik_Ionization_Penalty_Charging>
0

> <r_epik_Ionization_Penalty_Neutral>
0.196927

> <r_epik_State_Penalty>
0.186684

> <r_epik_Charging_Adjusted_Penalty>
0.186684

> <i_epik_Tot_Q>
0

> <i_epik_Tot_abs_Q>
0

> <r_epik_Metal_State_Penalty>
0.186682

> <b_epik_Metal_Only>
0

> <s_lp_Force_Field>
OPLS_2005

> <r_lp_Energy>
28.9216

> <b_lp_Chiralities_Consistent>
1

> <s_lp_Variant>
AV-unprocessed.smi:1420-2

> <Gold.Version>
5.8.1

> <Gold.Id.Protein>
6NUR|6NUR_protein|mol2

> <Gold.PLP.Fitness>
45.8694

> <Gold.PLP.PLP>
-38.1360

> <Gold.PLP.part.hbond>
-3.0000

> <Gold.PLP.part.metal>
0.0000

> <Gold.PLP.part.buried>
-5.8228

> <Gold.PLP.part.nonpolar>
-29.8799

> <Gold.PLP.part.repulsive>
0.2030

> <Gold.PLP.ligand.clash>
0.0000

> <Gold.PLP.ligand.torsion>
0.3487

> <Gold.PLP.Chemscore.Hbond>
2.7920

> <Gold.PLP.Chemscore.CHOScore>
0.0000

> <Gold.PLP.Chemscore.Metal>
0.0000

> <Gold.Chemscore.Hbonds>
donor molecule, donor type, donor heavy atom, donor atom, acceptor molecule, acceptor atom, score
      P1  H  6896  6909       L1     6  1.00
      P1  H  6931  6943       L1    12  1.00
      P1  H  6934  6947       L1    12  0.77

> <Gold.PLP.Chemscore.Internal.Correction>
0.0547

> <Gold.Rescore>
     Score         DG    S(hbond)    S(metal)    S(lipo)     H(rot)  DE(clash)    DE(int)     intcor
     18.95     -19.23       2.54        0.00      85.92       1.87       0.01       0.27       ----

> <Gold.Chemscore.Fitness>
18.9489

> <Gold.Chemscore.DG>
-19.2275

> <Gold.Chemscore.ZeroCoef>
-5.4800

> <Gold.Chemscore.Hbond>
2.5373

> <Gold.Chemscore.Metal>
0.0000

> <Gold.Chemscore.Lipo>
85.9156

> <Gold.Chemscore.Internal_Hbond>
0.0000

> <Gold.Chemscore.DEClash>
0.0063

> <Gold.Chemscore.DEInternal>
0.2723

> <Gold.Chemscore.Rot>
1.8669

> <Gold.Chemscore.Internal.Correction>
   9.000000E+99

> <Gold.Chemscore.Hbonds>
donor molecule, donor type, donor heavy atom, donor atom, acceptor molecule, acceptor atom, score
      P1  H  6896  6909       L1     6  1.00
      P1  H  6931  6943       L1    12  0.33
      P1  H  6934  6947       L1    12  0.75

> <Gold.Chemscore.Hbond.Weighted>
-8.4745

> <Gold.Chemscore.Metal.Weighted>
-0.0000

> <Gold.Chemscore.Lipo.Weighted>
-10.0521

> <Gold.Chemscore.Internal_Hbond.Weighted>
0.0000

> <Gold.Chemscore.DEClash.Weighted>
0.0063

> <Gold.Chemscore.DEInternal.Weighted>
0.2723

> <Gold.Chemscore.Rot.Weighted>
4.7792

> <Gold.Chemscore.Internal.Correction.Weighted>
   9.000000E+99

> <Gold.Protein.RotatedTorsions>
[ 6907 6896 6895 6894 ] final   98.42 input  -60.11 | X-H torsion
[ 7974 7965 7964 7962 ] final   -4.24 input  175.53 | X-H torsion
[ 8008 7997 7996 7995 ] final   80.72 input   59.86 | X-H torsion
[ 10167 10162 10161 10158 ] final   59.54 input  -65.29 | X-H torsion
[ 10718 10713 10712 10709 ] final  -38.03 input   66.30 | X-H torsion
[ 10763 10752 10751 10750 ] final  144.76 input  -60.55 | X-H torsion
[ 11005 11000 10999 10996 ] final   19.81 input  -57.11 | X-H torsion

> <Gold.Protein.ActiveResidues>
 VAL166  LYS551  ARG553  GLY616  TRP617  ASP618  TYR619  PRO620  LYS621  CYS622 
 ASP623  PHE694  ASN695  SER759  ASP760  ASP761  ALA762  ILE779  LEU786  VAL792 
 PHE793  MET794  SER795  GLU796  ALA797  LYS798  CYS799  TRP800  GLU811  SER814 

> <Gold.Protein.RotatedAtoms>
  152.5409  134.0584  159.8140 H   0  0  0  0  0  0  0  0  0  0  0  0  # atno 6907 bound_to 6896
  151.0715  133.5455  159.2634 H   0  0  0  0  0  0  0  0  0  0  0  0  # atno 6908 bound_to 6896
  151.2316  135.0564  159.9044 H   0  0  0  0  0  0  0  0  0  0  0  0  # atno 6909 bound_to 6896
  146.2376  140.1842  142.8332 H   0  0  0  0  0  0  0  0  0  0  0  0  # atno 7974 bound_to 7965
  155.8874  140.3441  155.5931 H   0  0  0  0  0  0  0  0  0  0  0  0  # atno 8008 bound_to 7997
  155.7650  140.0837  157.2155 H   0  0  0  0  0  0  0  0  0  0  0  0  # atno 8009 bound_to 7997
  154.4030  140.1529  156.2864 H   0  0  0  0  0  0  0  0  0  0  0  0  # atno 8010 bound_to 7997
  140.1753  144.4236  150.6641 H   0  0  0  0  0  0  0  0  0  0  0  0  # atno 10167 bound_to 10162
  156.3084  130.4249  149.8074 H   0  0  0  0  0  0  0  0  0  0  0  0  # atno 10718 bound_to 10713
  153.9942  135.2929  155.3409 H   0  0  0  0  0  0  0  0  0  0  0  0  # atno 10763 bound_to 10752
  154.7197  135.5114  153.8795 H   0  0  0  0  0  0  0  0  0  0  0  0  # atno 10764 bound_to 10752
  153.0795  135.6674  154.0191 H   0  0  0  0  0  0  0  0  0  0  0  0  # atno 10765 bound_to 10752
  140.4096  134.1632  155.7667 H   0  0  0  0  0  0  0  0  0  0  0  0  # atno 11005 bound_to 11000
  144.9910  140.8546  143.5339 LP  0  0  0  0  0  0  0  0  0  0  0  0  # atno 17320 bound_to 7965
  145.1848  139.2332  143.5273 LP  0  0  0  0  0  0  0  0  0  0  0  0  # atno 17321 bound_to 7965
  140.6556  143.2236  151.5977 LP  0  0  0  0  0  0  0  0  0  0  0  0  # atno 17342 bound_to 10162
  139.5320  144.2889  152.1168 LP  0  0  0  0  0  0  0  0  0  0  0  0  # atno 17343 bound_to 10162
  156.5427  130.8307  151.3274 LP  0  0  0  0  0  0  0  0  0  0  0  0  # atno 17370 bound_to 10713
  157.7385  130.9814  150.2256 LP  0  0  0  0  0  0  0  0  0  0  0  0  # atno 17371 bound_to 10713
  141.1826  133.8381  157.1203 LP  0  0  0  0  0  0  0  0  0  0  0  0  # atno 17394 bound_to 11000
  140.0277  134.9916  157.0719 LP  0  0  0  0  0  0  0  0  0  0  0  0  # atno 17395 bound_to 11000

$$$$
