AV-unprocessed.smi:1171|AV-procd|sdf|4942|dock5
  -GOLD-   22720 3523D 1   1.00000     0.00000
 Structure written by MMmdl.
 32 33  0  0  0  0  0  0  0  0  1 V2000
  150.8918  137.5284  154.4563 C   0  0  0  0  0  0  0  0  0  0  0  0
  150.4030  138.9253  154.7009 C   0  0  0  0  0  0  0  0  0  0  0  0
  150.9210  139.8898  155.6137 C   0  0  0  0  0  0  0  0  0  0  0  0
  150.0990  140.9647  155.4134 C   0  0  0  0  0  0  0  0  0  0  0  0
  150.1345  142.1892  156.0022 N   0  0  0  0  0  0  0  0  0  0  0  0
  150.8826  142.6080  157.0420 C   0  0  0  0  0  0  0  0  0  0  0  0
  151.6344  141.8893  157.6977 O   0  0  0  0  0  0  0  0  0  0  0  0
  150.7131  143.9049  157.3582 N   0  0  0  0  0  0  0  0  0  0  0  0
  151.3526  144.6514  158.4010 C   0  0  0  0  0  0  0  0  0  0  0  0
  152.8511  144.4933  158.5436 C   0  0  0  0  0  0  0  0  0  0  0  0
  151.9347  143.8836  159.5683 C   0  0  0  0  0  0  0  0  0  0  0  0
  149.1698  140.6417  154.4495 N   0  0  0  0  0  0  0  0  0  0  0  0
  148.1039  141.4479  153.8847 C   0  0  0  0  0  0  0  0  0  0  0  0
  147.1446  141.9404  154.9729 C   0  0  0  0  0  0  0  0  0  0  0  0
  146.0954  142.8223  154.4417 C   0  0  0  0  0  0  0  0  0  0  0  0
  145.2696  143.5157  154.0229 N   0  0  0  0  0  0  0  0  0  0  0  0
  149.3640  139.3800  154.0094 N   0  0  0  0  0  0  0  0  0  0  0  0
  151.7807  137.3122  155.0494 H   0  0  0  0  0  0  0  0  0  0  0  0
  151.1492  137.3801  153.4073 H   0  0  0  0  0  0  0  0  0  0  0  0
  150.1299  136.7948  154.7211 H   0  0  0  0  0  0  0  0  0  0  0  0
  151.7587  139.7911  156.2876 H   0  0  0  0  0  0  0  0  0  0  0  0
  149.5206  142.8799  155.5964 H   0  0  0  0  0  0  0  0  0  0  0  0
  149.9996  144.4002  156.8429 H   0  0  0  0  0  0  0  0  0  0  0  0
  150.9775  145.6511  158.6159 H   0  0  0  0  0  0  0  0  0  0  0  0
  153.3611  143.8162  157.8606 H   0  0  0  0  0  0  0  0  0  0  0  0
  153.4220  145.3708  158.8409 H   0  0  0  0  0  0  0  0  0  0  0  0
  151.8928  144.3543  160.5485 H   0  0  0  0  0  0  0  0  0  0  0  0
  151.8310  142.8000  159.5679 H   0  0  0  0  0  0  0  0  0  0  0  0
  148.5406  142.2942  153.3523 H   0  0  0  0  0  0  0  0  0  0  0  0
  147.5685  140.8526  153.1442 H   0  0  0  0  0  0  0  0  0  0  0  0
  146.6551  141.0976  155.4617 H   0  0  0  0  0  0  0  0  0  0  0  0
  147.6890  142.4900  155.7411 H   0  0  0  0  0  0  0  0  0  0  0  0
  1  2  1  0  0  0  0
  1 18  1  0  0  0  0
  1 19  1  0  0  0  0
  1 20  1  0  0  0  0
  2 17  2  0  0  0  0
  2  3  1  0  0  0  0
  3  4  2  0  0  0  0
  3 21  1  0  0  0  0
  4  5  1  0  0  0  0
  4 12  1  0  0  0  0
  5  6  1  0  0  0  0
  5 22  1  0  0  0  0
  6  7  2  0  0  0  0
  6  8  1  0  0  0  0
  8  9  1  0  0  0  0
  8 23  1  0  0  0  0
  9 11  1  0  0  0  0
  9 10  1  0  0  0  0
  9 24  1  0  0  0  0
 10 11  1  0  0  0  0
 10 25  1  0  0  0  0
 10 26  1  0  0  0  0
 11 27  1  0  0  0  0
 11 28  1  0  0  0  0
 12 13  1  0  0  0  0
 12 17  1  0  0  0  0
 13 14  1  0  0  0  0
 13 29  1  0  0  0  0
 13 30  1  0  0  0  0
 14 15  1  0  0  0  0
 14 31  1  0  0  0  0
 14 32  1  0  0  0  0
 15 16  3  0  0  0  0
M  END
> <s_m_source_file>
AV-unprocessed.smi

> <i_m_source_file_index>
1171

> <i_lp_mmshare_version>
43012

> <i_f3d_flags>
0

> <s_epik_input>
TiNDW0NIMl1bQ0gyXW4objEpYyhbY0hdYzFbQ0gzXSlbTkhdQyg9TylbTkhdW0NIXTJbQ0gyXVtDSDJdMg==

> <s_epik_cmdline>
J2VwaWtfcHl0aG9uJywgJy1waCcsICc3LjAnLCAnLXRuJywgJzgnLCAnLW1hJywgJzIwMCcsICctbWV0YWxfYmluZGluZycsICctaW1hZScsICc8aW5maWxlLm1hZT4nLCAnLW9tYWUnLCAnPG91dGZpbGUubWFlPic=

> <r_lp_tautomer_probability>
1

> <r_epik_Ionization_Penalty>
3.70036e-05

> <r_epik_Ionization_Penalty_Charging>
0

> <r_epik_Ionization_Penalty_Neutral>
3.70036e-05

> <r_epik_State_Penalty>
-0

> <r_epik_Charging_Adjusted_Penalty>
0

> <i_epik_Tot_Q>
0

> <i_epik_Tot_abs_Q>
0

> <r_epik_Metal_State_Penalty>
-0

> <b_epik_Metal_Only>
0

> <s_lp_Force_Field>
OPLS_2005

> <r_lp_Energy>
27.1595

> <b_lp_Chiralities_Consistent>
1

> <s_lp_Variant>
AV-unprocessed.smi:1171-1

> <Gold.Version>
5.8.1

> <Gold.Id.Protein>
6NUR|6NUR_protein|mol2

> <Gold.PLP.Fitness>
46.2182

> <Gold.PLP.PLP>
-40.8674

> <Gold.PLP.part.hbond>
-2.0000

> <Gold.PLP.part.metal>
0.0000

> <Gold.PLP.part.buried>
-5.0083

> <Gold.PLP.part.nonpolar>
-35.9361

> <Gold.PLP.part.repulsive>
2.0899

> <Gold.PLP.ligand.clash>
0.0000

> <Gold.PLP.ligand.torsion>
0.2637

> <Gold.PLP.Chemscore.Hbond>
1.9440

> <Gold.PLP.Chemscore.CHOScore>
0.0000

> <Gold.PLP.Chemscore.Metal>
0.0000

> <Gold.Chemscore.Hbonds>
donor molecule, donor type, donor heavy atom, donor atom, acceptor molecule, acceptor atom, score
      L1  H     5    22       P1  8028  0.93
      L1  H     8    23       P1  8028  1.00

> <Gold.PLP.Chemscore.Internal.Correction>
0.0461

> <Gold.Rescore>
     Score         DG    S(hbond)    S(metal)    S(lipo)     H(rot)  DE(clash)    DE(int)     intcor
     12.84     -15.75       1.78        0.00      72.15       1.61       0.13       2.78       ----

> <Gold.Chemscore.Fitness>
12.8419

> <Gold.Chemscore.DG>
-15.7536

> <Gold.Chemscore.ZeroCoef>
-5.4800

> <Gold.Chemscore.Hbond>
1.7792

> <Gold.Chemscore.Metal>
0.0000

> <Gold.Chemscore.Lipo>
72.1491

> <Gold.Chemscore.Internal_Hbond>
0.0000

> <Gold.Chemscore.DEClash>
0.1334

> <Gold.Chemscore.DEInternal>
2.7783

> <Gold.Chemscore.Rot>
1.6056

> <Gold.Chemscore.Internal.Correction>
   9.000000E+99

> <Gold.Chemscore.Hbonds>
donor molecule, donor type, donor heavy atom, donor atom, acceptor molecule, acceptor atom, score
      L1  H     5    22       P1  8028  0.90
      L1  H     8    23       P1  8028  0.81

> <Gold.Chemscore.Hbond.Weighted>
-5.9424

> <Gold.Chemscore.Metal.Weighted>
-0.0000

> <Gold.Chemscore.Lipo.Weighted>
-8.4414

> <Gold.Chemscore.Internal_Hbond.Weighted>
0.0000

> <Gold.Chemscore.DEClash.Weighted>
0.1334

> <Gold.Chemscore.DEInternal.Weighted>
2.7783

> <Gold.Chemscore.Rot.Weighted>
4.1102

> <Gold.Chemscore.Internal.Correction.Weighted>
   9.000000E+99

> <Gold.Protein.RotatedTorsions>
[ 6907 6896 6895 6894 ] final -105.35 input  -60.11 | X-H torsion
[ 7974 7965 7964 7962 ] final -179.96 input  175.53 | X-H torsion
[ 8008 7997 7996 7995 ] final  -38.22 input   59.86 | X-H torsion
[ 10167 10162 10161 10158 ] final  171.99 input  -65.29 | X-H torsion
[ 10718 10713 10712 10709 ] final -128.14 input   66.30 | X-H torsion
[ 10763 10752 10751 10750 ] final -130.89 input  -60.55 | X-H torsion
[ 11005 11000 10999 10996 ] final   81.89 input  -57.11 | X-H torsion

> <Gold.Protein.ActiveResidues>
 VAL166  LYS551  ARG553  GLY616  TRP617  ASP618  TYR619  PRO620  LYS621  CYS622 
 ASP623  PHE694  ASN695  SER759  ASP760  ASP761  ALA762  ILE779  LEU786  VAL792 
 PHE793  MET794  SER795  GLU796  ALA797  LYS798  CYS799  TRP800  GLU811  SER814 

> <Gold.Protein.RotatedAtoms>
  150.7332  134.0140  159.3678 H   0  0  0  0  0  0  0  0  0  0  0  0  # atno 6907 bound_to 6896
  151.8101  135.0681  160.0421 H   0  0  0  0  0  0  0  0  0  0  0  0  # atno 6908 bound_to 6896
  152.3078  133.5685  159.5697 H   0  0  0  0  0  0  0  0  0  0  0  0  # atno 6909 bound_to 6896
  144.7140  140.0639  143.6431 H   0  0  0  0  0  0  0  0  0  0  0  0  # atno 7974 bound_to 7965
  154.4040  140.1583  156.2664 H   0  0  0  0  0  0  0  0  0  0  0  0  # atno 8008 bound_to 7997
  155.8991  140.3434  155.5991 H   0  0  0  0  0  0  0  0  0  0  0  0  # atno 8009 bound_to 7997
  155.7468  140.0800  157.2210 H   0  0  0  0  0  0  0  0  0  0  0  0  # atno 8010 bound_to 7997
  139.5063  144.3423  152.0005 H   0  0  0  0  0  0  0  0  0  0  0  0  # atno 10167 bound_to 10162
  156.1923  130.6803  151.0439 H   0  0  0  0  0  0  0  0  0  0  0  0  # atno 10718 bound_to 10713
  154.8753  135.3848  154.4157 H   0  0  0  0  0  0  0  0  0  0  0  0  # atno 10763 bound_to 10752
  153.4866  135.7030  153.5913 H   0  0  0  0  0  0  0  0  0  0  0  0  # atno 10764 bound_to 10752
  153.4305  135.3880  155.2134 H   0  0  0  0  0  0  0  0  0  0  0  0  # atno 10765 bound_to 10752
  139.9082  134.8030  156.2101 H   0  0  0  0  0  0  0  0  0  0  0  0  # atno 11005 bound_to 11000
  145.9841  139.2963  143.1024 LP  0  0  0  0  0  0  0  0  0  0  0  0  # atno 17320 bound_to 7965
  145.8978  140.9263  143.0519 LP  0  0  0  0  0  0  0  0  0  0  0  0  # atno 17321 bound_to 7965
  140.2861  144.3805  150.6103 LP  0  0  0  0  0  0  0  0  0  0  0  0  # atno 17342 bound_to 10162
  140.5981  143.2167  151.7124 LP  0  0  0  0  0  0  0  0  0  0  0  0  # atno 17343 bound_to 10162
  157.6936  131.0801  150.7035 LP  0  0  0  0  0  0  0  0  0  0  0  0  # atno 17370 bound_to 10713
  156.7091  130.4646  149.5552 LP  0  0  0  0  0  0  0  0  0  0  0  0  # atno 17371 bound_to 10713
  141.0471  133.6908  156.1703 LP  0  0  0  0  0  0  0  0  0  0  0  0  # atno 17394 bound_to 11000
  140.6868  134.4709  157.5589 LP  0  0  0  0  0  0  0  0  0  0  0  0  # atno 17395 bound_to 11000

$$$$
