AV-unprocessed.smi:1606|AV-procd|sdf|6462|dock10
  -GOLD-   22720 7113D 1   1.00000     0.00000
 Structure written by MMmdl.
 36 37  0  0  0  0  0  0  0  0  2 V2000
  152.7670  139.2169  156.6707 O   0  0  0  0  0  0  0  0  0  0  0  0
  152.4984  139.4038  157.8575 C   0  0  0  0  0  0  0  0  0  0  0  0
  151.4454  140.1285  158.2658 N   0  0  0  0  0  0  0  0  0  0  0  0
  150.4868  140.7941  157.3878 C   0  0  0  0  0  0  0  0  0  0  0  0
  151.0274  142.0877  156.7409 C   0  0  0  0  0  0  0  0  0  0  0  0
  151.4236  143.1619  157.7396 C   0  0  0  0  0  0  0  0  0  0  0  0
  152.4029  142.9389  158.7317 C   0  0  0  0  0  0  0  0  0  0  0  0
  152.7153  143.9751  159.6366 C   0  0  0  0  0  0  0  0  0  0  0  0
  152.0418  145.2101  159.5320 C   0  0  0  0  0  0  0  0  0  0  0  0
  151.0719  145.3784  158.5229 C   0  0  0  0  0  0  0  0  0  0  0  0
  150.8020  144.3624  157.6746 N   0  3  0  0  0  0  0  0  0  0  0  0
  153.3664  138.7803  158.9580 C   0  0  0  0  0  0  0  0  0  0  0  0
  152.5238  137.9369  159.9322 C   0  0  0  0  0  0  0  0  0  0  0  0
  153.3977  137.4068  161.0809 C   0  0  0  0  0  0  0  0  0  0  0  0
  154.0286  138.4922  161.7527 O   0  0  0  0  0  0  0  0  0  0  0  0
  154.9055  139.2341  160.9118 C   0  0  0  0  0  0  0  0  0  0  0  0
  154.1141  139.8646  159.7544 C   0  0  0  0  0  0  0  0  0  0  0  0
  151.3017  140.2344  159.2599 H   0  0  0  0  0  0  0  0  0  0  0  0
  150.2257  140.0840  156.6028 H   0  0  0  0  0  0  0  0  0  0  0  0
  149.5643  141.0006  157.9328 H   0  0  0  0  0  0  0  0  0  0  0  0
  151.8898  141.8488  156.1175 H   0  0  0  0  0  0  0  0  0  0  0  0
  150.2793  142.5017  156.0634 H   0  0  0  0  0  0  0  0  0  0  0  0
  152.9073  141.9860  158.8015 H   0  0  0  0  0  0  0  0  0  0  0  0
  153.4617  143.8240  160.4027 H   0  0  0  0  0  0  0  0  0  0  0  0
  152.2662  146.0157  160.2159 H   0  0  0  0  0  0  0  0  0  0  0  0
  150.5077  146.2869  158.3694 H   0  0  0  0  0  0  0  0  0  0  0  0
  154.1059  138.1263  158.4916 H   0  0  0  0  0  0  0  0  0  0  0  0
  151.7119  138.5339  160.3509 H   0  0  0  0  0  0  0  0  0  0  0  0
  152.0581  137.1020  159.4067 H   0  0  0  0  0  0  0  0  0  0  0  0
  152.7833  136.8602  161.7964 H   0  0  0  0  0  0  0  0  0  0  0  0
  154.1495  136.7091  160.7086 H   0  0  0  0  0  0  0  0  0  0  0  0
  155.3862  140.0126  161.5044 H   0  0  0  0  0  0  0  0  0  0  0  0
  155.6988  138.5869  160.5344 H   0  0  0  0  0  0  0  0  0  0  0  0
  154.7927  140.4146  159.1011 H   0  0  0  0  0  0  0  0  0  0  0  0
  153.4101  140.5938  160.1592 H   0  0  0  0  0  0  0  0  0  0  0  0
  150.0950  144.5048  156.9526 H   0  0  0  0  0  0  0  0  0  0  0  0
  1  2  2  0  0  0  0
  2  3  1  0  0  0  0
  2 12  1  0  0  0  0
  3  4  1  0  0  0  0
  3 18  1  0  0  0  0
  4  5  1  0  0  0  0
  4 19  1  0  0  0  0
  4 20  1  0  0  0  0
  5  6  1  0  0  0  0
  5 21  1  0  0  0  0
  5 22  1  0  0  0  0
  6 11  1  0  0  0  0
  6  7  2  0  0  0  0
  7  8  1  0  0  0  0
  7 23  1  0  0  0  0
  8  9  2  0  0  0  0
  8 24  1  0  0  0  0
  9 10  1  0  0  0  0
  9 25  1  0  0  0  0
 10 11  2  0  0  0  0
 10 26  1  0  0  0  0
 11 36  1  0  0  0  0
 12 17  1  0  0  0  0
 12 13  1  0  0  0  0
 12 27  1  0  0  0  0
 13 14  1  0  0  0  0
 13 28  1  0  0  0  0
 13 29  1  0  0  0  0
 14 15  1  0  0  0  0
 14 30  1  0  0  0  0
 14 31  1  0  0  0  0
 15 16  1  0  0  0  0
 16 17  1  0  0  0  0
 16 32  1  0  0  0  0
 16 33  1  0  0  0  0
 17 34  1  0  0  0  0
 17 35  1  0  0  0  0
M  CHG  1  11   1
M  END
> <s_m_source_file>
AV-unprocessed.smi

> <i_m_source_file_index>
1606

> <i_lp_mmshare_version>
43012

> <i_f3d_flags>
0

> <s_epik_input>
W0NIMl0xW0NIMl1PW0NIMl1bQ0gyXVtDSF0xQyg9TylbTkhdW0NIMl1bQ0gyXWMyW2NIXVtjSF1bY0hdW2NIXW4y

> <s_epik_cmdline>
J2VwaWtfcHl0aG9uJywgJy1waCcsICc3LjAnLCAnLXRuJywgJzgnLCAnLW1hJywgJzIwMCcsICctbWV0YWxfYmluZGluZycsICctaW1hZScsICc8aW5maWxlLm1hZT4nLCAnLW9tYWUnLCAnPG91dGZpbGUubWFlPic=

> <r_epik_Ionization_Penalty>
1.82741

> <r_epik_Ionization_Penalty_Charging>
1.82741

> <r_epik_Ionization_Penalty_Neutral>
1.59153e-08

> <r_epik_State_Penalty>
1.94311

> <r_epik_Charging_Adjusted_Penalty>
3.77052

> <i_epik_Tot_Q>
1

> <i_epik_Tot_abs_Q>
1

> <r_epik_Metal_State_Penalty>
1.96982

> <b_epik_Metal_Only>
0

> <s_lp_Force_Field>
OPLS_2005

> <r_lp_Energy>
14.6238

> <b_lp_Chiralities_Consistent>
1

> <s_lp_Variant>
AV-unprocessed.smi:1606-2

> <Gold.Version>
5.8.1

> <Gold.Id.Protein>
6NUR|6NUR_protein|mol2

> <Gold.PLP.Fitness>
43.0938

> <Gold.PLP.PLP>
-34.4826

> <Gold.PLP.part.hbond>
-2.1850

> <Gold.PLP.part.metal>
0.0000

> <Gold.PLP.part.buried>
-4.7638

> <Gold.PLP.part.nonpolar>
-27.3776

> <Gold.PLP.part.repulsive>
0.1736

> <Gold.PLP.ligand.clash>
0.0000

> <Gold.PLP.ligand.torsion>
0.1851

> <Gold.PLP.Chemscore.Hbond>
2.9920

> <Gold.PLP.Chemscore.CHOScore>
0.0000

> <Gold.PLP.Chemscore.Metal>
0.0000

> <Gold.Chemscore.Hbonds>
donor molecule, donor type, donor heavy atom, donor atom, acceptor molecule, acceptor atom, score
      L1  H    11    36       P1  8028  2.00
      P1  H  7997  8008       L1     1  0.93

> <Gold.PLP.Chemscore.Internal.Correction>
0.0055

> <Gold.Rescore>
     Score         DG    S(hbond)    S(metal)    S(lipo)     H(rot)  DE(clash)    DE(int)     intcor
     19.30     -19.47       1.84        0.00     101.25       1.56       0.10       0.08       ----

> <Gold.Chemscore.Fitness>
19.2966

> <Gold.Chemscore.DG>
-19.4741

> <Gold.Chemscore.ZeroCoef>
-5.4800

> <Gold.Chemscore.Hbond>
1.8363

> <Gold.Chemscore.Metal>
0.0000

> <Gold.Chemscore.Lipo>
101.2534

> <Gold.Chemscore.Internal_Hbond>
0.0000

> <Gold.Chemscore.DEClash>
0.1013

> <Gold.Chemscore.DEInternal>
0.0762

> <Gold.Chemscore.Rot>
1.5569

> <Gold.Chemscore.Internal.Correction>
   9.000000E+99

> <Gold.Chemscore.Hbonds>
donor molecule, donor type, donor heavy atom, donor atom, acceptor molecule, acceptor atom, score
      L1  H    11    36       P1  8028  0.70
      P1  H  7997  8008       L1     1  0.74

> <Gold.Chemscore.Hbond.Weighted>
-6.1332

> <Gold.Chemscore.Metal.Weighted>
-0.0000

> <Gold.Chemscore.Lipo.Weighted>
-11.8467

> <Gold.Chemscore.Internal_Hbond.Weighted>
0.0000

> <Gold.Chemscore.DEClash.Weighted>
0.1013

> <Gold.Chemscore.DEInternal.Weighted>
0.0762

> <Gold.Chemscore.Rot.Weighted>
3.9857

> <Gold.Chemscore.Internal.Correction.Weighted>
   9.000000E+99

> <Gold.Protein.RotatedTorsions>
[ 6907 6896 6895 6894 ] final -162.84 input  -60.11 | X-H torsion
[ 7974 7965 7964 7962 ] final  171.18 input  175.53 | X-H torsion
[ 8008 7997 7996 7995 ] final  -29.95 input   59.86 | X-H torsion
[ 10167 10162 10161 10158 ] final  -19.30 input  -65.29 | X-H torsion
[ 10718 10713 10712 10709 ] final -154.72 input   66.30 | X-H torsion
[ 10763 10752 10751 10750 ] final  -97.90 input  -60.55 | X-H torsion
[ 11005 11000 10999 10996 ] final -146.59 input  -57.11 | X-H torsion

> <Gold.Protein.ActiveResidues>
 VAL166  LYS551  ARG553  GLY616  TRP617  ASP618  TYR619  PRO620  LYS621  CYS622 
 ASP623  PHE694  ASN695  SER759  ASP760  ASP761  ALA762  ILE779  LEU786  VAL792 
 PHE793  MET794  SER795  GLU796  ALA797  LYS798  CYS799  TRP800  GLU811  SER814 

> <Gold.Protein.RotatedAtoms>
  151.3867  133.3803  159.2715 H   0  0  0  0  0  0  0  0  0  0  0  0  # atno 6907 bound_to 6896
  150.9536  134.8934  159.7698 H   0  0  0  0  0  0  0  0  0  0  0  0  # atno 6908 bound_to 6896
  152.5122  134.3823  159.9408 H   0  0  0  0  0  0  0  0  0  0  0  0  # atno 6909 bound_to 6896
  144.7302  139.9311  143.6424 H   0  0  0  0  0  0  0  0  0  0  0  0  # atno 7974 bound_to 7965
  154.4269  140.1804  156.1330 H   0  0  0  0  0  0  0  0  0  0  0  0  # atno 8008 bound_to 7997
  156.0053  140.3356  155.6861 H   0  0  0  0  0  0  0  0  0  0  0  0  # atno 8009 bound_to 7997
  155.6187  140.0657  157.2675 H   0  0  0  0  0  0  0  0  0  0  0  0  # atno 8010 bound_to 7997
  140.7267  143.4832  151.0090 H   0  0  0  0  0  0  0  0  0  0  0  0  # atno 10167 bound_to 10162
  156.5032  130.8401  151.2617 H   0  0  0  0  0  0  0  0  0  0  0  0  # atno 10718 bound_to 10713
  154.7368  135.5029  153.9054 H   0  0  0  0  0  0  0  0  0  0  0  0  # atno 10763 bound_to 10752
  153.1003  135.6683  153.9694 H   0  0  0  0  0  0  0  0  0  0  0  0  # atno 10764 bound_to 10752
  153.9482  135.3060  155.3419 H   0  0  0  0  0  0  0  0  0  0  0  0  # atno 10765 bound_to 10752
  140.7804  134.3085  157.5047 H   0  0  0  0  0  0  0  0  0  0  0  0  # atno 11005 bound_to 11000
  146.0856  139.3845  143.0437 LP  0  0  0  0  0  0  0  0  0  0  0  0  # atno 17320 bound_to 7965
  145.7781  140.9868  143.1114 LP  0  0  0  0  0  0  0  0  0  0  0  0  # atno 17321 bound_to 7965
  139.8532  143.7411  152.3177 LP  0  0  0  0  0  0  0  0  0  0  0  0  # atno 17342 bound_to 10162
  139.7601  144.7509  151.0377 LP  0  0  0  0  0  0  0  0  0  0  0  0  # atno 17343 bound_to 10162
  157.7460  130.9975  150.2817 LP  0  0  0  0  0  0  0  0  0  0  0  0  # atno 17370 bound_to 10713
  156.3313  130.3801  149.7489 LP  0  0  0  0  0  0  0  0  0  0  0  0  # atno 17371 bound_to 10713
  139.8743  134.9315  156.3530 LP  0  0  0  0  0  0  0  0  0  0  0  0  # atno 17394 bound_to 11000
  140.9488  133.7465  156.0244 LP  0  0  0  0  0  0  0  0  0  0  0  0  # atno 17395 bound_to 11000

$$$$
