AV-unprocessed.smi:2156|AV-procd|sdf|8780|dock6
  -GOLD-   2272011563D 1   1.00000     0.00000
 Structure written by MMmdl.
 34 34  0  0  0  0  0  0  0  0  1 V2000
  153.0745  142.9182  162.6514 C   0  0  0  0  0  0  0  0  0  0  0  0
  152.3226  143.7851  161.6359 C   0  0  0  0  0  0  0  0  0  0  0  0
  152.2825  143.1507  160.2346 C   0  0  0  0  0  0  0  0  0  0  0  0
  151.6341  144.0438  159.1578 C   0  0  1  0  0  0  0  0  0  0  0  0
  152.4654  145.3076  158.8978 C   0  0  0  0  0  0  0  0  0  0  0  0
  151.4745  143.3124  157.9019 N   0  0  0  0  0  0  0  0  0  0  0  0
  150.7496  142.1965  157.7245 C   0  0  0  0  0  0  0  0  0  0  0  0
  150.1371  141.6348  158.6336 O   0  0  0  0  0  0  0  0  0  0  0  0
  150.7458  141.6173  156.3027 C   0  0  0  0  0  0  0  0  0  0  0  0
  151.2116  140.2239  156.2494 N   0  0  0  0  0  0  0  0  0  0  0  0
  151.8275  139.6486  157.3520 C   0  0  0  0  0  0  0  0  0  0  0  0
  152.2671  138.3680  157.3768 C   0  0  0  0  0  0  0  0  0  0  0  0
  152.1065  137.5093  156.2082 C   0  0  0  0  0  0  0  0  0  0  0  0
  152.4726  136.3385  156.1326 O   0  0  0  0  0  0  0  0  0  0  0  0
  151.4802  138.1236  155.1205 N   0  0  0  0  0  0  0  0  0  0  0  0
  151.0232  139.4421  155.0890 C   0  0  0  0  0  0  0  0  0  0  0  0
  150.4787  139.8838  154.0776 O   0  0  0  0  0  0  0  0  0  0  0  0
  151.3441  137.5670  154.2893 H   0  0  0  0  0  0  0  0  0  0  0  0
  153.0848  143.3914  163.6334 H   0  0  0  0  0  0  0  0  0  0  0  0
  154.1098  142.7621  162.3467 H   0  0  0  0  0  0  0  0  0  0  0  0
  152.6045  141.9403  162.7581 H   0  0  0  0  0  0  0  0  0  0  0  0
  151.3090  143.9535  162.0001 H   0  0  0  0  0  0  0  0  0  0  0  0
  152.7972  144.7655  161.5798 H   0  0  0  0  0  0  0  0  0  0  0  0
  153.3035  142.9183  159.9289 H   0  0  0  0  0  0  0  0  0  0  0  0
  151.7577  142.1956  160.2835 H   0  0  0  0  0  0  0  0  0  0  0  0
  150.6607  144.3702  159.5282 H   0  0  0  0  0  0  0  0  0  0  0  0
  152.5777  145.8973  159.8079 H   0  0  0  0  0  0  0  0  0  0  0  0
  151.9889  145.9443  158.1517 H   0  0  0  0  0  0  0  0  0  0  0  0
  153.4640  145.0602  158.5362 H   0  0  0  0  0  0  0  0  0  0  0  0
  151.9501  143.6931  157.0966 H   0  0  0  0  0  0  0  0  0  0  0  0
  149.7451  141.6960  155.8729 H   0  0  0  0  0  0  0  0  0  0  0  0
  151.3773  142.2507  155.6778 H   0  0  0  0  0  0  0  0  0  0  0  0
  151.9628  140.2462  158.2423 H   0  0  0  0  0  0  0  0  0  0  0  0
  152.7383  137.9765  158.2667 H   0  0  0  0  0  0  0  0  0  0  0  0
  1  2  1  0  0  0  0
  1 19  1  0  0  0  0
  1 20  1  0  0  0  0
  1 21  1  0  0  0  0
  2  3  1  0  0  0  0
  2 22  1  0  0  0  0
  2 23  1  0  0  0  0
  3  4  1  0  0  0  0
  3 24  1  0  0  0  0
  3 25  1  0  0  0  0
  4  5  1  0  0  0  0
  4  6  1  0  0  0  0
  4 26  1  0  0  0  0
  5 27  1  0  0  0  0
  5 28  1  0  0  0  0
  5 29  1  0  0  0  0
  6  7  1  0  0  0  0
  6 30  1  0  0  0  0
  7  8  2  0  0  0  0
  7  9  1  0  0  0  0
  9 10  1  0  0  0  0
  9 31  1  0  0  0  0
  9 32  1  0  0  0  0
 10 16  1  0  0  0  0
 10 11  1  0  0  0  0
 11 12  2  0  0  0  0
 11 33  1  0  0  0  0
 12 13  1  0  0  0  0
 12 34  1  0  0  0  0
 13 14  2  0  0  0  0
 13 15  1  0  0  0  0
 15 18  1  0  0  0  0
 15 16  1  0  0  0  0
 16 17  2  0  0  0  0
M  END
> <s_m_source_file>
AV-unprocessed.smi

> <i_m_source_file_index>
2156

> <i_lp_mmshare_version>
43012

> <i_f3d_flags>
0

> <s_epik_input>
W0NIM11bQ0gyXVtDSDJdW0NASF0oW0NIM10pW05IXUMoPU8pW0NIMl1uMVtjSF1bY0hdYyg9TylbbkhdYzE9Tw==

> <s_epik_cmdline>
J2VwaWtfcHl0aG9uJywgJy1waCcsICc3LjAnLCAnLXRuJywgJzgnLCAnLW1hJywgJzIwMCcsICctbWV0YWxfYmluZGluZycsICctaW1hZScsICc8aW5maWxlLm1hZT4nLCAnLW9tYWUnLCAnPG91dGZpbGUubWFlPic=

> <r_lp_tautomer_probability>
0.999537

> <r_epik_Ionization_Penalty>
0.00324917

> <r_epik_Ionization_Penalty_Charging>
0.00324916

> <r_epik_Ionization_Penalty_Neutral>
1.93017e-08

> <r_epik_State_Penalty>
0.00229371

> <r_epik_Charging_Adjusted_Penalty>
0.00554286

> <i_epik_Tot_Q>
0

> <i_epik_Tot_abs_Q>
0

> <r_epik_Metal_State_Penalty>
0.364744

> <b_epik_Metal_Only>
0

> <s_lp_Force_Field>
OPLS_2005

> <r_lp_Energy>
3.29576

> <b_lp_Chiralities_Consistent>
1

> <s_lp_Variant>
AV-unprocessed.smi:2156-2

> <Gold.Version>
5.8.1

> <Gold.Id.Protein>
6NUR|6NUR_protein|mol2

> <Gold.PLP.Fitness>
42.5162

> <Gold.PLP.PLP>
-36.8769

> <Gold.PLP.part.hbond>
-2.2846

> <Gold.PLP.part.metal>
0.0000

> <Gold.PLP.part.buried>
-5.8479

> <Gold.PLP.part.nonpolar>
-28.6007

> <Gold.PLP.part.repulsive>
0.8636

> <Gold.PLP.ligand.clash>
0.0000

> <Gold.PLP.ligand.torsion>
0.1882

> <Gold.PLP.Chemscore.Hbond>
2.0000

> <Gold.PLP.Chemscore.CHOScore>
0.0000

> <Gold.PLP.Chemscore.Metal>
0.0000

> <Gold.Chemscore.Hbonds>
donor molecule, donor type, donor heavy atom, donor atom, acceptor molecule, acceptor atom, score
      P1  H  7989  7998       L1    17  1.00
      P1  H 10752 10765       L1    14  0.99

> <Gold.PLP.Chemscore.Internal.Correction>
0.0157

> <Gold.Rescore>
     Score         DG    S(hbond)    S(metal)    S(lipo)     H(rot)  DE(clash)    DE(int)     intcor
     13.88     -15.38       1.91        0.00      78.22       2.19       0.09       1.41       ----

> <Gold.Chemscore.Fitness>
13.8815

> <Gold.Chemscore.DG>
-15.3809

> <Gold.Chemscore.ZeroCoef>
-5.4800

> <Gold.Chemscore.Hbond>
1.9065

> <Gold.Chemscore.Metal>
0.0000

> <Gold.Chemscore.Lipo>
78.2212

> <Gold.Chemscore.Internal_Hbond>
0.0000

> <Gold.Chemscore.DEClash>
0.0901

> <Gold.Chemscore.DEInternal>
1.4093

> <Gold.Chemscore.Rot>
2.1949

> <Gold.Chemscore.Internal.Correction>
   9.000000E+99

> <Gold.Chemscore.Hbonds>
donor molecule, donor type, donor heavy atom, donor atom, acceptor molecule, acceptor atom, score
      P1  H  7989  7998       L1    17  0.34
      P1  H 10752 10765       L1    14  0.92

> <Gold.Chemscore.Hbond.Weighted>
-6.3679

> <Gold.Chemscore.Metal.Weighted>
-0.0000

> <Gold.Chemscore.Lipo.Weighted>
-9.1519

> <Gold.Chemscore.Internal_Hbond.Weighted>
0.0000

> <Gold.Chemscore.DEClash.Weighted>
0.0901

> <Gold.Chemscore.DEInternal.Weighted>
1.4093

> <Gold.Chemscore.Rot.Weighted>
5.6188

> <Gold.Chemscore.Internal.Correction.Weighted>
   9.000000E+99

> <Gold.Protein.RotatedTorsions>
[ 6907 6896 6895 6894 ] final  -26.74 input  -60.11 | X-H torsion
[ 7974 7965 7964 7962 ] final   -8.75 input  175.53 | X-H torsion
[ 8008 7997 7996 7995 ] final -127.96 input   59.86 | X-H torsion
[ 10167 10162 10161 10158 ] final   35.41 input  -65.29 | X-H torsion
[ 10718 10713 10712 10709 ] final   40.49 input   66.30 | X-H torsion
[ 10763 10752 10751 10750 ] final -145.54 input  -60.55 | X-H torsion
[ 11005 11000 10999 10996 ] final -152.54 input  -57.11 | X-H torsion

> <Gold.Protein.ActiveResidues>
 VAL166  LYS551  ARG553  GLY616  TRP617  ASP618  TYR619  PRO620  LYS621  CYS622 
 ASP623  PHE694  ASN695  SER759  ASP760  ASP761  ALA762  ILE779  LEU786  VAL792 
 PHE793  MET794  SER795  GLU796  ALA797  LYS798  CYS799  TRP800  GLU811  SER814 

> <Gold.Protein.RotatedAtoms>
  151.1568  135.0254  159.8692 H   0  0  0  0  0  0  0  0  0  0  0  0  # atno 6907 bound_to 6896
  152.5452  134.1325  159.8455 H   0  0  0  0  0  0  0  0  0  0  0  0  # atno 6908 bound_to 6896
  151.1416  133.4921  159.2629 H   0  0  0  0  0  0  0  0  0  0  0  0  # atno 6909 bound_to 6896
  146.2271  140.2515  142.8347 H   0  0  0  0  0  0  0  0  0  0  0  0  # atno 7974 bound_to 7965
  155.2547  140.0433  157.2991 H   0  0  0  0  0  0  0  0  0  0  0  0  # atno 8008 bound_to 7997
  154.5747  140.2384  155.8109 H   0  0  0  0  0  0  0  0  0  0  0  0  # atno 8009 bound_to 7997
  156.2149  140.2988  155.9824 H   0  0  0  0  0  0  0  0  0  0  0  0  # atno 8010 bound_to 7997
  140.4224  144.1440  150.6149 H   0  0  0  0  0  0  0  0  0  0  0  0  # atno 10167 bound_to 10162
  157.3828  130.7763  149.7206 H   0  0  0  0  0  0  0  0  0  0  0  0  # atno 10718 bound_to 10713
  154.8378  135.3410  154.6521 H   0  0  0  0  0  0  0  0  0  0  0  0  # atno 10763 bound_to 10752
  153.7134  135.6962  153.5036 H   0  0  0  0  0  0  0  0  0  0  0  0  # atno 10764 bound_to 10752
  153.2434  135.4377  155.0676 H   0  0  0  0  0  0  0  0  0  0  0  0  # atno 10765 bound_to 10752
  140.7178  134.3761  157.5188 H   0  0  0  0  0  0  0  0  0  0  0  0  # atno 11005 bound_to 11000
  144.9408  140.8076  143.5631 LP  0  0  0  0  0  0  0  0  0  0  0  0  # atno 17320 bound_to 7965
  145.2466  139.2049  143.4964 LP  0  0  0  0  0  0  0  0  0  0  0  0  # atno 17321 bound_to 7965
  140.4518  143.2483  151.9337 LP  0  0  0  0  0  0  0  0  0  0  0  0  # atno 17342 bound_to 10162
  139.4783  144.5554  151.8321 LP  0  0  0  0  0  0  0  0  0  0  0  0  # atno 17343 bound_to 10162
  155.9779  130.4057  150.3679 LP  0  0  0  0  0  0  0  0  0  0  0  0  # atno 17370 bound_to 10713
  157.1785  131.0386  151.2760 LP  0  0  0  0  0  0  0  0  0  0  0  0  # atno 17371 bound_to 10713
  139.8855  134.8934  156.2636 LP  0  0  0  0  0  0  0  0  0  0  0  0  # atno 17394 bound_to 11000
  141.0030  133.7140  156.0990 LP  0  0  0  0  0  0  0  0  0  0  0  0  # atno 17395 bound_to 11000

$$$$
