AV-unprocessed.smi:2986|AV-procd|sdf|11384|dock8
  -GOLD-   2272016303D 1   1.00000     0.00000
 Structure written by MMmdl.
 42 44  0  0  0  0  0  0  0  0  3 V2000
  147.5900  127.8786  151.3311 C   0  0  0  0  0  0  0  0  0  0  0  0
  147.1338  128.6385  152.4361 O   0  0  0  0  0  0  0  0  0  0  0  0
  148.1982  129.2022  153.1855 C   0  0  0  0  0  0  0  0  0  0  0  0
  147.6745  130.3556  154.0531 C   0  0  0  0  0  0  0  0  0  0  0  0
  147.5212  131.6022  153.2888 N   0  0  0  0  0  0  0  0  0  0  0  0
  148.2201  132.7691  153.3630 C   0  0  0  0  0  0  0  0  0  0  0  0
  149.5628  133.1138  154.4523 S   0  0  0  0  0  0  0  0  0  0  0  0
  149.3053  134.8216  155.0063 C   0  0  0  0  0  0  0  0  0  0  0  0
  150.4931  135.3585  155.8057 C   0  0  0  0  0  0  0  0  0  0  0  0
  150.6081  135.0409  156.9905 O   0  0  0  0  0  0  0  0  0  0  0  0
  151.2949  136.1509  155.0537 N   0  5  0  0  0  0  0  0  0  0  0  0
  151.5265  137.4159  155.4347 C   0  0  0  0  0  0  0  0  0  0  0  0
  150.5414  138.3680  155.8150 C   0  0  0  0  0  0  0  0  0  0  0  0
  151.2780  139.4834  156.0966 C   0  0  0  0  0  0  0  0  0  0  0  0
  150.9105  140.8508  156.5612 C   0  0  0  0  0  0  0  0  0  0  0  0
  152.6007  139.2389  155.8958 O   0  0  0  0  0  0  0  0  0  0  0  0
  152.7509  137.9150  155.4658 N   0  0  0  0  0  0  0  0  0  0  0  0
  147.6912  133.6270  152.4475 N   0  3  0  0  0  0  0  0  0  0  0  0
  146.6338  133.0050  151.7822 C   0  0  0  0  0  0  0  0  0  0  0  0
  145.7906  133.4709  150.7782 C   0  0  0  0  0  0  0  0  0  0  0  0
  144.7997  132.5784  150.3189 C   0  0  0  0  0  0  0  0  0  0  0  0
  144.6759  131.2801  150.8547 C   0  0  0  0  0  0  0  0  0  0  0  0
  145.5381  130.8175  151.8704 C   0  0  0  0  0  0  0  0  0  0  0  0
  146.5164  131.7050  152.3188 C   0  0  0  0  0  0  0  0  0  0  0  0
  146.7362  127.4718  150.7893 H   0  0  0  0  0  0  0  0  0  0  0  0
  148.2107  127.0429  151.6572 H   0  0  0  0  0  0  0  0  0  0  0  0
  148.1661  128.4943  150.6392 H   0  0  0  0  0  0  0  0  0  0  0  0
  148.6531  128.4394  153.8197 H   0  0  0  0  0  0  0  0  0  0  0  0
  148.9734  129.5705  152.5120 H   0  0  0  0  0  0  0  0  0  0  0  0
  146.6984  130.0979  154.4650 H   0  0  0  0  0  0  0  0  0  0  0  0
  148.3285  130.5335  154.9065 H   0  0  0  0  0  0  0  0  0  0  0  0
  149.0901  135.4479  154.1385 H   0  0  0  0  0  0  0  0  0  0  0  0
  148.4190  134.8518  155.6404 H   0  0  0  0  0  0  0  0  0  0  0  0
  149.4700  138.2491  155.8761 H   0  0  0  0  0  0  0  0  0  0  0  0
  149.8472  141.0392  156.4115 H   0  0  0  0  0  0  0  0  0  0  0  0
  151.4683  141.6100  156.0128 H   0  0  0  0  0  0  0  0  0  0  0  0
  151.1295  140.9687  157.6224 H   0  0  0  0  0  0  0  0  0  0  0  0
  145.8824  134.4661  150.3682 H   0  0  0  0  0  0  0  0  0  0  0  0
  144.1198  132.8963  149.5418 H   0  0  0  0  0  0  0  0  0  0  0  0
  143.9024  130.6248  150.4804 H   0  0  0  0  0  0  0  0  0  0  0  0
  145.4295  129.8228  152.2773 H   0  0  0  0  0  0  0  0  0  0  0  0
  148.0305  134.5679  152.2948 H   0  0  0  0  0  0  0  0  0  0  0  0
  1  2  1  0  0  0  0
  1 25  1  0  0  0  0
  1 26  1  0  0  0  0
  1 27  1  0  0  0  0
  2  3  1  0  0  0  0
  3  4  1  0  0  0  0
  3 28  1  0  0  0  0
  3 29  1  0  0  0  0
  4  5  1  0  0  0  0
  4 30  1  0  0  0  0
  4 31  1  0  0  0  0
  5 24  1  0  0  0  0
  5  6  1  0  0  0  0
  6  7  1  0  0  0  0
  6 18  2  0  0  0  0
  7  8  1  0  0  0  0
  8  9  1  0  0  0  0
  8 32  1  0  0  0  0
  8 33  1  0  0  0  0
  9 10  2  0  0  0  0
  9 11  1  0  0  0  0
 11 12  1  0  0  0  0
 12 17  2  0  0  0  0
 12 13  1  0  0  0  0
 13 14  2  0  0  0  0
 13 34  1  0  0  0  0
 14 15  1  0  0  0  0
 14 16  1  0  0  0  0
 15 35  1  0  0  0  0
 15 36  1  0  0  0  0
 15 37  1  0  0  0  0
 16 17  1  0  0  0  0
 18 19  1  0  0  0  0
 18 42  1  0  0  0  0
 19 24  2  0  0  0  0
 19 20  1  0  0  0  0
 20 21  2  0  0  0  0
 20 38  1  0  0  0  0
 21 22  1  0  0  0  0
 21 39  1  0  0  0  0
 22 23  2  0  0  0  0
 22 40  1  0  0  0  0
 23 24  1  0  0  0  0
 23 41  1  0  0  0  0
M  CHG  1  11  -1
M  CHG  1  18   1
M  END
> <s_m_source_file>
AV-unprocessed.smi

> <i_m_source_file_index>
2986

> <i_lp_mmshare_version>
43012

> <i_f3d_flags>
0

> <s_epik_input>
W2NIXTFbY0hdW2NIXVtjSF1jKGMxMiluKFtDSDJdW0NIMl1PW0NIM10pYyhuMilTW0NIMl1DKD1PKVtOSF1jM1tjSF1jKFtDSDNdKW9uMw==

> <s_epik_cmdline>
J2VwaWtfcHl0aG9uJywgJy1waCcsICc3LjAnLCAnLXRuJywgJzgnLCAnLW1hJywgJzIwMCcsICctbWV0YWxfYmluZGluZycsICctaW1hZScsICc8aW5maWxlLm1hZT4nLCAnLW9tYWUnLCAnPG91dGZpbGUubWFlPic=

> <r_epik_Ionization_Penalty>
5.85337

> <r_epik_Ionization_Penalty_Charging>
5.85335

> <r_epik_Ionization_Penalty_Neutral>
1.96301e-05

> <r_epik_State_Penalty>
6.06575

> <r_epik_Charging_Adjusted_Penalty>
11.9191

> <i_epik_Tot_Q>
0

> <i_epik_Tot_abs_Q>
2

> <r_epik_Metal_State_Penalty>
2.64129

> <b_epik_Metal_Only>
1

> <s_lp_Force_Field>
OPLS_2005

> <r_lp_Energy>
5.16942

> <b_lp_Chiralities_Consistent>
1

> <s_lp_Variant>
AV-unprocessed.smi:2986-4

> <Gold.Version>
5.8.1

> <Gold.Id.Protein>
6NUR|6NUR_protein|mol2

> <Gold.PLP.Fitness>
59.9992

> <Gold.PLP.PLP>
-48.3004

> <Gold.PLP.part.hbond>
-4.2173

> <Gold.PLP.part.metal>
0.0000

> <Gold.PLP.part.buried>
-5.5080

> <Gold.PLP.part.nonpolar>
-38.3650

> <Gold.PLP.part.repulsive>
0.4779

> <Gold.PLP.ligand.clash>
0.0000

> <Gold.PLP.ligand.torsion>
1.7963

> <Gold.PLP.Chemscore.Hbond>
5.0000

> <Gold.PLP.Chemscore.CHOScore>
0.0000

> <Gold.PLP.Chemscore.Metal>
0.0000

> <Gold.Chemscore.Hbonds>
donor molecule, donor type, donor heavy atom, donor atom, acceptor molecule, acceptor atom, score
      L1  H    18    42       P1  7948  2.00
      P1  H  7997  8009       L1    16  1.00
      P1  H 10752 10764       L1    11  2.00

> <Gold.PLP.Chemscore.Internal.Correction>
0.2915

> <Gold.Rescore>
     Score         DG    S(hbond)    S(metal)    S(lipo)     H(rot)  DE(clash)    DE(int)     intcor
     14.87     -18.10       2.46        0.00      87.40       2.27       0.01       3.22       ----

> <Gold.Chemscore.Fitness>
14.8687

> <Gold.Chemscore.DG>
-18.1025

> <Gold.Chemscore.ZeroCoef>
-5.4800

> <Gold.Chemscore.Hbond>
2.4602

> <Gold.Chemscore.Metal>
0.0000

> <Gold.Chemscore.Lipo>
87.4047

> <Gold.Chemscore.Internal_Hbond>
0.0000

> <Gold.Chemscore.DEClash>
0.0110

> <Gold.Chemscore.DEInternal>
3.2228

> <Gold.Chemscore.Rot>
2.2738

> <Gold.Chemscore.Internal.Correction>
   9.000000E+99

> <Gold.Chemscore.Hbonds>
donor molecule, donor type, donor heavy atom, donor atom, acceptor molecule, acceptor atom, score
      L1  H    18    42       P1  7948  0.35
      P1  H  7997  8009       L1    16  0.80
      P1  H 10752 10764       L1    11  0.39

> <Gold.Chemscore.Hbond.Weighted>
-8.2170

> <Gold.Chemscore.Metal.Weighted>
-0.0000

> <Gold.Chemscore.Lipo.Weighted>
-10.2263

> <Gold.Chemscore.Internal_Hbond.Weighted>
0.0000

> <Gold.Chemscore.DEClash.Weighted>
0.0110

> <Gold.Chemscore.DEInternal.Weighted>
3.2228

> <Gold.Chemscore.Rot.Weighted>
5.8209

> <Gold.Chemscore.Internal.Correction.Weighted>
   9.000000E+99

> <Gold.Protein.RotatedTorsions>
[ 6907 6896 6895 6894 ] final -155.21 input  -60.11 | X-H torsion
[ 7974 7965 7964 7962 ] final  -75.94 input  175.53 | X-H torsion
[ 8008 7997 7996 7995 ] final -156.02 input   59.86 | X-H torsion
[ 10167 10162 10161 10158 ] final  -21.02 input  -65.29 | X-H torsion
[ 10718 10713 10712 10709 ] final   80.13 input   66.30 | X-H torsion
[ 10763 10752 10751 10750 ] final  -69.36 input  -60.55 | X-H torsion
[ 11005 11000 10999 10996 ] final   13.21 input  -57.11 | X-H torsion

> <Gold.Protein.ActiveResidues>
 VAL166  LYS551  ARG553  GLY616  TRP617  ASP618  TYR619  PRO620  LYS621  CYS622 
 ASP623  PHE694  ASN695  SER759  ASP760  ASP761  ALA762  ILE779  LEU786  VAL792 
 PHE793  MET794  SER795  GLU796  ALA797  LYS798  CYS799  TRP800  GLU811  SER814 

> <Gold.Protein.RotatedAtoms>
  151.2690  133.4264  159.2619 H   0  0  0  0  0  0  0  0  0  0  0  0  # atno 6907 bound_to 6896
  151.0462  134.9641  159.8198 H   0  0  0  0  0  0  0  0  0  0  0  0  # atno 6908 bound_to 6896
  152.5374  134.2647  159.9001 H   0  0  0  0  0  0  0  0  0  0  0  0  # atno 6909 bound_to 6896
  145.6194  140.9367  143.1146 H   0  0  0  0  0  0  0  0  0  0  0  0  # atno 7974 bound_to 7965
  155.7107  140.0778  157.2372 H   0  0  0  0  0  0  0  0  0  0  0  0  # atno 8008 bound_to 7997
  154.4059  140.1630  156.2347 H   0  0  0  0  0  0  0  0  0  0  0  0  # atno 8009 bound_to 7997
  155.9285  140.3393  155.6233 H   0  0  0  0  0  0  0  0  0  0  0  0  # atno 8010 bound_to 7997
  140.7279  143.4667  151.0304 H   0  0  0  0  0  0  0  0  0  0  0  0  # atno 10167 bound_to 10162
  157.6797  130.9945  150.2033 H   0  0  0  0  0  0  0  0  0  0  0  0  # atno 10718 bound_to 10713
  154.4023  135.6028  153.5904 H   0  0  0  0  0  0  0  0  0  0  0  0  # atno 10763 bound_to 10752
  152.9788  135.5909  154.4169 H   0  0  0  0  0  0  0  0  0  0  0  0  # atno 10764 bound_to 10752
  154.3970  135.2842  155.2098 H   0  0  0  0  0  0  0  0  0  0  0  0  # atno 10765 bound_to 10752
  140.4833  134.0913  155.7755 H   0  0  0  0  0  0  0  0  0  0  0  0  # atno 11005 bound_to 11000
  144.7237  139.7945  143.7372 LP  0  0  0  0  0  0  0  0  0  0  0  0  # atno 17320 bound_to 7965
  146.1443  139.4508  143.0089 LP  0  0  0  0  0  0  0  0  0  0  0  0  # atno 17321 bound_to 7965
  139.8356  143.7632  152.3180 LP  0  0  0  0  0  0  0  0  0  0  0  0  # atno 17342 bound_to 10162
  139.7763  144.7459  151.0152 LP  0  0  0  0  0  0  0  0  0  0  0  0  # atno 17343 bound_to 10162
  156.2719  130.3723  149.8022 LP  0  0  0  0  0  0  0  0  0  0  0  0  # atno 17370 bound_to 10713
  156.5737  130.8435  151.3363 LP  0  0  0  0  0  0  0  0  0  0  0  0  # atno 17371 bound_to 10713
  141.1520  133.8951  157.2073 LP  0  0  0  0  0  0  0  0  0  0  0  0  # atno 17394 bound_to 11000
  139.9813  135.0097  156.9756 LP  0  0  0  0  0  0  0  0  0  0  0  0  # atno 17395 bound_to 11000

$$$$
