AV-unprocessed.smi:290|AV-procd|sdf|2243|dock7
  -GOLD-   2262022123D 1   1.00000     0.00000
 Structure written by MMmdl.
 59 62  0  0  0  0  0  0  0  0  2 V2000
  151.5209  140.6408  157.0112 C   0  0  0  0  0  0  0  0  0  0  0  0
  151.8713  139.2863  156.3756 C   0  0  2  0  0  0  0  0  0  0  0  0
  152.7928  139.5291  155.3160 O   0  0  0  0  0  0  0  0  0  0  0  0
  152.6246  138.5283  154.3282 C   0  0  0  0  0  0  0  0  0  0  0  0
  151.1121  138.3801  154.2719 C   0  0  0  0  0  0  0  0  0  0  0  0
  150.7003  138.4847  155.7385 C   0  0  1  0  0  0  0  0  0  0  0  0
  150.7242  137.1764  156.2852 O   0  0  0  0  0  0  0  0  0  0  0  0
  149.2765  139.0672  155.9404 C   0  0  0  0  0  0  0  0  0  0  0  0
  148.2733  138.4473  155.0885 N   0  0  0  0  0  0  0  0  0  0  0  0
  147.9071  138.8418  153.8218 C   0  0  0  0  0  0  0  0  0  0  0  0
  146.9823  138.1140  153.2584 N   0  0  0  0  0  0  0  0  0  0  0  0
  146.6842  137.1439  154.2090 C   0  0  0  0  0  0  0  0  0  0  0  0
  145.7828  136.0408  154.2535 C   0  0  0  0  0  0  0  0  0  0  0  0
  144.9742  135.7070  153.2116 N   0  0  0  0  0  0  0  0  0  0  0  0
  144.6506  136.7683  152.2586 C   0  0  0  0  0  0  0  0  0  0  0  0
  144.7878  136.1540  150.8597 C   0  0  0  0  0  0  0  0  0  0  0  0
  145.6379  134.8998  151.1057 C   0  0  2  0  0  0  0  0  0  0  0  0
  145.5756  133.8604  150.0382 N   0  3  2  0  0  0  0  0  0  0  0  0
  144.1933  133.5907  149.5690 C   0  0  0  0  0  0  0  0  0  0  0  0
  146.3403  132.6117  150.3243 C   0  0  0  0  0  0  0  0  0  0  0  0
  145.7204  131.6836  151.3931 C   0  0  0  0  0  0  0  0  0  0  0  0
  146.5803  130.6126  151.7173 O   0  0  0  0  0  0  0  0  0  0  0  0
  145.1244  134.4462  152.4855 C   0  0  2  0  0  0  0  0  0  0  0  0
  143.7720  133.7028  152.4547 C   0  0  0  0  0  0  0  0  0  0  0  0
  145.7572  135.3082  155.3987 N   0  0  0  0  0  0  0  0  0  0  0  0
  146.5587  135.6173  156.4220 C   0  0  0  0  0  0  0  0  0  0  0  0
  147.4505  136.6044  156.5133 N   0  0  0  0  0  0  0  0  0  0  0  0
  147.4794  137.3499  155.3721 C   0  0  0  0  0  0  0  0  0  0  0  0
  146.6783  135.2090  151.2224 H   0  0  0  0  0  0  0  0  0  0  0  0
  145.8546  133.7785  152.9409 H   0  0  0  0  0  0  0  0  0  0  0  0
  150.8267  140.5235  157.8433 H   0  0  0  0  0  0  0  0  0  0  0  0
  151.0746  141.3209  156.2854 H   0  0  0  0  0  0  0  0  0  0  0  0
  152.4166  141.1245  157.4015 H   0  0  0  0  0  0  0  0  0  0  0  0
  152.3848  138.6789  157.1234 H   0  0  0  0  0  0  0  0  0  0  0  0
  153.0570  138.8267  153.3730 H   0  0  0  0  0  0  0  0  0  0  0  0
  153.1013  137.6017  154.6527 H   0  0  0  0  0  0  0  0  0  0  0  0
  150.7005  139.2169  153.7057 H   0  0  0  0  0  0  0  0  0  0  0  0
  150.7880  137.4589  153.7853 H   0  0  0  0  0  0  0  0  0  0  0  0
  150.4649  137.2244  157.1928 H   0  0  0  0  0  0  0  0  0  0  0  0
  148.9601  138.9518  156.9778 H   0  0  0  0  0  0  0  0  0  0  0  0
  149.2685  140.1375  155.7320 H   0  0  0  0  0  0  0  0  0  0  0  0
  148.3536  139.6894  153.3226 H   0  0  0  0  0  0  0  0  0  0  0  0
  143.6441  137.1509  152.4302 H   0  0  0  0  0  0  0  0  0  0  0  0
  145.3482  137.6014  152.3587 H   0  0  0  0  0  0  0  0  0  0  0  0
  143.8038  135.8834  150.4751 H   0  0  0  0  0  0  0  0  0  0  0  0
  145.2386  136.8506  150.1533 H   0  0  0  0  0  0  0  0  0  0  0  0
  143.5442  133.2874  150.3909 H   0  0  0  0  0  0  0  0  0  0  0  0
  144.1841  132.8024  148.8156 H   0  0  0  0  0  0  0  0  0  0  0  0
  143.7508  134.4747  149.1114 H   0  0  0  0  0  0  0  0  0  0  0  0
  146.3972  132.0565  149.3872 H   0  0  0  0  0  0  0  0  0  0  0  0
  147.3760  132.8421  150.5745 H   0  0  0  0  0  0  0  0  0  0  0  0
  145.4340  132.2184  152.2977 H   0  0  0  0  0  0  0  0  0  0  0  0
  144.8046  131.2462  150.9949 H   0  0  0  0  0  0  0  0  0  0  0  0
  147.3060  130.6118  151.1113 H   0  0  0  0  0  0  0  0  0  0  0  0
  143.8344  132.7656  151.9025 H   0  0  0  0  0  0  0  0  0  0  0  0
  142.9806  134.3003  152.0022 H   0  0  0  0  0  0  0  0  0  0  0  0
  143.4507  133.4558  153.4670 H   0  0  0  0  0  0  0  0  0  0  0  0
  146.4754  134.9809  157.2908 H   0  0  0  0  0  0  0  0  0  0  0  0
  146.0501  134.2719  149.2472 H   0  0  0  0  0  0  0  0  0  0  0  0
  1  2  1  0  0  0  0
  1 31  1  0  0  0  0
  1 32  1  0  0  0  0
  1 33  1  0  0  0  0
  2  6  1  0  0  0  0
  2  3  1  0  0  0  0
  2 34  1  0  0  0  0
  3  4  1  0  0  0  0
  4  5  1  0  0  0  0
  4 35  1  0  0  0  0
  4 36  1  0  0  0  0
  5  6  1  0  0  0  0
  5 37  1  0  0  0  0
  5 38  1  0  0  0  0
  6  7  1  0  0  0  0
  6  8  1  0  0  0  0
  7 39  1  0  0  0  0
  8  9  1  0  0  0  0
  8 40  1  0  0  0  0
  8 41  1  0  0  0  0
  9 28  1  0  0  0  0
  9 10  1  0  0  0  0
 10 11  2  0  0  0  0
 10 42  1  0  0  0  0
 11 12  1  0  0  0  0
 12 28  2  0  0  0  0
 12 13  1  0  0  0  0
 13 14  1  0  0  0  0
 13 25  2  0  0  0  0
 14 23  1  0  0  0  0
 14 15  1  0  0  0  0
 15 16  1  0  0  0  0
 15 43  1  0  0  0  0
 15 44  1  0  0  0  0
 16 17  1  0  0  0  0
 16 45  1  0  0  0  0
 16 46  1  0  0  0  0
 17 29  1  0  0  0  0
 17 18  1  0  0  0  0
 17 23  1  0  0  0  0
 18 19  1  0  0  0  0
 18 20  1  0  0  0  0
 18 59  1  0  0  0  0
 19 47  1  0  0  0  0
 19 48  1  0  0  0  0
 19 49  1  0  0  0  0
 20 21  1  0  0  0  0
 20 50  1  0  0  0  0
 20 51  1  0  0  0  0
 21 22  1  0  0  0  0
 21 52  1  0  0  0  0
 21 53  1  0  0  0  0
 22 54  1  0  0  0  0
 23 30  1  0  0  0  0
 23 24  1  0  0  0  0
 24 55  1  0  0  0  0
 24 56  1  0  0  0  0
 24 57  1  0  0  0  0
 25 26  1  0  0  0  0
 26 27  2  0  0  0  0
 26 58  1  0  0  0  0
 27 28  1  0  0  0  0
M  CHG  1  18   1
M  END
> <s_m_source_file>
AV-unprocessed.smi

> <i_m_source_file_index>
290

> <i_lp_mmshare_version>
43012

> <i_f3d_flags>
0

> <s_epik_input>
W0NIMl0xW0NIMl1PW0NAQEhdKFtDSDNdKVtDQEBdMShbT0hdKVtDSDJdbihbY0hdbjIpYyhjMjMpbltjSF1uYzNONFtDSDJdW0NIMl1bQ0BIXShbQ0BIXTRbQ0gzXSlOKFtDSDNdKVtDSDJdW0NIMl1bT0hd

> <s_epik_cmdline>
J2VwaWtfcHl0aG9uJywgJy1waCcsICc3LjAnLCAnLXRuJywgJzgnLCAnLW1hJywgJzIwMCcsICctbWV0YWxfYmluZGluZycsICctaW1hZScsICc8aW5maWxlLm1hZT4nLCAnLW9tYWUnLCAnPG91dGZpbGUubWFlPic=

> <r_lp_tautomer_probability>
1

> <r_epik_Ionization_Penalty>
0.0036983

> <r_epik_Ionization_Penalty_Charging>
0.0032725

> <r_epik_Ionization_Penalty_Neutral>
0.000425798

> <r_epik_State_Penalty>
-0

> <r_epik_Charging_Adjusted_Penalty>
0.0032725

> <i_epik_Tot_Q>
1

> <i_epik_Tot_abs_Q>
1

> <r_epik_Metal_State_Penalty>
-0

> <b_epik_Metal_Only>
0

> <s_lp_Force_Field>
OPLS_2005

> <r_lp_Energy>
63.2975

> <b_lp_Chiralities_Consistent>
1

> <s_lp_Variant>
AV-unprocessed.smi:290-29

> <Gold.Version>
5.8.1

> <Gold.Id.Protein>
6NUR|6NUR_protein|mol2

> <Gold.PLP.Fitness>
36.8350

> <Gold.PLP.PLP>
-28.9759

> <Gold.PLP.part.hbond>
-3.0192

> <Gold.PLP.part.metal>
0.0000

> <Gold.PLP.part.buried>
0.3207

> <Gold.PLP.part.nonpolar>
-27.3460

> <Gold.PLP.part.repulsive>
0.9009

> <Gold.PLP.ligand.clash>
2.6798

> <Gold.PLP.ligand.torsion>
0.9912

> <Gold.PLP.Chemscore.Hbond>
3.0000

> <Gold.PLP.Chemscore.CHOScore>
1.0000

> <Gold.PLP.Chemscore.Metal>
0.0000

> <Gold.Chemscore.Hbonds>
donor molecule, donor type, donor heavy atom, donor atom, acceptor molecule, acceptor atom, score
      L1  H    18    59       P1  7921  1.00
      L1  H    22    54       P1 10747  1.00
      P1  H  7997  8010       L1     3  1.00
      L1  C    10    42       P1  7957  1.00

> <Gold.PLP.Chemscore.Internal.Correction>
0.5214

> <Gold.Rescore>
     Score         DG    S(hbond)    S(metal)    S(lipo)     H(rot)  DE(clash)    DE(int)     intcor
     10.04     -15.20       2.71        0.00      86.03       3.67       1.57       3.60       ----

> <Gold.Chemscore.Fitness>
10.0372

> <Gold.Chemscore.DG>
-15.2016

> <Gold.Chemscore.ZeroCoef>
-5.4800

> <Gold.Chemscore.Hbond>
2.7068

> <Gold.Chemscore.Metal>
0.0000

> <Gold.Chemscore.Lipo>
86.0283

> <Gold.Chemscore.Internal_Hbond>
0.0000

> <Gold.Chemscore.DEClash>
1.5682

> <Gold.Chemscore.DEInternal>
3.5962

> <Gold.Chemscore.Rot>
3.6658

> <Gold.Chemscore.Internal.Correction>
   9.000000E+99

> <Gold.Chemscore.Hbonds>
donor molecule, donor type, donor heavy atom, donor atom, acceptor molecule, acceptor atom, score
      L1  H    18    59       P1  7921  0.25
      L1  H    22    54       P1 10747  1.00
      P1  H  7997  8010       L1     3  0.45

> <Gold.Chemscore.Hbond.Weighted>
-9.0407

> <Gold.Chemscore.Metal.Weighted>
-0.0000

> <Gold.Chemscore.Lipo.Weighted>
-10.0653

> <Gold.Chemscore.Internal_Hbond.Weighted>
0.0000

> <Gold.Chemscore.DEClash.Weighted>
1.5682

> <Gold.Chemscore.DEInternal.Weighted>
3.5962

> <Gold.Chemscore.Rot.Weighted>
9.3844

> <Gold.Chemscore.Internal.Correction.Weighted>
   9.000000E+99

> <Gold.Protein.RotatedTorsions>
[ 6907 6896 6895 6894 ] final  -49.25 input  -60.11 | X-H torsion
[ 7974 7965 7964 7962 ] final  114.35 input  175.53 | X-H torsion
[ 8008 7997 7996 7995 ] final   83.57 input   59.86 | X-H torsion
[ 10167 10162 10161 10158 ] final   60.43 input  -65.29 | X-H torsion
[ 10718 10713 10712 10709 ] final  -61.27 input   66.30 | X-H torsion
[ 10763 10752 10751 10750 ] final   95.94 input  -60.55 | X-H torsion
[ 11005 11000 10999 10996 ] final -170.21 input  -57.11 | X-H torsion

> <Gold.Protein.ActiveResidues>
 VAL166  LYS551  ARG553  GLY616  TRP617  ASP618  TYR619  PRO620  LYS621  CYS622 
 ASP623  PHE694  ASN695  SER759  ASP760  ASP761  ALA762  ILE779  LEU786  VAL792 
 PHE793  MET794  SER795  GLU796  ALA797  LYS798  CYS799  TRP800  GLU811  SER814 

> <Gold.Protein.RotatedAtoms>
  150.8824  134.8217  159.7234 H   0  0  0  0  0  0  0  0  0  0  0  0  # atno 6907 bound_to 6896
  152.4786  134.4776  159.9665 H   0  0  0  0  0  0  0  0  0  0  0  0  # atno 6908 bound_to 6896
  151.4849  133.3499  159.2879 H   0  0  0  0  0  0  0  0  0  0  0  0  # atno 6909 bound_to 6896
  145.2055  139.2931  143.4296 H   0  0  0  0  0  0  0  0  0  0  0  0  # atno 7974 bound_to 7965
  155.9256  140.3418  155.6208 H   0  0  0  0  0  0  0  0  0  0  0  0  # atno 8008 bound_to 7997
  155.7220  140.0784  157.2345 H   0  0  0  0  0  0  0  0  0  0  0  0  # atno 8009 bound_to 7997
  154.4076  140.1604  156.2400 H   0  0  0  0  0  0  0  0  0  0  0  0  # atno 8010 bound_to 7997
  140.1657  144.4327  150.6687 H   0  0  0  0  0  0  0  0  0  0  0  0  # atno 10167 bound_to 10162
  156.0933  130.4196  150.0970 H   0  0  0  0  0  0  0  0  0  0  0  0  # atno 10718 bound_to 10713
  153.2591  135.4236  155.0876 H   0  0  0  0  0  0  0  0  0  0  0  0  # atno 10763 bound_to 10752
  154.8413  135.3444  154.6403 H   0  0  0  0  0  0  0  0  0  0  0  0  # atno 10764 bound_to 10752
  153.6823  135.7038  153.5171 H   0  0  0  0  0  0  0  0  0  0  0  0  # atno 10765 bound_to 10752
  140.5220  134.5700  157.5050 H   0  0  0  0  0  0  0  0  0  0  0  0  # atno 11005 bound_to 11000
  146.3409  140.2314  142.8593 LP  0  0  0  0  0  0  0  0  0  0  0  0  # atno 17320 bound_to 7965
  144.9906  140.8543  143.5342 LP  0  0  0  0  0  0  0  0  0  0  0  0  # atno 17321 bound_to 7965
  140.6615  143.2253  151.5845 LP  0  0  0  0  0  0  0  0  0  0  0  0  # atno 17342 bound_to 10162
  139.5361  144.2778  152.1253 LP  0  0  0  0  0  0  0  0  0  0  0  0  # atno 17343 bound_to 10162
  156.8975  130.9609  151.3580 LP  0  0  0  0  0  0  0  0  0  0  0  0  # atno 17370 bound_to 10713
  157.6088  130.8567  149.8919 LP  0  0  0  0  0  0  0  0  0  0  0  0  # atno 17371 bound_to 10713
  139.9601  134.7468  156.0256 LP  0  0  0  0  0  0  0  0  0  0  0  0  # atno 17394 bound_to 11000
  141.1329  133.6582  156.3513 LP  0  0  0  0  0  0  0  0  0  0  0  0  # atno 17395 bound_to 11000

$$$$
