AV-unprocessed.smi:1512|AV-procd|sdf|6103|dock4
  -GOLD-   22720 6233D 1   1.00000     0.00000
 Structure written by MMmdl.
 44 46  0  0  0  0  0  0  0  0  3 V2000
  152.0666  140.5767  159.1401 C   0  0  0  0  0  0  0  0  0  0  0  0
  151.9000  141.3433  157.8170 C   0  0  1  0  0  0  0  0  0  0  0  0
  150.7981  140.7706  157.0516 N   0  0  0  0  0  0  0  0  0  0  0  0
  150.8512  140.3496  155.7767 C   0  0  0  0  0  0  0  0  0  0  0  0
  151.8843  140.3715  155.1090 O   0  0  0  0  0  0  0  0  0  0  0  0
  149.5532  139.8334  155.1313 C   0  0  0  0  0  0  0  0  0  0  0  0
  148.3782  140.7033  155.3297 N   0  0  0  0  0  0  0  0  0  0  0  0
  147.8706  141.3476  154.1859 C   0  0  0  0  0  0  0  0  0  0  0  0
  146.8172  142.1742  154.2465 C   0  0  0  0  0  0  0  0  0  0  0  0
  146.2031  142.4037  155.5313 C   0  0  0  0  0  0  0  0  0  0  0  0
  146.6769  141.8012  156.6465 C   0  0  0  0  0  0  0  0  0  0  0  0
  146.0252  142.0901  157.9036 N   0  3  0  0  0  0  0  0  0  0  0  0
  145.0429  142.8257  157.9072 O   0  0  0  0  0  0  0  0  0  0  0  0
  146.4686  141.5747  158.9255 O   0  5  0  0  0  0  0  0  0  0  0  0
  147.8317  140.8816  156.5729 C   0  0  0  0  0  0  0  0  0  0  0  0
  148.2897  140.3029  157.5596 O   0  0  0  0  0  0  0  0  0  0  0  0
  151.6295  142.8482  158.0502 C   0  0  1  0  0  0  0  0  0  0  0  0
  150.5483  143.1580  159.1094 C   0  0  0  0  0  0  0  0  0  0  0  0
  151.2375  144.1972  160.0136 C   0  0  1  0  0  0  0  0  0  0  0  0
  152.2911  143.4870  160.8832 C   0  0  0  0  0  0  0  0  0  0  0  0
  153.4032  143.1635  159.8691 C   0  0  0  0  0  0  0  0  0  0  0  0
  152.8252  143.7024  158.5441 C   0  0  2  0  0  0  0  0  0  0  0  0
  152.1094  144.9611  159.0236 C   0  0  0  0  0  0  0  0  0  0  0  0
  152.8947  140.9741  159.7269 H   0  0  0  0  0  0  0  0  0  0  0  0
  152.2730  139.5207  158.9622 H   0  0  0  0  0  0  0  0  0  0  0  0
  151.1659  140.6394  159.7518 H   0  0  0  0  0  0  0  0  0  0  0  0
  152.8231  141.2354  157.2458 H   0  0  0  0  0  0  0  0  0  0  0  0
  149.9085  140.7135  157.5251 H   0  0  0  0  0  0  0  0  0  0  0  0
  149.7384  139.6984  154.0647 H   0  0  0  0  0  0  0  0  0  0  0  0
  149.3574  138.8279  155.5075 H   0  0  0  0  0  0  0  0  0  0  0  0
  148.3936  141.1314  153.2653 H   0  0  0  0  0  0  0  0  0  0  0  0
  146.4433  142.6618  153.3584 H   0  0  0  0  0  0  0  0  0  0  0  0
  145.3629  143.0803  155.5914 H   0  0  0  0  0  0  0  0  0  0  0  0
  151.3034  143.2755  157.0995 H   0  0  0  0  0  0  0  0  0  0  0  0
  149.6598  143.5775  158.6359 H   0  0  0  0  0  0  0  0  0  0  0  0
  150.2369  142.2777  159.6731 H   0  0  0  0  0  0  0  0  0  0  0  0
  150.5403  144.8101  160.5858 H   0  0  0  0  0  0  0  0  0  0  0  0
  152.6656  144.1513  161.6631 H   0  0  0  0  0  0  0  0  0  0  0  0
  151.8948  142.5932  161.3665 H   0  0  0  0  0  0  0  0  0  0  0  0
  154.3175  143.6983  160.1293 H   0  0  0  0  0  0  0  0  0  0  0  0
  153.6496  142.1029  159.8354 H   0  0  0  0  0  0  0  0  0  0  0  0
  153.5824  143.8798  157.7793 H   0  0  0  0  0  0  0  0  0  0  0  0
  151.5385  145.4630  158.2402 H   0  0  0  0  0  0  0  0  0  0  0  0
  152.7738  145.6842  159.5004 H   0  0  0  0  0  0  0  0  0  0  0  0
  1  2  1  0  0  0  0
  1 24  1  0  0  0  0
  1 25  1  0  0  0  0
  1 26  1  0  0  0  0
  2  3  1  0  0  0  0
  2 17  1  0  0  0  0
  2 27  1  0  0  0  0
  3  4  1  0  0  0  0
  3 28  1  0  0  0  0
  4  5  2  0  0  0  0
  4  6  1  0  0  0  0
  6  7  1  0  0  0  0
  6 29  1  0  0  0  0
  6 30  1  0  0  0  0
  7 15  1  0  0  0  0
  7  8  1  0  0  0  0
  8  9  2  0  0  0  0
  8 31  1  0  0  0  0
  9 10  1  0  0  0  0
  9 32  1  0  0  0  0
 10 11  2  0  0  0  0
 10 33  1  0  0  0  0
 11 12  1  0  0  0  0
 11 15  1  0  0  0  0
 12 13  2  0  0  0  0
 12 14  1  0  0  0  0
 15 16  2  0  0  0  0
 17 22  1  0  0  0  0
 17 18  1  0  0  0  0
 17 34  1  0  0  0  0
 18 19  1  0  0  0  0
 18 35  1  0  0  0  0
 18 36  1  0  0  0  0
 19 23  1  0  0  0  0
 19 20  1  0  0  0  0
 19 37  1  0  0  0  0
 20 21  1  0  0  0  0
 20 38  1  0  0  0  0
 20 39  1  0  0  0  0
 21 22  1  0  0  0  0
 21 40  1  0  0  0  0
 21 41  1  0  0  0  0
 22 23  1  0  0  0  0
 22 42  1  0  0  0  0
 23 43  1  0  0  0  0
 23 44  1  0  0  0  0
M  CHG  1  12   1
M  CHG  1  14  -1
M  END
> <s_m_source_file>
AV-unprocessed.smi

> <i_m_source_file_index>
1512

> <i_lp_mmshare_version>
43012

> <i_f3d_flags>
0

> <s_epik_input>
W0NIMl0xW0NIMl1bQ0BIXShbQ0gyXTIpW0NAQEhdKFtDSDJdW0NAQEhdMTIpW0NASF0oW0NIM10pW05IXUMoPU8pW0NIMl1uM1tjSF1bY0hdW2NIXWMoW04rXSg9TylbTy1dKWMzPU8=

> <s_epik_cmdline>
J2VwaWtfcHl0aG9uJywgJy1waCcsICc3LjAnLCAnLXRuJywgJzgnLCAnLW1hJywgJzIwMCcsICctbWV0YWxfYmluZGluZycsICctaW1hZScsICc8aW5maWxlLm1hZT4nLCAnLW9tYWUnLCAnPG91dGZpbGUubWFlPic=

> <r_lp_tautomer_probability>
1

> <r_epik_Ionization_Penalty>
2.17697e-08

> <r_epik_Ionization_Penalty_Charging>
1.42735e-10

> <r_epik_Ionization_Penalty_Neutral>
2.16269e-08

> <r_epik_State_Penalty>
-0

> <r_epik_Charging_Adjusted_Penalty>
1.42735e-10

> <i_epik_Tot_Q>
0

> <i_epik_Tot_abs_Q>
2

> <r_epik_Metal_State_Penalty>
-0

> <b_epik_Metal_Only>
0

> <s_lp_Force_Field>
OPLS_2005

> <r_lp_Energy>
64.3313

> <b_lp_Chiralities_Consistent>
1

> <s_lp_Variant>
AV-unprocessed.smi:1512-4

> <Gold.Version>
5.8.1

> <Gold.Id.Protein>
6NUR|6NUR_protein|mol2

> <Gold.PLP.Fitness>
51.5712

> <Gold.PLP.PLP>
-45.5975

> <Gold.PLP.part.hbond>
-2.0000

> <Gold.PLP.part.metal>
0.0000

> <Gold.PLP.part.buried>
-7.3750

> <Gold.PLP.part.nonpolar>
-36.9864

> <Gold.PLP.part.repulsive>
0.1837

> <Gold.PLP.ligand.clash>
0.0000

> <Gold.PLP.ligand.torsion>
0.4356

> <Gold.PLP.Chemscore.Hbond>
1.2644

> <Gold.PLP.Chemscore.CHOScore>
0.9974

> <Gold.PLP.Chemscore.Metal>
0.0000

> <Gold.Chemscore.Hbonds>
donor molecule, donor type, donor heavy atom, donor atom, acceptor molecule, acceptor atom, score
      P1  H  6934  6946       L1    14  0.70
      P1  H  7989  7998       L1     5  0.77
      L1  C     8    31       P1  7957  0.69

> <Gold.PLP.Chemscore.Internal.Correction>
0.0598

> <Gold.Rescore>
     Score         DG    S(hbond)    S(metal)    S(lipo)     H(rot)  DE(clash)    DE(int)     intcor
     16.38     -20.62       1.75        0.00     117.66       1.75       0.06       4.18       ----

> <Gold.Chemscore.Fitness>
16.3794

> <Gold.Chemscore.DG>
-20.6177

> <Gold.Chemscore.ZeroCoef>
-5.4800

> <Gold.Chemscore.Hbond>
1.7499

> <Gold.Chemscore.Metal>
0.0000

> <Gold.Chemscore.Lipo>
117.6627

> <Gold.Chemscore.Internal_Hbond>
0.0000

> <Gold.Chemscore.DEClash>
0.0553

> <Gold.Chemscore.DEInternal>
4.1830

> <Gold.Chemscore.Rot>
1.7474

> <Gold.Chemscore.Internal.Correction>
   9.000000E+99

> <Gold.Chemscore.Hbonds>
donor molecule, donor type, donor heavy atom, donor atom, acceptor molecule, acceptor atom, score
      P1  H  6934  6946       L1    14  0.69
      P1  H  7989  7998       L1     5  0.67

> <Gold.Chemscore.Hbond.Weighted>
-5.8445

> <Gold.Chemscore.Metal.Weighted>
-0.0000

> <Gold.Chemscore.Lipo.Weighted>
-13.7665

> <Gold.Chemscore.Internal_Hbond.Weighted>
0.0000

> <Gold.Chemscore.DEClash.Weighted>
0.0553

> <Gold.Chemscore.DEInternal.Weighted>
4.1830

> <Gold.Chemscore.Rot.Weighted>
4.4733

> <Gold.Chemscore.Internal.Correction.Weighted>
   9.000000E+99

> <Gold.Protein.RotatedTorsions>
[ 6907 6896 6895 6894 ] final  -32.17 input  -60.11 | X-H torsion
[ 7974 7965 7964 7962 ] final  -81.25 input  175.53 | X-H torsion
[ 8008 7997 7996 7995 ] final  -66.28 input   59.86 | X-H torsion
[ 10167 10162 10161 10158 ] final  175.33 input  -65.29 | X-H torsion
[ 10718 10713 10712 10709 ] final  -39.51 input   66.30 | X-H torsion
[ 10763 10752 10751 10750 ] final  131.48 input  -60.55 | X-H torsion
[ 11005 11000 10999 10996 ] final   31.83 input  -57.11 | X-H torsion

> <Gold.Protein.ActiveResidues>
 VAL166  LYS551  ARG553  GLY616  TRP617  ASP618  TYR619  PRO620  LYS621  CYS622 
 ASP623  PHE694  ASN695  SER759  ASP760  ASP761  ALA762  ILE779  LEU786  VAL792 
 PHE793  MET794  SER795  GLU796  ALA797  LYS798  CYS799  TRP800  GLU811  SER814 

> <Gold.Protein.RotatedAtoms>
  151.0823  134.9865  159.8361 H   0  0  0  0  0  0  0  0  0  0  0  0  # atno 6907 bound_to 6896
  152.5421  134.2167  159.8781 H   0  0  0  0  0  0  0  0  0  0  0  0  # atno 6908 bound_to 6896
  151.2198  133.4465  159.2634 H   0  0  0  0  0  0  0  0  0  0  0  0  # atno 6909 bound_to 6896
  145.5492  140.9499  143.1508 H   0  0  0  0  0  0  0  0  0  0  0  0  # atno 7974 bound_to 7965
  154.4724  140.0916  156.7179 H   0  0  0  0  0  0  0  0  0  0  0  0  # atno 8008 bound_to 7997
  155.4687  140.3463  155.4304 H   0  0  0  0  0  0  0  0  0  0  0  0  # atno 8009 bound_to 7997
  156.1061  140.1435  156.9390 H   0  0  0  0  0  0  0  0  0  0  0  0  # atno 8010 bound_to 7997
  139.5173  144.3043  152.0350 H   0  0  0  0  0  0  0  0  0  0  0  0  # atno 10167 bound_to 10162
  156.2916  130.4229  149.8233 H   0  0  0  0  0  0  0  0  0  0  0  0  # atno 10718 bound_to 10713
  153.7751  135.3176  155.3357 H   0  0  0  0  0  0  0  0  0  0  0  0  # atno 10763 bound_to 10752
  154.8182  135.4621  154.0706 H   0  0  0  0  0  0  0  0  0  0  0  0  # atno 10764 bound_to 10752
  153.1978  135.6918  153.8355 H   0  0  0  0  0  0  0  0  0  0  0  0  # atno 10765 bound_to 10752
  140.2798  134.2986  155.7804 H   0  0  0  0  0  0  0  0  0  0  0  0  # atno 11005 bound_to 11000
  144.7538  139.7126  143.7262 LP  0  0  0  0  0  0  0  0  0  0  0  0  # atno 17320 bound_to 7965
  146.1928  139.5178  142.9794 LP  0  0  0  0  0  0  0  0  0  0  0  0  # atno 17321 bound_to 7965
  140.2490  144.4189  150.6229 LP  0  0  0  0  0  0  0  0  0  0  0  0  # atno 17342 bound_to 10162
  140.6238  143.2179  151.6639 LP  0  0  0  0  0  0  0  0  0  0  0  0  # atno 17343 bound_to 10162
  156.5643  130.8397  151.3338 LP  0  0  0  0  0  0  0  0  0  0  0  0  # atno 17370 bound_to 10713
  157.7344  130.9745  150.2027 LP  0  0  0  0  0  0  0  0  0  0  0  0  # atno 17371 bound_to 10713
  141.2164  133.7518  156.9463 LP  0  0  0  0  0  0  0  0  0  0  0  0  # atno 17394 bound_to 11000
  140.1294  134.9365  157.2316 LP  0  0  0  0  0  0  0  0  0  0  0  0  # atno 17395 bound_to 11000

$$$$
