AV-unprocessed.smi:1183|AV-procd|sdf|4968|dock4
  -GOLD-   22720 3563D 1   1.00000     0.00000
 Structure written by MMmdl.
 42 43  0  0  0  0  0  0  0  0  1 V2000
  151.9277  145.9564  160.2888 C   0  0  0  0  0  0  0  0  0  0  0  0
  152.0095  144.4381  160.4635 C   0  0  0  0  0  0  0  0  0  0  0  0
  151.7711  143.9701  161.5769 O   0  0  0  0  0  0  0  0  0  0  0  0
  152.3452  143.6661  159.4020 N   0  0  0  0  0  0  0  0  0  0  0  0
  152.4045  142.1997  159.4024 C   0  0  0  0  0  0  0  0  0  0  0  0
  151.2181  141.6563  158.5872 C   0  0  0  0  0  0  0  0  0  0  0  0
  151.2053  142.2376  157.1540 C   0  0  0  0  0  0  0  0  0  0  0  0
  149.9673  141.8820  156.4675 N   0  0  0  0  0  0  0  0  0  0  0  0
  149.8741  141.0707  155.4030 C   0  0  0  0  0  0  0  0  0  0  0  0
  150.8513  140.5346  154.8775 O   0  0  0  0  0  0  0  0  0  0  0  0
  148.4551  140.8431  154.8669 C   0  0  0  0  0  0  0  0  0  0  0  0
  147.4543  141.6641  155.5341 N   0  0  0  0  0  0  0  0  0  0  0  0
  147.3934  141.6608  156.8837 N   0  0  0  0  0  0  0  0  0  0  0  0
  146.4019  142.4844  157.1809 C   0  0  0  0  0  0  0  0  0  0  0  0
  146.0466  142.7224  158.6189 C   0  0  0  0  0  0  0  0  0  0  0  0
  145.7994  143.0438  156.0195 C   0  0  0  0  0  0  0  0  0  0  0  0
  146.4968  142.4955  154.9804 C   0  0  0  0  0  0  0  0  0  0  0  0
  146.3395  142.6842  153.5074 C   0  0  0  0  0  0  0  0  0  0  0  0
  151.3662  143.7735  157.1646 C   0  0  0  0  0  0  0  0  0  0  0  0
  152.5437  144.2116  158.0545 C   0  0  0  0  0  0  0  0  0  0  0  0
  152.8794  146.3583  159.9398 H   0  0  0  0  0  0  0  0  0  0  0  0
  151.6913  146.4396  161.2374 H   0  0  0  0  0  0  0  0  0  0  0  0
  151.1470  146.2222  159.5759 H   0  0  0  0  0  0  0  0  0  0  0  0
  153.3435  141.8789  158.9492 H   0  0  0  0  0  0  0  0  0  0  0  0
  152.4016  141.7627  160.3998 H   0  0  0  0  0  0  0  0  0  0  0  0
  151.2629  140.5672  158.5518 H   0  0  0  0  0  0  0  0  0  0  0  0
  150.2879  141.9103  159.0982 H   0  0  0  0  0  0  0  0  0  0  0  0
  152.0522  141.8210  156.6049 H   0  0  0  0  0  0  0  0  0  0  0  0
  149.1150  142.2808  156.8337 H   0  0  0  0  0  0  0  0  0  0  0  0
  148.4353  141.0551  153.7966 H   0  0  0  0  0  0  0  0  0  0  0  0
  148.1851  139.7935  154.9862 H   0  0  0  0  0  0  0  0  0  0  0  0
  145.2116  143.4174  158.7083 H   0  0  0  0  0  0  0  0  0  0  0  0
  146.8894  143.1442  159.1671 H   0  0  0  0  0  0  0  0  0  0  0  0
  145.7585  141.7931  159.1111 H   0  0  0  0  0  0  0  0  0  0  0  0
  144.9772  143.7411  155.9584 H   0  0  0  0  0  0  0  0  0  0  0  0
  145.5107  143.3572  153.2874 H   0  0  0  0  0  0  0  0  0  0  0  0
  146.1390  141.7335  153.0127 H   0  0  0  0  0  0  0  0  0  0  0  0
  147.2428  143.1108  153.0711 H   0  0  0  0  0  0  0  0  0  0  0  0
  151.5108  144.1413  156.1481 H   0  0  0  0  0  0  0  0  0  0  0  0
  150.4511  144.2391  157.5343 H   0  0  0  0  0  0  0  0  0  0  0  0
  152.6307  145.2989  158.0472 H   0  0  0  0  0  0  0  0  0  0  0  0
  153.4834  143.8367  157.6461 H   0  0  0  0  0  0  0  0  0  0  0  0
  1  2  1  0  0  0  0
  1 21  1  0  0  0  0
  1 22  1  0  0  0  0
  1 23  1  0  0  0  0
  2  3  2  0  0  0  0
  2  4  1  0  0  0  0
  4 20  1  0  0  0  0
  4  5  1  0  0  0  0
  5  6  1  0  0  0  0
  5 24  1  0  0  0  0
  5 25  1  0  0  0  0
  6  7  1  0  0  0  0
  6 26  1  0  0  0  0
  6 27  1  0  0  0  0
  7  8  1  0  0  0  0
  7 19  1  0  0  0  0
  7 28  1  0  0  0  0
  8  9  1  0  0  0  0
  8 29  1  0  0  0  0
  9 10  2  0  0  0  0
  9 11  1  0  0  0  0
 11 12  1  0  0  0  0
 11 30  1  0  0  0  0
 11 31  1  0  0  0  0
 12 17  1  0  0  0  0
 12 13  1  0  0  0  0
 13 14  2  0  0  0  0
 14 15  1  0  0  0  0
 14 16  1  0  0  0  0
 15 32  1  0  0  0  0
 15 33  1  0  0  0  0
 15 34  1  0  0  0  0
 16 17  2  0  0  0  0
 16 35  1  0  0  0  0
 17 18  1  0  0  0  0
 18 36  1  0  0  0  0
 18 37  1  0  0  0  0
 18 38  1  0  0  0  0
 19 20  1  0  0  0  0
 19 39  1  0  0  0  0
 19 40  1  0  0  0  0
 20 41  1  0  0  0  0
 20 42  1  0  0  0  0
M  END
> <s_m_source_file>
AV-unprocessed.smi

> <i_m_source_file_index>
1183

> <i_lp_mmshare_version>
43012

> <i_f3d_flags>
0

> <s_epik_input>
W0NIM11DKD1PKU4xW0NIMl1bQ0gyXVtDSF0oW0NIMl1bQ0gyXTEpW05IXUMoPU8pW0NIMl1uMm5jKFtDSDNdKVtjSF1jMltDSDNd

> <s_epik_cmdline>
J2VwaWtfcHl0aG9uJywgJy1waCcsICc3LjAnLCAnLXRuJywgJzgnLCAnLW1hJywgJzIwMCcsICctbWV0YWxfYmluZGluZycsICctaW1hZScsICc8aW5maWxlLm1hZT4nLCAnLW9tYWUnLCAnPG91dGZpbGUubWFlPic=

> <r_lp_tautomer_probability>
1

> <r_epik_Ionization_Penalty>
0.000413777

> <r_epik_Ionization_Penalty_Charging>
0

> <r_epik_Ionization_Penalty_Neutral>
0.000413777

> <r_epik_State_Penalty>
-0

> <r_epik_Charging_Adjusted_Penalty>
0

> <i_epik_Tot_Q>
0

> <i_epik_Tot_abs_Q>
0

> <r_epik_Metal_State_Penalty>
-0

> <b_epik_Metal_Only>
0

> <s_lp_Force_Field>
OPLS_2005

> <r_lp_Energy>
21.0351

> <b_lp_Chiralities_Consistent>
1

> <s_lp_Variant>
AV-unprocessed.smi:1183-1

> <Gold.Version>
5.8.1

> <Gold.Id.Protein>
6NUR|6NUR_protein|mol2

> <Gold.PLP.Fitness>
44.2157

> <Gold.PLP.PLP>
-41.4610

> <Gold.PLP.part.hbond>
-1.5885

> <Gold.PLP.part.metal>
0.0000

> <Gold.PLP.part.buried>
-4.7596

> <Gold.PLP.part.nonpolar>
-35.9467

> <Gold.PLP.part.repulsive>
0.4282

> <Gold.PLP.ligand.clash>
0.0000

> <Gold.PLP.ligand.torsion>
0.1320

> <Gold.PLP.Chemscore.Hbond>
1.0000

> <Gold.PLP.Chemscore.CHOScore>
0.0000

> <Gold.PLP.Chemscore.Metal>
0.0000

> <Gold.Chemscore.Hbonds>
donor molecule, donor type, donor heavy atom, donor atom, acceptor molecule, acceptor atom, score
      P1  H  7989  7998       L1    10  1.00

> <Gold.PLP.Chemscore.Internal.Correction>
0.0188

> <Gold.Rescore>
     Score         DG    S(hbond)    S(metal)    S(lipo)     H(rot)  DE(clash)    DE(int)     intcor
     13.35     -15.35       0.96        0.00      87.74       1.41       0.17       1.84       ----

> <Gold.Chemscore.Fitness>
13.3475

> <Gold.Chemscore.DG>
-15.3517

> <Gold.Chemscore.ZeroCoef>
-5.4800

> <Gold.Chemscore.Hbond>
0.9600

> <Gold.Chemscore.Metal>
0.0000

> <Gold.Chemscore.Lipo>
87.7408

> <Gold.Chemscore.Internal_Hbond>
0.0000

> <Gold.Chemscore.DEClash>
0.1666

> <Gold.Chemscore.DEInternal>
1.8377

> <Gold.Chemscore.Rot>
1.4064

> <Gold.Chemscore.Internal.Correction>
   9.000000E+99

> <Gold.Chemscore.Hbonds>
donor molecule, donor type, donor heavy atom, donor atom, acceptor molecule, acceptor atom, score
      P1  H  7989  7998       L1    10  0.95

> <Gold.Chemscore.Hbond.Weighted>
-3.2063

> <Gold.Chemscore.Metal.Weighted>
-0.0000

> <Gold.Chemscore.Lipo.Weighted>
-10.2657

> <Gold.Chemscore.Internal_Hbond.Weighted>
0.0000

> <Gold.Chemscore.DEClash.Weighted>
0.1666

> <Gold.Chemscore.DEInternal.Weighted>
1.8377

> <Gold.Chemscore.Rot.Weighted>
3.6003

> <Gold.Chemscore.Internal.Correction.Weighted>
   9.000000E+99

> <Gold.Protein.RotatedTorsions>
[ 6907 6896 6895 6894 ] final -173.30 input  -60.11 | X-H torsion
[ 7974 7965 7964 7962 ] final   89.88 input  175.53 | X-H torsion
[ 8008 7997 7996 7995 ] final  171.41 input   59.86 | X-H torsion
[ 10167 10162 10161 10158 ] final -158.47 input  -65.29 | X-H torsion
[ 10718 10713 10712 10709 ] final -153.66 input   66.30 | X-H torsion
[ 10763 10752 10751 10750 ] final -124.66 input  -60.55 | X-H torsion
[ 11005 11000 10999 10996 ] final  173.23 input  -57.11 | X-H torsion

> <Gold.Protein.ActiveResidues>
 VAL166  LYS551  ARG553  GLY616  TRP617  ASP618  TYR619  PRO620  LYS621  CYS622 
 ASP623  PHE694  ASN695  SER759  ASP760  ASP761  ALA762  ILE779  LEU786  VAL792 
 PHE793  MET794  SER795  GLU796  ALA797  LYS798  CYS799  TRP800  GLU811  SER814 

> <Gold.Protein.RotatedAtoms>
  151.5539  133.3413  159.2957 H   0  0  0  0  0  0  0  0  0  0  0  0  # atno 6907 bound_to 6896
  150.8462  134.7775  159.6984 H   0  0  0  0  0  0  0  0  0  0  0  0  # atno 6908 bound_to 6896
  152.4519  134.5382  159.9883 H   0  0  0  0  0  0  0  0  0  0  0  0  # atno 6909 bound_to 6896
  145.5264  139.2281  143.2643 H   0  0  0  0  0  0  0  0  0  0  0  0  # atno 7974 bound_to 7965
  156.1274  140.1512  156.9116 H   0  0  0  0  0  0  0  0  0  0  0  0  # atno 8008 bound_to 7997
  154.4882  140.0859  156.7575 H   0  0  0  0  0  0  0  0  0  0  0  0  # atno 8009 bound_to 7997
  155.4319  140.3427  155.4283 H   0  0  0  0  0  0  0  0  0  0  0  0  # atno 8010 bound_to 7997
  139.6690  143.9779  152.2272 H   0  0  0  0  0  0  0  0  0  0  0  0  # atno 10167 bound_to 10162
  156.4888  130.8337  151.2561 H   0  0  0  0  0  0  0  0  0  0  0  0  # atno 10718 bound_to 10713
  154.8726  135.4056  154.3141 H   0  0  0  0  0  0  0  0  0  0  0  0  # atno 10763 bound_to 10752
  153.3980  135.7017  153.6452 H   0  0  0  0  0  0  0  0  0  0  0  0  # atno 10764 bound_to 10752
  153.5207  135.3688  155.2601 H   0  0  0  0  0  0  0  0  0  0  0  0  # atno 10765 bound_to 10752
  140.3382  134.7299  157.4183 H   0  0  0  0  0  0  0  0  0  0  0  0  # atno 11005 bound_to 11000
  146.2072  140.6079  142.9075 LP  0  0  0  0  0  0  0  0  0  0  0  0  # atno 17320 bound_to 7965
  144.7648  140.5506  143.6710 LP  0  0  0  0  0  0  0  0  0  0  0  0  # atno 17321 bound_to 7965
  139.9538  144.6603  150.8146 LP  0  0  0  0  0  0  0  0  0  0  0  0  # atno 17342 bound_to 10162
  140.7610  143.3165  151.2720 LP  0  0  0  0  0  0  0  0  0  0  0  0  # atno 17343 bound_to 10162
  157.7476  131.0020  150.2985 LP  0  0  0  0  0  0  0  0  0  0  0  0  # atno 17370 bound_to 10713
  156.3447  130.3821  149.7379 LP  0  0  0  0  0  0  0  0  0  0  0  0  # atno 17371 bound_to 10713
  140.0803  134.5740  155.8548 LP  0  0  0  0  0  0  0  0  0  0  0  0  # atno 17394 bound_to 11000
  141.2045  133.6640  156.6127 LP  0  0  0  0  0  0  0  0  0  0  0  0  # atno 17395 bound_to 11000

$$$$
