AV-unprocessed.smi:1460|AV-procd|sdf|5928|dock5
  -GOLD-   22720 6 13D 1   1.00000     0.00000
 Structure written by MMmdl.
 41 42  0  0  0  0  0  0  0  0  1 V2000
  151.9927  138.5921  159.1750 C   0  0  0  0  0  0  0  0  0  0  0  0
  152.1723  139.9727  158.5223 C   0  0  2  0  0  0  0  0  0  0  0  0
  151.9092  141.1448  159.4938 C   0  0  0  0  0  0  0  0  0  0  0  0
  152.0164  142.4463  158.8596 N   0  0  0  0  0  0  0  0  0  0  0  0
  152.8508  143.4936  159.1893 C   0  0  0  0  0  0  0  0  0  0  0  0
  152.5894  144.5113  158.3172 C   0  0  0  0  0  0  0  0  0  0  0  0
  151.5613  143.9871  157.4847 C   0  0  0  0  0  0  0  0  0  0  0  0
  151.2180  142.7524  157.8141 N   0  0  0  0  0  0  0  0  0  0  0  0
  151.2848  140.0726  157.3673 N   0  0  0  0  0  0  0  0  0  0  0  0
  151.6459  139.8884  156.0877 C   0  0  0  0  0  0  0  0  0  0  0  0
  152.7941  139.6072  155.7431 O   0  0  0  0  0  0  0  0  0  0  0  0
  150.5395  140.0496  155.0371 C   0  0  0  0  0  0  0  0  0  0  0  0
  149.7741  141.3782  155.2380 C   0  0  0  0  0  0  0  0  0  0  0  0
  148.5843  141.4834  154.2671 C   0  0  0  0  0  0  0  0  0  0  0  0
  147.7054  140.3190  154.4673 N   0  0  0  0  0  0  0  0  0  0  0  0
  146.4968  140.3221  155.0844 C   0  0  0  0  0  0  0  0  0  0  0  0
  146.0408  141.5264  155.4427 N   0  0  0  0  0  0  0  0  0  0  0  0
  145.8324  139.3083  155.2927 O   0  0  0  0  0  0  0  0  0  0  0  0
  148.3852  139.0708  154.0989 C   0  0  0  0  0  0  0  0  0  0  0  0
  149.5683  138.8457  155.0580 C   0  0  0  0  0  0  0  0  0  0  0  0
  152.6989  138.4402  159.9914 H   0  0  0  0  0  0  0  0  0  0  0  0
  152.1600  137.7926  158.4524 H   0  0  0  0  0  0  0  0  0  0  0  0
  150.9866  138.4718  159.5780 H   0  0  0  0  0  0  0  0  0  0  0  0
  153.2051  140.0338  158.1736 H   0  0  0  0  0  0  0  0  0  0  0  0
  150.9140  141.0616  159.9333 H   0  0  0  0  0  0  0  0  0  0  0  0
  152.6181  141.1105  160.3226 H   0  0  0  0  0  0  0  0  0  0  0  0
  153.5548  143.4269  160.0056 H   0  0  0  0  0  0  0  0  0  0  0  0
  153.0594  145.4826  158.2807 H   0  0  0  0  0  0  0  0  0  0  0  0
  151.0565  144.4645  156.6579 H   0  0  0  0  0  0  0  0  0  0  0  0
  150.3196  140.3008  157.5557 H   0  0  0  0  0  0  0  0  0  0  0  0
  151.0031  140.0811  154.0493 H   0  0  0  0  0  0  0  0  0  0  0  0
  149.4072  141.4547  156.2630 H   0  0  0  0  0  0  0  0  0  0  0  0
  150.4468  142.2233  155.0867 H   0  0  0  0  0  0  0  0  0  0  0  0
  148.0848  142.4429  154.3990 H   0  0  0  0  0  0  0  0  0  0  0  0
  148.9441  141.4863  153.2371 H   0  0  0  0  0  0  0  0  0  0  0  0
  145.1465  141.6097  155.9032 H   0  0  0  0  0  0  0  0  0  0  0  0
  146.5932  142.3482  155.2465 H   0  0  0  0  0  0  0  0  0  0  0  0
  147.7196  138.2068  154.1199 H   0  0  0  0  0  0  0  0  0  0  0  0
  148.7423  139.1420  153.0705 H   0  0  0  0  0  0  0  0  0  0  0  0
  150.0978  137.9333  154.7808 H   0  0  0  0  0  0  0  0  0  0  0  0
  149.1824  138.6840  156.0660 H   0  0  0  0  0  0  0  0  0  0  0  0
  1  2  1  0  0  0  0
  1 21  1  0  0  0  0
  1 22  1  0  0  0  0
  1 23  1  0  0  0  0
  2  3  1  0  0  0  0
  2  9  1  0  0  0  0
  2 24  1  0  0  0  0
  3  4  1  0  0  0  0
  3 25  1  0  0  0  0
  3 26  1  0  0  0  0
  4  8  1  0  0  0  0
  4  5  1  0  0  0  0
  5  6  2  0  0  0  0
  5 27  1  0  0  0  0
  6  7  1  0  0  0  0
  6 28  1  0  0  0  0
  7  8  2  0  0  0  0
  7 29  1  0  0  0  0
  9 10  1  0  0  0  0
  9 30  1  0  0  0  0
 10 11  2  0  0  0  0
 10 12  1  0  0  0  0
 12 20  1  0  0  0  0
 12 13  1  0  0  0  0
 12 31  1  0  0  0  0
 13 14  1  0  0  0  0
 13 32  1  0  0  0  0
 13 33  1  0  0  0  0
 14 15  1  0  0  0  0
 14 34  1  0  0  0  0
 14 35  1  0  0  0  0
 15 16  1  0  0  0  0
 15 19  1  0  0  0  0
 16 17  1  0  0  0  0
 16 18  2  0  0  0  0
 17 36  1  0  0  0  0
 17 37  1  0  0  0  0
 19 20  1  0  0  0  0
 19 38  1  0  0  0  0
 19 39  1  0  0  0  0
 20 40  1  0  0  0  0
 20 41  1  0  0  0  0
M  END
> <s_m_source_file>
AV-unprocessed.smi

> <i_m_source_file_index>
1460

> <i_lp_mmshare_version>
43012

> <i_f3d_flags>
0

> <s_epik_input>
bjFbY0hdW2NIXVtjSF1uMVtDSDJdW0NAQEhdKFtDSDNdKVtOSF1DKD1PKVtDSF0yW0NIMl1bQ0gyXU4oQyg9TylbTkgyXSlbQ0gyXVtDSDJdMg==

> <s_epik_cmdline>
J2VwaWtfcHl0aG9uJywgJy1waCcsICc3LjAnLCAnLXRuJywgJzgnLCAnLW1hJywgJzIwMCcsICctbWV0YWxfYmluZGluZycsICctaW1hZScsICc8aW5maWxlLm1hZT4nLCAnLW9tYWUnLCAnPG91dGZpbGUubWFlPic=

> <r_lp_tautomer_probability>
1

> <r_epik_Ionization_Penalty>
0.000387527

> <r_epik_Ionization_Penalty_Charging>
0

> <r_epik_Ionization_Penalty_Neutral>
0.000387527

> <r_epik_State_Penalty>
-0

> <r_epik_Charging_Adjusted_Penalty>
0

> <i_epik_Tot_Q>
0

> <i_epik_Tot_abs_Q>
0

> <r_epik_Metal_State_Penalty>
-0

> <b_epik_Metal_Only>
0

> <s_lp_Force_Field>
OPLS_2005

> <r_lp_Energy>
26.2675

> <b_lp_Chiralities_Consistent>
1

> <s_lp_Variant>
AV-unprocessed.smi:1460-1

> <Gold.Version>
5.8.1

> <Gold.Id.Protein>
6NUR|6NUR_protein|mol2

> <Gold.PLP.Fitness>
43.3843

> <Gold.PLP.PLP>
-38.3546

> <Gold.PLP.part.hbond>
-1.0000

> <Gold.PLP.part.metal>
0.0000

> <Gold.PLP.part.buried>
-2.5570

> <Gold.PLP.part.nonpolar>
-35.4626

> <Gold.PLP.part.repulsive>
0.2075

> <Gold.PLP.ligand.clash>
0.0000

> <Gold.PLP.ligand.torsion>
0.5200

> <Gold.PLP.Chemscore.Hbond>
1.0000

> <Gold.PLP.Chemscore.CHOScore>
1.0000

> <Gold.PLP.Chemscore.Metal>
0.0000

> <Gold.Chemscore.Hbonds>
donor molecule, donor type, donor heavy atom, donor atom, acceptor molecule, acceptor atom, score
      P1  H  7997  8009       L1    11  1.00
      L1  C     7    29       P1  8028  1.00

> <Gold.PLP.Chemscore.Internal.Correction>
0.0696

> <Gold.Rescore>
     Score         DG    S(hbond)    S(metal)    S(lipo)     H(rot)  DE(clash)    DE(int)     intcor
     14.42     -14.87       1.00        0.00      91.56       1.82       0.13       0.31       ----

> <Gold.Chemscore.Fitness>
14.4249

> <Gold.Chemscore.DG>
-14.8713

> <Gold.Chemscore.ZeroCoef>
-5.4800

> <Gold.Chemscore.Hbond>
1.0000

> <Gold.Chemscore.Metal>
0.0000

> <Gold.Chemscore.Lipo>
91.5552

> <Gold.Chemscore.Internal_Hbond>
0.0000

> <Gold.Chemscore.DEClash>
0.1334

> <Gold.Chemscore.DEInternal>
0.3130

> <Gold.Chemscore.Rot>
1.8206

> <Gold.Chemscore.Internal.Correction>
   9.000000E+99

> <Gold.Chemscore.Hbonds>
donor molecule, donor type, donor heavy atom, donor atom, acceptor molecule, acceptor atom, score
      P1  H  7997  8009       L1    11  0.97

> <Gold.Chemscore.Hbond.Weighted>
-3.3400

> <Gold.Chemscore.Metal.Weighted>
-0.0000

> <Gold.Chemscore.Lipo.Weighted>
-10.7120

> <Gold.Chemscore.Internal_Hbond.Weighted>
0.0000

> <Gold.Chemscore.DEClash.Weighted>
0.1334

> <Gold.Chemscore.DEInternal.Weighted>
0.3130

> <Gold.Chemscore.Rot.Weighted>
4.6607

> <Gold.Chemscore.Internal.Correction.Weighted>
   9.000000E+99

> <Gold.Protein.RotatedTorsions>
[ 6907 6896 6895 6894 ] final   29.19 input  -60.11 | X-H torsion
[ 7974 7965 7964 7962 ] final   69.93 input  175.53 | X-H torsion
[ 8008 7997 7996 7995 ] final -133.90 input   59.86 | X-H torsion
[ 10167 10162 10161 10158 ] final  -53.56 input  -65.29 | X-H torsion
[ 10718 10713 10712 10709 ] final   71.32 input   66.30 | X-H torsion
[ 10763 10752 10751 10750 ] final  144.19 input  -60.55 | X-H torsion
[ 11005 11000 10999 10996 ] final  -68.90 input  -57.11 | X-H torsion

> <Gold.Protein.ActiveResidues>
 VAL166  LYS551  ARG553  GLY616  TRP617  ASP618  TYR619  PRO620  LYS621  CYS622 
 ASP623  PHE694  ASN695  SER759  ASP760  ASP761  ALA762  ILE779  LEU786  VAL792 
 PHE793  MET794  SER795  GLU796  ALA797  LYS798  CYS799  TRP800  GLU811  SER814 

> <Gold.Protein.RotatedAtoms>
  152.0279  134.9785  160.0571 H   0  0  0  0  0  0  0  0  0  0  0  0  # atno 6907 bound_to 6896
  152.1273  133.4382  159.4712 H   0  0  0  0  0  0  0  0  0  0  0  0  # atno 6908 bound_to 6896
  150.6853  134.2382  159.4505 H   0  0  0  0  0  0  0  0  0  0  0  0  # atno 6909 bound_to 6896
  145.7844  139.2903  143.1247 H   0  0  0  0  0  0  0  0  0  0  0  0  # atno 7974 bound_to 7965
  155.3531  140.0478  157.3046 H   0  0  0  0  0  0  0  0  0  0  0  0  # atno 8008 bound_to 7997
  154.5217  140.2227  155.8928 H   0  0  0  0  0  0  0  0  0  0  0  0  # atno 8009 bound_to 7997
  156.1696  140.3099  155.8956 H   0  0  0  0  0  0  0  0  0  0  0  0  # atno 8010 bound_to 7997
  140.6478  143.2546  151.4809 H   0  0  0  0  0  0  0  0  0  0  0  0  # atno 10167 bound_to 10162
  157.6446  130.9522  150.0773 H   0  0  0  0  0  0  0  0  0  0  0  0  # atno 10718 bound_to 10713
  153.9848  135.2938  155.3417 H   0  0  0  0  0  0  0  0  0  0  0  0  # atno 10763 bound_to 10752
  154.7248  135.5093  153.8873 H   0  0  0  0  0  0  0  0  0  0  0  0  # atno 10764 bound_to 10752
  153.0837  135.6687  154.0107 H   0  0  0  0  0  0  0  0  0  0  0  0  # atno 10765 bound_to 10752
  141.1542  133.6751  156.6517 H   0  0  0  0  0  0  0  0  0  0  0  0  # atno 11005 bound_to 11000
  146.0041  140.8494  143.0004 LP  0  0  0  0  0  0  0  0  0  0  0  0  # atno 17320 bound_to 7965
  144.6791  140.2395  143.7345 LP  0  0  0  0  0  0  0  0  0  0  0  0  # atno 17321 bound_to 7965
  139.5690  144.1973  152.1809 LP  0  0  0  0  0  0  0  0  0  0  0  0  # atno 17342 bound_to 10162
  140.1263  144.5328  150.6830 LP  0  0  0  0  0  0  0  0  0  0  0  0  # atno 17343 bound_to 10162
  156.1760  130.3648  149.9100 LP  0  0  0  0  0  0  0  0  0  0  0  0  # atno 17370 bound_to 10713
  156.7064  130.8953  151.3605 LP  0  0  0  0  0  0  0  0  0  0  0  0  # atno 17371 bound_to 10713
  140.3315  134.7924  157.4330 LP  0  0  0  0  0  0  0  0  0  0  0  0  # atno 17394 bound_to 11000
  140.1012  134.5469  155.8351 LP  0  0  0  0  0  0  0  0  0  0  0  0  # atno 17395 bound_to 11000

$$$$
