AV-unprocessed.smi:1261|AV-procd|sdf|5301|dock5
  -GOLD-   22720 4423D 1   1.00000     0.00000
 Structure written by MMmdl.
 49 50  0  0  0  0  0  0  0  0  3 V2000
  147.3503  128.7555  151.8497 C   0  0  0  0  0  0  0  0  0  0  0  0
  146.3443  129.6707  152.5696 C   0  0  2  0  0  0  0  0  0  0  0  0
  145.3253  130.3148  151.6113 C   0  0  0  0  0  0  0  0  0  0  0  0
  145.9612  131.4402  150.7759 C   0  0  1  0  0  0  0  0  0  0  0  0
  144.9228  132.1204  149.8721 C   0  0  0  0  0  0  0  0  0  0  0  0
  146.6583  132.4593  151.6976 C   0  0  0  0  0  0  0  0  0  0  0  0
  147.6637  131.8027  152.5726 N   0  3  1  0  0  0  0  0  0  0  0  0
  148.4595  132.7868  153.3495 C   0  0  0  0  0  0  0  0  0  0  0  0
  149.6482  132.1386  154.0793 C   0  0  0  0  0  0  0  0  0  0  0  0
  149.3420  131.8683  155.5614 C   0  0  0  0  0  0  0  0  0  0  0  0
  148.7267  133.0235  156.2027 N   0  0  0  0  0  0  0  0  0  0  0  0
  149.0928  133.5359  157.3874 C   0  0  0  0  0  0  0  0  0  0  0  0
  150.0203  133.0884  158.0625 O   0  0  0  0  0  0  0  0  0  0  0  0
  148.2970  134.7513  157.8744 C   0  0  0  0  0  0  0  0  0  0  0  0
  148.0442  134.6959  159.3194 N   0  0  0  0  0  0  0  0  0  0  0  0
  148.2635  135.9693  160.0010 N   0  5  0  0  0  0  0  0  0  0  0  0
  148.0370  136.0524  161.3388 C   0  0  0  0  0  0  0  0  0  0  0  0
  148.1869  137.0921  161.9765 O   0  0  0  0  0  0  0  0  0  0  0  0
  147.6002  134.8534  162.0346 C   0  0  0  0  0  0  0  0  0  0  0  0
  147.4157  133.6889  161.3818 C   0  0  0  0  0  0  0  0  0  0  0  0
  147.6361  133.5559  159.9467 C   0  0  0  0  0  0  0  0  0  0  0  0
  147.4652  132.4959  159.3447 O   0  0  0  0  0  0  0  0  0  0  0  0
  147.0441  130.7488  153.4207 C   0  0  0  0  0  0  0  0  0  0  0  0
  147.9931  129.3108  151.1668 H   0  0  0  0  0  0  0  0  0  0  0  0
  146.8366  127.9870  151.2713 H   0  0  0  0  0  0  0  0  0  0  0  0
  147.9957  128.2471  152.5665 H   0  0  0  0  0  0  0  0  0  0  0  0
  145.7839  129.0298  153.2517 H   0  0  0  0  0  0  0  0  0  0  0  0
  144.8890  129.5568  150.9596 H   0  0  0  0  0  0  0  0  0  0  0  0
  144.4994  130.7241  152.1950 H   0  0  0  0  0  0  0  0  0  0  0  0
  146.7168  131.0010  150.1234 H   0  0  0  0  0  0  0  0  0  0  0  0
  144.1328  132.5913  150.4582 H   0  0  0  0  0  0  0  0  0  0  0  0
  144.4540  131.4001  149.2010 H   0  0  0  0  0  0  0  0  0  0  0  0
  145.3839  132.8921  149.2549 H   0  0  0  0  0  0  0  0  0  0  0  0
  147.1487  133.2160  151.0837 H   0  0  0  0  0  0  0  0  0  0  0  0
  145.9243  132.9799  152.3153 H   0  0  0  0  0  0  0  0  0  0  0  0
  148.8580  133.5409  152.6693 H   0  0  0  0  0  0  0  0  0  0  0  0
  147.8140  133.3166  154.0519 H   0  0  0  0  0  0  0  0  0  0  0  0
  149.9207  131.2007  153.5960 H   0  0  0  0  0  0  0  0  0  0  0  0
  150.5202  132.7897  154.0042 H   0  0  0  0  0  0  0  0  0  0  0  0
  148.6543  131.0273  155.6533 H   0  0  0  0  0  0  0  0  0  0  0  0
  150.2503  131.5863  156.0966 H   0  0  0  0  0  0  0  0  0  0  0  0
  147.9421  133.4506  155.7308 H   0  0  0  0  0  0  0  0  0  0  0  0
  148.8404  135.6622  157.6172 H   0  0  0  0  0  0  0  0  0  0  0  0
  147.3566  134.8116  157.3227 H   0  0  0  0  0  0  0  0  0  0  0  0
  147.4214  134.8970  163.0989 H   0  0  0  0  0  0  0  0  0  0  0  0
  147.0915  132.8230  161.9396 H   0  0  0  0  0  0  0  0  0  0  0  0
  146.3213  131.2139  154.0930 H   0  0  0  0  0  0  0  0  0  0  0  0
  147.7918  130.2732  154.0544 H   0  0  0  0  0  0  0  0  0  0  0  0
  148.3127  131.3381  151.9535 H   0  0  0  0  0  0  0  0  0  0  0  0
  1  2  1  0  0  0  0
  1 24  1  0  0  0  0
  1 25  1  0  0  0  0
  1 26  1  0  0  0  0
  2 23  1  0  0  0  0
  2  3  1  0  0  0  0
  2 27  1  0  0  0  0
  3  4  1  0  0  0  0
  3 28  1  0  0  0  0
  3 29  1  0  0  0  0
  4  5  1  0  0  0  0
  4  6  1  0  0  0  0
  4 30  1  0  0  0  0
  5 31  1  0  0  0  0
  5 32  1  0  0  0  0
  5 33  1  0  0  0  0
  6  7  1  0  0  0  0
  6 34  1  0  0  0  0
  6 35  1  0  0  0  0
  7  8  1  0  0  0  0
  7 23  1  0  0  0  0
  7 49  1  0  0  0  0
  8  9  1  0  0  0  0
  8 36  1  0  0  0  0
  8 37  1  0  0  0  0
  9 10  1  0  0  0  0
  9 38  1  0  0  0  0
  9 39  1  0  0  0  0
 10 11  1  0  0  0  0
 10 40  1  0  0  0  0
 10 41  1  0  0  0  0
 11 12  1  0  0  0  0
 11 42  1  0  0  0  0
 12 13  2  0  0  0  0
 12 14  1  0  0  0  0
 14 43  1  0  0  0  0
 14 44  1  0  0  0  0
 14 15  1  0  0  0  0
 15 16  1  0  0  0  0
 15 21  1  0  0  0  0
 16 17  1  0  0  0  0
 17 18  2  0  0  0  0
 17 19  1  0  0  0  0
 19 45  1  0  0  0  0
 19 20  2  0  0  0  0
 20 46  1  0  0  0  0
 20 21  1  0  0  0  0
 21 22  2  0  0  0  0
 23 47  1  0  0  0  0
 23 48  1  0  0  0  0
M  CHG  1   7   1
M  CHG  1  16  -1
M  END
> <s_m_source_file>
AV-unprocessed.smi

> <i_m_source_file_index>
1261

> <i_lp_mmshare_version>
43012

> <i_f3d_flags>
0

> <s_epik_input>
W0NIM11bQ0BASF0xW0NIMl1bQ0BASF0oW0NIM10pW0NIMl1OKFtDSDJdMSlbQ0gyXVtDSDJdW0NIMl1bTkhdQyg9TylbQ0gyXW4yW25IXWMoPU8pW2NIXVtjSF1jMj1P

> <s_epik_cmdline>
J2VwaWtfcHl0aG9uJywgJy1waCcsICc3LjAnLCAnLXRuJywgJzgnLCAnLW1hJywgJzIwMCcsICctbWV0YWxfYmluZGluZycsICctaW1hZScsICc8aW5maWxlLm1hZT4nLCAnLW9tYWUnLCAnPG91dGZpbGUubWFlPic=

> <r_lp_tautomer_probability>
1

> <r_epik_Ionization_Penalty>
0.0955723

> <r_epik_Ionization_Penalty_Charging>
0.0955723

> <r_epik_Ionization_Penalty_Neutral>
2.68632e-08

> <r_epik_State_Penalty>
0.0334406

> <r_epik_Charging_Adjusted_Penalty>
0.129013

> <i_epik_Tot_Q>
0

> <i_epik_Tot_abs_Q>
2

> <r_epik_Metal_State_Penalty>
0.0334406

> <b_epik_Metal_Only>
0

> <s_lp_Force_Field>
OPLS_2005

> <r_lp_Energy>
33.9758

> <b_lp_Chiralities_Consistent>
1

> <s_lp_Variant>
AV-unprocessed.smi:1261-1

> <Gold.Version>
5.8.1

> <Gold.Id.Protein>
6NUR|6NUR_protein|mol2

> <Gold.PLP.Fitness>
49.8040

> <Gold.PLP.PLP>
-41.3680

> <Gold.PLP.part.hbond>
-4.0000

> <Gold.PLP.part.metal>
0.0000

> <Gold.PLP.part.buried>
-2.6267

> <Gold.PLP.part.nonpolar>
-33.5146

> <Gold.PLP.part.repulsive>
0.0065

> <Gold.PLP.ligand.clash>
0.0053

> <Gold.PLP.ligand.torsion>
0.9037

> <Gold.PLP.Chemscore.Hbond>
3.3752

> <Gold.PLP.Chemscore.CHOScore>
0.0000

> <Gold.PLP.Chemscore.Metal>
0.0000

> <Gold.Chemscore.Hbonds>
donor molecule, donor type, donor heavy atom, donor atom, acceptor molecule, acceptor atom, score
      L1  H     7    49       P1 10747  1.00
      P1  H  6896  6908       L1    13  1.00
      P1  H  6931  6943       L1    18  0.75
      P1  H  6934  6947       L1    18  0.04

> <Gold.PLP.Chemscore.Internal.Correction>
0.1232

> <Gold.Rescore>
     Score         DG    S(hbond)    S(metal)    S(lipo)     H(rot)  DE(clash)    DE(int)     intcor
     18.49     -20.47       3.00        0.00      97.18       2.49       0.08       1.90       ----

> <Gold.Chemscore.Fitness>
18.4901

> <Gold.Chemscore.DG>
-20.4706

> <Gold.Chemscore.ZeroCoef>
-5.4800

> <Gold.Chemscore.Hbond>
2.9955

> <Gold.Chemscore.Metal>
0.0000

> <Gold.Chemscore.Lipo>
97.1766

> <Gold.Chemscore.Internal_Hbond>
0.0000

> <Gold.Chemscore.DEClash>
0.0811

> <Gold.Chemscore.DEInternal>
1.8993

> <Gold.Chemscore.Rot>
2.4938

> <Gold.Chemscore.Internal.Correction>
   9.000000E+99

> <Gold.Chemscore.Hbonds>
donor molecule, donor type, donor heavy atom, donor atom, acceptor molecule, acceptor atom, score
      L1  H     7    49       P1 10747  0.98
      P1  H  6896  6908       L1    13  0.96
      P1  H  6931  6943       L1    18  0.75
      P1  H  6934  6947       L1    18  0.05

> <Gold.Chemscore.Hbond.Weighted>
-10.0049

> <Gold.Chemscore.Metal.Weighted>
-0.0000

> <Gold.Chemscore.Lipo.Weighted>
-11.3697

> <Gold.Chemscore.Internal_Hbond.Weighted>
0.0000

> <Gold.Chemscore.DEClash.Weighted>
0.0811

> <Gold.Chemscore.DEInternal.Weighted>
1.8993

> <Gold.Chemscore.Rot.Weighted>
6.3840

> <Gold.Chemscore.Internal.Correction.Weighted>
   9.000000E+99

> <Gold.Protein.RotatedTorsions>
[ 6907 6896 6895 6894 ] final  110.58 input  -60.11 | X-H torsion
[ 7974 7965 7964 7962 ] final  -94.38 input  175.53 | X-H torsion
[ 8008 7997 7996 7995 ] final  120.92 input   59.86 | X-H torsion
[ 10167 10162 10161 10158 ] final -177.24 input  -65.29 | X-H torsion
[ 10718 10713 10712 10709 ] final   76.86 input   66.30 | X-H torsion
[ 10763 10752 10751 10750 ] final -151.50 input  -60.55 | X-H torsion
[ 11005 11000 10999 10996 ] final  -99.26 input  -57.11 | X-H torsion

> <Gold.Protein.ActiveResidues>
 VAL166  LYS551  ARG553  GLY616  TRP617  ASP618  TYR619  PRO620  LYS621  CYS622 
 ASP623  PHE694  ASN695  SER759  ASP760  ASP761  ALA762  ILE779  LEU786  VAL792 
 PHE793  MET794  SER795  GLU796  ALA797  LYS798  CYS799  TRP800  GLU811  SER814 

> <Gold.Protein.RotatedAtoms>
  152.5012  133.8779  159.7331 H   0  0  0  0  0  0  0  0  0  0  0  0  # atno 6907 bound_to 6896
  150.9249  133.6827  159.2830 H   0  0  0  0  0  0  0  0  0  0  0  0  # atno 6908 bound_to 6896
  151.4191  135.1000  159.9661 H   0  0  0  0  0  0  0  0  0  0  0  0  # atno 6909 bound_to 6896
  145.3741  140.9509  143.2431 H   0  0  0  0  0  0  0  0  0  0  0  0  # atno 7974 bound_to 7965
  156.2664  140.2820  156.1225 H   0  0  0  0  0  0  0  0  0  0  0  0  # atno 8008 bound_to 7997
  155.1140  140.0391  157.2749 H   0  0  0  0  0  0  0  0  0  0  0  0  # atno 8009 bound_to 7997
  154.6721  140.2590  155.7002 H   0  0  0  0  0  0  0  0  0  0  0  0  # atno 8010 bound_to 7997
  139.5490  144.2160  152.1041 H   0  0  0  0  0  0  0  0  0  0  0  0  # atno 10167 bound_to 10162
  157.6689  130.9794  150.1558 H   0  0  0  0  0  0  0  0  0  0  0  0  # atno 10718 bound_to 10713
  154.8054  135.3258  154.7445 H   0  0  0  0  0  0  0  0  0  0  0  0  # atno 10763 bound_to 10752
  153.8104  135.6896  153.4846 H   0  0  0  0  0  0  0  0  0  0  0  0  # atno 10764 bound_to 10752
  153.1796  135.4592  154.9955 H   0  0  0  0  0  0  0  0  0  0  0  0  # atno 10765 bound_to 10752
  141.1315  133.8307  157.0948 H   0  0  0  0  0  0  0  0  0  0  0  0  # atno 11005 bound_to 11000
  144.8555  139.5256  143.6836 LP  0  0  0  0  0  0  0  0  0  0  0  0  # atno 17320 bound_to 7965
  146.2872  139.7037  142.9187 LP  0  0  0  0  0  0  0  0  0  0  0  0  # atno 17321 bound_to 7965
  140.1652  144.4988  150.6610 LP  0  0  0  0  0  0  0  0  0  0  0  0  # atno 17342 bound_to 10162
  140.6747  143.2300  151.5538 LP  0  0  0  0  0  0  0  0  0  0  0  0  # atno 17343 bound_to 10162
  156.2346  130.3685  149.8405 LP  0  0  0  0  0  0  0  0  0  0  0  0  # atno 17370 bound_to 10713
  156.6222  130.8631  151.3478 LP  0  0  0  0  0  0  0  0  0  0  0  0  # atno 17371 bound_to 10713
  140.0370  134.9873  157.0890 LP  0  0  0  0  0  0  0  0  0  0  0  0  # atno 17394 bound_to 11000
  140.4195  134.1896  155.7164 LP  0  0  0  0  0  0  0  0  0  0  0  0  # atno 17395 bound_to 11000

$$$$
