AV-unprocessed.smi:1015|AV-procd|sdf|4436|dock4
  -GOLD-   22720 2393D 1   1.00000     0.00000
 Structure written by MMmdl.
 42 43  0  0  0  0  0  0  0  0  1 V2000
  151.9452  145.1085  159.5209 C   0  0  0  0  0  0  0  0  0  0  0  0
  152.6245  143.9020  159.8208 O   0  0  0  0  0  0  0  0  0  0  0  0
  151.8784  142.7514  159.4576 C   0  0  0  0  0  0  0  0  0  0  0  0
  151.4508  142.8358  157.9825 C   0  0  0  0  0  0  0  0  0  0  0  0
  151.0538  141.5691  157.3641 N   0  0  0  0  0  0  0  0  0  0  0  0
  152.1197  140.5763  157.5007 C   0  0  0  0  0  0  0  0  0  0  0  0
  151.7229  139.1991  156.9436 C   0  0  0  0  0  0  0  0  0  0  0  0
  151.3193  139.3037  155.4621 C   0  0  0  0  0  0  0  0  0  0  0  0
  150.8703  137.9369  154.9028 C   0  0  0  0  0  0  0  0  0  0  0  0
  150.0650  137.1937  155.8643 N   0  0  0  0  0  0  0  0  0  0  0  0
  150.4241  136.0366  156.4410 C   0  0  0  0  0  0  0  0  0  0  0  0
  151.5339  135.5228  156.3043 O   0  0  0  0  0  0  0  0  0  0  0  0
  149.3521  135.3338  157.2722 C   0  0  0  0  0  0  0  0  0  0  0  0
  148.9583  136.1647  158.3950 N   0  0  0  0  0  0  0  0  0  0  0  0
  147.7707  136.6667  158.7402 C   0  0  0  0  0  0  0  0  0  0  0  0
  147.8523  137.4061  159.8359 N   0  0  0  0  0  0  0  0  0  0  0  0
  149.1958  137.3344  160.1647 N   0  0  0  0  0  0  0  0  0  0  0  0
  149.8572  136.5993  159.3133 N   0  0  0  0  0  0  0  0  0  0  0  0
  150.2414  140.3975  155.3103 C   0  0  0  0  0  0  0  0  0  0  0  0
  150.6992  141.7184  155.9507 C   0  0  0  0  0  0  0  0  0  0  0  0
  152.5563  145.9579  159.8258 H   0  0  0  0  0  0  0  0  0  0  0  0
  150.9944  145.1695  160.0519 H   0  0  0  0  0  0  0  0  0  0  0  0
  151.7555  145.1973  158.4505 H   0  0  0  0  0  0  0  0  0  0  0  0
  152.5070  141.8708  159.5984 H   0  0  0  0  0  0  0  0  0  0  0  0
  151.0051  142.6304  160.1008 H   0  0  0  0  0  0  0  0  0  0  0  0
  150.6612  143.5796  157.8667 H   0  0  0  0  0  0  0  0  0  0  0  0
  152.3067  143.2260  157.4303 H   0  0  0  0  0  0  0  0  0  0  0  0
  153.0200  140.9280  156.9940 H   0  0  0  0  0  0  0  0  0  0  0  0
  152.3839  140.4634  158.5528 H   0  0  0  0  0  0  0  0  0  0  0  0
  152.5540  138.5024  157.0579 H   0  0  0  0  0  0  0  0  0  0  0  0
  150.8954  138.7951  157.5285 H   0  0  0  0  0  0  0  0  0  0  0  0
  152.2005  139.6253  154.9045 H   0  0  0  0  0  0  0  0  0  0  0  0
  150.3123  138.0682  153.9742 H   0  0  0  0  0  0  0  0  0  0  0  0
  151.7421  137.3307  154.6550 H   0  0  0  0  0  0  0  0  0  0  0  0
  149.1333  137.5413  156.0406 H   0  0  0  0  0  0  0  0  0  0  0  0
  148.4726  135.1306  156.6599 H   0  0  0  0  0  0  0  0  0  0  0  0
  149.7246  134.3753  157.6374 H   0  0  0  0  0  0  0  0  0  0  0  0
  146.8575  136.4994  158.1884 H   0  0  0  0  0  0  0  0  0  0  0  0
  150.0145  140.5710  154.2577 H   0  0  0  0  0  0  0  0  0  0  0  0
  149.3121  140.0696  155.7782 H   0  0  0  0  0  0  0  0  0  0  0  0
  149.8877  142.4363  155.8414 H   0  0  0  0  0  0  0  0  0  0  0  0
  151.5479  142.1204  155.3950 H   0  0  0  0  0  0  0  0  0  0  0  0
  1  2  1  0  0  0  0
  1 21  1  0  0  0  0
  1 22  1  0  0  0  0
  1 23  1  0  0  0  0
  2  3  1  0  0  0  0
  3  4  1  0  0  0  0
  3 24  1  0  0  0  0
  3 25  1  0  0  0  0
  4  5  1  0  0  0  0
  4 26  1  0  0  0  0
  4 27  1  0  0  0  0
  5 20  1  0  0  0  0
  5  6  1  0  0  0  0
  6  7  1  0  0  0  0
  6 28  1  0  0  0  0
  6 29  1  0  0  0  0
  7  8  1  0  0  0  0
  7 30  1  0  0  0  0
  7 31  1  0  0  0  0
  8  9  1  0  0  0  0
  8 19  1  0  0  0  0
  8 32  1  0  0  0  0
  9 10  1  0  0  0  0
  9 33  1  0  0  0  0
  9 34  1  0  0  0  0
 10 11  1  0  0  0  0
 10 35  1  0  0  0  0
 11 12  2  0  0  0  0
 11 13  1  0  0  0  0
 13 14  1  0  0  0  0
 13 36  1  0  0  0  0
 13 37  1  0  0  0  0
 14 18  1  0  0  0  0
 14 15  1  0  0  0  0
 15 16  2  0  0  0  0
 15 38  1  0  0  0  0
 16 17  1  0  0  0  0
 17 18  2  0  0  0  0
 19 20  1  0  0  0  0
 19 39  1  0  0  0  0
 19 40  1  0  0  0  0
 20 41  1  0  0  0  0
 20 42  1  0  0  0  0
M  END
> <s_m_source_file>
AV-unprocessed.smi

> <i_m_source_file_index>
1015

> <i_lp_mmshare_version>
43012

> <i_f3d_flags>
0

> <s_epik_input>
W0NIM11PW0NIMl1bQ0gyXU4xW0NIMl1bQ0gyXVtDSF0oW0NIMl1bQ0gyXTEpW0NIMl1bTkhdQyg9TylbQ0gyXW4yW2NIXW5ubjI=

> <s_epik_cmdline>
J2VwaWtfcHl0aG9uJywgJy1waCcsICc3LjAnLCAnLXRuJywgJzgnLCAnLW1hJywgJzIwMCcsICctbWV0YWxfYmluZGluZycsICctaW1hZScsICc8aW5maWxlLm1hZT4nLCAnLW9tYWUnLCAnPG91dGZpbGUubWFlPic=

> <r_lp_tautomer_probability>
1

> <r_epik_Ionization_Penalty>
2.39972

> <r_epik_Ionization_Penalty_Charging>
0

> <r_epik_Ionization_Penalty_Neutral>
2.39972

> <r_epik_State_Penalty>
2.55755

> <r_epik_Charging_Adjusted_Penalty>
2.55755

> <i_epik_Tot_Q>
0

> <i_epik_Tot_abs_Q>
0

> <r_epik_Metal_State_Penalty>
2.55755

> <b_epik_Metal_Only>
0

> <s_lp_Force_Field>
OPLS_2005

> <r_lp_Energy>
27.1713

> <b_lp_Chiralities_Consistent>
1

> <s_lp_Variant>
AV-unprocessed.smi:1015-3

> <Gold.Version>
5.8.1

> <Gold.Id.Protein>
6NUR|6NUR_protein|mol2

> <Gold.PLP.Fitness>
40.3402

> <Gold.PLP.PLP>
-31.8683

> <Gold.PLP.part.hbond>
-4.5373

> <Gold.PLP.part.metal>
0.0000

> <Gold.PLP.part.buried>
-5.8745

> <Gold.PLP.part.nonpolar>
-22.6218

> <Gold.PLP.part.repulsive>
0.0814

> <Gold.PLP.ligand.clash>
0.0000

> <Gold.PLP.ligand.torsion>
0.3329

> <Gold.PLP.Chemscore.Hbond>
3.0183

> <Gold.PLP.Chemscore.CHOScore>
0.0000

> <Gold.PLP.Chemscore.Metal>
0.0000

> <Gold.Chemscore.Hbonds>
donor molecule, donor type, donor heavy atom, donor atom, acceptor molecule, acceptor atom, score
      P1  H  6896  6907       L1    18  1.00
      P1  H  6931  6943       L1    17  0.34
      P1  H  6934  6947       L1    16  0.67
      P1  H 10752 10764       L1    12  0.99

> <Gold.PLP.Chemscore.Internal.Correction>
0.0831

> <Gold.Rescore>
     Score         DG    S(hbond)    S(metal)    S(lipo)     H(rot)  DE(clash)    DE(int)     intcor
     13.90     -14.27       2.37        0.00      75.72       3.12       0.02       0.36       ----

> <Gold.Chemscore.Fitness>
13.8975

> <Gold.Chemscore.DG>
-14.2732

> <Gold.Chemscore.ZeroCoef>
-5.4800

> <Gold.Chemscore.Hbond>
2.3716

> <Gold.Chemscore.Metal>
0.0000

> <Gold.Chemscore.Lipo>
75.7235

> <Gold.Chemscore.Internal_Hbond>
0.0000

> <Gold.Chemscore.DEClash>
0.0201

> <Gold.Chemscore.DEInternal>
0.3556

> <Gold.Chemscore.Rot>
3.1201

> <Gold.Chemscore.Internal.Correction>
   9.000000E+99

> <Gold.Chemscore.Hbonds>
donor molecule, donor type, donor heavy atom, donor atom, acceptor molecule, acceptor atom, score
      P1  H  6896  6907       L1    18  0.24
      P1  H  6931  6943       L1    17  0.06
      P1  H  6934  6947       L1    16  0.25
      P1  H 10752 10764       L1    12  0.92

> <Gold.Chemscore.Hbond.Weighted>
-7.9210

> <Gold.Chemscore.Metal.Weighted>
-0.0000

> <Gold.Chemscore.Lipo.Weighted>
-8.8596

> <Gold.Chemscore.Internal_Hbond.Weighted>
0.0000

> <Gold.Chemscore.DEClash.Weighted>
0.0201

> <Gold.Chemscore.DEInternal.Weighted>
0.3556

> <Gold.Chemscore.Rot.Weighted>
7.9874

> <Gold.Chemscore.Internal.Correction.Weighted>
   9.000000E+99

> <Gold.Protein.RotatedTorsions>
[ 6907 6896 6895 6894 ] final  -51.05 input  -60.11 | X-H torsion
[ 7974 7965 7964 7962 ] final  179.91 input  175.53 | X-H torsion
[ 8008 7997 7996 7995 ] final  151.53 input   59.86 | X-H torsion
[ 10167 10162 10161 10158 ] final  -20.20 input  -65.29 | X-H torsion
[ 10718 10713 10712 10709 ] final  -32.53 input   66.30 | X-H torsion
[ 10763 10752 10751 10750 ] final  -33.55 input  -60.55 | X-H torsion
[ 11005 11000 10999 10996 ] final   79.73 input  -57.11 | X-H torsion

> <Gold.Protein.ActiveResidues>
 VAL166  LYS551  ARG553  GLY616  TRP617  ASP618  TYR619  PRO620  LYS621  CYS622 
 ASP623  PHE694  ASN695  SER759  ASP760  ASP761  ALA762  ILE779  LEU786  VAL792 
 PHE793  MET794  SER795  GLU796  ALA797  LYS798  CYS799  TRP800  GLU811  SER814 

> <Gold.Protein.RotatedAtoms>
  150.8648  134.8009  159.7110 H   0  0  0  0  0  0  0  0  0  0  0  0  # atno 6907 bound_to 6896
  152.4673  134.5041  159.9743 H   0  0  0  0  0  0  0  0  0  0  0  0  # atno 6908 bound_to 6896
  151.5139  133.3441  159.2925 H   0  0  0  0  0  0  0  0  0  0  0  0  # atno 6909 bound_to 6896
  144.7141  140.0619  143.6432 H   0  0  0  0  0  0  0  0  0  0  0  0  # atno 7974 bound_to 7965
  156.2669  140.2045  156.6190 H   0  0  0  0  0  0  0  0  0  0  0  0  # atno 8008 bound_to 7997
  154.6771  140.0544  157.0251 H   0  0  0  0  0  0  0  0  0  0  0  0  # atno 8009 bound_to 7997
  155.1053  140.3210  155.4539 H   0  0  0  0  0  0  0  0  0  0  0  0  # atno 8010 bound_to 7997
  140.7274  143.4745  151.0201 H   0  0  0  0  0  0  0  0  0  0  0  0  # atno 10167 bound_to 10162
  156.3738  130.4344  149.7524 H   0  0  0  0  0  0  0  0  0  0  0  0  # atno 10718 bound_to 10713
  153.8320  135.6865  153.4813 H   0  0  0  0  0  0  0  0  0  0  0  0  # atno 10763 bound_to 10752
  153.1505  135.4620  154.9627 H   0  0  0  0  0  0  0  0  0  0  0  0  # atno 10764 bound_to 10752
  154.7882  135.3292  154.7782 H   0  0  0  0  0  0  0  0  0  0  0  0  # atno 10765 bound_to 10752
  139.9161  134.7866  156.1817 H   0  0  0  0  0  0  0  0  0  0  0  0  # atno 11005 bound_to 11000
  145.9857  139.2975  143.1015 LP  0  0  0  0  0  0  0  0  0  0  0  0  # atno 17320 bound_to 7965
  145.8960  140.9273  143.0527 LP  0  0  0  0  0  0  0  0  0  0  0  0  # atno 17321 bound_to 7965
  139.8440  143.7526  152.3180 LP  0  0  0  0  0  0  0  0  0  0  0  0  # atno 17342 bound_to 10162
  139.7685  144.7484  151.0259 LP  0  0  0  0  0  0  0  0  0  0  0  0  # atno 17343 bound_to 10162
  156.4641  130.7966  151.2985 LP  0  0  0  0  0  0  0  0  0  0  0  0  # atno 17370 bound_to 10713
  157.7486  131.0056  150.3121 LP  0  0  0  0  0  0  0  0  0  0  0  0  # atno 17371 bound_to 10713
  141.0638  133.6829  156.2004 LP  0  0  0  0  0  0  0  0  0  0  0  0  # atno 17394 bound_to 11000
  140.6618  134.4959  157.5583 LP  0  0  0  0  0  0  0  0  0  0  0  0  # atno 17395 bound_to 11000

$$$$
