AV-unprocessed.smi:1477|AV-procd|sdf|5981|dock8
  -GOLD-   22720 6 73D 1   1.00000     0.00000
 Structure written by MMmdl.
 33 34  0  0  0  0  0  0  0  0  1 V2000
  154.3298  140.6124  161.9493 C   0  0  0  0  0  0  0  0  0  0  0  0
  153.4442  141.6083  161.3413 N   0  0  0  0  0  0  0  0  0  0  0  0
  152.9958  141.3729  160.0280 C   0  0  0  0  0  0  0  0  0  0  0  0
  152.1822  142.2227  159.3748 C   0  0  0  0  0  0  0  0  0  0  0  0
  151.7988  141.8843  158.0691 N   0  0  0  0  0  0  0  0  0  0  0  0
  152.0281  140.7517  157.3753 C   0  0  0  0  0  0  0  0  0  0  0  0
  152.6374  139.7696  157.7951 O   0  0  0  0  0  0  0  0  0  0  0  0
  151.4855  140.7285  155.9462 C   0  0  0  0  0  0  0  0  0  0  0  0
  150.0866  140.9695  155.9677 O   0  0  0  0  0  0  0  0  0  0  0  0
  149.5075  140.9173  154.6754 C   0  0  0  0  0  0  0  0  0  0  0  0
  148.0098  141.1009  154.7958 C   0  0  0  0  0  0  0  0  0  0  0  0
  147.1176  140.8720  153.5968 C   0  0  0  0  0  0  0  0  0  0  0  0
  147.3156  142.2677  154.1301 C   0  0  0  0  0  0  0  0  0  0  0  0
  151.7681  143.4184  160.0953 C   0  0  0  0  0  0  0  0  0  0  0  0
  152.1929  143.6489  161.3534 C   0  0  0  0  0  0  0  0  0  0  0  0
  153.0822  142.7162  162.0499 C   0  0  0  0  0  0  0  0  0  0  0  0
  153.4765  142.9169  163.1990 O   0  0  0  0  0  0  0  0  0  0  0  0
  154.5733  139.7941  161.2710 H   0  0  0  0  0  0  0  0  0  0  0  0
  153.8628  140.1756  162.8331 H   0  0  0  0  0  0  0  0  0  0  0  0
  155.2713  141.0711  162.2544 H   0  0  0  0  0  0  0  0  0  0  0  0
  153.3577  140.4563  159.5841 H   0  0  0  0  0  0  0  0  0  0  0  0
  151.2684  142.5948  157.5856 H   0  0  0  0  0  0  0  0  0  0  0  0
  151.9968  141.4927  155.3592 H   0  0  0  0  0  0  0  0  0  0  0  0
  151.6945  139.7595  155.4895 H   0  0  0  0  0  0  0  0  0  0  0  0
  149.9263  141.6947  154.0339 H   0  0  0  0  0  0  0  0  0  0  0  0
  149.7086  139.9518  154.2092 H   0  0  0  0  0  0  0  0  0  0  0  0
  147.6028  140.7783  155.7524 H   0  0  0  0  0  0  0  0  0  0  0  0
  147.5933  140.6255  152.6495 H   0  0  0  0  0  0  0  0  0  0  0  0
  146.1539  140.3980  153.7717 H   0  0  0  0  0  0  0  0  0  0  0  0
  146.4840  142.7258  154.6614 H   0  0  0  0  0  0  0  0  0  0  0  0
  147.9225  142.9500  153.5379 H   0  0  0  0  0  0  0  0  0  0  0  0
  151.1103  144.1492  159.6547 H   0  0  0  0  0  0  0  0  0  0  0  0
  151.8676  144.5430  161.8645 H   0  0  0  0  0  0  0  0  0  0  0  0
  1  2  1  0  0  0  0
  1 18  1  0  0  0  0
  1 19  1  0  0  0  0
  1 20  1  0  0  0  0
  2 16  1  0  0  0  0
  2  3  1  0  0  0  0
  3  4  2  0  0  0  0
  3 21  1  0  0  0  0
  4  5  1  0  0  0  0
  4 14  1  0  0  0  0
  5  6  1  0  0  0  0
  5 22  1  0  0  0  0
  6  7  2  0  0  0  0
  6  8  1  0  0  0  0
  8  9  1  0  0  0  0
  8 23  1  0  0  0  0
  8 24  1  0  0  0  0
  9 10  1  0  0  0  0
 10 11  1  0  0  0  0
 10 25  1  0  0  0  0
 10 26  1  0  0  0  0
 11 13  1  0  0  0  0
 11 12  1  0  0  0  0
 11 27  1  0  0  0  0
 12 13  1  0  0  0  0
 12 28  1  0  0  0  0
 12 29  1  0  0  0  0
 13 30  1  0  0  0  0
 13 31  1  0  0  0  0
 14 15  2  0  0  0  0
 14 32  1  0  0  0  0
 15 16  1  0  0  0  0
 15 33  1  0  0  0  0
 16 17  2  0  0  0  0
M  END
> <s_m_source_file>
AV-unprocessed.smi

> <i_m_source_file_index>
1477

> <i_lp_mmshare_version>
43012

> <i_f3d_flags>
0

> <s_epik_input>
Tz1jMVtjSF1bY0hdYyhbY0hdbjFbQ0gzXSlbTkhdQyg9TylbQ0gyXU9bQ0gyXVtDSF0yW0NIMl1bQ0gyXTI=

> <s_epik_cmdline>
J2VwaWtfcHl0aG9uJywgJy1waCcsICc3LjAnLCAnLXRuJywgJzgnLCAnLW1hJywgJzIwMCcsICctbWV0YWxfYmluZGluZycsICctaW1hZScsICc8aW5maWxlLm1hZT4nLCAnLW9tYWUnLCAnPG91dGZpbGUubWFlPic=

> <r_lp_tautomer_probability>
1

> <r_epik_Ionization_Penalty>
2.50647e-06

> <r_epik_Ionization_Penalty_Charging>
2.2009e-06

> <r_epik_Ionization_Penalty_Neutral>
3.05566e-07

> <r_epik_State_Penalty>
-0

> <r_epik_Charging_Adjusted_Penalty>
2.2009e-06

> <i_epik_Tot_Q>
0

> <i_epik_Tot_abs_Q>
0

> <r_epik_Metal_State_Penalty>
-0

> <b_epik_Metal_Only>
0

> <s_lp_Force_Field>
OPLS_2005

> <r_lp_Energy>
27.664

> <b_lp_Chiralities_Consistent>
1

> <s_lp_Variant>
AV-unprocessed.smi:1477-1

> <Gold.Version>
5.8.1

> <Gold.Id.Protein>
6NUR|6NUR_protein|mol2

> <Gold.PLP.Fitness>
43.0750

> <Gold.PLP.PLP>
-40.3597

> <Gold.PLP.part.hbond>
-1.0000

> <Gold.PLP.part.metal>
0.0000

> <Gold.PLP.part.buried>
-3.5741

> <Gold.PLP.part.nonpolar>
-34.3501

> <Gold.PLP.part.repulsive>
0.2175

> <Gold.PLP.ligand.clash>
0.0000

> <Gold.PLP.ligand.torsion>
0.4228

> <Gold.PLP.Chemscore.Hbond>
1.0000

> <Gold.PLP.Chemscore.CHOScore>
0.0000

> <Gold.PLP.Chemscore.Metal>
0.0000

> <Gold.Chemscore.Hbonds>
donor molecule, donor type, donor heavy atom, donor atom, acceptor molecule, acceptor atom, score
      P1  H  7997  8010       L1     7  0.88

> <Gold.PLP.Chemscore.Internal.Correction>
0.5609

> <Gold.Rescore>
     Score         DG    S(hbond)    S(metal)    S(lipo)     H(rot)  DE(clash)    DE(int)     intcor
     12.30     -14.14       0.93        0.00      82.15       1.58       0.02       1.82       ----

> <Gold.Chemscore.Fitness>
12.3033

> <Gold.Chemscore.DG>
-14.1382

> <Gold.Chemscore.ZeroCoef>
-5.4800

> <Gold.Chemscore.Hbond>
0.9282

> <Gold.Chemscore.Metal>
0.0000

> <Gold.Chemscore.Lipo>
82.1509

> <Gold.Chemscore.Internal_Hbond>
0.0000

> <Gold.Chemscore.DEClash>
0.0157

> <Gold.Chemscore.DEInternal>
1.8193

> <Gold.Chemscore.Rot>
1.5834

> <Gold.Chemscore.Internal.Correction>
   9.000000E+99

> <Gold.Chemscore.Hbonds>
donor molecule, donor type, donor heavy atom, donor atom, acceptor molecule, acceptor atom, score
      P1  H  7997  8010       L1     7  0.22

> <Gold.Chemscore.Hbond.Weighted>
-3.1002

> <Gold.Chemscore.Metal.Weighted>
-0.0000

> <Gold.Chemscore.Lipo.Weighted>
-9.6117

> <Gold.Chemscore.Internal_Hbond.Weighted>
0.0000

> <Gold.Chemscore.DEClash.Weighted>
0.0157

> <Gold.Chemscore.DEInternal.Weighted>
1.8193

> <Gold.Chemscore.Rot.Weighted>
4.0536

> <Gold.Chemscore.Internal.Correction.Weighted>
   9.000000E+99

> <Gold.Protein.RotatedTorsions>
[ 6907 6896 6895 6894 ] final  -46.43 input  -60.11 | X-H torsion
[ 7974 7965 7964 7962 ] final   21.61 input  175.53 | X-H torsion
[ 8008 7997 7996 7995 ] final   44.88 input   59.86 | X-H torsion
[ 10167 10162 10161 10158 ] final  -81.96 input  -65.29 | X-H torsion
[ 10718 10713 10712 10709 ] final  125.82 input   66.30 | X-H torsion
[ 10763 10752 10751 10750 ] final  -95.08 input  -60.55 | X-H torsion
[ 11005 11000 10999 10996 ] final  -30.90 input  -57.11 | X-H torsion

> <Gold.Protein.ActiveResidues>
 VAL166  LYS551  ARG553  GLY616  TRP617  ASP618  TYR619  PRO620  LYS621  CYS622 
 ASP623  PHE694  ASN695  SER759  ASP760  ASP761  ALA762  ILE779  LEU786  VAL792 
 PHE793  MET794  SER795  GLU796  ALA797  LYS798  CYS799  TRP800  GLU811  SER814 

> <Gold.Protein.RotatedAtoms>
  150.9114  134.8530  159.7427 H   0  0  0  0  0  0  0  0  0  0  0  0  # atno 6907 bound_to 6896
  152.4946  134.4354  159.9536 H   0  0  0  0  0  0  0  0  0  0  0  0  # atno 6908 bound_to 6896
  151.4396  133.3607  159.2815 H   0  0  0  0  0  0  0  0  0  0  0  0  # atno 6909 bound_to 6896
  146.2064  139.8002  142.8723 H   0  0  0  0  0  0  0  0  0  0  0  0  # atno 7974 bound_to 7965
  155.3267  140.3400  155.4240 H   0  0  0  0  0  0  0  0  0  0  0  0  # atno 8008 bound_to 7997
  156.1882  140.1688  156.8181 H   0  0  0  0  0  0  0  0  0  0  0  0  # atno 8009 bound_to 7997
  154.5411  140.0725  156.8494 H   0  0  0  0  0  0  0  0  0  0  0  0  # atno 8010 bound_to 7997
  140.4364  143.2530  151.8688 H   0  0  0  0  0  0  0  0  0  0  0  0  # atno 10167 bound_to 10162
  157.5471  131.1095  150.8764 H   0  0  0  0  0  0  0  0  0  0  0  0  # atno 10718 bound_to 10713
  154.7115  135.5134  153.8673 H   0  0  0  0  0  0  0  0  0  0  0  0  # atno 10763 bound_to 10752
  153.0784  135.6624  154.0105 H   0  0  0  0  0  0  0  0  0  0  0  0  # atno 10764 bound_to 10752
  153.9946  135.3016  155.3388 H   0  0  0  0  0  0  0  0  0  0  0  0  # atno 10765 bound_to 10752
  140.9422  133.7272  156.1093 H   0  0  0  0  0  0  0  0  0  0  0  0  # atno 11005 bound_to 11000
  145.3304  141.0265  143.3449 LP  0  0  0  0  0  0  0  0  0  0  0  0  # atno 17320 bound_to 7965
  144.8803  139.4914  143.6726 LP  0  0  0  0  0  0  0  0  0  0  0  0  # atno 17321 bound_to 7965
  139.4787  144.5278  151.8710 LP  0  0  0  0  0  0  0  0  0  0  0  0  # atno 17342 bound_to 10162
  140.4369  144.2039  150.5889 LP  0  0  0  0  0  0  0  0  0  0  0  0  # atno 17343 bound_to 10162
  156.9300  130.5346  149.5279 LP  0  0  0  0  0  0  0  0  0  0  0  0  # atno 17370 bound_to 10713
  156.0544  130.5608  150.9061 LP  0  0  0  0  0  0  0  0  0  0  0  0  # atno 17371 bound_to 10713
  140.7718  134.3824  157.5506 LP  0  0  0  0  0  0  0  0  0  0  0  0  # atno 17394 bound_to 11000
  139.8823  134.9027  156.2838 LP  0  0  0  0  0  0  0  0  0  0  0  0  # atno 17395 bound_to 11000

$$$$
