AV-unprocessed.smi:2533|AV-procd|sdf|9972|dock9
  -GOLD-   2272014 23D 1   1.00000     0.00000
 Structure written by MMmdl.
 35 36  0  0  0  0  0  0  0  0  1 V2000
  156.2536  138.3733  165.7665 C   0  0  0  0  0  0  0  0  0  0  0  0
  155.4475  137.3336  165.2316 O   0  0  0  0  0  0  0  0  0  0  0  0
  154.9186  137.5055  163.9698 C   0  0  0  0  0  0  0  0  0  0  0  0
  155.2200  138.6036  163.1254 C   0  0  0  0  0  0  0  0  0  0  0  0
  154.6314  138.7069  161.8506 C   0  0  0  0  0  0  0  0  0  0  0  0
  153.7339  137.7182  161.3968 C   0  0  0  0  0  0  0  0  0  0  0  0
  153.0665  137.8433  160.0341 C   0  0  2  0  0  0  0  0  0  0  0  0
  153.0616  136.6211  159.3250 O   0  0  0  0  0  0  0  0  0  0  0  0
  153.7144  138.9257  159.1411 C   0  0  0  0  0  0  0  0  0  0  0  0
  152.7271  139.8581  158.5781 N   0  0  0  0  0  0  0  0  0  0  0  0
  152.7626  141.1167  159.1539 N   0  0  0  0  0  0  0  0  0  0  0  0
  151.9738  142.0625  158.7567 C   0  0  0  0  0  0  0  0  0  0  0  0
  152.0964  143.4019  159.4402 C   0  0  0  0  0  0  0  0  0  0  0  0
  152.9528  143.3441  160.4605 F   0  0  0  0  0  0  0  0  0  0  0  0
  152.5293  144.3198  158.5754 F   0  0  0  0  0  0  0  0  0  0  0  0
  150.9083  143.7874  159.9062 F   0  0  0  0  0  0  0  0  0  0  0  0
  151.0269  141.7898  157.6888 C   0  0  0  0  0  0  0  0  0  0  0  0
  150.9939  140.5625  157.1276 C   0  0  0  0  0  0  0  0  0  0  0  0
  151.8879  139.4929  157.5637 C   0  0  0  0  0  0  0  0  0  0  0  0
  151.8902  138.3719  157.0562 O   0  0  0  0  0  0  0  0  0  0  0  0
  153.4339  136.6232  162.2324 C   0  0  0  0  0  0  0  0  0  0  0  0
  154.0216  136.5197  163.5073 C   0  0  0  0  0  0  0  0  0  0  0  0
  153.7159  135.4623  164.2968 F   0  0  0  0  0  0  0  0  0  0  0  0
  156.5867  138.0932  166.7659 H   0  0  0  0  0  0  0  0  0  0  0  0
  155.6946  139.3058  165.8556 H   0  0  0  0  0  0  0  0  0  0  0  0
  157.1429  138.5412  165.1579 H   0  0  0  0  0  0  0  0  0  0  0  0
  155.8979  139.3847  163.4343 H   0  0  0  0  0  0  0  0  0  0  0  0
  154.8630  139.5566  161.2250 H   0  0  0  0  0  0  0  0  0  0  0  0
  152.0199  138.1066  160.1927 H   0  0  0  0  0  0  0  0  0  0  0  0
  153.8664  136.5572  158.8338 H   0  0  0  0  0  0  0  0  0  0  0  0
  154.4814  139.4576  159.7068 H   0  0  0  0  0  0  0  0  0  0  0  0
  154.2515  138.4472  158.3201 H   0  0  0  0  0  0  0  0  0  0  0  0
  150.3565  142.5650  157.3485 H   0  0  0  0  0  0  0  0  0  0  0  0
  150.2889  140.3644  156.3337 H   0  0  0  0  0  0  0  0  0  0  0  0
  152.7414  135.8625  161.9030 H   0  0  0  0  0  0  0  0  0  0  0  0
  1  2  1  0  0  0  0
  1 24  1  0  0  0  0
  1 25  1  0  0  0  0
  1 26  1  0  0  0  0
  2  3  1  0  0  0  0
  3 22  1  0  0  0  0
  3  4  2  0  0  0  0
  4  5  1  0  0  0  0
  4 27  1  0  0  0  0
  5  6  2  0  0  0  0
  5 28  1  0  0  0  0
  6  7  1  0  0  0  0
  6 21  1  0  0  0  0
  7  8  1  0  0  0  0
  7  9  1  0  0  0  0
  7 29  1  0  0  0  0
  8 30  1  0  0  0  0
  9 10  1  0  0  0  0
  9 31  1  0  0  0  0
  9 32  1  0  0  0  0
 10 19  1  0  0  0  0
 10 11  1  0  0  0  0
 11 12  2  0  0  0  0
 12 13  1  0  0  0  0
 12 17  1  0  0  0  0
 13 14  1  0  0  0  0
 13 15  1  0  0  0  0
 13 16  1  0  0  0  0
 17 18  2  0  0  0  0
 17 33  1  0  0  0  0
 18 19  1  0  0  0  0
 18 34  1  0  0  0  0
 19 20  2  0  0  0  0
 21 22  2  0  0  0  0
 21 35  1  0  0  0  0
 22 23  1  0  0  0  0
M  END
> <s_m_source_file>
AV-unprocessed.smi

> <i_m_source_file_index>
2533

> <i_lp_mmshare_version>
43012

> <i_f3d_flags>
0

> <s_epik_input>
W0NIM11PYzFbY0hdW2NIXWMoW2NIXWMxRilbQ0BIXShbT0hdKVtDSDJdbjJuYyhDKEYpKEYpRilbY0hdW2NIXWMyPU8=

> <s_epik_cmdline>
J2VwaWtfcHl0aG9uJywgJy1waCcsICc3LjAnLCAnLXRuJywgJzgnLCAnLW1hJywgJzIwMCcsICctbWV0YWxfYmluZGluZycsICctaW1hZScsICc8aW5maWxlLm1hZT4nLCAnLW9tYWUnLCAnPG91dGZpbGUubWFlPic=

> <r_lp_tautomer_probability>
1

> <r_epik_Ionization_Penalty>
5.00966e-08

> <r_epik_Ionization_Penalty_Charging>
3.92872e-09

> <r_epik_Ionization_Penalty_Neutral>
4.61679e-08

> <r_epik_State_Penalty>
-0

> <r_epik_Charging_Adjusted_Penalty>
3.92872e-09

> <i_epik_Tot_Q>
0

> <i_epik_Tot_abs_Q>
0

> <r_epik_Metal_State_Penalty>
-0

> <b_epik_Metal_Only>
0

> <s_lp_Force_Field>
OPLS_2005

> <r_lp_Energy>
31.2936

> <b_lp_Chiralities_Consistent>
1

> <s_lp_Variant>
AV-unprocessed.smi:2533-1

> <Gold.Version>
5.8.1

> <Gold.Id.Protein>
6NUR|6NUR_protein|mol2

> <Gold.PLP.Fitness>
45.3745

> <Gold.PLP.PLP>
-44.9651

> <Gold.PLP.part.hbond>
-1.0000

> <Gold.PLP.part.metal>
0.0000

> <Gold.PLP.part.buried>
-5.0293

> <Gold.PLP.part.nonpolar>
-39.6949

> <Gold.PLP.part.repulsive>
0.0812

> <Gold.PLP.ligand.clash>
0.0000

> <Gold.PLP.ligand.torsion>
1.2998

> <Gold.PLP.Chemscore.Hbond>
0.9913

> <Gold.PLP.Chemscore.CHOScore>
0.0000

> <Gold.PLP.Chemscore.Metal>
0.0000

> <Gold.Chemscore.Hbonds>
donor molecule, donor type, donor heavy atom, donor atom, acceptor molecule, acceptor atom, score
      P1  H  6896  6909       L1     8  1.00

> <Gold.PLP.Chemscore.Internal.Correction>
0.0352

> <Gold.Rescore>
     Score         DG    S(hbond)    S(metal)    S(lipo)     H(rot)  DE(clash)    DE(int)     intcor
     11.81     -13.04       0.98        0.00      91.36       2.50       0.02       1.21       ----

> <Gold.Chemscore.Fitness>
11.8087

> <Gold.Chemscore.DG>
-13.0350

> <Gold.Chemscore.ZeroCoef>
-5.4800

> <Gold.Chemscore.Hbond>
0.9803

> <Gold.Chemscore.Metal>
0.0000

> <Gold.Chemscore.Lipo>
91.3574

> <Gold.Chemscore.Internal_Hbond>
0.0000

> <Gold.Chemscore.DEClash>
0.0191

> <Gold.Chemscore.DEInternal>
1.2072

> <Gold.Chemscore.Rot>
2.5031

> <Gold.Chemscore.Internal.Correction>
   9.000000E+99

> <Gold.Chemscore.Hbonds>
donor molecule, donor type, donor heavy atom, donor atom, acceptor molecule, acceptor atom, score
      P1  H  6896  6909       L1     8  0.90

> <Gold.Chemscore.Hbond.Weighted>
-3.2741

> <Gold.Chemscore.Metal.Weighted>
-0.0000

> <Gold.Chemscore.Lipo.Weighted>
-10.6888

> <Gold.Chemscore.Internal_Hbond.Weighted>
0.0000

> <Gold.Chemscore.DEClash.Weighted>
0.0191

> <Gold.Chemscore.DEInternal.Weighted>
1.2072

> <Gold.Chemscore.Rot.Weighted>
6.4079

> <Gold.Chemscore.Internal.Correction.Weighted>
   9.000000E+99

> <Gold.Protein.RotatedTorsions>
[ 6907 6896 6895 6894 ] final  154.65 input  -60.11 | X-H torsion
[ 7974 7965 7964 7962 ] final  -48.12 input  175.53 | X-H torsion
[ 8008 7997 7996 7995 ] final   73.60 input   59.86 | X-H torsion
[ 10167 10162 10161 10158 ] final   51.83 input  -65.29 | X-H torsion
[ 10718 10713 10712 10709 ] final -129.71 input   66.30 | X-H torsion
[ 10763 10752 10751 10750 ] final -115.62 input  -60.55 | X-H torsion
[ 11005 11000 10999 10996 ] final  -10.46 input  -57.11 | X-H torsion

> <Gold.Protein.ActiveResidues>
 VAL166  LYS551  ARG553  GLY616  TRP617  ASP618  TYR619  PRO620  LYS621  CYS622 
 ASP623  PHE694  ASN695  SER759  ASP760  ASP761  ALA762  ILE779  LEU786  VAL792 
 PHE793  MET794  SER795  GLU796  ALA797  LYS798  CYS799  TRP800  GLU811  SER814 

> <Gold.Protein.RotatedAtoms>
  152.0555  133.4038  159.4394 H   0  0  0  0  0  0  0  0  0  0  0  0  # atno 6907 bound_to 6896
  150.6868  134.3260  159.4816 H   0  0  0  0  0  0  0  0  0  0  0  0  # atno 6908 bound_to 6896
  152.1075  134.9298  160.0618 H   0  0  0  0  0  0  0  0  0  0  0  0  # atno 6909 bound_to 6896
  145.9545  140.7540  142.9488 H   0  0  0  0  0  0  0  0  0  0  0  0  # atno 7974 bound_to 7965
  155.7860  140.3480  155.5323 H   0  0  0  0  0  0  0  0  0  0  0  0  # atno 8008 bound_to 7997
  155.8681  140.0982  157.1589 H   0  0  0  0  0  0  0  0  0  0  0  0  # atno 8009 bound_to 7997
  154.4016  140.1346  156.4031 H   0  0  0  0  0  0  0  0  0  0  0  0  # atno 8010 bound_to 7997
  140.2578  144.3407  150.6327 H   0  0  0  0  0  0  0  0  0  0  0  0  # atno 10167 bound_to 10162
  156.2073  130.6896  151.0609 H   0  0  0  0  0  0  0  0  0  0  0  0  # atno 10718 bound_to 10713
  154.8488  135.4375  154.1692 H   0  0  0  0  0  0  0  0  0  0  0  0  # atno 10763 bound_to 10752
  153.2810  135.6953  153.7392 H   0  0  0  0  0  0  0  0  0  0  0  0  # atno 10764 bound_to 10752
  153.6595  135.3437  155.3098 H   0  0  0  0  0  0  0  0  0  0  0  0  # atno 10765 bound_to 10752
  140.7449  133.8639  155.8998 H   0  0  0  0  0  0  0  0  0  0  0  0  # atno 11005 bound_to 11000
  144.6802  140.2489  143.7334 LP  0  0  0  0  0  0  0  0  0  0  0  0  # atno 17320 bound_to 7965
  145.8126  139.2009  143.1984 LP  0  0  0  0  0  0  0  0  0  0  0  0  # atno 17321 bound_to 7965
  140.5990  143.2167  151.7109 LP  0  0  0  0  0  0  0  0  0  0  0  0  # atno 17342 bound_to 10162
  139.5026  144.3823  152.0364 LP  0  0  0  0  0  0  0  0  0  0  0  0  # atno 17343 bound_to 10162
  157.7019  131.0772  150.6792 LP  0  0  0  0  0  0  0  0  0  0  0  0  # atno 17370 bound_to 10713
  156.6850  130.4578  149.5616 LP  0  0  0  0  0  0  0  0  0  0  0  0  # atno 17371 bound_to 10713
  140.9803  134.1414  157.4500 LP  0  0  0  0  0  0  0  0  0  0  0  0  # atno 17394 bound_to 11000
  139.8798  135.0008  156.6032 LP  0  0  0  0  0  0  0  0  0  0  0  0  # atno 17395 bound_to 11000

$$$$
