AV-unprocessed.smi:828|AV-procd|sdf|3864|dock4
  -GOLD-   22720 1313D 1   1.00000     0.00000
 Structure written by MMmdl.
 34 35  0  0  0  0  0  0  0  0  3 V2000
  149.0921  140.6364  154.5822 C   0  0  0  0  0  0  0  0  0  0  0  0
  149.3971  139.1853  154.7308 C   0  0  0  0  0  0  0  0  0  0  0  0
  148.4700  138.2811  155.0561 N   0  0  0  0  0  0  0  0  0  0  0  0
  148.9940  136.9988  155.1320 N   0  0  0  0  0  0  0  0  0  0  0  0
  150.3042  136.9492  154.8526 C   0  0  0  0  0  0  0  0  0  0  0  0
  151.0014  135.8012  154.8711 N   0  5  0  0  0  0  0  0  0  0  0  0
  150.3581  134.6238  155.0351 C   0  0  0  0  0  0  0  0  0  0  0  0
  150.4858  133.8438  155.9812 O   0  0  0  0  0  0  0  0  0  0  0  0
  149.5191  134.3303  154.0334 N   0  0  0  0  0  0  0  0  0  0  0  0
  148.7197  133.1151  153.9201 C   0  0  0  0  0  0  0  0  0  0  0  0
  147.8616  133.1278  152.6372 C   0  0  2  0  0  0  0  0  0  0  0  0
  146.6218  134.0166  152.7285 C   0  0  0  0  0  0  0  0  0  0  0  0
  145.8096  133.5640  151.5232 C   0  0  0  0  0  0  0  0  0  0  0  0
  146.0578  132.0541  151.4807 C   0  0  0  0  0  0  0  0  0  0  0  0
  147.3722  131.8113  152.1295 N   0  3  2  0  0  0  0  0  0  0  0  0
  147.3139  130.6893  153.0993 C   0  0  0  0  0  0  0  0  0  0  0  0
  151.0058  138.5254  154.4881 S   0  0  0  0  0  0  0  0  0  0  0  0
  148.7002  140.8334  153.5842 H   0  0  0  0  0  0  0  0  0  0  0  0
  149.9952  141.2294  154.7275 H   0  0  0  0  0  0  0  0  0  0  0  0
  148.3502  140.9453  155.3192 H   0  0  0  0  0  0  0  0  0  0  0  0
  149.4383  135.0062  153.2879 H   0  0  0  0  0  0  0  0  0  0  0  0
  149.3450  132.2217  153.9546 H   0  0  0  0  0  0  0  0  0  0  0  0
  148.0684  133.0657  154.7934 H   0  0  0  0  0  0  0  0  0  0  0  0
  148.4794  133.5354  151.8348 H   0  0  0  0  0  0  0  0  0  0  0  0
  146.0731  133.8133  153.6495 H   0  0  0  0  0  0  0  0  0  0  0  0
  146.8603  135.0803  152.7018 H   0  0  0  0  0  0  0  0  0  0  0  0
  144.7524  133.8179  151.6033 H   0  0  0  0  0  0  0  0  0  0  0  0
  146.2002  134.0311  150.6179 H   0  0  0  0  0  0  0  0  0  0  0  0
  145.2609  131.5474  152.0280 H   0  0  0  0  0  0  0  0  0  0  0  0
  146.0493  131.6685  150.4607 H   0  0  0  0  0  0  0  0  0  0  0  0
  146.7005  130.9446  153.9644 H   0  0  0  0  0  0  0  0  0  0  0  0
  148.3042  130.3990  153.4462 H   0  0  0  0  0  0  0  0  0  0  0  0
  146.8779  129.8084  152.6267 H   0  0  0  0  0  0  0  0  0  0  0  0
  148.0199  131.5268  151.4085 H   0  0  0  0  0  0  0  0  0  0  0  0
  1  2  1  0  0  0  0
  1 18  1  0  0  0  0
  1 19  1  0  0  0  0
  1 20  1  0  0  0  0
  2 17  1  0  0  0  0
  2  3  2  0  0  0  0
  3  4  1  0  0  0  0
  4  5  2  0  0  0  0
  5  6  1  0  0  0  0
  5 17  1  0  0  0  0
  6  7  1  0  0  0  0
  7  8  2  0  0  0  0
  7  9  1  0  0  0  0
  9 10  1  0  0  0  0
  9 21  1  0  0  0  0
 10 11  1  0  0  0  0
 10 22  1  0  0  0  0
 10 23  1  0  0  0  0
 11 15  1  0  0  0  0
 11 12  1  0  0  0  0
 11 24  1  0  0  0  0
 12 13  1  0  0  0  0
 12 25  1  0  0  0  0
 12 26  1  0  0  0  0
 13 14  1  0  0  0  0
 13 27  1  0  0  0  0
 13 28  1  0  0  0  0
 14 15  1  0  0  0  0
 14 29  1  0  0  0  0
 14 30  1  0  0  0  0
 15 16  1  0  0  0  0
 15 34  1  0  0  0  0
 16 31  1  0  0  0  0
 16 32  1  0  0  0  0
 16 33  1  0  0  0  0
M  CHG  1   6  -1
M  CHG  1  15   1
M  END
> <s_m_source_file>
AV-unprocessed.smi

> <i_m_source_file_index>
828

> <i_lp_mmshare_version>
43012

> <i_f3d_flags>
0

> <s_epik_input>
W0NIM11jMW5uYyhzMSlbTkhdQyg9TylbTkhdW0NIMl1bQ0BASF0yW0NIMl1bQ0gyXVtDSDJdTjJbQ0gzXQ==

> <s_epik_cmdline>
J2VwaWtfcHl0aG9uJywgJy1waCcsICc3LjAnLCAnLXRuJywgJzgnLCAnLW1hJywgJzIwMCcsICctbWV0YWxfYmluZGluZycsICctaW1hZScsICc8aW5maWxlLm1hZT4nLCAnLW9tYWUnLCAnPG91dGZpbGUubWFlPic=

> <r_lp_tautomer_probability>
1

> <r_epik_Ionization_Penalty>
3.94379

> <r_epik_Ionization_Penalty_Charging>
3.83377

> <r_epik_Ionization_Penalty_Neutral>
0.110023

> <r_epik_State_Penalty>
3.83036

> <r_epik_Charging_Adjusted_Penalty>
7.66413

> <i_epik_Tot_Q>
0

> <i_epik_Tot_abs_Q>
2

> <r_epik_Metal_State_Penalty>
0.575095

> <b_epik_Metal_Only>
1

> <s_lp_Force_Field>
OPLS_2005

> <r_lp_Energy>
28.5427

> <b_lp_Chiralities_Consistent>
1

> <s_lp_Variant>
AV-unprocessed.smi:828-7

> <Gold.Version>
5.8.1

> <Gold.Id.Protein>
6NUR|6NUR_protein|mol2

> <Gold.PLP.Fitness>
37.2892

> <Gold.PLP.PLP>
-28.3459

> <Gold.PLP.part.hbond>
-3.0000

> <Gold.PLP.part.metal>
0.0000

> <Gold.PLP.part.buried>
-3.9671

> <Gold.PLP.part.nonpolar>
-22.4150

> <Gold.PLP.part.repulsive>
0.4180

> <Gold.PLP.ligand.clash>
0.0000

> <Gold.PLP.ligand.torsion>
0.7877

> <Gold.PLP.Chemscore.Hbond>
3.5000

> <Gold.PLP.Chemscore.CHOScore>
0.0000

> <Gold.PLP.Chemscore.Metal>
0.0000

> <Gold.Chemscore.Hbonds>
donor molecule, donor type, donor heavy atom, donor atom, acceptor molecule, acceptor atom, score
      L1  H     9    21       P1  7948  0.50
      L1  H    15    34       P1 10747  1.00
      P1  H 10752 10763       L1     6  2.00

> <Gold.PLP.Chemscore.Internal.Correction>
0.0188

> <Gold.Rescore>
     Score         DG    S(hbond)    S(metal)    S(lipo)     H(rot)  DE(clash)    DE(int)     intcor
     14.40     -15.37       1.94        0.00      57.82       1.31       0.07       0.90       ----

> <Gold.Chemscore.Fitness>
14.3997

> <Gold.Chemscore.DG>
-15.3664

> <Gold.Chemscore.ZeroCoef>
-5.4800

> <Gold.Chemscore.Hbond>
1.9425

> <Gold.Chemscore.Metal>
0.0000

> <Gold.Chemscore.Lipo>
57.8170

> <Gold.Chemscore.Internal_Hbond>
0.0000

> <Gold.Chemscore.DEClash>
0.0678

> <Gold.Chemscore.DEInternal>
0.8989

> <Gold.Chemscore.Rot>
1.3149

> <Gold.Chemscore.Internal.Correction>
   9.000000E+99

> <Gold.Chemscore.Hbonds>
donor molecule, donor type, donor heavy atom, donor atom, acceptor molecule, acceptor atom, score
      L1  H     9    21       P1  7948  0.02
      L1  H    15    34       P1 10747  0.99
      P1  H 10752 10763       L1     6  0.81

> <Gold.Chemscore.Hbond.Weighted>
-6.4880

> <Gold.Chemscore.Metal.Weighted>
-0.0000

> <Gold.Chemscore.Lipo.Weighted>
-6.7646

> <Gold.Chemscore.Internal_Hbond.Weighted>
0.0000

> <Gold.Chemscore.DEClash.Weighted>
0.0678

> <Gold.Chemscore.DEInternal.Weighted>
0.8989

> <Gold.Chemscore.Rot.Weighted>
3.3662

> <Gold.Chemscore.Internal.Correction.Weighted>
   9.000000E+99

> <Gold.Protein.RotatedTorsions>
[ 6907 6896 6895 6894 ] final   12.27 input  -60.11 | X-H torsion
[ 7974 7965 7964 7962 ] final  123.98 input  175.53 | X-H torsion
[ 8008 7997 7996 7995 ] final   31.14 input   59.86 | X-H torsion
[ 10167 10162 10161 10158 ] final   34.95 input  -65.29 | X-H torsion
[ 10718 10713 10712 10709 ] final   -6.18 input   66.30 | X-H torsion
[ 10763 10752 10751 10750 ] final   62.92 input  -60.55 | X-H torsion
[ 11005 11000 10999 10996 ] final   76.28 input  -57.11 | X-H torsion

> <Gold.Protein.ActiveResidues>
 VAL166  LYS551  ARG553  GLY616  TRP617  ASP618  TYR619  PRO620  LYS621  CYS622 
 ASP623  PHE694  ASN695  SER759  ASP760  ASP761  ALA762  ILE779  LEU786  VAL792 
 PHE793  MET794  SER795  GLU796  ALA797  LYS798  CYS799  TRP800  GLU811  SER814 

> <Gold.Protein.RotatedAtoms>
  151.7677  135.0794  160.0354 H   0  0  0  0  0  0  0  0  0  0  0  0  # atno 6907 bound_to 6896
  152.3310  133.5954  159.5818 H   0  0  0  0  0  0  0  0  0  0  0  0  # atno 6908 bound_to 6896
  150.7423  133.9783  159.3610 H   0  0  0  0  0  0  0  0  0  0  0  0  # atno 6909 bound_to 6896
  145.0896  139.3596  143.4867 H   0  0  0  0  0  0  0  0  0  0  0  0  # atno 7974 bound_to 7965
  155.1017  140.3230  155.4545 H   0  0  0  0  0  0  0  0  0  0  0  0  # atno 8008 bound_to 7997
  156.2715  140.2060  156.6089 H   0  0  0  0  0  0  0  0  0  0  0  0  # atno 8009 bound_to 7997
  154.6824  140.0525  157.0267 H   0  0  0  0  0  0  0  0  0  0  0  0  # atno 8010 bound_to 7997
  140.4267  144.1383  150.6154 H   0  0  0  0  0  0  0  0  0  0  0  0  # atno 10167 bound_to 10162
  156.7357  130.5194  149.5835 H   0  0  0  0  0  0  0  0  0  0  0  0  # atno 10718 bound_to 10713
  152.9999  135.5447  154.6270 H   0  0  0  0  0  0  0  0  0  0  0  0  # atno 10763 bound_to 10752
  154.5556  135.2830  155.0969 H   0  0  0  0  0  0  0  0  0  0  0  0  # atno 10764 bound_to 10752
  154.2192  135.6453  153.5192 H   0  0  0  0  0  0  0  0  0  0  0  0  # atno 10765 bound_to 10752
  139.9305  134.7588  156.1376 H   0  0  0  0  0  0  0  0  0  0  0  0  # atno 11005 bound_to 11000
  146.3531  140.0724  142.8622 LP  0  0  0  0  0  0  0  0  0  0  0  0  # atno 17320 bound_to 7965
  145.1081  140.9388  143.4672 LP  0  0  0  0  0  0  0  0  0  0  0  0  # atno 17321 bound_to 7965
  140.4473  143.2501  151.9394 LP  0  0  0  0  0  0  0  0  0  0  0  0  # atno 17342 bound_to 10162
  139.4783  144.5596  151.8259 LP  0  0  0  0  0  0  0  0  0  0  0  0  # atno 17343 bound_to 10162
  156.1498  130.6302  151.0581 LP  0  0  0  0  0  0  0  0  0  0  0  0  # atno 17370 bound_to 10713
  157.6840  131.0830  150.7294 LP  0  0  0  0  0  0  0  0  0  0  0  0  # atno 17371 bound_to 10713
  141.0891  133.6722  156.2501 LP  0  0  0  0  0  0  0  0  0  0  0  0  # atno 17394 bound_to 11000
  140.6215  134.5357  157.5548 LP  0  0  0  0  0  0  0  0  0  0  0  0  # atno 17395 bound_to 11000

$$$$
