AV-unprocessed.smi:2962|AV-procd|sdf|11315|dock5
  -GOLD-   2272016213D 1   1.00000     0.00000
 Structure written by MMmdl.
 36 37  0  0  0  0  0  0  0  0  1 V2000
  152.9150  137.2571  160.9657 C   0  0  0  0  0  0  0  0  0  0  0  0
  152.3054  136.8854  159.7395 O   0  0  0  0  0  0  0  0  0  0  0  0
  151.9277  137.9932  158.9345 C   0  0  0  0  0  0  0  0  0  0  0  0
  153.0369  139.0574  158.8651 C   0  0  0  0  0  0  0  0  0  0  0  0
  152.5085  140.3768  158.5469 N   0  0  0  0  0  0  0  0  0  0  0  0
  151.9255  140.8029  157.3982 C   0  0  0  0  0  0  0  0  0  0  0  0
  151.6882  139.7499  156.0055 S   0  0  0  0  0  0  0  0  0  0  0  0
  149.8956  139.9785  155.7978 C   0  0  2  0  0  0  0  0  0  0  0  0
  149.3083  138.8267  154.9642 C   0  0  0  0  0  0  0  0  0  0  0  0
  149.5683  141.3552  155.2023 C   0  0  0  0  0  0  0  0  0  0  0  0
  149.0838  142.2768  156.0389 N   0  0  0  0  0  0  0  0  0  0  0  0
  149.7418  141.5919  154.0081 O   0  0  0  0  0  0  0  0  0  0  0  0
  151.5365  142.0777  157.3855 N   0  0  0  0  0  0  0  0  0  0  0  0
  151.8980  142.5204  158.6423 C   0  0  0  0  0  0  0  0  0  0  0  0
  151.7511  143.7891  159.2474 C   0  0  0  0  0  0  0  0  0  0  0  0
  152.2042  144.0080  160.5650 C   0  0  0  0  0  0  0  0  0  0  0  0
  152.8087  142.9639  161.2946 C   0  0  0  0  0  0  0  0  0  0  0  0
  152.9638  141.6921  160.7105 C   0  0  0  0  0  0  0  0  0  0  0  0
  152.5094  141.4791  159.3954 C   0  0  0  0  0  0  0  0  0  0  0  0
  153.1401  136.3624  161.5461 H   0  0  0  0  0  0  0  0  0  0  0  0
  152.2654  137.8914  161.5688 H   0  0  0  0  0  0  0  0  0  0  0  0
  153.8519  137.7872  160.7913 H   0  0  0  0  0  0  0  0  0  0  0  0
  151.6349  137.6693  157.9346 H   0  0  0  0  0  0  0  0  0  0  0  0
  151.0374  138.4365  159.3816 H   0  0  0  0  0  0  0  0  0  0  0  0
  153.6019  139.0968  159.7948 H   0  0  0  0  0  0  0  0  0  0  0  0
  153.7560  138.7850  158.0922 H   0  0  0  0  0  0  0  0  0  0  0  0
  149.4281  139.9295  156.7821 H   0  0  0  0  0  0  0  0  0  0  0  0
  148.2332  138.9443  154.8235 H   0  0  0  0  0  0  0  0  0  0  0  0
  149.4685  137.8687  155.4594 H   0  0  0  0  0  0  0  0  0  0  0  0
  149.7716  138.7682  153.9785 H   0  0  0  0  0  0  0  0  0  0  0  0
  148.8320  143.1912  155.6927 H   0  0  0  0  0  0  0  0  0  0  0  0
  148.9503  142.0473  157.0131 H   0  0  0  0  0  0  0  0  0  0  0  0
  151.2899  144.5957  158.6967 H   0  0  0  0  0  0  0  0  0  0  0  0
  152.0879  144.9817  161.0180 H   0  0  0  0  0  0  0  0  0  0  0  0
  153.1537  143.1400  162.3031 H   0  0  0  0  0  0  0  0  0  0  0  0
  153.4274  140.8906  161.2663 H   0  0  0  0  0  0  0  0  0  0  0  0
  1  2  1  0  0  0  0
  1 20  1  0  0  0  0
  1 21  1  0  0  0  0
  1 22  1  0  0  0  0
  2  3  1  0  0  0  0
  3  4  1  0  0  0  0
  3 23  1  0  0  0  0
  3 24  1  0  0  0  0
  4  5  1  0  0  0  0
  4 25  1  0  0  0  0
  4 26  1  0  0  0  0
  5 19  1  0  0  0  0
  5  6  1  0  0  0  0
  6  7  1  0  0  0  0
  6 13  2  0  0  0  0
  7  8  1  0  0  0  0
  8  9  1  0  0  0  0
  8 10  1  0  0  0  0
  8 27  1  0  0  0  0
  9 28  1  0  0  0  0
  9 29  1  0  0  0  0
  9 30  1  0  0  0  0
 10 11  1  0  0  0  0
 10 12  2  0  0  0  0
 11 31  1  0  0  0  0
 11 32  1  0  0  0  0
 13 14  1  0  0  0  0
 14 19  2  0  0  0  0
 14 15  1  0  0  0  0
 15 16  2  0  0  0  0
 15 33  1  0  0  0  0
 16 17  1  0  0  0  0
 16 34  1  0  0  0  0
 17 18  2  0  0  0  0
 17 35  1  0  0  0  0
 18 19  1  0  0  0  0
 18 36  1  0  0  0  0
M  END
> <s_m_source_file>
AV-unprocessed.smi

> <i_m_source_file_index>
2962

> <i_lp_mmshare_version>
43012

> <i_f3d_flags>
0

> <s_epik_input>
W2NIXTFbY0hdW2NIXVtjSF1jKGMxMiluKFtDSDJdW0NIMl1PW0NIM10pYyhuMilTW0NASF0oW0NIM10pQyg9TylbTkgyXQ==

> <s_epik_cmdline>
J2VwaWtfcHl0aG9uJywgJy1waCcsICc3LjAnLCAnLXRuJywgJzgnLCAnLW1hJywgJzIwMCcsICctbWV0YWxfYmluZGluZycsICctaW1hZScsICc8aW5maWxlLm1hZT4nLCAnLW9tYWUnLCAnPG91dGZpbGUubWFlPic=

> <r_epik_Ionization_Penalty>
0.0199986

> <r_epik_Ionization_Penalty_Charging>
0

> <r_epik_Ionization_Penalty_Neutral>
0.0199986

> <r_epik_State_Penalty>
0.0160044

> <r_epik_Charging_Adjusted_Penalty>
0.0160044

> <i_epik_Tot_Q>
0

> <i_epik_Tot_abs_Q>
0

> <r_epik_Metal_State_Penalty>
0.015472

> <b_epik_Metal_Only>
0

> <s_lp_Force_Field>
OPLS_2005

> <r_lp_Energy>
7.16755

> <b_lp_Chiralities_Consistent>
1

> <s_lp_Variant>
AV-unprocessed.smi:2962-1

> <Gold.Version>
5.8.1

> <Gold.Id.Protein>
6NUR|6NUR_protein|mol2

> <Gold.PLP.Fitness>
45.3880

> <Gold.PLP.PLP>
-37.7946

> <Gold.PLP.part.hbond>
-4.0000

> <Gold.PLP.part.metal>
0.0000

> <Gold.PLP.part.buried>
-2.3862

> <Gold.PLP.part.nonpolar>
-30.6172

> <Gold.PLP.part.repulsive>
0.3109

> <Gold.PLP.ligand.clash>
0.0000

> <Gold.PLP.ligand.torsion>
0.7048

> <Gold.PLP.Chemscore.Hbond>
2.9833

> <Gold.PLP.Chemscore.CHOScore>
0.0000

> <Gold.PLP.Chemscore.Metal>
0.0000

> <Gold.Chemscore.Hbonds>
donor molecule, donor type, donor heavy atom, donor atom, acceptor molecule, acceptor atom, score
      L1  H    11    31       P1  8028  0.99
      P1  H  6896  6909       L1     2  1.00
      P1  H  7989  7998       L1    12  0.17
      P1  H  8011  8017       L1    12  0.59

> <Gold.PLP.Chemscore.Internal.Correction>
0.0530

> <Gold.Rescore>
     Score         DG    S(hbond)    S(metal)    S(lipo)     H(rot)  DE(clash)    DE(int)     intcor
     16.62     -19.00       2.61        0.00      95.82       2.50       0.38       2.00       ----

> <Gold.Chemscore.Fitness>
16.6224

> <Gold.Chemscore.DG>
-18.9967

> <Gold.Chemscore.ZeroCoef>
-5.4800

> <Gold.Chemscore.Hbond>
2.6088

> <Gold.Chemscore.Metal>
0.0000

> <Gold.Chemscore.Lipo>
95.8152

> <Gold.Chemscore.Internal_Hbond>
0.0000

> <Gold.Chemscore.DEClash>
0.3760

> <Gold.Chemscore.DEInternal>
1.9983

> <Gold.Chemscore.Rot>
2.5027

> <Gold.Chemscore.Internal.Correction>
   9.000000E+99

> <Gold.Chemscore.Hbonds>
donor molecule, donor type, donor heavy atom, donor atom, acceptor molecule, acceptor atom, score
      L1  H    11    31       P1  8028  0.91
      P1  H  6896  6909       L1     2  0.30
      P1  H  7989  7998       L1    12  0.12
      P1  H  8011  8017       L1    12  0.60

> <Gold.Chemscore.Hbond.Weighted>
-8.7134

> <Gold.Chemscore.Metal.Weighted>
-0.0000

> <Gold.Chemscore.Lipo.Weighted>
-11.2104

> <Gold.Chemscore.Internal_Hbond.Weighted>
0.0000

> <Gold.Chemscore.DEClash.Weighted>
0.3760

> <Gold.Chemscore.DEInternal.Weighted>
1.9983

> <Gold.Chemscore.Rot.Weighted>
6.4070

> <Gold.Chemscore.Internal.Correction.Weighted>
   9.000000E+99

> <Gold.Protein.RotatedTorsions>
[ 6907 6896 6895 6894 ] final  143.57 input  -60.11 | X-H torsion
[ 7974 7965 7964 7962 ] final  -50.00 input  175.53 | X-H torsion
[ 8008 7997 7996 7995 ] final   61.73 input   59.86 | X-H torsion
[ 10167 10162 10161 10158 ] final  122.81 input  -65.29 | X-H torsion
[ 10718 10713 10712 10709 ] final -121.27 input   66.30 | X-H torsion
[ 10763 10752 10751 10750 ] final -108.70 input  -60.55 | X-H torsion
[ 11005 11000 10999 10996 ] final  -52.18 input  -57.11 | X-H torsion

> <Gold.Protein.ActiveResidues>
 VAL166  LYS551  ARG553  GLY616  TRP617  ASP618  TYR619  PRO620  LYS621  CYS622 
 ASP623  PHE694  ASN695  SER759  ASP760  ASP761  ALA762  ILE779  LEU786  VAL792 
 PHE793  MET794  SER795  GLU796  ALA797  LYS798  CYS799  TRP800  GLU811  SER814 

> <Gold.Protein.RotatedAtoms>
  152.2045  133.4866  159.5076 H   0  0  0  0  0  0  0  0  0  0  0  0  # atno 6907 bound_to 6896
  150.6977  134.1547  159.4162 H   0  0  0  0  0  0  0  0  0  0  0  0  # atno 6908 bound_to 6896
  151.9465  135.0189  160.0590 H   0  0  0  0  0  0  0  0  0  0  0  0  # atno 6909 bound_to 6896
  145.9345  140.7719  142.9583 H   0  0  0  0  0  0  0  0  0  0  0  0  # atno 7974 bound_to 7965
  155.6030  140.3494  155.4599 H   0  0  0  0  0  0  0  0  0  0  0  0  # atno 8008 bound_to 7997
  156.0214  140.1254  157.0378 H   0  0  0  0  0  0  0  0  0  0  0  0  # atno 8009 bound_to 7997
  154.4316  140.1062  156.5955 H   0  0  0  0  0  0  0  0  0  0  0  0  # atno 8010 bound_to 7997
  139.5836  144.6997  151.3464 H   0  0  0  0  0  0  0  0  0  0  0  0  # atno 10167 bound_to 10162
  156.1323  130.6405  150.9641 H   0  0  0  0  0  0  0  0  0  0  0  0  # atno 10718 bound_to 10713
  154.8151  135.4628  154.0620 H   0  0  0  0  0  0  0  0  0  0  0  0  # atno 10763 bound_to 10752
  153.2020  135.6870  153.8226 H   0  0  0  0  0  0  0  0  0  0  0  0  # atno 10764 bound_to 10752
  153.7707  135.3270  155.3328 H   0  0  0  0  0  0  0  0  0  0  0  0  # atno 10765 bound_to 10752
  141.0910  133.6633  156.3986 H   0  0  0  0  0  0  0  0  0  0  0  0  # atno 11005 bound_to 11000
  144.6769  140.2181  143.7369 LP  0  0  0  0  0  0  0  0  0  0  0  0  # atno 17320 bound_to 7965
  145.8382  139.2117  143.1843 LP  0  0  0  0  0  0  0  0  0  0  0  0  # atno 17321 bound_to 7965
  140.7111  143.7387  150.7569 LP  0  0  0  0  0  0  0  0  0  0  0  0  # atno 17342 bound_to 10162
  140.0926  143.4863  152.2470 LP  0  0  0  0  0  0  0  0  0  0  0  0  # atno 17343 bound_to 10162
  157.6500  131.0898  150.8071 LP  0  0  0  0  0  0  0  0  0  0  0  0  # atno 17370 bound_to 10713
  156.8155  130.4966  149.5350 LP  0  0  0  0  0  0  0  0  0  0  0  0  # atno 17371 bound_to 10713
  140.5251  134.6267  157.5331 LP  0  0  0  0  0  0  0  0  0  0  0  0  # atno 17394 bound_to 11000
  139.9736  134.7251  155.9992 LP  0  0  0  0  0  0  0  0  0  0  0  0  # atno 17395 bound_to 11000

$$$$
