AV-unprocessed.smi:3234|AV-procd|sdf|12349|dock5
  -GOLD-   2272018213D 1   1.00000     0.00000
 Structure written by MMmdl.
 37 39  0  0  0  0  0  0  0  0  2 V2000
  151.3529  141.1878  156.9120 O   0  0  0  0  0  0  0  0  0  0  0  0
  150.7473  142.2091  156.5896 C   0  0  0  0  0  0  0  0  0  0  0  0
  150.7330  143.3657  157.2755 N   0  0  0  0  0  0  0  0  0  0  0  0
  151.3644  143.6966  158.5068 C   0  0  0  0  0  0  0  0  0  0  0  0
  151.1681  145.0021  159.0033 C   0  0  0  0  0  0  0  0  0  0  0  0
  151.7688  145.3644  160.2252 C   0  0  0  0  0  0  0  0  0  0  0  0
  152.5265  144.5216  160.9572 N   0  0  0  0  0  0  0  0  0  0  0  0
  152.7079  143.2700  160.4861 C   0  0  0  0  0  0  0  0  0  0  0  0
  152.1521  142.8059  159.2767 C   0  0  0  0  0  0  0  0  0  0  0  0
  150.0124  142.3016  155.4719 N   0  0  0  0  0  0  0  0  0  0  0  0
  149.8047  141.2173  154.5171 C   0  0  1  0  0  0  0  0  0  0  0  0
  149.7010  139.8403  155.1728 C   0  0  0  0  0  0  0  0  0  0  0  0
  148.8019  139.0272  154.2254 C   0  0  0  0  0  0  0  0  0  0  0  0
  148.2641  139.9760  153.2222 N   0  3  1  0  0  0  0  0  0  0  0  0
  146.8713  139.7037  152.8092 C   0  0  0  0  0  0  0  0  0  0  0  0
  146.7302  138.4859  151.9277 C   0  0  0  0  0  0  0  0  0  0  0  0
  146.6383  139.8718  151.3268 C   0  0  0  0  0  0  0  0  0  0  0  0
  148.4783  141.3284  153.7647 C   0  0  0  0  0  0  0  0  0  0  0  0
  150.2182  144.1213  156.8479 H   0  0  0  0  0  0  0  0  0  0  0  0
  150.5696  145.7191  158.4605 H   0  0  0  0  0  0  0  0  0  0  0  0
  151.6352  146.3585  160.6256 H   0  0  0  0  0  0  0  0  0  0  0  0
  153.3130  142.6142  161.0944 H   0  0  0  0  0  0  0  0  0  0  0  0
  152.3372  141.7859  158.9809 H   0  0  0  0  0  0  0  0  0  0  0  0
  149.5493  143.1776  155.2776 H   0  0  0  0  0  0  0  0  0  0  0  0
  150.6266  141.2027  153.7982 H   0  0  0  0  0  0  0  0  0  0  0  0
  150.6777  139.3783  155.3210 H   0  0  0  0  0  0  0  0  0  0  0  0
  149.2206  139.9180  156.1496 H   0  0  0  0  0  0  0  0  0  0  0  0
  149.3615  138.2426  153.7156 H   0  0  0  0  0  0  0  0  0  0  0  0
  147.9991  138.5489  154.7886 H   0  0  0  0  0  0  0  0  0  0  0  0
  146.0924  139.9600  153.5253 H   0  0  0  0  0  0  0  0  0  0  0  0
  147.6219  137.9009  151.7095 H   0  0  0  0  0  0  0  0  0  0  0  0
  145.8073  137.9145  152.0048 H   0  0  0  0  0  0  0  0  0  0  0  0
  145.6551  140.2124  151.0081 H   0  0  0  0  0  0  0  0  0  0  0  0
  147.4693  140.2080  150.7091 H   0  0  0  0  0  0  0  0  0  0  0  0
  147.6688  141.5853  154.4509 H   0  0  0  0  0  0  0  0  0  0  0  0
  148.5033  142.0756  152.9707 H   0  0  0  0  0  0  0  0  0  0  0  0
  148.8520  139.8973  152.4045 H   0  0  0  0  0  0  0  0  0  0  0  0
  1  2  2  0  0  0  0
  2  3  1  0  0  0  0
  2 10  1  0  0  0  0
  3  4  1  0  0  0  0
  3 19  1  0  0  0  0
  4  9  1  0  0  0  0
  4  5  2  0  0  0  0
  5  6  1  0  0  0  0
  5 20  1  0  0  0  0
  6  7  2  0  0  0  0
  6 21  1  0  0  0  0
  7  8  1  0  0  0  0
  8  9  2  0  0  0  0
  8 22  1  0  0  0  0
  9 23  1  0  0  0  0
 10 11  1  0  0  0  0
 10 24  1  0  0  0  0
 11 18  1  0  0  0  0
 11 12  1  0  0  0  0
 11 25  1  0  0  0  0
 12 13  1  0  0  0  0
 12 26  1  0  0  0  0
 12 27  1  0  0  0  0
 13 14  1  0  0  0  0
 13 28  1  0  0  0  0
 13 29  1  0  0  0  0
 14 15  1  0  0  0  0
 14 18  1  0  0  0  0
 14 37  1  0  0  0  0
 15 17  1  0  0  0  0
 15 16  1  0  0  0  0
 15 30  1  0  0  0  0
 16 17  1  0  0  0  0
 16 31  1  0  0  0  0
 16 32  1  0  0  0  0
 17 33  1  0  0  0  0
 17 34  1  0  0  0  0
 18 35  1  0  0  0  0
 18 36  1  0  0  0  0
M  CHG  1  14   1
M  END
> <s_m_source_file>
AV-unprocessed.smi

> <i_m_source_file_index>
3234

> <i_lp_mmshare_version>
43012

> <i_f3d_flags>
0

> <s_epik_input>
W2NIXTFbY0hdbltjSF1bY0hdYzFbTkhdQyg9TylbTkhdW0NAQEhdMltDSDJdW0NIMl1OKFtDSDJdMilbQ0hdM1tDSDJdW0NIMl0z

> <s_epik_cmdline>
J2VwaWtfcHl0aG9uJywgJy1waCcsICc3LjAnLCAnLXRuJywgJzgnLCAnLW1hJywgJzIwMCcsICctbWV0YWxfYmluZGluZycsICctaW1hZScsICc8aW5maWxlLm1hZT4nLCAnLW9tYWUnLCAnPG91dGZpbGUubWFlPic=

> <r_epik_Ionization_Penalty>
0.0934328

> <r_epik_Ionization_Penalty_Charging>
0.000606352

> <r_epik_Ionization_Penalty_Neutral>
0.0928265

> <r_epik_State_Penalty>
0.0830811

> <r_epik_Charging_Adjusted_Penalty>
0.0836875

> <i_epik_Tot_Q>
1

> <i_epik_Tot_abs_Q>
1

> <r_epik_Metal_State_Penalty>
0.0724491

> <b_epik_Metal_Only>
0

> <s_lp_Force_Field>
OPLS_2005

> <r_lp_Energy>
41.3186

> <b_lp_Chiralities_Consistent>
1

> <s_lp_Variant>
AV-unprocessed.smi:3234-2

> <Gold.Version>
5.8.1

> <Gold.Id.Protein>
6NUR|6NUR_protein|mol2

> <Gold.PLP.Fitness>
46.1601

> <Gold.PLP.PLP>
-37.9171

> <Gold.PLP.part.hbond>
-3.0000

> <Gold.PLP.part.metal>
0.0000

> <Gold.PLP.part.buried>
1.4919

> <Gold.PLP.part.nonpolar>
-37.4895

> <Gold.PLP.part.repulsive>
0.4310

> <Gold.PLP.ligand.clash>
0.0000

> <Gold.PLP.ligand.torsion>
1.0101

> <Gold.PLP.Chemscore.Hbond>
3.0000

> <Gold.PLP.Chemscore.CHOScore>
0.0000

> <Gold.PLP.Chemscore.Metal>
0.0000

> <Gold.Chemscore.Hbonds>
donor molecule, donor type, donor heavy atom, donor atom, acceptor molecule, acceptor atom, score
      L1  H     3    19       P1  8028  1.00
      L1  H    10    24       P1  8028  1.00
      L1  H    14    37       P1  7957  0.83

> <Gold.PLP.Chemscore.Internal.Correction>
1.2632

> <Gold.Rescore>
     Score         DG    S(hbond)    S(metal)    S(lipo)     H(rot)  DE(clash)    DE(int)     intcor
     19.67     -25.25       2.92        0.00     112.14       1.21       2.13       3.46       ----

> <Gold.Chemscore.Fitness>
19.6685

> <Gold.Chemscore.DG>
-25.2523

> <Gold.Chemscore.ZeroCoef>
-5.4800

> <Gold.Chemscore.Hbond>
2.9195

> <Gold.Chemscore.Metal>
0.0000

> <Gold.Chemscore.Lipo>
112.1441

> <Gold.Chemscore.Internal_Hbond>
0.0000

> <Gold.Chemscore.DEClash>
2.1286

> <Gold.Chemscore.DEInternal>
3.4552

> <Gold.Chemscore.Rot>
1.2108

> <Gold.Chemscore.Internal.Correction>
   9.000000E+99

> <Gold.Chemscore.Hbonds>
donor molecule, donor type, donor heavy atom, donor atom, acceptor molecule, acceptor atom, score
      L1  H     3    19       P1  8028  0.94
      L1  H    10    24       P1  8028  0.99
      L1  H    14    37       P1  7957  0.80

> <Gold.Chemscore.Hbond.Weighted>
-9.7510

> <Gold.Chemscore.Metal.Weighted>
-0.0000

> <Gold.Chemscore.Lipo.Weighted>
-13.1209

> <Gold.Chemscore.Internal_Hbond.Weighted>
0.0000

> <Gold.Chemscore.DEClash.Weighted>
2.1286

> <Gold.Chemscore.DEInternal.Weighted>
3.4552

> <Gold.Chemscore.Rot.Weighted>
3.0996

> <Gold.Chemscore.Internal.Correction.Weighted>
   9.000000E+99

> <Gold.Protein.RotatedTorsions>
[ 6907 6896 6895 6894 ] final  -91.15 input  -60.11 | X-H torsion
[ 7974 7965 7964 7962 ] final  141.76 input  175.53 | X-H torsion
[ 8008 7997 7996 7995 ] final -116.42 input   59.86 | X-H torsion
[ 10167 10162 10161 10158 ] final   68.11 input  -65.29 | X-H torsion
[ 10718 10713 10712 10709 ] final   35.05 input   66.30 | X-H torsion
[ 10763 10752 10751 10750 ] final   11.13 input  -60.55 | X-H torsion
[ 11005 11000 10999 10996 ] final  -48.65 input  -57.11 | X-H torsion

> <Gold.Protein.ActiveResidues>
 VAL166  LYS551  ARG553  GLY616  TRP617  ASP618  TYR619  PRO620  LYS621  CYS622 
 ASP623  PHE694  ASN695  SER759  ASP760  ASP761  ALA762  ILE779  LEU786  VAL792 
 PHE793  MET794  SER795  GLU796  ALA797  LYS798  CYS799  TRP800  GLU811  SER814 

> <Gold.Protein.RotatedAtoms>
  150.6889  134.2322  159.4438 H   0  0  0  0  0  0  0  0  0  0  0  0  # atno 6907 bound_to 6896
  152.0271  134.9787  160.0581 H   0  0  0  0  0  0  0  0  0  0  0  0  # atno 6908 bound_to 6896
  152.1340  133.4390  159.4771 H   0  0  0  0  0  0  0  0  0  0  0  0  # atno 6909 bound_to 6896
  144.9068  139.5347  143.5728 H   0  0  0  0  0  0  0  0  0  0  0  0  # atno 7974 bound_to 7965
  155.0676  140.0393  157.2598 H   0  0  0  0  0  0  0  0  0  0  0  0  # atno 8008 bound_to 7997
  154.7009  140.2673  155.6696 H   0  0  0  0  0  0  0  0  0  0  0  0  # atno 8009 bound_to 7997
  156.2760  140.2741  156.1619 H   0  0  0  0  0  0  0  0  0  0  0  0  # atno 8010 bound_to 7997
  140.0822  144.5061  150.7154 H   0  0  0  0  0  0  0  0  0  0  0  0  # atno 10167 bound_to 10162
  157.3179  130.7433  149.6766 H   0  0  0  0  0  0  0  0  0  0  0  0  # atno 10718 bound_to 10713
  153.1958  135.6849  153.8293 H   0  0  0  0  0  0  0  0  0  0  0  0  # atno 10763 bound_to 10752
  153.7577  135.3214  155.3333 H   0  0  0  0  0  0  0  0  0  0  0  0  # atno 10764 bound_to 10752
  154.8144  135.4696  154.0702 H   0  0  0  0  0  0  0  0  0  0  0  0  # atno 10765 bound_to 10752
  141.0713  133.6678  156.3472 H   0  0  0  0  0  0  0  0  0  0  0  0  # atno 11005 bound_to 11000
  146.3138  139.7842  142.8999 LP  0  0  0  0  0  0  0  0  0  0  0  0  # atno 17320 bound_to 7965
  145.3522  141.0310  143.3332 LP  0  0  0  0  0  0  0  0  0  0  0  0  # atno 17321 bound_to 7965
  140.7072  143.2477  151.4692 LP  0  0  0  0  0  0  0  0  0  0  0  0  # atno 17342 bound_to 10162
  139.5773  144.1790  152.1920 LP  0  0  0  0  0  0  0  0  0  0  0  0  # atno 17343 bound_to 10162
  155.9683  130.4232  150.4550 LP  0  0  0  0  0  0  0  0  0  0  0  0  # atno 17370 bound_to 10713
  157.2561  131.0557  151.2349 LP  0  0  0  0  0  0  0  0  0  0  0  0  # atno 17371 bound_to 10713
  140.5667  134.5881  157.5447 LP  0  0  0  0  0  0  0  0  0  0  0  0  # atno 17394 bound_to 11000
  139.9527  134.7589  156.0412 LP  0  0  0  0  0  0  0  0  0  0  0  0  # atno 17395 bound_to 11000

$$$$
