AV-unprocessed.smi:1388|AV-procd|sdf|5642|dock2
  -GOLD-   22720 5263D 1   1.00000     0.00000
 Structure written by MMmdl.
 46 47  0  0  0  0  0  0  0  0  2 V2000
  143.3911  136.5015  152.3698 C   0  0  0  0  0  0  0  0  0  0  0  0
  144.3708  137.5144  152.0069 N   0  0  0  0  0  0  0  0  0  0  0  0
  145.6109  137.5787  152.5109 C   0  0  0  0  0  0  0  0  0  0  0  0
  146.0426  136.7815  153.3445 O   0  0  0  0  0  0  0  0  0  0  0  0
  146.4870  138.7299  152.0052 C   0  0  0  0  0  0  0  0  0  0  0  0
  147.0412  139.5679  153.1000 N   0  3  2  0  0  0  0  0  0  0  0  0
  147.4265  140.9240  152.6328 C   0  0  0  0  0  0  0  0  0  0  0  0
  147.8642  141.8139  153.8077 C   0  0  0  0  0  0  0  0  0  0  0  0
  149.0171  141.1652  154.5961 C   0  0  1  0  0  0  0  0  0  0  0  0
  149.3752  141.9688  155.7613 N   0  0  0  0  0  0  0  0  0  0  0  0
  150.3216  141.6467  156.6556 C   0  0  0  0  0  0  0  0  0  0  0  0
  151.0043  140.6248  156.5776 O   0  0  0  0  0  0  0  0  0  0  0  0
  150.4133  142.5748  157.6244 N   0  0  0  0  0  0  0  0  0  0  0  0
  151.3050  142.6108  158.7336 C   0  0  0  0  0  0  0  0  0  0  0  0
  151.8328  141.4887  159.2842 N   0  0  0  0  0  0  0  0  0  0  0  0
  152.6756  141.5944  160.3318 C   0  0  0  0  0  0  0  0  0  0  0  0
  153.0468  142.8263  160.8970 C   0  0  0  0  0  0  0  0  0  0  0  0
  152.5093  143.9986  160.3388 C   0  0  0  0  0  0  0  0  0  0  0  0
  151.6264  143.8978  159.2425 C   0  0  0  0  0  0  0  0  0  0  0  0
  151.0436  145.1648  158.6379 C   0  0  0  0  0  0  0  0  0  0  0  0
  148.6022  139.7531  155.0389 C   0  0  0  0  0  0  0  0  0  0  0  0
  148.1526  138.9069  153.8362 C   0  0  0  0  0  0  0  0  0  0  0  0
  142.4558  136.6819  151.8396 H   0  0  0  0  0  0  0  0  0  0  0  0
  143.1853  136.5250  153.4410 H   0  0  0  0  0  0  0  0  0  0  0  0
  143.7466  135.5046  152.1050 H   0  0  0  0  0  0  0  0  0  0  0  0
  144.0856  138.2098  151.3323 H   0  0  0  0  0  0  0  0  0  0  0  0
  147.2960  138.3488  151.3797 H   0  0  0  0  0  0  0  0  0  0  0  0
  145.8538  139.3407  151.3604 H   0  0  0  0  0  0  0  0  0  0  0  0
  148.2317  140.8433  151.9008 H   0  0  0  0  0  0  0  0  0  0  0  0
  146.5825  141.3936  152.1262 H   0  0  0  0  0  0  0  0  0  0  0  0
  148.1654  142.7916  153.4300 H   0  0  0  0  0  0  0  0  0  0  0  0
  147.0133  141.9871  154.4684 H   0  0  0  0  0  0  0  0  0  0  0  0
  149.8898  141.0775  153.9456 H   0  0  0  0  0  0  0  0  0  0  0  0
  148.8610  142.8264  155.9008 H   0  0  0  0  0  0  0  0  0  0  0  0
  149.7729  143.3522  157.5623 H   0  0  0  0  0  0  0  0  0  0  0  0
  153.0650  140.6692  160.7304 H   0  0  0  0  0  0  0  0  0  0  0  0
  153.7252  142.8701  161.7361 H   0  0  0  0  0  0  0  0  0  0  0  0
  152.7737  144.9619  160.7498 H   0  0  0  0  0  0  0  0  0  0  0  0
  151.3997  146.0540  159.1591 H   0  0  0  0  0  0  0  0  0  0  0  0
  149.9551  145.1527  158.7021 H   0  0  0  0  0  0  0  0  0  0  0  0
  151.3293  145.2539  157.5894 H   0  0  0  0  0  0  0  0  0  0  0  0
  149.4330  139.2602  155.5452 H   0  0  0  0  0  0  0  0  0  0  0  0
  147.7888  139.8128  155.7640 H   0  0  0  0  0  0  0  0  0  0  0  0
  147.8391  137.9244  154.1898 H   0  0  0  0  0  0  0  0  0  0  0  0
  148.9927  138.7438  153.1593 H   0  0  0  0  0  0  0  0  0  0  0  0
  146.2876  139.6991  153.7601 H   0  0  0  0  0  0  0  0  0  0  0  0
  1  2  1  0  0  0  0
  1 23  1  0  0  0  0
  1 24  1  0  0  0  0
  1 25  1  0  0  0  0
  2  3  1  0  0  0  0
  2 26  1  0  0  0  0
  3  4  2  0  0  0  0
  3  5  1  0  0  0  0
  5  6  1  0  0  0  0
  5 27  1  0  0  0  0
  5 28  1  0  0  0  0
  6 22  1  0  0  0  0
  6  7  1  0  0  0  0
  6 46  1  0  0  0  0
  7  8  1  0  0  0  0
  7 29  1  0  0  0  0
  7 30  1  0  0  0  0
  8  9  1  0  0  0  0
  8 31  1  0  0  0  0
  8 32  1  0  0  0  0
  9 10  1  0  0  0  0
  9 21  1  0  0  0  0
  9 33  1  0  0  0  0
 10 11  1  0  0  0  0
 10 34  1  0  0  0  0
 11 12  2  0  0  0  0
 11 13  1  0  0  0  0
 13 14  1  0  0  0  0
 13 35  1  0  0  0  0
 14 19  1  0  0  0  0
 14 15  2  0  0  0  0
 15 16  1  0  0  0  0
 16 17  2  0  0  0  0
 16 36  1  0  0  0  0
 17 18  1  0  0  0  0
 17 37  1  0  0  0  0
 18 19  2  0  0  0  0
 18 38  1  0  0  0  0
 19 20  1  0  0  0  0
 20 39  1  0  0  0  0
 20 40  1  0  0  0  0
 20 41  1  0  0  0  0
 21 22  1  0  0  0  0
 21 42  1  0  0  0  0
 21 43  1  0  0  0  0
 22 44  1  0  0  0  0
 22 45  1  0  0  0  0
M  CHG  1   6   1
M  END
> <s_m_source_file>
AV-unprocessed.smi

> <i_m_source_file_index>
1388

> <i_lp_mmshare_version>
43012

> <i_f3d_flags>
0

> <s_epik_input>
W0NIM11bTkhdQyg9TylbQ0gyXU4xW0NIMl1bQ0gyXVtDSF0oW0NIMl1bQ0gyXTEpW05IXUMoPU8pW05IXWMybltjSF1bY0hdW2NIXWMyW0NIM10=

> <s_epik_cmdline>
J2VwaWtfcHl0aG9uJywgJy1waCcsICc3LjAnLCAnLXRuJywgJzgnLCAnLW1hJywgJzIwMCcsICctbWV0YWxfYmluZGluZycsICctaW1hZScsICc8aW5maWxlLm1hZT4nLCAnLW9tYWUnLCAnPG91dGZpbGUubWFlPic=

> <r_epik_Ionization_Penalty>
0.83891

> <r_epik_Ionization_Penalty_Charging>
0.838844

> <r_epik_Ionization_Penalty_Neutral>
6.58477e-05

> <r_epik_State_Penalty>
0.8734

> <r_epik_Charging_Adjusted_Penalty>
1.71224

> <i_epik_Tot_Q>
1

> <i_epik_Tot_abs_Q>
1

> <r_epik_Metal_State_Penalty>
0.877924

> <b_epik_Metal_Only>
0

> <s_lp_Force_Field>
OPLS_2005

> <r_lp_Energy>
15.763

> <b_lp_Chiralities_Consistent>
1

> <s_lp_Variant>
AV-unprocessed.smi:1388-2

> <Gold.Version>
5.8.1

> <Gold.Id.Protein>
6NUR|6NUR_protein|mol2

> <Gold.PLP.Fitness>
46.8613

> <Gold.PLP.PLP>
-42.0285

> <Gold.PLP.part.hbond>
-3.1789

> <Gold.PLP.part.metal>
0.0000

> <Gold.PLP.part.buried>
-4.8079

> <Gold.PLP.part.nonpolar>
-34.2106

> <Gold.PLP.part.repulsive>
0.3545

> <Gold.PLP.ligand.clash>
0.0000

> <Gold.PLP.ligand.torsion>
0.3602

> <Gold.PLP.Chemscore.Hbond>
1.8320

> <Gold.PLP.Chemscore.CHOScore>
0.0000

> <Gold.PLP.Chemscore.Metal>
0.0000

> <Gold.Chemscore.Hbonds>
donor molecule, donor type, donor heavy atom, donor atom, acceptor molecule, acceptor atom, score
      L1  H     2    26       P1 10171  0.98
      L1  H    10    34       P1  8028  0.91

> <Gold.PLP.Chemscore.Internal.Correction>
0.0572

> <Gold.Rescore>
     Score         DG    S(hbond)    S(metal)    S(lipo)     H(rot)  DE(clash)    DE(int)     intcor
     13.97     -19.20       1.85        0.00     101.30       1.69       1.16       4.07       ----

> <Gold.Chemscore.Fitness>
13.9735

> <Gold.Chemscore.DG>
-19.1996

> <Gold.Chemscore.ZeroCoef>
-5.4800

> <Gold.Chemscore.Hbond>
1.8509

> <Gold.Chemscore.Metal>
0.0000

> <Gold.Chemscore.Lipo>
101.2966

> <Gold.Chemscore.Internal_Hbond>
0.0000

> <Gold.Chemscore.DEClash>
1.1565

> <Gold.Chemscore.DEInternal>
4.0696

> <Gold.Chemscore.Rot>
1.6853

> <Gold.Chemscore.Internal.Correction>
   9.000000E+99

> <Gold.Chemscore.Hbonds>
donor molecule, donor type, donor heavy atom, donor atom, acceptor molecule, acceptor atom, score
      L1  H     2    26       P1 10171  0.91
      L1  H    10    34       P1  8028  0.88
      L1  H    13    35       P1  8028  0.01

> <Gold.Chemscore.Hbond.Weighted>
-6.1821

> <Gold.Chemscore.Metal.Weighted>
-0.0000

> <Gold.Chemscore.Lipo.Weighted>
-11.8517

> <Gold.Chemscore.Internal_Hbond.Weighted>
0.0000

> <Gold.Chemscore.DEClash.Weighted>
1.1565

> <Gold.Chemscore.DEInternal.Weighted>
4.0696

> <Gold.Chemscore.Rot.Weighted>
4.3143

> <Gold.Chemscore.Internal.Correction.Weighted>
   9.000000E+99

> <Gold.Protein.RotatedTorsions>
[ 6907 6896 6895 6894 ] final -164.42 input  -60.11 | X-H torsion
[ 7974 7965 7964 7962 ] final   81.74 input  175.53 | X-H torsion
[ 8008 7997 7996 7995 ] final -149.68 input   59.86 | X-H torsion
[ 10167 10162 10161 10158 ] final  161.35 input  -65.29 | X-H torsion
[ 10718 10713 10712 10709 ] final  -20.10 input   66.30 | X-H torsion
[ 10763 10752 10751 10750 ] final -155.14 input  -60.55 | X-H torsion
[ 11005 11000 10999 10996 ] final   85.44 input  -57.11 | X-H torsion

> <Gold.Protein.ActiveResidues>
 VAL166  LYS551  ARG553  GLY616  TRP617  ASP618  TYR619  PRO620  LYS621  CYS622 
 ASP623  PHE694  ASN695  SER759  ASP760  ASP761  ALA762  ILE779  LEU786  VAL792 
 PHE793  MET794  SER795  GLU796  ALA797  LYS798  CYS799  TRP800  GLU811  SER814 

> <Gold.Protein.RotatedAtoms>
  151.4115  133.3726  159.2744 H   0  0  0  0  0  0  0  0  0  0  0  0  # atno 6907 bound_to 6896
  150.9359  134.8773  159.7592 H   0  0  0  0  0  0  0  0  0  0  0  0  # atno 6908 bound_to 6896
  152.5050  134.4063  159.9485 H   0  0  0  0  0  0  0  0  0  0  0  0  # atno 6909 bound_to 6896
  145.6342  139.2411  143.2067 H   0  0  0  0  0  0  0  0  0  0  0  0  # atno 7974 bound_to 7965
  155.6115  140.0672  157.2704 H   0  0  0  0  0  0  0  0  0  0  0  0  # atno 8008 bound_to 7997
  154.4252  140.1800  156.1325 H   0  0  0  0  0  0  0  0  0  0  0  0  # atno 8009 bound_to 7997
  156.0081  140.3329  155.6916 H   0  0  0  0  0  0  0  0  0  0  0  0  # atno 8010 bound_to 7997
  139.4848  144.4545  151.8786 H   0  0  0  0  0  0  0  0  0  0  0  0  # atno 10167 bound_to 10162
  156.5366  130.4668  149.6520 H   0  0  0  0  0  0  0  0  0  0  0  0  # atno 10718 bound_to 10713
  154.7808  135.3174  154.7993 H   0  0  0  0  0  0  0  0  0  0  0  0  # atno 10763 bound_to 10752
  153.8705  135.6844  153.4779 H   0  0  0  0  0  0  0  0  0  0  0  0  # atno 10764 bound_to 10752
  153.1444  135.4725  154.9482 H   0  0  0  0  0  0  0  0  0  0  0  0  # atno 10765 bound_to 10752
  139.8971  134.8286  156.2582 H   0  0  0  0  0  0  0  0  0  0  0  0  # atno 11005 bound_to 11000
  146.1332  140.7158  142.9402 LP  0  0  0  0  0  0  0  0  0  0  0  0  # atno 17320 bound_to 7965
  144.7182  140.4282  143.7028 LP  0  0  0  0  0  0  0  0  0  0  0  0  # atno 17321 bound_to 7965
  140.4004  144.2501  150.5893 LP  0  0  0  0  0  0  0  0  0  0  0  0  # atno 17342 bound_to 10162
  140.5063  143.2303  151.8604 LP  0  0  0  0  0  0  0  0  0  0  0  0  # atno 17343 bound_to 10162
  156.3010  130.7177  151.2049 LP  0  0  0  0  0  0  0  0  0  0  0  0  # atno 17370 bound_to 10713
  157.7413  131.0506  150.5109 LP  0  0  0  0  0  0  0  0  0  0  0  0  # atno 17371 bound_to 10713
  141.0180  133.7058  156.1220 LP  0  0  0  0  0  0  0  0  0  0  0  0  # atno 17394 bound_to 11000
  140.7275  134.4291  157.5569 LP  0  0  0  0  0  0  0  0  0  0  0  0  # atno 17395 bound_to 11000

$$$$
