AV-unprocessed.smi:102|AV-procd|sdf|970|dock5
  -GOLD-   2262017523D 1   1.00000     0.00000
 Structure written by MMmdl.
 43 44  0  0  0  0  0  0  0  0  2 V2000
  147.7408  135.7504  162.5425 C   0  0  0  0  0  0  0  0  0  0  0  0
  147.5359  136.2955  161.1353 C   0  0  0  0  0  0  0  0  0  0  0  0
  146.6605  137.1257  160.8896 O   0  0  0  0  0  0  0  0  0  0  0  0
  148.4034  135.7694  160.2517 O   0  0  0  0  0  0  0  0  0  0  0  0
  148.2184  135.9668  158.8565 C   0  0  0  0  0  0  0  0  0  0  0  0
  148.5715  137.4067  158.4520 C   0  0  1  0  0  0  0  0  0  0  0  0
  149.6370  137.8981  159.2484 O   0  0  0  0  0  0  0  0  0  0  0  0
  150.2265  138.9714  158.5886 C   0  0  1  0  0  0  0  0  0  0  0  0
  151.6813  139.0560  158.9944 N   0  0  0  0  0  0  0  0  0  0  0  0
  152.2549  140.2724  159.3249 C   0  0  0  0  0  0  0  0  0  0  0  0
  153.5454  140.3535  159.7080 C   0  0  0  0  0  0  0  0  0  0  0  0
  154.0760  141.5472  160.0247 F   0  0  0  0  0  0  0  0  0  0  0  0
  154.3557  139.1387  159.7813 C   0  0  0  0  0  0  0  0  0  0  0  0
  155.5350  139.2201  160.1214 O   0  0  0  0  0  0  0  0  0  0  0  0
  153.7576  137.9524  159.4678 N   0  5  0  0  0  0  0  0  0  0  0  0
  152.4494  137.8644  159.0873 C   0  0  0  0  0  0  0  0  0  0  0  0
  151.8923  136.7974  158.8280 O   0  0  0  0  0  0  0  0  0  0  0  0
  150.0272  138.7463  157.0752 C   0  0  1  0  0  0  0  0  0  0  0  0
  151.2547  138.4971  156.3970 O   0  0  0  0  0  0  0  0  0  0  0  0
  151.6056  139.2370  155.3336 C   0  0  0  0  0  0  0  0  0  0  0  0
  152.9405  138.8029  154.7440 C   0  0  0  0  0  0  0  0  0  0  0  0
  150.9584  140.1655  154.8489 O   0  0  0  0  0  0  0  0  0  0  0  0
  149.1285  137.5150  157.0303 C   0  0  2  0  0  0  0  0  0  0  0  0
  148.0921  137.7297  156.0806 O   0  0  0  0  0  0  0  0  0  0  0  0
  147.3581  138.8545  156.1135 C   0  0  0  0  0  0  0  0  0  0  0  0
  146.3001  138.8878  155.0189 C   0  0  0  0  0  0  0  0  0  0  0  0
  147.4839  139.7820  156.9129 O   0  0  0  0  0  0  0  0  0  0  0  0
  148.6980  136.0853  162.9424 H   0  0  0  0  0  0  0  0  0  0  0  0
  147.7307  134.6603  162.5326 H   0  0  0  0  0  0  0  0  0  0  0  0
  146.9486  136.0966  163.2066 H   0  0  0  0  0  0  0  0  0  0  0  0
  148.7782  135.2412  158.2641 H   0  0  0  0  0  0  0  0  0  0  0  0
  147.1639  135.7854  158.6499 H   0  0  0  0  0  0  0  0  0  0  0  0
  147.7104  138.0678  158.5671 H   0  0  0  0  0  0  0  0  0  0  0  0
  149.7491  139.8851  158.9467 H   0  0  0  0  0  0  0  0  0  0  0  0
  151.6660  141.1768  159.2862 H   0  0  0  0  0  0  0  0  0  0  0  0
  149.5254  139.6315  156.6800 H   0  0  0  0  0  0  0  0  0  0  0  0
  153.7414  138.9645  155.4657 H   0  0  0  0  0  0  0  0  0  0  0  0
  153.1660  139.3729  153.8425 H   0  0  0  0  0  0  0  0  0  0  0  0
  152.9143  137.7441  154.4863 H   0  0  0  0  0  0  0  0  0  0  0  0
  149.7369  136.6375  156.8035 H   0  0  0  0  0  0  0  0  0  0  0  0
  145.4446  138.2752  155.3038 H   0  0  0  0  0  0  0  0  0  0  0  0
  146.7060  138.5041  154.0826 H   0  0  0  0  0  0  0  0  0  0  0  0
  145.9554  139.9083  154.8523 H   0  0  0  0  0  0  0  0  0  0  0  0
  1  2  1  0  0  0  0
  1 28  1  0  0  0  0
  1 29  1  0  0  0  0
  1 30  1  0  0  0  0
  2  3  2  0  0  0  0
  2  4  1  0  0  0  0
  4  5  1  0  0  0  0
  5  6  1  0  0  0  0
  5 31  1  0  0  0  0
  5 32  1  0  0  0  0
  6 23  1  0  0  0  0
  6  7  1  0  0  0  0
  6 33  1  0  0  0  0
  7  8  1  0  0  0  0
  8  9  1  0  0  0  0
  8 18  1  0  0  0  0
  8 34  1  0  0  0  0
  9 16  1  0  0  0  0
  9 10  1  0  0  0  0
 10 11  2  0  0  0  0
 10 35  1  0  0  0  0
 11 12  1  0  0  0  0
 11 13  1  0  0  0  0
 13 14  2  0  0  0  0
 13 15  1  0  0  0  0
 15 16  1  0  0  0  0
 16 17  2  0  0  0  0
 18 19  1  0  0  0  0
 18 23  1  0  0  0  0
 18 36  1  0  0  0  0
 19 20  1  0  0  0  0
 20 21  1  0  0  0  0
 20 22  2  0  0  0  0
 21 37  1  0  0  0  0
 21 38  1  0  0  0  0
 21 39  1  0  0  0  0
 23 24  1  0  0  0  0
 23 40  1  0  0  0  0
 24 25  1  0  0  0  0
 25 26  1  0  0  0  0
 25 27  2  0  0  0  0
 26 41  1  0  0  0  0
 26 42  1  0  0  0  0
 26 43  1  0  0  0  0
M  CHG  1  15  -1
M  END
> <s_m_source_file>
AV-unprocessed.smi

> <i_m_source_file_index>
102

> <i_lp_mmshare_version>
43012

> <i_f3d_flags>
0

> <s_epik_input>
W0NIM11DKD1PKU9bQ0gyXVtDQEBIXTFPW0NASF0oW0NAQEhdKE9DKD1PKVtDSDNdKVtDQEhdMU9DKD1PKVtDSDNdKW4yW2NIXWMoRiljKD1PKVtuSF1jMj1P

> <s_epik_cmdline>
J2VwaWtfcHl0aG9uJywgJy1waCcsICc3LjAnLCAnLXRuJywgJzgnLCAnLW1hJywgJzIwMCcsICctbWV0YWxfYmluZGluZycsICctaW1hZScsICc8aW5maWxlLm1hZT4nLCAnLW9tYWUnLCAnPG91dGZpbGUubWFlPic=

> <r_epik_Ionization_Penalty>
1.40304

> <r_epik_Ionization_Penalty_Charging>
1.43915e-08

> <r_epik_Ionization_Penalty_Neutral>
1.40304

> <r_epik_State_Penalty>
1.48536

> <r_epik_Charging_Adjusted_Penalty>
1.48536

> <i_epik_Tot_Q>
-1

> <i_epik_Tot_abs_Q>
1

> <r_epik_Metal_State_Penalty>
0.00663881

> <b_epik_Metal_Only>
0

> <s_epik_Chemistry_Notes>
This compound has an ester and may undergo hydrolysis at high or low pH. This compound contains an acetal/aminal-like group ( X-CH(R)-Y where X, Y are N, S, or O) that may be acid/base labile, releasing an aldehyde.

> <s_lp_Force_Field>
OPLS_2005

> <r_lp_Energy>
20.3433

> <b_lp_Chiralities_Consistent>
1

> <s_lp_Variant>
AV-unprocessed.smi:102-26

> <Gold.Version>
5.8.1

> <Gold.Id.Protein>
6NUR|6NUR_protein|mol2

> <Gold.PLP.Fitness>
41.2894

> <Gold.PLP.PLP>
-35.7791

> <Gold.PLP.part.hbond>
-4.0000

> <Gold.PLP.part.metal>
0.0000

> <Gold.PLP.part.buried>
-6.5652

> <Gold.PLP.part.nonpolar>
-25.3704

> <Gold.PLP.part.repulsive>
0.0816

> <Gold.PLP.ligand.clash>
0.0000

> <Gold.PLP.ligand.torsion>
1.6944

> <Gold.PLP.Chemscore.Hbond>
2.9120

> <Gold.PLP.Chemscore.CHOScore>
0.0000

> <Gold.PLP.Chemscore.Metal>
0.0000

> <Gold.Chemscore.Hbonds>
donor molecule, donor type, donor heavy atom, donor atom, acceptor molecule, acceptor atom, score
      P1  H  6896  6909       L1    17  0.85
      P1  H  6934  6947       L1     3  1.00
      P1  H  7989  7998       L1    22  1.00

> <Gold.PLP.Chemscore.Internal.Correction>
0.1630

> <Gold.Rescore>
     Score         DG    S(hbond)    S(metal)    S(lipo)     H(rot)  DE(clash)    DE(int)     intcor
      4.47     -10.14       2.89        0.00      44.74       4.00       0.00       5.66       ----

> <Gold.Chemscore.Fitness>
4.4744

> <Gold.Chemscore.DG>
-10.1353

> <Gold.Chemscore.ZeroCoef>
-5.4800

> <Gold.Chemscore.Hbond>
2.8886

> <Gold.Chemscore.Metal>
0.0000

> <Gold.Chemscore.Lipo>
44.7427

> <Gold.Chemscore.Internal_Hbond>
0.0000

> <Gold.Chemscore.DEClash>
0.0015

> <Gold.Chemscore.DEInternal>
5.6594

> <Gold.Chemscore.Rot>
3.9951

> <Gold.Chemscore.Internal.Correction>
   9.000000E+99

> <Gold.Chemscore.Hbonds>
donor molecule, donor type, donor heavy atom, donor atom, acceptor molecule, acceptor atom, score
      P1  H  6896  6909       L1    17  0.79
      P1  H  6934  6947       L1     3  0.94
      P1  H  7989  7998       L1    22  0.90

> <Gold.Chemscore.Hbond.Weighted>
-9.6478

> <Gold.Chemscore.Metal.Weighted>
-0.0000

> <Gold.Chemscore.Lipo.Weighted>
-5.2349

> <Gold.Chemscore.Internal_Hbond.Weighted>
0.0000

> <Gold.Chemscore.DEClash.Weighted>
0.0015

> <Gold.Chemscore.DEInternal.Weighted>
5.6594

> <Gold.Chemscore.Rot.Weighted>
10.2274

> <Gold.Chemscore.Internal.Correction.Weighted>
   9.000000E+99

> <Gold.Protein.RotatedTorsions>
[ 6907 6896 6895 6894 ] final  116.35 input  -60.11 | X-H torsion
[ 7974 7965 7964 7962 ] final  -77.89 input  175.53 | X-H torsion
[ 8008 7997 7996 7995 ] final -156.59 input   59.86 | X-H torsion
[ 10167 10162 10161 10158 ] final   50.74 input  -65.29 | X-H torsion
[ 10718 10713 10712 10709 ] final  161.00 input   66.30 | X-H torsion
[ 10763 10752 10751 10750 ] final -123.60 input  -60.55 | X-H torsion
[ 11005 11000 10999 10996 ] final -127.02 input  -57.11 | X-H torsion

> <Gold.Protein.ActiveResidues>
 VAL166  LYS551  ARG553  GLY616  TRP617  ASP618  TYR619  PRO620  LYS621  CYS622 
 ASP623  PHE694  ASN695  SER759  ASP760  ASP761  ALA762  ILE779  LEU786  VAL792 
 PHE793  MET794  SER795  GLU796  ALA797  LYS798  CYS799  TRP800  GLU811  SER814 

> <Gold.Protein.RotatedAtoms>
  152.4684  133.7973  159.6933 H   0  0  0  0  0  0  0  0  0  0  0  0  # atno 6907 bound_to 6896
  150.8660  133.7565  159.2983 H   0  0  0  0  0  0  0  0  0  0  0  0  # atno 6908 bound_to 6896
  151.5115  135.1068  159.9907 H   0  0  0  0  0  0  0  0  0  0  0  0  # atno 6909 bound_to 6896
  145.5937  140.9424  143.1278 H   0  0  0  0  0  0  0  0  0  0  0  0  # atno 7974 bound_to 7965
  155.7196  140.0788  157.2336 H   0  0  0  0  0  0  0  0  0  0  0  0  # atno 8008 bound_to 7997
  154.4047  140.1615  156.2441 H   0  0  0  0  0  0  0  0  0  0  0  0  # atno 8009 bound_to 7997
  155.9209  140.3398  155.6175 H   0  0  0  0  0  0  0  0  0  0  0  0  # atno 8010 bound_to 7997
  140.2692  144.3285  150.6295 H   0  0  0  0  0  0  0  0  0  0  0  0  # atno 10167 bound_to 10162
  157.1426  131.0544  151.2319 H   0  0  0  0  0  0  0  0  0  0  0  0  # atno 10718 bound_to 10713
  154.8710  135.4092  154.2970 H   0  0  0  0  0  0  0  0  0  0  0  0  # atno 10763 bound_to 10752
  153.3836  135.7012  153.6552 H   0  0  0  0  0  0  0  0  0  0  0  0  # atno 10764 bound_to 10752
  153.5364  135.3657  155.2670 H   0  0  0  0  0  0  0  0  0  0  0  0  # atno 10765 bound_to 10752
  140.9634  134.0905  157.3945 H   0  0  0  0  0  0  0  0  0  0  0  0  # atno 11005 bound_to 11000
  144.7340  139.7641  143.7336 LP  0  0  0  0  0  0  0  0  0  0  0  0  # atno 17320 bound_to 7965
  146.1627  139.4748  142.9978 LP  0  0  0  0  0  0  0  0  0  0  0  0  # atno 17321 bound_to 7965
  140.5903  143.2168  151.7265 LP  0  0  0  0  0  0  0  0  0  0  0  0  # atno 17342 bound_to 10162
  139.4994  144.3948  152.0242 LP  0  0  0  0  0  0  0  0  0  0  0  0  # atno 17343 bound_to 10162
  157.4293  130.7481  149.6977 LP  0  0  0  0  0  0  0  0  0  0  0  0  # atno 17370 bound_to 10713
  155.9785  130.4050  150.3642 LP  0  0  0  0  0  0  0  0  0  0  0  0  # atno 17371 bound_to 10713
  139.8886  135.0099  156.6629 LP  0  0  0  0  0  0  0  0  0  0  0  0  # atno 17394 bound_to 11000
  140.7435  133.8958  155.8295 LP  0  0  0  0  0  0  0  0  0  0  0  0  # atno 17395 bound_to 11000

$$$$
