AV-unprocessed.smi:1005|AV-procd|sdf|4370|dock4
  -GOLD-   22720 2283D 1   1.00000     0.00000
 Structure written by MMmdl.
 57 59  0  0  0  0  0  0  0  0  3 V2000
  153.1502  141.9756  159.1267 C   0  0  0  0  0  0  0  0  0  0  0  0
  152.1700  141.7756  157.9843 C   0  0  0  0  0  0  0  0  0  0  0  0
  152.1609  140.5420  157.2949 C   0  0  0  0  0  0  0  0  0  0  0  0
  151.2651  140.3149  156.2273 C   0  0  0  0  0  0  0  0  0  0  0  0
  151.0752  139.1972  155.4331 N   0  0  0  0  0  0  0  0  0  0  0  0
  150.0933  139.5992  154.6313 C   0  0  0  0  0  0  0  0  0  0  0  0
  149.6182  140.8455  154.8173 N   0  0  0  0  0  0  0  0  0  0  0  0
  148.5389  141.4876  154.0878 C   0  0  0  0  0  0  0  0  0  0  0  0
  147.2204  140.6867  154.1448 C   0  0  2  0  0  0  0  0  0  0  0  0
  146.4938  140.9713  152.9667 O   0  0  0  0  0  0  0  0  0  0  0  0
  146.3483  141.0326  155.3725 C   0  0  0  0  0  0  0  0  0  0  0  0
  144.9919  141.5365  155.0270 N   0  3  1  0  0  0  0  0  0  0  0  0
  143.9219  141.1825  155.9953 C   0  0  0  0  0  0  0  0  0  0  0  0
  143.9849  142.0629  157.2587 C   0  0  0  0  0  0  0  0  0  0  0  0
  143.9604  143.4383  156.8915 O   0  0  0  0  0  0  0  0  0  0  0  0
  145.0633  143.8065  156.0708 C   0  0  2  0  0  0  0  0  0  0  0  0
  144.9910  145.3290  155.8426 C   0  0  0  0  0  0  0  0  0  0  0  0
  145.4995  146.1258  156.9903 N   0  3  0  0  0  0  0  0  0  0  0  0
  145.1196  147.5520  156.8820 C   0  0  0  0  0  0  0  0  0  0  0  0
  145.1306  145.5670  158.3127 C   0  0  0  0  0  0  0  0  0  0  0  0
  144.9740  142.9956  154.7572 C   0  0  0  0  0  0  0  0  0  0  0  0
  150.3746  141.3663  155.8630 C   0  0  0  0  0  0  0  0  0  0  0  0
  150.3784  142.6006  156.5375 C   0  0  0  0  0  0  0  0  0  0  0  0
  151.2741  142.8078  157.6067 C   0  0  0  0  0  0  0  0  0  0  0  0
  151.2632  144.1402  158.3350 C   0  0  0  0  0  0  0  0  0  0  0  0
  153.7840  141.0994  159.2663 H   0  0  0  0  0  0  0  0  0  0  0  0
  152.6173  142.1549  160.0606 H   0  0  0  0  0  0  0  0  0  0  0  0
  153.7996  142.8287  158.9285 H   0  0  0  0  0  0  0  0  0  0  0  0
  152.8432  139.7556  157.5830 H   0  0  0  0  0  0  0  0  0  0  0  0
  149.6885  138.9468  153.8710 H   0  0  0  0  0  0  0  0  0  0  0  0
  148.3966  142.4867  154.5026 H   0  0  0  0  0  0  0  0  0  0  0  0
  148.8549  141.6245  153.0523 H   0  0  0  0  0  0  0  0  0  0  0  0
  147.4668  139.6255  154.1434 H   0  0  0  0  0  0  0  0  0  0  0  0
  145.5697  140.9006  153.1534 H   0  0  0  0  0  0  0  0  0  0  0  0
  146.2437  140.1645  156.0205 H   0  0  0  0  0  0  0  0  0  0  0  0
  146.8725  141.7887  155.9587 H   0  0  0  0  0  0  0  0  0  0  0  0
  142.9604  141.3377  155.5041 H   0  0  0  0  0  0  0  0  0  0  0  0
  143.9544  140.1270  156.2598 H   0  0  0  0  0  0  0  0  0  0  0  0
  143.1262  141.8572  157.8976 H   0  0  0  0  0  0  0  0  0  0  0  0
  144.8732  141.8458  157.8533 H   0  0  0  0  0  0  0  0  0  0  0  0
  145.9791  143.5663  156.6104 H   0  0  0  0  0  0  0  0  0  0  0  0
  145.5681  145.5710  154.9487 H   0  0  0  0  0  0  0  0  0  0  0  0
  143.9629  145.6275  155.6313 H   0  0  0  0  0  0  0  0  0  0  0  0
  144.0362  147.6724  156.9238 H   0  0  0  0  0  0  0  0  0  0  0  0
  145.4753  147.9792  155.9439 H   0  0  0  0  0  0  0  0  0  0  0  0
  145.5597  148.1323  157.6936 H   0  0  0  0  0  0  0  0  0  0  0  0
  144.0475  145.4997  158.4216 H   0  0  0  0  0  0  0  0  0  0  0  0
  145.5115  146.1987  159.1157 H   0  0  0  0  0  0  0  0  0  0  0  0
  145.5536  144.5746  158.4643 H   0  0  0  0  0  0  0  0  0  0  0  0
  145.7829  143.2610  154.0758 H   0  0  0  0  0  0  0  0  0  0  0  0
  144.0463  143.2389  154.2378 H   0  0  0  0  0  0  0  0  0  0  0  0
  149.6945  143.3806  156.2380 H   0  0  0  0  0  0  0  0  0  0  0  0
  150.4712  144.7908  157.9630 H   0  0  0  0  0  0  0  0  0  0  0  0
  152.2139  144.6558  158.1980 H   0  0  0  0  0  0  0  0  0  0  0  0
  151.0993  143.9935  159.4026 H   0  0  0  0  0  0  0  0  0  0  0  0
  146.5078  146.1055  156.9359 H   0  0  0  0  0  0  0  0  0  0  0  0
  144.7562  141.0817  154.1558 H   0  0  0  0  0  0  0  0  0  0  0  0
  1  2  1  0  0  0  0
  1 26  1  0  0  0  0
  1 27  1  0  0  0  0
  1 28  1  0  0  0  0
  2 24  1  0  0  0  0
  2  3  2  0  0  0  0
  3  4  1  0  0  0  0
  3 29  1  0  0  0  0
  4 22  2  0  0  0  0
  4  5  1  0  0  0  0
  5  6  2  0  0  0  0
  6  7  1  0  0  0  0
  6 30  1  0  0  0  0
  7  8  1  0  0  0  0
  7 22  1  0  0  0  0
  8  9  1  0  0  0  0
  8 31  1  0  0  0  0
  8 32  1  0  0  0  0
  9 10  1  0  0  0  0
  9 11  1  0  0  0  0
  9 33  1  0  0  0  0
 10 34  1  0  0  0  0
 11 12  1  0  0  0  0
 11 35  1  0  0  0  0
 11 36  1  0  0  0  0
 12 21  1  0  0  0  0
 12 13  1  0  0  0  0
 12 57  1  0  0  0  0
 13 14  1  0  0  0  0
 13 37  1  0  0  0  0
 13 38  1  0  0  0  0
 14 15  1  0  0  0  0
 14 39  1  0  0  0  0
 14 40  1  0  0  0  0
 15 16  1  0  0  0  0
 16 17  1  0  0  0  0
 16 21  1  0  0  0  0
 16 41  1  0  0  0  0
 17 18  1  0  0  0  0
 17 42  1  0  0  0  0
 17 43  1  0  0  0  0
 18 19  1  0  0  0  0
 18 20  1  0  0  0  0
 18 56  1  0  0  0  0
 19 44  1  0  0  0  0
 19 45  1  0  0  0  0
 19 46  1  0  0  0  0
 20 47  1  0  0  0  0
 20 48  1  0  0  0  0
 20 49  1  0  0  0  0
 21 50  1  0  0  0  0
 21 51  1  0  0  0  0
 22 23  1  0  0  0  0
 23 24  2  0  0  0  0
 23 52  1  0  0  0  0
 24 25  1  0  0  0  0
 25 53  1  0  0  0  0
 25 54  1  0  0  0  0
 25 55  1  0  0  0  0
M  CHG  1  12   1
M  CHG  1  18   1
M  END
> <s_m_source_file>
AV-unprocessed.smi

> <i_m_source_file_index>
1005

> <i_lp_mmshare_version>
43012

> <i_f3d_flags>
0

> <s_epik_input>
W0NIM11jKFtjSF0xKWMoW0NIM10pW2NIXWMoYzEyKW4oW2NIXW4yKVtDSDJdW0NASF0oW09IXSlbQ0gyXU4zW0NIMl1bQ0gyXU9bQ0BIXShbQ0gyXTMpW0NIMl1OKFtDSDNdKVtDSDNd

> <s_epik_cmdline>
J2VwaWtfcHl0aG9uJywgJy1waCcsICc3LjAnLCAnLXRuJywgJzgnLCAnLW1hJywgJzIwMCcsICctbWV0YWxfYmluZGluZycsICctaW1hZScsICc8aW5maWxlLm1hZT4nLCAnLW9tYWUnLCAnPG91dGZpbGUubWFlPic=

> <r_epik_Ionization_Penalty>
1.0968

> <r_epik_Ionization_Penalty_Charging>
1.0096

> <r_epik_Ionization_Penalty_Neutral>
0.0871956

> <r_epik_State_Penalty>
1.31185

> <r_epik_Charging_Adjusted_Penalty>
2.32145

> <i_epik_Tot_Q>
2

> <i_epik_Tot_abs_Q>
2

> <r_epik_Metal_State_Penalty>
1.22442

> <b_epik_Metal_Only>
0

> <s_lp_Force_Field>
OPLS_2005

> <r_lp_Energy>
36.3086

> <b_lp_Chiralities_Consistent>
1

> <s_lp_Variant>
AV-unprocessed.smi:1005-9

> <Gold.Version>
5.8.1

> <Gold.Id.Protein>
6NUR|6NUR_protein|mol2

> <Gold.PLP.Fitness>
51.7883

> <Gold.PLP.PLP>
-37.3799

> <Gold.PLP.part.hbond>
-3.0000

> <Gold.PLP.part.metal>
0.0000

> <Gold.PLP.part.buried>
0.0065

> <Gold.PLP.part.nonpolar>
-32.3995

> <Gold.PLP.part.repulsive>
0.0405

> <Gold.PLP.ligand.clash>
0.0000

> <Gold.PLP.ligand.torsion>
1.7631

> <Gold.PLP.Chemscore.Hbond>
5.0000

> <Gold.PLP.Chemscore.CHOScore>
0.9234

> <Gold.PLP.Chemscore.Metal>
0.0000

> <Gold.Chemscore.Hbonds>
donor molecule, donor type, donor heavy atom, donor atom, acceptor molecule, acceptor atom, score
      L1  H    10    34       P1 10175  0.94
      L1  H    12    57       P1 10175  1.82
      L1  H    18    56       P1  8029  0.40
      L1  C     6    30       P1  7957  0.02

> <Gold.PLP.Chemscore.Internal.Correction>
0.1645

> <Gold.Rescore>
     Score         DG    S(hbond)    S(metal)    S(lipo)     H(rot)  DE(clash)    DE(int)     intcor
     14.03     -18.74       2.32        0.00     101.31       2.48       1.68       3.04       ----

> <Gold.Chemscore.Fitness>
14.0264

> <Gold.Chemscore.DG>
-18.7447

> <Gold.Chemscore.ZeroCoef>
-5.4800

> <Gold.Chemscore.Hbond>
2.3244

> <Gold.Chemscore.Metal>
0.0000

> <Gold.Chemscore.Lipo>
101.3126

> <Gold.Chemscore.Internal_Hbond>
0.0000

> <Gold.Chemscore.DEClash>
1.6800

> <Gold.Chemscore.DEInternal>
3.0384

> <Gold.Chemscore.Rot>
2.4814

> <Gold.Chemscore.Internal.Correction>
   9.000000E+99

> <Gold.Chemscore.Hbonds>
donor molecule, donor type, donor heavy atom, donor atom, acceptor molecule, acceptor atom, score
      L1  H    10    34       P1 10175  0.47
      L1  H    12    57       P1 10175  0.72
      L1  H    18    56       P1  8029  0.01

> <Gold.Chemscore.Hbond.Weighted>
-7.7635

> <Gold.Chemscore.Metal.Weighted>
-0.0000

> <Gold.Chemscore.Lipo.Weighted>
-11.8536

> <Gold.Chemscore.Internal_Hbond.Weighted>
0.0000

> <Gold.Chemscore.DEClash.Weighted>
1.6800

> <Gold.Chemscore.DEInternal.Weighted>
3.0384

> <Gold.Chemscore.Rot.Weighted>
6.3524

> <Gold.Chemscore.Internal.Correction.Weighted>
   9.000000E+99

> <Gold.Protein.RotatedTorsions>
[ 6907 6896 6895 6894 ] final  -17.34 input  -60.11 | X-H torsion
[ 7974 7965 7964 7962 ] final -156.91 input  175.53 | X-H torsion
[ 8008 7997 7996 7995 ] final   46.72 input   59.86 | X-H torsion
[ 10167 10162 10161 10158 ] final  -41.54 input  -65.29 | X-H torsion
[ 10718 10713 10712 10709 ] final  -22.17 input   66.30 | X-H torsion
[ 10763 10752 10751 10750 ] final  176.28 input  -60.55 | X-H torsion
[ 11005 11000 10999 10996 ] final   20.77 input  -57.11 | X-H torsion

> <Gold.Protein.ActiveResidues>
 VAL166  LYS551  ARG553  GLY616  TRP617  ASP618  TYR619  PRO620  LYS621  CYS622 
 ASP623  PHE694  ASN695  SER759  ASP760  ASP761  ALA762  ILE779  LEU786  VAL792 
 PHE793  MET794  SER795  GLU796  ALA797  LYS798  CYS799  TRP800  GLU811  SER814 

> <Gold.Protein.RotatedAtoms>
  151.2949  135.0752  159.9217 H   0  0  0  0  0  0  0  0  0  0  0  0  # atno 6907 bound_to 6896
  152.5309  133.9893  159.7854 H   0  0  0  0  0  0  0  0  0  0  0  0  # atno 6908 bound_to 6896
  151.0170  133.5861  159.2706 H   0  0  0  0  0  0  0  0  0  0  0  0  # atno 6909 bound_to 6896
  144.7571  140.4043  143.6004 H   0  0  0  0  0  0  0  0  0  0  0  0  # atno 7974 bound_to 7965
  155.3571  140.3416  155.4240 H   0  0  0  0  0  0  0  0  0  0  0  0  # atno 8008 bound_to 7997
  156.1733  140.1639  156.8443 H   0  0  0  0  0  0  0  0  0  0  0  0  # atno 8009 bound_to 7997
  154.5256  140.0757  156.8234 H   0  0  0  0  0  0  0  0  0  0  0  0  # atno 8010 bound_to 7997
  140.6999  143.3088  151.3081 H   0  0  0  0  0  0  0  0  0  0  0  0  # atno 10167 bound_to 10162
  156.5082  130.4604  149.6663 H   0  0  0  0  0  0  0  0  0  0  0  0  # atno 10718 bound_to 10713
  154.4789  135.2774  155.1585 H   0  0  0  0  0  0  0  0  0  0  0  0  # atno 10763 bound_to 10752
  154.3304  135.6191  153.5552 H   0  0  0  0  0  0  0  0  0  0  0  0  # atno 10764 bound_to 10752
  152.9873  135.5764  154.5186 H   0  0  0  0  0  0  0  0  0  0  0  0  # atno 10765 bound_to 10752
  140.3989  134.1739  155.7663 H   0  0  0  0  0  0  0  0  0  0  0  0  # atno 11005 bound_to 11000
  145.6741  139.1605  143.2738 LP  0  0  0  0  0  0  0  0  0  0  0  0  # atno 17320 bound_to 7965
  146.1594  140.6810  142.9284 LP  0  0  0  0  0  0  0  0  0  0  0  0  # atno 17321 bound_to 7965
  139.6504  144.0373  152.2622 LP  0  0  0  0  0  0  0  0  0  0  0  0  # atno 17342 bound_to 10162
  139.9907  144.6363  150.7817 LP  0  0  0  0  0  0  0  0  0  0  0  0  # atno 17343 bound_to 10162
  156.3266  130.7309  151.2231 LP  0  0  0  0  0  0  0  0  0  0  0  0  # atno 17370 bound_to 10713
  157.7454  131.0441  150.4777 LP  0  0  0  0  0  0  0  0  0  0  0  0  # atno 17371 bound_to 10713
  141.1864  133.8303  157.1070 LP  0  0  0  0  0  0  0  0  0  0  0  0  # atno 17394 bound_to 11000
  140.0351  134.9882  157.0855 LP  0  0  0  0  0  0  0  0  0  0  0  0  # atno 17395 bound_to 11000

$$$$
