AV-unprocessed.smi:3343|AV-procd|sdf|12891|dock4
  -GOLD-   2272019293D 1   1.00000     0.00000
 Structure written by MMmdl.
 42 43  0  0  0  0  0  0  0  0  2 V2000
  151.8095  144.9263  160.2211 C   0  0  0  0  0  0  0  0  0  0  0  0
  151.9653  143.6936  159.3081 C   0  0  2  0  0  0  0  0  0  0  0  0
  150.6101  143.1155  158.8737 C   0  0  0  0  0  0  0  0  0  0  0  0
  149.5632  143.5332  159.3694 O   0  0  0  0  0  0  0  0  0  0  0  0
  150.6446  142.1506  157.9411 N   0  0  0  0  0  0  0  0  0  0  0  0
  149.4815  141.4536  157.3996 C   0  0  0  0  0  0  0  0  0  0  0  0
  149.8581  140.2054  156.5732 C   0  0  0  0  0  0  0  0  0  0  0  0
  150.2148  140.5241  155.1877 N   0  0  0  0  0  0  0  0  0  0  0  0
  150.5617  139.3258  154.4177 C   0  0  0  0  0  0  0  0  0  0  0  0
  149.3283  138.4423  154.1280 C   0  0  0  0  0  0  0  0  0  0  0  0
  148.2903  139.2186  153.4106 N   0  3  0  0  0  0  0  0  0  0  0  0
  147.1087  138.4036  153.0580 C   0  0  0  0  0  0  0  0  0  0  0  0
  147.9371  140.4429  154.1665 C   0  0  0  0  0  0  0  0  0  0  0  0
  149.2013  141.2826  154.4461 C   0  0  0  0  0  0  0  0  0  0  0  0
  152.7826  142.6520  159.9182 N   0  0  0  0  0  0  0  0  0  0  0  0
  153.2749  142.5636  161.1557 C   0  0  0  0  0  0  0  0  0  0  0  0
  154.0260  141.4909  161.3621 N   0  0  0  0  0  0  0  0  0  0  0  0
  153.9622  140.9259  160.1202 C   0  0  0  0  0  0  0  0  0  0  0  0
  153.2386  141.5850  159.2155 N   0  0  0  0  0  0  0  0  0  0  0  0
  151.2371  145.7112  159.7254 H   0  0  0  0  0  0  0  0  0  0  0  0
  152.7834  145.3448  160.4768 H   0  0  0  0  0  0  0  0  0  0  0  0
  151.2995  144.6860  161.1548 H   0  0  0  0  0  0  0  0  0  0  0  0
  152.4891  144.0242  158.4094 H   0  0  0  0  0  0  0  0  0  0  0  0
  151.5472  141.8639  157.5913 H   0  0  0  0  0  0  0  0  0  0  0  0
  148.8002  141.1960  158.2115 H   0  0  0  0  0  0  0  0  0  0  0  0
  148.9374  142.1539  156.7640 H   0  0  0  0  0  0  0  0  0  0  0  0
  150.7452  139.7718  157.0367 H   0  0  0  0  0  0  0  0  0  0  0  0
  149.0886  139.4372  156.6357 H   0  0  0  0  0  0  0  0  0  0  0  0
  151.0166  139.6367  153.4762 H   0  0  0  0  0  0  0  0  0  0  0  0
  151.3225  138.7526  154.9490 H   0  0  0  0  0  0  0  0  0  0  0  0
  149.6301  137.5944  153.5124 H   0  0  0  0  0  0  0  0  0  0  0  0
  148.9165  138.0253  155.0480 H   0  0  0  0  0  0  0  0  0  0  0  0
  146.6014  138.0404  153.9529 H   0  0  0  0  0  0  0  0  0  0  0  0
  147.4019  137.5422  152.4566 H   0  0  0  0  0  0  0  0  0  0  0  0
  146.3978  138.9904  152.4752 H   0  0  0  0  0  0  0  0  0  0  0  0
  147.2346  141.0357  153.5796 H   0  0  0  0  0  0  0  0  0  0  0  0
  147.4234  140.1820  155.0929 H   0  0  0  0  0  0  0  0  0  0  0  0
  148.9434  142.1973  154.9782 H   0  0  0  0  0  0  0  0  0  0  0  0
  149.6376  141.6048  153.4994 H   0  0  0  0  0  0  0  0  0  0  0  0
  153.0832  143.3010  161.9212 H   0  0  0  0  0  0  0  0  0  0  0  0
  154.4687  140.0044  159.8737 H   0  0  0  0  0  0  0  0  0  0  0  0
  148.7061  139.5238  152.5419 H   0  0  0  0  0  0  0  0  0  0  0  0
  1  2  1  0  0  0  0
  1 20  1  0  0  0  0
  1 21  1  0  0  0  0
  1 22  1  0  0  0  0
  2  3  1  0  0  0  0
  2 15  1  0  0  0  0
  2 23  1  0  0  0  0
  3  4  2  0  0  0  0
  3  5  1  0  0  0  0
  5  6  1  0  0  0  0
  5 24  1  0  0  0  0
  6  7  1  0  0  0  0
  6 25  1  0  0  0  0
  6 26  1  0  0  0  0
  7  8  1  0  0  0  0
  7 27  1  0  0  0  0
  7 28  1  0  0  0  0
  8 14  1  0  0  0  0
  8  9  1  0  0  0  0
  9 10  1  0  0  0  0
  9 29  1  0  0  0  0
  9 30  1  0  0  0  0
 10 11  1  0  0  0  0
 10 31  1  0  0  0  0
 10 32  1  0  0  0  0
 11 12  1  0  0  0  0
 11 13  1  0  0  0  0
 11 42  1  0  0  0  0
 12 33  1  0  0  0  0
 12 34  1  0  0  0  0
 12 35  1  0  0  0  0
 13 14  1  0  0  0  0
 13 36  1  0  0  0  0
 13 37  1  0  0  0  0
 14 38  1  0  0  0  0
 14 39  1  0  0  0  0
 15 19  1  0  0  0  0
 15 16  1  0  0  0  0
 16 17  2  0  0  0  0
 16 40  1  0  0  0  0
 17 18  1  0  0  0  0
 18 19  2  0  0  0  0
 18 41  1  0  0  0  0
M  CHG  1  11   1
M  END
> <s_m_source_file>
AV-unprocessed.smi

> <i_m_source_file_index>
3343

> <i_lp_mmshare_version>
43012

> <i_f3d_flags>
0

> <s_epik_input>
bjFbY0hdbltjSF1uMVtDQEhdKFtDSDNdKUMoPU8pW05IXVtDSDJdW0NIMl1OMltDSDJdW0NIMl1OKFtDSDNdKVtDSDJdW0NIMl0y

> <s_epik_cmdline>
J2VwaWtfcHl0aG9uJywgJy1waCcsICc3LjAnLCAnLXRuJywgJzgnLCAnLW1hJywgJzIwMCcsICctbWV0YWxfYmluZGluZycsICctaW1hZScsICc8aW5maWxlLm1hZT4nLCAnLW9tYWUnLCAnPG91dGZpbGUubWFlPic=

> <r_lp_tautomer_probability>
1

> <r_epik_Ionization_Penalty>
0.0359277

> <r_epik_Ionization_Penalty_Charging>
0.0358005

> <r_epik_Ionization_Penalty_Neutral>
0.000127293

> <r_epik_State_Penalty>
0.0476325

> <r_epik_Charging_Adjusted_Penalty>
0.0834329

> <i_epik_Tot_Q>
1

> <i_epik_Tot_abs_Q>
1

> <r_epik_Metal_State_Penalty>
0.0476323

> <b_epik_Metal_Only>
0

> <s_lp_Force_Field>
OPLS_2005

> <r_lp_Energy>
27.0486

> <b_lp_Chiralities_Consistent>
1

> <s_lp_Variant>
AV-unprocessed.smi:3343-1

> <Gold.Version>
5.8.1

> <Gold.Id.Protein>
6NUR|6NUR_protein|mol2

> <Gold.PLP.Fitness>
42.0847

> <Gold.PLP.PLP>
-39.6608

> <Gold.PLP.part.hbond>
-1.5395

> <Gold.PLP.part.metal>
0.0000

> <Gold.PLP.part.buried>
-5.1231

> <Gold.PLP.part.nonpolar>
-33.6992

> <Gold.PLP.part.repulsive>
0.5180

> <Gold.PLP.ligand.clash>
0.0000

> <Gold.PLP.ligand.torsion>
0.3709

> <Gold.PLP.Chemscore.Hbond>
1.0000

> <Gold.PLP.Chemscore.CHOScore>
0.0000

> <Gold.PLP.Chemscore.Metal>
0.0000

> <Gold.Chemscore.Hbonds>
donor molecule, donor type, donor heavy atom, donor atom, acceptor molecule, acceptor atom, score
      L1  H    11    42       P1  7957  1.00

> <Gold.PLP.Chemscore.Internal.Correction>
0.1657

> <Gold.Rescore>
     Score         DG    S(hbond)    S(metal)    S(lipo)     H(rot)  DE(clash)    DE(int)     intcor
      9.66     -10.72       1.24        0.00      66.99       2.63       0.04       1.01       ----

> <Gold.Chemscore.Fitness>
9.6586

> <Gold.Chemscore.DG>
-10.7165

> <Gold.Chemscore.ZeroCoef>
-5.4800

> <Gold.Chemscore.Hbond>
1.2354

> <Gold.Chemscore.Metal>
0.0000

> <Gold.Chemscore.Lipo>
66.9874

> <Gold.Chemscore.Internal_Hbond>
0.0000

> <Gold.Chemscore.DEClash>
0.0430

> <Gold.Chemscore.DEInternal>
1.0149

> <Gold.Chemscore.Rot>
2.6278

> <Gold.Chemscore.Internal.Correction>
   9.000000E+99

> <Gold.Chemscore.Hbonds>
donor molecule, donor type, donor heavy atom, donor atom, acceptor molecule, acceptor atom, score
      L1  H    11    42       P1  7957  1.00

> <Gold.Chemscore.Hbond.Weighted>
-4.1261

> <Gold.Chemscore.Metal.Weighted>
-0.0000

> <Gold.Chemscore.Lipo.Weighted>
-7.8375

> <Gold.Chemscore.Internal_Hbond.Weighted>
0.0000

> <Gold.Chemscore.DEClash.Weighted>
0.0430

> <Gold.Chemscore.DEInternal.Weighted>
1.0149

> <Gold.Chemscore.Rot.Weighted>
6.7271

> <Gold.Chemscore.Internal.Correction.Weighted>
   9.000000E+99

> <Gold.Protein.RotatedTorsions>
[ 6907 6896 6895 6894 ] final  -95.80 input  -60.11 | X-H torsion
[ 7974 7965 7964 7962 ] final   15.02 input  175.53 | X-H torsion
[ 8008 7997 7996 7995 ] final   29.91 input   59.86 | X-H torsion
[ 10167 10162 10161 10158 ] final -152.70 input  -65.29 | X-H torsion
[ 10718 10713 10712 10709 ] final  106.86 input   66.30 | X-H torsion
[ 10763 10752 10751 10750 ] final  175.80 input  -60.55 | X-H torsion
[ 11005 11000 10999 10996 ] final  -25.94 input  -57.11 | X-H torsion

> <Gold.Protein.ActiveResidues>
 VAL166  LYS551  ARG553  GLY616  TRP617  ASP618  TYR619  PRO620  LYS621  CYS622 
 ASP623  PHE694  ASN695  SER759  ASP760  ASP761  ALA762  ILE779  LEU786  VAL792 
 PHE793  MET794  SER795  GLU796  ALA797  LYS798  CYS799  TRP800  GLU811  SER814 

> <Gold.Protein.RotatedAtoms>
  150.6973  134.1601  159.4172 H   0  0  0  0  0  0  0  0  0  0  0  0  # atno 6907 bound_to 6896
  151.9582  135.0134  160.0555 H   0  0  0  0  0  0  0  0  0  0  0  0  # atno 6908 bound_to 6896
  152.1951  133.4765  159.5065 H   0  0  0  0  0  0  0  0  0  0  0  0  # atno 6909 bound_to 6896
  146.2290  139.8956  142.8547 H   0  0  0  0  0  0  0  0  0  0  0  0  # atno 7974 bound_to 7965
  155.0820  140.3211  155.4599 H   0  0  0  0  0  0  0  0  0  0  0  0  # atno 8008 bound_to 7997
  156.2765  140.2093  156.5893 H   0  0  0  0  0  0  0  0  0  0  0  0  # atno 8009 bound_to 7997
  154.6971  140.0510  157.0409 H   0  0  0  0  0  0  0  0  0  0  0  0  # atno 8010 bound_to 7997
  139.7159  143.9033  152.2486 H   0  0  0  0  0  0  0  0  0  0  0  0  # atno 10167 bound_to 10162
  157.6651  131.0860  150.6070 H   0  0  0  0  0  0  0  0  0  0  0  0  # atno 10718 bound_to 10713
  154.4725  135.2771  155.1632 H   0  0  0  0  0  0  0  0  0  0  0  0  # atno 10763 bound_to 10752
  154.3375  135.6177  153.5584 H   0  0  0  0  0  0  0  0  0  0  0  0  # atno 10764 bound_to 10752
  152.9866  135.5780  154.5109 H   0  0  0  0  0  0  0  0  0  0  0  0  # atno 10765 bound_to 10752
  140.8984  133.7541  156.0511 H   0  0  0  0  0  0  0  0  0  0  0  0  # atno 11005 bound_to 11000
  145.2374  140.9996  143.3955 LP  0  0  0  0  0  0  0  0  0  0  0  0  # atno 17320 bound_to 7965
  144.9480  139.4115  143.6416 LP  0  0  0  0  0  0  0  0  0  0  0  0  # atno 17321 bound_to 7965
  139.8916  144.6962  150.8764 LP  0  0  0  0  0  0  0  0  0  0  0  0  # atno 17342 bound_to 10162
  140.7743  143.3582  151.1880 LP  0  0  0  0  0  0  0  0  0  0  0  0  # atno 17343 bound_to 10162
  156.6371  130.4448  149.5765 LP  0  0  0  0  0  0  0  0  0  0  0  0  # atno 17370 bound_to 10713
  156.2237  130.6753  151.1394 LP  0  0  0  0  0  0  0  0  0  0  0  0  # atno 17371 bound_to 10713
  140.8261  134.3233  157.5365 LP  0  0  0  0  0  0  0  0  0  0  0  0  # atno 17394 bound_to 11000
  139.8739  134.9337  156.3586 LP  0  0  0  0  0  0  0  0  0  0  0  0  # atno 17395 bound_to 11000

$$$$
