AV-unprocessed.smi:1716|AV-procd|sdf|6916|dock1
  -GOLD-   22720 8123D 1   1.00000     0.00000
 Structure written by MMmdl.
 40 41  0  0  0  0  0  0  0  0  1 V2000
  153.3399  142.3817  162.4329 C   0  0  0  0  0  0  0  0  0  0  0  0
  153.0777  142.2628  160.9298 C   0  0  0  0  0  0  0  0  0  0  0  0
  153.1395  141.1443  160.4189 O   0  0  0  0  0  0  0  0  0  0  0  0
  152.7863  143.3781  160.2175 N   0  0  0  0  0  0  0  0  0  0  0  0
  152.4546  143.3434  158.7882 C   0  0  0  0  0  0  0  0  0  0  0  0
  150.9623  143.6780  158.6126 C   0  0  0  0  0  0  0  0  0  0  0  0
  150.6109  145.0375  159.2594 C   0  0  0  0  0  0  0  0  0  0  0  0
  149.1670  145.2536  159.2552 N   0  0  0  0  0  0  0  0  0  0  0  0
  148.3064  144.7481  160.1514 C   0  0  0  0  0  0  0  0  0  0  0  0
  148.6505  144.0355  161.0950 O   0  0  0  0  0  0  0  0  0  0  0  0
  147.0444  145.1243  159.8780 N   0  0  0  0  0  0  0  0  0  0  0  0
  145.8498  144.7980  160.5805 C   0  0  0  0  0  0  0  0  0  0  0  0
  145.8550  144.1493  161.7725 N   0  0  0  0  0  0  0  0  0  0  0  0
  144.6858  143.8708  162.3840 C   0  0  0  0  0  0  0  0  0  0  0  0
  143.4358  144.2214  161.8460 C   0  0  0  0  0  0  0  0  0  0  0  0
  143.4118  144.8940  160.6122 C   0  0  0  0  0  0  0  0  0  0  0  0
  144.6304  145.1897  159.9650 C   0  0  0  0  0  0  0  0  0  0  0  0
  144.6059  145.9175  158.6306 C   0  0  0  0  0  0  0  0  0  0  0  0
  151.1451  145.1256  160.7051 C   0  0  0  0  0  0  0  0  0  0  0  0
  152.6301  144.7271  160.7761 C   0  0  0  0  0  0  0  0  0  0  0  0
  152.4775  142.8111  162.9439 H   0  0  0  0  0  0  0  0  0  0  0  0
  154.2138  143.0048  162.6245 H   0  0  0  0  0  0  0  0  0  0  0  0
  153.5290  141.4001  162.8684 H   0  0  0  0  0  0  0  0  0  0  0  0
  153.0672  144.0732  158.2570 H   0  0  0  0  0  0  0  0  0  0  0  0
  152.6743  142.3802  158.3259 H   0  0  0  0  0  0  0  0  0  0  0  0
  150.7087  143.6880  157.5520 H   0  0  0  0  0  0  0  0  0  0  0  0
  150.3638  142.8863  159.0658 H   0  0  0  0  0  0  0  0  0  0  0  0
  151.0929  145.8287  158.6817 H   0  0  0  0  0  0  0  0  0  0  0  0
  148.7974  145.8308  158.5140 H   0  0  0  0  0  0  0  0  0  0  0  0
  146.9203  145.7145  159.0691 H   0  0  0  0  0  0  0  0  0  0  0  0
  144.7497  143.3529  163.3294 H   0  0  0  0  0  0  0  0  0  0  0  0
  142.5207  143.9804  162.3661 H   0  0  0  0  0  0  0  0  0  0  0  0
  142.4675  145.1779  160.1712 H   0  0  0  0  0  0  0  0  0  0  0  0
  143.5850  146.1341  158.3148 H   0  0  0  0  0  0  0  0  0  0  0  0
  145.0745  145.3106  157.8556 H   0  0  0  0  0  0  0  0  0  0  0  0
  145.1425  146.8640  158.7017 H   0  0  0  0  0  0  0  0  0  0  0  0
  151.0127  146.1368  161.0916 H   0  0  0  0  0  0  0  0  0  0  0  0
  150.5675  144.4671  161.3561 H   0  0  0  0  0  0  0  0  0  0  0  0
  152.9897  144.8214  161.7994 H   0  0  0  0  0  0  0  0  0  0  0  0
  153.2305  145.4266  160.1928 H   0  0  0  0  0  0  0  0  0  0  0  0
  1  2  1  0  0  0  0
  1 21  1  0  0  0  0
  1 22  1  0  0  0  0
  1 23  1  0  0  0  0
  2  3  2  0  0  0  0
  2  4  1  0  0  0  0
  4 20  1  0  0  0  0
  4  5  1  0  0  0  0
  5  6  1  0  0  0  0
  5 24  1  0  0  0  0
  5 25  1  0  0  0  0
  6  7  1  0  0  0  0
  6 26  1  0  0  0  0
  6 27  1  0  0  0  0
  7  8  1  0  0  0  0
  7 19  1  0  0  0  0
  7 28  1  0  0  0  0
  8  9  1  0  0  0  0
  8 29  1  0  0  0  0
  9 10  2  0  0  0  0
  9 11  1  0  0  0  0
 11 12  1  0  0  0  0
 11 30  1  0  0  0  0
 12 17  1  0  0  0  0
 12 13  2  0  0  0  0
 13 14  1  0  0  0  0
 14 15  2  0  0  0  0
 14 31  1  0  0  0  0
 15 16  1  0  0  0  0
 15 32  1  0  0  0  0
 16 17  2  0  0  0  0
 16 33  1  0  0  0  0
 17 18  1  0  0  0  0
 18 34  1  0  0  0  0
 18 35  1  0  0  0  0
 18 36  1  0  0  0  0
 19 20  1  0  0  0  0
 19 37  1  0  0  0  0
 19 38  1  0  0  0  0
 20 39  1  0  0  0  0
 20 40  1  0  0  0  0
M  END
> <s_m_source_file>
AV-unprocessed.smi

> <i_m_source_file_index>
1716

> <i_lp_mmshare_version>
43012

> <i_f3d_flags>
0

> <s_epik_input>
W0NIM11DKD1PKU4xW0NIMl1bQ0gyXVtDSF0oW0NIMl1bQ0gyXTEpW05IXUMoPU8pW05IXWMybltjSF1bY0hdW2NIXWMyW0NIM10=

> <s_epik_cmdline>
J2VwaWtfcHl0aG9uJywgJy1waCcsICc3LjAnLCAnLXRuJywgJzgnLCAnLW1hJywgJzIwMCcsICctbWV0YWxfYmluZGluZycsICctaW1hZScsICc8aW5maWxlLm1hZT4nLCAnLW9tYWUnLCAnPG91dGZpbGUubWFlPic=

> <r_lp_tautomer_probability>
1

> <r_epik_Ionization_Penalty>
5.94044e-05

> <r_epik_Ionization_Penalty_Charging>
0

> <r_epik_Ionization_Penalty_Neutral>
5.94044e-05

> <r_epik_State_Penalty>
-0

> <r_epik_Charging_Adjusted_Penalty>
0

> <i_epik_Tot_Q>
0

> <i_epik_Tot_abs_Q>
0

> <r_epik_Metal_State_Penalty>
-0

> <b_epik_Metal_Only>
0

> <s_lp_Force_Field>
OPLS_2005

> <r_lp_Energy>
26.4914

> <b_lp_Chiralities_Consistent>
1

> <s_lp_Variant>
AV-unprocessed.smi:1716-1

> <Gold.Version>
5.8.1

> <Gold.Id.Protein>
6NUR|6NUR_protein|mol2

> <Gold.PLP.Fitness>
46.8314

> <Gold.PLP.PLP>
-39.6924

> <Gold.PLP.part.hbond>
-2.6539

> <Gold.PLP.part.metal>
0.0000

> <Gold.PLP.part.buried>
-5.8292

> <Gold.PLP.part.nonpolar>
-31.5084

> <Gold.PLP.part.repulsive>
0.5799

> <Gold.PLP.ligand.clash>
0.0000

> <Gold.PLP.ligand.torsion>
0.3008

> <Gold.PLP.Chemscore.Hbond>
2.5753

> <Gold.PLP.Chemscore.CHOScore>
0.0000

> <Gold.PLP.Chemscore.Metal>
0.0000

> <Gold.Chemscore.Hbonds>
donor molecule, donor type, donor heavy atom, donor atom, acceptor molecule, acceptor atom, score
      L1  H     8    29       P1  8029  0.98
      L1  H    11    30       P1  8029  0.74
      P1  H  6933  6944       L1    10  0.82

> <Gold.PLP.Chemscore.Internal.Correction>
0.0149

> <Gold.Rescore>
     Score         DG    S(hbond)    S(metal)    S(lipo)     H(rot)  DE(clash)    DE(int)     intcor
     18.79     -22.29       2.64        0.00      90.29       1.00       0.27       3.23       ----

> <Gold.Chemscore.Fitness>
18.7946

> <Gold.Chemscore.DG>
-22.2939

> <Gold.Chemscore.ZeroCoef>
-5.4800

> <Gold.Chemscore.Hbond>
2.6376

> <Gold.Chemscore.Metal>
0.0000

> <Gold.Chemscore.Lipo>
90.2945

> <Gold.Chemscore.Internal_Hbond>
0.0000

> <Gold.Chemscore.DEClash>
0.2727

> <Gold.Chemscore.DEInternal>
3.2266

> <Gold.Chemscore.Rot>
1.0000

> <Gold.Chemscore.Internal.Correction>
   9.000000E+99

> <Gold.Chemscore.Hbonds>
donor molecule, donor type, donor heavy atom, donor atom, acceptor molecule, acceptor atom, score
      L1  H     8    29       P1  8029  0.87
      L1  H    11    30       P1  8029  0.69
      P1  H  6933  6944       L1    10  0.81

> <Gold.Chemscore.Hbond.Weighted>
-8.8094

> <Gold.Chemscore.Metal.Weighted>
-0.0000

> <Gold.Chemscore.Lipo.Weighted>
-10.5645

> <Gold.Chemscore.Internal_Hbond.Weighted>
0.0000

> <Gold.Chemscore.DEClash.Weighted>
0.2727

> <Gold.Chemscore.DEInternal.Weighted>
3.2266

> <Gold.Chemscore.Rot.Weighted>
2.5600

> <Gold.Chemscore.Internal.Correction.Weighted>
   9.000000E+99

> <Gold.Protein.RotatedTorsions>
[ 6907 6896 6895 6894 ] final   43.73 input  -60.11 | X-H torsion
[ 7974 7965 7964 7962 ] final  -14.28 input  175.53 | X-H torsion
[ 8008 7997 7996 7995 ] final  137.71 input   59.86 | X-H torsion
[ 10167 10162 10161 10158 ] final -167.92 input  -65.29 | X-H torsion
[ 10718 10713 10712 10709 ] final   61.68 input   66.30 | X-H torsion
[ 10763 10752 10751 10750 ] final   50.52 input  -60.55 | X-H torsion
[ 11005 11000 10999 10996 ] final  -58.76 input  -57.11 | X-H torsion

> <Gold.Protein.ActiveResidues>
 VAL166  LYS551  ARG553  GLY616  TRP617  ASP618  TYR619  PRO620  LYS621  CYS622 
 ASP623  PHE694  ASN695  SER759  ASP760  ASP761  ALA762  ILE779  LEU786  VAL792 
 PHE793  MET794  SER795  GLU796  ALA797  LYS798  CYS799  TRP800  GLU811  SER814 

> <Gold.Protein.RotatedAtoms>
  152.2239  134.8386  160.0482 H   0  0  0  0  0  0  0  0  0  0  0  0  # atno 6907 bound_to 6896
  151.9160  133.3568  159.3888 H   0  0  0  0  0  0  0  0  0  0  0  0  # atno 6908 bound_to 6896
  150.7007  134.4609  159.5424 H   0  0  0  0  0  0  0  0  0  0  0  0  # atno 6909 bound_to 6896
  146.2081  140.3325  142.8400 H   0  0  0  0  0  0  0  0  0  0  0  0  # atno 7974 bound_to 7965
  156.3001  140.2412  156.3954 H   0  0  0  0  0  0  0  0  0  0  0  0  # atno 8008 bound_to 7997
  154.8575  140.0421  157.1664 H   0  0  0  0  0  0  0  0  0  0  0  0  # atno 8009 bound_to 7997
  154.8932  140.2966  155.5363 H   0  0  0  0  0  0  0  0  0  0  0  0  # atno 8010 bound_to 7997
  139.6018  144.0995  152.1751 H   0  0  0  0  0  0  0  0  0  0  0  0  # atno 10167 bound_to 10162
  157.5846  130.9008  149.9492 H   0  0  0  0  0  0  0  0  0  0  0  0  # atno 10718 bound_to 10713
  152.9784  135.5876  154.4265 H   0  0  0  0  0  0  0  0  0  0  0  0  # atno 10763 bound_to 10752
  154.3884  135.2767  155.2172 H   0  0  0  0  0  0  0  0  0  0  0  0  # atno 10764 bound_to 10752
  154.4055  135.6093  153.5976 H   0  0  0  0  0  0  0  0  0  0  0  0  # atno 10765 bound_to 10752
  141.1220  133.6613  156.4968 H   0  0  0  0  0  0  0  0  0  0  0  0  # atno 11005 bound_to 11000
  144.8842  140.7440  143.5967 LP  0  0  0  0  0  0  0  0  0  0  0  0  # atno 17320 bound_to 7965
  145.3246  139.1778  143.4569 LP  0  0  0  0  0  0  0  0  0  0  0  0  # atno 17321 bound_to 7965
  140.0593  144.5870  150.7275 LP  0  0  0  0  0  0  0  0  0  0  0  0  # atno 17342 bound_to 10162
  140.7255  143.2632  151.4134 LP  0  0  0  0  0  0  0  0  0  0  0  0  # atno 17343 bound_to 10162
  156.0894  130.3665  150.0425 LP  0  0  0  0  0  0  0  0  0  0  0  0  # atno 17370 bound_to 10713
  156.8558  130.9474  151.3622 LP  0  0  0  0  0  0  0  0  0  0  0  0  # atno 17371 bound_to 10713
  140.4478  134.6957  157.5024 LP  0  0  0  0  0  0  0  0  0  0  0  0  # atno 17394 bound_to 11000
  140.0186  134.6582  155.9273 LP  0  0  0  0  0  0  0  0  0  0  0  0  # atno 17395 bound_to 11000

$$$$
