AV-unprocessed.smi:1700|AV-procd|sdf|6819|dock6
  -GOLD-   22720 7593D 1   1.00000     0.00000
 Structure written by MMmdl.
 34 35  0  0  0  0  0  0  0  0  1 V2000
  147.7457  132.9908  152.4495 C   0  0  0  0  0  0  0  0  0  0  0  0
  146.4179  132.9941  151.7093 C   0  0  0  0  0  0  0  0  0  0  0  0
  145.8861  131.7740  151.2404 C   0  0  0  0  0  0  0  0  0  0  0  0
  144.6589  131.7785  150.5556 C   0  0  0  0  0  0  0  0  0  0  0  0
  144.0111  133.0113  150.3677 C   0  0  0  0  0  0  0  0  0  0  0  0
  144.5120  134.1818  150.8122 N   0  0  0  0  0  0  0  0  0  0  0  0
  145.6959  134.1953  151.4751 C   0  0  0  0  0  0  0  0  0  0  0  0
  146.2865  135.3934  151.9680 N   0  0  0  0  0  0  0  0  0  0  0  0
  145.6837  136.4471  152.5471 C   0  0  0  0  0  0  0  0  0  0  0  0
  144.4785  136.5402  152.7822 O   0  0  0  0  0  0  0  0  0  0  0  0
  146.5697  137.4072  152.8481 N   0  0  0  0  0  0  0  0  0  0  0  0
  146.2406  138.6770  153.4858 C   0  0  0  0  0  0  0  0  0  0  0  0
  147.3989  139.6820  153.3764 C   0  0  2  0  0  0  0  0  0  0  0  0
  148.5829  139.3544  154.2836 C   0  0  0  0  0  0  0  0  0  0  0  0
  149.2295  140.7117  154.4386 C   0  0  0  0  0  0  0  0  0  0  0  0
  148.0127  141.6290  154.5226 C   0  0  0  0  0  0  0  0  0  0  0  0
  146.9779  140.9816  153.7854 O   0  0  0  0  0  0  0  0  0  0  0  0
  148.1546  131.9829  152.5270 H   0  0  0  0  0  0  0  0  0  0  0  0
  147.6202  133.3801  153.4602 H   0  0  0  0  0  0  0  0  0  0  0  0
  148.4761  133.6092  151.9270 H   0  0  0  0  0  0  0  0  0  0  0  0
  146.4103  130.8433  151.4017 H   0  0  0  0  0  0  0  0  0  0  0  0
  144.2258  130.8616  150.1840 H   0  0  0  0  0  0  0  0  0  0  0  0
  143.0664  133.0598  149.8464 H   0  0  0  0  0  0  0  0  0  0  0  0
  147.2867  135.4597  151.8534 H   0  0  0  0  0  0  0  0  0  0  0  0
  147.5421  137.2479  152.6285 H   0  0  0  0  0  0  0  0  0  0  0  0
  145.3469  139.0810  153.0098 H   0  0  0  0  0  0  0  0  0  0  0  0
  145.9835  138.5095  154.5332 H   0  0  0  0  0  0  0  0  0  0  0  0
  147.7535  139.7504  152.3465 H   0  0  0  0  0  0  0  0  0  0  0  0
  148.2390  138.9916  155.2534 H   0  0  0  0  0  0  0  0  0  0  0  0
  149.2520  138.6072  153.8555 H   0  0  0  0  0  0  0  0  0  0  0  0
  149.8796  140.7823  155.3111 H   0  0  0  0  0  0  0  0  0  0  0  0
  149.8188  140.9480  153.5516 H   0  0  0  0  0  0  0  0  0  0  0  0
  147.6852  141.7338  155.5575 H   0  0  0  0  0  0  0  0  0  0  0  0
  148.2176  142.6253  154.1301 H   0  0  0  0  0  0  0  0  0  0  0  0
  1  2  1  0  0  0  0
  1 18  1  0  0  0  0
  1 19  1  0  0  0  0
  1 20  1  0  0  0  0
  2  7  1  0  0  0  0
  2  3  2  0  0  0  0
  3  4  1  0  0  0  0
  3 21  1  0  0  0  0
  4  5  2  0  0  0  0
  4 22  1  0  0  0  0
  5  6  1  0  0  0  0
  5 23  1  0  0  0  0
  6  7  2  0  0  0  0
  7  8  1  0  0  0  0
  8  9  1  0  0  0  0
  8 24  1  0  0  0  0
  9 10  2  0  0  0  0
  9 11  1  0  0  0  0
 11 12  1  0  0  0  0
 11 25  1  0  0  0  0
 12 13  1  0  0  0  0
 12 26  1  0  0  0  0
 12 27  1  0  0  0  0
 13 17  1  0  0  0  0
 13 14  1  0  0  0  0
 13 28  1  0  0  0  0
 14 15  1  0  0  0  0
 14 29  1  0  0  0  0
 14 30  1  0  0  0  0
 15 16  1  0  0  0  0
 15 31  1  0  0  0  0
 15 32  1  0  0  0  0
 16 17  1  0  0  0  0
 16 33  1  0  0  0  0
 16 34  1  0  0  0  0
M  END
> <s_m_source_file>
AV-unprocessed.smi

> <i_m_source_file_index>
1700

> <i_lp_mmshare_version>
43012

> <i_f3d_flags>
0

> <s_epik_input>
W0NIM11jMVtjSF1bY0hdW2NIXW5jMVtOSF1DKD1PKVtOSF1bQ0gyXVtDQEBIXTJbQ0gyXVtDSDJdW0NIMl1PMg==

> <s_epik_cmdline>
J2VwaWtfcHl0aG9uJywgJy1waCcsICc3LjAnLCAnLXRuJywgJzgnLCAnLW1hJywgJzIwMCcsICctbWV0YWxfYmluZGluZycsICctaW1hZScsICc8aW5maWxlLm1hZT4nLCAnLW9tYWUnLCAnPG91dGZpbGUubWFlPic=

> <r_lp_tautomer_probability>
1

> <r_epik_Ionization_Penalty>
5.57253e-05

> <r_epik_Ionization_Penalty_Charging>
0

> <r_epik_Ionization_Penalty_Neutral>
5.57253e-05

> <r_epik_State_Penalty>
-0

> <r_epik_Charging_Adjusted_Penalty>
0

> <i_epik_Tot_Q>
0

> <i_epik_Tot_abs_Q>
0

> <r_epik_Metal_State_Penalty>
-0

> <b_epik_Metal_Only>
0

> <s_lp_Force_Field>
OPLS_2005

> <r_lp_Energy>
19.3296

> <b_lp_Chiralities_Consistent>
1

> <s_lp_Variant>
AV-unprocessed.smi:1700-1

> <Gold.Version>
5.8.1

> <Gold.Id.Protein>
6NUR|6NUR_protein|mol2

> <Gold.PLP.Fitness>
38.3324

> <Gold.PLP.PLP>
-30.2454

> <Gold.PLP.part.hbond>
-2.0000

> <Gold.PLP.part.metal>
0.0000

> <Gold.PLP.part.buried>
-5.1373

> <Gold.PLP.part.nonpolar>
-25.2868

> <Gold.PLP.part.repulsive>
0.5505

> <Gold.PLP.ligand.clash>
0.0000

> <Gold.PLP.ligand.torsion>
0.4573

> <Gold.PLP.Chemscore.Hbond>
2.0000

> <Gold.PLP.Chemscore.CHOScore>
1.0000

> <Gold.PLP.Chemscore.Metal>
0.0000

> <Gold.Chemscore.Hbonds>
donor molecule, donor type, donor heavy atom, donor atom, acceptor molecule, acceptor atom, score
      L1  H     8    24       P1  7948  1.00
      L1  H    11    25       P1  7948  1.00
      L1  C     5    23       P1 10186  1.00

> <Gold.PLP.Chemscore.Internal.Correction>
0.0016

> <Gold.Rescore>
     Score         DG    S(hbond)    S(metal)    S(lipo)     H(rot)  DE(clash)    DE(int)     intcor
     17.05     -17.52       1.96        0.00      74.05       1.23       0.03       0.44       ----

> <Gold.Chemscore.Fitness>
17.0518

> <Gold.Chemscore.DG>
-17.5199

> <Gold.Chemscore.ZeroCoef>
-5.4800

> <Gold.Chemscore.Hbond>
1.9563

> <Gold.Chemscore.Metal>
0.0000

> <Gold.Chemscore.Lipo>
74.0507

> <Gold.Chemscore.Internal_Hbond>
0.0000

> <Gold.Chemscore.DEClash>
0.0258

> <Gold.Chemscore.DEInternal>
0.4423

> <Gold.Chemscore.Rot>
1.2337

> <Gold.Chemscore.Internal.Correction>
   9.000000E+99

> <Gold.Chemscore.Hbonds>
donor molecule, donor type, donor heavy atom, donor atom, acceptor molecule, acceptor atom, score
      L1  H     8    24       P1  7948  0.99
      L1  H    11    25       P1  7948  0.97

> <Gold.Chemscore.Hbond.Weighted>
-6.5341

> <Gold.Chemscore.Metal.Weighted>
-0.0000

> <Gold.Chemscore.Lipo.Weighted>
-8.6639

> <Gold.Chemscore.Internal_Hbond.Weighted>
0.0000

> <Gold.Chemscore.DEClash.Weighted>
0.0258

> <Gold.Chemscore.DEInternal.Weighted>
0.4423

> <Gold.Chemscore.Rot.Weighted>
3.1582

> <Gold.Chemscore.Internal.Correction.Weighted>
   9.000000E+99

> <Gold.Protein.RotatedTorsions>
[ 6907 6896 6895 6894 ] final   60.30 input  -60.11 | X-H torsion
[ 7974 7965 7964 7962 ] final -155.47 input  175.53 | X-H torsion
[ 8008 7997 7996 7995 ] final   17.14 input   59.86 | X-H torsion
[ 10167 10162 10161 10158 ] final  124.02 input  -65.29 | X-H torsion
[ 10718 10713 10712 10709 ] final   32.01 input   66.30 | X-H torsion
[ 10763 10752 10751 10750 ] final   52.82 input  -60.55 | X-H torsion
[ 11005 11000 10999 10996 ] final  132.20 input  -57.11 | X-H torsion

> <Gold.Protein.ActiveResidues>
 VAL166  LYS551  ARG553  GLY616  TRP617  ASP618  TYR619  PRO620  LYS621  CYS622 
 ASP623  PHE694  ASN695  SER759  ASP760  ASP761  ALA762  ILE779  LEU786  VAL792 
 PHE793  MET794  SER795  GLU796  ALA797  LYS798  CYS799  TRP800  GLU811  SER814 

> <Gold.Protein.RotatedAtoms>
  152.3991  134.6317  160.0076 H   0  0  0  0  0  0  0  0  0  0  0  0  # atno 6907 bound_to 6896
  151.6527  133.3314  159.3163 H   0  0  0  0  0  0  0  0  0  0  0  0  # atno 6908 bound_to 6896
  150.7894  134.6948  159.6561 H   0  0  0  0  0  0  0  0  0  0  0  0  # atno 6909 bound_to 6896
  144.7638  140.4244  143.5957 H   0  0  0  0  0  0  0  0  0  0  0  0  # atno 7974 bound_to 7965
  154.8871  140.2981  155.5392 H   0  0  0  0  0  0  0  0  0  0  0  0  # atno 8008 bound_to 7997
  156.3021  140.2431  156.3816 H   0  0  0  0  0  0  0  0  0  0  0  0  # atno 8009 bound_to 7997
  154.8657  140.0403  157.1682 H   0  0  0  0  0  0  0  0  0  0  0  0  # atno 8010 bound_to 7997
  139.5765  144.6966  151.3638 H   0  0  0  0  0  0  0  0  0  0  0  0  # atno 10167 bound_to 10162
  157.2798  130.7249  149.6550 H   0  0  0  0  0  0  0  0  0  0  0  0  # atno 10718 bound_to 10713
  152.9791  135.5799  154.4641 H   0  0  0  0  0  0  0  0  0  0  0  0  # atno 10763 bound_to 10752
  154.4213  135.2771  155.1976 H   0  0  0  0  0  0  0  0  0  0  0  0  # atno 10764 bound_to 10752
  154.3724  135.6165  153.5801 H   0  0  0  0  0  0  0  0  0  0  0  0  # atno 10765 bound_to 10752
  139.9776  134.9558  156.9548 H   0  0  0  0  0  0  0  0  0  0  0  0  # atno 11005 bound_to 11000
  145.6533  139.1569  143.2849 LP  0  0  0  0  0  0  0  0  0  0  0  0  # atno 17320 bound_to 7965
  146.1727  140.6620  142.9225 LP  0  0  0  0  0  0  0  0  0  0  0  0  # atno 17321 bound_to 7965
  140.7048  143.7542  150.7463 LP  0  0  0  0  0  0  0  0  0  0  0  0  # atno 17342 bound_to 10162
  140.1063  143.4740  152.2396 LP  0  0  0  0  0  0  0  0  0  0  0  0  # atno 17343 bound_to 10162
  155.9664  130.4341  150.5037 LP  0  0  0  0  0  0  0  0  0  0  0  0  # atno 17370 bound_to 10713
  157.2978  131.0639  151.2089 LP  0  0  0  0  0  0  0  0  0  0  0  0  # atno 17371 bound_to 10713
  140.5163  134.0952  155.7281 LP  0  0  0  0  0  0  0  0  0  0  0  0  # atno 17394 bound_to 11000
  141.1451  133.9069  157.2234 LP  0  0  0  0  0  0  0  0  0  0  0  0  # atno 17395 bound_to 11000

$$$$
