AV-unprocessed.smi:271|AV-procd|sdf|2049|dock9
  -GOLD-   2262021283D 1   1.00000     0.00000
 Structure written by MMmdl.
 58 60  0  0  0  0  0  0  0  0  1 V2000
  155.9310  140.6613  160.0829 C   0  0  0  0  0  0  0  0  0  0  0  0
  154.6035  141.3843  159.8087 C   0  0  0  0  0  0  0  0  0  0  0  0
  154.0709  142.0347  161.0970 C   0  0  0  0  0  0  0  0  0  0  0  0
  153.5804  140.4227  159.1729 C   0  0  0  0  0  0  0  0  0  0  0  0
  152.1676  141.0276  159.0292 C   0  0  0  0  0  0  0  0  0  0  0  0
  151.7332  141.1870  157.6412 N   0  0  0  0  0  0  0  0  0  0  0  0
  150.5153  141.9762  157.4686 C   0  0  0  0  0  0  0  0  0  0  0  0
  150.4940  143.2594  158.3147 C   0  0  0  0  0  0  0  0  0  0  0  0
  151.6663  144.1110  158.0663 C   0  0  0  0  0  0  0  0  0  0  0  0
  152.5888  144.7812  157.8705 N   0  0  0  0  0  0  0  0  0  0  0  0
  151.7120  140.0279  156.9443 C   0  0  0  0  0  0  0  0  0  0  0  0
  152.4329  139.9819  155.7972 N   0  0  0  0  0  0  0  0  0  0  0  0
  152.4582  138.8608  155.0709 C   0  0  0  0  0  0  0  0  0  0  0  0
  151.8484  137.6979  155.3098 N   0  0  0  0  0  0  0  0  0  0  0  0
  151.1248  137.7403  156.4649 C   0  0  0  0  0  0  0  0  0  0  0  0
  150.9961  138.8606  157.3329 C   0  0  0  0  0  0  0  0  0  0  0  0
  150.1680  138.5410  158.4014 N   0  0  0  0  0  0  0  0  0  0  0  0
  149.8287  137.3011  158.1790 C   0  0  0  0  0  0  0  0  0  0  0  0
  150.3753  136.7328  157.0495 N   0  0  0  0  0  0  0  0  0  0  0  0
  150.1725  135.3691  156.5806 C   0  0  0  0  0  0  0  0  0  0  0  0
  149.2744  135.2529  155.3173 C   0  0  2  0  0  0  0  0  0  0  0  0
  147.9776  136.0896  155.4343 C   0  0  0  0  0  0  0  0  0  0  0  0
  147.5324  136.5181  154.1640 O   0  0  0  0  0  0  0  0  0  0  0  0
  148.9608  133.7772  154.9556 C   0  0  2  0  0  0  0  0  0  0  0  0
  150.1718  132.9536  154.5478 C   0  0  0  0  0  0  0  0  0  0  0  0
  149.5287  131.7592  153.8527 C   0  0  0  0  0  0  0  0  0  0  0  0
  148.3486  132.2657  153.2399 O   0  0  0  0  0  0  0  0  0  0  0  0
  148.0834  133.5822  153.7138 C   0  0  0  0  0  0  0  0  0  0  0  0
  155.7979  139.8429  160.7915 H   0  0  0  0  0  0  0  0  0  0  0  0
  156.6729  141.3437  160.4988 H   0  0  0  0  0  0  0  0  0  0  0  0
  156.3495  140.2434  159.1668 H   0  0  0  0  0  0  0  0  0  0  0  0
  154.8109  142.1803  159.0923 H   0  0  0  0  0  0  0  0  0  0  0  0
  153.8053  141.2827  161.8406 H   0  0  0  0  0  0  0  0  0  0  0  0
  153.1867  142.6424  160.9068 H   0  0  0  0  0  0  0  0  0  0  0  0
  154.8198  142.6904  161.5419 H   0  0  0  0  0  0  0  0  0  0  0  0
  153.9314  140.1348  158.1808 H   0  0  0  0  0  0  0  0  0  0  0  0
  153.5465  139.5043  159.7604 H   0  0  0  0  0  0  0  0  0  0  0  0
  151.4372  140.4218  159.5650 H   0  0  0  0  0  0  0  0  0  0  0  0
  152.1555  142.0090  159.5045 H   0  0  0  0  0  0  0  0  0  0  0  0
  150.3830  142.2229  156.4146 H   0  0  0  0  0  0  0  0  0  0  0  0
  149.6619  141.3570  157.7472 H   0  0  0  0  0  0  0  0  0  0  0  0
  149.6023  143.8469  158.0950 H   0  0  0  0  0  0  0  0  0  0  0  0
  150.4809  143.0310  159.3808 H   0  0  0  0  0  0  0  0  0  0  0  0
  153.0534  138.8996  154.1705 H   0  0  0  0  0  0  0  0  0  0  0  0
  149.1736  136.7588  158.8450 H   0  0  0  0  0  0  0  0  0  0  0  0
  151.1537  134.9394  156.3760 H   0  0  0  0  0  0  0  0  0  0  0  0
  149.7659  134.7776  157.4007 H   0  0  0  0  0  0  0  0  0  0  0  0
  149.8453  135.6695  154.4858 H   0  0  0  0  0  0  0  0  0  0  0  0
  147.1715  135.4989  155.8685 H   0  0  0  0  0  0  0  0  0  0  0  0
  148.1161  136.9530  156.0849 H   0  0  0  0  0  0  0  0  0  0  0  0
  148.0516  136.0867  153.5024 H   0  0  0  0  0  0  0  0  0  0  0  0
  148.4661  133.2884  155.7962 H   0  0  0  0  0  0  0  0  0  0  0  0
  150.7884  133.5083  153.8390 H   0  0  0  0  0  0  0  0  0  0  0  0
  150.8058  132.6545  155.3811 H   0  0  0  0  0  0  0  0  0  0  0  0
  150.1913  131.2937  153.1228 H   0  0  0  0  0  0  0  0  0  0  0  0
  149.2435  131.0023  154.5845 H   0  0  0  0  0  0  0  0  0  0  0  0
  147.0220  133.7110  153.9269 H   0  0  0  0  0  0  0  0  0  0  0  0
  148.3592  134.2895  152.9302 H   0  0  0  0  0  0  0  0  0  0  0  0
  1  2  1  0  0  0  0
  1 29  1  0  0  0  0
  1 30  1  0  0  0  0
  1 31  1  0  0  0  0
  2  3  1  0  0  0  0
  2  4  1  0  0  0  0
  2 32  1  0  0  0  0
  3 33  1  0  0  0  0
  3 34  1  0  0  0  0
  3 35  1  0  0  0  0
  4  5  1  0  0  0  0
  4 36  1  0  0  0  0
  4 37  1  0  0  0  0
  5  6  1  0  0  0  0
  5 38  1  0  0  0  0
  5 39  1  0  0  0  0
  6  7  1  0  0  0  0
  6 11  1  0  0  0  0
  7  8  1  0  0  0  0
  7 40  1  0  0  0  0
  7 41  1  0  0  0  0
  8  9  1  0  0  0  0
  8 42  1  0  0  0  0
  8 43  1  0  0  0  0
  9 10  3  0  0  0  0
 11 16  1  0  0  0  0
 11 12  2  0  0  0  0
 12 13  1  0  0  0  0
 13 14  2  0  0  0  0
 13 44  1  0  0  0  0
 14 15  1  0  0  0  0
 15 19  1  0  0  0  0
 15 16  2  0  0  0  0
 16 17  1  0  0  0  0
 17 18  2  0  0  0  0
 18 19  1  0  0  0  0
 18 45  1  0  0  0  0
 19 20  1  0  0  0  0
 20 21  1  0  0  0  0
 20 46  1  0  0  0  0
 20 47  1  0  0  0  0
 21 22  1  0  0  0  0
 21 24  1  0  0  0  0
 21 48  1  0  0  0  0
 22 23  1  0  0  0  0
 22 49  1  0  0  0  0
 22 50  1  0  0  0  0
 23 51  1  0  0  0  0
 24 28  1  0  0  0  0
 24 25  1  0  0  0  0
 24 52  1  0  0  0  0
 25 26  1  0  0  0  0
 25 53  1  0  0  0  0
 25 54  1  0  0  0  0
 26 27  1  0  0  0  0
 26 55  1  0  0  0  0
 26 56  1  0  0  0  0
 27 28  1  0  0  0  0
 28 57  1  0  0  0  0
 28 58  1  0  0  0  0
M  END
> <s_m_source_file>
AV-unprocessed.smi

> <i_m_source_file_index>
271

> <i_lp_mmshare_version>
43012

> <i_f3d_flags>
0

> <s_epik_input>
W0NIM11bQ0hdKFtDSDNdKVtDSDJdW0NIMl1OKFtDSDJdW0NIMl1DI04pYyhuW2NIXW4xKWMoYzEyKW5bY0hdbjJbQ0gyXVtDQEhdKFtDSDJdW09IXSlbQ0BASF0zW0NIMl1bQ0gyXU9bQ0gyXTM=

> <s_epik_cmdline>
J2VwaWtfcHl0aG9uJywgJy1waCcsICc3LjAnLCAnLXRuJywgJzgnLCAnLW1hJywgJzIwMCcsICctbWV0YWxfYmluZGluZycsICctaW1hZScsICc8aW5maWxlLm1hZT4nLCAnLW9tYWUnLCAnPG91dGZpbGUubWFlPic=

> <r_lp_tautomer_probability>
1

> <r_epik_Ionization_Penalty>
0.000825874

> <r_epik_Ionization_Penalty_Charging>
0

> <r_epik_Ionization_Penalty_Neutral>
0.000825874

> <r_epik_State_Penalty>
0.000396768

> <r_epik_Charging_Adjusted_Penalty>
0.000396768

> <i_epik_Tot_Q>
0

> <i_epik_Tot_abs_Q>
0

> <r_epik_Metal_State_Penalty>
-0

> <b_epik_Metal_Only>
0

> <s_lp_Force_Field>
OPLS_2005

> <r_lp_Energy>
34.7872

> <b_lp_Chiralities_Consistent>
1

> <s_lp_Variant>
AV-unprocessed.smi:271-1

> <Gold.Version>
5.8.1

> <Gold.Id.Protein>
6NUR|6NUR_protein|mol2

> <Gold.PLP.Fitness>
47.1005

> <Gold.PLP.PLP>
-43.1080

> <Gold.PLP.part.hbond>
-1.7779

> <Gold.PLP.part.metal>
0.0000

> <Gold.PLP.part.buried>
-5.6819

> <Gold.PLP.part.nonpolar>
-35.1337

> <Gold.PLP.part.repulsive>
0.2110

> <Gold.PLP.ligand.clash>
0.0000

> <Gold.PLP.ligand.torsion>
1.2762

> <Gold.PLP.Chemscore.Hbond>
1.9920

> <Gold.PLP.Chemscore.CHOScore>
0.0000

> <Gold.PLP.Chemscore.Metal>
0.0000

> <Gold.Chemscore.Hbonds>
donor molecule, donor type, donor heavy atom, donor atom, acceptor molecule, acceptor atom, score
      L1  H    23    51       P1  7948  0.96
      P1  H  7997  8008       L1    12  0.94

> <Gold.PLP.Chemscore.Internal.Correction>
0.5689

> <Gold.Rescore>
     Score         DG    S(hbond)    S(metal)    S(lipo)     H(rot)  DE(clash)    DE(int)     intcor
      9.62     -10.97       1.51        0.00      86.35       3.77       0.06       1.28       ----

> <Gold.Chemscore.Fitness>
9.6206

> <Gold.Chemscore.DG>
-10.9663

> <Gold.Chemscore.ZeroCoef>
-5.4800

> <Gold.Chemscore.Hbond>
1.5060

> <Gold.Chemscore.Metal>
0.0000

> <Gold.Chemscore.Lipo>
86.3502

> <Gold.Chemscore.Internal_Hbond>
0.0000

> <Gold.Chemscore.DEClash>
0.0648

> <Gold.Chemscore.DEInternal>
1.2808

> <Gold.Chemscore.Rot>
3.7683

> <Gold.Chemscore.Internal.Correction>
   9.000000E+99

> <Gold.Chemscore.Hbonds>
donor molecule, donor type, donor heavy atom, donor atom, acceptor molecule, acceptor atom, score
      L1  H    23    51       P1  7948  0.92
      P1  H  7997  8008       L1    12  0.12

> <Gold.Chemscore.Hbond.Weighted>
-5.0301

> <Gold.Chemscore.Metal.Weighted>
-0.0000

> <Gold.Chemscore.Lipo.Weighted>
-10.1030

> <Gold.Chemscore.Internal_Hbond.Weighted>
0.0000

> <Gold.Chemscore.DEClash.Weighted>
0.0648

> <Gold.Chemscore.DEInternal.Weighted>
1.2808

> <Gold.Chemscore.Rot.Weighted>
9.6468

> <Gold.Chemscore.Internal.Correction.Weighted>
   9.000000E+99

> <Gold.Protein.RotatedTorsions>
[ 6907 6896 6895 6894 ] final   38.48 input  -60.11 | X-H torsion
[ 7974 7965 7964 7962 ] final   37.28 input  175.53 | X-H torsion
[ 8008 7997 7996 7995 ] final  -53.16 input   59.86 | X-H torsion
[ 10167 10162 10161 10158 ] final -145.97 input  -65.29 | X-H torsion
[ 10718 10713 10712 10709 ] final  -56.04 input   66.30 | X-H torsion
[ 10763 10752 10751 10750 ] final  -88.74 input  -60.55 | X-H torsion
[ 11005 11000 10999 10996 ] final  -30.04 input  -57.11 | X-H torsion

> <Gold.Protein.ActiveResidues>
 VAL166  LYS551  ARG553  GLY616  TRP617  ASP618  TYR619  PRO620  LYS621  CYS622 
 ASP623  PHE694  ASN695  SER759  ASP760  ASP761  ALA762  ILE779  LEU786  VAL792 
 PHE793  MET794  SER795  GLU796  ALA797  LYS798  CYS799  TRP800  GLU811  SER814 

> <Gold.Protein.RotatedAtoms>
  152.1570  134.8942  160.0543 H   0  0  0  0  0  0  0  0  0  0  0  0  # atno 6907 bound_to 6896
  151.9952  133.3800  159.4168 H   0  0  0  0  0  0  0  0  0  0  0  0  # atno 6908 bound_to 6896
  150.6883  134.3816  159.5080 H   0  0  0  0  0  0  0  0  0  0  0  0  # atno 6909 bound_to 6896
  146.1149  139.5914  142.9327 H   0  0  0  0  0  0  0  0  0  0  0  0  # atno 7974 bound_to 7965
  154.4125  140.1206  156.5108 H   0  0  0  0  0  0  0  0  0  0  0  0  # atno 8008 bound_to 7997
  155.6800  140.3496  155.4832 H   0  0  0  0  0  0  0  0  0  0  0  0  # atno 8009 bound_to 7997
  155.9559  140.1113  157.0927 H   0  0  0  0  0  0  0  0  0  0  0  0  # atno 8010 bound_to 7997
  139.7756  143.8175  152.2631 H   0  0  0  0  0  0  0  0  0  0  0  0  # atno 10167 bound_to 10162
  156.1320  130.4159  150.0252 H   0  0  0  0  0  0  0  0  0  0  0  0  # atno 10718 bound_to 10713
  154.6478  135.5366  153.7865 H   0  0  0  0  0  0  0  0  0  0  0  0  # atno 10763 bound_to 10752
  153.0369  135.6475  154.1063 H   0  0  0  0  0  0  0  0  0  0  0  0  # atno 10764 bound_to 10752
  154.0982  135.2935  155.3237 H   0  0  0  0  0  0  0  0  0  0  0  0  # atno 10765 bound_to 10752
  140.9349  133.7315  156.0990 H   0  0  0  0  0  0  0  0  0  0  0  0  # atno 11005 bound_to 11000
  145.5586  141.0406  143.2238 LP  0  0  0  0  0  0  0  0  0  0  0  0  # atno 17320 bound_to 7965
  144.7544  139.7111  143.7260 LP  0  0  0  0  0  0  0  0  0  0  0  0  # atno 17321 bound_to 7965
  139.8222  144.7291  150.9558 LP  0  0  0  0  0  0  0  0  0  0  0  0  # atno 17342 bound_to 10162
  140.7816  143.4148  151.0935 LP  0  0  0  0  0  0  0  0  0  0  0  0  # atno 17343 bound_to 10162
  156.8161  130.9342  151.3643 LP  0  0  0  0  0  0  0  0  0  0  0  0  # atno 17370 bound_to 10713
  157.6497  130.8874  149.9608 LP  0  0  0  0  0  0  0  0  0  0  0  0  # atno 17371 bound_to 10713
  140.7813  134.3722  157.5486 LP  0  0  0  0  0  0  0  0  0  0  0  0  # atno 17394 bound_to 11000
  139.8805  134.9083  156.2965 LP  0  0  0  0  0  0  0  0  0  0  0  0  # atno 17395 bound_to 11000

$$$$
