AV-unprocessed.smi:261|AV-procd|sdf|1985|dock10
  -GOLD-   2262021163D 1   1.00000     0.00000
 Structure written by MMmdl.
 51 54  0  0  0  0  0  0  0  0  1 V2000
  152.2226  145.0472  158.5709 C   0  0  0  0  0  0  0  0  0  0  0  0
  152.5109  144.3822  159.7900 O   0  0  0  0  0  0  0  0  0  0  0  0
  153.2180  143.1634  159.6145 C   0  0  1  0  0  0  0  0  0  0  0  0
  153.2545  142.2949  160.8731 C   0  0  0  0  0  0  0  0  0  0  0  0
  153.4336  140.8579  160.3468 C   0  0  2  0  0  0  0  0  0  0  0  0
  154.9022  140.4075  160.3897 C   0  0  0  0  0  0  0  0  0  0  0  0
  155.5128  140.4602  161.5758 N   0  0  0  0  0  0  0  0  0  0  0  0
  155.4854  140.0350  159.3726 O   0  0  0  0  0  0  0  0  0  0  0  0
  152.9524  140.9074  158.9632 N   0  0  0  0  0  0  0  0  0  0  0  0
  152.1646  139.8915  158.5508 C   0  0  0  0  0  0  0  0  0  0  0  0
  151.5455  139.0964  159.4625 N   0  0  0  0  0  0  0  0  0  0  0  0
  150.7696  138.0893  159.0485 C   0  0  0  0  0  0  0  0  0  0  0  0
  150.4852  137.7123  157.7992 N   0  0  0  0  0  0  0  0  0  0  0  0
  151.1069  138.5136  156.8865 C   0  0  0  0  0  0  0  0  0  0  0  0
  151.9563  139.6171  157.1751 C   0  0  0  0  0  0  0  0  0  0  0  0
  152.4085  140.1949  155.9958 N   0  0  0  0  0  0  0  0  0  0  0  0
  151.8576  139.4707  155.0594 C   0  0  0  0  0  0  0  0  0  0  0  0
  151.0613  138.4398  155.5064 N   0  0  0  0  0  0  0  0  0  0  0  0
  150.3346  137.4815  154.6936 C   0  0  0  0  0  0  0  0  0  0  0  0
  148.8086  137.6711  154.7897 C   0  0  2  0  0  0  0  0  0  0  0  0
  148.1337  136.5174  154.3250 O   0  0  0  0  0  0  0  0  0  0  0  0
  148.3154  138.9262  154.0419 C   0  0  2  0  0  0  0  0  0  0  0  0
  149.0449  140.2363  154.3503 C   0  0  0  0  0  0  0  0  0  0  0  0
  148.0025  141.2540  153.9443 C   0  0  0  0  0  0  0  0  0  0  0  0
  146.7118  140.5809  154.4060 C   0  0  0  0  0  0  0  0  0  0  0  0
  146.9320  139.1785  154.2778 O   0  0  0  0  0  0  0  0  0  0  0  0
  152.4902  142.2487  158.6349 C   0  0  0  0  0  0  0  0  0  0  0  0
  154.2311  143.3460  159.2502 H   0  0  0  0  0  0  0  0  0  0  0  0
  152.8423  140.1717  160.9570 H   0  0  0  0  0  0  0  0  0  0  0  0
  151.6587  145.9567  158.7773 H   0  0  0  0  0  0  0  0  0  0  0  0
  151.6187  144.4206  157.9132 H   0  0  0  0  0  0  0  0  0  0  0  0
  153.1336  145.3323  158.0438 H   0  0  0  0  0  0  0  0  0  0  0  0
  154.0319  142.6041  161.5735 H   0  0  0  0  0  0  0  0  0  0  0  0
  152.2997  142.3681  161.3959 H   0  0  0  0  0  0  0  0  0  0  0  0
  156.4785  140.1779  161.6596 H   0  0  0  0  0  0  0  0  0  0  0  0
  155.0049  140.7854  162.3856 H   0  0  0  0  0  0  0  0  0  0  0  0
  150.3110  137.5014  159.8298 H   0  0  0  0  0  0  0  0  0  0  0  0
  152.0216  139.6673  154.0098 H   0  0  0  0  0  0  0  0  0  0  0  0
  150.6638  137.5939  153.6598 H   0  0  0  0  0  0  0  0  0  0  0  0
  150.6186  136.4753  155.0046 H   0  0  0  0  0  0  0  0  0  0  0  0
  148.5396  137.7839  155.8407 H   0  0  0  0  0  0  0  0  0  0  0  0
  148.5608  136.2209  153.5358 H   0  0  0  0  0  0  0  0  0  0  0  0
  148.4056  138.7418  152.9699 H   0  0  0  0  0  0  0  0  0  0  0  0
  149.2586  140.3390  155.4147 H   0  0  0  0  0  0  0  0  0  0  0  0
  149.9820  140.3403  153.8028 H   0  0  0  0  0  0  0  0  0  0  0  0
  148.1587  142.2337  154.3964 H   0  0  0  0  0  0  0  0  0  0  0  0
  147.9978  141.3736  152.8599 H   0  0  0  0  0  0  0  0  0  0  0  0
  146.5220  140.8055  155.4563 H   0  0  0  0  0  0  0  0  0  0  0  0
  145.8445  140.9031  153.8292 H   0  0  0  0  0  0  0  0  0  0  0  0
  151.4099  142.3298  158.7691 H   0  0  0  0  0  0  0  0  0  0  0  0
  152.7214  142.5038  157.6003 H   0  0  0  0  0  0  0  0  0  0  0  0
  1  2  1  0  0  0  0
  1 30  1  0  0  0  0
  1 31  1  0  0  0  0
  1 32  1  0  0  0  0
  2  3  1  0  0  0  0
  3 28  1  0  0  0  0
  3 27  1  0  0  0  0
  3  4  1  0  0  0  0
  4  5  1  0  0  0  0
  4 33  1  0  0  0  0
  4 34  1  0  0  0  0
  5 29  1  0  0  0  0
  5  6  1  0  0  0  0
  5  9  1  0  0  0  0
  6  7  1  0  0  0  0
  6  8  2  0  0  0  0
  7 35  1  0  0  0  0
  7 36  1  0  0  0  0
  9 10  1  0  0  0  0
  9 27  1  0  0  0  0
 10 15  1  0  0  0  0
 10 11  2  0  0  0  0
 11 12  1  0  0  0  0
 12 13  2  0  0  0  0
 12 37  1  0  0  0  0
 13 14  1  0  0  0  0
 14 18  1  0  0  0  0
 14 15  2  0  0  0  0
 15 16  1  0  0  0  0
 16 17  2  0  0  0  0
 17 18  1  0  0  0  0
 17 38  1  0  0  0  0
 18 19  1  0  0  0  0
 19 20  1  0  0  0  0
 19 39  1  0  0  0  0
 19 40  1  0  0  0  0
 20 21  1  0  0  0  0
 20 22  1  0  0  0  0
 20 41  1  0  0  0  0
 21 42  1  0  0  0  0
 22 26  1  0  0  0  0
 22 23  1  0  0  0  0
 22 43  1  0  0  0  0
 23 24  1  0  0  0  0
 23 44  1  0  0  0  0
 23 45  1  0  0  0  0
 24 25  1  0  0  0  0
 24 46  1  0  0  0  0
 24 47  1  0  0  0  0
 25 26  1  0  0  0  0
 25 48  1  0  0  0  0
 25 49  1  0  0  0  0
 27 50  1  0  0  0  0
 27 51  1  0  0  0  0
M  END
> <s_m_source_file>
AV-unprocessed.smi

> <i_m_source_file_index>
261

> <i_lp_mmshare_version>
43012

> <i_f3d_flags>
0

> <s_epik_input>
W0NIM11PW0NASF0xW0NIMl1bQ0BASF0oQyg9TylbTkgyXSlOKFtDSDJdMSljKG5bY0hdbjIpYyhjMjMpbltjSF1uM1tDSDJdW0NASF0oW09IXSlbQ0BASF00W0NIMl1bQ0gyXVtDSDJdTzQ=

> <s_epik_cmdline>
J2VwaWtfcHl0aG9uJywgJy1waCcsICc3LjAnLCAnLXRuJywgJzgnLCAnLW1hJywgJzIwMCcsICctbWV0YWxfYmluZGluZycsICctaW1hZScsICc8aW5maWxlLm1hZT4nLCAnLW9tYWUnLCAnPG91dGZpbGUubWFlPic=

> <r_lp_tautomer_probability>
1

> <r_epik_Ionization_Penalty>
0.000713824

> <r_epik_Ionization_Penalty_Charging>
0

> <r_epik_Ionization_Penalty_Neutral>
0.000713824

> <r_epik_State_Penalty>
0.000402132

> <r_epik_Charging_Adjusted_Penalty>
0.000402132

> <i_epik_Tot_Q>
0

> <i_epik_Tot_abs_Q>
0

> <r_epik_Metal_State_Penalty>
-0

> <b_epik_Metal_Only>
0

> <s_lp_Force_Field>
OPLS_2005

> <r_lp_Energy>
48.1487

> <b_lp_Chiralities_Consistent>
1

> <s_lp_Variant>
AV-unprocessed.smi:261-3

> <Gold.Version>
5.8.1

> <Gold.Id.Protein>
6NUR|6NUR_protein|mol2

> <Gold.PLP.Fitness>
51.5192

> <Gold.PLP.PLP>
-43.5119

> <Gold.PLP.part.hbond>
-4.2547

> <Gold.PLP.part.metal>
0.0000

> <Gold.PLP.part.buried>
-2.1335

> <Gold.PLP.part.nonpolar>
-37.7806

> <Gold.PLP.part.repulsive>
0.1513

> <Gold.PLP.ligand.clash>
0.0000

> <Gold.PLP.ligand.torsion>
0.6144

> <Gold.PLP.Chemscore.Hbond>
2.9920

> <Gold.PLP.Chemscore.CHOScore>
0.0000

> <Gold.PLP.Chemscore.Metal>
0.0000

> <Gold.Chemscore.Hbonds>
donor molecule, donor type, donor heavy atom, donor atom, acceptor molecule, acceptor atom, score
      L1  H    21    42       P1  7948  1.00
      P1  H  7997  8009       L1     8  1.00
      P1  H  7997  8010       L1    16  0.99

> <Gold.PLP.Chemscore.Internal.Correction>
0.2601

> <Gold.Rescore>
     Score         DG    S(hbond)    S(metal)    S(lipo)     H(rot)  DE(clash)    DE(int)     intcor
     13.26     -15.36       2.45        0.00      92.69       3.57       1.41       0.70       ----

> <Gold.Chemscore.Fitness>
13.2566

> <Gold.Chemscore.DG>
-15.3607

> <Gold.Chemscore.ZeroCoef>
-5.4800

> <Gold.Chemscore.Hbond>
2.4509

> <Gold.Chemscore.Metal>
0.0000

> <Gold.Chemscore.Lipo>
92.6855

> <Gold.Chemscore.Internal_Hbond>
0.0000

> <Gold.Chemscore.DEClash>
1.4087

> <Gold.Chemscore.DEInternal>
0.6954

> <Gold.Chemscore.Rot>
3.5740

> <Gold.Chemscore.Internal.Correction>
   9.000000E+99

> <Gold.Chemscore.Hbonds>
donor molecule, donor type, donor heavy atom, donor atom, acceptor molecule, acceptor atom, score
      L1  H    21    42       P1  7948  0.99
      P1  H  7997  8009       L1     8  0.91
      P1  H  7997  8010       L1    16  0.56

> <Gold.Chemscore.Hbond.Weighted>
-8.1859

> <Gold.Chemscore.Metal.Weighted>
-0.0000

> <Gold.Chemscore.Lipo.Weighted>
-10.8442

> <Gold.Chemscore.Internal_Hbond.Weighted>
0.0000

> <Gold.Chemscore.DEClash.Weighted>
1.4087

> <Gold.Chemscore.DEInternal.Weighted>
0.6954

> <Gold.Chemscore.Rot.Weighted>
9.1495

> <Gold.Chemscore.Internal.Correction.Weighted>
   9.000000E+99

> <Gold.Protein.RotatedTorsions>
[ 6907 6896 6895 6894 ] final  -96.50 input  -60.11 | X-H torsion
[ 7974 7965 7964 7962 ] final -148.71 input  175.53 | X-H torsion
[ 8008 7997 7996 7995 ] final   97.56 input   59.86 | X-H torsion
[ 10167 10162 10161 10158 ] final   -7.21 input  -65.29 | X-H torsion
[ 10718 10713 10712 10709 ] final  -69.81 input   66.30 | X-H torsion
[ 10763 10752 10751 10750 ] final -102.90 input  -60.55 | X-H torsion
[ 11005 11000 10999 10996 ] final -142.82 input  -57.11 | X-H torsion

> <Gold.Protein.ActiveResidues>
 VAL166  LYS551  ARG553  GLY616  TRP617  ASP618  TYR619  PRO620  LYS621  CYS622 
 ASP623  PHE694  ASN695  SER759  ASP760  ASP761  ALA762  ILE779  LEU786  VAL792 
 PHE793  MET794  SER795  GLU796  ALA797  LYS798  CYS799  TRP800  GLU811  SER814 

> <Gold.Protein.RotatedAtoms>
  150.6990  134.1493  159.4134 H   0  0  0  0  0  0  0  0  0  0  0  0  # atno 6907 bound_to 6896
  151.9476  135.0182  160.0549 H   0  0  0  0  0  0  0  0  0  0  0  0  # atno 6908 bound_to 6896
  152.2039  133.4826  159.5110 H   0  0  0  0  0  0  0  0  0  0  0  0  # atno 6909 bound_to 6896
  144.8012  140.5161  143.5705 H   0  0  0  0  0  0  0  0  0  0  0  0  # atno 7974 bound_to 7965
  156.0913  140.3256  155.7820 H   0  0  0  0  0  0  0  0  0  0  0  0  # atno 8008 bound_to 7997
  155.4991  140.0567  157.2959 H   0  0  0  0  0  0  0  0  0  0  0  0  # atno 8009 bound_to 7997
  154.4640  140.1980  156.0185 H   0  0  0  0  0  0  0  0  0  0  0  0  # atno 8010 bound_to 7997
  140.7022  143.6106  150.8708 H   0  0  0  0  0  0  0  0  0  0  0  0  # atno 10167 bound_to 10162
  156.0437  130.4319  150.2203 H   0  0  0  0  0  0  0  0  0  0  0  0  # atno 10718 bound_to 10713
  154.7768  135.4843  153.9761 H   0  0  0  0  0  0  0  0  0  0  0  0  # atno 10763 bound_to 10752
  153.1439  135.6778  153.8991 H   0  0  0  0  0  0  0  0  0  0  0  0  # atno 10764 bound_to 10752
  153.8657  135.3150  155.3418 H   0  0  0  0  0  0  0  0  0  0  0  0  # atno 10765 bound_to 10752
  140.8187  134.2657  157.4910 H   0  0  0  0  0  0  0  0  0  0  0  0  # atno 11005 bound_to 11000
  145.5548  139.1477  143.3374 LP  0  0  0  0  0  0  0  0  0  0  0  0  # atno 17320 bound_to 7965
  146.2294  140.5685  142.8982 LP  0  0  0  0  0  0  0  0  0  0  0  0  # atno 17321 bound_to 7965
  139.9829  143.5931  152.2937 LP  0  0  0  0  0  0  0  0  0  0  0  0  # atno 17342 bound_to 10162
  139.6559  144.7662  151.2057 LP  0  0  0  0  0  0  0  0  0  0  0  0  # atno 17343 bound_to 10162
  157.0295  131.0003  151.3316 LP  0  0  0  0  0  0  0  0  0  0  0  0  # atno 17370 bound_to 10713
  157.5287  130.8045  149.7892 LP  0  0  0  0  0  0  0  0  0  0  0  0  # atno 17371 bound_to 10713
  139.8709  134.9523  156.4111 LP  0  0  0  0  0  0  0  0  0  0  0  0  # atno 17394 bound_to 11000
  140.9122  133.7704  155.9805 LP  0  0  0  0  0  0  0  0  0  0  0  0  # atno 17395 bound_to 11000

$$$$
