AV-unprocessed.smi:148|AV-procd|sdf|1223|dock6
  -GOLD-   2262018413D 1   1.00000     0.00000
 Structure written by MMmdl.
 63 67  0  0  0  0  0  0  0  0  1 V2000
  146.1549  136.5050  152.7775 O   0  0  0  0  0  0  0  0  0  0  0  0
  145.9771  135.3455  153.5641 C   0  0  0  0  0  0  0  0  0  0  0  0
  146.5174  134.0847  152.8431 C   0  0  1  0  0  0  0  0  0  0  0  0
  146.6389  132.8621  153.7934 C   0  0  0  0  0  0  0  0  0  0  0  0
  146.5638  133.2220  155.1979 N   0  0  0  0  0  0  0  0  0  0  0  0
  145.4209  133.4155  155.9404 C   0  0  0  0  0  0  0  0  0  0  0  0
  145.6179  133.7691  157.1810 N   0  0  0  0  0  0  0  0  0  0  0  0
  147.0016  133.8134  157.3030 C   0  0  0  0  0  0  0  0  0  0  0  0
  147.8978  134.1562  158.3542 C   0  0  0  0  0  0  0  0  0  0  0  0
  147.5191  134.5651  159.5841 N   0  0  0  0  0  0  0  0  0  0  0  0
  148.1136  135.8768  159.8501 C   0  0  0  0  0  0  0  0  0  0  0  0
  147.5107  136.5239  161.1003 C   0  0  0  0  0  0  0  0  0  0  0  0
  147.6637  135.5822  162.2949 C   0  0  0  0  0  0  0  0  0  0  0  0
  147.0252  134.2257  161.9725 C   0  0  0  0  0  0  0  0  0  0  0  0
  147.6021  133.5781  160.6834 C   0  0  1  0  0  0  0  0  0  0  0  0
  146.8646  132.2237  160.3876 C   0  0  1  0  0  0  0  0  0  0  0  0
  146.5456  131.3088  161.5913 C   0  0  0  0  0  0  0  0  0  0  0  0
  145.3685  130.4128  161.1807 C   0  0  0  0  0  0  0  0  0  0  0  0
  144.8671  130.9547  159.8395 C   0  0  0  0  0  0  0  0  0  0  0  0
  145.4820  132.3492  159.7113 C   0  0  1  0  0  0  0  0  0  0  0  0
  144.6532  133.2706  160.3979 O   0  0  0  0  0  0  0  0  0  0  0  0
  149.2290  134.0635  158.1141 N   0  0  0  0  0  0  0  0  0  0  0  0
  149.6637  133.6881  156.9072 C   0  0  0  0  0  0  0  0  0  0  0  0
  148.9508  133.3708  155.8239 N   0  0  0  0  0  0  0  0  0  0  0  0
  147.6117  133.4480  156.0713 C   0  0  0  0  0  0  0  0  0  0  0  0
  145.7199  133.7831  151.5432 C   0  0  1  0  0  0  0  0  0  0  0  0
  146.2245  132.6383  150.6833 C   0  0  0  0  0  0  0  0  0  0  0  0
  145.0353  132.4223  149.7555 C   0  0  0  0  0  0  0  0  0  0  0  0
  143.8906  132.6313  150.5749 O   0  0  0  0  0  0  0  0  0  0  0  0
  144.2364  133.4269  151.7073 C   0  0  0  0  0  0  0  0  0  0  0  0
  147.0257  136.4895  152.4108 H   0  0  0  0  0  0  0  0  0  0  0  0
  146.5021  135.5241  154.5023 H   0  0  0  0  0  0  0  0  0  0  0  0
  144.9205  135.2324  153.8082 H   0  0  0  0  0  0  0  0  0  0  0  0
  147.5345  134.3241  152.5288 H   0  0  0  0  0  0  0  0  0  0  0  0
  145.8546  132.1332  153.5929 H   0  0  0  0  0  0  0  0  0  0  0  0
  147.5877  132.3480  153.6440 H   0  0  0  0  0  0  0  0  0  0  0  0
  144.4298  133.3032  155.5252 H   0  0  0  0  0  0  0  0  0  0  0  0
  149.1917  135.7695  159.9804 H   0  0  0  0  0  0  0  0  0  0  0  0
  147.9624  136.5379  158.9949 H   0  0  0  0  0  0  0  0  0  0  0  0
  148.0021  137.4753  161.3047 H   0  0  0  0  0  0  0  0  0  0  0  0
  146.4557  136.7446  160.9320 H   0  0  0  0  0  0  0  0  0  0  0  0
  148.7202  135.4468  162.5292 H   0  0  0  0  0  0  0  0  0  0  0  0
  147.1980  136.0175  163.1794 H   0  0  0  0  0  0  0  0  0  0  0  0
  147.1713  133.5788  162.8362 H   0  0  0  0  0  0  0  0  0  0  0  0
  145.9473  134.3547  161.8639 H   0  0  0  0  0  0  0  0  0  0  0  0
  148.6565  133.3670  160.8652 H   0  0  0  0  0  0  0  0  0  0  0  0
  147.4939  131.6513  159.7034 H   0  0  0  0  0  0  0  0  0  0  0  0
  147.3961  130.6981  161.8912 H   0  0  0  0  0  0  0  0  0  0  0  0
  146.2505  131.9100  162.4518 H   0  0  0  0  0  0  0  0  0  0  0  0
  145.6726  129.3698  161.0855 H   0  0  0  0  0  0  0  0  0  0  0  0
  144.5828  130.4551  161.9360 H   0  0  0  0  0  0  0  0  0  0  0  0
  145.2458  130.3220  159.0356 H   0  0  0  0  0  0  0  0  0  0  0  0
  143.7790  130.9556  159.7635 H   0  0  0  0  0  0  0  0  0  0  0  0
  145.5567  132.6467  158.6650 H   0  0  0  0  0  0  0  0  0  0  0  0
  144.3607  133.9255  159.7827 H   0  0  0  0  0  0  0  0  0  0  0  0
  150.7365  133.6439  156.7901 H   0  0  0  0  0  0  0  0  0  0  0  0
  145.7645  134.6714  150.9110 H   0  0  0  0  0  0  0  0  0  0  0  0
  147.1437  132.8768  150.1477 H   0  0  0  0  0  0  0  0  0  0  0  0
  146.3897  131.7329  151.2659 H   0  0  0  0  0  0  0  0  0  0  0  0
  145.0359  133.1634  148.9551 H   0  0  0  0  0  0  0  0  0  0  0  0
  145.0286  131.4308  149.3022 H   0  0  0  0  0  0  0  0  0  0  0  0
  144.0498  132.8355  152.6024 H   0  0  0  0  0  0  0  0  0  0  0  0
  143.6103  134.3179  151.7623 H   0  0  0  0  0  0  0  0  0  0  0  0
  1  2  1  0  0  0  0
  1 31  1  0  0  0  0
  2  3  1  0  0  0  0
  2 32  1  0  0  0  0
  2 33  1  0  0  0  0
  3  4  1  0  0  0  0
  3 26  1  0  0  0  0
  3 34  1  0  0  0  0
  4  5  1  0  0  0  0
  4 35  1  0  0  0  0
  4 36  1  0  0  0  0
  5 25  1  0  0  0  0
  5  6  1  0  0  0  0
  6  7  2  0  0  0  0
  6 37  1  0  0  0  0
  7  8  1  0  0  0  0
  8 25  2  0  0  0  0
  8  9  1  0  0  0  0
  9 10  1  0  0  0  0
  9 22  2  0  0  0  0
 10 15  1  0  0  0  0
 10 11  1  0  0  0  0
 11 12  1  0  0  0  0
 11 38  1  0  0  0  0
 11 39  1  0  0  0  0
 12 13  1  0  0  0  0
 12 40  1  0  0  0  0
 12 41  1  0  0  0  0
 13 14  1  0  0  0  0
 13 42  1  0  0  0  0
 13 43  1  0  0  0  0
 14 15  1  0  0  0  0
 14 44  1  0  0  0  0
 14 45  1  0  0  0  0
 15 16  1  0  0  0  0
 15 46  1  0  0  0  0
 16 20  1  0  0  0  0
 16 17  1  0  0  0  0
 16 47  1  0  0  0  0
 17 18  1  0  0  0  0
 17 48  1  0  0  0  0
 17 49  1  0  0  0  0
 18 19  1  0  0  0  0
 18 50  1  0  0  0  0
 18 51  1  0  0  0  0
 19 20  1  0  0  0  0
 19 52  1  0  0  0  0
 19 53  1  0  0  0  0
 20 21  1  0  0  0  0
 20 54  1  0  0  0  0
 21 55  1  0  0  0  0
 22 23  1  0  0  0  0
 23 24  2  0  0  0  0
 23 56  1  0  0  0  0
 24 25  1  0  0  0  0
 26 30  1  0  0  0  0
 26 27  1  0  0  0  0
 26 57  1  0  0  0  0
 27 28  1  0  0  0  0
 27 58  1  0  0  0  0
 27 59  1  0  0  0  0
 28 29  1  0  0  0  0
 28 60  1  0  0  0  0
 28 61  1  0  0  0  0
 29 30  1  0  0  0  0
 30 62  1  0  0  0  0
 30 63  1  0  0  0  0
M  END
> <s_m_source_file>
AV-unprocessed.smi

> <i_m_source_file_index>
148

> <i_lp_mmshare_version>
43012

> <i_f3d_flags>
0

> <s_epik_input>
W0NIMl0xT1tDSDJdW0NIMl1bQ0BIXTFbQ0BIXShbQ0gyXVtPSF0pW0NIMl1uKFtjSF1uMiljKGMyMyluW2NIXW5jM040W0NIMl1bQ0gyXVtDSDJdW0NIMl1bQ0BIXTRbQ0BASF01W0NIMl1bQ0gyXVtDSDJdW0NASF01W09IXQ==

> <s_epik_cmdline>
J2VwaWtfcHl0aG9uJywgJy1waCcsICc3LjAnLCAnLXRuJywgJzgnLCAnLW1hJywgJzIwMCcsICctbWV0YWxfYmluZGluZycsICctaW1hZScsICc8aW5maWxlLm1hZT4nLCAnLW9tYWUnLCAnPG91dGZpbGUubWFlPic=

> <r_lp_tautomer_probability>
1

> <r_epik_Ionization_Penalty>
0.00556303

> <r_epik_Ionization_Penalty_Charging>
0

> <r_epik_Ionization_Penalty_Neutral>
0.00556303

> <r_epik_State_Penalty>
0.00401767

> <r_epik_Charging_Adjusted_Penalty>
0.00401767

> <i_epik_Tot_Q>
0

> <i_epik_Tot_abs_Q>
0

> <r_epik_Metal_State_Penalty>
-0

> <b_epik_Metal_Only>
0

> <s_lp_Force_Field>
OPLS_2005

> <r_lp_Energy>
70.5845

> <b_lp_Chiralities_Consistent>
1

> <s_lp_Variant>
AV-unprocessed.smi:148-22

> <Gold.Version>
5.8.1

> <Gold.Id.Protein>
6NUR|6NUR_protein|mol2

> <Gold.PLP.Fitness>
41.1806

> <Gold.PLP.PLP>
-34.7291

> <Gold.PLP.part.hbond>
-2.0000

> <Gold.PLP.part.metal>
0.0000

> <Gold.PLP.part.buried>
-6.3427

> <Gold.PLP.part.nonpolar>
-27.0718

> <Gold.PLP.part.repulsive>
0.2352

> <Gold.PLP.ligand.clash>
0.0000

> <Gold.PLP.ligand.torsion>
1.5375

> <Gold.PLP.Chemscore.Hbond>
2.0000

> <Gold.PLP.Chemscore.CHOScore>
1.0000

> <Gold.PLP.Chemscore.Metal>
0.0000

> <Gold.Chemscore.Hbonds>
donor molecule, donor type, donor heavy atom, donor atom, acceptor molecule, acceptor atom, score
      L1  H     1    31       P1  7948  1.00
      P1  H  6896  6907       L1    22  1.00
      L1  C     6    37       P1 10957  1.00

> <Gold.PLP.Chemscore.Internal.Correction>
0.5267

> <Gold.Rescore>
     Score         DG    S(hbond)    S(metal)    S(lipo)     H(rot)  DE(clash)    DE(int)     intcor
     12.07     -14.64       1.92        0.00      96.19       3.32       0.11       2.46       ----

> <Gold.Chemscore.Fitness>
12.0693

> <Gold.Chemscore.DG>
-14.6427

> <Gold.Chemscore.ZeroCoef>
-5.4800

> <Gold.Chemscore.Hbond>
1.9186

> <Gold.Chemscore.Metal>
0.0000

> <Gold.Chemscore.Lipo>
96.1927

> <Gold.Chemscore.Internal_Hbond>
0.0000

> <Gold.Chemscore.DEClash>
0.1094

> <Gold.Chemscore.DEInternal>
2.4640

> <Gold.Chemscore.Rot>
3.3203

> <Gold.Chemscore.Internal.Correction>
   9.000000E+99

> <Gold.Chemscore.Hbonds>
donor molecule, donor type, donor heavy atom, donor atom, acceptor molecule, acceptor atom, score
      L1  H     1    31       P1  7948  0.95
      P1  H  6896  6907       L1    22  0.85

> <Gold.Chemscore.Hbond.Weighted>
-6.4081

> <Gold.Chemscore.Metal.Weighted>
-0.0000

> <Gold.Chemscore.Lipo.Weighted>
-11.2545

> <Gold.Chemscore.Internal_Hbond.Weighted>
0.0000

> <Gold.Chemscore.DEClash.Weighted>
0.1094

> <Gold.Chemscore.DEInternal.Weighted>
2.4640

> <Gold.Chemscore.Rot.Weighted>
8.5000

> <Gold.Chemscore.Internal.Correction.Weighted>
   9.000000E+99

> <Gold.Protein.RotatedTorsions>
[ 6907 6896 6895 6894 ] final  -92.66 input  -60.11 | X-H torsion
[ 7974 7965 7964 7962 ] final -113.59 input  175.53 | X-H torsion
[ 8008 7997 7996 7995 ] final -119.57 input   59.86 | X-H torsion
[ 10167 10162 10161 10158 ] final   -0.03 input  -65.29 | X-H torsion
[ 10718 10713 10712 10709 ] final  -62.50 input   66.30 | X-H torsion
[ 10763 10752 10751 10750 ] final   14.55 input  -60.55 | X-H torsion
[ 11005 11000 10999 10996 ] final   84.09 input  -57.11 | X-H torsion

> <Gold.Protein.ActiveResidues>
 VAL166  LYS551  ARG553  GLY616  TRP617  ASP618  TYR619  PRO620  LYS621  CYS622 
 ASP623  PHE694  ASN695  SER759  ASP760  ASP761  ALA762  ILE779  LEU786  VAL792 
 PHE793  MET794  SER795  GLU796  ALA797  LYS798  CYS799  TRP800  GLU811  SER814 

> <Gold.Protein.RotatedAtoms>
  150.6910  134.2087  159.4350 H   0  0  0  0  0  0  0  0  0  0  0  0  # atno 6907 bound_to 6896
  152.0050  134.9905  160.0575 H   0  0  0  0  0  0  0  0  0  0  0  0  # atno 6908 bound_to 6896
  152.1543  133.4506  159.4866 H   0  0  0  0  0  0  0  0  0  0  0  0  # atno 6909 bound_to 6896
  145.1303  140.8720  143.3762 H   0  0  0  0  0  0  0  0  0  0  0  0  # atno 7974 bound_to 7965
  155.1178  140.0398  157.2741 H   0  0  0  0  0  0  0  0  0  0  0  0  # atno 8008 bound_to 7997
  154.6637  140.2596  155.7056 H   0  0  0  0  0  0  0  0  0  0  0  0  # atno 8009 bound_to 7997
  156.2629  140.2812  156.1118 H   0  0  0  0  0  0  0  0  0  0  0  0  # atno 8010 bound_to 7997
  140.6749  143.6943  150.8002 H   0  0  0  0  0  0  0  0  0  0  0  0  # atno 10167 bound_to 10162
  156.0851  130.4210  150.1145 H   0  0  0  0  0  0  0  0  0  0  0  0  # atno 10718 bound_to 10713
  153.1611  135.6796  153.8741 H   0  0  0  0  0  0  0  0  0  0  0  0  # atno 10763 bound_to 10752
  153.8136  135.3139  155.3404 H   0  0  0  0  0  0  0  0  0  0  0  0  # atno 10764 bound_to 10752
  154.7933  135.4822  154.0191 H   0  0  0  0  0  0  0  0  0  0  0  0  # atno 10765 bound_to 10752
  139.9011  134.8192  156.2398 H   0  0  0  0  0  0  0  0  0  0  0  0  # atno 11005 bound_to 11000
  145.0643  139.3081  143.5864 LP  0  0  0  0  0  0  0  0  0  0  0  0  # atno 17320 bound_to 7965
  146.3514  140.0096  142.8668 LP  0  0  0  0  0  0  0  0  0  0  0  0  # atno 17321 bound_to 7965
  140.0635  143.5131  152.2616 LP  0  0  0  0  0  0  0  0  0  0  0  0  # atno 17342 bound_to 10162
  139.6037  144.7590  151.3113 LP  0  0  0  0  0  0  0  0  0  0  0  0  # atno 17343 bound_to 10162
  156.9167  130.9669  151.3555 LP  0  0  0  0  0  0  0  0  0  0  0  0  # atno 17370 bound_to 10713
  157.5982  130.8493  149.8761 LP  0  0  0  0  0  0  0  0  0  0  0  0  # atno 17371 bound_to 10713
  141.0292  133.6998  156.1401 LP  0  0  0  0  0  0  0  0  0  0  0  0  # atno 17394 bound_to 11000
  140.7121  134.4450  157.5581 LP  0  0  0  0  0  0  0  0  0  0  0  0  # atno 17395 bound_to 11000

$$$$
