AV-unprocessed.smi:2524|AV-procd|sdf|9925|dock10
  -GOLD-   2272013563D 1   1.00000     0.00000
 Structure written by MMmdl.
 36 37  0  0  0  0  0  0  0  0  3 V2000
  153.7662  136.7446  164.6326 C   0  0  0  0  0  0  0  0  0  0  0  0
  154.0837  135.6962  163.8584 C   0  0  0  0  0  0  0  0  0  0  0  0
  154.5168  135.7992  162.4111 C   0  0  0  0  0  0  0  0  0  0  0  0
  154.6193  137.2575  161.9480 C   0  0  0  0  0  0  0  0  0  0  0  0
  154.1503  137.4229  160.1671 S   0  0  0  0  0  0  0  0  0  0  0  0
  155.3544  137.8992  159.4653 O   0  0  0  0  0  0  0  0  0  0  0  0
  153.6456  136.0974  159.7780 O   0  0  0  0  0  0  0  0  0  0  0  0
  152.9469  138.5143  160.2283 N   0  5  0  0  0  0  0  0  0  0  0  0
  152.7665  139.5003  159.1694 C   0  0  0  0  0  0  0  0  0  0  0  0
  152.9978  140.9463  159.6556 C   0  0  0  0  0  0  0  0  0  0  0  0
  152.1754  141.9184  158.8409 C   0  0  0  0  0  0  0  0  0  0  0  0
  151.3223  141.4638  157.8052 C   0  0  0  0  0  0  0  0  0  0  0  0
  150.5764  142.3936  157.0529 C   0  0  0  0  0  0  0  0  0  0  0  0
  150.6839  143.7130  157.3180 N   0  3  0  0  0  0  0  0  0  0  0  0
  151.4880  144.1987  158.2875 C   0  0  0  0  0  0  0  0  0  0  0  0
  152.2559  143.3139  159.0711 C   0  0  0  0  0  0  0  0  0  0  0  0
  153.2282  141.2732  161.1244 C   0  0  0  0  0  0  0  0  0  0  0  0
  154.3622  141.4169  160.1377 C   0  0  0  0  0  0  0  0  0  0  0  0
  153.8027  137.7547  164.2516 H   0  0  0  0  0  0  0  0  0  0  0  0
  153.4644  136.6046  165.6600 H   0  0  0  0  0  0  0  0  0  0  0  0
  154.0360  134.6999  164.2734 H   0  0  0  0  0  0  0  0  0  0  0  0
  155.4769  135.2990  162.2781 H   0  0  0  0  0  0  0  0  0  0  0  0
  153.7937  135.2611  161.7977 H   0  0  0  0  0  0  0  0  0  0  0  0
  153.9561  137.8955  162.5324 H   0  0  0  0  0  0  0  0  0  0  0  0
  155.6371  137.6246  162.0766 H   0  0  0  0  0  0  0  0  0  0  0  0
  153.4497  139.3225  158.3380 H   0  0  0  0  0  0  0  0  0  0  0  0
  151.7631  139.4419  158.7463 H   0  0  0  0  0  0  0  0  0  0  0  0
  151.2380  140.4075  157.5941 H   0  0  0  0  0  0  0  0  0  0  0  0
  149.9027  142.1230  156.2531 H   0  0  0  0  0  0  0  0  0  0  0  0
  151.4938  145.2723  158.4064 H   0  0  0  0  0  0  0  0  0  0  0  0
  152.9004  143.7008  159.8472 H   0  0  0  0  0  0  0  0  0  0  0  0
  152.7954  142.1917  161.5154 H   0  0  0  0  0  0  0  0  0  0  0  0
  153.3265  140.4713  161.8550 H   0  0  0  0  0  0  0  0  0  0  0  0
  155.1808  140.7053  160.2368 H   0  0  0  0  0  0  0  0  0  0  0  0
  154.6697  142.4300  159.8859 H   0  0  0  0  0  0  0  0  0  0  0  0
  150.1359  144.3700  156.7620 H   0  0  0  0  0  0  0  0  0  0  0  0
  1  2  2  0  0  0  0
  1 19  1  0  0  0  0
  1 20  1  0  0  0  0
  2  3  1  0  0  0  0
  2 21  1  0  0  0  0
  3  4  1  0  0  0  0
  3 22  1  0  0  0  0
  3 23  1  0  0  0  0
  4  5  1  0  0  0  0
  4 24  1  0  0  0  0
  4 25  1  0  0  0  0
  5  6  2  0  0  0  0
  5  7  2  0  0  0  0
  5  8  1  0  0  0  0
  8  9  1  0  0  0  0
  9 10  1  0  0  0  0
  9 26  1  0  0  0  0
  9 27  1  0  0  0  0
 10 18  1  0  0  0  0
 10 11  1  0  0  0  0
 10 17  1  0  0  0  0
 11 16  1  0  0  0  0
 11 12  2  0  0  0  0
 12 13  1  0  0  0  0
 12 28  1  0  0  0  0
 13 14  2  0  0  0  0
 13 29  1  0  0  0  0
 14 15  1  0  0  0  0
 14 36  1  0  0  0  0
 15 16  2  0  0  0  0
 15 30  1  0  0  0  0
 16 31  1  0  0  0  0
 17 18  1  0  0  0  0
 17 32  1  0  0  0  0
 17 33  1  0  0  0  0
 18 34  1  0  0  0  0
 18 35  1  0  0  0  0
M  CHG  1   8  -1
M  CHG  1  14   1
M  END
> <s_m_source_file>
AV-unprocessed.smi

> <i_m_source_file_index>
2524

> <i_lp_mmshare_version>
43012

> <i_f3d_flags>
0

> <s_epik_input>
W0NIMl09W0NIXVtDSDJdW0NIMl1TKD1PKSg9TylbTkhdW0NIMl1DMShbQ0gyXVtDSDJdMSljMltjSF1bY0hdbltjSF1bY0hdMg==

> <s_epik_cmdline>
J2VwaWtfcHl0aG9uJywgJy1waCcsICc3LjAnLCAnLXRuJywgJzgnLCAnLW1hJywgJzIwMCcsICctbWV0YWxfYmluZGluZycsICctaW1hZScsICc8aW5maWxlLm1hZT4nLCAnLW9tYWUnLCAnPG91dGZpbGUubWFlPic=

> <r_epik_Ionization_Penalty>
7.77019

> <r_epik_Ionization_Penalty_Charging>
7.77019

> <r_epik_Ionization_Penalty_Neutral>
0

> <r_epik_State_Penalty>
8.15763

> <r_epik_Charging_Adjusted_Penalty>
15.9278

> <i_epik_Tot_Q>
0

> <i_epik_Tot_abs_Q>
2

> <r_epik_Metal_State_Penalty>
4.11642

> <b_epik_Metal_Only>
1

> <s_lp_Force_Field>
OPLS_2005

> <r_lp_Energy>
17.0566

> <b_lp_Chiralities_Consistent>
1

> <s_lp_Variant>
AV-unprocessed.smi:2524-4

> <Gold.Version>
5.8.1

> <Gold.Id.Protein>
6NUR|6NUR_protein|mol2

> <Gold.PLP.Fitness>
47.6871

> <Gold.PLP.PLP>
-40.4646

> <Gold.PLP.part.hbond>
-2.0000

> <Gold.PLP.part.metal>
0.0000

> <Gold.PLP.part.buried>
-4.5433

> <Gold.PLP.part.nonpolar>
-34.4200

> <Gold.PLP.part.repulsive>
0.0051

> <Gold.PLP.ligand.clash>
0.0000

> <Gold.PLP.ligand.torsion>
2.1164

> <Gold.PLP.Chemscore.Hbond>
3.0000

> <Gold.PLP.Chemscore.CHOScore>
0.0000

> <Gold.PLP.Chemscore.Metal>
0.0000

> <Gold.Chemscore.Hbonds>
donor molecule, donor type, donor heavy atom, donor atom, acceptor molecule, acceptor atom, score
      L1  H    14    36       P1  8028  2.00
      P1  H  6896  6907       L1     7  1.00

> <Gold.PLP.Chemscore.Internal.Correction>
2.4554

> <Gold.Rescore>
     Score         DG    S(hbond)    S(metal)    S(lipo)     H(rot)  DE(clash)    DE(int)     intcor
     18.95     -21.07       1.93        0.00     115.28       1.70       0.02       2.10       ----

> <Gold.Chemscore.Fitness>
18.9487

> <Gold.Chemscore.DG>
-21.0687

> <Gold.Chemscore.ZeroCoef>
-5.4800

> <Gold.Chemscore.Hbond>
1.9336

> <Gold.Chemscore.Metal>
0.0000

> <Gold.Chemscore.Lipo>
115.2785

> <Gold.Chemscore.Internal_Hbond>
0.0000

> <Gold.Chemscore.DEClash>
0.0154

> <Gold.Chemscore.DEInternal>
2.1047

> <Gold.Chemscore.Rot>
1.7020

> <Gold.Chemscore.Internal.Correction>
   9.000000E+99

> <Gold.Chemscore.Hbonds>
donor molecule, donor type, donor heavy atom, donor atom, acceptor molecule, acceptor atom, score
      L1  H    14    36       P1  8028  0.90
      P1  H  6896  6907       L1     7  1.00

> <Gold.Chemscore.Hbond.Weighted>
-6.4584

> <Gold.Chemscore.Metal.Weighted>
-0.0000

> <Gold.Chemscore.Lipo.Weighted>
-13.4876

> <Gold.Chemscore.Internal_Hbond.Weighted>
0.0000

> <Gold.Chemscore.DEClash.Weighted>
0.0154

> <Gold.Chemscore.DEInternal.Weighted>
2.1047

> <Gold.Chemscore.Rot.Weighted>
4.3572

> <Gold.Chemscore.Internal.Correction.Weighted>
   9.000000E+99

> <Gold.Protein.RotatedTorsions>
[ 6907 6896 6895 6894 ] final   59.04 input  -60.11 | X-H torsion
[ 7974 7965 7964 7962 ] final  -53.63 input  175.53 | X-H torsion
[ 8008 7997 7996 7995 ] final  -82.04 input   59.86 | X-H torsion
[ 10167 10162 10161 10158 ] final   30.02 input  -65.29 | X-H torsion
[ 10718 10713 10712 10709 ] final  -37.31 input   66.30 | X-H torsion
[ 10763 10752 10751 10750 ] final -163.72 input  -60.55 | X-H torsion
[ 11005 11000 10999 10996 ] final   91.53 input  -57.11 | X-H torsion

> <Gold.Protein.ActiveResidues>
 VAL166  LYS551  ARG553  GLY616  TRP617  ASP618  TYR619  PRO620  LYS621  CYS622 
 ASP623  PHE694  ASN695  SER759  ASP760  ASP761  ALA762  ILE779  LEU786  VAL792 
 PHE793  MET794  SER795  GLU796  ALA797  LYS798  CYS799  TRP800  GLU811  SER814 

> <Gold.Protein.RotatedAtoms>
  152.3879  134.6488  160.0118 H   0  0  0  0  0  0  0  0  0  0  0  0  # atno 6907 bound_to 6896
  151.6730  133.3308  159.3209 H   0  0  0  0  0  0  0  0  0  0  0  0  # atno 6908 bound_to 6896
  150.7801  134.6782  159.6474 H   0  0  0  0  0  0  0  0  0  0  0  0  # atno 6909 bound_to 6896
  145.8947  140.8043  142.9774 H   0  0  0  0  0  0  0  0  0  0  0  0  # atno 7974 bound_to 7965
  154.6044  140.0639  156.9412 H   0  0  0  0  0  0  0  0  0  0  0  0  # atno 8008 bound_to 7997
  155.2077  140.3320  155.4315 H   0  0  0  0  0  0  0  0  0  0  0  0  # atno 8009 bound_to 7997
  156.2339  140.1853  156.7155 H   0  0  0  0  0  0  0  0  0  0  0  0  # atno 8010 bound_to 7997
  140.4714  144.0756  150.6238 H   0  0  0  0  0  0  0  0  0  0  0  0  # atno 10167 bound_to 10162
  156.3167  130.4260  149.7999 H   0  0  0  0  0  0  0  0  0  0  0  0  # atno 10718 bound_to 10713
  154.7096  135.3003  154.9217 H   0  0  0  0  0  0  0  0  0  0  0  0  # atno 10763 bound_to 10752
  154.0123  135.6693  153.4770 H   0  0  0  0  0  0  0  0  0  0  0  0  # atno 10764 bound_to 10752
  153.0744  135.5043  154.8287 H   0  0  0  0  0  0  0  0  0  0  0  0  # atno 10765 bound_to 10752
  139.8837  134.8679  156.3441 H   0  0  0  0  0  0  0  0  0  0  0  0  # atno 11005 bound_to 11000
  144.6732  140.1584  143.7424 LP  0  0  0  0  0  0  0  0  0  0  0  0  # atno 17320 bound_to 7965
  145.8865  139.2352  143.1574 LP  0  0  0  0  0  0  0  0  0  0  0  0  # atno 17321 bound_to 7965
  140.3972  143.2722  151.9991 LP  0  0  0  0  0  0  0  0  0  0  0  0  # atno 17342 bound_to 10162
  139.4819  144.6028  151.7575 LP  0  0  0  0  0  0  0  0  0  0  0  0  # atno 17343 bound_to 10162
  156.5322  130.8263  151.3241 LP  0  0  0  0  0  0  0  0  0  0  0  0  # atno 17370 bound_to 10713
  157.7403  130.9847  150.2368 LP  0  0  0  0  0  0  0  0  0  0  0  0  # atno 17371 bound_to 10713
  140.9638  133.7371  156.0439 LP  0  0  0  0  0  0  0  0  0  0  0  0  # atno 17394 bound_to 11000
  140.7956  134.3567  157.5453 LP  0  0  0  0  0  0  0  0  0  0  0  0  # atno 17395 bound_to 11000

$$$$
