AV-unprocessed.smi:127|AV-procd|sdf|1153|dock6
  -GOLD-   2262018293D 1   1.00000     0.00000
 Structure written by MMmdl.
 28 29  0  0  0  0  0  0  0  0  2 V2000
  152.4983  136.3305  156.6043 O   0  0  0  0  0  0  0  0  0  0  0  0
  151.9647  137.2465  155.9412 C   0  0  0  0  0  0  0  0  0  0  0  0
  150.9005  137.1503  155.2920 O   0  5  0  0  0  0  0  0  0  0  0  0
  152.6736  138.6042  155.9257 C   0  0  0  0  0  0  0  0  0  0  0  0
  151.7813  139.7085  156.2497 N   0  0  0  0  0  0  0  0  0  0  0  0
  150.8170  140.0842  155.2799 C   0  0  0  0  0  0  0  0  0  0  0  0
  150.6329  139.4339  154.2494 O   0  0  0  0  0  0  0  0  0  0  0  0
  150.0633  141.2900  155.6063 C   0  0  0  0  0  0  0  0  0  0  0  0
  149.1019  141.7200  154.7712 F   0  0  0  0  0  0  0  0  0  0  0  0
  150.3123  141.9843  156.7369 C   0  0  0  0  0  0  0  0  0  0  0  0
  151.2853  141.6161  157.6500 N   0  0  0  0  0  0  0  0  0  0  0  0
  151.5325  142.4213  158.9065 C   0  0  2  0  0  0  0  0  0  0  0  0
  150.5885  143.6280  158.9563 C   0  0  0  0  0  0  0  0  0  0  0  0
  151.4389  144.7133  158.3331 C   0  0  0  0  0  0  0  0  0  0  0  0
  152.8291  144.3383  158.8338 C   0  0  0  0  0  0  0  0  0  0  0  0
  152.8421  142.9136  158.8864 O   0  0  0  0  0  0  0  0  0  0  0  0
  152.0513  140.4509  157.4257 C   0  0  0  0  0  0  0  0  0  0  0  0
  152.9114  140.0991  158.2369 O   0  0  0  0  0  0  0  0  0  0  0  0
  153.5089  138.6160  156.6277 H   0  0  0  0  0  0  0  0  0  0  0  0
  153.1257  138.7992  154.9520 H   0  0  0  0  0  0  0  0  0  0  0  0
  149.7158  142.8645  156.9243 H   0  0  0  0  0  0  0  0  0  0  0  0
  151.4134  141.7286  159.7411 H   0  0  0  0  0  0  0  0  0  0  0  0
  149.6477  143.4444  158.4358 H   0  0  0  0  0  0  0  0  0  0  0  0
  150.3759  143.8605  160.0005 H   0  0  0  0  0  0  0  0  0  0  0  0
  151.3967  144.6476  157.2453 H   0  0  0  0  0  0  0  0  0  0  0  0
  151.1354  145.7183  158.6271 H   0  0  0  0  0  0  0  0  0  0  0  0
  153.6240  144.7226  158.1942 H   0  0  0  0  0  0  0  0  0  0  0  0
  152.9865  144.7248  159.8416 H   0  0  0  0  0  0  0  0  0  0  0  0
  1  2  2  0  0  0  0
  2  3  1  0  0  0  0
  2  4  1  0  0  0  0
  4  5  1  0  0  0  0
  4 19  1  0  0  0  0
  4 20  1  0  0  0  0
  5 17  1  0  0  0  0
  5  6  1  0  0  0  0
  6  7  2  0  0  0  0
  6  8  1  0  0  0  0
  8  9  1  0  0  0  0
  8 10  2  0  0  0  0
 10 11  1  0  0  0  0
 10 21  1  0  0  0  0
 11 12  1  0  0  0  0
 11 17  1  0  0  0  0
 12 16  1  0  0  0  0
 12 13  1  0  0  0  0
 12 22  1  0  0  0  0
 13 14  1  0  0  0  0
 13 23  1  0  0  0  0
 13 24  1  0  0  0  0
 14 15  1  0  0  0  0
 14 25  1  0  0  0  0
 14 26  1  0  0  0  0
 15 16  1  0  0  0  0
 15 27  1  0  0  0  0
 15 28  1  0  0  0  0
 17 18  2  0  0  0  0
M  CHG  1   3  -1
M  END
> <s_m_source_file>
AV-unprocessed.smi

> <i_m_source_file_index>
127

> <i_lp_mmshare_version>
43012

> <i_f3d_flags>
0

> <s_epik_input>
Tz1DKFtPSF0pW0NIMl1uMWMoPU8pYyhGKVtjSF1uKGMxPU8pW0NAQEhdMltDSDJdW0NIMl1bQ0gyXU8y

> <s_epik_cmdline>
J2VwaWtfcHl0aG9uJywgJy1waCcsICc3LjAnLCAnLXRuJywgJzgnLCAnLW1hJywgJzIwMCcsICctbWV0YWxfYmluZGluZycsICctaW1hZScsICc8aW5maWxlLm1hZT4nLCAnLW9tYWUnLCAnPG91dGZpbGUubWFlPic=

> <r_lp_tautomer_probability>
1

> <r_epik_Ionization_Penalty>
0.00125813

> <r_epik_Ionization_Penalty_Charging>
0.00125813

> <r_epik_Ionization_Penalty_Neutral>
6.20402e-12

> <r_epik_State_Penalty>
0.000832915

> <r_epik_Charging_Adjusted_Penalty>
0.00209104

> <i_epik_Tot_Q>
-1

> <i_epik_Tot_abs_Q>
1

> <r_epik_Metal_State_Penalty>
-0

> <b_epik_Metal_Only>
0

> <s_epik_Chemistry_Notes>
This compound contains an acetal/aminal-like group ( X-CH(R)-Y where X, Y are N, S, or O) that may be acid/base labile, releasing an aldehyde.

> <s_lp_Force_Field>
OPLS_2005

> <r_lp_Energy>
23.3893

> <b_lp_Chiralities_Consistent>
1

> <s_lp_Variant>
AV-unprocessed.smi:127-1

> <Gold.Version>
5.8.1

> <Gold.Id.Protein>
6NUR|6NUR_protein|mol2

> <Gold.PLP.Fitness>
46.2981

> <Gold.PLP.PLP>
-34.1273

> <Gold.PLP.part.hbond>
-3.0000

> <Gold.PLP.part.metal>
0.0000

> <Gold.PLP.part.buried>
-0.1340

> <Gold.PLP.part.nonpolar>
-30.0937

> <Gold.PLP.part.repulsive>
0.2690

> <Gold.PLP.ligand.clash>
0.0000

> <Gold.PLP.ligand.torsion>
0.1619

> <Gold.PLP.Chemscore.Hbond>
3.1500

> <Gold.PLP.Chemscore.CHOScore>
1.0000

> <Gold.PLP.Chemscore.Metal>
0.0000

> <Gold.Chemscore.Hbonds>
donor molecule, donor type, donor heavy atom, donor atom, acceptor molecule, acceptor atom, score
      P1  H  7989  7998       L1     7  0.10
      P1  H  7997  8008       L1    18  0.91
      P1  H 10752 10765       L1     1  2.00
      L1  C    10    21       P1  8028  1.00

> <Gold.PLP.Chemscore.Internal.Correction>
0.0448

> <Gold.Rescore>
     Score         DG    S(hbond)    S(metal)    S(lipo)     H(rot)  DE(clash)    DE(int)     intcor
      9.20     -12.24       1.67        0.00      55.38       2.08       0.09       2.95       ----

> <Gold.Chemscore.Fitness>
9.2032

> <Gold.Chemscore.DG>
-12.2355

> <Gold.Chemscore.ZeroCoef>
-5.4800

> <Gold.Chemscore.Hbond>
1.6740

> <Gold.Chemscore.Metal>
0.0000

> <Gold.Chemscore.Lipo>
55.3849

> <Gold.Chemscore.Internal_Hbond>
0.0000

> <Gold.Chemscore.DEClash>
0.0854

> <Gold.Chemscore.DEInternal>
2.9468

> <Gold.Chemscore.Rot>
2.0765

> <Gold.Chemscore.Internal.Correction>
   9.000000E+99

> <Gold.Chemscore.Hbonds>
donor molecule, donor type, donor heavy atom, donor atom, acceptor molecule, acceptor atom, score
      P1  H  7997  8008       L1    18  0.21
      P1  H 10752 10765       L1     1  0.39

> <Gold.Chemscore.Hbond.Weighted>
-5.5913

> <Gold.Chemscore.Metal.Weighted>
-0.0000

> <Gold.Chemscore.Lipo.Weighted>
-6.4800

> <Gold.Chemscore.Internal_Hbond.Weighted>
0.0000

> <Gold.Chemscore.DEClash.Weighted>
0.0854

> <Gold.Chemscore.DEInternal.Weighted>
2.9468

> <Gold.Chemscore.Rot.Weighted>
5.3159

> <Gold.Chemscore.Internal.Correction.Weighted>
   9.000000E+99

> <Gold.Protein.RotatedTorsions>
[ 6907 6896 6895 6894 ] final  -29.46 input  -60.11 | X-H torsion
[ 7974 7965 7964 7962 ] final  140.14 input  175.53 | X-H torsion
[ 8008 7997 7996 7995 ] final  -84.97 input   59.86 | X-H torsion
[ 10167 10162 10161 10158 ] final   11.38 input  -65.29 | X-H torsion
[ 10718 10713 10712 10709 ] final -131.64 input   66.30 | X-H torsion
[ 10763 10752 10751 10750 ] final -123.56 input  -60.55 | X-H torsion
[ 11005 11000 10999 10996 ] final    9.13 input  -57.11 | X-H torsion

> <Gold.Protein.ActiveResidues>
 VAL166  LYS551  ARG553  GLY616  TRP617  ASP618  TYR619  PRO620  LYS621  CYS622 
 ASP623  PHE694  ASN695  SER759  ASP760  ASP761  ALA762  ILE779  LEU786  VAL792 
 PHE793  MET794  SER795  GLU796  ALA797  LYS798  CYS799  TRP800  GLU811  SER814 

> <Gold.Protein.RotatedAtoms>
  151.1189  135.0068  159.8528 H   0  0  0  0  0  0  0  0  0  0  0  0  # atno 6907 bound_to 6896
  152.5447  134.1747  159.8621 H   0  0  0  0  0  0  0  0  0  0  0  0  # atno 6908 bound_to 6896
  151.1803  133.4684  159.2627 H   0  0  0  0  0  0  0  0  0  0  0  0  # atno 6909 bound_to 6896
  144.9214  139.5163  143.5661 H   0  0  0  0  0  0  0  0  0  0  0  0  # atno 7974 bound_to 7965
  154.6356  140.0598  156.9784 H   0  0  0  0  0  0  0  0  0  0  0  0  # atno 8008 bound_to 7997
  155.1597  140.3281  155.4395 H   0  0  0  0  0  0  0  0  0  0  0  0  # atno 8009 bound_to 7997
  156.2505  140.1933  156.6705 H   0  0  0  0  0  0  0  0  0  0  0  0  # atno 8010 bound_to 7997
  140.6136  143.8356  150.7092 H   0  0  0  0  0  0  0  0  0  0  0  0  # atno 10167 bound_to 10162
  156.2265  130.7011  151.0812 H   0  0  0  0  0  0  0  0  0  0  0  0  # atno 10718 bound_to 10713
  154.8710  135.4094  154.2963 H   0  0  0  0  0  0  0  0  0  0  0  0  # atno 10763 bound_to 10752
  153.3830  135.7012  153.6556 H   0  0  0  0  0  0  0  0  0  0  0  0  # atno 10764 bound_to 10752
  153.5371  135.3655  155.2673 H   0  0  0  0  0  0  0  0  0  0  0  0  # atno 10765 bound_to 10752
  140.5292  134.0483  155.7868 H   0  0  0  0  0  0  0  0  0  0  0  0  # atno 11005 bound_to 11000
  146.3206  139.8096  142.8948 LP  0  0  0  0  0  0  0  0  0  0  0  0  # atno 17320 bound_to 7965
  145.3290  141.0262  143.3457 LP  0  0  0  0  0  0  0  0  0  0  0  0  # atno 17321 bound_to 7965
  140.1930  143.4021  152.1849 LP  0  0  0  0  0  0  0  0  0  0  0  0  # atno 17342 bound_to 10162
  139.5380  144.7229  151.4827 LP  0  0  0  0  0  0  0  0  0  0  0  0  # atno 17343 bound_to 10162
  157.7113  131.0733  150.6491 LP  0  0  0  0  0  0  0  0  0  0  0  0  # atno 17370 bound_to 10713
  156.6556  130.4497  149.5704 LP  0  0  0  0  0  0  0  0  0  0  0  0  # atno 17371 bound_to 10713
  141.1291  133.9333  157.2574 LP  0  0  0  0  0  0  0  0  0  0  0  0  # atno 17394 bound_to 11000
  139.9563  135.0164  156.9138 LP  0  0  0  0  0  0  0  0  0  0  0  0  # atno 17395 bound_to 11000

$$$$
