AV-unprocessed.smi:1019|AV-procd|sdf|4445|dock7
  -GOLD-   22720 2403D 1   1.00000     0.00000
 Structure written by MMmdl.
 44 46  0  0  0  0  0  0  0  0  2 V2000
  146.9988  142.5618  153.9619 C   0  0  0  0  0  0  0  0  0  0  0  0
  147.9944  142.1555  154.9812 N   0  3  1  0  0  0  0  0  0  0  0  0
  147.3382  141.6202  156.2005 C   0  0  0  0  0  0  0  0  0  0  0  0
  146.5754  142.6933  156.9584 C   0  0  0  0  0  0  0  0  0  0  0  0
  147.0401  143.1304  158.2170 C   0  0  0  0  0  0  0  0  0  0  0  0
  146.3365  144.1237  158.9256 C   0  0  0  0  0  0  0  0  0  0  0  0
  145.1671  144.6854  158.3777 C   0  0  0  0  0  0  0  0  0  0  0  0
  144.7016  144.2541  157.1206 C   0  0  0  0  0  0  0  0  0  0  0  0
  145.4047  143.2611  156.4111 C   0  0  0  0  0  0  0  0  0  0  0  0
  149.0412  141.2516  154.4348 C   0  0  0  0  0  0  0  0  0  0  0  0
  150.1253  140.8948  155.4763 C   0  0  1  0  0  0  0  0  0  0  0  0
  151.0158  139.9606  154.9001 O   0  0  0  0  0  0  0  0  0  0  0  0
  150.9544  142.1099  155.9379 C   0  0  0  0  0  0  0  0  0  0  0  0
  151.2076  142.0995  157.3669 N   0  0  0  0  0  0  0  0  0  0  0  0
  151.2374  141.0227  158.1755 C   0  0  0  0  0  0  0  0  0  0  0  0
  151.4757  141.2364  159.4660 N   0  0  0  0  0  0  0  0  0  0  0  0
  151.6250  142.6122  159.4993 C   0  0  0  0  0  0  0  0  0  0  0  0
  151.8926  143.4803  160.5819 C   0  0  0  0  0  0  0  0  0  0  0  0
  151.9975  144.8711  160.3732 C   0  0  0  0  0  0  0  0  0  0  0  0
  151.8369  145.4149  159.0821 C   0  0  0  0  0  0  0  0  0  0  0  0
  151.5706  144.5701  157.9877 C   0  0  0  0  0  0  0  0  0  0  0  0
  151.4663  143.1828  158.2003 C   0  0  0  0  0  0  0  0  0  0  0  0
  146.4342  141.7002  153.6031 H   0  0  0  0  0  0  0  0  0  0  0  0
  147.4728  143.0389  153.1052 H   0  0  0  0  0  0  0  0  0  0  0  0
  146.2923  143.2804  154.3783 H   0  0  0  0  0  0  0  0  0  0  0  0
  146.6215  140.8445  155.9268 H   0  0  0  0  0  0  0  0  0  0  0  0
  148.0789  141.1439  156.8451 H   0  0  0  0  0  0  0  0  0  0  0  0
  147.9363  142.7038  158.6436 H   0  0  0  0  0  0  0  0  0  0  0  0
  146.6941  144.4556  159.8893 H   0  0  0  0  0  0  0  0  0  0  0  0
  144.6280  145.4474  158.9216 H   0  0  0  0  0  0  0  0  0  0  0  0
  143.8051  144.6860  156.7001 H   0  0  0  0  0  0  0  0  0  0  0  0
  145.0399  142.9356  155.4478 H   0  0  0  0  0  0  0  0  0  0  0  0
  148.5973  140.3211  154.0816 H   0  0  0  0  0  0  0  0  0  0  0  0
  149.4790  141.7254  153.5558 H   0  0  0  0  0  0  0  0  0  0  0  0
  149.6736  140.4339  156.3543 H   0  0  0  0  0  0  0  0  0  0  0  0
  150.6293  139.0994  154.9564 H   0  0  0  0  0  0  0  0  0  0  0  0
  151.9155  142.1307  155.4219 H   0  0  0  0  0  0  0  0  0  0  0  0
  150.4454  143.0405  155.6831 H   0  0  0  0  0  0  0  0  0  0  0  0
  151.0682  140.0257  157.7957 H   0  0  0  0  0  0  0  0  0  0  0  0
  152.0167  143.0758  161.5755 H   0  0  0  0  0  0  0  0  0  0  0  0
  152.2025  145.5242  161.2087 H   0  0  0  0  0  0  0  0  0  0  0  0
  151.9192  146.4815  158.9322 H   0  0  0  0  0  0  0  0  0  0  0  0
  151.4467  144.9847  156.9984 H   0  0  0  0  0  0  0  0  0  0  0  0
  148.4707  142.9974  155.2730 H   0  0  0  0  0  0  0  0  0  0  0  0
  1  2  1  0  0  0  0
  1 23  1  0  0  0  0
  1 24  1  0  0  0  0
  1 25  1  0  0  0  0
  2  3  1  0  0  0  0
  2 10  1  0  0  0  0
  2 44  1  0  0  0  0
  3  4  1  0  0  0  0
  3 26  1  0  0  0  0
  3 27  1  0  0  0  0
  4  9  1  0  0  0  0
  4  5  2  0  0  0  0
  5  6  1  0  0  0  0
  5 28  1  0  0  0  0
  6  7  2  0  0  0  0
  6 29  1  0  0  0  0
  7  8  1  0  0  0  0
  7 30  1  0  0  0  0
  8  9  2  0  0  0  0
  8 31  1  0  0  0  0
  9 32  1  0  0  0  0
 10 11  1  0  0  0  0
 10 33  1  0  0  0  0
 10 34  1  0  0  0  0
 11 12  1  0  0  0  0
 11 13  1  0  0  0  0
 11 35  1  0  0  0  0
 12 36  1  0  0  0  0
 13 14  1  0  0  0  0
 13 37  1  0  0  0  0
 13 38  1  0  0  0  0
 14 22  1  0  0  0  0
 14 15  1  0  0  0  0
 15 16  2  0  0  0  0
 15 39  1  0  0  0  0
 16 17  1  0  0  0  0
 17 22  2  0  0  0  0
 17 18  1  0  0  0  0
 18 19  2  0  0  0  0
 18 40  1  0  0  0  0
 19 20  1  0  0  0  0
 19 41  1  0  0  0  0
 20 21  2  0  0  0  0
 20 42  1  0  0  0  0
 21 22  1  0  0  0  0
 21 43  1  0  0  0  0
M  CHG  1   2   1
M  END
> <s_m_source_file>
AV-unprocessed.smi

> <i_m_source_file_index>
1019

> <i_lp_mmshare_version>
43012

> <i_f3d_flags>
0

> <s_epik_input>
W2NIXTFbY0hdW2NIXVtjSF1bY0hdYzFbQ0gyXU4oW0NIM10pW0NIMl1bQ0BIXShbT0hdKVtDSDJdbihbY0hdbjIpYyhjMjMpW2NIXVtjSF1bY0hdW2NIXTM=

> <s_epik_cmdline>
J2VwaWtfcHl0aG9uJywgJy1waCcsICc3LjAnLCAnLXRuJywgJzgnLCAnLW1hJywgJzIwMCcsICctbWV0YWxfYmluZGluZycsICctaW1hZScsICc8aW5maWxlLm1hZT4nLCAnLW9tYWUnLCAnPG91dGZpbGUubWFlPic=

> <r_epik_Ionization_Penalty>
0.0996557

> <r_epik_Ionization_Penalty_Charging>
0.0475377

> <r_epik_Ionization_Penalty_Neutral>
0.0521179

> <r_epik_State_Penalty>
0.0851777

> <r_epik_Charging_Adjusted_Penalty>
0.132715

> <i_epik_Tot_Q>
1

> <i_epik_Tot_abs_Q>
1

> <r_epik_Metal_State_Penalty>
0.0423478

> <b_epik_Metal_Only>
0

> <s_lp_Force_Field>
OPLS_2005

> <r_lp_Energy>
16.033

> <b_lp_Chiralities_Consistent>
1

> <s_lp_Variant>
AV-unprocessed.smi:1019-3

> <Gold.Version>
5.8.1

> <Gold.Id.Protein>
6NUR|6NUR_protein|mol2

> <Gold.PLP.Fitness>
53.6265

> <Gold.PLP.PLP>
-46.7219

> <Gold.PLP.part.hbond>
-2.0000

> <Gold.PLP.part.metal>
0.0000

> <Gold.PLP.part.buried>
-8.2389

> <Gold.PLP.part.nonpolar>
-36.7873

> <Gold.PLP.part.repulsive>
0.1036

> <Gold.PLP.ligand.clash>
0.0000

> <Gold.PLP.ligand.torsion>
1.1085

> <Gold.PLP.Chemscore.Hbond>
3.0000

> <Gold.PLP.Chemscore.CHOScore>
0.0000

> <Gold.PLP.Chemscore.Metal>
0.0000

> <Gold.Chemscore.Hbonds>
donor molecule, donor type, donor heavy atom, donor atom, acceptor molecule, acceptor atom, score
      L1  H     2    44       P1  8028  2.00
      P1  H  7989  7998       L1    12  1.00

> <Gold.PLP.Chemscore.Internal.Correction>
0.1217

> <Gold.Rescore>
     Score         DG    S(hbond)    S(metal)    S(lipo)     H(rot)  DE(clash)    DE(int)     intcor
     17.06     -18.90       1.87        0.00     113.03       2.36       0.50       1.34       ----

> <Gold.Chemscore.Fitness>
17.0559

> <Gold.Chemscore.DG>
-18.8959

> <Gold.Chemscore.ZeroCoef>
-5.4800

> <Gold.Chemscore.Hbond>
1.8674

> <Gold.Chemscore.Metal>
0.0000

> <Gold.Chemscore.Lipo>
113.0303

> <Gold.Chemscore.Internal_Hbond>
0.0000

> <Gold.Chemscore.DEClash>
0.5026

> <Gold.Chemscore.DEInternal>
1.3375

> <Gold.Chemscore.Rot>
2.3616

> <Gold.Chemscore.Internal.Correction>
   9.000000E+99

> <Gold.Chemscore.Hbonds>
donor molecule, donor type, donor heavy atom, donor atom, acceptor molecule, acceptor atom, score
      L1  H     2    44       P1  8028  1.00
      P1  H  7989  7998       L1    12  0.35

> <Gold.Chemscore.Hbond.Weighted>
-6.2371

> <Gold.Chemscore.Metal.Weighted>
-0.0000

> <Gold.Chemscore.Lipo.Weighted>
-13.2245

> <Gold.Chemscore.Internal_Hbond.Weighted>
0.0000

> <Gold.Chemscore.DEClash.Weighted>
0.5026

> <Gold.Chemscore.DEInternal.Weighted>
1.3375

> <Gold.Chemscore.Rot.Weighted>
6.0457

> <Gold.Chemscore.Internal.Correction.Weighted>
   9.000000E+99

> <Gold.Protein.RotatedTorsions>
[ 6907 6896 6895 6894 ] final  146.08 input  -60.11 | X-H torsion
[ 7974 7965 7964 7962 ] final  121.32 input  175.53 | X-H torsion
[ 8008 7997 7996 7995 ] final  -75.61 input   59.86 | X-H torsion
[ 10167 10162 10161 10158 ] final  -43.11 input  -65.29 | X-H torsion
[ 10718 10713 10712 10709 ] final  -76.47 input   66.30 | X-H torsion
[ 10763 10752 10751 10750 ] final  -39.60 input  -60.55 | X-H torsion
[ 11005 11000 10999 10996 ] final   24.07 input  -57.11 | X-H torsion

> <Gold.Protein.ActiveResidues>
 VAL166  LYS551  ARG553  GLY616  TRP617  ASP618  TYR619  PRO620  LYS621  CYS622 
 ASP623  PHE694  ASN695  SER759  ASP760  ASP761  ALA762  ILE779  LEU786  VAL792 
 PHE793  MET794  SER795  GLU796  ALA797  LYS798  CYS799  TRP800  GLU811  SER814 

> <Gold.Protein.RotatedAtoms>
  152.1726  133.4653  159.4916 H   0  0  0  0  0  0  0  0  0  0  0  0  # atno 6907 bound_to 6896
  150.6922  134.1934  159.4303 H   0  0  0  0  0  0  0  0  0  0  0  0  # atno 6908 bound_to 6896
  151.9841  135.0013  160.0609 H   0  0  0  0  0  0  0  0  0  0  0  0  # atno 6909 bound_to 6896
  145.1207  139.3391  143.4715 H   0  0  0  0  0  0  0  0  0  0  0  0  # atno 7974 bound_to 7965
  154.5431  140.0741  156.8544 H   0  0  0  0  0  0  0  0  0  0  0  0  # atno 8008 bound_to 7997
  155.3140  140.3392  155.4225 H   0  0  0  0  0  0  0  0  0  0  0  0  # atno 8009 bound_to 7997
  156.1893  140.1680  156.8109 H   0  0  0  0  0  0  0  0  0  0  0  0  # atno 8010 bound_to 7997
  140.6945  143.3001  151.3305 H   0  0  0  0  0  0  0  0  0  0  0  0  # atno 10167 bound_to 10162
  156.0174  130.4466  150.3199 H   0  0  0  0  0  0  0  0  0  0  0  0  # atno 10718 bound_to 10713
  153.9322  135.6770  153.4745 H   0  0  0  0  0  0  0  0  0  0  0  0  # atno 10763 bound_to 10752
  153.0974  135.4844  154.8801 H   0  0  0  0  0  0  0  0  0  0  0  0  # atno 10764 bound_to 10752
  154.7422  135.3163  154.8665 H   0  0  0  0  0  0  0  0  0  0  0  0  # atno 10765 bound_to 10752
  140.3627  134.2107  155.7671 H   0  0  0  0  0  0  0  0  0  0  0  0  # atno 11005 bound_to 11000
  146.3521  140.1166  142.8602 LP  0  0  0  0  0  0  0  0  0  0  0  0  # atno 17320 bound_to 7965
  145.0743  140.9177  143.4863 LP  0  0  0  0  0  0  0  0  0  0  0  0  # atno 17321 bound_to 7965
  139.6385  144.0584  152.2535 LP  0  0  0  0  0  0  0  0  0  0  0  0  # atno 17342 bound_to 10162
  140.0082  144.6243  150.7670 LP  0  0  0  0  0  0  0  0  0  0  0  0  # atno 17343 bound_to 10162
  157.1299  131.0269  151.2973 LP  0  0  0  0  0  0  0  0  0  0  0  0  # atno 17370 bound_to 10713
  157.4559  130.7625  149.7192 LP  0  0  0  0  0  0  0  0  0  0  0  0  # atno 17371 bound_to 10713
  141.1979  133.8048  157.0607 LP  0  0  0  0  0  0  0  0  0  0  0  0  # atno 17394 bound_to 11000
  140.0613  134.9753  157.1310 LP  0  0  0  0  0  0  0  0  0  0  0  0  # atno 17395 bound_to 11000

$$$$
