AV-unprocessed.smi:576|AV-procd|sdf|2978|dock5
  -GOLD-   2262023483D 1   1.00000     0.00000
 Structure written by MMmdl.
 35 36  0  0  0  0  0  0  0  0  1 V2000
  146.2434  142.6927  157.0270 C   0  0  0  0  0  0  0  0  0  0  0  0
  146.9361  141.7591  156.0209 C   0  0  2  0  0  0  0  0  0  0  0  0
  148.3630  142.0615  155.9661 N   0  0  0  0  0  0  0  0  0  0  0  0
  149.3513  141.1560  155.8987 C   0  0  0  0  0  0  0  0  0  0  0  0
  149.1529  139.9408  155.8647 O   0  0  0  0  0  0  0  0  0  0  0  0
  150.7780  141.7204  155.8437 C   0  0  0  0  0  0  0  0  0  0  0  0
  151.4139  141.8171  157.1683 N   0  0  0  0  0  0  0  0  0  0  0  0
  151.0942  142.9419  157.9541 C   0  0  0  0  0  0  0  0  0  0  0  0
  151.6015  143.1439  159.1854 C   0  0  0  0  0  0  0  0  0  0  0  0
  151.2854  144.3985  159.9848 C   0  0  0  0  0  0  0  0  0  0  0  0
  149.9683  144.5081  160.1531 F   0  0  0  0  0  0  0  0  0  0  0  0
  151.8563  144.3575  161.1889 F   0  0  0  0  0  0  0  0  0  0  0  0
  151.7151  145.4925  159.3546 F   0  0  0  0  0  0  0  0  0  0  0  0
  152.5370  142.1475  159.6691 C   0  0  0  0  0  0  0  0  0  0  0  0
  152.8633  141.0727  158.9252 C   0  0  0  0  0  0  0  0  0  0  0  0
  152.2904  140.8587  157.5944 C   0  0  0  0  0  0  0  0  0  0  0  0
  152.5806  139.8804  156.9053 O   0  0  0  0  0  0  0  0  0  0  0  0
  146.2730  141.8472  154.6593 C   0  0  0  0  0  0  0  0  0  0  0  0
  147.0107  141.4419  153.4056 C   0  0  0  0  0  0  0  0  0  0  0  0
  146.6850  142.8975  153.6561 C   0  0  0  0  0  0  0  0  0  0  0  0
  145.1811  142.4615  157.1078 H   0  0  0  0  0  0  0  0  0  0  0  0
  146.3343  143.7370  156.7264 H   0  0  0  0  0  0  0  0  0  0  0  0
  146.6746  142.5947  158.0239 H   0  0  0  0  0  0  0  0  0  0  0  0
  146.8139  140.7331  156.3737 H   0  0  0  0  0  0  0  0  0  0  0  0
  148.6192  143.0381  155.9841 H   0  0  0  0  0  0  0  0  0  0  0  0
  151.3676  141.0859  155.1807 H   0  0  0  0  0  0  0  0  0  0  0  0
  150.7651  142.7002  155.3622 H   0  0  0  0  0  0  0  0  0  0  0  0
  150.4151  143.6390  157.4849 H   0  0  0  0  0  0  0  0  0  0  0  0
  152.9823  142.2627  160.6463 H   0  0  0  0  0  0  0  0  0  0  0  0
  153.5628  140.3495  159.3184 H   0  0  0  0  0  0  0  0  0  0  0  0
  145.2127  141.6009  154.6768 H   0  0  0  0  0  0  0  0  0  0  0  0
  148.0507  141.1371  153.5034 H   0  0  0  0  0  0  0  0  0  0  0  0
  146.4431  140.9238  152.6353 H   0  0  0  0  0  0  0  0  0  0  0  0
  145.9007  143.3495  153.0524 H   0  0  0  0  0  0  0  0  0  0  0  0
  147.5077  143.5581  153.9226 H   0  0  0  0  0  0  0  0  0  0  0  0
  1  2  1  0  0  0  0
  1 21  1  0  0  0  0
  1 22  1  0  0  0  0
  1 23  1  0  0  0  0
  2  3  1  0  0  0  0
  2 18  1  0  0  0  0
  2 24  1  0  0  0  0
  3  4  1  0  0  0  0
  3 25  1  0  0  0  0
  4  5  2  0  0  0  0
  4  6  1  0  0  0  0
  6  7  1  0  0  0  0
  6 26  1  0  0  0  0
  6 27  1  0  0  0  0
  7 16  1  0  0  0  0
  7  8  1  0  0  0  0
  8  9  2  0  0  0  0
  8 28  1  0  0  0  0
  9 10  1  0  0  0  0
  9 14  1  0  0  0  0
 10 11  1  0  0  0  0
 10 12  1  0  0  0  0
 10 13  1  0  0  0  0
 14 15  2  0  0  0  0
 14 29  1  0  0  0  0
 15 16  1  0  0  0  0
 15 30  1  0  0  0  0
 16 17  2  0  0  0  0
 18 20  1  0  0  0  0
 18 19  1  0  0  0  0
 18 31  1  0  0  0  0
 19 20  1  0  0  0  0
 19 32  1  0  0  0  0
 19 33  1  0  0  0  0
 20 34  1  0  0  0  0
 20 35  1  0  0  0  0
M  END
> <s_m_source_file>
AV-unprocessed.smi

> <i_m_source_file_index>
576

> <i_lp_mmshare_version>
43012

> <i_f3d_flags>
0

> <s_epik_input>
W0NIMl0xW0NIMl1bQ0hdMVtDQEhdKFtDSDNdKVtOSF1DKD1PKVtDSDJdbjJbY0hdYyhDKEYpKEYpRilbY0hdW2NIXWMyPU8=

> <s_epik_cmdline>
J2VwaWtfcHl0aG9uJywgJy1waCcsICc3LjAnLCAnLXRuJywgJzgnLCAnLW1hJywgJzIwMCcsICctbWV0YWxfYmluZGluZycsICctaW1hZScsICc8aW5maWxlLm1hZT4nLCAnLW9tYWUnLCAnPG91dGZpbGUubWFlPic=

> <r_lp_tautomer_probability>
1

> <r_epik_Ionization_Penalty>
3.84201e-08

> <r_epik_Ionization_Penalty_Charging>
1.91184e-08

> <r_epik_Ionization_Penalty_Neutral>
1.93017e-08

> <r_epik_State_Penalty>
-0

> <r_epik_Charging_Adjusted_Penalty>
1.91184e-08

> <i_epik_Tot_Q>
0

> <i_epik_Tot_abs_Q>
0

> <r_epik_Metal_State_Penalty>
-0

> <b_epik_Metal_Only>
0

> <s_lp_Force_Field>
OPLS_2005

> <r_lp_Energy>
24.7521

> <b_lp_Chiralities_Consistent>
1

> <s_lp_Variant>
AV-unprocessed.smi:576-1

> <Gold.Version>
5.8.1

> <Gold.Id.Protein>
6NUR|6NUR_protein|mol2

> <Gold.PLP.Fitness>
50.6096

> <Gold.PLP.PLP>
-43.9604

> <Gold.PLP.part.hbond>
-2.0000

> <Gold.PLP.part.metal>
0.0000

> <Gold.PLP.part.buried>
-6.1528

> <Gold.PLP.part.nonpolar>
-34.4492

> <Gold.PLP.part.repulsive>
0.0479

> <Gold.PLP.ligand.clash>
0.0000

> <Gold.PLP.ligand.torsion>
1.5537

> <Gold.PLP.Chemscore.Hbond>
2.0000

> <Gold.PLP.Chemscore.CHOScore>
0.8826

> <Gold.PLP.Chemscore.Metal>
0.0000

> <Gold.Chemscore.Hbonds>
donor molecule, donor type, donor heavy atom, donor atom, acceptor molecule, acceptor atom, score
      L1  H     3    25       P1  8028  1.00
      P1  H  7997  8010       L1    17  1.00
      L1  C     8    28       P1  8028  0.83

> <Gold.PLP.Chemscore.Internal.Correction>
1.1087

> <Gold.Rescore>
     Score         DG    S(hbond)    S(metal)    S(lipo)     H(rot)  DE(clash)    DE(int)     intcor
     14.31     -16.15       1.75        0.00      79.83       1.77       0.29       1.55       ----

> <Gold.Chemscore.Fitness>
14.3070

> <Gold.Chemscore.DG>
-16.1465

> <Gold.Chemscore.ZeroCoef>
-5.4800

> <Gold.Chemscore.Hbond>
1.7502

> <Gold.Chemscore.Metal>
0.0000

> <Gold.Chemscore.Lipo>
79.8281

> <Gold.Chemscore.Internal_Hbond>
0.0000

> <Gold.Chemscore.DEClash>
0.2933

> <Gold.Chemscore.DEInternal>
1.5461

> <Gold.Chemscore.Rot>
1.7653

> <Gold.Chemscore.Internal.Correction>
   9.000000E+99

> <Gold.Chemscore.Hbonds>
donor molecule, donor type, donor heavy atom, donor atom, acceptor molecule, acceptor atom, score
      L1  H     3    25       P1  8028  0.99
      P1  H  7997  8010       L1    17  0.45

> <Gold.Chemscore.Hbond.Weighted>
-5.8457

> <Gold.Chemscore.Metal.Weighted>
-0.0000

> <Gold.Chemscore.Lipo.Weighted>
-9.3399

> <Gold.Chemscore.Internal_Hbond.Weighted>
0.0000

> <Gold.Chemscore.DEClash.Weighted>
0.2933

> <Gold.Chemscore.DEInternal.Weighted>
1.5461

> <Gold.Chemscore.Rot.Weighted>
4.5191

> <Gold.Chemscore.Internal.Correction.Weighted>
   9.000000E+99

> <Gold.Protein.RotatedTorsions>
[ 6907 6896 6895 6894 ] final -120.33 input  -60.11 | X-H torsion
[ 7974 7965 7964 7962 ] final   -0.48 input  175.53 | X-H torsion
[ 8008 7997 7996 7995 ] final   66.87 input   59.86 | X-H torsion
[ 10167 10162 10161 10158 ] final    3.08 input  -65.29 | X-H torsion
[ 10718 10713 10712 10709 ] final   35.48 input   66.30 | X-H torsion
[ 10763 10752 10751 10750 ] final -105.24 input  -60.55 | X-H torsion
[ 11005 11000 10999 10996 ] final   30.04 input  -57.11 | X-H torsion

> <Gold.Protein.ActiveResidues>
 VAL166  LYS551  ARG553  GLY616  TRP617  ASP618  TYR619  PRO620  LYS621  CYS622 
 ASP623  PHE694  ASN695  SER759  ASP760  ASP761  ALA762  ILE779  LEU786  VAL792 
 PHE793  MET794  SER795  GLU796  ALA797  LYS798  CYS799  TRP800  GLU811  SER814 

> <Gold.Protein.RotatedAtoms>
  150.8384  133.7976  159.3070 H   0  0  0  0  0  0  0  0  0  0  0  0  # atno 6907 bound_to 6896
  151.5685  135.1061  159.9999 H   0  0  0  0  0  0  0  0  0  0  0  0  # atno 6908 bound_to 6896
  152.4452  133.7480  159.6734 H   0  0  0  0  0  0  0  0  0  0  0  0  # atno 6909 bound_to 6896
  146.2427  140.1277  142.8338 H   0  0  0  0  0  0  0  0  0  0  0  0  # atno 7974 bound_to 7965
  155.6841  140.3496  155.4867 H   0  0  0  0  0  0  0  0  0  0  0  0  # atno 8008 bound_to 7997
  155.9582  140.1132  157.0941 H   0  0  0  0  0  0  0  0  0  0  0  0  # atno 8009 bound_to 7997
  154.4137  140.1181  156.5129 H   0  0  0  0  0  0  0  0  0  0  0  0  # atno 8010 bound_to 7997
  140.6604  143.7319  150.7728 H   0  0  0  0  0  0  0  0  0  0  0  0  # atno 10167 bound_to 10162
  157.3232  130.7459  149.6799 H   0  0  0  0  0  0  0  0  0  0  0  0  # atno 10718 bound_to 10713
  154.7933  135.4756  154.0102 H   0  0  0  0  0  0  0  0  0  0  0  0  # atno 10763 bound_to 10752
  153.1664  135.6817  153.8676 H   0  0  0  0  0  0  0  0  0  0  0  0  # atno 10764 bound_to 10752
  153.8273  135.3196  155.3393 H   0  0  0  0  0  0  0  0  0  0  0  0  # atno 10765 bound_to 10752
  140.2985  134.2783  155.7759 H   0  0  0  0  0  0  0  0  0  0  0  0  # atno 11005 bound_to 11000
  145.0353  140.8903  143.5085 LP  0  0  0  0  0  0  0  0  0  0  0  0  # atno 17320 bound_to 7965
  145.1348  139.2609  143.5521 LP  0  0  0  0  0  0  0  0  0  0  0  0  # atno 17321 bound_to 7965
  140.0987  143.4808  152.2438 LP  0  0  0  0  0  0  0  0  0  0  0  0  # atno 17342 bound_to 10162
  139.5836  144.7521  151.3577 LP  0  0  0  0  0  0  0  0  0  0  0  0  # atno 17343 bound_to 10162
  155.9688  130.4217  150.4481 LP  0  0  0  0  0  0  0  0  0  0  0  0  # atno 17370 bound_to 10713
  157.2500  131.0544  151.2385 LP  0  0  0  0  0  0  0  0  0  0  0  0  # atno 17371 bound_to 10713
  141.2132  133.7631  156.9732 LP  0  0  0  0  0  0  0  0  0  0  0  0  # atno 17394 bound_to 11000
  140.1130  134.9465  157.2093 LP  0  0  0  0  0  0  0  0  0  0  0  0  # atno 17395 bound_to 11000

$$$$
