AV-unprocessed.smi:1641|AV-procd|sdf|6564|dock8
  -GOLD-   22720 7253D 1   1.00000     0.00000
 Structure written by MMmdl.
 40 41  0  0  0  0  0  0  0  0  2 V2000
  153.8587  133.6644  165.3027 C   0  0  0  0  0  0  0  0  0  0  0  0
  154.3271  134.7096  164.3493 C   0  0  0  0  0  0  0  0  0  0  0  0
  155.0513  134.4275  163.2633 N   0  0  0  0  0  0  0  0  0  0  0  0
  155.3660  135.5656  162.5349 N   0  0  0  0  0  0  0  0  0  0  0  0
  154.8880  136.6910  163.0851 C   0  0  0  0  0  0  0  0  0  0  0  0
  155.0794  137.9015  162.5349 N   0  5  0  0  0  0  0  0  0  0  0  0
  154.4734  138.2168  161.3675 C   0  0  0  0  0  0  0  0  0  0  0  0
  154.1543  137.4274  160.4755 O   0  0  0  0  0  0  0  0  0  0  0  0
  154.2267  139.5270  161.2280 N   0  0  0  0  0  0  0  0  0  0  0  0
  153.6052  140.1728  160.0772 C   0  0  0  0  0  0  0  0  0  0  0  0
  153.7470  141.6992  160.1912 C   0  0  0  0  0  0  0  0  0  0  0  0
  152.6859  142.4685  159.5430 N   0  0  0  0  0  0  0  0  0  0  0  0
  152.2245  141.8023  158.3323 C   0  0  0  0  0  0  0  0  0  0  0  0
  151.0743  142.5694  157.6562 C   0  0  2  0  0  0  0  0  0  0  0  0
  150.6394  141.9150  156.3408 C   0  0  0  0  0  0  0  0  0  0  0  0
  151.4977  143.9015  157.3711 O   0  0  0  0  0  0  0  0  0  0  0  0
  152.0011  144.6323  158.4907 C   0  0  1  0  0  0  0  0  0  0  0  0
  150.8707  145.0844  159.4310 C   0  0  0  0  0  0  0  0  0  0  0  0
  153.1051  143.8275  159.2067 C   0  0  0  0  0  0  0  0  0  0  0  0
  153.9747  136.4153  164.5681 S   0  0  0  0  0  0  0  0  0  0  0  0
  154.6104  133.5027  166.0755 H   0  0  0  0  0  0  0  0  0  0  0  0
  153.6829  132.7236  164.7804 H   0  0  0  0  0  0  0  0  0  0  0  0
  152.9287  133.9778  165.7774 H   0  0  0  0  0  0  0  0  0  0  0  0
  154.5038  140.1289  161.9895 H   0  0  0  0  0  0  0  0  0  0  0  0
  154.0537  139.8375  159.1407 H   0  0  0  0  0  0  0  0  0  0  0  0
  152.5576  139.8739  160.0551 H   0  0  0  0  0  0  0  0  0  0  0  0
  153.8195  141.9836  161.2421 H   0  0  0  0  0  0  0  0  0  0  0  0
  154.7023  141.9734  159.7407 H   0  0  0  0  0  0  0  0  0  0  0  0
  153.0543  141.6939  157.6318 H   0  0  0  0  0  0  0  0  0  0  0  0
  151.8873  140.7934  158.5735 H   0  0  0  0  0  0  0  0  0  0  0  0
  150.2133  142.5980  158.3246 H   0  0  0  0  0  0  0  0  0  0  0  0
  150.2941  140.8941  156.5062 H   0  0  0  0  0  0  0  0  0  0  0  0
  151.4622  141.8791  155.6262 H   0  0  0  0  0  0  0  0  0  0  0  0
  149.8224  142.4714  155.8807 H   0  0  0  0  0  0  0  0  0  0  0  0
  152.4563  145.5365  158.0855 H   0  0  0  0  0  0  0  0  0  0  0  0
  151.2575  145.7334  160.2168 H   0  0  0  0  0  0  0  0  0  0  0  0
  150.3808  144.2417  159.9186 H   0  0  0  0  0  0  0  0  0  0  0  0
  150.1108  145.6436  158.8851 H   0  0  0  0  0  0  0  0  0  0  0  0
  153.4098  144.3675  160.1025 H   0  0  0  0  0  0  0  0  0  0  0  0
  153.9834  143.7844  158.5606 H   0  0  0  0  0  0  0  0  0  0  0  0
  1  2  1  0  0  0  0
  1 21  1  0  0  0  0
  1 22  1  0  0  0  0
  1 23  1  0  0  0  0
  2 20  1  0  0  0  0
  2  3  2  0  0  0  0
  3  4  1  0  0  0  0
  4  5  2  0  0  0  0
  5  6  1  0  0  0  0
  5 20  1  0  0  0  0
  6  7  1  0  0  0  0
  7  8  2  0  0  0  0
  7  9  1  0  0  0  0
  9 10  1  0  0  0  0
  9 24  1  0  0  0  0
 10 11  1  0  0  0  0
 10 25  1  0  0  0  0
 10 26  1  0  0  0  0
 11 12  1  0  0  0  0
 11 27  1  0  0  0  0
 11 28  1  0  0  0  0
 12 19  1  0  0  0  0
 12 13  1  0  0  0  0
 13 14  1  0  0  0  0
 13 29  1  0  0  0  0
 13 30  1  0  0  0  0
 14 15  1  0  0  0  0
 14 16  1  0  0  0  0
 14 31  1  0  0  0  0
 15 32  1  0  0  0  0
 15 33  1  0  0  0  0
 15 34  1  0  0  0  0
 16 17  1  0  0  0  0
 17 18  1  0  0  0  0
 17 19  1  0  0  0  0
 17 35  1  0  0  0  0
 18 36  1  0  0  0  0
 18 37  1  0  0  0  0
 18 38  1  0  0  0  0
 19 39  1  0  0  0  0
 19 40  1  0  0  0  0
M  CHG  1   6  -1
M  END
> <s_m_source_file>
AV-unprocessed.smi

> <i_m_source_file_index>
1641

> <i_lp_mmshare_version>
43012

> <i_f3d_flags>
0

> <s_epik_input>
W0NIM11jMW5uYyhzMSlbTkhdQyg9TylbTkhdW0NIMl1bQ0gyXU4yW0NIMl1bQ0BASF0oW0NIM10pT1tDQEBIXShbQ0gzXSlbQ0gyXTI=

> <s_epik_cmdline>
J2VwaWtfcHl0aG9uJywgJy1waCcsICc3LjAnLCAnLXRuJywgJzgnLCAnLW1hJywgJzIwMCcsICctbWV0YWxfYmluZGluZycsICctaW1hZScsICc8aW5maWxlLm1hZT4nLCAnLW9tYWUnLCAnPG91dGZpbGUubWFlPic=

> <r_lp_tautomer_probability>
1

> <r_epik_Ionization_Penalty>
3.81681

> <r_epik_Ionization_Penalty_Charging>
3.36369

> <r_epik_Ionization_Penalty_Neutral>
0.45313

> <r_epik_State_Penalty>
3.571

> <r_epik_Charging_Adjusted_Penalty>
6.93469

> <i_epik_Tot_Q>
-1

> <i_epik_Tot_abs_Q>
1

> <r_epik_Metal_State_Penalty>
0.710322

> <b_epik_Metal_Only>
1

> <s_lp_Force_Field>
OPLS_2005

> <r_lp_Energy>
21.0176

> <b_lp_Chiralities_Consistent>
1

> <s_lp_Variant>
AV-unprocessed.smi:1641-9

> <Gold.Version>
5.8.1

> <Gold.Id.Protein>
6NUR|6NUR_protein|mol2

> <Gold.PLP.Fitness>
39.4622

> <Gold.PLP.PLP>
-42.0880

> <Gold.PLP.part.hbond>
0.0000

> <Gold.PLP.part.metal>
0.0000

> <Gold.PLP.part.buried>
-6.9094

> <Gold.PLP.part.nonpolar>
-35.4300

> <Gold.PLP.part.repulsive>
0.1602

> <Gold.PLP.ligand.clash>
0.0000

> <Gold.PLP.ligand.torsion>
1.3161

> <Gold.PLP.Chemscore.Hbond>
0.0000

> <Gold.PLP.Chemscore.CHOScore>
0.0000

> <Gold.PLP.Chemscore.Metal>
0.0000

> <Gold.PLP.Chemscore.Internal.Correction>
0.0063

> <Gold.Rescore>
     Score         DG    S(hbond)    S(metal)    S(lipo)     H(rot)  DE(clash)    DE(int)     intcor
     12.25     -14.52       0.00        0.00     111.59       1.57       0.02       2.25       ----

> <Gold.Chemscore.Fitness>
12.2507

> <Gold.Chemscore.DG>
-14.5205

> <Gold.Chemscore.ZeroCoef>
-5.4800

> <Gold.Chemscore.Hbond>
0.0000

> <Gold.Chemscore.Metal>
0.0000

> <Gold.Chemscore.Lipo>
111.5915

> <Gold.Chemscore.Internal_Hbond>
0.0000

> <Gold.Chemscore.DEClash>
0.0237

> <Gold.Chemscore.DEInternal>
2.2461

> <Gold.Chemscore.Rot>
1.5686

> <Gold.Chemscore.Internal.Correction>
   9.000000E+99

> <Gold.Chemscore.Hbond.Weighted>
-0.0000

> <Gold.Chemscore.Metal.Weighted>
-0.0000

> <Gold.Chemscore.Lipo.Weighted>
-13.0562

> <Gold.Chemscore.Internal_Hbond.Weighted>
0.0000

> <Gold.Chemscore.DEClash.Weighted>
0.0237

> <Gold.Chemscore.DEInternal.Weighted>
2.2461

> <Gold.Chemscore.Rot.Weighted>
4.0157

> <Gold.Chemscore.Internal.Correction.Weighted>
   9.000000E+99

> <Gold.Protein.RotatedTorsions>
[ 6907 6896 6895 6894 ] final  100.89 input  -60.11 | X-H torsion
[ 7974 7965 7964 7962 ] final  118.29 input  175.53 | X-H torsion
[ 8008 7997 7996 7995 ] final -144.35 input   59.86 | X-H torsion
[ 10167 10162 10161 10158 ] final -139.15 input  -65.29 | X-H torsion
[ 10718 10713 10712 10709 ] final  -90.28 input   66.30 | X-H torsion
[ 10763 10752 10751 10750 ] final  144.03 input  -60.55 | X-H torsion
[ 11005 11000 10999 10996 ] final -116.41 input  -57.11 | X-H torsion

> <Gold.Protein.ActiveResidues>
 VAL166  LYS551  ARG553  GLY616  TRP617  ASP618  TYR619  PRO620  LYS621  CYS622 
 ASP623  PHE694  ASN695  SER759  ASP760  ASP761  ALA762  ILE779  LEU786  VAL792 
 PHE793  MET794  SER795  GLU796  ALA797  LYS798  CYS799  TRP800  GLU811  SER814 

> <Gold.Protein.RotatedAtoms>
  152.5362  134.0208  159.7980 H   0  0  0  0  0  0  0  0  0  0  0  0  # atno 6907 bound_to 6896
  151.0395  133.5711  159.2659 H   0  0  0  0  0  0  0  0  0  0  0  0  # atno 6908 bound_to 6896
  151.2686  135.0684  159.9179 H   0  0  0  0  0  0  0  0  0  0  0  0  # atno 6909 bound_to 6896
  145.1569  139.3177  143.4537 H   0  0  0  0  0  0  0  0  0  0  0  0  # atno 7974 bound_to 7965
  155.5254  140.0595  157.2899 H   0  0  0  0  0  0  0  0  0  0  0  0  # atno 8008 bound_to 7997
  154.4503  140.1945  156.0486 H   0  0  0  0  0  0  0  0  0  0  0  0  # atno 8009 bound_to 7997
  156.0689  140.3262  155.7556 H   0  0  0  0  0  0  0  0  0  0  0  0  # atno 8010 bound_to 7997
  139.8408  143.7325  152.2663 H   0  0  0  0  0  0  0  0  0  0  0  0  # atno 10167 bound_to 10162
  155.9987  130.4904  150.5299 H   0  0  0  0  0  0  0  0  0  0  0  0  # atno 10718 bound_to 10713
  153.9822  135.2940  155.3419 H   0  0  0  0  0  0  0  0  0  0  0  0  # atno 10763 bound_to 10752
  154.7262  135.5087  153.8894 H   0  0  0  0  0  0  0  0  0  0  0  0  # atno 10764 bound_to 10752
  153.0849  135.6690  154.0084 H   0  0  0  0  0  0  0  0  0  0  0  0  # atno 10765 bound_to 10752
  141.0424  133.9815  157.2973 H   0  0  0  0  0  0  0  0  0  0  0  0  # atno 11005 bound_to 11000
  146.3487  140.1665  142.8590 LP  0  0  0  0  0  0  0  0  0  0  0  0  # atno 17320 bound_to 7965
  145.0371  140.8917  143.5074 LP  0  0  0  0  0  0  0  0  0  0  0  0  # atno 17321 bound_to 7965
  139.7561  144.7520  151.0433 LP  0  0  0  0  0  0  0  0  0  0  0  0  # atno 17342 bound_to 10162
  140.7798  143.4804  151.0026 LP  0  0  0  0  0  0  0  0  0  0  0  0  # atno 17343 bound_to 10162
  157.3250  131.0689  151.1904 LP  0  0  0  0  0  0  0  0  0  0  0  0  # atno 17370 bound_to 10713
  157.2804  130.6747  149.6063 LP  0  0  0  0  0  0  0  0  0  0  0  0  # atno 17371 bound_to 10713
  139.9286  135.0201  156.8321 LP  0  0  0  0  0  0  0  0  0  0  0  0  # atno 17394 bound_to 11000
  140.6210  133.9994  155.7618 LP  0  0  0  0  0  0  0  0  0  0  0  0  # atno 17395 bound_to 11000

$$$$
