AV-unprocessed.smi:1912|AV-procd|sdf|7751|dock6
  -GOLD-   22720 9493D 1   1.00000     0.00000
 Structure written by MMmdl.
 44 46  0  0  0  0  0  0  0  0  2 V2000
  147.1731  136.0697  161.0993 C   0  0  0  0  0  0  0  0  0  0  0  0
  148.1450  137.0346  160.7231 O   0  0  0  0  0  0  0  0  0  0  0  0
  148.8304  136.8383  159.5437 C   0  0  0  0  0  0  0  0  0  0  0  0
  148.4706  135.8851  158.5628 C   0  0  0  0  0  0  0  0  0  0  0  0
  149.2375  135.7425  157.3921 C   0  0  0  0  0  0  0  0  0  0  0  0
  150.3843  136.5452  157.1720 C   0  0  0  0  0  0  0  0  0  0  0  0
  151.1880  136.4298  156.0559 O   0  0  0  0  0  0  0  0  0  0  0  0
  150.8437  135.4675  155.0700 C   0  0  0  0  0  0  0  0  0  0  0  0
  150.7430  137.5064  158.1480 C   0  0  0  0  0  0  0  0  0  0  0  0
  151.9911  138.3670  157.9541 C   0  0  1  0  0  0  0  0  0  0  0  0
  153.1945  137.6282  158.0410 O   0  0  0  0  0  0  0  0  0  0  0  0
  151.9593  139.1694  156.6324 C   0  0  0  0  0  0  0  0  0  0  0  0
  151.3725  140.5168  156.7649 N   0  0  0  0  0  0  0  0  0  0  0  0
  150.4142  141.1406  156.0182 C   0  0  0  0  0  0  0  0  0  0  0  0
  149.7001  140.5971  154.8254 C   0  0  0  0  0  0  0  0  0  0  0  0
  150.2102  142.3703  156.5679 N   0  3  0  0  0  0  0  0  0  0  0  0
  151.0471  142.5415  157.6700 C   0  0  0  0  0  0  0  0  0  0  0  0
  151.1911  143.6148  158.5438 C   0  0  0  0  0  0  0  0  0  0  0  0
  152.1420  143.4684  159.5747 C   0  0  0  0  0  0  0  0  0  0  0  0
  152.9090  142.2926  159.7033 C   0  0  0  0  0  0  0  0  0  0  0  0
  152.7569  141.2137  158.8081 C   0  0  0  0  0  0  0  0  0  0  0  0
  151.8070  141.3606  157.7965 C   0  0  0  0  0  0  0  0  0  0  0  0
  149.9633  137.6426  159.3193 C   0  0  0  0  0  0  0  0  0  0  0  0
  146.7226  136.3639  162.0471 H   0  0  0  0  0  0  0  0  0  0  0  0
  147.6218  135.0853  161.2392 H   0  0  0  0  0  0  0  0  0  0  0  0
  146.3727  136.0006  160.3615 H   0  0  0  0  0  0  0  0  0  0  0  0
  147.6104  135.2448  158.6860 H   0  0  0  0  0  0  0  0  0  0  0  0
  148.9243  134.9975  156.6769 H   0  0  0  0  0  0  0  0  0  0  0  0
  151.5702  135.5096  154.2589 H   0  0  0  0  0  0  0  0  0  0  0  0
  149.8607  135.6700  154.6423 H   0  0  0  0  0  0  0  0  0  0  0  0
  150.8615  134.4551  155.4756 H   0  0  0  0  0  0  0  0  0  0  0  0
  152.0388  139.0797  158.7778 H   0  0  0  0  0  0  0  0  0  0  0  0
  153.9104  138.1944  157.7952 H   0  0  0  0  0  0  0  0  0  0  0  0
  152.9570  139.2518  156.2010 H   0  0  0  0  0  0  0  0  0  0  0  0
  151.3664  138.6313  155.8925 H   0  0  0  0  0  0  0  0  0  0  0  0
  149.3507  141.4104  154.1891 H   0  0  0  0  0  0  0  0  0  0  0  0
  148.8372  140.0103  155.1402 H   0  0  0  0  0  0  0  0  0  0  0  0
  150.3595  139.9612  154.2354 H   0  0  0  0  0  0  0  0  0  0  0  0
  150.6054  144.5168  158.4456 H   0  0  0  0  0  0  0  0  0  0  0  0
  152.2862  144.2741  160.2797 H   0  0  0  0  0  0  0  0  0  0  0  0
  153.6283  142.2154  160.5058 H   0  0  0  0  0  0  0  0  0  0  0  0
  153.3478  140.3175  158.9219 H   0  0  0  0  0  0  0  0  0  0  0  0
  150.2441  138.3620  160.0747 H   0  0  0  0  0  0  0  0  0  0  0  0
  149.5427  143.0425  156.2124 H   0  0  0  0  0  0  0  0  0  0  0  0
  1  2  1  0  0  0  0
  1 24  1  0  0  0  0
  1 25  1  0  0  0  0
  1 26  1  0  0  0  0
  2  3  1  0  0  0  0
  3 23  1  0  0  0  0
  3  4  2  0  0  0  0
  4  5  1  0  0  0  0
  4 27  1  0  0  0  0
  5  6  2  0  0  0  0
  5 28  1  0  0  0  0
  6  7  1  0  0  0  0
  6  9  1  0  0  0  0
  7  8  1  0  0  0  0
  8 29  1  0  0  0  0
  8 30  1  0  0  0  0
  8 31  1  0  0  0  0
  9 10  1  0  0  0  0
  9 23  2  0  0  0  0
 10 11  1  0  0  0  0
 10 12  1  0  0  0  0
 10 32  1  0  0  0  0
 11 33  1  0  0  0  0
 12 13  1  0  0  0  0
 12 34  1  0  0  0  0
 12 35  1  0  0  0  0
 13 22  1  0  0  0  0
 13 14  1  0  0  0  0
 14 15  1  0  0  0  0
 14 16  2  0  0  0  0
 15 36  1  0  0  0  0
 15 37  1  0  0  0  0
 15 38  1  0  0  0  0
 16 17  1  0  0  0  0
 16 44  1  0  0  0  0
 17 22  2  0  0  0  0
 17 18  1  0  0  0  0
 18 19  2  0  0  0  0
 18 39  1  0  0  0  0
 19 20  1  0  0  0  0
 19 40  1  0  0  0  0
 20 21  2  0  0  0  0
 20 41  1  0  0  0  0
 21 22  1  0  0  0  0
 21 42  1  0  0  0  0
 23 43  1  0  0  0  0
M  CHG  1  16   1
M  END
> <s_m_source_file>
AV-unprocessed.smi

> <i_m_source_file_index>
1912

> <i_lp_mmshare_version>
43012

> <i_f3d_flags>
0

> <s_epik_input>
W0NIM11PYzFbY0hdW2NIXWMoT1tDSDNdKWMoW2NIXTEpW0NASF0oW09IXSlbQ0gyXW4oYyhuMilbQ0gzXSljKGMyMylbY0hdW2NIXVtjSF1bY0hdMw==

> <s_epik_cmdline>
J2VwaWtfcHl0aG9uJywgJy1waCcsICc3LjAnLCAnLXRuJywgJzgnLCAnLW1hJywgJzIwMCcsICctbWV0YWxfYmluZGluZycsICctaW1hZScsICc8aW5maWxlLm1hZT4nLCAnLW9tYWUnLCAnPG91dGZpbGUubWFlPic=

> <r_lp_tautomer_probability>
1

> <r_epik_Ionization_Penalty>
0.963869

> <r_epik_Ionization_Penalty_Charging>
0.963868

> <r_epik_Ionization_Penalty_Neutral>
1.34362e-06

> <r_epik_State_Penalty>
1.00924

> <r_epik_Charging_Adjusted_Penalty>
1.9731

> <i_epik_Tot_Q>
1

> <i_epik_Tot_abs_Q>
1

> <r_epik_Metal_State_Penalty>
4.98304

> <b_epik_Metal_Only>
0

> <s_lp_Force_Field>
OPLS_2005

> <r_lp_Energy>
21.1539

> <b_lp_Chiralities_Consistent>
1

> <s_lp_Variant>
AV-unprocessed.smi:1912-4

> <Gold.Version>
5.8.1

> <Gold.Id.Protein>
6NUR|6NUR_protein|mol2

> <Gold.PLP.Fitness>
47.2753

> <Gold.PLP.PLP>
-38.0307

> <Gold.PLP.part.hbond>
-3.0000

> <Gold.PLP.part.metal>
0.0000

> <Gold.PLP.part.buried>
-2.6477

> <Gold.PLP.part.nonpolar>
-32.2599

> <Gold.PLP.part.repulsive>
0.1008

> <Gold.PLP.ligand.clash>
0.0000

> <Gold.PLP.ligand.torsion>
0.8137

> <Gold.PLP.Chemscore.Hbond>
3.6000

> <Gold.PLP.Chemscore.CHOScore>
0.0000

> <Gold.PLP.Chemscore.Metal>
0.0000

> <Gold.Chemscore.Hbonds>
donor molecule, donor type, donor heavy atom, donor atom, acceptor molecule, acceptor atom, score
      L1  H    16    44       P1  8028  2.00
      P1  H  6931  6943       L1     2  0.91
      P1  H  6934  6947       L1     2  0.40

> <Gold.PLP.Chemscore.Internal.Correction>
0.0721

> <Gold.Rescore>
     Score         DG    S(hbond)    S(metal)    S(lipo)     H(rot)  DE(clash)    DE(int)     intcor
     16.55     -19.00       1.90        0.00     110.40       2.24       0.33       2.12       ----

> <Gold.Chemscore.Fitness>
16.5504

> <Gold.Chemscore.DG>
-18.9993

> <Gold.Chemscore.ZeroCoef>
-5.4800

> <Gold.Chemscore.Hbond>
1.9008

> <Gold.Chemscore.Metal>
0.0000

> <Gold.Chemscore.Lipo>
110.4037

> <Gold.Chemscore.Internal_Hbond>
0.0000

> <Gold.Chemscore.DEClash>
0.3264

> <Gold.Chemscore.DEInternal>
2.1224

> <Gold.Chemscore.Rot>
2.2448

> <Gold.Chemscore.Internal.Correction>
   9.000000E+99

> <Gold.Chemscore.Hbonds>
donor molecule, donor type, donor heavy atom, donor atom, acceptor molecule, acceptor atom, score
      L1  H    16    44       P1  8028  0.99
      P1  H  6931  6943       L1     2  0.72
      P1  H  6934  6947       L1     2  0.21

> <Gold.Chemscore.Hbond.Weighted>
-6.3488

> <Gold.Chemscore.Metal.Weighted>
-0.0000

> <Gold.Chemscore.Lipo.Weighted>
-12.9172

> <Gold.Chemscore.Internal_Hbond.Weighted>
0.0000

> <Gold.Chemscore.DEClash.Weighted>
0.3264

> <Gold.Chemscore.DEInternal.Weighted>
2.1224

> <Gold.Chemscore.Rot.Weighted>
5.7467

> <Gold.Chemscore.Internal.Correction.Weighted>
   9.000000E+99

> <Gold.Protein.RotatedTorsions>
[ 6907 6896 6895 6894 ] final  -18.77 input  -60.11 | X-H torsion
[ 7974 7965 7964 7962 ] final   31.46 input  175.53 | X-H torsion
[ 8008 7997 7996 7995 ] final -113.70 input   59.86 | X-H torsion
[ 10167 10162 10161 10158 ] final   49.44 input  -65.29 | X-H torsion
[ 10718 10713 10712 10709 ] final -146.22 input   66.30 | X-H torsion
[ 10763 10752 10751 10750 ] final   -9.86 input  -60.55 | X-H torsion
[ 11005 11000 10999 10996 ] final   54.41 input  -57.11 | X-H torsion

> <Gold.Protein.ActiveResidues>
 VAL166  LYS551  ARG553  GLY616  TRP617  ASP618  TYR619  PRO620  LYS621  CYS622 
 ASP623  PHE694  ASN695  SER759  ASP760  ASP761  ALA762  ILE779  LEU786  VAL792 
 PHE793  MET794  SER795  GLU796  ALA797  LYS798  CYS799  TRP800  GLU811  SER814 

> <Gold.Protein.RotatedAtoms>
  151.2732  135.0691  159.9141 H   0  0  0  0  0  0  0  0  0  0  0  0  # atno 6907 bound_to 6896
  152.5347  134.0109  159.7948 H   0  0  0  0  0  0  0  0  0  0  0  0  # atno 6908 bound_to 6896
  151.0350  133.5706  159.2687 H   0  0  0  0  0  0  0  0  0  0  0  0  # atno 6909 bound_to 6896
  146.1549  139.6654  142.9074 H   0  0  0  0  0  0  0  0  0  0  0  0  # atno 7974 bound_to 7965
  155.0248  140.0393  157.2451 H   0  0  0  0  0  0  0  0  0  0  0  0  # atno 8008 bound_to 7997
  154.7347  140.2737  155.6401 H   0  0  0  0  0  0  0  0  0  0  0  0  # atno 8009 bound_to 7997
  156.2850  140.2677  156.2057 H   0  0  0  0  0  0  0  0  0  0  0  0  # atno 8010 bound_to 7997
  140.2828  144.3136  150.6260 H   0  0  0  0  0  0  0  0  0  0  0  0  # atno 10167 bound_to 10162
  156.3922  130.7891  151.2094 H   0  0  0  0  0  0  0  0  0  0  0  0  # atno 10718 bound_to 10713
  153.4608  135.7016  153.6051 H   0  0  0  0  0  0  0  0  0  0  0  0  # atno 10763 bound_to 10752
  153.4347  135.3794  155.2192 H   0  0  0  0  0  0  0  0  0  0  0  0  # atno 10764 bound_to 10752
  154.8727  135.3959  154.4033 H   0  0  0  0  0  0  0  0  0  0  0  0  # atno 10765 bound_to 10752
  140.0688  134.5498  155.9069 H   0  0  0  0  0  0  0  0  0  0  0  0  # atno 11005 bound_to 11000
  145.4734  141.0436  143.2686 LP  0  0  0  0  0  0  0  0  0  0  0  0  # atno 17320 bound_to 7965
  144.7950  139.6252  143.7097 LP  0  0  0  0  0  0  0  0  0  0  0  0  # atno 17321 bound_to 7965
  140.5797  143.2173  151.7450 LP  0  0  0  0  0  0  0  0  0  0  0  0  # atno 17342 bound_to 10162
  139.4958  144.4098  152.0093 LP  0  0  0  0  0  0  0  0  0  0  0  0  # atno 17343 bound_to 10162
  157.7499  131.0312  150.4172 LP  0  0  0  0  0  0  0  0  0  0  0  0  # atno 17370 bound_to 10713
  156.4435  130.3996  149.6682 LP  0  0  0  0  0  0  0  0  0  0  0  0  # atno 17371 bound_to 10713
  141.2003  133.6612  156.5892 LP  0  0  0  0  0  0  0  0  0  0  0  0  # atno 17394 bound_to 11000
  140.3658  134.7648  157.4565 LP  0  0  0  0  0  0  0  0  0  0  0  0  # atno 17395 bound_to 11000

$$$$
