AV-unprocessed.smi:249|AV-procd|sdf|1929|dock2
  -GOLD-   2262021 43D 1   1.00000     0.00000
 Structure written by MMmdl.
 64 67  0  0  0  0  0  0  0  0  2 V2000
  151.6282  143.7312  161.3513 C   0  0  0  0  0  0  0  0  0  0  0  0
  152.8454  143.0208  160.7364 C   0  0  0  0  0  0  0  0  0  0  0  0
  152.5972  142.5064  159.3581 N   0  3  1  0  0  0  0  0  0  0  0  0
  152.3062  141.0429  159.3629 C   0  0  0  0  0  0  0  0  0  0  0  0
  152.1671  140.4731  157.9450 C   0  0  0  0  0  0  0  0  0  0  0  0
  151.0654  141.2149  157.1779 C   0  0  2  0  0  0  0  0  0  0  0  0
  150.8536  140.6723  155.8310 N   0  0  0  0  0  0  0  0  0  0  0  0
  151.6305  139.5201  155.3755 C   0  0  0  0  0  0  0  0  0  0  0  0
  149.5850  140.7747  155.3578 C   0  0  0  0  0  0  0  0  0  0  0  0
  148.9392  141.9696  155.4191 N   0  0  0  0  0  0  0  0  0  0  0  0
  147.7002  142.0913  154.9347 C   0  0  0  0  0  0  0  0  0  0  0  0
  146.9340  141.1616  154.3624 N   0  0  0  0  0  0  0  0  0  0  0  0
  147.5670  139.9545  154.3133 C   0  0  0  0  0  0  0  0  0  0  0  0
  148.8850  139.6796  154.7769 C   0  0  0  0  0  0  0  0  0  0  0  0
  149.1989  138.3456  154.5482 N   0  0  0  0  0  0  0  0  0  0  0  0
  148.1333  137.8635  153.9699 C   0  0  0  0  0  0  0  0  0  0  0  0
  147.0913  138.7512  153.8165 N   0  0  0  0  0  0  0  0  0  0  0  0
  145.8050  138.4748  153.1912 C   0  0  0  0  0  0  0  0  0  0  0  0
  145.1759  137.1032  153.5720 C   0  0  1  0  0  0  0  0  0  0  0  0
  144.5434  137.2114  154.9800 C   0  0  0  0  0  0  0  0  0  0  0  0
  143.5064  138.1711  154.9982 O   0  0  0  0  0  0  0  0  0  0  0  0
  144.1192  136.5747  152.5531 C   0  0  1  0  0  0  0  0  0  0  0  0
  144.6331  136.1778  151.1764 C   0  0  0  0  0  0  0  0  0  0  0  0
  145.2124  134.7873  151.4111 C   0  0  0  0  0  0  0  0  0  0  0  0
  144.4264  134.2297  152.4588 O   0  0  0  0  0  0  0  0  0  0  0  0
  143.5326  135.2158  152.9678 C   0  0  0  0  0  0  0  0  0  0  0  0
  151.3931  142.7144  157.1684 C   0  0  0  0  0  0  0  0  0  0  0  0
  151.5547  143.2745  158.5990 C   0  0  2  0  0  0  0  0  0  0  0  0
  151.8587  144.7846  158.5017 C   0  0  0  0  0  0  0  0  0  0  0  0
  151.8078  143.9476  162.4045 H   0  0  0  0  0  0  0  0  0  0  0  0
  150.7357  143.1076  161.2929 H   0  0  0  0  0  0  0  0  0  0  0  0
  151.4122  144.6836  160.8687 H   0  0  0  0  0  0  0  0  0  0  0  0
  153.7138  143.6814  160.7367 H   0  0  0  0  0  0  0  0  0  0  0  0
  153.0795  142.2028  161.4133 H   0  0  0  0  0  0  0  0  0  0  0  0
  153.1025  140.4930  159.8612 H   0  0  0  0  0  0  0  0  0  0  0  0
  151.3929  140.8562  159.9306 H   0  0  0  0  0  0  0  0  0  0  0  0
  153.1217  140.5588  157.4243 H   0  0  0  0  0  0  0  0  0  0  0  0
  151.9358  139.4085  158.0000 H   0  0  0  0  0  0  0  0  0  0  0  0
  150.1453  141.0987  157.7501 H   0  0  0  0  0  0  0  0  0  0  0  0
  151.4823  139.3530  154.3077 H   0  0  0  0  0  0  0  0  0  0  0  0
  151.3355  138.6141  155.9059 H   0  0  0  0  0  0  0  0  0  0  0  0
  152.6974  139.6751  155.5306 H   0  0  0  0  0  0  0  0  0  0  0  0
  147.2598  143.0740  155.0167 H   0  0  0  0  0  0  0  0  0  0  0  0
  148.0725  136.8334  153.6501 H   0  0  0  0  0  0  0  0  0  0  0  0
  145.1488  139.2942  153.4856 H   0  0  0  0  0  0  0  0  0  0  0  0
  145.9069  138.5543  152.1081 H   0  0  0  0  0  0  0  0  0  0  0  0
  145.9658  136.3558  153.6382 H   0  0  0  0  0  0  0  0  0  0  0  0
  144.1482  136.2466  155.2999 H   0  0  0  0  0  0  0  0  0  0  0  0
  145.2704  137.5139  155.7315 H   0  0  0  0  0  0  0  0  0  0  0  0
  143.5878  138.7174  154.2313 H   0  0  0  0  0  0  0  0  0  0  0  0
  143.3304  137.3208  152.4495 H   0  0  0  0  0  0  0  0  0  0  0  0
  143.7876  136.0983  150.4914 H   0  0  0  0  0  0  0  0  0  0  0  0
  145.3284  136.8734  150.7180 H   0  0  0  0  0  0  0  0  0  0  0  0
  145.1805  134.1682  150.5144 H   0  0  0  0  0  0  0  0  0  0  0  0
  146.2489  134.8516  151.7439 H   0  0  0  0  0  0  0  0  0  0  0  0
  143.3910  135.0903  154.0401 H   0  0  0  0  0  0  0  0  0  0  0  0
  142.5605  135.0696  152.4942 H   0  0  0  0  0  0  0  0  0  0  0  0
  152.3107  142.9009  156.6097 H   0  0  0  0  0  0  0  0  0  0  0  0
  150.5982  143.2507  156.6479 H   0  0  0  0  0  0  0  0  0  0  0  0
  150.6036  143.1551  159.1209 H   0  0  0  0  0  0  0  0  0  0  0  0
  151.1758  145.2745  157.8066 H   0  0  0  0  0  0  0  0  0  0  0  0
  152.8731  144.9658  158.1453 H   0  0  0  0  0  0  0  0  0  0  0  0
  151.7322  145.2975  159.4543 H   0  0  0  0  0  0  0  0  0  0  0  0
  153.4609  142.6284  158.8488 H   0  0  0  0  0  0  0  0  0  0  0  0
  1  2  1  0  0  0  0
  1 30  1  0  0  0  0
  1 31  1  0  0  0  0
  1 32  1  0  0  0  0
  2  3  1  0  0  0  0
  2 33  1  0  0  0  0
  2 34  1  0  0  0  0
  3 28  1  0  0  0  0
  3  4  1  0  0  0  0
  3 64  1  0  0  0  0
  4  5  1  0  0  0  0
  4 35  1  0  0  0  0
  4 36  1  0  0  0  0
  5  6  1  0  0  0  0
  5 37  1  0  0  0  0
  5 38  1  0  0  0  0
  6  7  1  0  0  0  0
  6 27  1  0  0  0  0
  6 39  1  0  0  0  0
  7  8  1  0  0  0  0
  7  9  1  0  0  0  0
  8 40  1  0  0  0  0
  8 41  1  0  0  0  0
  8 42  1  0  0  0  0
  9 14  1  0  0  0  0
  9 10  2  0  0  0  0
 10 11  1  0  0  0  0
 11 12  2  0  0  0  0
 11 43  1  0  0  0  0
 12 13  1  0  0  0  0
 13 17  1  0  0  0  0
 13 14  2  0  0  0  0
 14 15  1  0  0  0  0
 15 16  2  0  0  0  0
 16 17  1  0  0  0  0
 16 44  1  0  0  0  0
 17 18  1  0  0  0  0
 18 19  1  0  0  0  0
 18 45  1  0  0  0  0
 18 46  1  0  0  0  0
 19 20  1  0  0  0  0
 19 22  1  0  0  0  0
 19 47  1  0  0  0  0
 20 21  1  0  0  0  0
 20 48  1  0  0  0  0
 20 49  1  0  0  0  0
 21 50  1  0  0  0  0
 22 26  1  0  0  0  0
 22 23  1  0  0  0  0
 22 51  1  0  0  0  0
 23 24  1  0  0  0  0
 23 52  1  0  0  0  0
 23 53  1  0  0  0  0
 24 25  1  0  0  0  0
 24 54  1  0  0  0  0
 24 55  1  0  0  0  0
 25 26  1  0  0  0  0
 26 56  1  0  0  0  0
 26 57  1  0  0  0  0
 27 28  1  0  0  0  0
 27 58  1  0  0  0  0
 27 59  1  0  0  0  0
 28 29  1  0  0  0  0
 28 60  1  0  0  0  0
 29 61  1  0  0  0  0
 29 62  1  0  0  0  0
 29 63  1  0  0  0  0
M  CHG  1   3   1
M  END
> <s_m_source_file>
AV-unprocessed.smi

> <i_m_source_file_index>
249

> <i_lp_mmshare_version>
43012

> <i_f3d_flags>
0

> <s_epik_input>
W0NIM11bQ0gyXU4xW0NIMl1bQ0gyXVtDQEhdKFtDSDJdW0NASF0xW0NIM10pTihbQ0gzXSljKG5bY0hdbjIpYyhjMjMpbltjSF1uM1tDSDJdW0NASF0oW0NIMl1bT0hdKVtDQEBIXTRbQ0gyXVtDSDJdT1tDSDJdNA==

> <s_epik_cmdline>
J2VwaWtfcHl0aG9uJywgJy1waCcsICc3LjAnLCAnLXRuJywgJzgnLCAnLW1hJywgJzIwMCcsICctbWV0YWxfYmluZGluZycsICctaW1hZScsICc8aW5maWxlLm1hZT4nLCAnLW9tYWUnLCAnPG91dGZpbGUubWFlPic=

> <r_lp_tautomer_probability>
1

> <r_epik_Ionization_Penalty>
0.00294688

> <r_epik_Ionization_Penalty_Charging>
0.00169971

> <r_epik_Ionization_Penalty_Neutral>
0.00124717

> <r_epik_State_Penalty>
-0

> <r_epik_Charging_Adjusted_Penalty>
0.00169971

> <i_epik_Tot_Q>
1

> <i_epik_Tot_abs_Q>
1

> <r_epik_Metal_State_Penalty>
-0

> <b_epik_Metal_Only>
0

> <s_lp_Force_Field>
OPLS_2005

> <r_lp_Energy>
57.6505

> <b_lp_Chiralities_Consistent>
1

> <s_lp_Variant>
AV-unprocessed.smi:249-32

> <Gold.Version>
5.8.1

> <Gold.Id.Protein>
6NUR|6NUR_protein|mol2

> <Gold.PLP.Fitness>
48.9805

> <Gold.PLP.PLP>
-44.9474

> <Gold.PLP.part.hbond>
-1.0000

> <Gold.PLP.part.metal>
0.0000

> <Gold.PLP.part.buried>
-2.7839

> <Gold.PLP.part.nonpolar>
-43.1024

> <Gold.PLP.part.repulsive>
0.8781

> <Gold.PLP.ligand.clash>
0.0000

> <Gold.PLP.ligand.torsion>
1.8871

> <Gold.PLP.Chemscore.Hbond>
0.8480

> <Gold.PLP.Chemscore.CHOScore>
1.3708

> <Gold.PLP.Chemscore.Metal>
0.0000

> <Gold.Chemscore.Hbonds>
donor molecule, donor type, donor heavy atom, donor atom, acceptor molecule, acceptor atom, score
      L1  C    11    43       P1  8028  0.61
      L1  C    16    44       P1  7948  0.80

> <Gold.PLP.Chemscore.Internal.Correction>
1.1511

> <Gold.Rescore>
     Score         DG    S(hbond)    S(metal)    S(lipo)     H(rot)  DE(clash)    DE(int)     intcor
      8.33     -15.20       0.93        0.00     114.45       2.65       2.39       4.47       ----

> <Gold.Chemscore.Fitness>
8.3320

> <Gold.Chemscore.DG>
-15.1981

> <Gold.Chemscore.ZeroCoef>
-5.4800

> <Gold.Chemscore.Hbond>
0.9326

> <Gold.Chemscore.Metal>
0.0000

> <Gold.Chemscore.Lipo>
114.4535

> <Gold.Chemscore.Internal_Hbond>
0.0000

> <Gold.Chemscore.DEClash>
2.3922

> <Gold.Chemscore.DEInternal>
4.4738

> <Gold.Chemscore.Rot>
2.6515

> <Gold.Chemscore.Internal.Correction>
   9.000000E+99

> <Gold.Chemscore.Hbonds>
donor molecule, donor type, donor heavy atom, donor atom, acceptor molecule, acceptor atom, score
      L1  H    21    50       P1 10175  0.04

> <Gold.Chemscore.Hbond.Weighted>
-3.1150

> <Gold.Chemscore.Metal.Weighted>
-0.0000

> <Gold.Chemscore.Lipo.Weighted>
-13.3911

> <Gold.Chemscore.Internal_Hbond.Weighted>
0.0000

> <Gold.Chemscore.DEClash.Weighted>
2.3922

> <Gold.Chemscore.DEInternal.Weighted>
4.4738

> <Gold.Chemscore.Rot.Weighted>
6.7880

> <Gold.Chemscore.Internal.Correction.Weighted>
   9.000000E+99

> <Gold.Protein.RotatedTorsions>
[ 6907 6896 6895 6894 ] final   70.21 input  -60.11 | X-H torsion
[ 7974 7965 7964 7962 ] final  -77.47 input  175.53 | X-H torsion
[ 8008 7997 7996 7995 ] final  -17.58 input   59.86 | X-H torsion
[ 10167 10162 10161 10158 ] final  -78.54 input  -65.29 | X-H torsion
[ 10718 10713 10712 10709 ] final -165.54 input   66.30 | X-H torsion
[ 10763 10752 10751 10750 ] final -124.64 input  -60.55 | X-H torsion
[ 11005 11000 10999 10996 ] final  -69.25 input  -57.11 | X-H torsion

> <Gold.Protein.ActiveResidues>
 VAL166  LYS551  ARG553  GLY616  TRP617  ASP618  TYR619  PRO620  LYS621  CYS622 
 ASP623  PHE694  ASN695  SER759  ASP760  ASP761  ALA762  ILE779  LEU786  VAL792 
 PHE793  MET794  SER795  GLU796  ALA797  LYS798  CYS799  TRP800  GLU811  SER814 

> <Gold.Protein.RotatedAtoms>
  152.4735  134.4901  159.9692 H   0  0  0  0  0  0  0  0  0  0  0  0  # atno 6907 bound_to 6896
  151.4922  133.3516  159.2863 H   0  0  0  0  0  0  0  0  0  0  0  0  # atno 6908 bound_to 6896
  150.8759  134.8169  159.7251 H   0  0  0  0  0  0  0  0  0  0  0  0  # atno 6909 bound_to 6896
  145.5993  140.9412  143.1250 H   0  0  0  0  0  0  0  0  0  0  0  0  # atno 7974 bound_to 7965
  154.4968  140.2139  155.9430 H   0  0  0  0  0  0  0  0  0  0  0  0  # atno 8008 bound_to 7997
  156.1381  140.3185  155.8420 H   0  0  0  0  0  0  0  0  0  0  0  0  # atno 8009 bound_to 7997
  155.4172  140.0494  157.3019 H   0  0  0  0  0  0  0  0  0  0  0  0  # atno 8010 bound_to 7997
  140.4673  143.2436  151.8258 H   0  0  0  0  0  0  0  0  0  0  0  0  # atno 10167 bound_to 10162
  156.6549  130.9022  151.3019 H   0  0  0  0  0  0  0  0  0  0  0  0  # atno 10718 bound_to 10713
  154.8726  135.4057  154.3138 H   0  0  0  0  0  0  0  0  0  0  0  0  # atno 10763 bound_to 10752
  153.3978  135.7017  153.6453 H   0  0  0  0  0  0  0  0  0  0  0  0  # atno 10764 bound_to 10752
  153.5209  135.3687  155.2602 H   0  0  0  0  0  0  0  0  0  0  0  0  # atno 10765 bound_to 10752
  141.1550  133.6760  156.6570 H   0  0  0  0  0  0  0  0  0  0  0  0  # atno 11005 bound_to 11000
  144.7317  139.7706  143.7344 LP  0  0  0  0  0  0  0  0  0  0  0  0  # atno 17320 bound_to 7965
  146.1588  139.4695  143.0001 LP  0  0  0  0  0  0  0  0  0  0  0  0  # atno 17321 bound_to 7965
  139.4814  144.4935  151.9154 LP  0  0  0  0  0  0  0  0  0  0  0  0  # atno 17342 bound_to 10162
  140.4020  144.2481  150.5892 LP  0  0  0  0  0  0  0  0  0  0  0  0  # atno 17343 bound_to 10162
  157.7129  130.9461  150.1151 LP  0  0  0  0  0  0  0  0  0  0  0  0  # atno 17370 bound_to 10713
  156.2055  130.3663  149.8734 LP  0  0  0  0  0  0  0  0  0  0  0  0  # atno 17371 bound_to 10713
  140.3276  134.7955  157.4301 LP  0  0  0  0  0  0  0  0  0  0  0  0  # atno 17394 bound_to 11000
  140.1043  134.5430  155.8323 LP  0  0  0  0  0  0  0  0  0  0  0  0  # atno 17395 bound_to 11000

$$$$
