AV-unprocessed.smi:2629|AV-procd|sdf|10244|dock8
  -GOLD-   2272014253D 1   1.00000     0.00000
 Structure written by MMmdl.
 24 25  0  0  0  0  0  0  0  0  3 V2000
  151.6032  136.3944  154.2503 O   0  0  0  0  0  0  0  0  0  0  0  0
  151.3161  137.5192  154.6529 C   0  0  0  0  0  0  0  0  0  0  0  0
  149.9869  138.1349  154.2898 N   0  0  0  0  0  0  0  0  0  0  0  0
  149.7098  139.2861  154.7091 N   0  3  0  0  0  0  0  0  0  0  0  0
  150.5615  140.0990  155.5260 C   0  0  0  0  0  0  0  0  0  0  0  0
  150.1428  141.3548  155.9236 N   0  0  0  0  0  0  0  0  0  0  0  0
  150.9875  142.2531  156.6946 C   0  0  0  0  0  0  0  0  0  0  0  0
  150.4498  142.3786  158.1306 C   0  0  0  0  0  0  0  0  0  0  0  0
  149.0891  142.8008  158.0954 O   0  0  0  0  0  0  0  0  0  0  0  0
  148.2555  141.8778  157.3995 C   0  0  0  0  0  0  0  0  0  0  0  0
  148.7405  141.7397  155.9460 C   0  0  0  0  0  0  0  0  0  0  0  0
  151.7859  139.5434  155.8668 C   0  0  0  0  0  0  0  0  0  0  0  0
  152.7664  139.9283  156.5408 O   0  5  0  0  0  0  0  0  0  0  0  0
  152.1267  138.2687  155.4200 N   0  0  0  0  0  0  0  0  0  0  0  0
  148.8084  139.6695  154.4457 H   0  0  0  0  0  0  0  0  0  0  0  0
  151.0019  143.2293  156.2089 H   0  0  0  0  0  0  0  0  0  0  0  0
  152.0147  141.8863  156.7038 H   0  0  0  0  0  0  0  0  0  0  0  0
  150.5326  141.4282  158.6603 H   0  0  0  0  0  0  0  0  0  0  0  0
  151.0351  143.1084  158.6901 H   0  0  0  0  0  0  0  0  0  0  0  0
  148.2649  140.9108  157.9051 H   0  0  0  0  0  0  0  0  0  0  0  0
  147.2275  142.2397  157.4212 H   0  0  0  0  0  0  0  0  0  0  0  0
  148.1404  141.0007  155.4138 H   0  0  0  0  0  0  0  0  0  0  0  0
  148.6246  142.6859  155.4164 H   0  0  0  0  0  0  0  0  0  0  0  0
  153.0288  137.9076  155.6946 H   0  0  0  0  0  0  0  0  0  0  0  0
  1  2  2  0  0  0  0
  2 14  1  0  0  0  0
  2  3  1  0  0  0  0
  3  4  2  0  0  0  0
  4 15  1  0  0  0  0
  4  5  1  0  0  0  0
  5 12  2  0  0  0  0
  5  6  1  0  0  0  0
  6 11  1  0  0  0  0
  6  7  1  0  0  0  0
  7  8  1  0  0  0  0
  7 16  1  0  0  0  0
  7 17  1  0  0  0  0
  8  9  1  0  0  0  0
  8 18  1  0  0  0  0
  8 19  1  0  0  0  0
  9 10  1  0  0  0  0
 10 11  1  0  0  0  0
 10 20  1  0  0  0  0
 10 21  1  0  0  0  0
 11 22  1  0  0  0  0
 11 23  1  0  0  0  0
 12 13  1  0  0  0  0
 12 14  1  0  0  0  0
 14 24  1  0  0  0  0
M  CHG  1   4   1
M  CHG  1  13  -1
M  END
> <s_m_source_file>
AV-unprocessed.smi

> <i_m_source_file_index>
2629

> <i_lp_mmshare_version>
43012

> <i_f3d_flags>
0

> <s_epik_input>
Tz1jMVtuSF1uYyhjKD1PKVtuSF0xKU4yW0NIMl1bQ0gyXU9bQ0gyXVtDSDJdMg==

> <s_epik_cmdline>
J2VwaWtfcHl0aG9uJywgJy1waCcsICc3LjAnLCAnLXRuJywgJzgnLCAnLW1hJywgJzIwMCcsICctbWV0YWxfYmluZGluZycsICctaW1hZScsICc8aW5maWxlLm1hZT4nLCAnLW9tYWUnLCAnPG91dGZpbGUubWFlPic=

> <r_lp_tautomer_probability>
1

> <r_epik_Ionization_Penalty>
6.1095

> <r_epik_Ionization_Penalty_Charging>
6.1095

> <r_epik_Ionization_Penalty_Neutral>
3.71443e-10

> <r_epik_State_Penalty>
-0

> <r_epik_Charging_Adjusted_Penalty>
6.1095

> <i_epik_Tot_Q>
0

> <i_epik_Tot_abs_Q>
2

> <r_epik_Metal_State_Penalty>
6.62767

> <b_epik_Metal_Only>
0

> <s_lp_Force_Field>
OPLS_2005

> <r_lp_Energy>
17.9127

> <b_lp_Chiralities_Consistent>
1

> <s_lp_Variant>
AV-unprocessed.smi:2629-1

> <Gold.Version>
5.8.1

> <Gold.Id.Protein>
6NUR|6NUR_protein|mol2

> <Gold.PLP.Fitness>
26.7619

> <Gold.PLP.PLP>
-17.8869

> <Gold.PLP.part.hbond>
-1.9971

> <Gold.PLP.part.metal>
0.0000

> <Gold.PLP.part.buried>
-1.5168

> <Gold.PLP.part.nonpolar>
-15.7966

> <Gold.PLP.part.repulsive>
2.2886

> <Gold.PLP.ligand.clash>
0.0000

> <Gold.PLP.ligand.torsion>
0.0985

> <Gold.PLP.Chemscore.Hbond>
3.0000

> <Gold.PLP.Chemscore.CHOScore>
0.0000

> <Gold.PLP.Chemscore.Metal>
0.0000

> <Gold.Chemscore.Hbonds>
donor molecule, donor type, donor heavy atom, donor atom, acceptor molecule, acceptor atom, score
      P1  H  7997  8010       L1    13  2.00
      P1  H 10752 10765       L1     1  0.98

> <Gold.PLP.Chemscore.Internal.Correction>
0.0720

> <Gold.Rescore>
     Score         DG    S(hbond)    S(metal)    S(lipo)     H(rot)  DE(clash)    DE(int)     intcor
     13.23     -14.53       1.96        0.00      21.45       0.00       0.00       1.29       ----

> <Gold.Chemscore.Fitness>
13.2345

> <Gold.Chemscore.DG>
-14.5285

> <Gold.Chemscore.ZeroCoef>
-5.4800

> <Gold.Chemscore.Hbond>
1.9576

> <Gold.Chemscore.Metal>
0.0000

> <Gold.Chemscore.Lipo>
21.4534

> <Gold.Chemscore.Internal_Hbond>
0.0000

> <Gold.Chemscore.DEClash>
0.0000

> <Gold.Chemscore.DEInternal>
1.2940

> <Gold.Chemscore.Rot>
0.0000

> <Gold.Chemscore.Internal.Correction>
   9.000000E+99

> <Gold.Chemscore.Hbonds>
donor molecule, donor type, donor heavy atom, donor atom, acceptor molecule, acceptor atom, score
      P1  H  7997  8010       L1    13  0.98
      P1  H 10752 10765       L1     1  0.92

> <Gold.Chemscore.Hbond.Weighted>
-6.5384

> <Gold.Chemscore.Metal.Weighted>
-0.0000

> <Gold.Chemscore.Lipo.Weighted>
-2.5100

> <Gold.Chemscore.Internal_Hbond.Weighted>
0.0000

> <Gold.Chemscore.DEClash.Weighted>
0.0000

> <Gold.Chemscore.DEInternal.Weighted>
1.2940

> <Gold.Chemscore.Rot.Weighted>
0.0000

> <Gold.Chemscore.Internal.Correction.Weighted>
   9.000000E+99

> <Gold.Protein.RotatedTorsions>
[ 6907 6896 6895 6894 ] final  -76.45 input  -60.11 | X-H torsion
[ 7974 7965 7964 7962 ] final    2.41 input  175.53 | X-H torsion
[ 8008 7997 7996 7995 ] final   66.25 input   59.86 | X-H torsion
[ 10167 10162 10161 10158 ] final    0.66 input  -65.29 | X-H torsion
[ 10718 10713 10712 10709 ] final  109.73 input   66.30 | X-H torsion
[ 10763 10752 10751 10750 ] final  160.16 input  -60.55 | X-H torsion
[ 11005 11000 10999 10996 ] final  103.54 input  -57.11 | X-H torsion

> <Gold.Protein.ActiveResidues>
 VAL166  LYS551  ARG553  GLY616  TRP617  ASP618  TYR619  PRO620  LYS621  CYS622 
 ASP623  PHE694  ASN695  SER759  ASP760  ASP761  ALA762  ILE779  LEU786  VAL792 
 PHE793  MET794  SER795  GLU796  ALA797  LYS798  CYS799  TRP800  GLU811  SER814 

> <Gold.Protein.RotatedAtoms>
  150.7027  134.4570  159.5362 H   0  0  0  0  0  0  0  0  0  0  0  0  # atno 6907 bound_to 6896
  152.2252  134.8372  160.0490 H   0  0  0  0  0  0  0  0  0  0  0  0  # atno 6908 bound_to 6896
  151.9208  133.3550  159.3933 H   0  0  0  0  0  0  0  0  0  0  0  0  # atno 6909 bound_to 6896
  146.2443  140.0840  142.8355 H   0  0  0  0  0  0  0  0  0  0  0  0  # atno 7974 bound_to 7965
  155.6744  140.3497  155.4831 H   0  0  0  0  0  0  0  0  0  0  0  0  # atno 8008 bound_to 7997
  155.9661  140.1146  157.0876 H   0  0  0  0  0  0  0  0  0  0  0  0  # atno 8009 bound_to 7997
  154.4154  140.1166  156.5229 H   0  0  0  0  0  0  0  0  0  0  0  0  # atno 8010 bound_to 7997
  140.6718  143.7026  150.7939 H   0  0  0  0  0  0  0  0  0  0  0  0  # atno 10167 bound_to 10162
  157.6528  131.0919  150.6497 H   0  0  0  0  0  0  0  0  0  0  0  0  # atno 10718 bound_to 10713
  154.2430  135.2774  155.2846 H   0  0  0  0  0  0  0  0  0  0  0  0  # atno 10763 bound_to 10752
  154.5529  135.5670  153.6941 H   0  0  0  0  0  0  0  0  0  0  0  0  # atno 10764 bound_to 10752
  152.9996  135.6279  154.2575 H   0  0  0  0  0  0  0  0  0  0  0  0  # atno 10765 bound_to 10752
  139.8784  134.9267  156.5225 H   0  0  0  0  0  0  0  0  0  0  0  0  # atno 11005 bound_to 11000
  145.0708  140.9154  143.4883 LP  0  0  0  0  0  0  0  0  0  0  0  0  # atno 17320 bound_to 7965
  145.0974  139.2847  143.5704 LP  0  0  0  0  0  0  0  0  0  0  0  0  # atno 17321 bound_to 7965
  140.0713  143.5058  152.2578 LP  0  0  0  0  0  0  0  0  0  0  0  0  # atno 17342 bound_to 10162
  139.5991  144.7576  151.3216 LP  0  0  0  0  0  0  0  0  0  0  0  0  # atno 17343 bound_to 10162
  156.6806  130.4566  149.5629 LP  0  0  0  0  0  0  0  0  0  0  0  0  # atno 17370 bound_to 10713
  156.1932  130.6573  151.1084 LP  0  0  0  0  0  0  0  0  0  0  0  0  # atno 17371 bound_to 10713
  140.8440  133.8183  155.9103 LP  0  0  0  0  0  0  0  0  0  0  0  0  # atno 17394 bound_to 11000
  140.9209  134.2142  157.4927 LP  0  0  0  0  0  0  0  0  0  0  0  0  # atno 17395 bound_to 11000

$$$$
