AV-unprocessed.smi:100|AV-procd|sdf|906|dock4
  -GOLD-   2262017403D 1   1.00000     0.00000
 Structure written by MMmdl.
 31 33  0  0  0  0  0  0  0  0  1 V2000
  149.8631  138.1044  153.4999 N   0  0  0  0  0  0  0  0  0  0  0  0
  150.1323  138.4009  154.7789 C   0  0  0  0  0  0  0  0  0  0  0  0
  150.2967  137.3814  155.6542 N   0  0  0  0  0  0  0  0  0  0  0  0
  150.5666  137.6516  156.9355 C   0  0  0  0  0  0  0  0  0  0  0  0
  150.7084  138.8409  157.5262 N   0  0  0  0  0  0  0  0  0  0  0  0
  150.5422  139.8677  156.6427 C   0  0  0  0  0  0  0  0  0  0  0  0
  150.2532  139.7303  155.2567 C   0  0  0  0  0  0  0  0  0  0  0  0
  150.1518  140.9834  154.6681 N   0  0  0  0  0  0  0  0  0  0  0  0
  150.3673  141.8115  155.6548 C   0  0  0  0  0  0  0  0  0  0  0  0
  150.6138  141.2260  156.8776 N   0  0  0  0  0  0  0  0  0  0  0  0
  150.8927  141.9144  158.1742 C   0  0  1  0  0  0  0  0  0  0  0  0
  151.5946  141.0326  158.9965 O   0  0  0  0  0  0  0  0  0  0  0  0
  152.5430  141.7557  159.7830 C   0  0  1  0  0  0  0  0  0  0  0  0
  153.9417  141.1189  159.6538 C   0  0  0  0  0  0  0  0  0  0  0  0
  153.9164  139.8635  159.0064 O   0  0  0  0  0  0  0  0  0  0  0  0
  152.4286  143.2279  159.3577 C   0  0  2  0  0  0  0  0  0  0  0  0
  151.5975  143.8312  160.2131 F   0  0  0  0  0  0  0  0  0  0  0  0
  151.7971  143.1297  157.9764 C   0  0  2  0  0  0  0  0  0  0  0  0
  151.0983  144.3164  157.6552 O   0  0  0  0  0  0  0  0  0  0  0  0
  149.7366  138.8474  152.8278 H   0  0  0  0  0  0  0  0  0  0  0  0
  149.7879  137.1399  153.2111 H   0  0  0  0  0  0  0  0  0  0  0  0
  150.6862  136.7934  157.5801 H   0  0  0  0  0  0  0  0  0  0  0  0
  150.3550  142.8829  155.5155 H   0  0  0  0  0  0  0  0  0  0  0  0
  149.9207  142.1487  158.6125 H   0  0  0  0  0  0  0  0  0  0  0  0
  152.2329  141.6512  160.8240 H   0  0  0  0  0  0  0  0  0  0  0  0
  154.5822  141.7716  159.0605 H   0  0  0  0  0  0  0  0  0  0  0  0
  154.4118  141.0203  160.6326 H   0  0  0  0  0  0  0  0  0  0  0  0
  153.0369  139.7003  158.7015 H   0  0  0  0  0  0  0  0  0  0  0  0
  153.3701  143.7778  159.3751 H   0  0  0  0  0  0  0  0  0  0  0  0
  152.5554  142.9122  157.2233 H   0  0  0  0  0  0  0  0  0  0  0  0
  150.5194  144.1346  156.9307 H   0  0  0  0  0  0  0  0  0  0  0  0
  1  2  1  0  0  0  0
  1 20  1  0  0  0  0
  1 21  1  0  0  0  0
  2  7  1  0  0  0  0
  2  3  2  0  0  0  0
  3  4  1  0  0  0  0
  4  5  2  0  0  0  0
  4 22  1  0  0  0  0
  5  6  1  0  0  0  0
  6 10  1  0  0  0  0
  6  7  2  0  0  0  0
  7  8  1  0  0  0  0
  8  9  2  0  0  0  0
  9 10  1  0  0  0  0
  9 23  1  0  0  0  0
 10 11  1  0  0  0  0
 11 18  1  0  0  0  0
 11 12  1  0  0  0  0
 11 24  1  0  0  0  0
 12 13  1  0  0  0  0
 13 14  1  0  0  0  0
 13 16  1  0  0  0  0
 13 25  1  0  0  0  0
 14 15  1  0  0  0  0
 14 26  1  0  0  0  0
 14 27  1  0  0  0  0
 15 28  1  0  0  0  0
 16 17  1  0  0  0  0
 16 18  1  0  0  0  0
 16 29  1  0  0  0  0
 18 19  1  0  0  0  0
 18 30  1  0  0  0  0
 19 31  1  0  0  0  0
M  END
> <s_m_source_file>
AV-unprocessed.smi

> <i_m_source_file_index>
100

> <i_lp_mmshare_version>
43012

> <i_f3d_flags>
0

> <s_epik_input>
bjFbY0hdbmMoW05IMl0pYyhjMTIpbltjSF1uMltDQEBIXTNPW0NAQEhdKFtDSDJdW09IXSlbQ0BIXShGKVtDQEhdM1tPSF0=

> <s_epik_cmdline>
J2VwaWtfcHl0aG9uJywgJy1waCcsICc3LjAnLCAnLXRuJywgJzgnLCAnLW1hJywgJzIwMCcsICctbWV0YWxfYmluZGluZycsICctaW1hZScsICc8aW5maWxlLm1hZT4nLCAnLW9tYWUnLCAnPG91dGZpbGUubWFlPic=

> <r_lp_tautomer_probability>
1

> <r_epik_Ionization_Penalty>
0.000750324

> <r_epik_Ionization_Penalty_Charging>
0

> <r_epik_Ionization_Penalty_Neutral>
0.000750324

> <r_epik_State_Penalty>
-0

> <r_epik_Charging_Adjusted_Penalty>
0

> <i_epik_Tot_Q>
0

> <i_epik_Tot_abs_Q>
0

> <r_epik_Metal_State_Penalty>
-0

> <b_epik_Metal_Only>
0

> <s_epik_Chemistry_Notes>
This compound contains an acetal/aminal-like group ( X-CH(R)-Y where X, Y are N, S, or O) that may be acid/base labile, releasing an aldehyde.

> <s_lp_Force_Field>
OPLS_2005

> <r_lp_Energy>
36.265

> <b_lp_Chiralities_Consistent>
1

> <s_lp_Variant>
AV-unprocessed.smi:100-10

> <Gold.Version>
5.8.1

> <Gold.Id.Protein>
6NUR|6NUR_protein|mol2

> <Gold.PLP.Fitness>
45.2601

> <Gold.PLP.PLP>
-32.4436

> <Gold.PLP.part.hbond>
-5.5949

> <Gold.PLP.part.metal>
0.0000

> <Gold.PLP.part.buried>
-3.7044

> <Gold.PLP.part.nonpolar>
-23.3214

> <Gold.PLP.part.repulsive>
0.2676

> <Gold.PLP.ligand.clash>
0.0000

> <Gold.PLP.ligand.torsion>
1.3100

> <Gold.PLP.Chemscore.Hbond>
4.1414

> <Gold.PLP.Chemscore.CHOScore>
1.0000

> <Gold.PLP.Chemscore.Metal>
0.0000

> <Gold.Chemscore.Hbonds>
donor molecule, donor type, donor heavy atom, donor atom, acceptor molecule, acceptor atom, score
      L1  H     1    20       P1  7957  0.98
      L1  H     1    21       P1  7948  0.72
      L1  H    19    31       P1  8028  0.75
      P1  H  7989  7998       L1     8  0.67
      P1  H  7997  8009       L1    15  0.99
      L1  C     9    23       P1  8028  1.00

> <Gold.PLP.Chemscore.Internal.Correction>
0.0124

> <Gold.Rescore>
     Score         DG    S(hbond)    S(metal)    S(lipo)     H(rot)  DE(clash)    DE(int)     intcor
     11.30     -14.19       3.37        0.00      48.10       3.19       0.12       2.77       ----

> <Gold.Chemscore.Fitness>
11.3032

> <Gold.Chemscore.DG>
-14.1891

> <Gold.Chemscore.ZeroCoef>
-5.4800

> <Gold.Chemscore.Hbond>
3.3677

> <Gold.Chemscore.Metal>
0.0000

> <Gold.Chemscore.Lipo>
48.1004

> <Gold.Chemscore.Internal_Hbond>
0.0000

> <Gold.Chemscore.DEClash>
0.1160

> <Gold.Chemscore.DEInternal>
2.7698

> <Gold.Chemscore.Rot>
3.1901

> <Gold.Chemscore.Internal.Correction>
   9.000000E+99

> <Gold.Chemscore.Hbonds>
donor molecule, donor type, donor heavy atom, donor atom, acceptor molecule, acceptor atom, score
      L1  H     1    20       P1  7957  0.78
      L1  H     1    21       P1  7948  0.32
      L1  H    19    31       P1  8028  0.69
      P1  H  7989  7998       L1     8  0.14
      P1  H  7997  8009       L1    15  0.27

> <Gold.Chemscore.Hbond.Weighted>
-11.2480

> <Gold.Chemscore.Metal.Weighted>
-0.0000

> <Gold.Chemscore.Lipo.Weighted>
-5.6277

> <Gold.Chemscore.Internal_Hbond.Weighted>
0.0000

> <Gold.Chemscore.DEClash.Weighted>
0.1160

> <Gold.Chemscore.DEInternal.Weighted>
2.7698

> <Gold.Chemscore.Rot.Weighted>
8.1667

> <Gold.Chemscore.Internal.Correction.Weighted>
   9.000000E+99

> <Gold.Protein.RotatedTorsions>
[ 6907 6896 6895 6894 ] final   27.86 input  -60.11 | X-H torsion
[ 7974 7965 7964 7962 ] final   64.04 input  175.53 | X-H torsion
[ 8008 7997 7996 7995 ] final  122.60 input   59.86 | X-H torsion
[ 10167 10162 10161 10158 ] final  158.49 input  -65.29 | X-H torsion
[ 10718 10713 10712 10709 ] final -174.86 input   66.30 | X-H torsion
[ 10763 10752 10751 10750 ] final  148.93 input  -60.55 | X-H torsion
[ 11005 11000 10999 10996 ] final -120.68 input  -57.11 | X-H torsion

> <Gold.Protein.ActiveResidues>
 VAL166  LYS551  ARG553  GLY616  TRP617  ASP618  TYR619  PRO620  LYS621  CYS622 
 ASP623  PHE694  ASN695  SER759  ASP760  ASP761  ALA762  ILE779  LEU786  VAL792 
 PHE793  MET794  SER795  GLU796  ALA797  LYS798  CYS799  TRP800  GLU811  SER814 

> <Gold.Protein.RotatedAtoms>
  152.0085  134.9889  160.0567 H   0  0  0  0  0  0  0  0  0  0  0  0  # atno 6907 bound_to 6896
  152.1451  133.4483  159.4794 H   0  0  0  0  0  0  0  0  0  0  0  0  # atno 6908 bound_to 6896
  150.6869  134.2176  159.4427 H   0  0  0  0  0  0  0  0  0  0  0  0  # atno 6909 bound_to 6896
  145.8549  139.3277  143.0853 H   0  0  0  0  0  0  0  0  0  0  0  0  # atno 7974 bound_to 7965
  156.2734  140.2782  156.1494 H   0  0  0  0  0  0  0  0  0  0  0  0  # atno 8008 bound_to 7997
  155.0869  140.0388  157.2674 H   0  0  0  0  0  0  0  0  0  0  0  0  # atno 8009 bound_to 7997
  154.6920  140.2631  155.6809 H   0  0  0  0  0  0  0  0  0  0  0  0  # atno 8010 bound_to 7997
  139.4827  144.4820  151.8431 H   0  0  0  0  0  0  0  0  0  0  0  0  # atno 10167 bound_to 10162
  156.7913  130.9519  151.3120 H   0  0  0  0  0  0  0  0  0  0  0  0  # atno 10718 bound_to 10713
  154.0628  135.2873  155.3322 H   0  0  0  0  0  0  0  0  0  0  0  0  # atno 10763 bound_to 10752
  154.6797  135.5268  153.8250 H   0  0  0  0  0  0  0  0  0  0  0  0  # atno 10764 bound_to 10752
  153.0516  135.6578  154.0815 H   0  0  0  0  0  0  0  0  0  0  0  0  # atno 10765 bound_to 10752
  141.0126  134.0242  157.3393 H   0  0  0  0  0  0  0  0  0  0  0  0  # atno 11005 bound_to 11000
  145.9315  140.9045  143.0354 LP  0  0  0  0  0  0  0  0  0  0  0  0  # atno 17320 bound_to 7965
  144.6728  140.1425  143.7436 LP  0  0  0  0  0  0  0  0  0  0  0  0  # atno 17321 bound_to 7965
  140.4296  144.2133  150.5888 LP  0  0  0  0  0  0  0  0  0  0  0  0  # atno 17342 bound_to 10162
  140.4792  143.2385  151.8979 LP  0  0  0  0  0  0  0  0  0  0  0  0  # atno 17343 bound_to 10162
  157.6599  130.8957  149.9808 LP  0  0  0  0  0  0  0  0  0  0  0  0  # atno 17370 bound_to 10713
  156.1157  130.3648  149.9972 LP  0  0  0  0  0  0  0  0  0  0  0  0  # atno 17371 bound_to 10713
  139.9098  135.0188  156.7644 LP  0  0  0  0  0  0  0  0  0  0  0  0  # atno 17394 bound_to 11000
  140.6708  133.9561  155.7856 LP  0  0  0  0  0  0  0  0  0  0  0  0  # atno 17395 bound_to 11000

$$$$
