AV-unprocessed.smi:1793|AV-procd|sdf|7229|dock7
  -GOLD-   22720 8473D 1   1.00000     0.00000
 Structure written by MMmdl.
 47 49  0  0  0  0  0  0  0  0  2 V2000
  152.2170  144.5049  158.2664 C   0  0  0  0  0  0  0  0  0  0  0  0
  151.3403  143.3110  158.6712 C   0  0  1  0  0  0  0  0  0  0  0  0
  151.2788  142.3675  157.5561 N   0  0  0  0  0  0  0  0  0  0  0  0
  150.1709  141.9989  156.8973 C   0  0  0  0  0  0  0  0  0  0  0  0
  149.0442  142.4194  157.1582 O   0  0  0  0  0  0  0  0  0  0  0  0
  150.4601  141.1294  155.9150 N   0  0  0  0  0  0  0  0  0  0  0  0
  149.5720  140.5772  154.9496 C   0  0  0  0  0  0  0  0  0  0  0  0
  148.3646  141.2381  154.6057 C   0  0  0  0  0  0  0  0  0  0  0  0
  147.4673  140.6388  153.7020 C   0  0  0  0  0  0  0  0  0  0  0  0
  147.7820  139.3783  153.1671 C   0  0  0  0  0  0  0  0  0  0  0  0
  148.9320  138.7697  153.5226 N   0  3  0  0  0  0  0  0  0  0  0  0
  149.8442  139.3008  154.3751 C   0  0  0  0  0  0  0  0  0  0  0  0
  151.0093  138.5454  154.6434 N   0  0  0  0  0  0  0  0  0  0  0  0
  152.3242  139.1749  154.6013 C   0  0  0  0  0  0  0  0  0  0  0  0
  153.2655  138.1739  155.2658 C   0  0  0  0  0  0  0  0  0  0  0  0
  152.3785  137.5520  156.3399 C   0  0  0  0  0  0  0  0  0  0  0  0
  150.9873  137.5365  155.6980 C   0  0  0  0  0  0  0  0  0  0  0  0
  151.8758  142.6052  159.9323 C   0  0  2  0  0  0  0  0  0  0  0  0
  152.0511  143.5107  161.1517 C   0  0  0  0  0  0  0  0  0  0  0  0
  153.0804  142.7708  161.9891 C   0  0  0  0  0  0  0  0  0  0  0  0
  153.7582  141.8241  160.9936 C   0  0  0  0  0  0  0  0  0  0  0  0
  153.1999  142.1394  159.7246 O   0  0  0  0  0  0  0  0  0  0  0  0
  152.2618  145.2478  159.0632 H   0  0  0  0  0  0  0  0  0  0  0  0
  151.8200  145.0007  157.3798 H   0  0  0  0  0  0  0  0  0  0  0  0
  153.2382  144.1926  158.0454 H   0  0  0  0  0  0  0  0  0  0  0  0
  150.3435  143.6953  158.8944 H   0  0  0  0  0  0  0  0  0  0  0  0
  152.1572  141.9644  157.2649 H   0  0  0  0  0  0  0  0  0  0  0  0
  151.4403  140.9407  155.7644 H   0  0  0  0  0  0  0  0  0  0  0  0
  148.0996  142.1899  155.0409 H   0  0  0  0  0  0  0  0  0  0  0  0
  146.5453  141.1343  153.4346 H   0  0  0  0  0  0  0  0  0  0  0  0
  147.1522  138.8389  152.4745 H   0  0  0  0  0  0  0  0  0  0  0  0
  152.6281  139.3984  153.5783 H   0  0  0  0  0  0  0  0  0  0  0  0
  152.3187  140.1052  155.1707 H   0  0  0  0  0  0  0  0  0  0  0  0
  153.5697  137.4120  154.5468 H   0  0  0  0  0  0  0  0  0  0  0  0
  154.1653  138.6391  155.6696 H   0  0  0  0  0  0  0  0  0  0  0  0
  152.7134  136.5616  156.6489 H   0  0  0  0  0  0  0  0  0  0  0  0
  152.3680  138.1931  157.2223 H   0  0  0  0  0  0  0  0  0  0  0  0
  150.2082  137.7274  156.4370 H   0  0  0  0  0  0  0  0  0  0  0  0
  150.7978  136.5628  155.2459 H   0  0  0  0  0  0  0  0  0  0  0  0
  151.2408  141.7560  160.1931 H   0  0  0  0  0  0  0  0  0  0  0  0
  152.4547  144.4772  160.8462 H   0  0  0  0  0  0  0  0  0  0  0  0
  151.1179  143.6891  161.6869 H   0  0  0  0  0  0  0  0  0  0  0  0
  153.7891  143.4602  162.4489 H   0  0  0  0  0  0  0  0  0  0  0  0
  152.6005  142.2010  162.7856 H   0  0  0  0  0  0  0  0  0  0  0  0
  154.8417  141.9434  160.9772 H   0  0  0  0  0  0  0  0  0  0  0  0
  153.5343  140.7851  161.2385 H   0  0  0  0  0  0  0  0  0  0  0  0
  149.1309  137.8545  153.1182 H   0  0  0  0  0  0  0  0  0  0  0  0
  1  2  1  0  0  0  0
  1 23  1  0  0  0  0
  1 24  1  0  0  0  0
  1 25  1  0  0  0  0
  2  3  1  0  0  0  0
  2 18  1  0  0  0  0
  2 26  1  0  0  0  0
  3  4  1  0  0  0  0
  3 27  1  0  0  0  0
  4  5  2  0  0  0  0
  4  6  1  0  0  0  0
  6  7  1  0  0  0  0
  6 28  1  0  0  0  0
  7 12  1  0  0  0  0
  7  8  2  0  0  0  0
  8  9  1  0  0  0  0
  8 29  1  0  0  0  0
  9 10  2  0  0  0  0
  9 30  1  0  0  0  0
 10 11  1  0  0  0  0
 10 31  1  0  0  0  0
 11 12  2  0  0  0  0
 11 47  1  0  0  0  0
 12 13  1  0  0  0  0
 13 17  1  0  0  0  0
 13 14  1  0  0  0  0
 14 15  1  0  0  0  0
 14 32  1  0  0  0  0
 14 33  1  0  0  0  0
 15 16  1  0  0  0  0
 15 34  1  0  0  0  0
 15 35  1  0  0  0  0
 16 17  1  0  0  0  0
 16 36  1  0  0  0  0
 16 37  1  0  0  0  0
 17 38  1  0  0  0  0
 17 39  1  0  0  0  0
 18 22  1  0  0  0  0
 18 19  1  0  0  0  0
 18 40  1  0  0  0  0
 19 20  1  0  0  0  0
 19 41  1  0  0  0  0
 19 42  1  0  0  0  0
 20 21  1  0  0  0  0
 20 43  1  0  0  0  0
 20 44  1  0  0  0  0
 21 22  1  0  0  0  0
 21 45  1  0  0  0  0
 21 46  1  0  0  0  0
M  CHG  1  11   1
M  END
> <s_m_source_file>
AV-unprocessed.smi

> <i_m_source_file_index>
1793

> <i_lp_mmshare_version>
43012

> <i_f3d_flags>
0

> <s_epik_input>
TzFbQ0gyXVtDSDJdW0NIMl1bQ0BIXTFbQ0BIXShbQ0gzXSlbTkhdQyg9TylbTkhdYzJbY0hdW2NIXVtjSF1uYzJOM1tDSDJdW0NIMl1bQ0gyXVtDSDJdMw==

> <s_epik_cmdline>
J2VwaWtfcHl0aG9uJywgJy1waCcsICc3LjAnLCAnLXRuJywgJzgnLCAnLW1hJywgJzIwMCcsICctbWV0YWxfYmluZGluZycsICctaW1hZScsICc8aW5maWxlLm1hZT4nLCAnLW9tYWUnLCAnPG91dGZpbGUubWFlPic=

> <r_lp_tautomer_probability>
0.999994

> <r_epik_Ionization_Penalty>
1.11092

> <r_epik_Ionization_Penalty_Charging>
1.1109

> <r_epik_Ionization_Penalty_Neutral>
1.9363e-05

> <r_epik_State_Penalty>
1.16888

> <r_epik_Charging_Adjusted_Penalty>
2.27978

> <i_epik_Tot_Q>
1

> <i_epik_Tot_abs_Q>
1

> <r_epik_Metal_State_Penalty>
1.25472

> <b_epik_Metal_Only>
0

> <s_lp_Force_Field>
OPLS_2005

> <r_lp_Energy>
51.9838

> <b_lp_Chiralities_Consistent>
1

> <s_lp_Variant>
AV-unprocessed.smi:1793-6

> <Gold.Version>
5.8.1

> <Gold.Id.Protein>
6NUR|6NUR_protein|mol2

> <Gold.PLP.Fitness>
47.0943

> <Gold.PLP.PLP>
-41.9602

> <Gold.PLP.part.hbond>
-2.0000

> <Gold.PLP.part.metal>
0.0000

> <Gold.PLP.part.buried>
-2.5609

> <Gold.PLP.part.nonpolar>
-41.1163

> <Gold.PLP.part.repulsive>
3.4214

> <Gold.PLP.ligand.clash>
0.0000

> <Gold.PLP.ligand.torsion>
0.6524

> <Gold.PLP.Chemscore.Hbond>
2.0000

> <Gold.PLP.Chemscore.CHOScore>
0.0000

> <Gold.PLP.Chemscore.Metal>
0.0000

> <Gold.Chemscore.Hbonds>
donor molecule, donor type, donor heavy atom, donor atom, acceptor molecule, acceptor atom, score
      L1  H    11    47       P1  7948  1.98

> <Gold.PLP.Chemscore.Internal.Correction>
0.4388

> <Gold.Rescore>
     Score         DG    S(hbond)    S(metal)    S(lipo)     H(rot)  DE(clash)    DE(int)     intcor
     14.58     -19.01       0.88        0.00     120.65       1.38       1.50       2.93       ----

> <Gold.Chemscore.Fitness>
14.5783

> <Gold.Chemscore.DG>
-19.0061

> <Gold.Chemscore.ZeroCoef>
-5.4800

> <Gold.Chemscore.Hbond>
0.8812

> <Gold.Chemscore.Metal>
0.0000

> <Gold.Chemscore.Lipo>
120.6505

> <Gold.Chemscore.Internal_Hbond>
0.0000

> <Gold.Chemscore.DEClash>
1.4958

> <Gold.Chemscore.DEInternal>
2.9320

> <Gold.Chemscore.Rot>
1.3802

> <Gold.Chemscore.Internal.Correction>
   9.000000E+99

> <Gold.Chemscore.Hbonds>
donor molecule, donor type, donor heavy atom, donor atom, acceptor molecule, acceptor atom, score
      L1  H    11    47       P1  7948  0.91

> <Gold.Chemscore.Hbond.Weighted>
-2.9431

> <Gold.Chemscore.Metal.Weighted>
-0.0000

> <Gold.Chemscore.Lipo.Weighted>
-14.1161

> <Gold.Chemscore.Internal_Hbond.Weighted>
0.0000

> <Gold.Chemscore.DEClash.Weighted>
1.4958

> <Gold.Chemscore.DEInternal.Weighted>
2.9320

> <Gold.Chemscore.Rot.Weighted>
3.5332

> <Gold.Chemscore.Internal.Correction.Weighted>
   9.000000E+99

> <Gold.Protein.RotatedTorsions>
[ 6907 6896 6895 6894 ] final  161.97 input  -60.11 | X-H torsion
[ 7974 7965 7964 7962 ] final  133.75 input  175.53 | X-H torsion
[ 8008 7997 7996 7995 ] final   38.13 input   59.86 | X-H torsion
[ 10167 10162 10161 10158 ] final  -14.41 input  -65.29 | X-H torsion
[ 10718 10713 10712 10709 ] final  100.41 input   66.30 | X-H torsion
[ 10763 10752 10751 10750 ] final  -82.39 input  -60.55 | X-H torsion
[ 11005 11000 10999 10996 ] final   68.71 input  -57.11 | X-H torsion

> <Gold.Protein.ActiveResidues>
 VAL166  LYS551  ARG553  GLY616  TRP617  ASP618  TYR619  PRO620  LYS621  CYS622 
 ASP623  PHE694  ASN695  SER759  ASP760  ASP761  ALA762  ILE779  LEU786  VAL792 
 PHE793  MET794  SER795  GLU796  ALA797  LYS798  CYS799  TRP800  GLU811  SER814 

> <Gold.Protein.RotatedAtoms>
  151.9475  133.3656  159.3987 H   0  0  0  0  0  0  0  0  0  0  0  0  # atno 6907 bound_to 6896
  150.6987  134.4375  159.5286 H   0  0  0  0  0  0  0  0  0  0  0  0  # atno 6908 bound_to 6896
  152.2042  134.8560  160.0555 H   0  0  0  0  0  0  0  0  0  0  0  0  # atno 6909 bound_to 6896
  144.9834  139.4481  143.5375 H   0  0  0  0  0  0  0  0  0  0  0  0  # atno 7974 bound_to 7965
  155.2152  140.3326  155.4323 H   0  0  0  0  0  0  0  0  0  0  0  0  # atno 8008 bound_to 7997
  156.2355  140.1870  156.7179 H   0  0  0  0  0  0  0  0  0  0  0  0  # atno 8009 bound_to 7997
  154.6052  140.0617  156.9406 H   0  0  0  0  0  0  0  0  0  0  0  0  # atno 8010 bound_to 7997
  140.7200  143.5324  150.9504 H   0  0  0  0  0  0  0  0  0  0  0  0  # atno 10167 bound_to 10162
  157.6854  131.0698  150.5097 H   0  0  0  0  0  0  0  0  0  0  0  0  # atno 10718 bound_to 10713
  154.5752  135.5593  153.7132 H   0  0  0  0  0  0  0  0  0  0  0  0  # atno 10763 bound_to 10752
  153.0062  135.6306  154.2059 H   0  0  0  0  0  0  0  0  0  0  0  0  # atno 10764 bound_to 10752
  154.1999  135.2878  155.2974 H   0  0  0  0  0  0  0  0  0  0  0  0  # atno 10765 bound_to 10752
  139.9696  134.6923  156.0475 H   0  0  0  0  0  0  0  0  0  0  0  0  # atno 11005 bound_to 11000
  146.3414  139.9120  142.8779 LP  0  0  0  0  0  0  0  0  0  0  0  0  # atno 17320 bound_to 7965
  145.2389  141.0001  143.3947 LP  0  0  0  0  0  0  0  0  0  0  0  0  # atno 17321 bound_to 7965
  139.9045  143.6795  152.3126 LP  0  0  0  0  0  0  0  0  0  0  0  0  # atno 17342 bound_to 10162
  139.7156  144.7612  151.1039 LP  0  0  0  0  0  0  0  0  0  0  0  0  # atno 17343 bound_to 10162
  156.5415  130.4209  149.6152 LP  0  0  0  0  0  0  0  0  0  0  0  0  # atno 17370 bound_to 10713
  156.2981  130.7162  151.2027 LP  0  0  0  0  0  0  0  0  0  0  0  0  # atno 17371 bound_to 10713
  141.1375  133.6572  156.3636 LP  0  0  0  0  0  0  0  0  0  0  0  0  # atno 17394 bound_to 11000
  140.5323  134.6201  157.5354 LP  0  0  0  0  0  0  0  0  0  0  0  0  # atno 17395 bound_to 11000

$$$$
