AV-unprocessed.smi:2960|AV-procd|sdf|11311|dock10
  -GOLD-   2272016213D 1   1.00000     0.00000
 Structure written by MMmdl.
 48 50  0  0  0  0  0  0  0  0  1 V2000
  146.8193  136.2353  158.9968 C   0  0  0  0  0  0  0  0  0  0  0  0
  148.0758  136.8453  159.6072 C   0  0  0  0  0  0  0  0  0  0  0  0
  148.0848  137.1915  160.7880 O   0  0  0  0  0  0  0  0  0  0  0  0
  149.1273  136.9821  158.7863 N   0  0  0  0  0  0  0  0  0  0  0  0
  150.4181  137.5468  159.1666 C   0  0  0  0  0  0  0  0  0  0  0  0
  151.1349  138.2462  157.9954 C   0  0  0  0  0  0  0  0  0  0  0  0
  151.4563  139.6909  158.2569 C   0  0  0  0  0  0  0  0  0  0  0  0
  152.1915  140.0560  159.3082 N   0  0  0  0  0  0  0  0  0  0  0  0
  152.2416  141.4303  159.1847 C   0  0  0  0  0  0  0  0  0  0  0  0
  152.8735  142.4023  159.9931 C   0  0  0  0  0  0  0  0  0  0  0  0
  152.7814  143.7712  159.6669 C   0  0  0  0  0  0  0  0  0  0  0  0
  152.0570  144.1869  158.5310 C   0  0  0  0  0  0  0  0  0  0  0  0
  151.4217  143.2345  157.7114 C   0  0  0  0  0  0  0  0  0  0  0  0
  151.5188  141.8686  158.0398 C   0  0  0  0  0  0  0  0  0  0  0  0
  151.0239  140.7034  157.4612 N   0  0  0  0  0  0  0  0  0  0  0  0
  150.2036  140.6315  156.2601 C   0  0  0  0  0  0  0  0  0  0  0  0
  148.8256  141.2769  156.4613 C   0  0  0  0  0  0  0  0  0  0  0  0
  148.1502  141.3452  155.2122 O   0  0  0  0  0  0  0  0  0  0  0  0
  147.0573  142.1772  155.1048 C   0  0  0  0  0  0  0  0  0  0  0  0
  146.7184  142.6227  153.8108 C   0  0  0  0  0  0  0  0  0  0  0  0
  145.6157  143.4742  153.6071 C   0  0  0  0  0  0  0  0  0  0  0  0
  144.8337  143.8922  154.7017 C   0  0  0  0  0  0  0  0  0  0  0  0
  143.6460  144.8053  154.4775 C   0  0  0  0  0  0  0  0  0  0  0  0
  145.1622  143.4516  155.9994 C   0  0  0  0  0  0  0  0  0  0  0  0
  146.2660  142.6006  156.2023 C   0  0  0  0  0  0  0  0  0  0  0  0
  147.0401  135.2598  158.5626 H   0  0  0  0  0  0  0  0  0  0  0  0
  146.4269  136.8834  158.2127 H   0  0  0  0  0  0  0  0  0  0  0  0
  146.0444  136.1053  159.7531 H   0  0  0  0  0  0  0  0  0  0  0  0
  149.0276  136.6740  157.8297 H   0  0  0  0  0  0  0  0  0  0  0  0
  150.2989  138.2374  160.0028 H   0  0  0  0  0  0  0  0  0  0  0  0
  151.0381  136.7285  159.5339 H   0  0  0  0  0  0  0  0  0  0  0  0
  152.0379  137.6965  157.7347 H   0  0  0  0  0  0  0  0  0  0  0  0
  150.5013  138.1964  157.1093 H   0  0  0  0  0  0  0  0  0  0  0  0
  153.4287  142.0942  160.8666 H   0  0  0  0  0  0  0  0  0  0  0  0
  153.2674  144.5057  160.2923 H   0  0  0  0  0  0  0  0  0  0  0  0
  151.9889  145.2374  158.2892 H   0  0  0  0  0  0  0  0  0  0  0  0
  150.8635  143.5504  156.8427 H   0  0  0  0  0  0  0  0  0  0  0  0
  150.7314  141.1338  155.4492 H   0  0  0  0  0  0  0  0  0  0  0  0
  150.0981  139.5936  155.9500 H   0  0  0  0  0  0  0  0  0  0  0  0
  148.2487  140.6830  157.1716 H   0  0  0  0  0  0  0  0  0  0  0  0
  148.9450  142.2780  156.8778 H   0  0  0  0  0  0  0  0  0  0  0  0
  147.3119  142.3087  152.9644 H   0  0  0  0  0  0  0  0  0  0  0  0
  145.3714  143.8050  152.6082 H   0  0  0  0  0  0  0  0  0  0  0  0
  143.2446  145.1744  155.4218 H   0  0  0  0  0  0  0  0  0  0  0  0
  142.8530  144.2695  153.9551 H   0  0  0  0  0  0  0  0  0  0  0  0
  143.9360  145.6653  153.8733 H   0  0  0  0  0  0  0  0  0  0  0  0
  144.5686  143.7634  156.8465 H   0  0  0  0  0  0  0  0  0  0  0  0
  146.4834  142.2844  157.2112 H   0  0  0  0  0  0  0  0  0  0  0  0
  1  2  1  0  0  0  0
  1 26  1  0  0  0  0
  1 27  1  0  0  0  0
  1 28  1  0  0  0  0
  2  3  2  0  0  0  0
  2  4  1  0  0  0  0
  4  5  1  0  0  0  0
  4 29  1  0  0  0  0
  5  6  1  0  0  0  0
  5 30  1  0  0  0  0
  5 31  1  0  0  0  0
  6  7  1  0  0  0  0
  6 32  1  0  0  0  0
  6 33  1  0  0  0  0
  7 15  1  0  0  0  0
  7  8  2  0  0  0  0
  8  9  1  0  0  0  0
  9 14  2  0  0  0  0
  9 10  1  0  0  0  0
 10 11  2  0  0  0  0
 10 34  1  0  0  0  0
 11 12  1  0  0  0  0
 11 35  1  0  0  0  0
 12 13  2  0  0  0  0
 12 36  1  0  0  0  0
 13 14  1  0  0  0  0
 13 37  1  0  0  0  0
 14 15  1  0  0  0  0
 15 16  1  0  0  0  0
 16 17  1  0  0  0  0
 16 38  1  0  0  0  0
 16 39  1  0  0  0  0
 17 18  1  0  0  0  0
 17 40  1  0  0  0  0
 17 41  1  0  0  0  0
 18 19  1  0  0  0  0
 19 25  1  0  0  0  0
 19 20  2  0  0  0  0
 20 21  1  0  0  0  0
 20 42  1  0  0  0  0
 21 22  2  0  0  0  0
 21 43  1  0  0  0  0
 22 23  1  0  0  0  0
 22 24  1  0  0  0  0
 23 44  1  0  0  0  0
 23 45  1  0  0  0  0
 23 46  1  0  0  0  0
 24 25  2  0  0  0  0
 24 47  1  0  0  0  0
 25 48  1  0  0  0  0
M  END
> <s_m_source_file>
AV-unprocessed.smi

> <i_m_source_file_index>
2960

> <i_lp_mmshare_version>
43012

> <i_f3d_flags>
0

> <s_epik_input>
W0NIM11DKD1PKVtOSF1bQ0gyXVtDSDJdYyhuMSluKGMoYzEyKVtjSF1bY0hdW2NIXVtjSF0yKVtDSDJdW0NIMl1PYzNbY0hdW2NIXWMoW0NIM10pW2NIXVtjSF0z

> <s_epik_cmdline>
J2VwaWtfcHl0aG9uJywgJy1waCcsICc3LjAnLCAnLXRuJywgJzgnLCAnLW1hJywgJzIwMCcsICctbWV0YWxfYmluZGluZycsICctaW1hZScsICc8aW5maWxlLm1hZT4nLCAnLW9tYWUnLCAnPG91dGZpbGUubWFlPic=

> <r_lp_tautomer_probability>
1

> <r_epik_Ionization_Penalty>
0.0990099

> <r_epik_Ionization_Penalty_Charging>
0

> <r_epik_Ionization_Penalty_Neutral>
0.0990099

> <r_epik_State_Penalty>
0.0890759

> <r_epik_Charging_Adjusted_Penalty>
0.0890759

> <i_epik_Tot_Q>
0

> <i_epik_Tot_abs_Q>
0

> <r_epik_Metal_State_Penalty>
0.0762215

> <b_epik_Metal_Only>
0

> <s_lp_Force_Field>
OPLS_2005

> <r_lp_Energy>
13.2598

> <b_lp_Chiralities_Consistent>
1

> <s_lp_Variant>
AV-unprocessed.smi:2960-1

> <Gold.Version>
5.8.1

> <Gold.Id.Protein>
6NUR|6NUR_protein|mol2

> <Gold.PLP.Fitness>
50.8777

> <Gold.PLP.PLP>
-48.0711

> <Gold.PLP.part.hbond>
-2.0000

> <Gold.PLP.part.metal>
0.0000

> <Gold.PLP.part.buried>
-7.2257

> <Gold.PLP.part.nonpolar>
-39.5746

> <Gold.PLP.part.repulsive>
0.2695

> <Gold.PLP.ligand.clash>
0.0000

> <Gold.PLP.ligand.torsion>
1.0191

> <Gold.PLP.Chemscore.Hbond>
1.5777

> <Gold.PLP.Chemscore.CHOScore>
0.0000

> <Gold.PLP.Chemscore.Metal>
0.0000

> <Gold.Chemscore.Hbonds>
donor molecule, donor type, donor heavy atom, donor atom, acceptor molecule, acceptor atom, score
      P1  H  6931  6943       L1     3  0.86
      P1  H  6934  6947       L1     3  0.70

> <Gold.PLP.Chemscore.Internal.Correction>
0.1118

> <Gold.Rescore>
     Score         DG    S(hbond)    S(metal)    S(lipo)     H(rot)  DE(clash)    DE(int)     intcor
     18.30     -19.28       1.53        0.00     120.37       2.11       0.03       0.94       ----

> <Gold.Chemscore.Fitness>
18.3000

> <Gold.Chemscore.DG>
-19.2770

> <Gold.Chemscore.ZeroCoef>
-5.4800

> <Gold.Chemscore.Hbond>
1.5298

> <Gold.Chemscore.Metal>
0.0000

> <Gold.Chemscore.Lipo>
120.3722

> <Gold.Chemscore.Internal_Hbond>
0.0000

> <Gold.Chemscore.DEClash>
0.0327

> <Gold.Chemscore.DEInternal>
0.9444

> <Gold.Chemscore.Rot>
2.1078

> <Gold.Chemscore.Internal.Correction>
   9.000000E+99

> <Gold.Chemscore.Hbonds>
donor molecule, donor type, donor heavy atom, donor atom, acceptor molecule, acceptor atom, score
      P1  H  6931  6943       L1     3  0.85
      P1  H  6934  6947       L1     3  0.43

> <Gold.Chemscore.Hbond.Weighted>
-5.1096

> <Gold.Chemscore.Metal.Weighted>
-0.0000

> <Gold.Chemscore.Lipo.Weighted>
-14.0836

> <Gold.Chemscore.Internal_Hbond.Weighted>
0.0000

> <Gold.Chemscore.DEClash.Weighted>
0.0327

> <Gold.Chemscore.DEInternal.Weighted>
0.9444

> <Gold.Chemscore.Rot.Weighted>
5.3961

> <Gold.Chemscore.Internal.Correction.Weighted>
   9.000000E+99

> <Gold.Protein.RotatedTorsions>
[ 6907 6896 6895 6894 ] final  -10.75 input  -60.11 | X-H torsion
[ 7974 7965 7964 7962 ] final  129.59 input  175.53 | X-H torsion
[ 8008 7997 7996 7995 ] final -132.53 input   59.86 | X-H torsion
[ 10167 10162 10161 10158 ] final   94.63 input  -65.29 | X-H torsion
[ 10718 10713 10712 10709 ] final  143.17 input   66.30 | X-H torsion
[ 10763 10752 10751 10750 ] final   41.77 input  -60.55 | X-H torsion
[ 11005 11000 10999 10996 ] final   59.17 input  -57.11 | X-H torsion

> <Gold.Protein.ActiveResidues>
 VAL166  LYS551  ARG553  GLY616  TRP617  ASP618  TYR619  PRO620  LYS621  CYS622 
 ASP623  PHE694  ASN695  SER759  ASP760  ASP761  ALA762  ILE779  LEU786  VAL792 
 PHE793  MET794  SER795  GLU796  ALA797  LYS798  CYS799  TRP800  GLU811  SER814 

> <Gold.Protein.RotatedAtoms>
  151.3970  135.0965  159.9543 H   0  0  0  0  0  0  0  0  0  0  0  0  # atno 6907 bound_to 6896
  152.5062  133.8925  159.7411 H   0  0  0  0  0  0  0  0  0  0  0  0  # atno 6908 bound_to 6896
  150.9390  133.6622  159.2823 H   0  0  0  0  0  0  0  0  0  0  0  0  # atno 6909 bound_to 6896
  145.0270  139.4080  143.5169 H   0  0  0  0  0  0  0  0  0  0  0  0  # atno 7974 bound_to 7965
  155.3304  140.0466  157.3042 H   0  0  0  0  0  0  0  0  0  0  0  0  # atno 8008 bound_to 7997
  154.5331  140.2263  155.8735 H   0  0  0  0  0  0  0  0  0  0  0  0  # atno 8009 bound_to 7997
  156.1808  140.3074  155.9152 H   0  0  0  0  0  0  0  0  0  0  0  0  # atno 8010 bound_to 7997
  139.8066  144.6791  150.9695 H   0  0  0  0  0  0  0  0  0  0  0  0  # atno 10167 bound_to 10162
  157.3720  131.0980  151.0819 H   0  0  0  0  0  0  0  0  0  0  0  0  # atno 10718 bound_to 10713
  152.9899  135.6152  154.2842 H   0  0  0  0  0  0  0  0  0  0  0  0  # atno 10763 bound_to 10752
  154.2570  135.2783  155.2795 H   0  0  0  0  0  0  0  0  0  0  0  0  # atno 10764 bound_to 10752
  154.5239  135.5807  153.6760 H   0  0  0  0  0  0  0  0  0  0  0  0  # atno 10765 bound_to 10752
  140.0323  134.5993  155.9490 H   0  0  0  0  0  0  0  0  0  0  0  0  # atno 11005 bound_to 11000
  146.3493  139.9799  142.8697 LP  0  0  0  0  0  0  0  0  0  0  0  0  # atno 17320 bound_to 7965
  145.1820  140.9772  143.4260 LP  0  0  0  0  0  0  0  0  0  0  0  0  # atno 17321 bound_to 7965
  140.7819  143.4228  151.0815 LP  0  0  0  0  0  0  0  0  0  0  0  0  # atno 17342 bound_to 10162
  139.7897  143.8237  152.3150 LP  0  0  0  0  0  0  0  0  0  0  0  0  # atno 17343 bound_to 10162
  157.1920  130.6356  149.5707 LP  0  0  0  0  0  0  0  0  0  0  0  0  # atno 17370 bound_to 10713
  155.9757  130.4719  150.6481 LP  0  0  0  0  0  0  0  0  0  0  0  0  # atno 17371 bound_to 10713
  141.1838  133.6551  156.5131 LP  0  0  0  0  0  0  0  0  0  0  0  0  # atno 17394 bound_to 11000
  140.4204  134.7192  157.4887 LP  0  0  0  0  0  0  0  0  0  0  0  0  # atno 17395 bound_to 11000

$$$$
