AV-unprocessed.smi:862|AV-procd|sdf|3983|dock5
  -GOLD-   22720 1463D 1   1.00000     0.00000
 Structure written by MMmdl.
 45 47  0  0  0  0  0  0  0  0  3 V2000
  150.5030  130.7192  156.8177 N   0  0  0  0  0  0  0  0  0  0  0  0
  150.3293  132.0158  156.5442 C   0  0  0  0  0  0  0  0  0  0  0  0
  150.3657  132.8611  157.4366 O   0  0  0  0  0  0  0  0  0  0  0  0
  150.1593  132.3137  155.2311 N   0  0  0  0  0  0  0  0  0  0  0  0
  149.7451  131.3753  154.1747 C   0  0  0  0  0  0  0  0  0  0  0  0
  148.2807  131.6649  153.7961 C   0  0  0  0  0  0  0  0  0  0  0  0
  148.0986  133.1343  153.3504 C   0  0  0  0  0  0  0  0  0  0  0  0
  146.6715  133.4620  153.1304 N   0  3  0  0  0  0  0  0  0  0  0  0
  146.2016  133.4265  151.7250 C   0  0  1  0  0  0  0  0  0  0  0  0
  145.7965  132.0285  151.2491 C   0  0  0  0  0  0  0  0  0  0  0  0
  144.8681  132.2720  150.0547 C   0  0  0  0  0  0  0  0  0  0  0  0
  144.2653  133.6718  150.2515 C   0  0  0  0  0  0  0  0  0  0  0  0
  144.9122  134.2391  151.5276 C   0  0  2  0  0  0  0  0  0  0  0  0
  145.1188  135.6964  151.4882 N   0  0  0  0  0  0  0  0  0  0  0  0
  145.9196  136.3881  150.6145 C   0  0  0  0  0  0  0  0  0  0  0  0
  145.8106  137.7143  150.9453 C   0  0  0  0  0  0  0  0  0  0  0  0
  144.9484  137.7794  152.0062 N   0  3  0  0  0  0  0  0  0  0  0  0
  144.5285  136.5536  152.3348 C   0  0  0  0  0  0  0  0  0  0  0  0
  148.7003  134.0946  154.3973 C   0  0  0  0  0  0  0  0  0  0  0  0
  150.1464  133.6996  154.7469 C   0  0  0  0  0  0  0  0  0  0  0  0
  150.6446  130.4260  157.7735 H   0  0  0  0  0  0  0  0  0  0  0  0
  150.5015  130.0396  156.0714 H   0  0  0  0  0  0  0  0  0  0  0  0
  150.3889  131.5109  153.3043 H   0  0  0  0  0  0  0  0  0  0  0  0
  149.8511  130.3263  154.4503 H   0  0  0  0  0  0  0  0  0  0  0  0
  147.9732  130.9793  153.0080 H   0  0  0  0  0  0  0  0  0  0  0  0
  147.6395  131.4552  154.6536 H   0  0  0  0  0  0  0  0  0  0  0  0
  148.6466  133.2872  152.4190 H   0  0  0  0  0  0  0  0  0  0  0  0
  146.0995  132.8542  153.6996 H   0  0  0  0  0  0  0  0  0  0  0  0
  146.9827  133.8136  151.0686 H   0  0  0  0  0  0  0  0  0  0  0  0
  146.6534  131.4111  150.9783 H   0  0  0  0  0  0  0  0  0  0  0  0
  145.2447  131.5098  152.0348 H   0  0  0  0  0  0  0  0  0  0  0  0
  145.4422  132.2482  149.1274 H   0  0  0  0  0  0  0  0  0  0  0  0
  144.1003  131.5010  149.9799 H   0  0  0  0  0  0  0  0  0  0  0  0
  144.4794  134.2841  149.3747 H   0  0  0  0  0  0  0  0  0  0  0  0
  143.1800  133.6291  150.3524 H   0  0  0  0  0  0  0  0  0  0  0  0
  144.2390  134.0296  152.3615 H   0  0  0  0  0  0  0  0  0  0  0  0
  146.4979  135.9002  149.8427 H   0  0  0  0  0  0  0  0  0  0  0  0
  146.2719  138.5932  150.5179 H   0  0  0  0  0  0  0  0  0  0  0  0
  143.8507  136.3075  153.1330 H   0  0  0  0  0  0  0  0  0  0  0  0
  148.6781  135.1186  154.0227 H   0  0  0  0  0  0  0  0  0  0  0  0
  148.0959  134.0837  155.3059 H   0  0  0  0  0  0  0  0  0  0  0  0
  150.5610  134.4012  155.4722 H   0  0  0  0  0  0  0  0  0  0  0  0
  150.7829  133.7795  153.8645 H   0  0  0  0  0  0  0  0  0  0  0  0
  146.5414  134.4101  153.4534 H   0  0  0  0  0  0  0  0  0  0  0  0
  144.6718  138.6310  152.4795 H   0  0  0  0  0  0  0  0  0  0  0  0
  1  2  1  0  0  0  0
  1 21  1  0  0  0  0
  1 22  1  0  0  0  0
  2  3  2  0  0  0  0
  2  4  1  0  0  0  0
  4 20  1  0  0  0  0
  4  5  1  0  0  0  0
  5  6  1  0  0  0  0
  5 23  1  0  0  0  0
  5 24  1  0  0  0  0
  6  7  1  0  0  0  0
  6 25  1  0  0  0  0
  6 26  1  0  0  0  0
  7  8  1  0  0  0  0
  7 19  1  0  0  0  0
  7 27  1  0  0  0  0
  8  9  1  0  0  0  0
  8 28  1  0  0  0  0
  8 44  1  0  0  0  0
  9 13  1  0  0  0  0
  9 10  1  0  0  0  0
  9 29  1  0  0  0  0
 10 11  1  0  0  0  0
 10 30  1  0  0  0  0
 10 31  1  0  0  0  0
 11 12  1  0  0  0  0
 11 32  1  0  0  0  0
 11 33  1  0  0  0  0
 12 13  1  0  0  0  0
 12 34  1  0  0  0  0
 12 35  1  0  0  0  0
 13 14  1  0  0  0  0
 13 36  1  0  0  0  0
 14 18  1  0  0  0  0
 14 15  1  0  0  0  0
 15 16  2  0  0  0  0
 15 37  1  0  0  0  0
 16 17  1  0  0  0  0
 16 38  1  0  0  0  0
 17 18  2  0  0  0  0
 17 45  1  0  0  0  0
 18 39  1  0  0  0  0
 19 20  1  0  0  0  0
 19 40  1  0  0  0  0
 19 41  1  0  0  0  0
 20 42  1  0  0  0  0
 20 43  1  0  0  0  0
M  CHG  1   8   1
M  CHG  1  17   1
M  END
> <s_m_source_file>
AV-unprocessed.smi

> <i_m_source_file_index>
862

> <i_lp_mmshare_version>
43012

> <i_f3d_flags>
0

> <s_epik_input>
W05IMl1DKD1PKU4xW0NIMl1bQ0gyXVtDSF0oW0NIMl1bQ0gyXTEpW05IXVtDQEBIXTJbQ0gyXVtDSDJdW0NIMl1bQ0BIXTJuM1tjSF1bY0hdbltjSF0z

> <s_epik_cmdline>
J2VwaWtfcHl0aG9uJywgJy1waCcsICc3LjAnLCAnLXRuJywgJzgnLCAnLW1hJywgJzIwMCcsICctbWV0YWxfYmluZGluZycsICctaW1hZScsICc8aW5maWxlLm1hZT4nLCAnLW9tYWUnLCAnPG91dGZpbGUubWFlPic=

> <r_lp_tautomer_probability>
1

> <r_epik_Ionization_Penalty>
1.30217

> <r_epik_Ionization_Penalty_Charging>
0.00439521

> <r_epik_Ionization_Penalty_Neutral>
1.29777

> <r_epik_State_Penalty>
0.977606

> <r_epik_Charging_Adjusted_Penalty>
0.982001

> <i_epik_Tot_Q>
2

> <i_epik_Tot_abs_Q>
2

> <r_epik_Metal_State_Penalty>
1.03289

> <b_epik_Metal_Only>
0

> <s_lp_Force_Field>
OPLS_2005

> <r_lp_Energy>
66.2462

> <b_lp_Chiralities_Consistent>
1

> <s_lp_Variant>
AV-unprocessed.smi:862-8

> <Gold.Version>
5.8.1

> <Gold.Id.Protein>
6NUR|6NUR_protein|mol2

> <Gold.PLP.Fitness>
45.8060

> <Gold.PLP.PLP>
-35.5584

> <Gold.PLP.part.hbond>
-3.0000

> <Gold.PLP.part.metal>
0.0000

> <Gold.PLP.part.buried>
1.3093

> <Gold.PLP.part.nonpolar>
-33.8555

> <Gold.PLP.part.repulsive>
0.0513

> <Gold.PLP.ligand.clash>
0.0000

> <Gold.PLP.ligand.torsion>
0.8972

> <Gold.PLP.Chemscore.Hbond>
3.0000

> <Gold.PLP.Chemscore.CHOScore>
1.0000

> <Gold.PLP.Chemscore.Metal>
0.0000

> <Gold.Chemscore.Hbonds>
donor molecule, donor type, donor heavy atom, donor atom, acceptor molecule, acceptor atom, score
      L1  H    17    45       P1 10175  1.74
      P1  H  6896  6907       L1     3  0.98
      L1  C    15    37       P1  7921  1.00

> <Gold.PLP.Chemscore.Internal.Correction>
0.0421

> <Gold.Rescore>
     Score         DG    S(hbond)    S(metal)    S(lipo)     H(rot)  DE(clash)    DE(int)     intcor
     14.53     -17.37       1.97        0.00      82.14       1.68       2.02       0.82       ----

> <Gold.Chemscore.Fitness>
14.5261

> <Gold.Chemscore.DG>
-17.3681

> <Gold.Chemscore.ZeroCoef>
-5.4800

> <Gold.Chemscore.Hbond>
1.9705

> <Gold.Chemscore.Metal>
0.0000

> <Gold.Chemscore.Lipo>
82.1448

> <Gold.Chemscore.Internal_Hbond>
0.0000

> <Gold.Chemscore.DEClash>
2.0199

> <Gold.Chemscore.DEInternal>
0.8221

> <Gold.Chemscore.Rot>
1.6814

> <Gold.Chemscore.Internal.Correction>
   9.000000E+99

> <Gold.Chemscore.Hbonds>
donor molecule, donor type, donor heavy atom, donor atom, acceptor molecule, acceptor atom, score
      L1  H    17    45       P1 10175  0.80
      P1  H  6896  6907       L1     3  0.90

> <Gold.Chemscore.Hbond.Weighted>
-6.5814

> <Gold.Chemscore.Metal.Weighted>
-0.0000

> <Gold.Chemscore.Lipo.Weighted>
-9.6109

> <Gold.Chemscore.Internal_Hbond.Weighted>
0.0000

> <Gold.Chemscore.DEClash.Weighted>
2.0199

> <Gold.Chemscore.DEInternal.Weighted>
0.8221

> <Gold.Chemscore.Rot.Weighted>
4.3043

> <Gold.Chemscore.Internal.Correction.Weighted>
   9.000000E+99

> <Gold.Protein.RotatedTorsions>
[ 6907 6896 6895 6894 ] final -154.33 input  -60.11 | X-H torsion
[ 7974 7965 7964 7962 ] final  -13.33 input  175.53 | X-H torsion
[ 8008 7997 7996 7995 ] final   74.38 input   59.86 | X-H torsion
[ 10167 10162 10161 10158 ] final   99.98 input  -65.29 | X-H torsion
[ 10718 10713 10712 10709 ] final -179.64 input   66.30 | X-H torsion
[ 10763 10752 10751 10750 ] final  -91.01 input  -60.55 | X-H torsion
[ 11005 11000 10999 10996 ] final -133.05 input  -57.11 | X-H torsion

> <Gold.Protein.ActiveResidues>
 VAL166  LYS551  ARG553  GLY616  TRP617  ASP618  TYR619  PRO620  LYS621  CYS622 
 ASP623  PHE694  ASN695  SER759  ASP760  ASP761  ALA762  ILE779  LEU786  VAL792 
 PHE793  MET794  SER795  GLU796  ALA797  LYS798  CYS799  TRP800  GLU811  SER814 

> <Gold.Protein.RotatedAtoms>
  151.2559  133.4326  159.2613 H   0  0  0  0  0  0  0  0  0  0  0  0  # atno 6907 bound_to 6896
  151.0575  134.9715  159.8253 H   0  0  0  0  0  0  0  0  0  0  0  0  # atno 6908 bound_to 6896
  152.5393  134.2510  159.8951 H   0  0  0  0  0  0  0  0  0  0  0  0  # atno 6909 bound_to 6896
  146.2118  140.3188  142.8388 H   0  0  0  0  0  0  0  0  0  0  0  0  # atno 7974 bound_to 7965
  155.7975  140.3477  155.5384 H   0  0  0  0  0  0  0  0  0  0  0  0  # atno 8008 bound_to 7997
  155.8571  140.0965  157.1657 H   0  0  0  0  0  0  0  0  0  0  0  0  # atno 8009 bound_to 7997
  154.4010  140.1365  156.3903 H   0  0  0  0  0  0  0  0  0  0  0  0  # atno 8010 bound_to 7997
  139.7568  144.6967  151.0351 H   0  0  0  0  0  0  0  0  0  0  0  0  # atno 10167 bound_to 10162
  156.8621  130.9755  151.3082 H   0  0  0  0  0  0  0  0  0  0  0  0  # atno 10718 bound_to 10713
  154.6717  135.5283  153.8147 H   0  0  0  0  0  0  0  0  0  0  0  0  # atno 10763 bound_to 10752
  153.0506  135.6530  154.0714 H   0  0  0  0  0  0  0  0  0  0  0  0  # atno 10764 bound_to 10752
  154.0612  135.2961  155.3304 H   0  0  0  0  0  0  0  0  0  0  0  0  # atno 10765 bound_to 10752
  140.9116  134.1561  157.4385 H   0  0  0  0  0  0  0  0  0  0  0  0  # atno 11005 bound_to 11000
  144.8935  140.7554  143.5911 LP  0  0  0  0  0  0  0  0  0  0  0  0  # atno 17320 bound_to 7965
  145.3111  139.1818  143.4638 LP  0  0  0  0  0  0  0  0  0  0  0  0  # atno 17321 bound_to 7965
  140.7803  143.4744  151.0103 LP  0  0  0  0  0  0  0  0  0  0  0  0  # atno 17342 bound_to 10162
  139.8430  143.7538  152.3180 LP  0  0  0  0  0  0  0  0  0  0  0  0  # atno 17343 bound_to 10162
  157.6244  130.8680  149.9164 LP  0  0  0  0  0  0  0  0  0  0  0  0  # atno 17370 bound_to 10713
  156.0771  130.3677  150.0656 LP  0  0  0  0  0  0  0  0  0  0  0  0  # atno 17371 bound_to 10713
  139.8758  134.9938  156.5661 LP  0  0  0  0  0  0  0  0  0  0  0  0  # atno 17394 bound_to 11000
  140.8103  133.8434  155.8804 LP  0  0  0  0  0  0  0  0  0  0  0  0  # atno 17395 bound_to 11000

$$$$
