AV-unprocessed.smi:730|AV-procd|sdf|3523|dock7
  -GOLD-   22720 0513D 1   1.00000     0.00000
 Structure written by MMmdl.
 40 41  0  0  0  0  0  0  0  0  1 V2000
  146.9132  142.4268  154.6505 C   0  0  0  0  0  0  0  0  0  0  0  0
  147.7335  141.2588  155.2341 C   0  0  0  0  0  0  0  0  0  0  0  0
  149.1871  141.3932  154.7427 C   0  0  0  0  0  0  0  0  0  0  0  0
  147.7052  141.3657  156.7700 C   0  0  0  0  0  0  0  0  0  0  0  0
  147.1647  139.9368  154.7996 C   0  0  0  0  0  0  0  0  0  0  0  0
  147.6335  138.9249  154.0061 C   0  0  0  0  0  0  0  0  0  0  0  0
  146.5784  137.9752  154.0320 C   0  0  0  0  0  0  0  0  0  0  0  0
  146.6820  136.7541  153.3188 N   0  0  0  0  0  0  0  0  0  0  0  0
  145.7742  135.7658  153.2508 C   0  0  0  0  0  0  0  0  0  0  0  0
  144.6781  135.7676  153.8118 O   0  0  0  0  0  0  0  0  0  0  0  0
  146.2168  134.7504  152.4955 N   0  0  0  0  0  0  0  0  0  0  0  0
  145.4808  133.5122  152.2349 C   0  0  1  0  0  0  0  0  0  0  0  0
  144.3374  133.7760  151.2384 C   0  0  0  0  0  0  0  0  0  0  0  0
  144.7751  133.1376  149.9215 C   0  0  0  0  0  0  0  0  0  0  0  0
  145.5899  131.9223  150.3537 C   0  0  0  0  0  0  0  0  0  0  0  0
  146.3449  132.3821  151.6075 C   0  0  1  0  0  0  0  0  0  0  0  0
  147.6407  132.8115  151.2267 O   0  0  0  0  0  0  0  0  0  0  0  0
  145.5525  138.3680  154.7697 N   0  0  0  0  0  0  0  0  0  0  0  0
  145.9218  139.6240  155.2636 O   0  0  0  0  0  0  0  0  0  0  0  0
  147.3165  143.3912  154.9617 H   0  0  0  0  0  0  0  0  0  0  0  0
  145.8737  142.3874  154.9787 H   0  0  0  0  0  0  0  0  0  0  0  0
  146.9156  142.4092  153.5599 H   0  0  0  0  0  0  0  0  0  0  0  0
  149.2447  141.3269  153.6556 H   0  0  0  0  0  0  0  0  0  0  0  0
  149.8225  140.6072  155.1527 H   0  0  0  0  0  0  0  0  0  0  0  0
  149.6212  142.3493  155.0374 H   0  0  0  0  0  0  0  0  0  0  0  0
  148.1060  142.3214  157.1102 H   0  0  0  0  0  0  0  0  0  0  0  0
  148.2986  140.5788  157.2368 H   0  0  0  0  0  0  0  0  0  0  0  0
  146.6880  141.2804  157.1539 H   0  0  0  0  0  0  0  0  0  0  0  0
  148.5818  138.8719  153.4924 H   0  0  0  0  0  0  0  0  0  0  0  0
  147.5450  136.6130  152.8150 H   0  0  0  0  0  0  0  0  0  0  0  0
  147.1330  134.8288  152.0790 H   0  0  0  0  0  0  0  0  0  0  0  0
  145.0388  133.1594  153.1688 H   0  0  0  0  0  0  0  0  0  0  0  0
  143.4324  133.2793  151.5909 H   0  0  0  0  0  0  0  0  0  0  0  0
  144.0963  134.8338  151.1229 H   0  0  0  0  0  0  0  0  0  0  0  0
  143.9327  132.8741  149.2813 H   0  0  0  0  0  0  0  0  0  0  0  0
  145.4117  133.8301  149.3691 H   0  0  0  0  0  0  0  0  0  0  0  0
  144.9076  131.1139  150.6200 H   0  0  0  0  0  0  0  0  0  0  0  0
  146.2434  131.5475  149.5645 H   0  0  0  0  0  0  0  0  0  0  0  0
  146.4657  131.5536  152.3065 H   0  0  0  0  0  0  0  0  0  0  0  0
  148.0553  132.1124  150.7441 H   0  0  0  0  0  0  0  0  0  0  0  0
  1  2  1  0  0  0  0
  1 20  1  0  0  0  0
  1 21  1  0  0  0  0
  1 22  1  0  0  0  0
  2  3  1  0  0  0  0
  2  4  1  0  0  0  0
  2  5  1  0  0  0  0
  3 23  1  0  0  0  0
  3 24  1  0  0  0  0
  3 25  1  0  0  0  0
  4 26  1  0  0  0  0
  4 27  1  0  0  0  0
  4 28  1  0  0  0  0
  5 19  1  0  0  0  0
  5  6  2  0  0  0  0
  6  7  1  0  0  0  0
  6 29  1  0  0  0  0
  7  8  1  0  0  0  0
  7 18  2  0  0  0  0
  8  9  1  0  0  0  0
  8 30  1  0  0  0  0
  9 10  2  0  0  0  0
  9 11  1  0  0  0  0
 11 12  1  0  0  0  0
 11 31  1  0  0  0  0
 12 16  1  0  0  0  0
 12 13  1  0  0  0  0
 12 32  1  0  0  0  0
 13 14  1  0  0  0  0
 13 33  1  0  0  0  0
 13 34  1  0  0  0  0
 14 15  1  0  0  0  0
 14 35  1  0  0  0  0
 14 36  1  0  0  0  0
 15 16  1  0  0  0  0
 15 37  1  0  0  0  0
 15 38  1  0  0  0  0
 16 17  1  0  0  0  0
 16 39  1  0  0  0  0
 17 40  1  0  0  0  0
 18 19  1  0  0  0  0
M  END
> <s_m_source_file>
AV-unprocessed.smi

> <i_m_source_file_index>
730

> <i_lp_mmshare_version>
43012

> <i_f3d_flags>
0

> <s_epik_input>
W0NIM11DKFtDSDNdKShbQ0gzXSljMVtjSF1jKG5vMSlbTkhdQyg9TylbTkhdW0NAQEhdMltDSDJdW0NIMl1bQ0gyXVtDQEhdMltPSF0=

> <s_epik_cmdline>
J2VwaWtfcHl0aG9uJywgJy1waCcsICc3LjAnLCAnLXRuJywgJzgnLCAnLW1hJywgJzIwMCcsICctbWV0YWxfYmluZGluZycsICctaW1hZScsICc8aW5maWxlLm1hZT4nLCAnLW9tYWUnLCAnPG91dGZpbGUubWFlPic=

> <r_lp_tautomer_probability>
1

> <r_epik_Ionization_Penalty>
2.23071e-05

> <r_epik_Ionization_Penalty_Charging>
0

> <r_epik_Ionization_Penalty_Neutral>
2.23071e-05

> <r_epik_State_Penalty>
-0

> <r_epik_Charging_Adjusted_Penalty>
0

> <i_epik_Tot_Q>
0

> <i_epik_Tot_abs_Q>
0

> <r_epik_Metal_State_Penalty>
-0

> <b_epik_Metal_Only>
0

> <s_lp_Force_Field>
OPLS_2005

> <r_lp_Energy>
21.0344

> <b_lp_Chiralities_Consistent>
1

> <s_lp_Variant>
AV-unprocessed.smi:730-2

> <Gold.Version>
5.8.1

> <Gold.Id.Protein>
6NUR|6NUR_protein|mol2

> <Gold.PLP.Fitness>
34.3147

> <Gold.PLP.PLP>
-27.5490

> <Gold.PLP.part.hbond>
-2.7279

> <Gold.PLP.part.metal>
0.0000

> <Gold.PLP.part.buried>
-2.6169

> <Gold.PLP.part.nonpolar>
-22.0687

> <Gold.PLP.part.repulsive>
0.2599

> <Gold.PLP.ligand.clash>
0.0000

> <Gold.PLP.ligand.torsion>
0.2619

> <Gold.PLP.Chemscore.Hbond>
2.4290

> <Gold.PLP.Chemscore.CHOScore>
0.0000

> <Gold.PLP.Chemscore.Metal>
0.0000

> <Gold.Chemscore.Hbonds>
donor molecule, donor type, donor heavy atom, donor atom, acceptor molecule, acceptor atom, score
      L1  H     8    30       P1  7948  1.00
      L1  H    11    31       P1  7948  0.36
      L1  H    17    40       P1 10747  1.00

> <Gold.PLP.Chemscore.Internal.Correction>
0.0024

> <Gold.Rescore>
     Score         DG    S(hbond)    S(metal)    S(lipo)     H(rot)  DE(clash)    DE(int)     intcor
     16.04     -17.54       2.52        0.00      68.53       1.71       0.08       1.42       ----

> <Gold.Chemscore.Fitness>
16.0427

> <Gold.Chemscore.DG>
-17.5440

> <Gold.Chemscore.ZeroCoef>
-5.4800

> <Gold.Chemscore.Hbond>
2.5239

> <Gold.Chemscore.Metal>
0.0000

> <Gold.Chemscore.Lipo>
68.5334

> <Gold.Chemscore.Internal_Hbond>
0.0000

> <Gold.Chemscore.DEClash>
0.0849

> <Gold.Chemscore.DEInternal>
1.4164

> <Gold.Chemscore.Rot>
1.7125

> <Gold.Chemscore.Internal.Correction>
   9.000000E+99

> <Gold.Chemscore.Hbonds>
donor molecule, donor type, donor heavy atom, donor atom, acceptor molecule, acceptor atom, score
      L1  H     8    30       P1  7948  1.00
      L1  H    11    31       P1  7948  0.34
      L1  H    17    40       P1 10747  0.99

> <Gold.Chemscore.Hbond.Weighted>
-8.4297

> <Gold.Chemscore.Metal.Weighted>
-0.0000

> <Gold.Chemscore.Lipo.Weighted>
-8.0184

> <Gold.Chemscore.Internal_Hbond.Weighted>
0.0000

> <Gold.Chemscore.DEClash.Weighted>
0.0849

> <Gold.Chemscore.DEInternal.Weighted>
1.4164

> <Gold.Chemscore.Rot.Weighted>
4.3841

> <Gold.Chemscore.Internal.Correction.Weighted>
   9.000000E+99

> <Gold.Protein.RotatedTorsions>
[ 6907 6896 6895 6894 ] final   97.86 input  -60.11 | X-H torsion
[ 7974 7965 7964 7962 ] final  123.74 input  175.53 | X-H torsion
[ 8008 7997 7996 7995 ] final  -85.06 input   59.86 | X-H torsion
[ 10167 10162 10161 10158 ] final   14.97 input  -65.29 | X-H torsion
[ 10718 10713 10712 10709 ] final  -23.15 input   66.30 | X-H torsion
[ 10763 10752 10751 10750 ] final   47.52 input  -60.55 | X-H torsion
[ 11005 11000 10999 10996 ] final  -98.94 input  -57.11 | X-H torsion

> <Gold.Protein.ActiveResidues>
 VAL166  LYS551  ARG553  GLY616  TRP617  ASP618  TYR619  PRO620  LYS621  CYS622 
 ASP623  PHE694  ASN695  SER759  ASP760  ASP761  ALA762  ILE779  LEU786  VAL792 
 PHE793  MET794  SER795  GLU796  ALA797  LYS798  CYS799  TRP800  GLU811  SER814 

> <Gold.Protein.RotatedAtoms>
  152.5418  134.0669  159.8176 H   0  0  0  0  0  0  0  0  0  0  0  0  # atno 6907 bound_to 6896
  151.0789  133.5398  159.2629 H   0  0  0  0  0  0  0  0  0  0  0  0  # atno 6908 bound_to 6896
  151.2233  135.0535  159.9012 H   0  0  0  0  0  0  0  0  0  0  0  0  # atno 6909 bound_to 6896
  145.0925  139.3577  143.4853 H   0  0  0  0  0  0  0  0  0  0  0  0  # atno 7974 bound_to 7965
  154.6366  140.0596  156.9796 H   0  0  0  0  0  0  0  0  0  0  0  0  # atno 8008 bound_to 7997
  155.1582  140.3280  155.4398 H   0  0  0  0  0  0  0  0  0  0  0  0  # atno 8009 bound_to 7997
  156.2510  140.1935  156.6691 H   0  0  0  0  0  0  0  0  0  0  0  0  # atno 8010 bound_to 7997
  140.5900  143.8815  150.6864 H   0  0  0  0  0  0  0  0  0  0  0  0  # atno 10167 bound_to 10162
  156.4949  130.4575  149.6734 H   0  0  0  0  0  0  0  0  0  0  0  0  # atno 10718 bound_to 10713
  152.9799  135.5974  154.3776 H   0  0  0  0  0  0  0  0  0  0  0  0  # atno 10763 bound_to 10752
  154.3443  135.2767  155.2408 H   0  0  0  0  0  0  0  0  0  0  0  0  # atno 10764 bound_to 10752
  154.4475  135.5998  153.6225 H   0  0  0  0  0  0  0  0  0  0  0  0  # atno 10765 bound_to 10752
  141.1326  133.8284  157.0906 H   0  0  0  0  0  0  0  0  0  0  0  0  # atno 11005 bound_to 11000
  146.3531  140.0765  142.8620 LP  0  0  0  0  0  0  0  0  0  0  0  0  # atno 17320 bound_to 7965
  145.1050  140.9369  143.4690 LP  0  0  0  0  0  0  0  0  0  0  0  0  # atno 17321 bound_to 7965
  140.2335  143.3717  152.1546 LP  0  0  0  0  0  0  0  0  0  0  0  0  # atno 17342 bound_to 10162
  139.5221  144.7055  151.5368 LP  0  0  0  0  0  0  0  0  0  0  0  0  # atno 17343 bound_to 10162
  156.3390  130.7372  151.2314 LP  0  0  0  0  0  0  0  0  0  0  0  0  # atno 17370 bound_to 10713
  157.7469  131.0409  150.4620 LP  0  0  0  0  0  0  0  0  0  0  0  0  # atno 17371 bound_to 10713
  140.0394  134.9862  157.0933 LP  0  0  0  0  0  0  0  0  0  0  0  0  # atno 17394 bound_to 11000
  140.4159  134.1932  155.7163 LP  0  0  0  0  0  0  0  0  0  0  0  0  # atno 17395 bound_to 11000

$$$$
