AV-unprocessed.smi:170|AV-procd|sdf|1408|dock5
  -GOLD-   2262019163D 1   1.00000     0.00000
 Structure written by MMmdl.
 57 61  0  0  0  0  0  0  0  0  1 V2000
  153.0067  139.4206  157.1349 O   0  0  0  0  0  0  0  0  0  0  0  0
  152.0764  139.1838  158.1749 C   0  0  2  0  0  0  0  0  0  0  0  0
  150.7554  138.6699  157.5693 C   0  0  0  0  0  0  0  0  0  0  0  0
  150.8855  137.3389  157.0037 N   0  0  0  0  0  0  0  0  0  0  0  0
  151.7427  136.9476  155.9997 C   0  0  0  0  0  0  0  0  0  0  0  0
  151.6701  135.6875  155.6656 N   0  0  0  0  0  0  0  0  0  0  0  0
  150.6890  135.1743  156.5047 C   0  0  0  0  0  0  0  0  0  0  0  0
  150.1112  133.8883  156.6751 C   0  0  0  0  0  0  0  0  0  0  0  0
  150.5167  132.8213  155.9450 N   0  0  0  0  0  0  0  0  0  0  0  0
  151.2165  131.8729  156.8056 C   0  0  0  0  0  0  0  0  0  0  0  0
  151.8356  130.7440  155.9723 C   0  0  0  0  0  0  0  0  0  0  0  0
  150.8085  130.1159  155.2190 O   0  0  0  0  0  0  0  0  0  0  0  0
  150.2047  131.0166  154.2985 C   0  0  0  0  0  0  0  0  0  0  0  0
  149.5372  132.1991  155.0419 C   0  0  2  0  0  0  0  0  0  0  0  0
  148.9361  133.2190  154.0380 C   0  0  0  0  0  0  0  0  0  0  0  0
  148.3849  132.5901  152.7592 C   0  0  0  0  0  0  0  0  0  0  0  0
  147.4498  133.4033  151.8511 C   0  0  0  0  0  0  0  0  0  0  0  0
  146.7070  132.1028  151.5316 C   0  0  0  0  0  0  0  0  0  0  0  0
  147.2664  131.5399  152.8407 C   0  0  0  0  0  0  0  0  0  0  0  0
  149.1552  133.7451  157.6320 N   0  0  0  0  0  0  0  0  0  0  0  0
  148.7759  134.7989  158.3616 C   0  0  0  0  0  0  0  0  0  0  0  0
  149.2186  136.0573  158.3052 N   0  0  0  0  0  0  0  0  0  0  0  0
  150.1859  136.1988  157.3537 C   0  0  0  0  0  0  0  0  0  0  0  0
  151.8691  140.4647  159.0094 C   0  0  2  0  0  0  0  0  0  0  0  0
  151.5997  141.7642  158.2428 C   0  0  0  0  0  0  0  0  0  0  0  0
  152.0607  142.7971  159.2462 C   0  0  0  0  0  0  0  0  0  0  0  0
  153.2843  142.1147  159.8525 C   0  0  0  0  0  0  0  0  0  0  0  0
  152.9943  140.7192  159.8465 O   0  0  0  0  0  0  0  0  0  0  0  0
  152.8551  138.7850  156.4519 H   0  0  0  0  0  0  0  0  0  0  0  0
  152.4861  138.4081  158.8233 H   0  0  0  0  0  0  0  0  0  0  0  0
  149.9768  138.6397  158.3323 H   0  0  0  0  0  0  0  0  0  0  0  0
  150.4011  139.3454  156.7896 H   0  0  0  0  0  0  0  0  0  0  0  0
  152.4303  137.6310  155.5227 H   0  0  0  0  0  0  0  0  0  0  0  0
  152.0002  132.3799  157.3704 H   0  0  0  0  0  0  0  0  0  0  0  0
  150.5154  131.4565  157.5307 H   0  0  0  0  0  0  0  0  0  0  0  0
  152.6155  131.1250  155.3108 H   0  0  0  0  0  0  0  0  0  0  0  0
  152.3006  130.0056  156.6254 H   0  0  0  0  0  0  0  0  0  0  0  0
  150.9517  131.3745  153.5877 H   0  0  0  0  0  0  0  0  0  0  0  0
  149.4673  130.4536  153.7274 H   0  0  0  0  0  0  0  0  0  0  0  0
  148.7309  131.7928  155.6543 H   0  0  0  0  0  0  0  0  0  0  0  0
  148.1351  133.7845  154.5130 H   0  0  0  0  0  0  0  0  0  0  0  0
  149.6964  133.9576  153.7811 H   0  0  0  0  0  0  0  0  0  0  0  0
  149.1923  132.1919  152.1416 H   0  0  0  0  0  0  0  0  0  0  0  0
  146.8316  134.1147  152.4014 H   0  0  0  0  0  0  0  0  0  0  0  0
  147.9372  133.8726  150.9962 H   0  0  0  0  0  0  0  0  0  0  0  0
  145.6208  132.1919  151.4984 H   0  0  0  0  0  0  0  0  0  0  0  0
  147.1014  131.5952  150.6498 H   0  0  0  0  0  0  0  0  0  0  0  0
  147.6075  130.5056  152.7867 H   0  0  0  0  0  0  0  0  0  0  0  0
  146.5977  131.6989  153.6885 H   0  0  0  0  0  0  0  0  0  0  0  0
  148.0091  134.6057  159.0974 H   0  0  0  0  0  0  0  0  0  0  0  0
  151.0358  140.2999  159.6945 H   0  0  0  0  0  0  0  0  0  0  0  0
  152.2072  141.8371  157.3404 H   0  0  0  0  0  0  0  0  0  0  0  0
  150.5534  141.8806  157.9588 H   0  0  0  0  0  0  0  0  0  0  0  0
  152.2899  143.7632  158.7959 H   0  0  0  0  0  0  0  0  0  0  0  0
  151.2959  142.9464  160.0097 H   0  0  0  0  0  0  0  0  0  0  0  0
  154.1616  142.2875  159.2278 H   0  0  0  0  0  0  0  0  0  0  0  0
  153.5083  142.4730  160.8577 H   0  0  0  0  0  0  0  0  0  0  0  0
  1  2  1  0  0  0  0
  1 29  1  0  0  0  0
  2  3  1  0  0  0  0
  2 24  1  0  0  0  0
  2 30  1  0  0  0  0
  3  4  1  0  0  0  0
  3 31  1  0  0  0  0
  3 32  1  0  0  0  0
  4 23  1  0  0  0  0
  4  5  1  0  0  0  0
  5  6  2  0  0  0  0
  5 33  1  0  0  0  0
  6  7  1  0  0  0  0
  7 23  2  0  0  0  0
  7  8  1  0  0  0  0
  8  9  1  0  0  0  0
  8 20  2  0  0  0  0
  9 14  1  0  0  0  0
  9 10  1  0  0  0  0
 10 11  1  0  0  0  0
 10 34  1  0  0  0  0
 10 35  1  0  0  0  0
 11 12  1  0  0  0  0
 11 36  1  0  0  0  0
 11 37  1  0  0  0  0
 12 13  1  0  0  0  0
 13 14  1  0  0  0  0
 13 38  1  0  0  0  0
 13 39  1  0  0  0  0
 14 15  1  0  0  0  0
 14 40  1  0  0  0  0
 15 16  1  0  0  0  0
 15 41  1  0  0  0  0
 15 42  1  0  0  0  0
 16 19  1  0  0  0  0
 16 17  1  0  0  0  0
 16 43  1  0  0  0  0
 17 18  1  0  0  0  0
 17 44  1  0  0  0  0
 17 45  1  0  0  0  0
 18 19  1  0  0  0  0
 18 46  1  0  0  0  0
 18 47  1  0  0  0  0
 19 48  1  0  0  0  0
 19 49  1  0  0  0  0
 20 21  1  0  0  0  0
 21 22  2  0  0  0  0
 21 50  1  0  0  0  0
 22 23  1  0  0  0  0
 24 28  1  0  0  0  0
 24 25  1  0  0  0  0
 24 51  1  0  0  0  0
 25 26  1  0  0  0  0
 25 52  1  0  0  0  0
 25 53  1  0  0  0  0
 26 27  1  0  0  0  0
 26 54  1  0  0  0  0
 26 55  1  0  0  0  0
 27 28  1  0  0  0  0
 27 56  1  0  0  0  0
 27 57  1  0  0  0  0
M  END
> <s_m_source_file>
AV-unprocessed.smi

> <i_m_source_file_index>
170

> <i_lp_mmshare_version>
43012

> <i_f3d_flags>
0

> <s_epik_input>
TzFbQ0gyXVtDSDJdW0NIMl1bQ0BIXTFbQ0BIXShbT0hdKVtDSDJdbihbY0hdbjIpYyhjMjMpbltjSF1uYzNONFtDSDJdW0NIMl1PW0NIMl1bQ0BIXTRbQ0gyXVtDSF01W0NIMl1bQ0gyXVtDSDJdNQ==

> <s_epik_cmdline>
J2VwaWtfcHl0aG9uJywgJy1waCcsICc3LjAnLCAnLXRuJywgJzgnLCAnLW1hJywgJzIwMCcsICctbWV0YWxfYmluZGluZycsICctaW1hZScsICc8aW5maWxlLm1hZT4nLCAnLW9tYWUnLCAnPG91dGZpbGUubWFlPic=

> <r_lp_tautomer_probability>
1

> <r_epik_Ionization_Penalty>
4.98275e-05

> <r_epik_Ionization_Penalty_Charging>
0

> <r_epik_Ionization_Penalty_Neutral>
4.98275e-05

> <r_epik_State_Penalty>
-0

> <r_epik_Charging_Adjusted_Penalty>
0

> <i_epik_Tot_Q>
0

> <i_epik_Tot_abs_Q>
0

> <r_epik_Metal_State_Penalty>
-0

> <b_epik_Metal_Only>
0

> <s_lp_Force_Field>
OPLS_2005

> <r_lp_Energy>
52.7672

> <b_lp_Chiralities_Consistent>
1

> <s_lp_Variant>
AV-unprocessed.smi:170-3

> <Gold.Version>
5.8.1

> <Gold.Id.Protein>
6NUR|6NUR_protein|mol2

> <Gold.PLP.Fitness>
44.7887

> <Gold.PLP.PLP>
-39.8384

> <Gold.PLP.part.hbond>
-2.0000

> <Gold.PLP.part.metal>
0.0000

> <Gold.PLP.part.buried>
-6.2844

> <Gold.PLP.part.nonpolar>
-32.3630

> <Gold.PLP.part.repulsive>
0.0900

> <Gold.PLP.ligand.clash>
0.0000

> <Gold.PLP.ligand.torsion>
0.6616

> <Gold.PLP.Chemscore.Hbond>
2.0007

> <Gold.PLP.Chemscore.CHOScore>
0.0000

> <Gold.PLP.Chemscore.Metal>
0.0000

> <Gold.Chemscore.Hbonds>
donor molecule, donor type, donor heavy atom, donor atom, acceptor molecule, acceptor atom, score
      P1  H  7997  8010       L1     1  1.00
      P1  H 10752 10763       L1     6  1.00

> <Gold.PLP.Chemscore.Internal.Correction>
0.2715

> <Gold.Rescore>
     Score         DG    S(hbond)    S(metal)    S(lipo)     H(rot)  DE(clash)    DE(int)     intcor
     13.34     -14.17       1.12        0.00      99.36       2.61       0.01       0.81       ----

> <Gold.Chemscore.Fitness>
13.3395

> <Gold.Chemscore.DG>
-14.1652

> <Gold.Chemscore.ZeroCoef>
-5.4800

> <Gold.Chemscore.Hbond>
1.1237

> <Gold.Chemscore.Metal>
0.0000

> <Gold.Chemscore.Lipo>
99.3572

> <Gold.Chemscore.Internal_Hbond>
0.0000

> <Gold.Chemscore.DEClash>
0.0126

> <Gold.Chemscore.DEInternal>
0.8131

> <Gold.Chemscore.Rot>
2.6144

> <Gold.Chemscore.Internal.Correction>
   9.000000E+99

> <Gold.Chemscore.Hbonds>
donor molecule, donor type, donor heavy atom, donor atom, acceptor molecule, acceptor atom, score
      P1  H  7997  8010       L1     1  0.25
      P1  H 10752 10763       L1     6  0.29

> <Gold.Chemscore.Hbond.Weighted>
-3.7533

> <Gold.Chemscore.Metal.Weighted>
-0.0000

> <Gold.Chemscore.Lipo.Weighted>
-11.6248

> <Gold.Chemscore.Internal_Hbond.Weighted>
0.0000

> <Gold.Chemscore.DEClash.Weighted>
0.0126

> <Gold.Chemscore.DEInternal.Weighted>
0.8131

> <Gold.Chemscore.Rot.Weighted>
6.6929

> <Gold.Chemscore.Internal.Correction.Weighted>
   9.000000E+99

> <Gold.Protein.RotatedTorsions>
[ 6907 6896 6895 6894 ] final  117.67 input  -60.11 | X-H torsion
[ 7974 7965 7964 7962 ] final -175.84 input  175.53 | X-H torsion
[ 8008 7997 7996 7995 ] final   63.37 input   59.86 | X-H torsion
[ 10167 10162 10161 10158 ] final  -79.73 input  -65.29 | X-H torsion
[ 10718 10713 10712 10709 ] final  -41.77 input   66.30 | X-H torsion
[ 10763 10752 10751 10750 ] final   77.37 input  -60.55 | X-H torsion
[ 11005 11000 10999 10996 ] final  103.70 input  -57.11 | X-H torsion

> <Gold.Protein.ActiveResidues>
 VAL166  LYS551  ARG553  GLY616  TRP617  ASP618  TYR619  PRO620  LYS621  CYS622 
 ASP623  PHE694  ASN695  SER759  ASP760  ASP761  ALA762  ILE779  LEU786  VAL792 
 PHE793  MET794  SER795  GLU796  ALA797  LYS798  CYS799  TRP800  GLU811  SER814 

> <Gold.Protein.RotatedAtoms>
  152.4596  133.7794  159.6842 H   0  0  0  0  0  0  0  0  0  0  0  0  # atno 6907 bound_to 6896
  150.8535  133.7741  159.3023 H   0  0  0  0  0  0  0  0  0  0  0  0  # atno 6908 bound_to 6896
  151.5329  135.1071  159.9959 H   0  0  0  0  0  0  0  0  0  0  0  0  # atno 6909 bound_to 6896
  144.7127  140.1260  143.6402 H   0  0  0  0  0  0  0  0  0  0  0  0  # atno 7974 bound_to 7965
  155.6291  140.3496  155.4677 H   0  0  0  0  0  0  0  0  0  0  0  0  # atno 8008 bound_to 7997
  156.0018  140.1215  157.0564 H   0  0  0  0  0  0  0  0  0  0  0  0  # atno 8009 bound_to 7997
  154.4251  140.1099  156.5693 H   0  0  0  0  0  0  0  0  0  0  0  0  # atno 8010 bound_to 7997
  140.4567  143.2466  151.8409 H   0  0  0  0  0  0  0  0  0  0  0  0  # atno 10167 bound_to 10162
  156.2667  130.4202  149.8482 H   0  0  0  0  0  0  0  0  0  0  0  0  # atno 10718 bound_to 10713
  153.0793  135.4917  154.8470 H   0  0  0  0  0  0  0  0  0  0  0  0  # atno 10763 bound_to 10752
  154.7130  135.3024  154.9170 H   0  0  0  0  0  0  0  0  0  0  0  0  # atno 10764 bound_to 10752
  153.9858  135.6784  153.4805 H   0  0  0  0  0  0  0  0  0  0  0  0  # atno 10765 bound_to 10752
  139.8786  134.9273  156.5249 H   0  0  0  0  0  0  0  0  0  0  0  0  # atno 11005 bound_to 11000
  145.9329  139.2618  143.1314 LP  0  0  0  0  0  0  0  0  0  0  0  0  # atno 17320 bound_to 7965
  145.9504  140.8913  143.0262 LP  0  0  0  0  0  0  0  0  0  0  0  0  # atno 17321 bound_to 7965
  139.4802  144.5056  151.9002 LP  0  0  0  0  0  0  0  0  0  0  0  0  # atno 17342 bound_to 10162
  140.4142  144.2328  150.5888 LP  0  0  0  0  0  0  0  0  0  0  0  0  # atno 17343 bound_to 10162
  156.5978  130.8534  151.3424 LP  0  0  0  0  0  0  0  0  0  0  0  0  # atno 17370 bound_to 10713
  157.7270  130.9637  150.1679 LP  0  0  0  0  0  0  0  0  0  0  0  0  # atno 17371 bound_to 10713
  140.8423  133.8195  155.9087 LP  0  0  0  0  0  0  0  0  0  0  0  0  # atno 17394 bound_to 11000
  140.9225  134.2124  157.4917 LP  0  0  0  0  0  0  0  0  0  0  0  0  # atno 17395 bound_to 11000

$$$$
