AV-unprocessed.smi:166|AV-procd|sdf|1389|dock5
  -GOLD-   2262019123D 1   1.00000     0.00000
 Structure written by MMmdl.
 54 58  0  0  0  0  0  0  0  0  1 V2000
  149.6776  142.8474  157.5568 O   0  0  0  0  0  0  0  0  0  0  0  0
  151.0791  142.6792  157.4267 C   0  0  2  0  0  0  0  0  0  0  0  0
  151.3840  141.9856  156.0779 C   0  0  0  0  0  0  0  0  0  0  0  0
  150.8910  140.6185  155.9961 N   0  0  0  0  0  0  0  0  0  0  0  0
  149.5853  140.2254  155.8052 C   0  0  0  0  0  0  0  0  0  0  0  0
  149.3897  138.9357  155.7784 N   0  0  0  0  0  0  0  0  0  0  0  0
  150.6554  138.3958  155.9740 C   0  0  0  0  0  0  0  0  0  0  0  0
  151.1623  137.0690  156.0695 C   0  0  0  0  0  0  0  0  0  0  0  0
  150.3715  135.9726  155.9499 N   0  0  0  0  0  0  0  0  0  0  0  0
  149.2621  135.9081  156.9003 C   0  0  0  0  0  0  0  0  0  0  0  0
  148.6964  134.4813  156.9829 C   0  0  0  0  0  0  0  0  0  0  0  0
  148.3201  133.9582  155.5886 C   0  0  0  0  0  0  0  0  0  0  0  0
  149.5240  134.0502  154.6365 C   0  0  1  0  0  0  0  0  0  0  0  0
  149.0843  133.6336  153.3509 O   0  0  0  0  0  0  0  0  0  0  0  0
  148.4146  132.3797  153.3335 C   0  0  0  0  0  0  0  0  0  0  0  0
  146.9500  132.5449  152.9711 C   0  0  0  0  0  0  0  0  0  0  0  0
  146.4857  132.4438  151.5325 C   0  0  0  0  0  0  0  0  0  0  0  0
  146.4620  133.7751  152.2338 C   0  0  0  0  0  0  0  0  0  0  0  0
  150.0676  135.4942  154.6000 C   0  0  0  0  0  0  0  0  0  0  0  0
  152.4957  136.9241  156.2953 N   0  0  0  0  0  0  0  0  0  0  0  0
  153.2810  137.9987  156.4145 C   0  0  0  0  0  0  0  0  0  0  0  0
  152.9463  139.2885  156.3463 N   0  0  0  0  0  0  0  0  0  0  0  0
  151.6098  139.4420  156.1223 C   0  0  0  0  0  0  0  0  0  0  0  0
  151.5759  141.8794  158.6253 C   0  0  0  0  0  0  0  0  0  0  0  0
  151.8721  142.9617  159.6544 C   0  0  0  0  0  0  0  0  0  0  0  0
  152.4439  143.9926  158.8682 O   0  0  0  0  0  0  0  0  0  0  0  0
  151.7578  144.0517  157.6213 C   0  0  0  0  0  0  0  0  0  0  0  0
  149.4241  143.6206  157.0767 H   0  0  0  0  0  0  0  0  0  0  0  0
  150.9496  142.5565  155.2563 H   0  0  0  0  0  0  0  0  0  0  0  0
  152.4601  141.9690  155.9001 H   0  0  0  0  0  0  0  0  0  0  0  0
  148.7757  140.9308  155.6856 H   0  0  0  0  0  0  0  0  0  0  0  0
  149.5678  136.2326  157.8944 H   0  0  0  0  0  0  0  0  0  0  0  0
  148.4827  136.5976  156.5733 H   0  0  0  0  0  0  0  0  0  0  0  0
  149.4380  133.8208  157.4339 H   0  0  0  0  0  0  0  0  0  0  0  0
  147.8250  134.4628  157.6377 H   0  0  0  0  0  0  0  0  0  0  0  0
  147.9730  132.9266  155.6568 H   0  0  0  0  0  0  0  0  0  0  0  0
  147.4888  134.5420  155.1910 H   0  0  0  0  0  0  0  0  0  0  0  0
  150.2999  133.3734  154.9993 H   0  0  0  0  0  0  0  0  0  0  0  0
  148.8738  131.7056  152.6107 H   0  0  0  0  0  0  0  0  0  0  0  0
  148.4764  131.9061  154.3143 H   0  0  0  0  0  0  0  0  0  0  0  0
  146.2698  132.1414  153.7190 H   0  0  0  0  0  0  0  0  0  0  0  0
  147.2373  132.2971  150.7592 H   0  0  0  0  0  0  0  0  0  0  0  0
  145.5303  131.9568  151.3482 H   0  0  0  0  0  0  0  0  0  0  0  0
  145.4907  134.1756  152.5167 H   0  0  0  0  0  0  0  0  0  0  0  0
  147.1981  134.5164  151.9289 H   0  0  0  0  0  0  0  0  0  0  0  0
  149.3328  136.1572  154.1411 H   0  0  0  0  0  0  0  0  0  0  0  0
  150.9695  135.5371  153.9888 H   0  0  0  0  0  0  0  0  0  0  0  0
  154.3271  137.7958  156.5902 H   0  0  0  0  0  0  0  0  0  0  0  0
  150.8658  141.1317  158.9808 H   0  0  0  0  0  0  0  0  0  0  0  0
  152.5046  141.3631  158.3778 H   0  0  0  0  0  0  0  0  0  0  0  0
  150.9544  143.3215  160.1224 H   0  0  0  0  0  0  0  0  0  0  0  0
  152.5525  142.6270  160.4376 H   0  0  0  0  0  0  0  0  0  0  0  0
  152.4893  144.2691  156.8444 H   0  0  0  0  0  0  0  0  0  0  0  0
  151.0379  144.8714  157.6300 H   0  0  0  0  0  0  0  0  0  0  0  0
  1  2  1  0  0  0  0
  1 28  1  0  0  0  0
  2 27  1  0  0  0  0
  2  3  1  0  0  0  0
  2 24  1  0  0  0  0
  3  4  1  0  0  0  0
  3 29  1  0  0  0  0
  3 30  1  0  0  0  0
  4 23  1  0  0  0  0
  4  5  1  0  0  0  0
  5  6  2  0  0  0  0
  5 31  1  0  0  0  0
  6  7  1  0  0  0  0
  7 23  2  0  0  0  0
  7  8  1  0  0  0  0
  8  9  1  0  0  0  0
  8 20  2  0  0  0  0
  9 19  1  0  0  0  0
  9 10  1  0  0  0  0
 10 11  1  0  0  0  0
 10 32  1  0  0  0  0
 10 33  1  0  0  0  0
 11 12  1  0  0  0  0
 11 34  1  0  0  0  0
 11 35  1  0  0  0  0
 12 13  1  0  0  0  0
 12 36  1  0  0  0  0
 12 37  1  0  0  0  0
 13 14  1  0  0  0  0
 13 19  1  0  0  0  0
 13 38  1  0  0  0  0
 14 15  1  0  0  0  0
 15 16  1  0  0  0  0
 15 39  1  0  0  0  0
 15 40  1  0  0  0  0
 16 18  1  0  0  0  0
 16 17  1  0  0  0  0
 16 41  1  0  0  0  0
 17 18  1  0  0  0  0
 17 42  1  0  0  0  0
 17 43  1  0  0  0  0
 18 44  1  0  0  0  0
 18 45  1  0  0  0  0
 19 46  1  0  0  0  0
 19 47  1  0  0  0  0
 20 21  1  0  0  0  0
 21 22  2  0  0  0  0
 21 48  1  0  0  0  0
 22 23  1  0  0  0  0
 24 25  1  0  0  0  0
 24 49  1  0  0  0  0
 24 50  1  0  0  0  0
 25 26  1  0  0  0  0
 25 51  1  0  0  0  0
 25 52  1  0  0  0  0
 26 27  1  0  0  0  0
 27 53  1  0  0  0  0
 27 54  1  0  0  0  0
M  END
> <s_m_source_file>
AV-unprocessed.smi

> <i_m_source_file_index>
166

> <i_lp_mmshare_version>
43012

> <i_f3d_flags>
0

> <s_epik_input>
W0NIMl0xT1tDSDJdW0NIMl1bQ0BAXTEoW09IXSlbQ0gyXW4oW2NIXW4yKWMoYzIzKW5bY0hdbmMzTjRbQ0gyXVtDSDJdW0NIMl1bQ0BIXShbQ0gyXTQpT1tDSDJdW0NIXTVbQ0gyXVtDSDJdNQ==

> <s_epik_cmdline>
J2VwaWtfcHl0aG9uJywgJy1waCcsICc3LjAnLCAnLXRuJywgJzgnLCAnLW1hJywgJzIwMCcsICctbWV0YWxfYmluZGluZycsICctaW1hZScsICc8aW5maWxlLm1hZT4nLCAnLW9tYWUnLCAnPG91dGZpbGUubWFlPic=

> <r_lp_tautomer_probability>
1

> <r_epik_Ionization_Penalty>
0.00342552

> <r_epik_Ionization_Penalty_Charging>
0

> <r_epik_Ionization_Penalty_Neutral>
0.00342552

> <r_epik_State_Penalty>
0.0022204

> <r_epik_Charging_Adjusted_Penalty>
0.0022204

> <i_epik_Tot_Q>
0

> <i_epik_Tot_abs_Q>
0

> <r_epik_Metal_State_Penalty>
-0

> <b_epik_Metal_Only>
0

> <s_lp_Force_Field>
OPLS_2005

> <r_lp_Energy>
44.6649

> <b_lp_Chiralities_Consistent>
1

> <s_lp_Variant>
AV-unprocessed.smi:166-2

> <Gold.Version>
5.8.1

> <Gold.Id.Protein>
6NUR|6NUR_protein|mol2

> <Gold.PLP.Fitness>
43.6348

> <Gold.PLP.PLP>
-36.8186

> <Gold.PLP.part.hbond>
-3.0000

> <Gold.PLP.part.metal>
0.0000

> <Gold.PLP.part.buried>
-4.5594

> <Gold.PLP.part.nonpolar>
-29.2381

> <Gold.PLP.part.repulsive>
0.7273

> <Gold.PLP.ligand.clash>
0.0000

> <Gold.PLP.ligand.torsion>
1.4696

> <Gold.PLP.Chemscore.Hbond>
2.9280

> <Gold.PLP.Chemscore.CHOScore>
0.0000

> <Gold.PLP.Chemscore.Metal>
0.0000

> <Gold.Chemscore.Hbonds>
donor molecule, donor type, donor heavy atom, donor atom, acceptor molecule, acceptor atom, score
      L1  H     1    28       P1  8028  1.00
      P1  H  7997  8010       L1    22  1.00
      P1  H 10752 10765       L1    20  0.96

> <Gold.PLP.Chemscore.Internal.Correction>
0.9715

> <Gold.Rescore>
     Score         DG    S(hbond)    S(metal)    S(lipo)     H(rot)  DE(clash)    DE(int)     intcor
     13.83     -17.49       2.33        0.00      94.93       2.68       2.36       1.30       ----

> <Gold.Chemscore.Fitness>
13.8340

> <Gold.Chemscore.DG>
-17.4909

> <Gold.Chemscore.ZeroCoef>
-5.4800

> <Gold.Chemscore.Hbond>
2.3262

> <Gold.Chemscore.Metal>
0.0000

> <Gold.Chemscore.Lipo>
94.9260

> <Gold.Chemscore.Internal_Hbond>
0.0000

> <Gold.Chemscore.DEClash>
2.3574

> <Gold.Chemscore.DEInternal>
1.2995

> <Gold.Chemscore.Rot>
2.6817

> <Gold.Chemscore.Internal.Correction>
   9.000000E+99

> <Gold.Chemscore.Hbonds>
donor molecule, donor type, donor heavy atom, donor atom, acceptor molecule, acceptor atom, score
      L1  H     1    28       P1  8028  0.82
      P1  H  7997  8010       L1    22  0.50
      P1  H 10752 10765       L1    20  0.61

> <Gold.Chemscore.Hbond.Weighted>
-7.7696

> <Gold.Chemscore.Metal.Weighted>
-0.0000

> <Gold.Chemscore.Lipo.Weighted>
-11.1063

> <Gold.Chemscore.Internal_Hbond.Weighted>
0.0000

> <Gold.Chemscore.DEClash.Weighted>
2.3574

> <Gold.Chemscore.DEInternal.Weighted>
1.2995

> <Gold.Chemscore.Rot.Weighted>
6.8651

> <Gold.Chemscore.Internal.Correction.Weighted>
   9.000000E+99

> <Gold.Protein.RotatedTorsions>
[ 6907 6896 6895 6894 ] final  -76.89 input  -60.11 | X-H torsion
[ 7974 7965 7964 7962 ] final -117.49 input  175.53 | X-H torsion
[ 8008 7997 7996 7995 ] final   66.91 input   59.86 | X-H torsion
[ 10167 10162 10161 10158 ] final   19.78 input  -65.29 | X-H torsion
[ 10718 10713 10712 10709 ] final   43.73 input   66.30 | X-H torsion
[ 10763 10752 10751 10750 ] final -142.06 input  -60.55 | X-H torsion
[ 11005 11000 10999 10996 ] final   32.85 input  -57.11 | X-H torsion

> <Gold.Protein.ActiveResidues>
 VAL166  LYS551  ARG553  GLY616  TRP617  ASP618  TYR619  PRO620  LYS621  CYS622 
 ASP623  PHE694  ASN695  SER759  ASP760  ASP761  ALA762  ILE779  LEU786  VAL792 
 PHE793  MET794  SER795  GLU796  ALA797  LYS798  CYS799  TRP800  GLU811  SER814 

> <Gold.Protein.RotatedAtoms>
  150.7014  134.4504  159.5333 H   0  0  0  0  0  0  0  0  0  0  0  0  # atno 6907 bound_to 6896
  152.2198  134.8421  160.0496 H   0  0  0  0  0  0  0  0  0  0  0  0  # atno 6908 bound_to 6896
  151.9276  133.3567  159.3956 H   0  0  0  0  0  0  0  0  0  0  0  0  # atno 6909 bound_to 6896
  145.0847  140.8449  143.4018 H   0  0  0  0  0  0  0  0  0  0  0  0  # atno 7974 bound_to 7965
  155.6847  140.3496  155.4869 H   0  0  0  0  0  0  0  0  0  0  0  0  # atno 8008 bound_to 7997
  155.9576  140.1131  157.0946 H   0  0  0  0  0  0  0  0  0  0  0  0  # atno 8009 bound_to 7997
  154.4136  140.1182  156.5122 H   0  0  0  0  0  0  0  0  0  0  0  0  # atno 8010 bound_to 7997
  140.5553  143.9435  150.6605 H   0  0  0  0  0  0  0  0  0  0  0  0  # atno 10167 bound_to 10162
  157.4192  130.7959  149.7499 H   0  0  0  0  0  0  0  0  0  0  0  0  # atno 10718 bound_to 10713
  154.8523  135.3506  154.5968 H   0  0  0  0  0  0  0  0  0  0  0  0  # atno 10763 bound_to 10752
  153.6577  135.6991  153.5192 H   0  0  0  0  0  0  0  0  0  0  0  0  # atno 10764 bound_to 10752
  153.2842  135.4254  155.1065 H   0  0  0  0  0  0  0  0  0  0  0  0  # atno 10765 bound_to 10752
  140.2692  134.3102  155.7833 H   0  0  0  0  0  0  0  0  0  0  0  0  # atno 11005 bound_to 11000
  145.1137  139.2740  143.5624 LP  0  0  0  0  0  0  0  0  0  0  0  0  # atno 17320 bound_to 7965
  146.3531  140.0740  142.8621 LP  0  0  0  0  0  0  0  0  0  0  0  0  # atno 17321 bound_to 7965
  140.2872  143.3349  152.1096 LP  0  0  0  0  0  0  0  0  0  0  0  0  # atno 17342 bound_to 10162
  139.5045  144.6777  151.6087 LP  0  0  0  0  0  0  0  0  0  0  0  0  # atno 17343 bound_to 10162
  155.9875  130.3966  150.3163 LP  0  0  0  0  0  0  0  0  0  0  0  0  # atno 17370 bound_to 10713
  157.1309  131.0271  151.2969 LP  0  0  0  0  0  0  0  0  0  0  0  0  # atno 17371 bound_to 10713
  141.2180  133.7456  156.9307 LP  0  0  0  0  0  0  0  0  0  0  0  0  # atno 17394 bound_to 11000
  140.1390  134.9306  157.2441 LP  0  0  0  0  0  0  0  0  0  0  0  0  # atno 17395 bound_to 11000

$$$$
