AV-unprocessed.smi:3056|AV-procd|sdf|11659|dock7
  -GOLD-   2272017 63D 1   1.00000     0.00000
 Structure written by MMmdl.
 47 48  0  0  0  0  0  0  0  0  1 V2000
  151.9529  145.5730  159.5904 C   0  0  0  0  0  0  0  0  0  0  0  0
  151.7099  144.1612  159.1407 C   0  0  0  0  0  0  0  0  0  0  0  0
  152.4455  142.9924  159.4869 C   0  0  0  0  0  0  0  0  0  0  0  0
  151.9756  141.8996  158.9091 N   0  0  0  0  0  0  0  0  0  0  0  0
  150.9205  142.3269  158.1787 N   0  0  0  0  0  0  0  0  0  0  0  0
  150.1581  141.3894  157.3618 C   0  0  2  0  0  0  0  0  0  0  0  0
  150.2545  141.7912  155.8767 C   0  0  0  0  0  0  0  0  0  0  0  0
  148.6923  141.2442  157.8637 C   0  0  1  0  0  0  0  0  0  0  0  0
  147.8726  142.5350  157.6888 C   0  0  0  0  0  0  0  0  0  0  0  0
  147.9914  140.2153  157.0911 N   0  0  0  0  0  0  0  0  0  0  0  0
  148.6147  138.8784  157.1188 C   0  0  0  0  0  0  0  0  0  0  0  0
  148.1651  137.9581  158.2716 C   0  0  0  0  0  0  0  0  0  0  0  0
  147.1967  138.2876  158.9588 O   0  0  0  0  0  0  0  0  0  0  0  0
  148.8378  136.8018  158.4878 N   0  0  0  0  0  0  0  0  0  0  0  0
  148.4614  135.8392  159.5269 C   0  0  0  0  0  0  0  0  0  0  0  0
  148.0041  134.5410  158.8396 C   0  0  0  0  0  0  0  0  0  0  0  0
  149.0532  134.0436  158.0120 O   0  0  0  0  0  0  0  0  0  0  0  0
  149.4661  134.9662  157.0050 C   0  0  2  0  0  0  0  0  0  0  0  0
  150.5742  134.3069  156.1765 C   0  0  0  0  0  0  0  0  0  0  0  0
  149.9385  136.2721  157.6754 C   0  0  0  0  0  0  0  0  0  0  0  0
  150.7395  143.6887  158.3034 C   0  0  0  0  0  0  0  0  0  0  0  0
  152.8704  145.6617  160.1722 H   0  0  0  0  0  0  0  0  0  0  0  0
  151.1394  145.9412  160.2156 H   0  0  0  0  0  0  0  0  0  0  0  0
  152.0430  146.2540  158.7439 H   0  0  0  0  0  0  0  0  0  0  0  0
  153.3064  142.9072  160.1336 H   0  0  0  0  0  0  0  0  0  0  0  0
  150.6463  140.4181  157.4593 H   0  0  0  0  0  0  0  0  0  0  0  0
  149.8707  141.0084  155.2229 H   0  0  0  0  0  0  0  0  0  0  0  0
  151.2910  141.9660  155.5861 H   0  0  0  0  0  0  0  0  0  0  0  0
  149.6933  142.7030  155.6704 H   0  0  0  0  0  0  0  0  0  0  0  0
  148.6973  140.9992  158.9266 H   0  0  0  0  0  0  0  0  0  0  0  0
  148.2482  143.3377  158.3231 H   0  0  0  0  0  0  0  0  0  0  0  0
  146.8289  142.3804  157.9652 H   0  0  0  0  0  0  0  0  0  0  0  0
  147.8934  142.8857  156.6563 H   0  0  0  0  0  0  0  0  0  0  0  0
  147.8457  140.5455  156.1482 H   0  0  0  0  0  0  0  0  0  0  0  0
  148.3745  138.3758  156.1815 H   0  0  0  0  0  0  0  0  0  0  0  0
  149.6961  138.9957  157.1439 H   0  0  0  0  0  0  0  0  0  0  0  0
  149.3216  135.6430  160.1687 H   0  0  0  0  0  0  0  0  0  0  0  0
  147.6723  136.2061  160.1845 H   0  0  0  0  0  0  0  0  0  0  0  0
  147.7534  133.7859  159.5845 H   0  0  0  0  0  0  0  0  0  0  0  0
  147.1067  134.7120  158.2427 H   0  0  0  0  0  0  0  0  0  0  0  0
  148.6196  135.1772  156.3490 H   0  0  0  0  0  0  0  0  0  0  0  0
  150.9191  134.9705  155.3833 H   0  0  0  0  0  0  0  0  0  0  0  0
  150.2173  133.3889  155.7093 H   0  0  0  0  0  0  0  0  0  0  0  0
  151.4333  134.0526  156.7979 H   0  0  0  0  0  0  0  0  0  0  0  0
  150.2937  136.9598  156.9106 H   0  0  0  0  0  0  0  0  0  0  0  0
  150.7963  136.0775  158.3215 H   0  0  0  0  0  0  0  0  0  0  0  0
  149.9470  144.2064  157.7832 H   0  0  0  0  0  0  0  0  0  0  0  0
  1  2  1  0  0  0  0
  1 22  1  0  0  0  0
  1 23  1  0  0  0  0
  1 24  1  0  0  0  0
  2 21  2  0  0  0  0
  2  3  1  0  0  0  0
  3  4  2  0  0  0  0
  3 25  1  0  0  0  0
  4  5  1  0  0  0  0
  5  6  1  0  0  0  0
  5 21  1  0  0  0  0
  6  7  1  0  0  0  0
  6  8  1  0  0  0  0
  6 26  1  0  0  0  0
  7 27  1  0  0  0  0
  7 28  1  0  0  0  0
  7 29  1  0  0  0  0
  8  9  1  0  0  0  0
  8 10  1  0  0  0  0
  8 30  1  0  0  0  0
  9 31  1  0  0  0  0
  9 32  1  0  0  0  0
  9 33  1  0  0  0  0
 10 11  1  0  0  0  0
 10 34  1  0  0  0  0
 11 12  1  0  0  0  0
 11 35  1  0  0  0  0
 11 36  1  0  0  0  0
 12 13  2  0  0  0  0
 12 14  1  0  0  0  0
 14 20  1  0  0  0  0
 14 15  1  0  0  0  0
 15 16  1  0  0  0  0
 15 37  1  0  0  0  0
 15 38  1  0  0  0  0
 16 17  1  0  0  0  0
 16 39  1  0  0  0  0
 16 40  1  0  0  0  0
 17 18  1  0  0  0  0
 18 19  1  0  0  0  0
 18 20  1  0  0  0  0
 18 41  1  0  0  0  0
 19 42  1  0  0  0  0
 19 43  1  0  0  0  0
 19 44  1  0  0  0  0
 20 45  1  0  0  0  0
 20 46  1  0  0  0  0
 21 47  1  0  0  0  0
M  END
> <s_m_source_file>
AV-unprocessed.smi

> <i_m_source_file_index>
3056

> <i_lp_mmshare_version>
43012

> <i_f3d_flags>
0

> <s_epik_input>
W0NIM11jMVtjSF1ubihbY0hdMSlbQ0BIXShbQ0gzXSlbQ0BIXShbQ0gzXSlbTkhdW0NIMl1DKD1PKU4yW0NIMl1bQ0gyXU9bQ0BASF0oW0NIM10pW0NIMl0y

> <s_epik_cmdline>
J2VwaWtfcHl0aG9uJywgJy1waCcsICc3LjAnLCAnLXRuJywgJzgnLCAnLW1hJywgJzIwMCcsICctbWV0YWxfYmluZGluZycsICctaW1hZScsICc8aW5maWxlLm1hZT4nLCAnLW9tYWUnLCAnPG91dGZpbGUubWFlPic=

> <r_lp_tautomer_probability>
1

> <r_epik_Ionization_Penalty>
0.667689

> <r_epik_Ionization_Penalty_Charging>
0

> <r_epik_Ionization_Penalty_Neutral>
0.667689

> <r_epik_State_Penalty>
0.684601

> <r_epik_Charging_Adjusted_Penalty>
0.684601

> <i_epik_Tot_Q>
0

> <i_epik_Tot_abs_Q>
0

> <r_epik_Metal_State_Penalty>
0.681448

> <b_epik_Metal_Only>
0

> <s_lp_Force_Field>
OPLS_2005

> <r_lp_Energy>
30.5855

> <b_lp_Chiralities_Consistent>
1

> <s_lp_Variant>
AV-unprocessed.smi:3056-15

> <Gold.Version>
5.8.1

> <Gold.Id.Protein>
6NUR|6NUR_protein|mol2

> <Gold.PLP.Fitness>
39.9628

> <Gold.PLP.PLP>
-32.9020

> <Gold.PLP.part.hbond>
-2.0000

> <Gold.PLP.part.metal>
0.0000

> <Gold.PLP.part.buried>
-3.8525

> <Gold.PLP.part.nonpolar>
-27.3229

> <Gold.PLP.part.repulsive>
0.0000

> <Gold.PLP.ligand.clash>
0.0000

> <Gold.PLP.ligand.torsion>
0.3338

> <Gold.PLP.Chemscore.Hbond>
1.4000

> <Gold.PLP.Chemscore.CHOScore>
1.1439

> <Gold.PLP.Chemscore.Metal>
0.0000

> <Gold.Chemscore.Hbonds>
donor molecule, donor type, donor heavy atom, donor atom, acceptor molecule, acceptor atom, score
      P1  H  6896  6908       L1    17  0.81
      P1  H  6934  6947       L1    13  0.34
      L1  C    21    47       P1  8028  1.00
      L1  C    21    47       P1  8029  0.13

> <Gold.PLP.Chemscore.Internal.Correction>
0.0967

> <Gold.Rescore>
     Score         DG    S(hbond)    S(metal)    S(lipo)     H(rot)  DE(clash)    DE(int)     intcor
     13.39     -13.96       0.85        0.00      85.02       1.68       0.11       0.46       ----

> <Gold.Chemscore.Fitness>
13.3929

> <Gold.Chemscore.DG>
-13.9599

> <Gold.Chemscore.ZeroCoef>
-5.4800

> <Gold.Chemscore.Hbond>
0.8477

> <Gold.Chemscore.Metal>
0.0000

> <Gold.Chemscore.Lipo>
85.0220

> <Gold.Chemscore.Internal_Hbond>
0.0000

> <Gold.Chemscore.DEClash>
0.1090

> <Gold.Chemscore.DEInternal>
0.4580

> <Gold.Chemscore.Rot>
1.6793

> <Gold.Chemscore.Internal.Correction>
   9.000000E+99

> <Gold.Chemscore.Hbonds>
donor molecule, donor type, donor heavy atom, donor atom, acceptor molecule, acceptor atom, score
      P1  H  6896  6908       L1    17  0.16
      P1  H  6934  6947       L1    13  0.32

> <Gold.Chemscore.Hbond.Weighted>
-2.8314

> <Gold.Chemscore.Metal.Weighted>
-0.0000

> <Gold.Chemscore.Lipo.Weighted>
-9.9476

> <Gold.Chemscore.Internal_Hbond.Weighted>
0.0000

> <Gold.Chemscore.DEClash.Weighted>
0.1090

> <Gold.Chemscore.DEInternal.Weighted>
0.4580

> <Gold.Chemscore.Rot.Weighted>
4.2990

> <Gold.Chemscore.Internal.Correction.Weighted>
   9.000000E+99

> <Gold.Protein.RotatedTorsions>
[ 6907 6896 6895 6894 ] final  128.66 input  -60.11 | X-H torsion
[ 7974 7965 7964 7962 ] final  -26.41 input  175.53 | X-H torsion
[ 8008 7997 7996 7995 ] final -176.53 input   59.86 | X-H torsion
[ 10167 10162 10161 10158 ] final  105.37 input  -65.29 | X-H torsion
[ 10718 10713 10712 10709 ] final  170.54 input   66.30 | X-H torsion
[ 10763 10752 10751 10750 ] final    8.96 input  -60.55 | X-H torsion
[ 11005 11000 10999 10996 ] final   15.51 input  -57.11 | X-H torsion

> <Gold.Protein.ActiveResidues>
 VAL166  LYS551  ARG553  GLY616  TRP617  ASP618  TYR619  PRO620  LYS621  CYS622 
 ASP623  PHE694  ASN695  SER759  ASP760  ASP761  ALA762  ILE779  LEU786  VAL792 
 PHE793  MET794  SER795  GLU796  ALA797  LYS798  CYS799  TRP800  GLU811  SER814 

> <Gold.Protein.RotatedAtoms>
  152.3698  133.6404  159.6077 H   0  0  0  0  0  0  0  0  0  0  0  0  # atno 6907 bound_to 6896
  150.7660  133.9289  159.3429 H   0  0  0  0  0  0  0  0  0  0  0  0  # atno 6908 bound_to 6896
  151.7114  135.0913  160.0319 H   0  0  0  0  0  0  0  0  0  0  0  0  # atno 6909 bound_to 6896
  146.1427  140.5017  142.8645 H   0  0  0  0  0  0  0  0  0  0  0  0  # atno 7974 bound_to 7965
  155.9960  140.1211  157.0593 H   0  0  0  0  0  0  0  0  0  0  0  0  # atno 8008 bound_to 7997
  154.4227  140.1116  156.5700 H   0  0  0  0  0  0  0  0  0  0  0  0  # atno 8009 bound_to 7997
  155.6277  140.3472  155.4675 H   0  0  0  0  0  0  0  0  0  0  0  0  # atno 8010 bound_to 7997
  139.7098  144.7080  151.1046 H   0  0  0  0  0  0  0  0  0  0  0  0  # atno 10167 bound_to 10162
  157.0066  131.0192  151.2815 H   0  0  0  0  0  0  0  0  0  0  0  0  # atno 10718 bound_to 10713
  153.2192  135.6879  153.8020 H   0  0  0  0  0  0  0  0  0  0  0  0  # atno 10763 bound_to 10752
  153.7225  135.3265  155.3270 H   0  0  0  0  0  0  0  0  0  0  0  0  # atno 10764 bound_to 10752
  154.8261  135.4616  154.1033 H   0  0  0  0  0  0  0  0  0  0  0  0  # atno 10765 bound_to 10752
  140.4575  134.1162  155.7711 H   0  0  0  0  0  0  0  0  0  0  0  0  # atno 11005 bound_to 11000
  144.7810  140.5841  143.6605 LP  0  0  0  0  0  0  0  0  0  0  0  0  # atno 17320 bound_to 7965
  145.5010  139.1483  143.3657 LP  0  0  0  0  0  0  0  0  0  0  0  0  # atno 17321 bound_to 7965
  140.7730  143.5309  150.9425 LP  0  0  0  0  0  0  0  0  0  0  0  0  # atno 17342 bound_to 10162
  139.8993  143.6856  152.3134 LP  0  0  0  0  0  0  0  0  0  0  0  0  # atno 17343 bound_to 10162
  157.5351  130.8083  149.7962 LP  0  0  0  0  0  0  0  0  0  0  0  0  # atno 17370 bound_to 10713
  156.0151  130.3817  150.2136 LP  0  0  0  0  0  0  0  0  0  0  0  0  # atno 17371 bound_to 10713
  141.1636  133.8745  157.1777 LP  0  0  0  0  0  0  0  0  0  0  0  0  # atno 17394 bound_to 11000
  139.9967  135.0044  157.0098 LP  0  0  0  0  0  0  0  0  0  0  0  0  # atno 17395 bound_to 11000

$$$$
