AV-unprocessed.smi:55|AV-procd|sdf|571|dock7
  -GOLD-   2262016473D 1   1.00000     0.00000
 Structure written by MMmdl.
 30 31  0  0  0  0  0  0  0  0  2 V2000
  150.4971  142.8677  158.7520 C   0  0  0  0  0  0  0  0  0  0  0  0
  150.8262  141.8697  157.6556 C   0  0  0  0  0  0  0  0  0  0  0  0
  150.0501  141.7209  156.5589 C   0  0  0  0  0  0  0  0  0  0  0  0
  150.3567  140.8116  155.5621 N   0  0  0  0  0  0  0  0  0  0  0  0
  149.4820  140.6869  154.3379 C   0  0  2  0  0  0  0  0  0  0  0  0
  148.3353  141.6889  154.3799 C   0  0  0  0  0  0  0  0  0  0  0  0
  147.2468  140.9619  153.5990 C   0  0  2  0  0  0  0  0  0  0  0  0
  146.0049  141.0900  154.2664 O   0  0  0  0  0  0  0  0  0  0  0  0
  147.7553  139.5053  153.4604 C   0  0  2  0  0  0  0  0  0  0  0  0
  146.7519  138.3952  153.8262 C   0  0  0  0  0  0  0  0  0  0  0  0
  147.3873  137.1347  153.7921 O   0  0  0  0  0  0  0  0  0  0  0  0
  148.8812  139.4353  154.3274 O   0  0  0  0  0  0  0  0  0  0  0  0
  151.5349  140.0278  155.6630 C   0  0  0  0  0  0  0  0  0  0  0  0
  151.8025  139.2609  154.7375 O   0  0  0  0  0  0  0  0  0  0  0  0
  152.3191  140.1638  156.7705 N   0  5  0  0  0  0  0  0  0  0  0  0
  152.0299  141.0378  157.7774 C   0  0  0  0  0  0  0  0  0  0  0  0
  152.7456  141.1485  158.7726 O   0  0  0  0  0  0  0  0  0  0  0  0
  150.1234  140.7810  153.4594 H   0  0  0  0  0  0  0  0  0  0  0  0
  147.1420  141.4024  152.6068 H   0  0  0  0  0  0  0  0  0  0  0  0
  148.1064  139.3683  152.4359 H   0  0  0  0  0  0  0  0  0  0  0  0
  149.5814  143.4155  158.5279 H   0  0  0  0  0  0  0  0  0  0  0  0
  151.3055  143.5911  158.8627 H   0  0  0  0  0  0  0  0  0  0  0  0
  150.3597  142.3555  159.7047 H   0  0  0  0  0  0  0  0  0  0  0  0
  149.1694  142.3379  156.4584 H   0  0  0  0  0  0  0  0  0  0  0  0
  148.0386  141.8494  155.4182 H   0  0  0  0  0  0  0  0  0  0  0  0
  148.6330  142.6426  153.9433 H   0  0  0  0  0  0  0  0  0  0  0  0
  145.3146  140.8682  153.6607 H   0  0  0  0  0  0  0  0  0  0  0  0
  146.3072  138.5707  154.8064 H   0  0  0  0  0  0  0  0  0  0  0  0
  145.9405  138.3572  153.0990 H   0  0  0  0  0  0  0  0  0  0  0  0
  147.8734  137.0654  152.9848 H   0  0  0  0  0  0  0  0  0  0  0  0
  1  2  1  0  0  0  0
  1 21  1  0  0  0  0
  1 22  1  0  0  0  0
  1 23  1  0  0  0  0
  2 16  1  0  0  0  0
  2  3  2  0  0  0  0
  3  4  1  0  0  0  0
  3 24  1  0  0  0  0
  4  5  1  0  0  0  0
  4 13  1  0  0  0  0
  5 18  1  0  0  0  0
  5 12  1  0  0  0  0
  5  6  1  0  0  0  0
  6  7  1  0  0  0  0
  6 25  1  0  0  0  0
  6 26  1  0  0  0  0
  7 19  1  0  0  0  0
  7  8  1  0  0  0  0
  7  9  1  0  0  0  0
  8 27  1  0  0  0  0
  9 20  1  0  0  0  0
  9 10  1  0  0  0  0
  9 12  1  0  0  0  0
 10 11  1  0  0  0  0
 10 28  1  0  0  0  0
 10 29  1  0  0  0  0
 11 30  1  0  0  0  0
 13 14  2  0  0  0  0
 13 15  1  0  0  0  0
 15 16  1  0  0  0  0
 16 17  2  0  0  0  0
M  CHG  1  15  -1
M  END
> <s_m_source_file>
AV-unprocessed.smi

> <i_m_source_file_index>
55

> <i_lp_mmshare_version>
43012

> <i_f3d_flags>
0

> <s_epik_input>
Tz1jMVtuSF1jKD1PKW4oW2NIXWMxW0NIM10pW0NAQEhdMltDSDJdW0NAQEhdKFtPSF0pW0NAQEhdKE8yKVtDSDJdW09IXQ==

> <s_epik_cmdline>
J2VwaWtfcHl0aG9uJywgJy1waCcsICc3LjAnLCAnLXRuJywgJzgnLCAnLW1hJywgJzIwMCcsICctbWV0YWxfYmluZGluZycsICctaW1hZScsICc8aW5maWxlLm1hZT4nLCAnLW9tYWUnLCAnPG91dGZpbGUubWFlPic=

> <r_lp_tautomer_probability>
0.999537

> <r_epik_Ionization_Penalty>
3.66603

> <r_epik_Ionization_Penalty_Charging>
1.09773e-07

> <r_epik_Ionization_Penalty_Neutral>
3.66603

> <r_epik_State_Penalty>
3.66562

> <r_epik_Charging_Adjusted_Penalty>
3.66562

> <i_epik_Tot_Q>
-1

> <i_epik_Tot_abs_Q>
1

> <r_epik_Metal_State_Penalty>
0.234536

> <b_epik_Metal_Only>
1

> <s_epik_Chemistry_Notes>
This compound contains an acetal/aminal-like group ( X-CH(R)-Y where X, Y are N, S, or O) that may be acid/base labile, releasing an aldehyde.

> <s_lp_Force_Field>
OPLS_2005

> <r_lp_Energy>
40.7454

> <b_lp_Chiralities_Consistent>
1

> <s_lp_Variant>
AV-unprocessed.smi:55-11

> <Gold.Version>
5.8.1

> <Gold.Id.Protein>
6NUR|6NUR_protein|mol2

> <Gold.PLP.Fitness>
44.0464

> <Gold.PLP.PLP>
-28.0538

> <Gold.PLP.part.hbond>
-4.0000

> <Gold.PLP.part.metal>
0.0000

> <Gold.PLP.part.buried>
0.7790

> <Gold.PLP.part.nonpolar>
-23.2257

> <Gold.PLP.part.repulsive>
0.2073

> <Gold.PLP.ligand.clash>
0.0000

> <Gold.PLP.ligand.torsion>
0.0783

> <Gold.PLP.Chemscore.Hbond>
4.3750

> <Gold.PLP.Chemscore.CHOScore>
1.0000

> <Gold.PLP.Chemscore.Metal>
0.0000

> <Gold.Chemscore.Hbonds>
donor molecule, donor type, donor heavy atom, donor atom, acceptor molecule, acceptor atom, score
      L1  H     8    27       P1 10175  0.96
      L1  H    11    30       P1  7948  1.00
      P1  H  7989  7998       L1    14  0.40
      P1  H  7997  8009       L1    15  1.92
      L1  C     3    24       P1  8028  1.00

> <Gold.PLP.Chemscore.Internal.Correction>
0.0242

> <Gold.Rescore>
     Score         DG    S(hbond)    S(metal)    S(lipo)     H(rot)  DE(clash)    DE(int)     intcor
     11.14     -12.67       2.65        0.00      44.73       2.69       0.30       1.23       ----

> <Gold.Chemscore.Fitness>
11.1441

> <Gold.Chemscore.DG>
-12.6696

> <Gold.Chemscore.ZeroCoef>
-5.4800

> <Gold.Chemscore.Hbond>
2.6452

> <Gold.Chemscore.Metal>
0.0000

> <Gold.Chemscore.Lipo>
44.7309

> <Gold.Chemscore.Internal_Hbond>
0.0000

> <Gold.Chemscore.DEClash>
0.2969

> <Gold.Chemscore.DEInternal>
1.2286

> <Gold.Chemscore.Rot>
2.6871

> <Gold.Chemscore.Internal.Correction>
   9.000000E+99

> <Gold.Chemscore.Hbonds>
donor molecule, donor type, donor heavy atom, donor atom, acceptor molecule, acceptor atom, score
      L1  H     8    27       P1 10175  0.78
      L1  H    11    30       P1  7948  0.98
      P1  H  7989  7998       L1    14  0.01
      P1  H  7997  8009       L1    15  0.60

> <Gold.Chemscore.Hbond.Weighted>
-8.8351

> <Gold.Chemscore.Metal.Weighted>
-0.0000

> <Gold.Chemscore.Lipo.Weighted>
-5.2335

> <Gold.Chemscore.Internal_Hbond.Weighted>
0.0000

> <Gold.Chemscore.DEClash.Weighted>
0.2969

> <Gold.Chemscore.DEInternal.Weighted>
1.2286

> <Gold.Chemscore.Rot.Weighted>
6.8791

> <Gold.Chemscore.Internal.Correction.Weighted>
   9.000000E+99

> <Gold.Protein.RotatedTorsions>
[ 6907 6896 6895 6894 ] final   15.92 input  -60.11 | X-H torsion
[ 7974 7965 7964 7962 ] final  137.48 input  175.53 | X-H torsion
[ 8008 7997 7996 7995 ] final -163.78 input   59.86 | X-H torsion
[ 10167 10162 10161 10158 ] final   75.30 input  -65.29 | X-H torsion
[ 10718 10713 10712 10709 ] final  -68.89 input   66.30 | X-H torsion
[ 10763 10752 10751 10750 ] final   76.92 input  -60.55 | X-H torsion
[ 11005 11000 10999 10996 ] final  -24.02 input  -57.11 | X-H torsion

> <Gold.Protein.ActiveResidues>
 VAL166  LYS551  ARG553  GLY616  TRP617  ASP618  TYR619  PRO620  LYS621  CYS622 
 ASP623  PHE694  ASN695  SER759  ASP760  ASP761  ALA762  ILE779  LEU786  VAL792 
 PHE793  MET794  SER795  GLU796  ALA797  LYS798  CYS799  TRP800  GLU811  SER814 

> <Gold.Protein.RotatedAtoms>
  151.8257  135.0637  160.0430 H   0  0  0  0  0  0  0  0  0  0  0  0  # atno 6907 bound_to 6896
  152.2918  133.5564  159.5570 H   0  0  0  0  0  0  0  0  0  0  0  0  # atno 6908 bound_to 6896
  150.7233  134.0334  159.3783 H   0  0  0  0  0  0  0  0  0  0  0  0  # atno 6909 bound_to 6896
  144.9464  139.4870  143.5547 H   0  0  0  0  0  0  0  0  0  0  0  0  # atno 7974 bound_to 7965
  155.8262  140.0927  157.1820 H   0  0  0  0  0  0  0  0  0  0  0  0  # atno 8008 bound_to 7997
  154.3979  140.1427  156.3619 H   0  0  0  0  0  0  0  0  0  0  0  0  # atno 8009 bound_to 7997
  155.8215  140.3446  155.5519 H   0  0  0  0  0  0  0  0  0  0  0  0  # atno 8010 bound_to 7997
  140.0044  144.5662  150.7710 H   0  0  0  0  0  0  0  0  0  0  0  0  # atno 10167 bound_to 10162
  156.0483  130.4302  150.2066 H   0  0  0  0  0  0  0  0  0  0  0  0  # atno 10718 bound_to 10713
  153.0761  135.4933  154.8406 H   0  0  0  0  0  0  0  0  0  0  0  0  # atno 10763 bound_to 10752
  154.7088  135.3016  154.9231 H   0  0  0  0  0  0  0  0  0  0  0  0  # atno 10764 bound_to 10752
  153.9931  135.6775  153.4808 H   0  0  0  0  0  0  0  0  0  0  0  0  # atno 10765 bound_to 10752
  140.8807  133.7656  156.0298 H   0  0  0  0  0  0  0  0  0  0  0  0  # atno 11005 bound_to 11000
  146.3305  139.8519  142.8871 LP  0  0  0  0  0  0  0  0  0  0  0  0  # atno 17320 bound_to 7965
  145.2912  141.0167  143.3662 LP  0  0  0  0  0  0  0  0  0  0  0  0  # atno 17321 bound_to 7965
  140.7406  143.2807  151.3608 LP  0  0  0  0  0  0  0  0  0  0  0  0  # atno 17342 bound_to 10162
  139.6249  144.0834  152.2425 LP  0  0  0  0  0  0  0  0  0  0  0  0  # atno 17343 bound_to 10162
  157.0153  130.9963  151.3354 LP  0  0  0  0  0  0  0  0  0  0  0  0  # atno 17370 bound_to 10713
  157.5382  130.8102  149.7997 LP  0  0  0  0  0  0  0  0  0  0  0  0  # atno 17371 bound_to 10713
  140.8465  134.3005  157.5293 LP  0  0  0  0  0  0  0  0  0  0  0  0  # atno 17394 bound_to 11000
  139.8719  134.9444  156.3882 LP  0  0  0  0  0  0  0  0  0  0  0  0  # atno 17395 bound_to 11000

$$$$
