AV-unprocessed.smi:2109|AV-procd|sdf|8606|dock8
  -GOLD-   2272011343D 1   1.00000     0.00000
 Structure written by MMmdl.
 45 46  0  0  0  0  0  0  0  0  1 V2000
  148.2468  133.1889  152.7169 C   0  0  0  0  0  0  0  0  0  0  0  0
  148.3671  132.8687  154.2167 C   0  0  0  0  0  0  0  0  0  0  0  0
  147.0737  133.2392  154.9574 C   0  0  0  0  0  0  0  0  0  0  0  0
  149.5850  133.5564  154.8711 C   0  0  0  0  0  0  0  0  0  0  0  0
  149.8381  134.8933  154.3426 N   0  0  0  0  0  0  0  0  0  0  0  0
  150.7987  135.7217  154.7758 C   0  0  0  0  0  0  0  0  0  0  0  0
  151.6049  135.4397  155.6627 O   0  0  0  0  0  0  0  0  0  0  0  0
  150.7747  136.8952  154.1296 N   0  0  0  0  0  0  0  0  0  0  0  0
  151.7099  137.9884  154.3672 C   0  0  0  0  0  0  0  0  0  0  0  0
  151.0278  139.2546  154.8558 C   0  0  0  0  0  0  0  0  0  0  0  0
  149.8352  139.7039  154.2568 C   0  0  0  0  0  0  0  0  0  0  0  0
  149.2418  140.8793  154.7524 C   0  0  0  0  0  0  0  0  0  0  0  0
  149.7645  141.6025  155.7648 N   0  0  0  0  0  0  0  0  0  0  0  0
  150.9201  141.1872  156.3407 C   0  0  0  0  0  0  0  0  0  0  0  0
  151.4639  141.9626  157.3881 N   0  0  0  0  0  0  0  0  0  0  0  0
  152.2747  141.2786  158.3944 C   0  0  0  0  0  0  0  0  0  0  0  0
  153.0000  142.3009  159.2855 C   0  0  0  0  0  0  0  0  0  0  0  0
  152.0518  143.1940  159.8599 O   0  0  0  0  0  0  0  0  0  0  0  0
  151.3507  143.9322  158.8650 C   0  0  0  0  0  0  0  0  0  0  0  0
  150.5690  142.9692  157.9549 C   0  0  0  0  0  0  0  0  0  0  0  0
  151.5772  140.0081  155.9146 C   0  0  0  0  0  0  0  0  0  0  0  0
  148.1391  134.2608  152.5480 H   0  0  0  0  0  0  0  0  0  0  0  0
  147.3780  132.6952  152.2810 H   0  0  0  0  0  0  0  0  0  0  0  0
  149.1218  132.8493  152.1627 H   0  0  0  0  0  0  0  0  0  0  0  0
  148.4920  131.7895  154.3132 H   0  0  0  0  0  0  0  0  0  0  0  0
  146.8783  134.3108  154.9036 H   0  0  0  0  0  0  0  0  0  0  0  0
  147.1315  132.9637  156.0109 H   0  0  0  0  0  0  0  0  0  0  0  0
  146.2139  132.7218  154.5309 H   0  0  0  0  0  0  0  0  0  0  0  0
  149.4273  133.6452  155.9465 H   0  0  0  0  0  0  0  0  0  0  0  0
  150.4793  132.9439  154.7436 H   0  0  0  0  0  0  0  0  0  0  0  0
  149.2279  135.2142  153.6051 H   0  0  0  0  0  0  0  0  0  0  0  0
  150.0753  137.0374  153.4159 H   0  0  0  0  0  0  0  0  0  0  0  0
  152.4236  137.6682  155.1264 H   0  0  0  0  0  0  0  0  0  0  0  0
  152.2910  138.1918  153.4658 H   0  0  0  0  0  0  0  0  0  0  0  0
  149.3779  139.1599  153.4434 H   0  0  0  0  0  0  0  0  0  0  0  0
  148.3231  141.2505  154.3227 H   0  0  0  0  0  0  0  0  0  0  0  0
  151.6328  140.6418  159.0046 H   0  0  0  0  0  0  0  0  0  0  0  0
  153.0109  140.6345  157.9116 H   0  0  0  0  0  0  0  0  0  0  0  0
  153.5346  141.7885  160.0853 H   0  0  0  0  0  0  0  0  0  0  0  0
  153.7424  142.8592  158.7129 H   0  0  0  0  0  0  0  0  0  0  0  0
  150.6653  144.6242  159.3548 H   0  0  0  0  0  0  0  0  0  0  0  0
  152.0496  144.5357  158.2833 H   0  0  0  0  0  0  0  0  0  0  0  0
  150.0665  143.5463  157.1800 H   0  0  0  0  0  0  0  0  0  0  0  0
  149.7907  142.4640  158.5283 H   0  0  0  0  0  0  0  0  0  0  0  0
  152.4854  139.6728  156.3928 H   0  0  0  0  0  0  0  0  0  0  0  0
  1  2  1  0  0  0  0
  1 22  1  0  0  0  0
  1 23  1  0  0  0  0
  1 24  1  0  0  0  0
  2  3  1  0  0  0  0
  2  4  1  0  0  0  0
  2 25  1  0  0  0  0
  3 26  1  0  0  0  0
  3 27  1  0  0  0  0
  3 28  1  0  0  0  0
  4  5  1  0  0  0  0
  4 29  1  0  0  0  0
  4 30  1  0  0  0  0
  5  6  1  0  0  0  0
  5 31  1  0  0  0  0
  6  7  2  0  0  0  0
  6  8  1  0  0  0  0
  8  9  1  0  0  0  0
  8 32  1  0  0  0  0
  9 10  1  0  0  0  0
  9 33  1  0  0  0  0
  9 34  1  0  0  0  0
 10 21  1  0  0  0  0
 10 11  2  0  0  0  0
 11 12  1  0  0  0  0
 11 35  1  0  0  0  0
 12 13  2  0  0  0  0
 12 36  1  0  0  0  0
 13 14  1  0  0  0  0
 14 15  1  0  0  0  0
 14 21  2  0  0  0  0
 15 20  1  0  0  0  0
 15 16  1  0  0  0  0
 16 17  1  0  0  0  0
 16 37  1  0  0  0  0
 16 38  1  0  0  0  0
 17 18  1  0  0  0  0
 17 39  1  0  0  0  0
 17 40  1  0  0  0  0
 18 19  1  0  0  0  0
 19 20  1  0  0  0  0
 19 41  1  0  0  0  0
 19 42  1  0  0  0  0
 20 43  1  0  0  0  0
 20 44  1  0  0  0  0
 21 45  1  0  0  0  0
M  END
> <s_m_source_file>
AV-unprocessed.smi

> <i_m_source_file_index>
2109

> <i_lp_mmshare_version>
43012

> <i_f3d_flags>
0

> <s_epik_input>
W0NIM11bQ0hdKFtDSDNdKVtDSDJdW05IXUMoPU8pW05IXVtDSDJdYzFbY0hdW2NIXW5jKFtjSF0xKU4yW0NIMl1bQ0gyXU9bQ0gyXVtDSDJdMg==

> <s_epik_cmdline>
J2VwaWtfcHl0aG9uJywgJy1waCcsICc3LjAnLCAnLXRuJywgJzgnLCAnLW1hJywgJzIwMCcsICctbWV0YWxfYmluZGluZycsICctaW1hZScsICc8aW5maWxlLm1hZT4nLCAnLW9tYWUnLCAnPG91dGZpbGUubWFlPic=

> <r_lp_tautomer_probability>
1

> <r_epik_Ionization_Penalty>
0.012582

> <r_epik_Ionization_Penalty_Charging>
0

> <r_epik_Ionization_Penalty_Neutral>
0.012582

> <r_epik_State_Penalty>
0.00970236

> <r_epik_Charging_Adjusted_Penalty>
0.00970236

> <i_epik_Tot_Q>
0

> <i_epik_Tot_abs_Q>
0

> <r_epik_Metal_State_Penalty>
0.00950075

> <b_epik_Metal_Only>
0

> <s_lp_Force_Field>
OPLS_2005

> <r_lp_Energy>
12.0327

> <b_lp_Chiralities_Consistent>
1

> <s_lp_Variant>
AV-unprocessed.smi:2109-1

> <Gold.Version>
5.8.1

> <Gold.Id.Protein>
6NUR|6NUR_protein|mol2

> <Gold.PLP.Fitness>
47.4893

> <Gold.PLP.PLP>
-40.4970

> <Gold.PLP.part.hbond>
-4.0000

> <Gold.PLP.part.metal>
0.0000

> <Gold.PLP.part.buried>
-0.7946

> <Gold.PLP.part.nonpolar>
-35.7170

> <Gold.PLP.part.repulsive>
0.3204

> <Gold.PLP.ligand.clash>
0.0000

> <Gold.PLP.ligand.torsion>
1.0313

> <Gold.PLP.Chemscore.Hbond>
2.9040

> <Gold.PLP.Chemscore.CHOScore>
0.0000

> <Gold.PLP.Chemscore.Metal>
0.0000

> <Gold.Chemscore.Hbonds>
donor molecule, donor type, donor heavy atom, donor atom, acceptor molecule, acceptor atom, score
      L1  H     5    31       P1  7948  0.98
      L1  H     8    32       P1  7948  0.84
      P1  H 10752 10763       L1     7  1.00

> <Gold.PLP.Chemscore.Internal.Correction>
0.3429

> <Gold.Rescore>
     Score         DG    S(hbond)    S(metal)    S(lipo)     H(rot)  DE(clash)    DE(int)     intcor
     14.87     -15.90       1.35        0.00      89.08       1.77       0.00       1.03       ----

> <Gold.Chemscore.Fitness>
14.8674

> <Gold.Chemscore.DG>
-15.8978

> <Gold.Chemscore.ZeroCoef>
-5.4800

> <Gold.Chemscore.Hbond>
1.3522

> <Gold.Chemscore.Metal>
0.0000

> <Gold.Chemscore.Lipo>
89.0847

> <Gold.Chemscore.Internal_Hbond>
0.0000

> <Gold.Chemscore.DEClash>
0.0017

> <Gold.Chemscore.DEInternal>
1.0287

> <Gold.Chemscore.Rot>
1.7662

> <Gold.Chemscore.Internal.Correction>
   9.000000E+99

> <Gold.Chemscore.Hbonds>
donor molecule, donor type, donor heavy atom, donor atom, acceptor molecule, acceptor atom, score
      L1  H     5    31       P1  7948  0.27
      L1  H     8    32       P1  7948  0.15
      P1  H 10752 10763       L1     7  0.39

> <Gold.Chemscore.Hbond.Weighted>
-4.5163

> <Gold.Chemscore.Metal.Weighted>
-0.0000

> <Gold.Chemscore.Lipo.Weighted>
-10.4229

> <Gold.Chemscore.Internal_Hbond.Weighted>
0.0000

> <Gold.Chemscore.DEClash.Weighted>
0.0017

> <Gold.Chemscore.DEInternal.Weighted>
1.0287

> <Gold.Chemscore.Rot.Weighted>
4.5214

> <Gold.Chemscore.Internal.Correction.Weighted>
   9.000000E+99

> <Gold.Protein.RotatedTorsions>
[ 6907 6896 6895 6894 ] final -111.73 input  -60.11 | X-H torsion
[ 7974 7965 7964 7962 ] final  156.90 input  175.53 | X-H torsion
[ 8008 7997 7996 7995 ] final -139.31 input   59.86 | X-H torsion
[ 10167 10162 10161 10158 ] final -151.63 input  -65.29 | X-H torsion
[ 10718 10713 10712 10709 ] final  117.41 input   66.30 | X-H torsion
[ 10763 10752 10751 10750 ] final   77.66 input  -60.55 | X-H torsion
[ 11005 11000 10999 10996 ] final   -5.11 input  -57.11 | X-H torsion

> <Gold.Protein.ActiveResidues>
 VAL166  LYS551  ARG553  GLY616  TRP617  ASP618  TYR619  PRO620  LYS621  CYS622 
 ASP623  PHE694  ASN695  SER759  ASP760  ASP761  ALA762  ILE779  LEU786  VAL792 
 PHE793  MET794  SER795  GLU796  ALA797  LYS798  CYS799  TRP800  GLU811  SER814 

> <Gold.Protein.RotatedAtoms>
  150.7710  133.9193  159.3392 H   0  0  0  0  0  0  0  0  0  0  0  0  # atno 6907 bound_to 6896
  151.7079  135.0916  160.0272 H   0  0  0  0  0  0  0  0  0  0  0  0  # atno 6908 bound_to 6896
  152.3727  133.6402  159.6135 H   0  0  0  0  0  0  0  0  0  0  0  0  # atno 6909 bound_to 6896
  144.7935  139.7267  143.6211 H   0  0  0  0  0  0  0  0  0  0  0  0  # atno 7974 bound_to 7965
  155.4428  140.0533  157.3009 H   0  0  0  0  0  0  0  0  0  0  0  0  # atno 8008 bound_to 7997
  154.4811  140.2081  155.9719 H   0  0  0  0  0  0  0  0  0  0  0  0  # atno 8009 bound_to 7997
  156.1206  140.3189  155.8208 H   0  0  0  0  0  0  0  0  0  0  0  0  # atno 8010 bound_to 7997
  139.7251  143.8896  152.2516 H   0  0  0  0  0  0  0  0  0  0  0  0  # atno 10167 bound_to 10162
  157.6098  131.1037  150.7611 H   0  0  0  0  0  0  0  0  0  0  0  0  # atno 10718 bound_to 10713
  153.0815  135.4906  154.8512 H   0  0  0  0  0  0  0  0  0  0  0  0  # atno 10763 bound_to 10752
  154.7157  135.3029  154.9130 H   0  0  0  0  0  0  0  0  0  0  0  0  # atno 10764 bound_to 10752
  153.9810  135.6790  153.4803 H   0  0  0  0  0  0  0  0  0  0  0  0  # atno 10765 bound_to 10752
  140.6876  133.9099  155.8596 H   0  0  0  0  0  0  0  0  0  0  0  0  # atno 11005 bound_to 11000
  146.2196  139.5611  142.9627 LP  0  0  0  0  0  0  0  0  0  0  0  0  # atno 17320 bound_to 7965
  145.5733  141.0391  143.2162 LP  0  0  0  0  0  0  0  0  0  0  0  0  # atno 17321 bound_to 7965
  139.8803  144.7021  150.8885 LP  0  0  0  0  0  0  0  0  0  0  0  0  # atno 17342 bound_to 10162
  140.7761  143.3666  151.1727 LP  0  0  0  0  0  0  0  0  0  0  0  0  # atno 17343 bound_to 10162
  156.7991  130.4915  149.5372 LP  0  0  0  0  0  0  0  0  0  0  0  0  # atno 17370 bound_to 10713
  156.1197  130.6101  151.0174 LP  0  0  0  0  0  0  0  0  0  0  0  0  # atno 17371 bound_to 10713
  141.0267  134.0813  157.4060 LP  0  0  0  0  0  0  0  0  0  0  0  0  # atno 17394 bound_to 11000
  139.8933  135.0129  156.6891 LP  0  0  0  0  0  0  0  0  0  0  0  0  # atno 17395 bound_to 11000

$$$$
