AV-unprocessed.smi:492|AV-procd|sdf|2708|dock5
  -GOLD-   2262023153D 1   1.00000     0.00000
 Structure written by MMmdl.
 46 48  0  0  0  0  0  0  0  0  1 V2000
  141.9943  146.2959  155.1691 C   0  0  0  0  0  0  0  0  0  0  0  0
  142.8953  146.0313  154.1037 O   0  0  0  0  0  0  0  0  0  0  0  0
  143.7065  144.9209  154.2006 C   0  0  0  0  0  0  0  0  0  0  0  0
  143.6565  143.9875  155.2665 C   0  0  0  0  0  0  0  0  0  0  0  0
  144.5247  142.8782  155.2856 C   0  0  0  0  0  0  0  0  0  0  0  0
  145.4499  142.6794  154.2412 C   0  0  0  0  0  0  0  0  0  0  0  0
  146.3951  141.4934  154.2753 C   0  0  0  0  0  0  0  0  0  0  0  0
  147.7248  141.8870  154.5700 O   0  0  0  0  0  0  0  0  0  0  0  0
  148.6354  140.7998  154.6007 C   0  0  0  0  0  0  0  0  0  0  0  0
  149.7376  141.0764  155.6355 C   0  0  2  0  0  0  0  0  0  0  0  0
  150.9964  140.8424  155.0357 O   0  0  0  0  0  0  0  0  0  0  0  0
  149.5662  140.2789  156.9459 C   0  0  0  0  0  0  0  0  0  0  0  0
  150.6564  140.4969  157.8858 N   0  0  0  0  0  0  0  0  0  0  0  0
  151.3907  139.5688  158.5466 C   0  0  0  0  0  0  0  0  0  0  0  0
  151.1544  138.1024  158.3693 C   0  0  0  0  0  0  0  0  0  0  0  0
  152.3351  140.0444  159.3585 N   0  0  0  0  0  0  0  0  0  0  0  0
  152.2027  141.4116  159.2083 C   0  0  0  0  0  0  0  0  0  0  0  0
  152.9174  142.4751  159.8049 C   0  0  0  0  0  0  0  0  0  0  0  0
  152.6003  143.8131  159.4909 C   0  0  0  0  0  0  0  0  0  0  0  0
  151.5657  144.1071  158.5794 C   0  0  0  0  0  0  0  0  0  0  0  0
  150.8403  143.0629  157.9749 C   0  0  0  0  0  0  0  0  0  0  0  0
  151.1613  141.7288  158.2908 C   0  0  0  0  0  0  0  0  0  0  0  0
  145.5103  143.6101  153.1839 C   0  0  0  0  0  0  0  0  0  0  0  0
  144.6422  144.7184  153.1656 C   0  0  0  0  0  0  0  0  0  0  0  0
  141.4294  147.2008  154.9454 H   0  0  0  0  0  0  0  0  0  0  0  0
  142.5240  146.4622  156.1081 H   0  0  0  0  0  0  0  0  0  0  0  0
  141.2779  145.4833  155.2966 H   0  0  0  0  0  0  0  0  0  0  0  0
  142.9611  144.1005  156.0840 H   0  0  0  0  0  0  0  0  0  0  0  0
  144.4758  142.1789  156.1075 H   0  0  0  0  0  0  0  0  0  0  0  0
  146.0378  140.7912  155.0299 H   0  0  0  0  0  0  0  0  0  0  0  0
  146.3708  140.9801  153.3128 H   0  0  0  0  0  0  0  0  0  0  0  0
  148.1188  139.8656  154.8279 H   0  0  0  0  0  0  0  0  0  0  0  0
  149.0863  140.6875  153.6135 H   0  0  0  0  0  0  0  0  0  0  0  0
  149.7136  142.1406  155.8692 H   0  0  0  0  0  0  0  0  0  0  0  0
  151.6560  140.8549  155.7122 H   0  0  0  0  0  0  0  0  0  0  0  0
  148.6237  140.5400  157.4274 H   0  0  0  0  0  0  0  0  0  0  0  0
  149.5104  139.2099  156.7387 H   0  0  0  0  0  0  0  0  0  0  0  0
  151.8420  137.5274  158.9904 H   0  0  0  0  0  0  0  0  0  0  0  0
  151.3128  137.8166  157.3294 H   0  0  0  0  0  0  0  0  0  0  0  0
  150.1361  137.8432  158.6579 H   0  0  0  0  0  0  0  0  0  0  0  0
  153.7111  142.2608  160.5049 H   0  0  0  0  0  0  0  0  0  0  0  0
  153.1531  144.6180  159.9525 H   0  0  0  0  0  0  0  0  0  0  0  0
  151.3286  145.1346  158.3452 H   0  0  0  0  0  0  0  0  0  0  0  0
  150.0459  143.2852  157.2780 H   0  0  0  0  0  0  0  0  0  0  0  0
  146.2222  143.4790  152.3820 H   0  0  0  0  0  0  0  0  0  0  0  0
  144.6966  145.4224  152.3480 H   0  0  0  0  0  0  0  0  0  0  0  0
  1  2  1  0  0  0  0
  1 25  1  0  0  0  0
  1 26  1  0  0  0  0
  1 27  1  0  0  0  0
  2  3  1  0  0  0  0
  3 24  1  0  0  0  0
  3  4  2  0  0  0  0
  4  5  1  0  0  0  0
  4 28  1  0  0  0  0
  5  6  2  0  0  0  0
  5 29  1  0  0  0  0
  6  7  1  0  0  0  0
  6 23  1  0  0  0  0
  7  8  1  0  0  0  0
  7 30  1  0  0  0  0
  7 31  1  0  0  0  0
  8  9  1  0  0  0  0
  9 10  1  0  0  0  0
  9 32  1  0  0  0  0
  9 33  1  0  0  0  0
 10 11  1  0  0  0  0
 10 12  1  0  0  0  0
 10 34  1  0  0  0  0
 11 35  1  0  0  0  0
 12 13  1  0  0  0  0
 12 36  1  0  0  0  0
 12 37  1  0  0  0  0
 13 22  1  0  0  0  0
 13 14  1  0  0  0  0
 14 15  1  0  0  0  0
 14 16  2  0  0  0  0
 15 38  1  0  0  0  0
 15 39  1  0  0  0  0
 15 40  1  0  0  0  0
 16 17  1  0  0  0  0
 17 22  2  0  0  0  0
 17 18  1  0  0  0  0
 18 19  2  0  0  0  0
 18 41  1  0  0  0  0
 19 20  1  0  0  0  0
 19 42  1  0  0  0  0
 20 21  2  0  0  0  0
 20 43  1  0  0  0  0
 21 22  1  0  0  0  0
 21 44  1  0  0  0  0
 23 24  2  0  0  0  0
 23 45  1  0  0  0  0
 24 46  1  0  0  0  0
M  END
> <s_m_source_file>
AV-unprocessed.smi

> <i_m_source_file_index>
492

> <i_lp_mmshare_version>
43012

> <i_f3d_flags>
0

> <s_epik_input>
W0NIM11PYzFbY0hdW2NIXWMoW2NIXVtjSF0xKVtDSDJdT1tDSDJdW0NASF0oW09IXSlbQ0gyXW4oYyhuMilbQ0gzXSljKGMyMylbY0hdW2NIXVtjSF1bY0hdMw==

> <s_epik_cmdline>
J2VwaWtfcHl0aG9uJywgJy1waCcsICc3LjAnLCAnLXRuJywgJzgnLCAnLW1hJywgJzIwMCcsICctbWV0YWxfYmluZGluZycsICctaW1hZScsICc8aW5maWxlLm1hZT4nLCAnLW9tYWUnLCAnPG91dGZpbGUubWFlPic=

> <r_lp_tautomer_probability>
1

> <r_epik_Ionization_Penalty>
0.132603

> <r_epik_Ionization_Penalty_Charging>
0

> <r_epik_Ionization_Penalty_Neutral>
0.132603

> <r_epik_State_Penalty>
0.121982

> <r_epik_Charging_Adjusted_Penalty>
0.121982

> <i_epik_Tot_Q>
0

> <i_epik_Tot_abs_Q>
0

> <r_epik_Metal_State_Penalty>
0.000135431

> <b_epik_Metal_Only>
0

> <s_lp_Force_Field>
OPLS_2005

> <r_lp_Energy>
19.0412

> <b_lp_Chiralities_Consistent>
1

> <s_lp_Variant>
AV-unprocessed.smi:492-1

> <Gold.Version>
5.8.1

> <Gold.Id.Protein>
6NUR|6NUR_protein|mol2

> <Gold.PLP.Fitness>
54.6440

> <Gold.PLP.PLP>
-53.9745

> <Gold.PLP.part.hbond>
-2.6913

> <Gold.PLP.part.metal>
0.0000

> <Gold.PLP.part.buried>
-7.9589

> <Gold.PLP.part.nonpolar>
-44.9261

> <Gold.PLP.part.repulsive>
0.2060

> <Gold.PLP.ligand.clash>
0.0000

> <Gold.PLP.ligand.torsion>
1.1313

> <Gold.PLP.Chemscore.Hbond>
0.9440

> <Gold.PLP.Chemscore.CHOScore>
0.0000

> <Gold.PLP.Chemscore.Metal>
0.0000

> <Gold.Chemscore.Hbonds>
donor molecule, donor type, donor heavy atom, donor atom, acceptor molecule, acceptor atom, score
      P1  H  7989  7998       L1    11  0.80

> <Gold.PLP.Chemscore.Internal.Correction>
0.1000

> <Gold.Rescore>
     Score         DG    S(hbond)    S(metal)    S(lipo)     H(rot)  DE(clash)    DE(int)     intcor
     16.90     -17.92       0.87        0.00     134.05       2.40       0.04       0.98       ----

> <Gold.Chemscore.Fitness>
16.8995

> <Gold.Chemscore.DG>
-17.9189

> <Gold.Chemscore.ZeroCoef>
-5.4800

> <Gold.Chemscore.Hbond>
0.8673

> <Gold.Chemscore.Metal>
0.0000

> <Gold.Chemscore.Lipo>
134.0486

> <Gold.Chemscore.Internal_Hbond>
0.0000

> <Gold.Chemscore.DEClash>
0.0405

> <Gold.Chemscore.DEInternal>
0.9789

> <Gold.Chemscore.Rot>
2.3991

> <Gold.Chemscore.Internal.Correction>
   9.000000E+99

> <Gold.Chemscore.Hbonds>
donor molecule, donor type, donor heavy atom, donor atom, acceptor molecule, acceptor atom, score
      P1  H  7989  7998       L1    11  0.68

> <Gold.Chemscore.Hbond.Weighted>
-2.8969

> <Gold.Chemscore.Metal.Weighted>
-0.0000

> <Gold.Chemscore.Lipo.Weighted>
-15.6837

> <Gold.Chemscore.Internal_Hbond.Weighted>
0.0000

> <Gold.Chemscore.DEClash.Weighted>
0.0405

> <Gold.Chemscore.DEInternal.Weighted>
0.9789

> <Gold.Chemscore.Rot.Weighted>
6.1417

> <Gold.Chemscore.Internal.Correction.Weighted>
   9.000000E+99

> <Gold.Protein.RotatedTorsions>
[ 6907 6896 6895 6894 ] final  -14.04 input  -60.11 | X-H torsion
[ 7974 7965 7964 7962 ] final  -88.56 input  175.53 | X-H torsion
[ 8008 7997 7996 7995 ] final   32.82 input   59.86 | X-H torsion
[ 10167 10162 10161 10158 ] final  -41.87 input  -65.29 | X-H torsion
[ 10718 10713 10712 10709 ] final  122.78 input   66.30 | X-H torsion
[ 10763 10752 10751 10750 ] final   84.97 input  -60.55 | X-H torsion
[ 11005 11000 10999 10996 ] final  -65.04 input  -57.11 | X-H torsion

> <Gold.Protein.ActiveResidues>
 VAL166  LYS551  ARG553  GLY616  TRP617  ASP618  TYR619  PRO620  LYS621  CYS622 
 ASP623  PHE694  ASN695  SER759  ASP760  ASP761  ALA762  ILE779  LEU786  VAL792 
 PHE793  MET794  SER795  GLU796  ALA797  LYS798  CYS799  TRP800  GLU811  SER814 

> <Gold.Protein.RotatedAtoms>
  151.3455  135.0873  159.9385 H   0  0  0  0  0  0  0  0  0  0  0  0  # atno 6907 bound_to 6896
  152.5200  133.9404  159.7634 H   0  0  0  0  0  0  0  0  0  0  0  0  # atno 6908 bound_to 6896
  150.9769  133.6232  159.2758 H   0  0  0  0  0  0  0  0  0  0  0  0  # atno 6909 bound_to 6896
  145.4515  140.9560  143.2019 H   0  0  0  0  0  0  0  0  0  0  0  0  # atno 7974 bound_to 7965
  155.1287  140.3255  155.4479 H   0  0  0  0  0  0  0  0  0  0  0  0  # atno 8008 bound_to 7997
  156.2641  140.2014  156.6355 H   0  0  0  0  0  0  0  0  0  0  0  0  # atno 8009 bound_to 7997
  154.6629  140.0545  157.0069 H   0  0  0  0  0  0  0  0  0  0  0  0  # atno 8010 bound_to 7997
  140.6988  143.3069  151.3129 H   0  0  0  0  0  0  0  0  0  0  0  0  # atno 10167 bound_to 10162
  157.5716  131.1083  150.8356 H   0  0  0  0  0  0  0  0  0  0  0  0  # atno 10718 bound_to 10713
  153.1431  135.4634  154.9525 H   0  0  0  0  0  0  0  0  0  0  0  0  # atno 10763 bound_to 10752
  154.7763  135.3174  154.8086 H   0  0  0  0  0  0  0  0  0  0  0  0  # atno 10764 bound_to 10752
  153.8605  135.6913  153.4837 H   0  0  0  0  0  0  0  0  0  0  0  0  # atno 10765 bound_to 10752
  141.1443  133.6675  156.5925 H   0  0  0  0  0  0  0  0  0  0  0  0  # atno 11005 bound_to 11000
  144.8058  139.6054  143.7051 LP  0  0  0  0  0  0  0  0  0  0  0  0  # atno 17320 bound_to 7965
  146.2501  139.6182  142.9433 LP  0  0  0  0  0  0  0  0  0  0  0  0  # atno 17321 bound_to 7965
  139.6478  144.0418  152.2604 LP  0  0  0  0  0  0  0  0  0  0  0  0  # atno 17342 bound_to 10162
  139.9944  144.6338  150.7785 LP  0  0  0  0  0  0  0  0  0  0  0  0  # atno 17343 bound_to 10162
  156.8826  130.5185  149.5290 LP  0  0  0  0  0  0  0  0  0  0  0  0  # atno 17370 bound_to 10713
  156.0761  130.5783  150.9477 LP  0  0  0  0  0  0  0  0  0  0  0  0  # atno 17371 bound_to 10713
  140.3752  134.7571  157.4625 LP  0  0  0  0  0  0  0  0  0  0  0  0  # atno 17394 bound_to 11000
  140.0680  134.5902  155.8674 LP  0  0  0  0  0  0  0  0  0  0  0  0  # atno 17395 bound_to 11000

$$$$
