AV-unprocessed.smi:793|AV-procd|sdf|3755|dock6
  -GOLD-   22720 1183D 1   1.00000     0.00000
 Structure written by MMmdl.
 38 39  0  0  0  0  0  0  0  0  2 V2000
  151.4324  138.0069  156.3248 C   0  0  0  0  0  0  0  0  0  0  0  0
  152.3731  139.0666  155.7374 C   0  0  0  0  0  0  0  0  0  0  0  0
  151.9484  140.5032  156.0960 C   0  0  1  0  0  0  0  0  0  0  0  0
  150.5420  140.6066  155.8784 O   0  0  0  0  0  0  0  0  0  0  0  0
  150.1168  140.6955  154.5202 C   0  0  0  0  0  0  0  0  0  0  0  0
  148.7088  141.2965  154.4522 C   0  0  0  0  0  0  0  0  0  0  0  0
  147.7474  140.1381  154.7493 C   0  0  0  0  0  0  0  0  0  0  0  0
  148.5474  138.8437  154.5386 C   0  0  0  0  0  0  0  0  0  0  0  0
  149.9147  139.2732  153.9986 C   0  0  0  0  0  0  0  0  0  0  0  0
  152.2907  140.8472  157.5559 C   0  0  0  0  0  0  0  0  0  0  0  0
  152.8855  140.0244  158.2524 O   0  0  0  0  0  0  0  0  0  0  0  0
  151.9014  142.0660  157.9720 N   0  0  0  0  0  0  0  0  0  0  0  0
  152.0681  142.6768  159.2463 C   0  0  0  0  0  0  0  0  0  0  0  0
  152.4610  141.9721  160.4120 C   0  0  0  0  0  0  0  0  0  0  0  0
  152.6041  142.5521  161.6233 N   0  0  0  0  0  0  0  0  0  0  0  0
  152.3514  143.8737  161.7248 C   0  0  0  0  0  0  0  0  0  0  0  0
  151.9377  144.6676  160.6382 C   0  0  0  0  0  0  0  0  0  0  0  0
  151.7884  144.0579  159.3776 C   0  0  0  0  0  0  0  0  0  0  0  0
  151.3809  144.8094  158.3100 O   0  5  0  0  0  0  0  0  0  0  0  0
  151.7575  137.0035  156.0494 H   0  0  0  0  0  0  0  0  0  0  0  0
  150.4141  138.1391  155.9588 H   0  0  0  0  0  0  0  0  0  0  0  0
  151.4071  138.0608  157.4135 H   0  0  0  0  0  0  0  0  0  0  0  0
  153.3890  138.8789  156.0881 H   0  0  0  0  0  0  0  0  0  0  0  0
  152.3962  138.9486  154.6530 H   0  0  0  0  0  0  0  0  0  0  0  0
  152.4703  141.1921  155.4283 H   0  0  0  0  0  0  0  0  0  0  0  0
  150.8307  141.2396  153.8991 H   0  0  0  0  0  0  0  0  0  0  0  0
  148.5683  142.1384  155.1301 H   0  0  0  0  0  0  0  0  0  0  0  0
  148.5262  141.6628  153.4412 H   0  0  0  0  0  0  0  0  0  0  0  0
  147.3926  140.1921  155.7793 H   0  0  0  0  0  0  0  0  0  0  0  0
  146.8720  140.1818  154.1006 H   0  0  0  0  0  0  0  0  0  0  0  0
  148.6734  138.3339  155.4946 H   0  0  0  0  0  0  0  0  0  0  0  0
  148.0442  138.1514  153.8630 H   0  0  0  0  0  0  0  0  0  0  0  0
  149.8849  139.2893  152.9084 H   0  0  0  0  0  0  0  0  0  0  0  0
  150.7173  138.5969  154.2953 H   0  0  0  0  0  0  0  0  0  0  0  0
  151.4937  142.6651  157.2685 H   0  0  0  0  0  0  0  0  0  0  0  0
  152.6504  140.9103  160.4015 H   0  0  0  0  0  0  0  0  0  0  0  0
  152.4761  144.3112  162.7042 H   0  0  0  0  0  0  0  0  0  0  0  0
  151.7394  145.7210  160.7721 H   0  0  0  0  0  0  0  0  0  0  0  0
  1  2  1  0  0  0  0
  1 20  1  0  0  0  0
  1 21  1  0  0  0  0
  1 22  1  0  0  0  0
  2  3  1  0  0  0  0
  2 23  1  0  0  0  0
  2 24  1  0  0  0  0
  3  4  1  0  0  0  0
  3 10  1  0  0  0  0
  3 25  1  0  0  0  0
  4  5  1  0  0  0  0
  5  9  1  0  0  0  0
  5  6  1  0  0  0  0
  5 26  1  0  0  0  0
  6  7  1  0  0  0  0
  6 27  1  0  0  0  0
  6 28  1  0  0  0  0
  7  8  1  0  0  0  0
  7 29  1  0  0  0  0
  7 30  1  0  0  0  0
  8  9  1  0  0  0  0
  8 31  1  0  0  0  0
  8 32  1  0  0  0  0
  9 33  1  0  0  0  0
  9 34  1  0  0  0  0
 10 11  2  0  0  0  0
 10 12  1  0  0  0  0
 12 35  1  0  0  0  0
 12 13  1  0  0  0  0
 13 18  1  0  0  0  0
 13 14  2  0  0  0  0
 14 36  1  0  0  0  0
 14 15  1  0  0  0  0
 15 16  2  0  0  0  0
 16 37  1  0  0  0  0
 16 17  1  0  0  0  0
 17 18  2  0  0  0  0
 17 38  1  0  0  0  0
 18 19  1  0  0  0  0
M  CHG  1  19  -1
M  END
> <s_m_source_file>
AV-unprocessed.smi

> <i_m_source_file_index>
793

> <i_lp_mmshare_version>
43012

> <i_f3d_flags>
0

> <s_epik_input>
W0NIMl0xW0NIMl1bQ0gyXVtDSDJdW0NIXTFPW0NAQEhdKFtDSDJdW0NIM10pQyg9TylbTkhdYzJbY0hdbltjSF1bY0hdYzJbT0hd

> <s_epik_cmdline>
J2VwaWtfcHl0aG9uJywgJy1waCcsICc3LjAnLCAnLXRuJywgJzgnLCAnLW1hJywgJzIwMCcsICctbWV0YWxfYmluZGluZycsICctaW1hZScsICc8aW5maWxlLm1hZT4nLCAnLW9tYWUnLCAnPG91dGZpbGUubWFlPic=

> <r_lp_tautomer_probability>
1

> <r_epik_Ionization_Penalty>
5.91611

> <r_epik_Ionization_Penalty_Charging>
1.01889

> <r_epik_Ionization_Penalty_Neutral>
4.89722

> <r_epik_State_Penalty>
4.89706

> <r_epik_Charging_Adjusted_Penalty>
5.91595

> <i_epik_Tot_Q>
-1

> <i_epik_Tot_abs_Q>
1

> <r_epik_Metal_State_Penalty>
1.05012

> <b_epik_Metal_Only>
1

> <s_lp_Force_Field>
OPLS_2005

> <r_lp_Energy>
29.623

> <b_lp_Chiralities_Consistent>
1

> <s_lp_Variant>
AV-unprocessed.smi:793-4

> <Gold.Version>
5.8.1

> <Gold.Id.Protein>
6NUR|6NUR_protein|mol2

> <Gold.PLP.Fitness>
37.4164

> <Gold.PLP.PLP>
-35.4750

> <Gold.PLP.part.hbond>
-1.0000

> <Gold.PLP.part.metal>
0.0000

> <Gold.PLP.part.buried>
-3.0053

> <Gold.PLP.part.nonpolar>
-29.3981

> <Gold.PLP.part.repulsive>
0.3135

> <Gold.PLP.ligand.clash>
0.0000

> <Gold.PLP.ligand.torsion>
0.5582

> <Gold.PLP.Chemscore.Hbond>
1.0000

> <Gold.PLP.Chemscore.CHOScore>
0.0000

> <Gold.PLP.Chemscore.Metal>
0.0000

> <Gold.Chemscore.Hbonds>
donor molecule, donor type, donor heavy atom, donor atom, acceptor molecule, acceptor atom, score
      P1  H  7997  8008       L1    11  0.26

> <Gold.PLP.Chemscore.Internal.Correction>
0.0577

> <Gold.Rescore>
     Score         DG    S(hbond)    S(metal)    S(lipo)     H(rot)  DE(clash)    DE(int)     intcor
     13.27     -16.70       0.90        0.00     102.78       1.49       1.47       1.96       ----

> <Gold.Chemscore.Fitness>
13.2720

> <Gold.Chemscore.DG>
-16.7014

> <Gold.Chemscore.ZeroCoef>
-5.4800

> <Gold.Chemscore.Hbond>
0.9040

> <Gold.Chemscore.Metal>
0.0000

> <Gold.Chemscore.Lipo>
102.7750

> <Gold.Chemscore.Internal_Hbond>
0.0000

> <Gold.Chemscore.DEClash>
1.4710

> <Gold.Chemscore.DEInternal>
1.9584

> <Gold.Chemscore.Rot>
1.4932

> <Gold.Chemscore.Internal.Correction>
   9.000000E+99

> <Gold.Chemscore.Hbond.Weighted>
-3.0194

> <Gold.Chemscore.Metal.Weighted>
-0.0000

> <Gold.Chemscore.Lipo.Weighted>
-12.0247

> <Gold.Chemscore.Internal_Hbond.Weighted>
0.0000

> <Gold.Chemscore.DEClash.Weighted>
1.4710

> <Gold.Chemscore.DEInternal.Weighted>
1.9584

> <Gold.Chemscore.Rot.Weighted>
3.8226

> <Gold.Chemscore.Internal.Correction.Weighted>
   9.000000E+99

> <Gold.Protein.RotatedTorsions>
[ 6907 6896 6895 6894 ] final  159.92 input  -60.11 | X-H torsion
[ 7974 7965 7964 7962 ] final   -3.52 input  175.53 | X-H torsion
[ 8008 7997 7996 7995 ] final  -68.72 input   59.86 | X-H torsion
[ 10167 10162 10161 10158 ] final  123.52 input  -65.29 | X-H torsion
[ 10718 10713 10712 10709 ] final  -28.23 input   66.30 | X-H torsion
[ 10763 10752 10751 10750 ] final   27.69 input  -60.55 | X-H torsion
[ 11005 11000 10999 10996 ] final -174.42 input  -57.11 | X-H torsion

> <Gold.Protein.ActiveResidues>
 VAL166  LYS551  ARG553  GLY616  TRP617  ASP618  TYR619  PRO620  LYS621  CYS622 
 ASP623  PHE694  ASN695  SER759  ASP760  ASP761  ALA762  ILE779  LEU786  VAL792 
 PHE793  MET794  SER795  GLU796  ALA797  LYS798  CYS799  TRP800  GLU811  SER814 

> <Gold.Protein.RotatedAtoms>
  151.9784  133.3749  159.4097 H   0  0  0  0  0  0  0  0  0  0  0  0  # atno 6907 bound_to 6896
  150.6938  134.4065  159.5151 H   0  0  0  0  0  0  0  0  0  0  0  0  # atno 6908 bound_to 6896
  152.1780  134.8778  160.0579 H   0  0  0  0  0  0  0  0  0  0  0  0  # atno 6909 bound_to 6896
  146.2388  140.1733  142.8332 H   0  0  0  0  0  0  0  0  0  0  0  0  # atno 7974 bound_to 7965
  154.4887  140.0867  156.7546 H   0  0  0  0  0  0  0  0  0  0  0  0  # atno 8008 bound_to 7997
  155.4284  140.3448  155.4259 H   0  0  0  0  0  0  0  0  0  0  0  0  # atno 8009 bound_to 7997
  156.1299  140.1498  156.9068 H   0  0  0  0  0  0  0  0  0  0  0  0  # atno 8010 bound_to 7997
  139.5794  144.6979  151.3567 H   0  0  0  0  0  0  0  0  0  0  0  0  # atno 10167 bound_to 10162
  156.4279  130.4439  149.7138 H   0  0  0  0  0  0  0  0  0  0  0  0  # atno 10718 bound_to 10713
  153.0540  135.6531  154.0624 H   0  0  0  0  0  0  0  0  0  0  0  0  # atno 10763 bound_to 10752
  154.0306  135.2912  155.3370 H   0  0  0  0  0  0  0  0  0  0  0  0  # atno 10764 bound_to 10752
  154.6844  135.5307  153.8373 H   0  0  0  0  0  0  0  0  0  0  0  0  # atno 10765 bound_to 10752
  140.4747  134.6132  157.4896 H   0  0  0  0  0  0  0  0  0  0  0  0  # atno 11005 bound_to 11000
  144.9993  140.8618  143.5291 LP  0  0  0  0  0  0  0  0  0  0  0  0  # atno 17320 bound_to 7965
  145.1750  139.2383  143.5322 LP  0  0  0  0  0  0  0  0  0  0  0  0  # atno 17321 bound_to 7965
  140.7074  143.7478  150.7506 LP  0  0  0  0  0  0  0  0  0  0  0  0  # atno 17342 bound_to 10162
  140.1007  143.4790  152.2427 LP  0  0  0  0  0  0  0  0  0  0  0  0  # atno 17343 bound_to 10162
  156.4052  130.7695  151.2705 LP  0  0  0  0  0  0  0  0  0  0  0  0  # atno 17370 bound_to 10713
  157.7508  131.0228  150.3806 LP  0  0  0  0  0  0  0  0  0  0  0  0  # atno 17371 bound_to 10713
  139.9863  134.7056  155.9768 LP  0  0  0  0  0  0  0  0  0  0  0  0  # atno 17394 bound_to 11000
  141.1560  133.6543  156.4163 LP  0  0  0  0  0  0  0  0  0  0  0  0  # atno 17395 bound_to 11000

$$$$
