AV-unprocessed.smi:194|AV-procd|sdf|1521|dock9
  -GOLD-   2262019363D 1   1.00000     0.00000
 Structure written by MMmdl.
 53 55  0  0  0  0  0  0  0  0  1 V2000
  145.1657  135.2415  158.3665 C   0  0  0  0  0  0  0  0  0  0  0  0
  146.7087  135.1398  158.2719 C   0  0  1  0  0  0  0  0  0  0  0  0
  147.2968  134.6750  159.6263 C   0  0  0  0  0  0  0  0  0  0  0  0
  146.7720  135.8496  160.9657 S   0  0  1  0  0  0  0  0  0  0  0  0
  147.3938  134.8406  162.3910 C   0  0  0  0  0  0  0  0  0  0  0  0
  147.6808  137.0755  160.8599 O   0  0  0  0  0  0  0  0  0  0  0  0
  147.1357  134.2524  157.1762 N   0  0  0  0  0  0  0  0  0  0  0  0
  148.5230  133.7951  157.1759 C   0  0  0  0  0  0  0  0  0  0  0  0
  146.7789  134.6454  155.9325 C   0  0  0  0  0  0  0  0  0  0  0  0
  146.0704  135.7960  155.8224 N   0  0  0  0  0  0  0  0  0  0  0  0
  145.6979  136.2355  154.6166 C   0  0  0  0  0  0  0  0  0  0  0  0
  145.9207  135.6847  153.4211 N   0  0  0  0  0  0  0  0  0  0  0  0
  146.6210  134.5189  153.5317 C   0  0  0  0  0  0  0  0  0  0  0  0
  147.0904  133.9330  154.7405 C   0  0  0  0  0  0  0  0  0  0  0  0
  147.7753  132.7564  154.4650 N   0  0  0  0  0  0  0  0  0  0  0  0
  147.7204  132.6563  153.1653 C   0  0  0  0  0  0  0  0  0  0  0  0
  147.0294  133.6609  152.5242 N   0  0  0  0  0  0  0  0  0  0  0  0
  146.8247  133.7957  151.0890 C   0  0  0  0  0  0  0  0  0  0  0  0
  145.3469  133.7066  150.5993 C   0  0  0  0  0  0  0  0  0  0  0  0
  144.6692  135.1100  150.6123 C   0  0  0  0  0  0  0  0  0  0  0  0
  145.2021  136.0097  149.6615 O   0  0  0  0  0  0  0  0  0  0  0  0
  145.2596  133.0374  149.2032 C   0  0  0  0  0  0  0  0  0  0  0  0
  143.8230  132.6359  148.8275 C   0  0  0  0  0  0  0  0  0  0  0  0
  143.3014  131.7473  149.8069 O   0  0  0  0  0  0  0  0  0  0  0  0
  143.2068  132.3412  151.0948 C   0  0  0  0  0  0  0  0  0  0  0  0
  144.6026  132.7716  151.5876 C   0  0  0  0  0  0  0  0  0  0  0  0
  144.8478  135.8839  159.1867 H   0  0  0  0  0  0  0  0  0  0  0  0
  144.7160  134.2607  158.5246 H   0  0  0  0  0  0  0  0  0  0  0  0
  144.7250  135.6666  157.4646 H   0  0  0  0  0  0  0  0  0  0  0  0
  147.1065  136.1331  158.0610 H   0  0  0  0  0  0  0  0  0  0  0  0
  146.9763  133.6612  159.8681 H   0  0  0  0  0  0  0  0  0  0  0  0
  148.3861  134.6799  159.6175 H   0  0  0  0  0  0  0  0  0  0  0  0
  146.9236  133.8572  162.3965 H   0  0  0  0  0  0  0  0  0  0  0  0
  147.1643  135.3398  163.3323 H   0  0  0  0  0  0  0  0  0  0  0  0
  148.4739  134.7110  162.3226 H   0  0  0  0  0  0  0  0  0  0  0  0
  148.8421  133.4424  156.1933 H   0  0  0  0  0  0  0  0  0  0  0  0
  148.6446  132.9634  157.8698 H   0  0  0  0  0  0  0  0  0  0  0  0
  149.1946  134.5983  157.4808 H   0  0  0  0  0  0  0  0  0  0  0  0
  145.1421  137.1615  154.6081 H   0  0  0  0  0  0  0  0  0  0  0  0
  148.1756  131.8335  152.6337 H   0  0  0  0  0  0  0  0  0  0  0  0
  147.2605  134.7500  150.7898 H   0  0  0  0  0  0  0  0  0  0  0  0
  147.4251  133.0315  150.5935 H   0  0  0  0  0  0  0  0  0  0  0  0
  143.6037  135.0410  150.4024 H   0  0  0  0  0  0  0  0  0  0  0  0
  144.7524  135.5610  151.6018 H   0  0  0  0  0  0  0  0  0  0  0  0
  145.7469  135.5254  149.0600 H   0  0  0  0  0  0  0  0  0  0  0  0
  145.6749  133.6818  148.4283 H   0  0  0  0  0  0  0  0  0  0  0  0
  145.8715  132.1345  149.1988 H   0  0  0  0  0  0  0  0  0  0  0  0
  143.1778  133.5089  148.7226 H   0  0  0  0  0  0  0  0  0  0  0  0
  143.8215  132.1278  147.8630 H   0  0  0  0  0  0  0  0  0  0  0  0
  142.5069  133.1764  151.0725 H   0  0  0  0  0  0  0  0  0  0  0  0
  142.7845  131.6082  151.7824 H   0  0  0  0  0  0  0  0  0  0  0  0
  145.1894  131.8650  151.7429 H   0  0  0  0  0  0  0  0  0  0  0  0
  144.5180  133.2439  152.5672 H   0  0  0  0  0  0  0  0  0  0  0  0
  1  2  1  0  0  0  0
  1 27  1  0  0  0  0
  1 28  1  0  0  0  0
  1 29  1  0  0  0  0
  2  3  1  0  0  0  0
  2  7  1  0  0  0  0
  2 30  1  0  0  0  0
  3  4  1  0  0  0  0
  3 31  1  0  0  0  0
  3 32  1  0  0  0  0
  4  5  1  0  0  0  0
  4  6  2  0  0  0  0
  5 33  1  0  0  0  0
  5 34  1  0  0  0  0
  5 35  1  0  0  0  0
  7  8  1  0  0  0  0
  7  9  1  0  0  0  0
  8 36  1  0  0  0  0
  8 37  1  0  0  0  0
  8 38  1  0  0  0  0
  9 14  1  0  0  0  0
  9 10  2  0  0  0  0
 10 11  1  0  0  0  0
 11 12  2  0  0  0  0
 11 39  1  0  0  0  0
 12 13  1  0  0  0  0
 13 17  1  0  0  0  0
 13 14  2  0  0  0  0
 14 15  1  0  0  0  0
 15 16  2  0  0  0  0
 16 17  1  0  0  0  0
 16 40  1  0  0  0  0
 17 18  1  0  0  0  0
 18 19  1  0  0  0  0
 18 41  1  0  0  0  0
 18 42  1  0  0  0  0
 19 26  1  0  0  0  0
 19 20  1  0  0  0  0
 19 22  1  0  0  0  0
 20 21  1  0  0  0  0
 20 43  1  0  0  0  0
 20 44  1  0  0  0  0
 21 45  1  0  0  0  0
 22 23  1  0  0  0  0
 22 46  1  0  0  0  0
 22 47  1  0  0  0  0
 23 24  1  0  0  0  0
 23 48  1  0  0  0  0
 23 49  1  0  0  0  0
 24 25  1  0  0  0  0
 25 26  1  0  0  0  0
 25 50  1  0  0  0  0
 25 51  1  0  0  0  0
 26 52  1  0  0  0  0
 26 53  1  0  0  0  0
M  END
> <s_m_source_file>
AV-unprocessed.smi

> <i_m_source_file_index>
194

> <i_lp_mmshare_version>
43012

> <i_f3d_flags>
0

> <s_epik_input>
W0NIM11bU0BAXSg9TylbQ0gyXVtDQEBIXShbQ0gzXSlOKFtDSDNdKWMobltjSF1uMSljKGMxMiluW2NIXW4yW0NIMl1DMyhbQ0gyXVtPSF0pW0NIMl1bQ0gyXU9bQ0gyXVtDSDJdMw==

> <s_epik_cmdline>
J2VwaWtfcHl0aG9uJywgJy1waCcsICc3LjAnLCAnLXRuJywgJzgnLCAnLW1hJywgJzIwMCcsICctbWV0YWxfYmluZGluZycsICctaW1hZScsICc8aW5maWxlLm1hZT4nLCAnLW9tYWUnLCAnPG91dGZpbGUubWFlPic=

> <r_lp_tautomer_probability>
1

> <r_epik_Ionization_Penalty>
0.00101625

> <r_epik_Ionization_Penalty_Charging>
0

> <r_epik_Ionization_Penalty_Neutral>
0.00101625

> <r_epik_State_Penalty>
0.000568005

> <r_epik_Charging_Adjusted_Penalty>
0.000568005

> <i_epik_Tot_Q>
0

> <i_epik_Tot_abs_Q>
0

> <r_epik_Metal_State_Penalty>
-0

> <b_epik_Metal_Only>
0

> <s_lp_Force_Field>
OPLS_2005

> <r_lp_Energy>
31.1686

> <b_lp_Chiralities_Consistent>
1

> <s_lp_Variant>
AV-unprocessed.smi:194-2

> <Gold.Version>
5.8.1

> <Gold.Id.Protein>
6NUR|6NUR_protein|mol2

> <Gold.PLP.Fitness>
42.1245

> <Gold.PLP.PLP>
-30.4603

> <Gold.PLP.part.hbond>
-4.9703

> <Gold.PLP.part.metal>
0.0000

> <Gold.PLP.part.buried>
-1.5252

> <Gold.PLP.part.nonpolar>
-24.1462

> <Gold.PLP.part.repulsive>
1.9721

> <Gold.PLP.ligand.clash>
0.0000

> <Gold.PLP.ligand.torsion>
1.1667

> <Gold.PLP.Chemscore.Hbond>
3.8160

> <Gold.PLP.Chemscore.CHOScore>
0.6369

> <Gold.PLP.Chemscore.Metal>
0.0000

> <Gold.Chemscore.Hbonds>
donor molecule, donor type, donor heavy atom, donor atom, acceptor molecule, acceptor atom, score
      L1  H    21    45       P1  7921  1.00
      P1  H  6931  6943       L1     6  0.80
      P1  H  6934  6947       L1     6  0.93
      P1  H 10785 10796       L1    24  0.95
      L1  C    16    40       P1 10747  0.67

> <Gold.PLP.Chemscore.Internal.Correction>
0.6388

> <Gold.Rescore>
     Score         DG    S(hbond)    S(metal)    S(lipo)     H(rot)  DE(clash)    DE(int)     intcor
      9.46     -16.21       3.03        0.00      77.54       3.31       2.96       3.79       ----

> <Gold.Chemscore.Fitness>
9.4607

> <Gold.Chemscore.DG>
-16.2053

> <Gold.Chemscore.ZeroCoef>
-5.4800

> <Gold.Chemscore.Hbond>
3.0318

> <Gold.Chemscore.Metal>
0.0000

> <Gold.Chemscore.Lipo>
77.5397

> <Gold.Chemscore.Internal_Hbond>
0.0000

> <Gold.Chemscore.DEClash>
2.9551

> <Gold.Chemscore.DEInternal>
3.7895

> <Gold.Chemscore.Rot>
3.3098

> <Gold.Chemscore.Internal.Correction>
   9.000000E+99

> <Gold.Chemscore.Hbonds>
donor molecule, donor type, donor heavy atom, donor atom, acceptor molecule, acceptor atom, score
      L1  H    21    45       P1  7921  0.98
      P1  H  6931  6943       L1     6  0.77
      P1  H  6934  6947       L1     6  0.87
      P1  H 10785 10796       L1    24  0.21

> <Gold.Chemscore.Hbond.Weighted>
-10.1261

> <Gold.Chemscore.Metal.Weighted>
-0.0000

> <Gold.Chemscore.Lipo.Weighted>
-9.0721

> <Gold.Chemscore.Internal_Hbond.Weighted>
0.0000

> <Gold.Chemscore.DEClash.Weighted>
2.9551

> <Gold.Chemscore.DEInternal.Weighted>
3.7895

> <Gold.Chemscore.Rot.Weighted>
8.4730

> <Gold.Chemscore.Internal.Correction.Weighted>
   9.000000E+99

> <Gold.Protein.RotatedTorsions>
[ 6907 6896 6895 6894 ] final  -38.72 input  -60.11 | X-H torsion
[ 7974 7965 7964 7962 ] final  125.94 input  175.53 | X-H torsion
[ 8008 7997 7996 7995 ] final  175.01 input   59.86 | X-H torsion
[ 10167 10162 10161 10158 ] final  112.30 input  -65.29 | X-H torsion
[ 10718 10713 10712 10709 ] final -146.53 input   66.30 | X-H torsion
[ 10763 10752 10751 10750 ] final  168.94 input  -60.55 | X-H torsion
[ 11005 11000 10999 10996 ] final    6.64 input  -57.11 | X-H torsion

> <Gold.Protein.ActiveResidues>
 VAL166  LYS551  ARG553  GLY616  TRP617  ASP618  TYR619  PRO620  LYS621  CYS622 
 ASP623  PHE694  ASN695  SER759  ASP760  ASP761  ALA762  ILE779  LEU786  VAL792 
 PHE793  MET794  SER795  GLU796  ALA797  LYS798  CYS799  TRP800  GLU811  SER814 

> <Gold.Protein.RotatedAtoms>
  150.9990  134.9307  159.7942 H   0  0  0  0  0  0  0  0  0  0  0  0  # atno 6907 bound_to 6896
  152.5272  134.3179  159.9147 H   0  0  0  0  0  0  0  0  0  0  0  0  # atno 6908 bound_to 6896
  151.3185  133.4009  159.2687 H   0  0  0  0  0  0  0  0  0  0  0  0  # atno 6909 bound_to 6896
  145.0673  139.3757  143.4975 H   0  0  0  0  0  0  0  0  0  0  0  0  # atno 7974 bound_to 7965
  156.0915  140.1420  156.9585 H   0  0  0  0  0  0  0  0  0  0  0  0  # atno 8008 bound_to 7997
  154.4645  140.0931  156.7030 H   0  0  0  0  0  0  0  0  0  0  0  0  # atno 8009 bound_to 7997
  155.4911  140.3448  155.4357 H   0  0  0  0  0  0  0  0  0  0  0  0  # atno 8010 bound_to 7997
  139.6546  144.7129  151.1982 H   0  0  0  0  0  0  0  0  0  0  0  0  # atno 10167 bound_to 10162
  156.3961  130.7910  151.2117 H   0  0  0  0  0  0  0  0  0  0  0  0  # atno 10718 bound_to 10713
  154.3759  135.2753  155.2239 H   0  0  0  0  0  0  0  0  0  0  0  0  # atno 10763 bound_to 10752
  154.4366  135.5964  153.6106 H   0  0  0  0  0  0  0  0  0  0  0  0  # atno 10764 bound_to 10752
  152.9836  135.6008  154.3996 H   0  0  0  0  0  0  0  0  0  0  0  0  # atno 10765 bound_to 10752
  140.5571  134.0227  155.7958 H   0  0  0  0  0  0  0  0  0  0  0  0  # atno 11005 bound_to 11000
  146.3527  140.0401  142.8643 LP  0  0  0  0  0  0  0  0  0  0  0  0  # atno 17320 bound_to 7965
  145.1335  140.9531  143.4530 LP  0  0  0  0  0  0  0  0  0  0  0  0  # atno 17321 bound_to 7965
  140.7553  143.6093  150.8621 LP  0  0  0  0  0  0  0  0  0  0  0  0  # atno 17342 bound_to 10162
  139.9745  143.6020  152.2963 LP  0  0  0  0  0  0  0  0  0  0  0  0  # atno 17343 bound_to 10162
  157.7501  131.0301  150.4122 LP  0  0  0  0  0  0  0  0  0  0  0  0  # atno 17370 bound_to 10713
  156.4392  130.3988  149.6708 LP  0  0  0  0  0  0  0  0  0  0  0  0  # atno 17371 bound_to 10713
  141.1137  133.9576  157.2863 LP  0  0  0  0  0  0  0  0  0  0  0  0  # atno 17394 bound_to 11000
  139.9426  135.0189  156.8754 LP  0  0  0  0  0  0  0  0  0  0  0  0  # atno 17395 bound_to 11000

$$$$
