AV-unprocessed.smi:930|AV-procd|sdf|4196|dock4
  -GOLD-   22720 2103D 1   1.00000     0.00000
 Structure written by MMmdl.
 32 33  0  0  0  0  0  0  0  0  1 V2000
  154.8186  134.3609  162.1204 C   0  0  0  0  0  0  0  0  0  0  0  0
  154.3950  135.6641  161.5338 C   0  0  0  0  0  0  0  0  0  0  0  0
  154.0160  135.7966  160.2568 N   0  0  0  0  0  0  0  0  0  0  0  0
  153.6673  137.1031  159.9444 N   0  0  0  0  0  0  0  0  0  0  0  0
  153.7955  137.9204  160.9987 C   0  0  0  0  0  0  0  0  0  0  0  0
  153.5071  139.3103  160.9595 N   0  0  0  0  0  0  0  0  0  0  0  0
  153.3259  140.0939  159.8820 C   0  0  0  0  0  0  0  0  0  0  0  0
  153.3826  139.7186  158.7106 O   0  0  0  0  0  0  0  0  0  0  0  0
  153.0715  141.3607  160.2412 N   0  0  0  0  0  0  0  0  0  0  0  0
  152.8221  142.4645  159.3185 C   0  0  0  0  0  0  0  0  0  0  0  0
  152.5394  143.7698  160.0918 C   0  0  0  0  0  0  0  0  0  0  0  0
  152.2009  144.9264  159.1375 C   0  0  0  0  0  0  0  0  0  0  0  0
  151.0234  144.5651  158.2187 C   0  0  0  0  0  0  0  0  0  0  0  0
  151.3030  143.2680  157.4435 C   0  0  0  0  0  0  0  0  0  0  0  0
  151.6403  142.1097  158.3963 C   0  0  0  0  0  0  0  0  0  0  0  0
  154.3577  137.1512  162.4730 S   0  0  0  0  0  0  0  0  0  0  0  0
  154.6880  133.5531  161.3996 H   0  0  0  0  0  0  0  0  0  0  0  0
  154.2214  134.1390  163.0050 H   0  0  0  0  0  0  0  0  0  0  0  0
  155.8689  134.4061  162.4082 H   0  0  0  0  0  0  0  0  0  0  0  0
  153.4288  139.7612  161.8589 H   0  0  0  0  0  0  0  0  0  0  0  0
  153.0453  141.5796  161.2263 H   0  0  0  0  0  0  0  0  0  0  0  0
  153.7057  142.6093  158.6937 H   0  0  0  0  0  0  0  0  0  0  0  0
  151.7088  143.6171  160.7824 H   0  0  0  0  0  0  0  0  0  0  0  0
  153.4014  144.0428  160.7019 H   0  0  0  0  0  0  0  0  0  0  0  0
  151.9639  145.8232  159.7102 H   0  0  0  0  0  0  0  0  0  0  0  0
  153.0759  145.1681  158.5327 H   0  0  0  0  0  0  0  0  0  0  0  0
  150.1172  144.4482  158.8144 H   0  0  0  0  0  0  0  0  0  0  0  0
  150.8321  145.3811  157.5213 H   0  0  0  0  0  0  0  0  0  0  0  0
  150.4389  143.0067  156.8320 H   0  0  0  0  0  0  0  0  0  0  0  0
  152.1332  143.4265  156.7540 H   0  0  0  0  0  0  0  0  0  0  0  0
  151.8734  141.2155  157.8167 H   0  0  0  0  0  0  0  0  0  0  0  0
  150.7613  141.8686  158.9961 H   0  0  0  0  0  0  0  0  0  0  0  0
  1  2  1  0  0  0  0
  1 17  1  0  0  0  0
  1 18  1  0  0  0  0
  1 19  1  0  0  0  0
  2 16  1  0  0  0  0
  2  3  2  0  0  0  0
  3  4  1  0  0  0  0
  4  5  2  0  0  0  0
  5  6  1  0  0  0  0
  5 16  1  0  0  0  0
  6  7  1  0  0  0  0
  6 20  1  0  0  0  0
  7  8  2  0  0  0  0
  7  9  1  0  0  0  0
  9 10  1  0  0  0  0
  9 21  1  0  0  0  0
 10 15  1  0  0  0  0
 10 11  1  0  0  0  0
 10 22  1  0  0  0  0
 11 12  1  0  0  0  0
 11 23  1  0  0  0  0
 11 24  1  0  0  0  0
 12 13  1  0  0  0  0
 12 25  1  0  0  0  0
 12 26  1  0  0  0  0
 13 14  1  0  0  0  0
 13 27  1  0  0  0  0
 13 28  1  0  0  0  0
 14 15  1  0  0  0  0
 14 29  1  0  0  0  0
 14 30  1  0  0  0  0
 15 31  1  0  0  0  0
 15 32  1  0  0  0  0
M  END
> <s_m_source_file>
AV-unprocessed.smi

> <i_m_source_file_index>
930

> <i_lp_mmshare_version>
43012

> <i_f3d_flags>
0

> <s_epik_input>
W0NIM11jMW5uYyhzMSlbTkhdQyg9TylbTkhdW0NIXTJbQ0gyXVtDSDJdW0NIMl1bQ0gyXVtDSDJdMg==

> <s_epik_cmdline>
J2VwaWtfcHl0aG9uJywgJy1waCcsICc3LjAnLCAnLXRuJywgJzgnLCAnLW1hJywgJzIwMCcsICctbWV0YWxfYmluZGluZycsICctaW1hZScsICc8aW5maWxlLm1hZT4nLCAnLW9tYWUnLCAnPG91dGZpbGUubWFlPic=

> <r_lp_tautomer_probability>
1

> <r_epik_Ionization_Penalty>
0.000369052

> <r_epik_Ionization_Penalty_Charging>
0

> <r_epik_Ionization_Penalty_Neutral>
0.000369052

> <r_epik_State_Penalty>
-0

> <r_epik_Charging_Adjusted_Penalty>
0

> <i_epik_Tot_Q>
0

> <i_epik_Tot_abs_Q>
0

> <r_epik_Metal_State_Penalty>
0.185018

> <b_epik_Metal_Only>
0

> <s_lp_Force_Field>
OPLS_2005

> <r_lp_Energy>
7.80656

> <b_lp_Chiralities_Consistent>
1

> <s_lp_Variant>
AV-unprocessed.smi:930-1

> <Gold.Version>
5.8.1

> <Gold.Id.Protein>
6NUR|6NUR_protein|mol2

> <Gold.PLP.Fitness>
37.2134

> <Gold.PLP.PLP>
-31.3142

> <Gold.PLP.part.hbond>
-1.9992

> <Gold.PLP.part.metal>
0.0000

> <Gold.PLP.part.buried>
-4.1737

> <Gold.PLP.part.nonpolar>
-26.4841

> <Gold.PLP.part.repulsive>
0.1298

> <Gold.PLP.ligand.clash>
0.0000

> <Gold.PLP.ligand.torsion>
0.0520

> <Gold.PLP.Chemscore.Hbond>
2.0000

> <Gold.PLP.Chemscore.CHOScore>
0.0000

> <Gold.PLP.Chemscore.Metal>
0.0000

> <Gold.Chemscore.Hbonds>
donor molecule, donor type, donor heavy atom, donor atom, acceptor molecule, acceptor atom, score
      P1  H  6896  6907       L1     3  1.00
      P1  H  7997  8008       L1     8  0.73

> <Gold.PLP.Chemscore.Internal.Correction>
0.0033

> <Gold.Rescore>
     Score         DG    S(hbond)    S(metal)    S(lipo)     H(rot)  DE(clash)    DE(int)     intcor
     17.77     -19.10       1.78        0.00      87.37       1.00       0.00       1.32       ----

> <Gold.Chemscore.Fitness>
17.7745

> <Gold.Chemscore.DG>
-19.0973

> <Gold.Chemscore.ZeroCoef>
-5.4800

> <Gold.Chemscore.Hbond>
1.7829

> <Gold.Chemscore.Metal>
0.0000

> <Gold.Chemscore.Lipo>
87.3702

> <Gold.Chemscore.Internal_Hbond>
0.0000

> <Gold.Chemscore.DEClash>
0.0047

> <Gold.Chemscore.DEInternal>
1.3181

> <Gold.Chemscore.Rot>
1.0000

> <Gold.Chemscore.Internal.Correction>
   9.000000E+99

> <Gold.Chemscore.Hbonds>
donor molecule, donor type, donor heavy atom, donor atom, acceptor molecule, acceptor atom, score
      P1  H  6896  6907       L1     3  0.45
      P1  H  7997  8008       L1     8  0.68

> <Gold.Chemscore.Hbond.Weighted>
-5.9550

> <Gold.Chemscore.Metal.Weighted>
-0.0000

> <Gold.Chemscore.Lipo.Weighted>
-10.2223

> <Gold.Chemscore.Internal_Hbond.Weighted>
0.0000

> <Gold.Chemscore.DEClash.Weighted>
0.0047

> <Gold.Chemscore.DEInternal.Weighted>
1.3181

> <Gold.Chemscore.Rot.Weighted>
2.5600

> <Gold.Chemscore.Internal.Correction.Weighted>
   9.000000E+99

> <Gold.Protein.RotatedTorsions>
[ 6907 6896 6895 6894 ] final   63.23 input  -60.11 | X-H torsion
[ 7974 7965 7964 7962 ] final -163.51 input  175.53 | X-H torsion
[ 8008 7997 7996 7995 ] final -111.22 input   59.86 | X-H torsion
[ 10167 10162 10161 10158 ] final   79.74 input  -65.29 | X-H torsion
[ 10718 10713 10712 10709 ] final  -14.69 input   66.30 | X-H torsion
[ 10763 10752 10751 10750 ] final -118.58 input  -60.55 | X-H torsion
[ 11005 11000 10999 10996 ] final -127.86 input  -57.11 | X-H torsion

> <Gold.Protein.ActiveResidues>
 VAL166  LYS551  ARG553  GLY616  TRP617  ASP618  TYR619  PRO620  LYS621  CYS622 
 ASP623  PHE694  ASN695  SER759  ASP760  ASP761  ALA762  ILE779  LEU786  VAL792 
 PHE793  MET794  SER795  GLU796  ALA797  LYS798  CYS799  TRP800  GLU811  SER814 

> <Gold.Protein.RotatedAtoms>
  152.4236  134.5910  159.9973 H   0  0  0  0  0  0  0  0  0  0  0  0  # atno 6907 bound_to 6896
  151.6053  133.3347  159.3064 H   0  0  0  0  0  0  0  0  0  0  0  0  # atno 6908 bound_to 6896
  150.8125  134.7325  159.6766 H   0  0  0  0  0  0  0  0  0  0  0  0  # atno 6909 bound_to 6896
  144.7324  140.3097  143.6190 H   0  0  0  0  0  0  0  0  0  0  0  0  # atno 7974 bound_to 7965
  154.9864  140.0395  157.2300 H   0  0  0  0  0  0  0  0  0  0  0  0  # atno 8008 bound_to 7997
  154.7667  140.2794  155.6148 H   0  0  0  0  0  0  0  0  0  0  0  0  # atno 8009 bound_to 7997
  156.2914  140.2618  156.2460 H   0  0  0  0  0  0  0  0  0  0  0  0  # atno 8010 bound_to 7997
  139.9572  144.5986  150.8106 H   0  0  0  0  0  0  0  0  0  0  0  0  # atno 10167 bound_to 10162
  156.6123  130.4853  149.6196 H   0  0  0  0  0  0  0  0  0  0  0  0  # atno 10718 bound_to 10713
  154.8592  135.4269  154.2162 H   0  0  0  0  0  0  0  0  0  0  0  0  # atno 10763 bound_to 10752
  153.3176  135.6980  153.7065 H   0  0  0  0  0  0  0  0  0  0  0  0  # atno 10764 bound_to 10752
  153.6132  135.3515  155.2959 H   0  0  0  0  0  0  0  0  0  0  0  0  # atno 10765 bound_to 10752
  140.9564  134.0995  157.4012 H   0  0  0  0  0  0  0  0  0  0  0  0  # atno 11005 bound_to 11000
  145.7678  139.1846  143.2230 LP  0  0  0  0  0  0  0  0  0  0  0  0  # atno 17320 bound_to 7965
  146.0935  140.7628  142.9583 LP  0  0  0  0  0  0  0  0  0  0  0  0  # atno 17321 bound_to 7965
  140.7565  143.3066  151.2946 LP  0  0  0  0  0  0  0  0  0  0  0  0  # atno 17342 bound_to 10162
  139.6582  144.0237  152.2674 LP  0  0  0  0  0  0  0  0  0  0  0  0  # atno 17343 bound_to 10162
  156.2379  130.6834  151.1528 LP  0  0  0  0  0  0  0  0  0  0  0  0  # atno 17370 bound_to 10713
  157.7251  131.0655  150.5969 LP  0  0  0  0  0  0  0  0  0  0  0  0  # atno 17371 bound_to 10713
  139.8864  135.0081  156.6494 LP  0  0  0  0  0  0  0  0  0  0  0  0  # atno 17394 bound_to 11000
  140.7529  133.8882  155.8361 LP  0  0  0  0  0  0  0  0  0  0  0  0  # atno 17395 bound_to 11000

$$$$
