AV-unprocessed.smi:232|AV-procd|sdf|1767|dock10
  -GOLD-   2262020303D 1   1.00000     0.00000
 Structure written by MMmdl.
 52 55  0  0  0  0  0  0  0  0  1 V2000
  154.4242  140.9713  161.6569 C   0  0  0  0  0  0  0  0  0  0  0  0
  154.2663  140.4460  160.2234 C   0  0  0  0  0  0  0  0  0  0  0  0
  153.4475  141.3467  159.2702 C   0  0  2  0  0  0  0  0  0  0  0  0
  153.1256  142.6981  159.9138 C   0  0  0  0  0  0  0  0  0  0  0  0
  151.9040  143.1681  159.1340 C   0  0  0  0  0  0  0  0  0  0  0  0
  151.1346  141.8728  158.8427 C   0  0  1  0  0  0  0  0  0  0  0  0
  150.3401  141.9663  157.5221 C   0  0  0  0  0  0  0  0  0  0  0  0
  152.1367  140.8027  158.9137 N   0  0  0  0  0  0  0  0  0  0  0  0
  152.0184  139.7365  158.0875 C   0  0  0  0  0  0  0  0  0  0  0  0
  152.6890  139.7161  156.9061 N   0  0  0  0  0  0  0  0  0  0  0  0
  152.5551  138.6747  156.0795 C   0  0  0  0  0  0  0  0  0  0  0  0
  151.8110  137.5771  156.2329 N   0  0  0  0  0  0  0  0  0  0  0  0
  151.1337  137.5990  157.4167 C   0  0  0  0  0  0  0  0  0  0  0  0
  151.1827  138.6302  158.3949 C   0  0  0  0  0  0  0  0  0  0  0  0
  150.3683  138.3066  159.4724 N   0  0  0  0  0  0  0  0  0  0  0  0
  149.8617  137.1486  159.1478 C   0  0  0  0  0  0  0  0  0  0  0  0
  150.2497  136.6605  157.9196 N   0  0  0  0  0  0  0  0  0  0  0  0
  149.8356  135.4076  157.3124 C   0  0  0  0  0  0  0  0  0  0  0  0
  150.2488  135.2688  155.8288 C   0  0  2  0  0  0  0  0  0  0  0  0
  149.2284  135.9069  155.0880 O   0  0  0  0  0  0  0  0  0  0  0  0
  150.3580  133.8191  155.2999 C   0  0  2  0  0  0  0  0  0  0  0  0
  149.0432  133.0418  155.1750 C   0  0  0  0  0  0  0  0  0  0  0  0
  149.4506  131.5854  155.3331 C   0  0  0  0  0  0  0  0  0  0  0  0
  150.8750  131.6604  155.8816 C   0  0  0  0  0  0  0  0  0  0  0  0
  151.0438  133.0198  156.2536 O   0  0  0  0  0  0  0  0  0  0  0  0
  154.8808  140.2139  162.2939 H   0  0  0  0  0  0  0  0  0  0  0  0
  153.4590  141.2320  162.0913 H   0  0  0  0  0  0  0  0  0  0  0  0
  155.0652  141.8511  161.6968 H   0  0  0  0  0  0  0  0  0  0  0  0
  155.2499  140.2471  159.7959 H   0  0  0  0  0  0  0  0  0  0  0  0
  153.7674  139.4782  160.2856 H   0  0  0  0  0  0  0  0  0  0  0  0
  154.0170  141.5323  158.3584 H   0  0  0  0  0  0  0  0  0  0  0  0
  152.8574  142.5675  160.9635 H   0  0  0  0  0  0  0  0  0  0  0  0
  153.9582  143.4001  159.8634 H   0  0  0  0  0  0  0  0  0  0  0  0
  151.3072  143.8999  159.6790 H   0  0  0  0  0  0  0  0  0  0  0  0
  152.2333  143.6325  158.2032 H   0  0  0  0  0  0  0  0  0  0  0  0
  150.4348  141.6942  159.6598 H   0  0  0  0  0  0  0  0  0  0  0  0
  149.6774  142.8318  157.5335 H   0  0  0  0  0  0  0  0  0  0  0  0
  149.7141  141.0892  157.3590 H   0  0  0  0  0  0  0  0  0  0  0  0
  151.0039  142.0712  156.6632 H   0  0  0  0  0  0  0  0  0  0  0  0
  153.1221  138.7310  155.1622 H   0  0  0  0  0  0  0  0  0  0  0  0
  149.1773  136.6199  159.7953 H   0  0  0  0  0  0  0  0  0  0  0  0
  150.2325  134.5759  157.8961 H   0  0  0  0  0  0  0  0  0  0  0  0
  148.7494  135.3564  157.4028 H   0  0  0  0  0  0  0  0  0  0  0  0
  151.1819  135.8043  155.6506 H   0  0  0  0  0  0  0  0  0  0  0  0
  149.4822  135.9214  154.1778 H   0  0  0  0  0  0  0  0  0  0  0  0
  150.8918  133.7920  154.3475 H   0  0  0  0  0  0  0  0  0  0  0  0
  148.3644  133.3123  155.9845 H   0  0  0  0  0  0  0  0  0  0  0  0
  148.5347  133.2254  154.2290 H   0  0  0  0  0  0  0  0  0  0  0  0
  148.7810  131.0698  156.0223 H   0  0  0  0  0  0  0  0  0  0  0  0
  149.4295  131.0535  154.3813 H   0  0  0  0  0  0  0  0  0  0  0  0
  151.0345  130.9957  156.7311 H   0  0  0  0  0  0  0  0  0  0  0  0
  151.6003  131.4063  155.1072 H   0  0  0  0  0  0  0  0  0  0  0  0
  1  2  1  0  0  0  0
  1 26  1  0  0  0  0
  1 27  1  0  0  0  0
  1 28  1  0  0  0  0
  2  3  1  0  0  0  0
  2 29  1  0  0  0  0
  2 30  1  0  0  0  0
  3  8  1  0  0  0  0
  3  4  1  0  0  0  0
  3 31  1  0  0  0  0
  4  5  1  0  0  0  0
  4 32  1  0  0  0  0
  4 33  1  0  0  0  0
  5  6  1  0  0  0  0
  5 34  1  0  0  0  0
  5 35  1  0  0  0  0
  6  7  1  0  0  0  0
  6  8  1  0  0  0  0
  6 36  1  0  0  0  0
  7 37  1  0  0  0  0
  7 38  1  0  0  0  0
  7 39  1  0  0  0  0
  8  9  1  0  0  0  0
  9 14  1  0  0  0  0
  9 10  2  0  0  0  0
 10 11  1  0  0  0  0
 11 12  2  0  0  0  0
 11 40  1  0  0  0  0
 12 13  1  0  0  0  0
 13 17  1  0  0  0  0
 13 14  2  0  0  0  0
 14 15  1  0  0  0  0
 15 16  2  0  0  0  0
 16 17  1  0  0  0  0
 16 41  1  0  0  0  0
 17 18  1  0  0  0  0
 18 19  1  0  0  0  0
 18 42  1  0  0  0  0
 18 43  1  0  0  0  0
 19 20  1  0  0  0  0
 19 21  1  0  0  0  0
 19 44  1  0  0  0  0
 20 45  1  0  0  0  0
 21 25  1  0  0  0  0
 21 22  1  0  0  0  0
 21 46  1  0  0  0  0
 22 23  1  0  0  0  0
 22 47  1  0  0  0  0
 22 48  1  0  0  0  0
 23 24  1  0  0  0  0
 23 49  1  0  0  0  0
 23 50  1  0  0  0  0
 24 25  1  0  0  0  0
 24 51  1  0  0  0  0
 24 52  1  0  0  0  0
M  END
> <s_m_source_file>
AV-unprocessed.smi

> <i_m_source_file_index>
232

> <i_lp_mmshare_version>
43012

> <i_f3d_flags>
0

> <s_epik_input>
W0NIM11bQ0gyXVtDQEBIXTFbQ0gyXVtDSDJdW0NAQEhdKFtDSDNdKU4xYyhuW2NIXW4yKWMoYzIzKW5bY0hdbjNbQ0gyXVtDQEhdKFtPSF0pW0NAQEhdNFtDSDJdW0NIMl1bQ0gyXU80

> <s_epik_cmdline>
J2VwaWtfcHl0aG9uJywgJy1waCcsICc3LjAnLCAnLXRuJywgJzgnLCAnLW1hJywgJzIwMCcsICctbWV0YWxfYmluZGluZycsICctaW1hZScsICc8aW5maWxlLm1hZT4nLCAnLW9tYWUnLCAnPG91dGZpbGUubWFlPic=

> <r_lp_tautomer_probability>
1

> <r_epik_Ionization_Penalty>
0.00258048

> <r_epik_Ionization_Penalty_Charging>
0

> <r_epik_Ionization_Penalty_Neutral>
0.00258048

> <r_epik_State_Penalty>
0.00168551

> <r_epik_Charging_Adjusted_Penalty>
0.00168551

> <i_epik_Tot_Q>
0

> <i_epik_Tot_abs_Q>
0

> <r_epik_Metal_State_Penalty>
-0

> <b_epik_Metal_Only>
0

> <s_lp_Force_Field>
OPLS_2005

> <r_lp_Energy>
58.3797

> <b_lp_Chiralities_Consistent>
1

> <s_lp_Variant>
AV-unprocessed.smi:232-1

> <Gold.Version>
5.8.1

> <Gold.Id.Protein>
6NUR|6NUR_protein|mol2

> <Gold.PLP.Fitness>
43.0634

> <Gold.PLP.PLP>
-41.3682

> <Gold.PLP.part.hbond>
-3.0000

> <Gold.PLP.part.metal>
0.0000

> <Gold.PLP.part.buried>
-5.8439

> <Gold.PLP.part.nonpolar>
-32.7256

> <Gold.PLP.part.repulsive>
0.0065

> <Gold.PLP.ligand.clash>
0.0000

> <Gold.PLP.ligand.torsion>
2.4310

> <Gold.PLP.Chemscore.Hbond>
2.0000

> <Gold.PLP.Chemscore.CHOScore>
0.0000

> <Gold.PLP.Chemscore.Metal>
0.0000

> <Gold.Chemscore.Hbonds>
donor molecule, donor type, donor heavy atom, donor atom, acceptor molecule, acceptor atom, score
      L1  H    20    45       P1  7948  0.16
      P1  H  7997  8010       L1    10  0.90

> <Gold.PLP.Chemscore.Internal.Correction>
0.5572

> <Gold.Rescore>
     Score         DG    S(hbond)    S(metal)    S(lipo)     H(rot)  DE(clash)    DE(int)     intcor
     13.10     -16.90       1.85        0.00      92.33       2.18       0.01       3.79       ----

> <Gold.Chemscore.Fitness>
13.1017

> <Gold.Chemscore.DG>
-16.9001

> <Gold.Chemscore.ZeroCoef>
-5.4800

> <Gold.Chemscore.Hbond>
1.8537

> <Gold.Chemscore.Metal>
0.0000

> <Gold.Chemscore.Lipo>
92.3342

> <Gold.Chemscore.Internal_Hbond>
0.0000

> <Gold.Chemscore.DEClash>
0.0082

> <Gold.Chemscore.DEInternal>
3.7902

> <Gold.Chemscore.Rot>
2.1775

> <Gold.Chemscore.Internal.Correction>
   9.000000E+99

> <Gold.Chemscore.Hbonds>
donor molecule, donor type, donor heavy atom, donor atom, acceptor molecule, acceptor atom, score
      L1  H    20    45       P1  7948  0.11
      P1  H  7997  8010       L1    10  0.18

> <Gold.Chemscore.Hbond.Weighted>
-6.1914

> <Gold.Chemscore.Metal.Weighted>
-0.0000

> <Gold.Chemscore.Lipo.Weighted>
-10.8031

> <Gold.Chemscore.Internal_Hbond.Weighted>
0.0000

> <Gold.Chemscore.DEClash.Weighted>
0.0082

> <Gold.Chemscore.DEInternal.Weighted>
3.7902

> <Gold.Chemscore.Rot.Weighted>
5.5744

> <Gold.Chemscore.Internal.Correction.Weighted>
   9.000000E+99

> <Gold.Protein.RotatedTorsions>
[ 6907 6896 6895 6894 ] final -154.48 input  -60.11 | X-H torsion
[ 7974 7965 7964 7962 ] final -163.83 input  175.53 | X-H torsion
[ 8008 7997 7996 7995 ] final   66.67 input   59.86 | X-H torsion
[ 10167 10162 10161 10158 ] final  -46.89 input  -65.29 | X-H torsion
[ 10718 10713 10712 10709 ] final   77.55 input   66.30 | X-H torsion
[ 10763 10752 10751 10750 ] final  -65.08 input  -60.55 | X-H torsion
[ 11005 11000 10999 10996 ] final -152.39 input  -57.11 | X-H torsion

> <Gold.Protein.ActiveResidues>
 VAL166  LYS551  ARG553  GLY616  TRP617  ASP618  TYR619  PRO620  LYS621  CYS622 
 ASP623  PHE694  ASN695  SER759  ASP760  ASP761  ALA762  ILE779  LEU786  VAL792 
 PHE793  MET794  SER795  GLU796  ALA797  LYS798  CYS799  TRP800  GLU811  SER814 

> <Gold.Protein.RotatedAtoms>
  151.2581  133.4316  159.2614 H   0  0  0  0  0  0  0  0  0  0  0  0  # atno 6907 bound_to 6896
  151.0556  134.9702  159.8244 H   0  0  0  0  0  0  0  0  0  0  0  0  # atno 6908 bound_to 6896
  152.5390  134.2533  159.8960 H   0  0  0  0  0  0  0  0  0  0  0  0  # atno 6909 bound_to 6896
  144.7314  140.3050  143.6198 H   0  0  0  0  0  0  0  0  0  0  0  0  # atno 7974 bound_to 7965
  155.6810  140.3496  155.4855 H   0  0  0  0  0  0  0  0  0  0  0  0  # atno 8008 bound_to 7997
  155.9606  140.1136  157.0921 H   0  0  0  0  0  0  0  0  0  0  0  0  # atno 8009 bound_to 7997
  154.4142  140.1176  156.5160 H   0  0  0  0  0  0  0  0  0  0  0  0  # atno 8010 bound_to 7997
  140.6798  143.2810  151.3848 H   0  0  0  0  0  0  0  0  0  0  0  0  # atno 10167 bound_to 10162
  157.6714  130.9827  150.1658 H   0  0  0  0  0  0  0  0  0  0  0  0  # atno 10718 bound_to 10713
  154.3397  135.6159  153.5590 H   0  0  0  0  0  0  0  0  0  0  0  0  # atno 10763 bound_to 10752
  152.9805  135.5766  154.4867 H   0  0  0  0  0  0  0  0  0  0  0  0  # atno 10764 bound_to 10752
  154.4568  135.2854  155.1718 H   0  0  0  0  0  0  0  0  0  0  0  0  # atno 10765 bound_to 10752
  140.7194  134.3744  157.5186 H   0  0  0  0  0  0  0  0  0  0  0  0  # atno 11005 bound_to 11000
  145.7722  139.1861  143.2205 LP  0  0  0  0  0  0  0  0  0  0  0  0  # atno 17320 bound_to 7965
  146.0901  140.7665  142.9599 LP  0  0  0  0  0  0  0  0  0  0  0  0  # atno 17321 bound_to 7965
  139.6113  144.1092  152.2302 LP  0  0  0  0  0  0  0  0  0  0  0  0  # atno 17342 bound_to 10162
  140.0507  144.5935  150.7338 LP  0  0  0  0  0  0  0  0  0  0  0  0  # atno 17343 bound_to 10162
  156.2424  130.3692  149.8323 LP  0  0  0  0  0  0  0  0  0  0  0  0  # atno 17370 bound_to 10713
  156.6119  130.8590  151.3456 LP  0  0  0  0  0  0  0  0  0  0  0  0  # atno 17371 bound_to 10713
  139.8852  134.8944  156.2658 LP  0  0  0  0  0  0  0  0  0  0  0  0  # atno 17394 bound_to 11000
  141.0017  133.7148  156.0970 LP  0  0  0  0  0  0  0  0  0  0  0  0  # atno 17395 bound_to 11000

$$$$
