AV-unprocessed.smi:2468|AV-procd|sdf|9732|dock2
  -GOLD-   2272013373D 1   1.00000     0.00000
 Structure written by MMmdl.
 32 33  0  0  0  0  0  0  0  0  1 V2000
  153.3436  142.6894  162.3374 C   0  0  0  0  0  0  0  0  0  0  0  0
  152.6370  142.9626  161.0230 C   0  0  0  0  0  0  0  0  0  0  0  0
  151.9646  144.1323  160.9529 N   0  0  0  0  0  0  0  0  0  0  0  0
  151.3250  144.4286  159.8031 C   0  0  0  0  0  0  0  0  0  0  0  0
  151.3184  143.5803  158.6793 C   0  0  0  0  0  0  0  0  0  0  0  0
  152.0076  142.3463  158.7552 C   0  0  0  0  0  0  0  0  0  0  0  0
  152.0834  141.4258  157.6737 N   0  0  0  0  0  0  0  0  0  0  0  0
  151.2449  141.2726  156.6320 C   0  0  0  0  0  0  0  0  0  0  0  0
  150.2314  141.9471  156.4499 O   0  0  0  0  0  0  0  0  0  0  0  0
  151.6236  140.1640  155.6379 C   0  0  1  0  0  0  0  0  0  0  0  0
  152.8273  139.5249  156.0634 O   0  0  0  0  0  0  0  0  0  0  0  0
  152.7570  138.1223  155.8231 C   0  0  0  0  0  0  0  0  0  0  0  0
  151.4868  137.8981  155.0092 C   0  0  0  0  0  0  0  0  0  0  0  0
  150.5981  139.0290  155.4861 C   0  0  2  0  0  0  0  0  0  0  0  0
  149.4309  139.3368  154.5346 C   0  0  0  0  0  0  0  0  0  0  0  0
  152.6942  142.0384  159.9533 C   0  0  0  0  0  0  0  0  0  0  0  0
  153.5807  140.5586  160.1109 Cl  0  0  0  0  0  0  0  0  0  0  0  0
  152.9644  141.7721  162.7882 H   0  0  0  0  0  0  0  0  0  0  0  0
  153.1941  143.5017  163.0499 H   0  0  0  0  0  0  0  0  0  0  0  0
  154.4159  142.5771  162.1751 H   0  0  0  0  0  0  0  0  0  0  0  0
  150.8076  145.3761  159.7747 H   0  0  0  0  0  0  0  0  0  0  0  0
  150.8015  143.8967  157.7866 H   0  0  0  0  0  0  0  0  0  0  0  0
  152.8242  140.7425  157.7405 H   0  0  0  0  0  0  0  0  0  0  0  0
  151.8186  140.6178  154.6650 H   0  0  0  0  0  0  0  0  0  0  0  0
  153.6486  137.7602  155.3104 H   0  0  0  0  0  0  0  0  0  0  0  0
  152.6882  137.6117  156.7843 H   0  0  0  0  0  0  0  0  0  0  0  0
  151.7036  138.0070  153.9452 H   0  0  0  0  0  0  0  0  0  0  0  0
  151.0498  136.9119  155.1686 H   0  0  0  0  0  0  0  0  0  0  0  0
  150.1986  138.7619  156.4664 H   0  0  0  0  0  0  0  0  0  0  0  0
  149.7884  139.6121  153.5420 H   0  0  0  0  0  0  0  0  0  0  0  0
  148.8203  140.1592  154.9070 H   0  0  0  0  0  0  0  0  0  0  0  0
  148.7806  138.4685  154.4246 H   0  0  0  0  0  0  0  0  0  0  0  0
  1  2  1  0  0  0  0
  1 18  1  0  0  0  0
  1 19  1  0  0  0  0
  1 20  1  0  0  0  0
  2 16  1  0  0  0  0
  2  3  2  0  0  0  0
  3  4  1  0  0  0  0
  4  5  2  0  0  0  0
  4 21  1  0  0  0  0
  5  6  1  0  0  0  0
  5 22  1  0  0  0  0
  6  7  1  0  0  0  0
  6 16  2  0  0  0  0
  7  8  1  0  0  0  0
  7 23  1  0  0  0  0
  8  9  2  0  0  0  0
  8 10  1  0  0  0  0
 10 14  1  0  0  0  0
 10 11  1  0  0  0  0
 10 24  1  0  0  0  0
 11 12  1  0  0  0  0
 12 13  1  0  0  0  0
 12 25  1  0  0  0  0
 12 26  1  0  0  0  0
 13 14  1  0  0  0  0
 13 27  1  0  0  0  0
 13 28  1  0  0  0  0
 14 15  1  0  0  0  0
 14 29  1  0  0  0  0
 15 30  1  0  0  0  0
 15 31  1  0  0  0  0
 15 32  1  0  0  0  0
 16 17  1  0  0  0  0
M  END
> <s_m_source_file>
AV-unprocessed.smi

> <i_m_source_file_index>
2468

> <i_lp_mmshare_version>
43012

> <i_f3d_flags>
0

> <s_epik_input>
W0NIM11jMW5bY0hdW2NIXWMoYzFDbClbTkhdQyg9TylbQ0BASF0yT1tDSDJdW0NIMl1bQ0BIXTJbQ0gzXQ==

> <s_epik_cmdline>
J2VwaWtfcHl0aG9uJywgJy1waCcsICc3LjAnLCAnLXRuJywgJzgnLCAnLW1hJywgJzIwMCcsICctbWV0YWxfYmluZGluZycsICctaW1hZScsICc8aW5maWxlLm1hZT4nLCAnLW9tYWUnLCAnPG91dGZpbGUubWFlPic=

> <r_epik_Ionization_Penalty>
0.000361027

> <r_epik_Ionization_Penalty_Charging>
0

> <r_epik_Ionization_Penalty_Neutral>
0.000361027

> <r_epik_State_Penalty>
0.000217849

> <r_epik_Charging_Adjusted_Penalty>
0.000217849

> <i_epik_Tot_Q>
0

> <i_epik_Tot_abs_Q>
0

> <r_epik_Metal_State_Penalty>
-0

> <b_epik_Metal_Only>
0

> <s_lp_Force_Field>
OPLS_2005

> <r_lp_Energy>
24.7843

> <b_lp_Chiralities_Consistent>
1

> <s_lp_Variant>
AV-unprocessed.smi:2468-4

> <Gold.Version>
5.8.1

> <Gold.Id.Protein>
6NUR|6NUR_protein|mol2

> <Gold.PLP.Fitness>
40.8950

> <Gold.PLP.PLP>
-38.1296

> <Gold.PLP.part.hbond>
-1.0000

> <Gold.PLP.part.metal>
0.0000

> <Gold.PLP.part.buried>
-3.8044

> <Gold.PLP.part.nonpolar>
-33.4861

> <Gold.PLP.part.repulsive>
0.3343

> <Gold.PLP.ligand.clash>
0.0000

> <Gold.PLP.ligand.torsion>
0.1187

> <Gold.PLP.Chemscore.Hbond>
1.0000

> <Gold.PLP.Chemscore.CHOScore>
0.0000

> <Gold.PLP.Chemscore.Metal>
0.0000

> <Gold.Chemscore.Hbonds>
donor molecule, donor type, donor heavy atom, donor atom, acceptor molecule, acceptor atom, score
      P1  H  7997  8010       L1    11  1.00

> <Gold.PLP.Chemscore.Internal.Correction>
0.0027

> <Gold.Rescore>
     Score         DG    S(hbond)    S(metal)    S(lipo)     H(rot)  DE(clash)    DE(int)     intcor
     17.30     -18.71       0.99        0.00     106.80       1.00       0.14       1.27       ----

> <Gold.Chemscore.Fitness>
17.2981

> <Gold.Chemscore.DG>
-18.7070

> <Gold.Chemscore.ZeroCoef>
-5.4800

> <Gold.Chemscore.Hbond>
0.9856

> <Gold.Chemscore.Metal>
0.0000

> <Gold.Chemscore.Lipo>
106.7965

> <Gold.Chemscore.Internal_Hbond>
0.0000

> <Gold.Chemscore.DEClash>
0.1374

> <Gold.Chemscore.DEInternal>
1.2715

> <Gold.Chemscore.Rot>
1.0000

> <Gold.Chemscore.Internal.Correction>
   9.000000E+99

> <Gold.Chemscore.Hbonds>
donor molecule, donor type, donor heavy atom, donor atom, acceptor molecule, acceptor atom, score
      P1  H  7997  8010       L1    11  0.90

> <Gold.Chemscore.Hbond.Weighted>
-3.2918

> <Gold.Chemscore.Metal.Weighted>
-0.0000

> <Gold.Chemscore.Lipo.Weighted>
-12.4952

> <Gold.Chemscore.Internal_Hbond.Weighted>
0.0000

> <Gold.Chemscore.DEClash.Weighted>
0.1374

> <Gold.Chemscore.DEInternal.Weighted>
1.2715

> <Gold.Chemscore.Rot.Weighted>
2.5600

> <Gold.Chemscore.Internal.Correction.Weighted>
   9.000000E+99

> <Gold.Protein.RotatedTorsions>
[ 6907 6896 6895 6894 ] final -162.12 input  -60.11 | X-H torsion
[ 7974 7965 7964 7962 ] final  146.72 input  175.53 | X-H torsion
[ 8008 7997 7996 7995 ] final   83.82 input   59.86 | X-H torsion
[ 10167 10162 10161 10158 ] final   18.27 input  -65.29 | X-H torsion
[ 10718 10713 10712 10709 ] final  127.84 input   66.30 | X-H torsion
[ 10763 10752 10751 10750 ] final -107.04 input  -60.55 | X-H torsion
[ 11005 11000 10999 10996 ] final   76.61 input  -57.11 | X-H torsion

> <Gold.Protein.ActiveResidues>
 VAL166  LYS551  ARG553  GLY616  TRP617  ASP618  TYR619  PRO620  LYS621  CYS622 
 ASP623  PHE694  ASN695  SER759  ASP760  ASP761  ALA762  ILE779  LEU786  VAL792 
 PHE793  MET794  SER795  GLU796  ALA797  LYS798  CYS799  TRP800  GLU811  SER814 

> <Gold.Protein.RotatedAtoms>
  151.3753  133.3840  159.2703 H   0  0  0  0  0  0  0  0  0  0  0  0  # atno 6907 bound_to 6896
  150.9619  134.9006  159.7746 H   0  0  0  0  0  0  0  0  0  0  0  0  # atno 6908 bound_to 6896
  152.5152  134.3713  159.9371 H   0  0  0  0  0  0  0  0  0  0  0  0  # atno 6909 bound_to 6896
  144.8649  139.5940  143.5914 H   0  0  0  0  0  0  0  0  0  0  0  0  # atno 7974 bound_to 7965
  155.9290  140.3416  155.6234 H   0  0  0  0  0  0  0  0  0  0  0  0  # atno 8008 bound_to 7997
  155.7181  140.0780  157.2361 H   0  0  0  0  0  0  0  0  0  0  0  0  # atno 8009 bound_to 7997
  154.4082  140.1610  156.2358 H   0  0  0  0  0  0  0  0  0  0  0  0  # atno 8010 bound_to 7997
  140.5666  143.9240  150.6681 H   0  0  0  0  0  0  0  0  0  0  0  0  # atno 10167 bound_to 10162
  157.5297  131.1098  150.9028 H   0  0  0  0  0  0  0  0  0  0  0  0  # atno 10718 bound_to 10713
  154.8050  135.4690  154.0370 H   0  0  0  0  0  0  0  0  0  0  0  0  # atno 10763 bound_to 10752
  153.1846  135.6846  153.8440 H   0  0  0  0  0  0  0  0  0  0  0  0  # atno 10764 bound_to 10752
  153.7978  135.3234  155.3364 H   0  0  0  0  0  0  0  0  0  0  0  0  # atno 10765 bound_to 10752
  139.9291  134.7615  156.1417 H   0  0  0  0  0  0  0  0  0  0  0  0  # atno 11005 bound_to 11000
  146.2888  139.7079  142.9176 LP  0  0  0  0  0  0  0  0  0  0  0  0  # atno 17320 bound_to 7965
  145.4242  141.0409  143.2947 LP  0  0  0  0  0  0  0  0  0  0  0  0  # atno 17321 bound_to 7965
  140.2704  143.3460  152.1243 LP  0  0  0  0  0  0  0  0  0  0  0  0  # atno 17342 bound_to 10162
  139.5096  144.6870  151.5862 LP  0  0  0  0  0  0  0  0  0  0  0  0  # atno 17343 bound_to 10162
  156.9613  130.5456  149.5286 LP  0  0  0  0  0  0  0  0  0  0  0  0  # atno 17370 bound_to 10713
  156.0413  130.5495  150.8778 LP  0  0  0  0  0  0  0  0  0  0  0  0  # atno 17371 bound_to 10713
  141.0868  133.6731  156.2453 LP  0  0  0  0  0  0  0  0  0  0  0  0  # atno 17394 bound_to 11000
  140.6253  134.5319  157.5553 LP  0  0  0  0  0  0  0  0  0  0  0  0  # atno 17395 bound_to 11000

$$$$
