AV-unprocessed.smi:3308|AV-procd|sdf|12713|dock2
  -GOLD-   2272019 53D 1   1.00000     0.00000
 Structure written by MMmdl.
 40 41  0  0  0  0  0  0  0  0  1 V2000
  152.8315  138.9797  154.6679 C   0  0  0  0  0  0  0  0  0  0  0  0
  151.9268  139.0658  155.9166 C   0  0  1  0  0  0  0  0  0  0  0  0
  151.8124  140.4658  156.3145 N   0  0  0  0  0  0  0  0  0  0  0  0
  152.1530  140.6761  157.7273 C   0  0  0  0  0  0  0  0  0  0  0  0
  151.8860  142.1226  158.1550 C   0  0  0  0  0  0  0  0  0  0  0  0
  151.3573  142.8885  157.3492 O   0  0  0  0  0  0  0  0  0  0  0  0
  152.2398  142.5131  159.3981 N   0  0  0  0  0  0  0  0  0  0  0  0
  152.8800  141.6752  160.4123 C   0  0  0  0  0  0  0  0  0  0  0  0
  153.2900  142.6255  161.5375 C   0  0  0  0  0  0  0  0  0  0  0  0
  152.3270  143.7972  161.4055 C   0  0  0  0  0  0  0  0  0  0  0  0
  152.0255  143.8659  159.9085 C   0  0  0  0  0  0  0  0  0  0  0  0
  150.4987  138.5076  155.6737 C   0  0  2  0  0  0  0  0  0  0  0  0
  150.5049  137.1696  154.9106 C   0  0  0  0  0  0  0  0  0  0  0  0
  149.6556  139.4650  154.9680 N   0  0  0  0  0  0  0  0  0  0  0  0
  148.9660  139.2979  153.7832 C   0  0  0  0  0  0  0  0  0  0  0  0
  148.3144  140.4686  153.5206 C   0  0  0  0  0  0  0  0  0  0  0  0
  148.6641  141.3030  154.6186 C   0  0  0  0  0  0  0  0  0  0  0  0
  149.4635  140.6998  155.4831 N   0  0  0  0  0  0  0  0  0  0  0  0
  152.9980  137.9472  154.3614 H   0  0  0  0  0  0  0  0  0  0  0  0
  153.8161  139.4125  154.8415 H   0  0  0  0  0  0  0  0  0  0  0  0
  152.3858  139.5062  153.8231 H   0  0  0  0  0  0  0  0  0  0  0  0
  152.3819  138.4903  156.7250 H   0  0  0  0  0  0  0  0  0  0  0  0
  150.8715  140.7818  156.1265 H   0  0  0  0  0  0  0  0  0  0  0  0
  151.5501  140.0082  158.3446 H   0  0  0  0  0  0  0  0  0  0  0  0
  153.1933  140.4198  157.9244 H   0  0  0  0  0  0  0  0  0  0  0  0
  152.1584  140.9430  160.7775 H   0  0  0  0  0  0  0  0  0  0  0  0
  153.7447  141.1368  160.0226 H   0  0  0  0  0  0  0  0  0  0  0  0
  153.2539  142.1567  162.5212 H   0  0  0  0  0  0  0  0  0  0  0  0
  154.3109  142.9719  161.3699 H   0  0  0  0  0  0  0  0  0  0  0  0
  151.4097  143.5784  161.9538 H   0  0  0  0  0  0  0  0  0  0  0  0
  152.7366  144.7286  161.7976 H   0  0  0  0  0  0  0  0  0  0  0  0
  152.7175  144.5457  159.4093 H   0  0  0  0  0  0  0  0  0  0  0  0
  151.0099  144.2197  159.7244 H   0  0  0  0  0  0  0  0  0  0  0  0
  150.0373  138.3285  156.6475 H   0  0  0  0  0  0  0  0  0  0  0  0
  151.0357  136.3943  155.4631 H   0  0  0  0  0  0  0  0  0  0  0  0
  150.9839  137.2680  153.9360 H   0  0  0  0  0  0  0  0  0  0  0  0
  149.4885  136.8100  154.7462 H   0  0  0  0  0  0  0  0  0  0  0  0
  148.9996  138.3704  153.2302 H   0  0  0  0  0  0  0  0  0  0  0  0
  147.6833  140.6941  152.6738 H   0  0  0  0  0  0  0  0  0  0  0  0
  148.3626  142.3219  154.8122 H   0  0  0  0  0  0  0  0  0  0  0  0
  1  2  1  0  0  0  0
  1 19  1  0  0  0  0
  1 20  1  0  0  0  0
  1 21  1  0  0  0  0
  2  3  1  0  0  0  0
  2 12  1  0  0  0  0
  2 22  1  0  0  0  0
  3  4  1  0  0  0  0
  3 23  1  0  0  0  0
  4  5  1  0  0  0  0
  4 24  1  0  0  0  0
  4 25  1  0  0  0  0
  5  6  2  0  0  0  0
  5  7  1  0  0  0  0
  7 11  1  0  0  0  0
  7  8  1  0  0  0  0
  8  9  1  0  0  0  0
  8 26  1  0  0  0  0
  8 27  1  0  0  0  0
  9 10  1  0  0  0  0
  9 28  1  0  0  0  0
  9 29  1  0  0  0  0
 10 11  1  0  0  0  0
 10 30  1  0  0  0  0
 10 31  1  0  0  0  0
 11 32  1  0  0  0  0
 11 33  1  0  0  0  0
 12 13  1  0  0  0  0
 12 14  1  0  0  0  0
 12 34  1  0  0  0  0
 13 35  1  0  0  0  0
 13 36  1  0  0  0  0
 13 37  1  0  0  0  0
 14 18  1  0  0  0  0
 14 15  1  0  0  0  0
 15 16  2  0  0  0  0
 15 38  1  0  0  0  0
 16 17  1  0  0  0  0
 16 39  1  0  0  0  0
 17 18  2  0  0  0  0
 17 40  1  0  0  0  0
M  END
> <s_m_source_file>
AV-unprocessed.smi

> <i_m_source_file_index>
3308

> <i_lp_mmshare_version>
43012

> <i_f3d_flags>
0

> <s_epik_input>
bjFbY0hdW2NIXVtjSF1uMVtDQEBIXShbQ0gzXSlbQ0BIXShbQ0gzXSlbTkhdW0NIMl1DKD1PKU4yW0NIMl1bQ0gyXVtDSDJdW0NIMl0y

> <s_epik_cmdline>
J2VwaWtfcHl0aG9uJywgJy1waCcsICc3LjAnLCAnLXRuJywgJzgnLCAnLW1hJywgJzIwMCcsICctbWV0YWxfYmluZGluZycsICctaW1hZScsICc8aW5maWxlLm1hZT4nLCAnLW9tYWUnLCAnPG91dGZpbGUubWFlPic=

> <r_lp_tautomer_probability>
1

> <r_epik_Ionization_Penalty>
0.918676

> <r_epik_Ionization_Penalty_Charging>
0

> <r_epik_Ionization_Penalty_Neutral>
0.918676

> <r_epik_State_Penalty>
0.958258

> <r_epik_Charging_Adjusted_Penalty>
0.958258

> <i_epik_Tot_Q>
0

> <i_epik_Tot_abs_Q>
0

> <r_epik_Metal_State_Penalty>
0.956879

> <b_epik_Metal_Only>
0

> <s_lp_Force_Field>
OPLS_2005

> <r_lp_Energy>
35.768

> <b_lp_Chiralities_Consistent>
1

> <s_lp_Variant>
AV-unprocessed.smi:3308-6

> <Gold.Version>
5.8.1

> <Gold.Id.Protein>
6NUR|6NUR_protein|mol2

> <Gold.PLP.Fitness>
40.7190

> <Gold.PLP.PLP>
-36.6666

> <Gold.PLP.part.hbond>
0.0000

> <Gold.PLP.part.metal>
0.0000

> <Gold.PLP.part.buried>
1.6197

> <Gold.PLP.part.nonpolar>
-37.9721

> <Gold.PLP.part.repulsive>
0.1846

> <Gold.PLP.ligand.clash>
0.0000

> <Gold.PLP.ligand.torsion>
1.0382

> <Gold.PLP.Chemscore.Hbond>
0.0000

> <Gold.PLP.Chemscore.CHOScore>
2.0052

> <Gold.PLP.Chemscore.Metal>
0.0000

> <Gold.Chemscore.Hbonds>
donor molecule, donor type, donor heavy atom, donor atom, acceptor molecule, acceptor atom, score
      L1  C    15    38       P1  7948  1.00
      L1  C    15    38       P1  7957  0.04
      L1  C    17    40       P1  8028  0.88

> <Gold.PLP.Chemscore.Internal.Correction>
0.1132

> <Gold.Rescore>
     Score         DG    S(hbond)    S(metal)    S(lipo)     H(rot)  DE(clash)    DE(int)     intcor
      9.52     -12.32       0.00        0.00      96.09       1.72       0.13       2.66       ----

> <Gold.Chemscore.Fitness>
9.5221

> <Gold.Chemscore.DG>
-12.3192

> <Gold.Chemscore.ZeroCoef>
-5.4800

> <Gold.Chemscore.Hbond>
0.0000

> <Gold.Chemscore.Metal>
0.0000

> <Gold.Chemscore.Lipo>
96.0878

> <Gold.Chemscore.Internal_Hbond>
0.0000

> <Gold.Chemscore.DEClash>
0.1326

> <Gold.Chemscore.DEInternal>
2.6645

> <Gold.Chemscore.Rot>
1.7200

> <Gold.Chemscore.Internal.Correction>
   9.000000E+99

> <Gold.Chemscore.Hbond.Weighted>
-0.0000

> <Gold.Chemscore.Metal.Weighted>
-0.0000

> <Gold.Chemscore.Lipo.Weighted>
-11.2423

> <Gold.Chemscore.Internal_Hbond.Weighted>
0.0000

> <Gold.Chemscore.DEClash.Weighted>
0.1326

> <Gold.Chemscore.DEInternal.Weighted>
2.6645

> <Gold.Chemscore.Rot.Weighted>
4.4031

> <Gold.Chemscore.Internal.Correction.Weighted>
   9.000000E+99

> <Gold.Protein.RotatedTorsions>
[ 6907 6896 6895 6894 ] final  161.59 input  -60.11 | X-H torsion
[ 7974 7965 7964 7962 ] final   76.56 input  175.53 | X-H torsion
[ 8008 7997 7996 7995 ] final   59.13 input   59.86 | X-H torsion
[ 10167 10162 10161 10158 ] final   36.69 input  -65.29 | X-H torsion
[ 10718 10713 10712 10709 ] final  107.61 input   66.30 | X-H torsion
[ 10763 10752 10751 10750 ] final -168.76 input  -60.55 | X-H torsion
[ 11005 11000 10999 10996 ] final    3.73 input  -57.11 | X-H torsion

> <Gold.Protein.ActiveResidues>
 VAL166  LYS551  ARG553  GLY616  TRP617  ASP618  TYR619  PRO620  LYS621  CYS622 
 ASP623  PHE694  ASN695  SER759  ASP760  ASP761  ALA762  ILE779  LEU786  VAL792 
 PHE793  MET794  SER795  GLU796  ALA797  LYS798  CYS799  TRP800  GLU811  SER814 

> <Gold.Protein.RotatedAtoms>
  151.9533  133.3672  159.4007 H   0  0  0  0  0  0  0  0  0  0  0  0  # atno 6907 bound_to 6896
  150.6977  134.4317  159.5261 H   0  0  0  0  0  0  0  0  0  0  0  0  # atno 6908 bound_to 6896
  152.1994  134.8601  160.0560 H   0  0  0  0  0  0  0  0  0  0  0  0  # atno 6909 bound_to 6896
  145.7013  139.2583  143.1704 H   0  0  0  0  0  0  0  0  0  0  0  0  # atno 7974 bound_to 7965
  155.5613  140.3488  155.4492 H   0  0  0  0  0  0  0  0  0  0  0  0  # atno 8008 bound_to 7997
  156.0512  140.1318  157.0073 H   0  0  0  0  0  0  0  0  0  0  0  0  # atno 8009 bound_to 7997
  154.4435  140.1004  156.6364 H   0  0  0  0  0  0  0  0  0  0  0  0  # atno 8010 bound_to 7997
  140.4104  144.1601  150.6139 H   0  0  0  0  0  0  0  0  0  0  0  0  # atno 10167 bound_to 10162
  157.6621  131.0876  150.6182 H   0  0  0  0  0  0  0  0  0  0  0  0  # atno 10718 bound_to 10713
  154.6595  135.2923  154.9885 H   0  0  0  0  0  0  0  0  0  0  0  0  # atno 10763 bound_to 10752
  154.0950  135.6585  153.4862 H   0  0  0  0  0  0  0  0  0  0  0  0  # atno 10764 bound_to 10752
  153.0421  135.5229  154.7539 H   0  0  0  0  0  0  0  0  0  0  0  0  # atno 10765 bound_to 10752
  140.5898  133.9934  155.8084 H   0  0  0  0  0  0  0  0  0  0  0  0  # atno 11005 bound_to 11000
  146.0795  140.7779  142.9648 LP  0  0  0  0  0  0  0  0  0  0  0  0  # atno 17320 bound_to 7965
  144.6968  140.3467  143.7189 LP  0  0  0  0  0  0  0  0  0  0  0  0  # atno 17321 bound_to 7965
  140.4644  143.2436  151.9175 LP  0  0  0  0  0  0  0  0  0  0  0  0  # atno 17342 bound_to 10162
  139.4782  144.5434  151.8494 LP  0  0  0  0  0  0  0  0  0  0  0  0  # atno 17343 bound_to 10162
  156.6484  130.4478  149.5728 LP  0  0  0  0  0  0  0  0  0  0  0  0  # atno 17370 bound_to 10713
  156.2156  130.6706  151.1315 LP  0  0  0  0  0  0  0  0  0  0  0  0  # atno 17371 bound_to 10713
  141.0942  133.9869  157.3187 LP  0  0  0  0  0  0  0  0  0  0  0  0  # atno 17394 bound_to 11000
  139.9279  135.0201  156.8299 LP  0  0  0  0  0  0  0  0  0  0  0  0  # atno 17395 bound_to 11000

$$$$
