AV-unprocessed.smi:2934|AV-procd|sdf|11255|dock2
  -GOLD-   2272016143D 1   1.00000     0.00000
 Structure written by MMmdl.
 44 45  0  0  0  0  0  0  0  0  2 V2000
  141.4035  136.1846  153.7823 C   0  0  0  0  0  0  0  0  0  0  0  0
  142.6447  135.4181  153.9257 N   0  0  0  0  0  0  0  0  0  0  0  0
  143.1709  135.2685  155.1706 C   0  0  0  0  0  0  0  0  0  0  0  0
  142.8052  135.9425  156.1352 O   0  0  0  0  0  0  0  0  0  0  0  0
  144.1431  134.3411  155.2720 N   0  0  0  0  0  0  0  0  0  0  0  0
  144.8400  133.9599  156.4991 C   0  0  0  0  0  0  0  0  0  0  0  0
  145.4567  135.1685  157.2326 C   0  0  0  0  0  0  0  0  0  0  0  0
  146.6432  134.8050  158.1318 C   0  0  0  0  0  0  0  0  0  0  0  0
  147.6373  134.2591  157.6525 O   0  0  0  0  0  0  0  0  0  0  0  0
  146.5325  135.1270  159.4292 N   0  0  0  0  0  0  0  0  0  0  0  0
  147.5432  134.8611  160.4494 C   0  0  0  0  0  0  0  0  0  0  0  0
  146.9623  133.9941  161.5828 C   0  0  0  0  0  0  0  0  0  0  0  0
  147.3817  134.6704  162.8889 C   0  0  0  0  0  0  0  0  0  0  0  0
  147.4657  136.1512  162.5340 C   0  0  0  0  0  0  0  0  0  0  0  0
  148.0326  136.1638  161.1139 C   0  0  0  0  0  0  0  0  0  0  0  0
  143.2330  134.8949  152.7341 C   0  0  0  0  0  0  0  0  0  0  0  0
  143.9175  135.7236  151.8117 C   0  0  0  0  0  0  0  0  0  0  0  0
  144.4894  135.1554  150.6550 C   0  0  0  0  0  0  0  0  0  0  0  0
  144.3731  133.7679  150.4382 C   0  0  0  0  0  0  0  0  0  0  0  0
  143.6903  132.9827  151.3880 C   0  0  0  0  0  0  0  0  0  0  0  0
  143.1568  133.5654  152.4842 N   0  3  0  0  0  0  0  0  0  0  0  0
  141.0417  136.1896  152.7533 H   0  0  0  0  0  0  0  0  0  0  0  0
  141.5545  137.2215  154.0858 H   0  0  0  0  0  0  0  0  0  0  0  0
  140.6085  135.7594  154.3968 H   0  0  0  0  0  0  0  0  0  0  0  0
  144.4045  133.8411  154.4347 H   0  0  0  0  0  0  0  0  0  0  0  0
  144.1115  133.4804  157.1532 H   0  0  0  0  0  0  0  0  0  0  0  0
  145.6081  133.2080  156.3096 H   0  0  0  0  0  0  0  0  0  0  0  0
  145.7910  135.9094  156.5051 H   0  0  0  0  0  0  0  0  0  0  0  0
  144.6873  135.6597  157.8298 H   0  0  0  0  0  0  0  0  0  0  0  0
  145.6845  135.5814  159.7359 H   0  0  0  0  0  0  0  0  0  0  0  0
  148.3922  134.3427  159.9995 H   0  0  0  0  0  0  0  0  0  0  0  0
  145.8724  133.9722  161.5312 H   0  0  0  0  0  0  0  0  0  0  0  0
  147.3069  132.9608  161.5291 H   0  0  0  0  0  0  0  0  0  0  0  0
  146.6888  134.4719  163.7069 H   0  0  0  0  0  0  0  0  0  0  0  0
  148.3660  134.3099  163.1906 H   0  0  0  0  0  0  0  0  0  0  0  0
  146.4654  136.5865  162.5351 H   0  0  0  0  0  0  0  0  0  0  0  0
  148.0776  136.7181  163.2363 H   0  0  0  0  0  0  0  0  0  0  0  0
  149.1222  136.1532  161.1627 H   0  0  0  0  0  0  0  0  0  0  0  0
  147.7472  137.0651  160.5696 H   0  0  0  0  0  0  0  0  0  0  0  0
  144.0108  136.7853  151.9885 H   0  0  0  0  0  0  0  0  0  0  0  0
  145.0132  135.7772  149.9441 H   0  0  0  0  0  0  0  0  0  0  0  0
  144.8043  133.3122  149.5588 H   0  0  0  0  0  0  0  0  0  0  0  0
  143.5563  131.9138  151.3052 H   0  0  0  0  0  0  0  0  0  0  0  0
  142.6685  132.9722  153.1558 H   0  0  0  0  0  0  0  0  0  0  0  0
  1  2  1  0  0  0  0
  1 22  1  0  0  0  0
  1 23  1  0  0  0  0
  1 24  1  0  0  0  0
  2  3  1  0  0  0  0
  2 16  1  0  0  0  0
  3  4  2  0  0  0  0
  3  5  1  0  0  0  0
  5  6  1  0  0  0  0
  5 25  1  0  0  0  0
  6  7  1  0  0  0  0
  6 26  1  0  0  0  0
  6 27  1  0  0  0  0
  7  8  1  0  0  0  0
  7 28  1  0  0  0  0
  7 29  1  0  0  0  0
  8  9  2  0  0  0  0
  8 10  1  0  0  0  0
 10 11  1  0  0  0  0
 10 30  1  0  0  0  0
 11 15  1  0  0  0  0
 11 12  1  0  0  0  0
 11 31  1  0  0  0  0
 12 13  1  0  0  0  0
 12 32  1  0  0  0  0
 12 33  1  0  0  0  0
 13 14  1  0  0  0  0
 13 34  1  0  0  0  0
 13 35  1  0  0  0  0
 14 15  1  0  0  0  0
 14 36  1  0  0  0  0
 14 37  1  0  0  0  0
 15 38  1  0  0  0  0
 15 39  1  0  0  0  0
 16 21  1  0  0  0  0
 16 17  2  0  0  0  0
 17 18  1  0  0  0  0
 17 40  1  0  0  0  0
 18 19  2  0  0  0  0
 18 41  1  0  0  0  0
 19 20  1  0  0  0  0
 19 42  1  0  0  0  0
 20 21  2  0  0  0  0
 20 43  1  0  0  0  0
 21 44  1  0  0  0  0
M  CHG  1  21   1
M  END
> <s_m_source_file>
AV-unprocessed.smi

> <i_m_source_file_index>
2934

> <i_lp_mmshare_version>
43012

> <i_f3d_flags>
0

> <s_epik_input>
bjFbY0hdW2NIXVtjSF1bY0hdYzFOKFtDSDNdKUMoPU8pW05IXVtDSDJdW0NIMl1DKD1PKVtOSF1bQ0hdMltDSDJdW0NIMl1bQ0gyXVtDSDJdMg==

> <s_epik_cmdline>
J2VwaWtfcHl0aG9uJywgJy1waCcsICc3LjAnLCAnLXRuJywgJzgnLCAnLW1hJywgJzIwMCcsICctbWV0YWxfYmluZGluZycsICctaW1hZScsICc8aW5maWxlLm1hZT4nLCAnLW9tYWUnLCAnPG91dGZpbGUubWFlPic=

> <r_epik_Ionization_Penalty>
0.416827

> <r_epik_Ionization_Penalty_Charging>
0.416808

> <r_epik_Ionization_Penalty_Neutral>
1.8964e-05

> <r_epik_State_Penalty>
0.417222

> <r_epik_Charging_Adjusted_Penalty>
0.83403

> <i_epik_Tot_Q>
1

> <i_epik_Tot_abs_Q>
1

> <r_epik_Metal_State_Penalty>
0.655167

> <b_epik_Metal_Only>
0

> <s_lp_Force_Field>
OPLS_2005

> <r_lp_Energy>
36.0061

> <b_lp_Chiralities_Consistent>
1

> <s_lp_Variant>
AV-unprocessed.smi:2934-2

> <Gold.Version>
5.8.1

> <Gold.Id.Protein>
6NUR|6NUR_protein|mol2

> <Gold.PLP.Fitness>
42.2348

> <Gold.PLP.PLP>
-37.2062

> <Gold.PLP.part.hbond>
-2.7199

> <Gold.PLP.part.metal>
0.0000

> <Gold.PLP.part.buried>
-6.2851

> <Gold.PLP.part.nonpolar>
-28.3700

> <Gold.PLP.part.repulsive>
0.0293

> <Gold.PLP.ligand.clash>
0.0000

> <Gold.PLP.ligand.torsion>
1.6356

> <Gold.PLP.Chemscore.Hbond>
2.0000

> <Gold.PLP.Chemscore.CHOScore>
0.0000

> <Gold.PLP.Chemscore.Metal>
0.0000

> <Gold.Chemscore.Hbonds>
donor molecule, donor type, donor heavy atom, donor atom, acceptor molecule, acceptor atom, score
      L1  H    21    44       P1 10957  2.00

> <Gold.PLP.Chemscore.Internal.Correction>
2.2999

> <Gold.Rescore>
     Score         DG    S(hbond)    S(metal)    S(lipo)     H(rot)  DE(clash)    DE(int)     intcor
      9.56     -12.47       0.93        0.00      71.66       1.76       0.00       2.91       ----

> <Gold.Chemscore.Fitness>
9.5564

> <Gold.Chemscore.DG>
-12.4660

> <Gold.Chemscore.ZeroCoef>
-5.4800

> <Gold.Chemscore.Hbond>
0.9325

> <Gold.Chemscore.Metal>
0.0000

> <Gold.Chemscore.Lipo>
71.6648

> <Gold.Chemscore.Internal_Hbond>
0.0000

> <Gold.Chemscore.DEClash>
0.0015

> <Gold.Chemscore.DEInternal>
2.9081

> <Gold.Chemscore.Rot>
1.7631

> <Gold.Chemscore.Internal.Correction>
   9.000000E+99

> <Gold.Chemscore.Hbonds>
donor molecule, donor type, donor heavy atom, donor atom, acceptor molecule, acceptor atom, score
      L1  H    21    44       P1 10957  0.55

> <Gold.Chemscore.Hbond.Weighted>
-3.1147

> <Gold.Chemscore.Metal.Weighted>
-0.0000

> <Gold.Chemscore.Lipo.Weighted>
-8.3848

> <Gold.Chemscore.Internal_Hbond.Weighted>
0.0000

> <Gold.Chemscore.DEClash.Weighted>
0.0015

> <Gold.Chemscore.DEInternal.Weighted>
2.9081

> <Gold.Chemscore.Rot.Weighted>
4.5135

> <Gold.Chemscore.Internal.Correction.Weighted>
   9.000000E+99

> <Gold.Protein.RotatedTorsions>
[ 6907 6896 6895 6894 ] final -153.20 input  -60.11 | X-H torsion
[ 7974 7965 7964 7962 ] final  106.21 input  175.53 | X-H torsion
[ 8008 7997 7996 7995 ] final   19.22 input   59.86 | X-H torsion
[ 10167 10162 10161 10158 ] final   36.04 input  -65.29 | X-H torsion
[ 10718 10713 10712 10709 ] final -179.68 input   66.30 | X-H torsion
[ 10763 10752 10751 10750 ] final  -78.87 input  -60.55 | X-H torsion
[ 11005 11000 10999 10996 ] final  -14.09 input  -57.11 | X-H torsion

> <Gold.Protein.ActiveResidues>
 VAL166  LYS551  ARG553  GLY616  TRP617  ASP618  TYR619  PRO620  LYS621  CYS622 
 ASP623  PHE694  ASN695  SER759  ASP760  ASP761  ALA762  ILE779  LEU786  VAL792 
 PHE793  MET794  SER795  GLU796  ALA797  LYS798  CYS799  TRP800  GLU811  SER814 

> <Gold.Protein.RotatedAtoms>
  151.2391  133.4409  159.2606 H   0  0  0  0  0  0  0  0  0  0  0  0  # atno 6907 bound_to 6896
  151.0722  134.9806  159.8325 H   0  0  0  0  0  0  0  0  0  0  0  0  # atno 6908 bound_to 6896
  152.5413  134.2335  159.8887 H   0  0  0  0  0  0  0  0  0  0  0  0  # atno 6909 bound_to 6896
  145.3095  139.2544  143.3770 H   0  0  0  0  0  0  0  0  0  0  0  0  # atno 7974 bound_to 7965
  154.9175  140.3022  155.5233 H   0  0  0  0  0  0  0  0  0  0  0  0  # atno 8008 bound_to 7997
  156.3011  140.2377  156.4157 H   0  0  0  0  0  0  0  0  0  0  0  0  # atno 8009 bound_to 7997
  154.8364  140.0416  157.1500 H   0  0  0  0  0  0  0  0  0  0  0  0  # atno 8010 bound_to 7997
  140.4165  144.1519  150.6144 H   0  0  0  0  0  0  0  0  0  0  0  0  # atno 10167 bound_to 10162
  156.8627  130.9757  151.3082 H   0  0  0  0  0  0  0  0  0  0  0  0  # atno 10718 bound_to 10713
  154.5314  135.5715  153.6762 H   0  0  0  0  0  0  0  0  0  0  0  0  # atno 10763 bound_to 10752
  152.9940  135.6205  154.2624 H   0  0  0  0  0  0  0  0  0  0  0  0  # atno 10764 bound_to 10752
  154.2550  135.2858  155.2781 H   0  0  0  0  0  0  0  0  0  0  0  0  # atno 10765 bound_to 10752
  140.7828  133.8349  155.9308 H   0  0  0  0  0  0  0  0  0  0  0  0  # atno 11005 bound_to 11000
  146.3123  140.3628  142.8666 LP  0  0  0  0  0  0  0  0  0  0  0  0  # atno 17320 bound_to 7965
  144.9027  140.7662  143.5857 LP  0  0  0  0  0  0  0  0  0  0  0  0  # atno 17321 bound_to 7965
  140.4581  143.2460  151.9258 LP  0  0  0  0  0  0  0  0  0  0  0  0  # atno 17342 bound_to 10162
  139.4782  144.5495  151.8407 LP  0  0  0  0  0  0  0  0  0  0  0  0  # atno 17343 bound_to 10162
  157.6241  130.8678  149.9159 LP  0  0  0  0  0  0  0  0  0  0  0  0  # atno 17370 bound_to 10713
  156.0768  130.3678  150.0661 LP  0  0  0  0  0  0  0  0  0  0  0  0  # atno 17371 bound_to 10713
  140.9465  134.1833  157.4759 LP  0  0  0  0  0  0  0  0  0  0  0  0  # atno 17394 bound_to 11000
  139.8740  134.9892  156.5449 LP  0  0  0  0  0  0  0  0  0  0  0  0  # atno 17395 bound_to 11000

$$$$
