AV-unprocessed.smi:21|AV-procd|sdf|159|dock10
  -GOLD-   2262015393D 1   1.00000     0.00000
 Structure written by MMmdl.
 61 64  0  0  0  0  0  0  0  0  1 V2000
  146.0408  132.9414  153.0910 C   0  0  0  0  0  0  0  0  0  0  0  0
  146.7117  131.7633  153.5080 O   0  0  0  0  0  0  0  0  0  0  0  0
  148.1247  131.8419  153.3822 C   0  0  1  0  0  0  0  0  0  0  0  0
  148.6778  132.9681  154.2690 C   0  0  0  0  0  0  0  0  0  0  0  0
  149.6018  132.2583  155.2722 C   0  0  2  0  0  0  0  0  0  0  0  0
  150.7576  133.1453  155.7853 C   0  0  0  0  0  0  0  0  0  0  0  0
  150.3022  134.1890  156.7042 N   0  0  0  0  0  0  0  0  0  0  0  0
  149.2740  133.8565  157.6816 C   0  0  0  0  0  0  0  0  0  0  0  0
  150.5027  135.4901  156.3655 C   0  0  0  0  0  0  0  0  0  0  0  0
  150.3930  135.8299  155.0543 N   0  0  0  0  0  0  0  0  0  0  0  0
  150.5765  137.0931  154.6612 C   0  0  0  0  0  0  0  0  0  0  0  0
  150.8711  138.1618  155.4019 N   0  0  0  0  0  0  0  0  0  0  0  0
  150.9774  137.8338  156.7206 C   0  0  0  0  0  0  0  0  0  0  0  0
  150.8099  136.5366  157.2863 C   0  0  0  0  0  0  0  0  0  0  0  0
  150.9715  136.6083  158.6663 N   0  0  0  0  0  0  0  0  0  0  0  0
  151.2264  137.8660  158.8999 C   0  0  0  0  0  0  0  0  0  0  0  0
  151.2702  138.6695  157.7841 N   0  0  0  0  0  0  0  0  0  0  0  0
  151.5250  140.0986  157.7526 C   0  0  0  0  0  0  0  0  0  0  0  0
  151.8123  140.7418  159.1382 C   0  0  1  0  0  0  0  0  0  0  0  0
  153.1217  140.1453  159.7098 C   0  0  0  0  0  0  0  0  0  0  0  0
  154.1985  140.3103  158.8101 O   0  0  0  0  0  0  0  0  0  0  0  0
  151.8644  142.2988  159.0894 C   0  0  2  0  0  0  0  0  0  0  0  0
  152.0686  142.9837  160.4334 C   0  0  0  0  0  0  0  0  0  0  0  0
  151.6018  144.4030  160.1495 C   0  0  0  0  0  0  0  0  0  0  0  0
  150.4668  144.2292  159.3184 O   0  0  0  0  0  0  0  0  0  0  0  0
  150.5764  142.9963  158.6132 C   0  0  0  0  0  0  0  0  0  0  0  0
  150.0258  131.0488  154.5853 N   0  0  0  0  0  0  0  0  0  0  0  0
  150.5893  130.0363  155.4684 C   0  0  0  0  0  0  0  0  0  0  0  0
  148.8217  130.5864  153.9233 C   0  0  0  0  0  0  0  0  0  0  0  0
  148.4128  132.0299  152.3461 H   0  0  0  0  0  0  0  0  0  0  0  0
  148.9886  131.9625  156.1255 H   0  0  0  0  0  0  0  0  0  0  0  0
  144.9671  132.8179  153.2317 H   0  0  0  0  0  0  0  0  0  0  0  0
  146.2172  133.1521  152.0358 H   0  0  0  0  0  0  0  0  0  0  0  0
  146.3584  133.8040  153.6780 H   0  0  0  0  0  0  0  0  0  0  0  0
  149.2402  133.6717  153.6537 H   0  0  0  0  0  0  0  0  0  0  0  0
  147.8911  133.5297  154.7747 H   0  0  0  0  0  0  0  0  0  0  0  0
  151.4780  132.5345  156.3289 H   0  0  0  0  0  0  0  0  0  0  0  0
  151.3100  133.5631  154.9434 H   0  0  0  0  0  0  0  0  0  0  0  0
  149.2823  134.5613  158.5136 H   0  0  0  0  0  0  0  0  0  0  0  0
  149.4457  132.8604  158.0895 H   0  0  0  0  0  0  0  0  0  0  0  0
  148.2853  133.8664  157.2226 H   0  0  0  0  0  0  0  0  0  0  0  0
  150.4731  137.2725  153.6012 H   0  0  0  0  0  0  0  0  0  0  0  0
  151.4020  138.2409  159.8977 H   0  0  0  0  0  0  0  0  0  0  0  0
  152.3675  140.2514  157.0778 H   0  0  0  0  0  0  0  0  0  0  0  0
  150.6709  140.5912  157.2862 H   0  0  0  0  0  0  0  0  0  0  0  0
  151.0117  140.4612  159.8238 H   0  0  0  0  0  0  0  0  0  0  0  0
  153.3747  140.6065  160.6649 H   0  0  0  0  0  0  0  0  0  0  0  0
  153.0315  139.0744  159.8848 H   0  0  0  0  0  0  0  0  0  0  0  0
  154.9678  140.5516  159.3029 H   0  0  0  0  0  0  0  0  0  0  0  0
  152.6842  142.6053  158.4376 H   0  0  0  0  0  0  0  0  0  0  0  0
  151.4356  142.5298  161.1974 H   0  0  0  0  0  0  0  0  0  0  0  0
  153.1025  142.9550  160.7785 H   0  0  0  0  0  0  0  0  0  0  0  0
  151.3569  144.9581  161.0550 H   0  0  0  0  0  0  0  0  0  0  0  0
  152.3657  144.9562  159.6012 H   0  0  0  0  0  0  0  0  0  0  0  0
  150.5901  143.1883  157.5411 H   0  0  0  0  0  0  0  0  0  0  0  0
  149.6907  142.4016  158.8386 H   0  0  0  0  0  0  0  0  0  0  0  0
  150.8305  129.1323  154.9085 H   0  0  0  0  0  0  0  0  0  0  0  0
  149.8900  129.7671  156.2608 H   0  0  0  0  0  0  0  0  0  0  0  0
  151.5102  130.3890  155.9323 H   0  0  0  0  0  0  0  0  0  0  0  0
  148.1692  130.0949  154.6474 H   0  0  0  0  0  0  0  0  0  0  0  0
  149.0465  129.8646  153.1376 H   0  0  0  0  0  0  0  0  0  0  0  0
  1  2  1  0  0  0  0
  1 32  1  0  0  0  0
  1 33  1  0  0  0  0
  1 34  1  0  0  0  0
  2  3  1  0  0  0  0
  3 30  1  0  0  0  0
  3 29  1  0  0  0  0
  3  4  1  0  0  0  0
  4  5  1  0  0  0  0
  4 35  1  0  0  0  0
  4 36  1  0  0  0  0
  5 31  1  0  0  0  0
  5  6  1  0  0  0  0
  5 27  1  0  0  0  0
  6  7  1  0  0  0  0
  6 37  1  0  0  0  0
  6 38  1  0  0  0  0
  7  8  1  0  0  0  0
  7  9  1  0  0  0  0
  8 39  1  0  0  0  0
  8 40  1  0  0  0  0
  8 41  1  0  0  0  0
  9 14  1  0  0  0  0
  9 10  2  0  0  0  0
 10 11  1  0  0  0  0
 11 12  2  0  0  0  0
 11 42  1  0  0  0  0
 12 13  1  0  0  0  0
 13 17  1  0  0  0  0
 13 14  2  0  0  0  0
 14 15  1  0  0  0  0
 15 16  2  0  0  0  0
 16 17  1  0  0  0  0
 16 43  1  0  0  0  0
 17 18  1  0  0  0  0
 18 19  1  0  0  0  0
 18 44  1  0  0  0  0
 18 45  1  0  0  0  0
 19 20  1  0  0  0  0
 19 22  1  0  0  0  0
 19 46  1  0  0  0  0
 20 21  1  0  0  0  0
 20 47  1  0  0  0  0
 20 48  1  0  0  0  0
 21 49  1  0  0  0  0
 22 26  1  0  0  0  0
 22 23  1  0  0  0  0
 22 50  1  0  0  0  0
 23 24  1  0  0  0  0
 23 51  1  0  0  0  0
 23 52  1  0  0  0  0
 24 25  1  0  0  0  0
 24 53  1  0  0  0  0
 24 54  1  0  0  0  0
 25 26  1  0  0  0  0
 26 55  1  0  0  0  0
 26 56  1  0  0  0  0
 27 28  1  0  0  0  0
 27 29  1  0  0  0  0
 28 57  1  0  0  0  0
 28 58  1  0  0  0  0
 28 59  1  0  0  0  0
 29 60  1  0  0  0  0
 29 61  1  0  0  0  0
M  END
> <s_m_source_file>
AV-unprocessed.smi

> <i_m_source_file_index>
21

> <i_lp_mmshare_version>
43012

> <i_f3d_flags>
0

> <s_epik_input>
W0NIM11PW0NASF0xW0NIMl1bQ0BIXShOKFtDSDNdKVtDSDJdMSlbQ0gyXU4oW0NIM10pYyhuW2NIXW4yKWMoYzIzKW5bY0hdbjNbQ0gyXVtDQEhdKFtDSDJdW09IXSlbQ0BASF00W0NIMl1bQ0gyXU9bQ0gyXTQ=

> <s_epik_cmdline>
J2VwaWtfcHl0aG9uJywgJy1waCcsICc3LjAnLCAnLXRuJywgJzgnLCAnLW1hJywgJzIwMCcsICctbWV0YWxfYmluZGluZycsICctaW1hZScsICc8aW5maWxlLm1hZT4nLCAnLW9tYWUnLCAnPG91dGZpbGUubWFlPic=

> <r_lp_tautomer_probability>
1

> <r_epik_Ionization_Penalty>
2.17574

> <r_epik_Ionization_Penalty_Charging>
0

> <r_epik_Ionization_Penalty_Neutral>
2.17574

> <r_epik_State_Penalty>
2.31336

> <r_epik_Charging_Adjusted_Penalty>
2.31336

> <i_epik_Tot_Q>
0

> <i_epik_Tot_abs_Q>
0

> <r_epik_Metal_State_Penalty>
2.31025

> <b_epik_Metal_Only>
0

> <s_lp_Force_Field>
OPLS_2005

> <r_lp_Energy>
70.5477

> <b_lp_Chiralities_Consistent>
1

> <s_lp_Variant>
AV-unprocessed.smi:21-39

> <Gold.Version>
5.8.1

> <Gold.Id.Protein>
6NUR|6NUR_protein|mol2

> <Gold.PLP.Fitness>
51.7264

> <Gold.PLP.PLP>
-44.6970

> <Gold.PLP.part.hbond>
-2.0470

> <Gold.PLP.part.metal>
0.0000

> <Gold.PLP.part.buried>
-6.5567

> <Gold.PLP.part.nonpolar>
-36.8962

> <Gold.PLP.part.repulsive>
0.4386

> <Gold.PLP.ligand.clash>
0.0000

> <Gold.PLP.ligand.torsion>
1.0607

> <Gold.PLP.Chemscore.Hbond>
1.8320

> <Gold.PLP.Chemscore.CHOScore>
1.0071

> <Gold.PLP.Chemscore.Metal>
0.0000

> <Gold.Chemscore.Hbonds>
donor molecule, donor type, donor heavy atom, donor atom, acceptor molecule, acceptor atom, score
      P1  H  6896  6907       L1    15  0.82
      P1  H  7997  8009       L1    21  0.29
      L1  C    11    42       P1  7948  0.69
      L1  C    11    42       P1  7949  0.46

> <Gold.PLP.Chemscore.Internal.Correction>
0.6334

> <Gold.Rescore>
     Score         DG    S(hbond)    S(metal)    S(lipo)     H(rot)  DE(clash)    DE(int)     intcor
     14.04     -15.41       1.70        0.00     102.14       3.00       0.00       1.37       ----

> <Gold.Chemscore.Fitness>
14.0436

> <Gold.Chemscore.DG>
-15.4143

> <Gold.Chemscore.ZeroCoef>
-5.4800

> <Gold.Chemscore.Hbond>
1.6983

> <Gold.Chemscore.Metal>
0.0000

> <Gold.Chemscore.Lipo>
102.1365

> <Gold.Chemscore.Internal_Hbond>
0.0000

> <Gold.Chemscore.DEClash>
0.0000

> <Gold.Chemscore.DEInternal>
1.3707

> <Gold.Chemscore.Rot>
3.0031

> <Gold.Chemscore.Internal.Correction>
   9.000000E+99

> <Gold.Chemscore.Hbonds>
donor molecule, donor type, donor heavy atom, donor atom, acceptor molecule, acceptor atom, score
      P1  H  6896  6907       L1    15  0.78
      P1  H  7997  8009       L1    21  0.01

> <Gold.Chemscore.Hbond.Weighted>
-5.6724

> <Gold.Chemscore.Metal.Weighted>
-0.0000

> <Gold.Chemscore.Lipo.Weighted>
-11.9500

> <Gold.Chemscore.Internal_Hbond.Weighted>
0.0000

> <Gold.Chemscore.DEClash.Weighted>
0.0000

> <Gold.Chemscore.DEInternal.Weighted>
1.3707

> <Gold.Chemscore.Rot.Weighted>
7.6880

> <Gold.Chemscore.Internal.Correction.Weighted>
   9.000000E+99

> <Gold.Protein.RotatedTorsions>
[ 6907 6896 6895 6894 ] final  -40.24 input  -60.11 | X-H torsion
[ 7974 7965 7964 7962 ] final  -77.14 input  175.53 | X-H torsion
[ 8008 7997 7996 7995 ] final  110.84 input   59.86 | X-H torsion
[ 10167 10162 10161 10158 ] final -120.27 input  -65.29 | X-H torsion
[ 10718 10713 10712 10709 ] final  174.56 input   66.30 | X-H torsion
[ 10763 10752 10751 10750 ] final -142.39 input  -60.55 | X-H torsion
[ 11005 11000 10999 10996 ] final  -27.41 input  -57.11 | X-H torsion

> <Gold.Protein.ActiveResidues>
 VAL166  LYS551  ARG553  GLY616  TRP617  ASP618  TYR619  PRO620  LYS621  CYS622 
 ASP623  PHE694  ASN695  SER759  ASP760  ASP761  ALA762  ILE779  LEU786  VAL792 
 PHE793  MET794  SER795  GLU796  ALA797  LYS798  CYS799  TRP800  GLU811  SER814 

> <Gold.Protein.RotatedAtoms>
  150.9807  134.9163  159.7842 H   0  0  0  0  0  0  0  0  0  0  0  0  # atno 6907 bound_to 6896
  152.5221  134.3414  159.9228 H   0  0  0  0  0  0  0  0  0  0  0  0  # atno 6908 bound_to 6896
  151.3421  133.3917  159.2706 H   0  0  0  0  0  0  0  0  0  0  0  0  # atno 6909 bound_to 6896
  145.6037  140.9403  143.1227 H   0  0  0  0  0  0  0  0  0  0  0  0  # atno 7974 bound_to 7965
  156.2082  140.3031  155.9673 H   0  0  0  0  0  0  0  0  0  0  0  0  # atno 8008 bound_to 7997
  155.2790  140.0437  157.3031 H   0  0  0  0  0  0  0  0  0  0  0  0  # atno 8009 bound_to 7997
  154.5662  140.2335  155.8269 H   0  0  0  0  0  0  0  0  0  0  0  0  # atno 8010 bound_to 7997
  140.0377  143.5185  152.2145 H   0  0  0  0  0  0  0  0  0  0  0  0  # atno 10167 bound_to 10162
  156.9478  131.0021  151.2955 H   0  0  0  0  0  0  0  0  0  0  0  0  # atno 10718 bound_to 10713
  154.8510  135.3497  154.6021 H   0  0  0  0  0  0  0  0  0  0  0  0  # atno 10763 bound_to 10752
  153.6630  135.6989  153.5176 H   0  0  0  0  0  0  0  0  0  0  0  0  # atno 10764 bound_to 10752
  153.2803  135.4265  155.1029 H   0  0  0  0  0  0  0  0  0  0  0  0  # atno 10765 bound_to 10752
  140.9117  133.7456  156.0680 H   0  0  0  0  0  0  0  0  0  0  0  0  # atno 11005 bound_to 11000
  144.7299  139.7758  143.7351 LP  0  0  0  0  0  0  0  0  0  0  0  0  # atno 17320 bound_to 7965
  146.1557  139.4654  143.0020 LP  0  0  0  0  0  0  0  0  0  0  0  0  # atno 17321 bound_to 7965
  139.6034  144.7589  151.3118 LP  0  0  0  0  0  0  0  0  0  0  0  0  # atno 17342 bound_to 10162
  140.7274  143.6964  150.7880 LP  0  0  0  0  0  0  0  0  0  0  0  0  # atno 17343 bound_to 10162
  157.5742  130.8331  149.8433 LP  0  0  0  0  0  0  0  0  0  0  0  0  # atno 17370 bound_to 10713
  156.0376  130.3747  150.1520 LP  0  0  0  0  0  0  0  0  0  0  0  0  # atno 17371 bound_to 10713
  140.8101  134.3409  157.5414 LP  0  0  0  0  0  0  0  0  0  0  0  0  # atno 17394 bound_to 11000
  139.8758  134.9249  156.3362 LP  0  0  0  0  0  0  0  0  0  0  0  0  # atno 17395 bound_to 11000

$$$$
