AV-unprocessed.smi:72|AV-procd|sdf|692|dock10
  -GOLD-   2262017 03D 1   1.00000     0.00000
 Structure written by MMmdl.
 29 30  0  0  0  0  0  0  0  0  1 V2000
  146.6212  142.3078  153.6950 N   0  0  0  0  0  0  0  0  0  0  0  0
  147.5448  141.4559  153.9624 C   0  0  0  0  0  0  0  0  0  0  0  0
  147.5378  140.1054  153.5844 N   0  0  0  0  0  0  0  0  0  0  0  0
  148.5497  139.3623  153.9116 C   0  0  0  0  0  0  0  0  0  0  0  0
  149.6985  139.8875  154.6402 N   0  0  0  0  0  0  0  0  0  0  0  0
  150.8854  139.0258  155.0403 C   0  0  1  0  0  0  0  0  0  0  0  0
  151.0497  139.0543  156.4298 O   0  0  0  0  0  0  0  0  0  0  0  0
  150.4591  137.8948  157.0099 C   0  0  2  0  0  0  0  0  0  0  0  0
  150.9693  137.6643  158.4427 C   0  0  0  0  0  0  0  0  0  0  0  0
  150.3953  136.4886  158.9722 O   0  0  0  0  0  0  0  0  0  0  0  0
  150.8238  136.8130  155.9892 C   0  0  2  0  0  0  0  0  0  0  0  0
  152.1550  136.3681  156.1943 O   0  0  0  0  0  0  0  0  0  0  0  0
  150.6473  137.5472  154.6600 C   0  0  2  0  0  0  0  0  0  0  0  0
  151.5290  137.0738  153.6591 O   0  0  0  0  0  0  0  0  0  0  0  0
  149.6980  141.2410  155.0613 C   0  0  0  0  0  0  0  0  0  0  0  0
  150.6199  141.7273  155.7161 O   0  0  0  0  0  0  0  0  0  0  0  0
  148.6217  141.9690  154.6949 N   0  0  0  0  0  0  0  0  0  0  0  0
  151.7506  139.4854  154.5592 H   0  0  0  0  0  0  0  0  0  0  0  0
  149.3727  138.0020  157.0152 H   0  0  0  0  0  0  0  0  0  0  0  0
  150.1624  135.9489  156.0609 H   0  0  0  0  0  0  0  0  0  0  0  0
  149.6186  137.4221  154.3182 H   0  0  0  0  0  0  0  0  0  0  0  0
  145.8832  141.8640  153.1672 H   0  0  0  0  0  0  0  0  0  0  0  0
  148.5933  138.3032  153.6581 H   0  0  0  0  0  0  0  0  0  0  0  0
  152.0511  137.5272  158.4381 H   0  0  0  0  0  0  0  0  0  0  0  0
  150.7502  138.5151  159.0886 H   0  0  0  0  0  0  0  0  0  0  0  0
  149.4996  136.6750  159.2095 H   0  0  0  0  0  0  0  0  0  0  0  0
  152.2520  136.1366  157.1056 H   0  0  0  0  0  0  0  0  0  0  0  0
  151.0187  136.8446  152.8967 H   0  0  0  0  0  0  0  0  0  0  0  0
  148.5953  142.9394  154.9725 H   0  0  0  0  0  0  0  0  0  0  0  0
  1  2  2  0  0  0  0
  1 22  1  0  0  0  0
  2 17  1  0  0  0  0
  2  3  1  0  0  0  0
  3  4  2  0  0  0  0
  4  5  1  0  0  0  0
  4 23  1  0  0  0  0
  5  6  1  0  0  0  0
  5 15  1  0  0  0  0
  6 18  1  0  0  0  0
  6 13  1  0  0  0  0
  6  7  1  0  0  0  0
  7  8  1  0  0  0  0
  8 19  1  0  0  0  0
  8  9  1  0  0  0  0
  8 11  1  0  0  0  0
  9 10  1  0  0  0  0
  9 24  1  0  0  0  0
  9 25  1  0  0  0  0
 10 26  1  0  0  0  0
 11 20  1  0  0  0  0
 11 12  1  0  0  0  0
 11 13  1  0  0  0  0
 12 27  1  0  0  0  0
 13 21  1  0  0  0  0
 13 14  1  0  0  0  0
 14 28  1  0  0  0  0
 15 16  2  0  0  0  0
 15 17  1  0  0  0  0
 17 29  1  0  0  0  0
M  END
> <s_m_source_file>
AV-unprocessed.smi

> <i_m_source_file_index>
72

> <i_lp_mmshare_version>
43012

> <i_f3d_flags>
0

> <s_epik_input>
W05IMl1jMW5bY0hdbihjKD1PKW4xKVtDQEBIXTJPW0NASF0oW0NIMl1bT0hdKVtDQEBIXShbT0hdKVtDQEhdMltPSF0=

> <s_epik_cmdline>
J2VwaWtfcHl0aG9uJywgJy1waCcsICc3LjAnLCAnLXRuJywgJzgnLCAnLW1hJywgJzIwMCcsICctbWV0YWxfYmluZGluZycsICctaW1hZScsICc8aW5maWxlLm1hZT4nLCAnLW9tYWUnLCAnPG91dGZpbGUubWFlPic=

> <r_lp_tautomer_probability>
7.17554e-07

> <r_epik_Ionization_Penalty>
0.0066451

> <r_epik_Ionization_Penalty_Charging>
0.00663793

> <r_epik_Ionization_Penalty_Neutral>
7.17052e-06

> <r_epik_State_Penalty>
0.419231

> <r_epik_Charging_Adjusted_Penalty>
0.425868

> <i_epik_Tot_Q>
0

> <i_epik_Tot_abs_Q>
0

> <r_epik_Metal_State_Penalty>
1.44144

> <b_epik_Metal_Only>
0

> <s_epik_Chemistry_Notes>
This compound contains an acetal/aminal-like group ( X-CH(R)-Y where X, Y are N, S, or O) that may be acid/base labile, releasing an aldehyde.

> <s_lp_Force_Field>
OPLS_2005

> <r_lp_Energy>
42.1685

> <b_lp_Chiralities_Consistent>
1

> <s_lp_Variant>
AV-unprocessed.smi:72-30

> <Gold.Version>
5.8.1

> <Gold.Id.Protein>
6NUR|6NUR_protein|mol2

> <Gold.PLP.Fitness>
40.5517

> <Gold.PLP.PLP>
-24.8519

> <Gold.PLP.part.hbond>
-5.0000

> <Gold.PLP.part.metal>
0.0000

> <Gold.PLP.part.buried>
-2.9341

> <Gold.PLP.part.nonpolar>
-17.3344

> <Gold.PLP.part.repulsive>
0.9408

> <Gold.PLP.ligand.clash>
0.0000

> <Gold.PLP.ligand.torsion>
0.0465

> <Gold.PLP.Chemscore.Hbond>
4.6160

> <Gold.PLP.Chemscore.CHOScore>
0.6408

> <Gold.PLP.Chemscore.Metal>
0.0000

> <Gold.Chemscore.Hbonds>
donor molecule, donor type, donor heavy atom, donor atom, acceptor molecule, acceptor atom, score
      L1  H    14    28       P1  7949  0.80
      L1  H    17    29       P1  8028  1.00
      P1  H  6896  6907       L1    10  1.00
      P1  H 10752 10763       L1    12  0.66
      P1  H 10752 10765       L1    14  0.62
      L1  C     4    23       P1  7948  0.46

> <Gold.PLP.Chemscore.Internal.Correction>
0.0223

> <Gold.Rescore>
     Score         DG    S(hbond)    S(metal)    S(lipo)     H(rot)  DE(clash)    DE(int)     intcor
      8.87     -10.27       3.91        0.00      18.20       4.06       0.01       1.39       ----

> <Gold.Chemscore.Fitness>
8.8723

> <Gold.Chemscore.DG>
-10.2685

> <Gold.Chemscore.ZeroCoef>
-5.4800

> <Gold.Chemscore.Hbond>
3.9079

> <Gold.Chemscore.Metal>
0.0000

> <Gold.Chemscore.Lipo>
18.2009

> <Gold.Chemscore.Internal_Hbond>
0.0000

> <Gold.Chemscore.DEClash>
0.0082

> <Gold.Chemscore.DEInternal>
1.3879

> <Gold.Chemscore.Rot>
4.0600

> <Gold.Chemscore.Internal.Correction>
   9.000000E+99

> <Gold.Chemscore.Hbonds>
donor molecule, donor type, donor heavy atom, donor atom, acceptor molecule, acceptor atom, score
      L1  H    14    28       P1  7949  0.20
      L1  H    17    29       P1  8028  1.00
      P1  H  6896  6907       L1    10  0.69
      P1  H 10752 10763       L1    12  0.26
      P1  H 10752 10765       L1    14  0.40

> <Gold.Chemscore.Hbond.Weighted>
-13.0526

> <Gold.Chemscore.Metal.Weighted>
-0.0000

> <Gold.Chemscore.Lipo.Weighted>
-2.1295

> <Gold.Chemscore.Internal_Hbond.Weighted>
0.0000

> <Gold.Chemscore.DEClash.Weighted>
0.0082

> <Gold.Chemscore.DEInternal.Weighted>
1.3879

> <Gold.Chemscore.Rot.Weighted>
10.3936

> <Gold.Chemscore.Internal.Correction.Weighted>
   9.000000E+99

> <Gold.Protein.RotatedTorsions>
[ 6907 6896 6895 6894 ] final  -48.05 input  -60.11 | X-H torsion
[ 7974 7965 7964 7962 ] final  -20.99 input  175.53 | X-H torsion
[ 8008 7997 7996 7995 ] final  153.03 input   59.86 | X-H torsion
[ 10167 10162 10161 10158 ] final -157.49 input  -65.29 | X-H torsion
[ 10718 10713 10712 10709 ] final  -98.92 input   66.30 | X-H torsion
[ 10763 10752 10751 10750 ] final  124.20 input  -60.55 | X-H torsion
[ 11005 11000 10999 10996 ] final -128.17 input  -57.11 | X-H torsion

> <Gold.Protein.ActiveResidues>
 VAL166  LYS551  ARG553  GLY616  TRP617  ASP618  TYR619  PRO620  LYS621  CYS622 
 ASP623  PHE694  ASN695  SER759  ASP760  ASP761  ALA762  ILE779  LEU786  VAL792 
 PHE793  MET794  SER795  GLU796  ALA797  LYS798  CYS799  TRP800  GLU811  SER814 

> <Gold.Protein.RotatedAtoms>
  150.8945  134.8351  159.7316 H   0  0  0  0  0  0  0  0  0  0  0  0  # atno 6907 bound_to 6896
  152.4856  134.4598  159.9611 H   0  0  0  0  0  0  0  0  0  0  0  0  # atno 6908 bound_to 6896
  151.4656  133.3542  159.2851 H   0  0  0  0  0  0  0  0  0  0  0  0  # atno 6909 bound_to 6896
  146.1758  140.4279  142.8514 H   0  0  0  0  0  0  0  0  0  0  0  0  # atno 7974 bound_to 7965
  156.2601  140.2004  156.6427 H   0  0  0  0  0  0  0  0  0  0  0  0  # atno 8008 bound_to 7997
  154.6597  140.0562  157.0073 H   0  0  0  0  0  0  0  0  0  0  0  0  # atno 8009 bound_to 7997
  155.1294  140.3232  155.4480 H   0  0  0  0  0  0  0  0  0  0  0  0  # atno 8010 bound_to 7997
  139.6766  143.9653  152.2314 H   0  0  0  0  0  0  0  0  0  0  0  0  # atno 10167 bound_to 10162
  156.0120  130.5259  150.6594 H   0  0  0  0  0  0  0  0  0  0  0  0  # atno 10718 bound_to 10713
  153.6576  135.3352  155.3118 H   0  0  0  0  0  0  0  0  0  0  0  0  # atno 10763 bound_to 10752
  154.8523  135.4356  154.1839 H   0  0  0  0  0  0  0  0  0  0  0  0  # atno 10764 bound_to 10752
  153.2797  135.7008  153.7473 H   0  0  0  0  0  0  0  0  0  0  0  0  # atno 10765 bound_to 10752
  140.9538  134.1029  157.4036 H   0  0  0  0  0  0  0  0  0  0  0  0  # atno 11005 bound_to 11000
  144.8233  140.6587  143.6338 LP  0  0  0  0  0  0  0  0  0  0  0  0  # atno 17320 bound_to 7965
  145.4216  139.1563  143.4071 LP  0  0  0  0  0  0  0  0  0  0  0  0  # atno 17321 bound_to 7965
  139.9431  144.6668  150.8246 LP  0  0  0  0  0  0  0  0  0  0  0  0  # atno 17342 bound_to 10162
  140.7637  143.3231  151.2577 LP  0  0  0  0  0  0  0  0  0  0  0  0  # atno 17343 bound_to 10162
  157.4339  131.0853  151.1011 LP  0  0  0  0  0  0  0  0  0  0  0  0  # atno 17370 bound_to 10713
  157.1576  130.6211  149.5601 LP  0  0  0  0  0  0  0  0  0  0  0  0  # atno 17371 bound_to 10713
  139.8856  135.0073  156.6443 LP  0  0  0  0  0  0  0  0  0  0  0  0  # atno 17394 bound_to 11000
  140.7565  133.8853  155.8386 LP  0  0  0  0  0  0  0  0  0  0  0  0  # atno 17395 bound_to 11000

$$$$
