AV-unprocessed.smi:3175|AV-procd|sdf|12122|dock2
  -GOLD-   2272017563D 1   1.00000     0.00000
 Structure written by MMmdl.
 37 38  0  0  0  0  0  0  0  0  1 V2000
  151.4264  141.0292  157.0347 O   0  0  0  0  0  0  0  0  0  0  0  0
  150.8705  142.0917  156.7565 C   0  0  0  0  0  0  0  0  0  0  0  0
  151.2770  143.3869  157.4666 C   0  0  0  0  0  0  0  0  0  0  0  0
  151.3370  143.2493  159.0020 C   0  0  0  0  0  0  0  0  0  0  0  0
  151.5400  144.5827  159.7254 C   0  0  0  0  0  0  0  0  0  0  0  0
  152.0476  144.2055  161.1216 C   0  0  0  0  0  0  0  0  0  0  0  0
  152.6630  142.8034  160.9927 C   0  0  0  0  0  0  0  0  0  0  0  0
  152.4966  142.3940  159.5254 C   0  0  0  0  0  0  0  0  0  0  0  0
  149.8884  142.1918  155.8481 N   0  0  0  0  0  0  0  0  0  0  0  0
  149.3363  141.0761  155.0860 C   0  0  0  0  0  0  0  0  0  0  0  0
  148.3561  141.5375  153.9908 C   0  0  0  0  0  0  0  0  0  0  0  0
  147.1054  142.1991  154.5433 C   0  0  0  0  0  0  0  0  0  0  0  0
  146.2352  142.9176  153.6978 C   0  0  0  0  0  0  0  0  0  0  0  0
  145.0925  143.5217  154.2563 C   0  0  0  0  0  0  0  0  0  0  0  0
  144.8680  143.3806  155.6404 C   0  0  0  0  0  0  0  0  0  0  0  0
  145.6935  142.6945  156.4595 N   0  0  0  0  0  0  0  0  0  0  0  0
  146.7866  142.1169  155.9159 C   0  0  0  0  0  0  0  0  0  0  0  0
  152.2415  143.7282  157.0869 H   0  0  0  0  0  0  0  0  0  0  0  0
  150.5522  144.1558  157.1969 H   0  0  0  0  0  0  0  0  0  0  0  0
  150.4024  142.8160  159.3632 H   0  0  0  0  0  0  0  0  0  0  0  0
  152.3005  145.1726  159.2117 H   0  0  0  0  0  0  0  0  0  0  0  0
  150.6288  145.1805  159.7616 H   0  0  0  0  0  0  0  0  0  0  0  0
  152.7680  144.9353  161.4924 H   0  0  0  0  0  0  0  0  0  0  0  0
  151.2177  144.1791  161.8288 H   0  0  0  0  0  0  0  0  0  0  0  0
  153.7113  142.7885  161.2927 H   0  0  0  0  0  0  0  0  0  0  0  0
  152.1291  142.1062  161.6397 H   0  0  0  0  0  0  0  0  0  0  0  0
  152.3145  141.3246  159.4130 H   0  0  0  0  0  0  0  0  0  0  0  0
  153.4094  142.6321  158.9773 H   0  0  0  0  0  0  0  0  0  0  0  0
  149.4826  143.1019  155.6850 H   0  0  0  0  0  0  0  0  0  0  0  0
  150.1711  140.5450  154.6281 H   0  0  0  0  0  0  0  0  0  0  0  0
  148.8500  140.3643  155.7549 H   0  0  0  0  0  0  0  0  0  0  0  0
  148.8577  142.2363  153.3204 H   0  0  0  0  0  0  0  0  0  0  0  0
  148.0644  140.6865  153.3736 H   0  0  0  0  0  0  0  0  0  0  0  0
  146.4401  143.0072  152.6410 H   0  0  0  0  0  0  0  0  0  0  0  0
  144.4044  144.0804  153.6392 H   0  0  0  0  0  0  0  0  0  0  0  0
  144.0018  143.8312  156.1018 H   0  0  0  0  0  0  0  0  0  0  0  0
  147.4288  141.5799  156.5985 H   0  0  0  0  0  0  0  0  0  0  0  0
  1  2  2  0  0  0  0
  2  3  1  0  0  0  0
  2  9  1  0  0  0  0
  3  4  1  0  0  0  0
  3 18  1  0  0  0  0
  3 19  1  0  0  0  0
  4  8  1  0  0  0  0
  4  5  1  0  0  0  0
  4 20  1  0  0  0  0
  5  6  1  0  0  0  0
  5 21  1  0  0  0  0
  5 22  1  0  0  0  0
  6  7  1  0  0  0  0
  6 23  1  0  0  0  0
  6 24  1  0  0  0  0
  7  8  1  0  0  0  0
  7 25  1  0  0  0  0
  7 26  1  0  0  0  0
  8 27  1  0  0  0  0
  8 28  1  0  0  0  0
  9 10  1  0  0  0  0
  9 29  1  0  0  0  0
 10 11  1  0  0  0  0
 10 30  1  0  0  0  0
 10 31  1  0  0  0  0
 11 12  1  0  0  0  0
 11 32  1  0  0  0  0
 11 33  1  0  0  0  0
 12 17  1  0  0  0  0
 12 13  2  0  0  0  0
 13 14  1  0  0  0  0
 13 34  1  0  0  0  0
 14 15  2  0  0  0  0
 14 35  1  0  0  0  0
 15 16  1  0  0  0  0
 15 36  1  0  0  0  0
 16 17  2  0  0  0  0
 17 37  1  0  0  0  0
M  END
> <s_m_source_file>
AV-unprocessed.smi

> <i_m_source_file_index>
3175

> <i_lp_mmshare_version>
43012

> <i_f3d_flags>
0

> <s_epik_input>
W0NIMl0xW0NIMl1bQ0gyXVtDSDJdW0NIXTFbQ0gyXUMoPU8pW05IXVtDSDJdW0NIMl1jMltjSF1bY0hdW2NIXW5bY0hdMg==

> <s_epik_cmdline>
J2VwaWtfcHl0aG9uJywgJy1waCcsICc3LjAnLCAnLXRuJywgJzgnLCAnLW1hJywgJzIwMCcsICctbWV0YWxfYmluZGluZycsICctaW1hZScsICc8aW5maWxlLm1hZT4nLCAnLW9tYWUnLCAnPG91dGZpbGUubWFlPic=

> <r_epik_Ionization_Penalty>
0.013409

> <r_epik_Ionization_Penalty_Charging>
0

> <r_epik_Ionization_Penalty_Neutral>
0.013409

> <r_epik_State_Penalty>
0.010434

> <r_epik_Charging_Adjusted_Penalty>
0.010434

> <i_epik_Tot_Q>
0

> <i_epik_Tot_abs_Q>
0

> <r_epik_Metal_State_Penalty>
0.0102027

> <b_epik_Metal_Only>
0

> <s_lp_Force_Field>
OPLS_2005

> <r_lp_Energy>
19.7305

> <b_lp_Chiralities_Consistent>
1

> <s_lp_Variant>
AV-unprocessed.smi:3175-1

> <Gold.Version>
5.8.1

> <Gold.Id.Protein>
6NUR|6NUR_protein|mol2

> <Gold.PLP.Fitness>
45.2511

> <Gold.PLP.PLP>
-42.8921

> <Gold.PLP.part.hbond>
-1.0000

> <Gold.PLP.part.metal>
0.0000

> <Gold.PLP.part.buried>
-5.1466

> <Gold.PLP.part.nonpolar>
-37.4778

> <Gold.PLP.part.repulsive>
0.2696

> <Gold.PLP.ligand.clash>
0.0000

> <Gold.PLP.ligand.torsion>
0.3285

> <Gold.PLP.Chemscore.Hbond>
1.0000

> <Gold.PLP.Chemscore.CHOScore>
0.0000

> <Gold.PLP.Chemscore.Metal>
0.0000

> <Gold.Chemscore.Hbonds>
donor molecule, donor type, donor heavy atom, donor atom, acceptor molecule, acceptor atom, score
      L1  H     9    29       P1  8028  1.00

> <Gold.PLP.Chemscore.Internal.Correction>
0.0160

> <Gold.Rescore>
     Score         DG    S(hbond)    S(metal)    S(lipo)     H(rot)  DE(clash)    DE(int)     intcor
     17.46     -18.11       1.00        0.00     111.99       1.48       0.09       0.56       ----

> <Gold.Chemscore.Fitness>
17.4608

> <Gold.Chemscore.DG>
-18.1057

> <Gold.Chemscore.ZeroCoef>
-5.4800

> <Gold.Chemscore.Hbond>
0.9951

> <Gold.Chemscore.Metal>
0.0000

> <Gold.Chemscore.Lipo>
111.9928

> <Gold.Chemscore.Internal_Hbond>
0.0000

> <Gold.Chemscore.DEClash>
0.0900

> <Gold.Chemscore.DEInternal>
0.5550

> <Gold.Chemscore.Rot>
1.4848

> <Gold.Chemscore.Internal.Correction>
   9.000000E+99

> <Gold.Chemscore.Hbonds>
donor molecule, donor type, donor heavy atom, donor atom, acceptor molecule, acceptor atom, score
      L1  H     9    29       P1  8028  1.00

> <Gold.Chemscore.Hbond.Weighted>
-3.3238

> <Gold.Chemscore.Metal.Weighted>
-0.0000

> <Gold.Chemscore.Lipo.Weighted>
-13.1032

> <Gold.Chemscore.Internal_Hbond.Weighted>
0.0000

> <Gold.Chemscore.DEClash.Weighted>
0.0900

> <Gold.Chemscore.DEInternal.Weighted>
0.5550

> <Gold.Chemscore.Rot.Weighted>
3.8012

> <Gold.Chemscore.Internal.Correction.Weighted>
   9.000000E+99

> <Gold.Protein.RotatedTorsions>
[ 6907 6896 6895 6894 ] final  156.50 input  -60.11 | X-H torsion
[ 7974 7965 7964 7962 ] final  -89.44 input  175.53 | X-H torsion
[ 8008 7997 7996 7995 ] final -116.21 input   59.86 | X-H torsion
[ 10167 10162 10161 10158 ] final -134.93 input  -65.29 | X-H torsion
[ 10718 10713 10712 10709 ] final   20.62 input   66.30 | X-H torsion
[ 10763 10752 10751 10750 ] final   -4.07 input  -60.55 | X-H torsion
[ 11005 11000 10999 10996 ] final -151.47 input  -57.11 | X-H torsion

> <Gold.Protein.ActiveResidues>
 VAL166  LYS551  ARG553  GLY616  TRP617  ASP618  TYR619  PRO620  LYS621  CYS622 
 ASP623  PHE694  ASN695  SER759  ASP760  ASP761  ALA762  ILE779  LEU786  VAL792 
 PHE793  MET794  SER795  GLU796  ALA797  LYS798  CYS799  TRP800  GLU811  SER814 

> <Gold.Protein.RotatedAtoms>
  152.0288  133.3928  159.4288 H   0  0  0  0  0  0  0  0  0  0  0  0  # atno 6907 bound_to 6896
  150.6884  134.3544  159.4932 H   0  0  0  0  0  0  0  0  0  0  0  0  # atno 6908 bound_to 6896
  152.1328  134.9122  160.0608 H   0  0  0  0  0  0  0  0  0  0  0  0  # atno 6909 bound_to 6896
  145.4397  140.9558  143.2082 H   0  0  0  0  0  0  0  0  0  0  0  0  # atno 7974 bound_to 7965
  155.0642  140.0393  157.2587 H   0  0  0  0  0  0  0  0  0  0  0  0  # atno 8008 bound_to 7997
  154.7035  140.2678  155.6673 H   0  0  0  0  0  0  0  0  0  0  0  0  # atno 8009 bound_to 7997
  156.2767  140.2736  156.1653 H   0  0  0  0  0  0  0  0  0  0  0  0  # atno 8010 bound_to 7997
  139.8830  143.6816  152.2624 H   0  0  0  0  0  0  0  0  0  0  0  0  # atno 10167 bound_to 10162
  157.1271  130.6574  149.5940 H   0  0  0  0  0  0  0  0  0  0  0  0  # atno 10718 bound_to 10713
  153.3798  135.6998  153.6574 H   0  0  0  0  0  0  0  0  0  0  0  0  # atno 10763 bound_to 10752
  153.5189  135.3616  155.2623 H   0  0  0  0  0  0  0  0  0  0  0  0  # atno 10764 bound_to 10752
  154.8691  135.4153  154.3094 H   0  0  0  0  0  0  0  0  0  0  0  0  # atno 10765 bound_to 10752
  140.7292  134.3640  157.5170 H   0  0  0  0  0  0  0  0  0  0  0  0  # atno 11005 bound_to 11000
  144.8129  139.5929  143.7021 LP  0  0  0  0  0  0  0  0  0  0  0  0  # atno 17320 bound_to 7965
  146.2563  139.6309  142.9393 LP  0  0  0  0  0  0  0  0  0  0  0  0  # atno 17321 bound_to 7965
  139.7179  144.7608  151.1004 LP  0  0  0  0  0  0  0  0  0  0  0  0  # atno 17342 bound_to 10162
  140.7741  143.5246  150.9496 LP  0  0  0  0  0  0  0  0  0  0  0  0  # atno 17343 bound_to 10162
  155.9816  130.4824  150.6836 LP  0  0  0  0  0  0  0  0  0  0  0  0  # atno 17370 bound_to 10713
  157.4426  131.0863  151.0928 LP  0  0  0  0  0  0  0  0  0  0  0  0  # atno 17371 bound_to 10713
  139.8830  134.9007  156.2794 LP  0  0  0  0  0  0  0  0  0  0  0  0  # atno 17394 bound_to 11000
  140.9936  133.7194  156.0851 LP  0  0  0  0  0  0  0  0  0  0  0  0  # atno 17395 bound_to 11000

$$$$
