AV-unprocessed.smi:87|AV-procd|sdf|821|dock9
  -GOLD-   2262017223D 1   1.00000     0.00000
 Structure written by MMmdl.
 58 60  0  0  0  0  0  0  0  0  1 V2000
  150.7591  134.2976  154.7786 C   0  0  0  0  0  0  0  0  0  0  0  0
  150.2667  134.2056  156.2305 C   0  0  0  0  0  0  0  0  0  0  0  0
  148.7275  134.1599  156.3809 C   0  0  0  0  0  0  0  0  0  0  0  0
  148.1276  132.9177  155.6838 C   0  0  0  0  0  0  0  0  0  0  0  0
  146.6091  132.7716  155.8612 C   0  0  0  0  0  0  0  0  0  0  0  0
  148.0884  135.4595  155.8284 C   0  0  0  0  0  0  0  0  0  0  0  0
  148.4067  136.6581  156.6093 N   0  0  0  0  0  0  0  0  0  0  0  0
  148.7636  136.4524  158.0113 C   0  0  0  0  0  0  0  0  0  0  0  0
  147.5464  136.4957  158.9470 C   0  0  0  0  0  0  0  0  0  0  0  0
  147.9324  136.5327  160.3648 C   0  0  0  0  0  0  0  0  0  0  0  0
  148.2357  136.5623  161.4808 N   0  0  0  0  0  0  0  0  0  0  0  0
  149.1235  137.6460  156.0131 C   0  0  0  0  0  0  0  0  0  0  0  0
  149.5458  137.5012  154.7281 N   0  0  0  0  0  0  0  0  0  0  0  0
  150.2857  138.4520  154.1500 C   0  0  0  0  0  0  0  0  0  0  0  0
  150.7200  139.6019  154.6689 N   0  0  0  0  0  0  0  0  0  0  0  0
  150.2978  139.7530  155.9566 C   0  0  0  0  0  0  0  0  0  0  0  0
  149.4975  138.8370  156.6949 C   0  0  0  0  0  0  0  0  0  0  0  0
  149.2572  139.3376  157.9692 N   0  0  0  0  0  0  0  0  0  0  0  0
  149.9014  140.4721  157.9921 C   0  0  0  0  0  0  0  0  0  0  0  0
  150.5684  140.7902  156.8308 N   0  0  0  0  0  0  0  0  0  0  0  0
  151.3882  141.9635  156.5928 C   0  0  0  0  0  0  0  0  0  0  0  0
  151.2113  143.0564  157.6709 C   0  0  1  0  0  0  0  0  0  0  0  0
  149.8544  143.4515  157.6426 O   0  0  0  0  0  0  0  0  0  0  0  0
  151.5830  142.6193  159.1077 C   0  0  2  0  0  0  0  0  0  0  0  0
  151.6583  143.7696  160.1162 C   0  0  0  0  0  0  0  0  0  0  0  0
  152.5857  143.2067  161.1680 C   0  0  0  0  0  0  0  0  0  0  0  0
  153.5993  142.4600  160.3101 C   0  0  0  0  0  0  0  0  0  0  0  0
  152.8871  142.0378  159.1516 O   0  0  0  0  0  0  0  0  0  0  0  0
  151.8461  134.2266  154.7381 H   0  0  0  0  0  0  0  0  0  0  0  0
  150.4805  135.2403  154.3093 H   0  0  0  0  0  0  0  0  0  0  0  0
  150.3539  133.4862  154.1733 H   0  0  0  0  0  0  0  0  0  0  0  0
  150.7027  133.3026  156.6585 H   0  0  0  0  0  0  0  0  0  0  0  0
  150.6725  135.0348  156.8109 H   0  0  0  0  0  0  0  0  0  0  0  0
  148.5020  134.0764  157.4443 H   0  0  0  0  0  0  0  0  0  0  0  0
  148.3729  132.9326  154.6212 H   0  0  0  0  0  0  0  0  0  0  0  0
  148.5839  132.0129  156.0823 H   0  0  0  0  0  0  0  0  0  0  0  0
  146.2622  131.8314  155.4323 H   0  0  0  0  0  0  0  0  0  0  0  0
  146.0602  133.5730  155.3682 H   0  0  0  0  0  0  0  0  0  0  0  0
  146.3344  132.7742  156.9162 H   0  0  0  0  0  0  0  0  0  0  0  0
  148.4214  135.6094  154.8007 H   0  0  0  0  0  0  0  0  0  0  0  0
  147.0043  135.3670  155.7750 H   0  0  0  0  0  0  0  0  0  0  0  0
  149.2874  135.5053  158.1361 H   0  0  0  0  0  0  0  0  0  0  0  0
  149.4756  137.2236  158.3059 H   0  0  0  0  0  0  0  0  0  0  0  0
  146.9337  137.3738  158.7444 H   0  0  0  0  0  0  0  0  0  0  0  0
  146.9158  135.6181  158.8044 H   0  0  0  0  0  0  0  0  0  0  0  0
  150.5780  138.2597  153.1283 H   0  0  0  0  0  0  0  0  0  0  0  0
  149.9220  141.1028  158.8689 H   0  0  0  0  0  0  0  0  0  0  0  0
  152.4301  141.6448  156.5432 H   0  0  0  0  0  0  0  0  0  0  0  0
  151.1363  142.3622  155.6090 H   0  0  0  0  0  0  0  0  0  0  0  0
  151.8085  143.9284  157.4021 H   0  0  0  0  0  0  0  0  0  0  0  0
  149.7109  143.9752  156.8692 H   0  0  0  0  0  0  0  0  0  0  0  0
  150.8727  141.8748  159.4712 H   0  0  0  0  0  0  0  0  0  0  0  0
  152.1075  144.6530  159.6601 H   0  0  0  0  0  0  0  0  0  0  0  0
  150.6833  144.0504  160.5155 H   0  0  0  0  0  0  0  0  0  0  0  0
  153.0399  143.9723  161.7974 H   0  0  0  0  0  0  0  0  0  0  0  0
  152.0459  142.5086  161.8094 H   0  0  0  0  0  0  0  0  0  0  0  0
  154.4015  143.1287  159.9963 H   0  0  0  0  0  0  0  0  0  0  0  0
  154.0473  141.6149  160.8332 H   0  0  0  0  0  0  0  0  0  0  0  0
  1  2  1  0  0  0  0
  1 29  1  0  0  0  0
  1 30  1  0  0  0  0
  1 31  1  0  0  0  0
  2  3  1  0  0  0  0
  2 32  1  0  0  0  0
  2 33  1  0  0  0  0
  3  4  1  0  0  0  0
  3  6  1  0  0  0  0
  3 34  1  0  0  0  0
  4  5  1  0  0  0  0
  4 35  1  0  0  0  0
  4 36  1  0  0  0  0
  5 37  1  0  0  0  0
  5 38  1  0  0  0  0
  5 39  1  0  0  0  0
  6  7  1  0  0  0  0
  6 40  1  0  0  0  0
  6 41  1  0  0  0  0
  7  8  1  0  0  0  0
  7 12  1  0  0  0  0
  8  9  1  0  0  0  0
  8 42  1  0  0  0  0
  8 43  1  0  0  0  0
  9 10  1  0  0  0  0
  9 44  1  0  0  0  0
  9 45  1  0  0  0  0
 10 11  3  0  0  0  0
 12 17  1  0  0  0  0
 12 13  2  0  0  0  0
 13 14  1  0  0  0  0
 14 15  2  0  0  0  0
 14 46  1  0  0  0  0
 15 16  1  0  0  0  0
 16 20  1  0  0  0  0
 16 17  2  0  0  0  0
 17 18  1  0  0  0  0
 18 19  2  0  0  0  0
 19 20  1  0  0  0  0
 19 47  1  0  0  0  0
 20 21  1  0  0  0  0
 21 22  1  0  0  0  0
 21 48  1  0  0  0  0
 21 49  1  0  0  0  0
 22 23  1  0  0  0  0
 22 24  1  0  0  0  0
 22 50  1  0  0  0  0
 23 51  1  0  0  0  0
 24 28  1  0  0  0  0
 24 25  1  0  0  0  0
 24 52  1  0  0  0  0
 25 26  1  0  0  0  0
 25 53  1  0  0  0  0
 25 54  1  0  0  0  0
 26 27  1  0  0  0  0
 26 55  1  0  0  0  0
 26 56  1  0  0  0  0
 27 28  1  0  0  0  0
 27 57  1  0  0  0  0
 27 58  1  0  0  0  0
M  END
> <s_m_source_file>
AV-unprocessed.smi

> <i_m_source_file_index>
87

> <i_lp_mmshare_version>
43012

> <i_f3d_flags>
0

> <s_epik_input>
W0NIM11bQ0gyXVtDSF0oW0NIMl1bQ0gzXSlbQ0gyXU4oW0NIMl1bQ0gyXUMjTiljKG5bY0hdbjEpYyhjMTIpbltjSF1uMltDSDJdW0NASF0oW09IXSlbQ0BASF0zW0NIMl1bQ0gyXVtDSDJdTzM=

> <s_epik_cmdline>
J2VwaWtfcHl0aG9uJywgJy1waCcsICc3LjAnLCAnLXRuJywgJzgnLCAnLW1hJywgJzIwMCcsICctbWV0YWxfYmluZGluZycsICctaW1hZScsICc8aW5maWxlLm1hZT4nLCAnLW9tYWUnLCAnPG91dGZpbGUubWFlPic=

> <r_lp_tautomer_probability>
1

> <r_epik_Ionization_Penalty>
0.000348566

> <r_epik_Ionization_Penalty_Charging>
0

> <r_epik_Ionization_Penalty_Neutral>
0.000348566

> <r_epik_State_Penalty>
-0

> <r_epik_Charging_Adjusted_Penalty>
0

> <i_epik_Tot_Q>
0

> <i_epik_Tot_abs_Q>
0

> <r_epik_Metal_State_Penalty>
-0

> <b_epik_Metal_Only>
0

> <s_lp_Force_Field>
OPLS_2005

> <r_lp_Energy>
32.9267

> <b_lp_Chiralities_Consistent>
1

> <s_lp_Variant>
AV-unprocessed.smi:87-2

> <Gold.Version>
5.8.1

> <Gold.Id.Protein>
6NUR|6NUR_protein|mol2

> <Gold.PLP.Fitness>
44.2003

> <Gold.PLP.PLP>
-35.5890

> <Gold.PLP.part.hbond>
-3.7608

> <Gold.PLP.part.metal>
0.0000

> <Gold.PLP.part.buried>
-6.2167

> <Gold.PLP.part.nonpolar>
-25.6457

> <Gold.PLP.part.repulsive>
0.2671

> <Gold.PLP.ligand.clash>
1.7636

> <Gold.PLP.ligand.torsion>
1.7996

> <Gold.PLP.Chemscore.Hbond>
2.9750

> <Gold.PLP.Chemscore.CHOScore>
1.3766

> <Gold.PLP.Chemscore.Metal>
0.0000

> <Gold.Chemscore.Hbonds>
donor molecule, donor type, donor heavy atom, donor atom, acceptor molecule, acceptor atom, score
      L1  H    23    51       P1  8028  1.00
      P1  H  6931  6943       L1    11  1.00
      P1  H  7989  7998       L1    15  1.00
      L1  C    14    46       P1  7948  0.12
      L1  C    14    46       P1  7949  0.12
      L1  C    14    46       P1  7957  0.23

> <Gold.PLP.Chemscore.Internal.Correction>
0.9192

> <Gold.Rescore>
     Score         DG    S(hbond)    S(metal)    S(lipo)     H(rot)  DE(clash)    DE(int)     intcor
      9.91     -15.06       2.74        0.00      83.09       3.64       0.18       4.97       ----

> <Gold.Chemscore.Fitness>
9.9136

> <Gold.Chemscore.DG>
-15.0565

> <Gold.Chemscore.ZeroCoef>
-5.4800

> <Gold.Chemscore.Hbond>
2.7441

> <Gold.Chemscore.Metal>
0.0000

> <Gold.Chemscore.Lipo>
83.0886

> <Gold.Chemscore.Internal_Hbond>
0.0000

> <Gold.Chemscore.DEClash>
0.1771

> <Gold.Chemscore.DEInternal>
4.9659

> <Gold.Chemscore.Rot>
3.6368

> <Gold.Chemscore.Internal.Correction>
   9.000000E+99

> <Gold.Chemscore.Hbonds>
donor molecule, donor type, donor heavy atom, donor atom, acceptor molecule, acceptor atom, score
      L1  H    23    51       P1  8028  0.92
      P1  H  6931  6943       L1    11  0.78
      P1  H  7989  7998       L1    15  0.95

> <Gold.Chemscore.Hbond.Weighted>
-9.1654

> <Gold.Chemscore.Metal.Weighted>
-0.0000

> <Gold.Chemscore.Lipo.Weighted>
-9.7214

> <Gold.Chemscore.Internal_Hbond.Weighted>
0.0000

> <Gold.Chemscore.DEClash.Weighted>
0.1771

> <Gold.Chemscore.DEInternal.Weighted>
4.9659

> <Gold.Chemscore.Rot.Weighted>
9.3102

> <Gold.Chemscore.Internal.Correction.Weighted>
   9.000000E+99

> <Gold.Protein.RotatedTorsions>
[ 6907 6896 6895 6894 ] final   15.36 input  -60.11 | X-H torsion
[ 7974 7965 7964 7962 ] final -105.03 input  175.53 | X-H torsion
[ 8008 7997 7996 7995 ] final   -7.86 input   59.86 | X-H torsion
[ 10167 10162 10161 10158 ] final   45.16 input  -65.29 | X-H torsion
[ 10718 10713 10712 10709 ] final  -71.49 input   66.30 | X-H torsion
[ 10763 10752 10751 10750 ] final -173.37 input  -60.55 | X-H torsion
[ 11005 11000 10999 10996 ] final  -63.63 input  -57.11 | X-H torsion

> <Gold.Protein.ActiveResidues>
 VAL166  LYS551  ARG553  GLY616  TRP617  ASP618  TYR619  PRO620  LYS621  CYS622 
 ASP623  PHE694  ASN695  SER759  ASP760  ASP761  ALA762  ILE779  LEU786  VAL792 
 PHE793  MET794  SER795  GLU796  ALA797  LYS798  CYS799  TRP800  GLU811  SER814 

> <Gold.Protein.RotatedAtoms>
  151.8169  135.0664  160.0419 H   0  0  0  0  0  0  0  0  0  0  0  0  # atno 6907 bound_to 6896
  152.2980  133.5622  159.5608 H   0  0  0  0  0  0  0  0  0  0  0  0  # atno 6908 bound_to 6896
  150.7260  134.0249  159.3756 H   0  0  0  0  0  0  0  0  0  0  0  0  # atno 6909 bound_to 6896
  145.2356  140.9186  143.3179 H   0  0  0  0  0  0  0  0  0  0  0  0  # atno 7974 bound_to 7965
  154.5797  140.2396  155.8071 H   0  0  0  0  0  0  0  0  0  0  0  0  # atno 8008 bound_to 7997
  156.2170  140.3009  155.9819 H   0  0  0  0  0  0  0  0  0  0  0  0  # atno 8009 bound_to 7997
  155.2563  140.0412  157.2983 H   0  0  0  0  0  0  0  0  0  0  0  0  # atno 8010 bound_to 7997
  140.3270  144.2636  150.6174 H   0  0  0  0  0  0  0  0  0  0  0  0  # atno 10167 bound_to 10162
  156.0361  130.4352  150.2451 H   0  0  0  0  0  0  0  0  0  0  0  0  # atno 10718 bound_to 10713
  154.6087  135.2862  155.0457 H   0  0  0  0  0  0  0  0  0  0  0  0  # atno 10763 bound_to 10752
  154.1695  135.6475  153.5009 H   0  0  0  0  0  0  0  0  0  0  0  0  # atno 10764 bound_to 10752
  153.0186  135.5397  154.6832 H   0  0  0  0  0  0  0  0  0  0  0  0  # atno 10765 bound_to 10752
  141.1399  133.6654  156.5710 H   0  0  0  0  0  0  0  0  0  0  0  0  # atno 11005 bound_to 11000
  144.9636  139.3954  143.6344 LP  0  0  0  0  0  0  0  0  0  0  0  0  # atno 17320 bound_to 7965
  146.3342  139.8701  142.8841 LP  0  0  0  0  0  0  0  0  0  0  0  0  # atno 17321 bound_to 7965
  140.5432  143.2219  151.8050 LP  0  0  0  0  0  0  0  0  0  0  0  0  # atno 17342 bound_to 10162
  139.4863  144.4573  151.9583 LP  0  0  0  0  0  0  0  0  0  0  0  0  # atno 17343 bound_to 10162
  157.0550  131.0073  151.3241 LP  0  0  0  0  0  0  0  0  0  0  0  0  # atno 17370 bound_to 10713
  157.5112  130.7940  149.7707 LP  0  0  0  0  0  0  0  0  0  0  0  0  # atno 17371 bound_to 10713
  140.3913  134.7438  157.4723 LP  0  0  0  0  0  0  0  0  0  0  0  0  # atno 17394 bound_to 11000
  140.0564  134.6057  155.8800 LP  0  0  0  0  0  0  0  0  0  0  0  0  # atno 17395 bound_to 11000

$$$$
