AV-unprocessed.smi:170|AV-procd|sdf|1410|dock4
  -GOLD-   2262019163D 1   1.00000     0.00000
 Structure written by MMmdl.
 57 61  0  0  0  0  0  0  0  0  1 V2000
  145.1014  134.0346  153.5229 O   0  0  0  0  0  0  0  0  0  0  0  0
  145.6323  134.2271  152.2251 C   0  0  2  0  0  0  0  0  0  0  0  0
  145.0067  135.4662  151.5556 C   0  0  0  0  0  0  0  0  0  0  0  0
  145.5796  136.7060  152.0488 N   0  0  0  0  0  0  0  0  0  0  0  0
  146.1507  137.7046  151.2936 C   0  0  0  0  0  0  0  0  0  0  0  0
  146.6065  138.7218  151.9722 N   0  0  0  0  0  0  0  0  0  0  0  0
  146.3321  138.3979  153.2961 C   0  0  0  0  0  0  0  0  0  0  0  0
  146.5628  139.0360  154.5486 C   0  0  0  0  0  0  0  0  0  0  0  0
  147.1871  140.2242  154.7127 N   0  0  0  0  0  0  0  0  0  0  0  0
  146.3951  141.3076  154.1429 C   0  0  0  0  0  0  0  0  0  0  0  0
  147.0149  142.6641  154.5039 C   0  0  0  0  0  0  0  0  0  0  0  0
  148.3621  142.6926  154.0515 O   0  0  0  0  0  0  0  0  0  0  0  0
  149.1560  141.6900  154.6769 C   0  0  0  0  0  0  0  0  0  0  0  0
  148.6078  140.2822  154.3458 C   0  0  1  0  0  0  0  0  0  0  0  0
  149.4425  139.1687  155.0325 C   0  0  0  0  0  0  0  0  0  0  0  0
  150.8437  138.9734  154.4482 C   0  0  0  0  0  0  0  0  0  0  0  0
  151.6120  137.6753  154.7540 C   0  0  0  0  0  0  0  0  0  0  0  0
  152.3706  138.4312  155.8463 C   0  0  0  0  0  0  0  0  0  0  0  0
  152.0147  139.7220  155.1055 C   0  0  0  0  0  0  0  0  0  0  0  0
  146.1304  138.4101  155.6707 N   0  0  0  0  0  0  0  0  0  0  0  0
  145.5248  137.2221  155.5820 C   0  0  0  0  0  0  0  0  0  0  0  0
  145.2542  136.5015  154.4913 N   0  0  0  0  0  0  0  0  0  0  0  0
  145.6779  137.1357  153.3602 C   0  0  0  0  0  0  0  0  0  0  0  0
  145.4688  132.9450  151.3845 C   0  0  1  0  0  0  0  0  0  0  0  0
  144.1046  132.7501  150.7010 C   0  0  0  0  0  0  0  0  0  0  0  0
  144.4613  132.4071  149.2630 C   0  0  0  0  0  0  0  0  0  0  0  0
  145.9314  132.0136  149.3461 C   0  0  0  0  0  0  0  0  0  0  0  0
  146.4382  132.8820  150.3451 O   0  0  0  0  0  0  0  0  0  0  0  0
  145.8091  133.7908  154.1002 H   0  0  0  0  0  0  0  0  0  0  0  0
  146.7001  134.4081  152.3527 H   0  0  0  0  0  0  0  0  0  0  0  0
  145.1551  135.4268  150.4759 H   0  0  0  0  0  0  0  0  0  0  0  0
  143.9289  135.4905  151.7202 H   0  0  0  0  0  0  0  0  0  0  0  0
  146.2222  137.6523  150.2170 H   0  0  0  0  0  0  0  0  0  0  0  0
  146.3504  141.1972  153.0583 H   0  0  0  0  0  0  0  0  0  0  0  0
  145.3704  141.2596  154.5144 H   0  0  0  0  0  0  0  0  0  0  0  0
  146.4608  143.4713  154.0248 H   0  0  0  0  0  0  0  0  0  0  0  0
  146.9730  142.8403  155.5800 H   0  0  0  0  0  0  0  0  0  0  0  0
  150.1763  141.8035  154.3122 H   0  0  0  0  0  0  0  0  0  0  0  0
  149.1829  141.8565  155.7551 H   0  0  0  0  0  0  0  0  0  0  0  0
  148.6759  140.1569  153.2660 H   0  0  0  0  0  0  0  0  0  0  0  0
  149.5181  139.3859  156.0985 H   0  0  0  0  0  0  0  0  0  0  0  0
  148.9170  138.2160  154.9712 H   0  0  0  0  0  0  0  0  0  0  0  0
  150.8533  139.1667  153.3752 H   0  0  0  0  0  0  0  0  0  0  0  0
  151.0068  136.8469  155.1224 H   0  0  0  0  0  0  0  0  0  0  0  0
  152.2583  137.3637  153.9318 H   0  0  0  0  0  0  0  0  0  0  0  0
  151.8904  138.3564  156.8237 H   0  0  0  0  0  0  0  0  0  0  0  0
  153.4371  138.2117  155.8991 H   0  0  0  0  0  0  0  0  0  0  0  0
  152.7821  140.0217  154.3899 H   0  0  0  0  0  0  0  0  0  0  0  0
  151.7252  140.5500  155.7534 H   0  0  0  0  0  0  0  0  0  0  0  0
  145.2157  136.7847  156.5200 H   0  0  0  0  0  0  0  0  0  0  0  0
  145.6494  132.0830  152.0293 H   0  0  0  0  0  0  0  0  0  0  0  0
  143.5601  131.9326  151.1748 H   0  0  0  0  0  0  0  0  0  0  0  0
  143.4674  133.6337  150.7442 H   0  0  0  0  0  0  0  0  0  0  0  0
  143.8354  131.6196  148.8429 H   0  0  0  0  0  0  0  0  0  0  0  0
  144.3546  133.2936  148.6368 H   0  0  0  0  0  0  0  0  0  0  0  0
  146.0415  130.9774  149.6695 H   0  0  0  0  0  0  0  0  0  0  0  0
  146.4565  132.1382  148.3990 H   0  0  0  0  0  0  0  0  0  0  0  0
  1  2  1  0  0  0  0
  1 29  1  0  0  0  0
  2  3  1  0  0  0  0
  2 24  1  0  0  0  0
  2 30  1  0  0  0  0
  3  4  1  0  0  0  0
  3 31  1  0  0  0  0
  3 32  1  0  0  0  0
  4 23  1  0  0  0  0
  4  5  1  0  0  0  0
  5  6  2  0  0  0  0
  5 33  1  0  0  0  0
  6  7  1  0  0  0  0
  7 23  2  0  0  0  0
  7  8  1  0  0  0  0
  8  9  1  0  0  0  0
  8 20  2  0  0  0  0
  9 14  1  0  0  0  0
  9 10  1  0  0  0  0
 10 11  1  0  0  0  0
 10 34  1  0  0  0  0
 10 35  1  0  0  0  0
 11 12  1  0  0  0  0
 11 36  1  0  0  0  0
 11 37  1  0  0  0  0
 12 13  1  0  0  0  0
 13 14  1  0  0  0  0
 13 38  1  0  0  0  0
 13 39  1  0  0  0  0
 14 15  1  0  0  0  0
 14 40  1  0  0  0  0
 15 16  1  0  0  0  0
 15 41  1  0  0  0  0
 15 42  1  0  0  0  0
 16 19  1  0  0  0  0
 16 17  1  0  0  0  0
 16 43  1  0  0  0  0
 17 18  1  0  0  0  0
 17 44  1  0  0  0  0
 17 45  1  0  0  0  0
 18 19  1  0  0  0  0
 18 46  1  0  0  0  0
 18 47  1  0  0  0  0
 19 48  1  0  0  0  0
 19 49  1  0  0  0  0
 20 21  1  0  0  0  0
 21 22  2  0  0  0  0
 21 50  1  0  0  0  0
 22 23  1  0  0  0  0
 24 28  1  0  0  0  0
 24 25  1  0  0  0  0
 24 51  1  0  0  0  0
 25 26  1  0  0  0  0
 25 52  1  0  0  0  0
 25 53  1  0  0  0  0
 26 27  1  0  0  0  0
 26 54  1  0  0  0  0
 26 55  1  0  0  0  0
 27 28  1  0  0  0  0
 27 56  1  0  0  0  0
 27 57  1  0  0  0  0
M  END
> <s_m_source_file>
AV-unprocessed.smi

> <i_m_source_file_index>
170

> <i_lp_mmshare_version>
43012

> <i_f3d_flags>
0

> <s_epik_input>
TzFbQ0gyXVtDSDJdW0NIMl1bQ0BIXTFbQ0BIXShbT0hdKVtDSDJdbihbY0hdbjIpYyhjMjMpbltjSF1uYzNONFtDSDJdW0NIMl1PW0NIMl1bQ0BIXTRbQ0gyXVtDSF01W0NIMl1bQ0gyXVtDSDJdNQ==

> <s_epik_cmdline>
J2VwaWtfcHl0aG9uJywgJy1waCcsICc3LjAnLCAnLXRuJywgJzgnLCAnLW1hJywgJzIwMCcsICctbWV0YWxfYmluZGluZycsICctaW1hZScsICc8aW5maWxlLm1hZT4nLCAnLW9tYWUnLCAnPG91dGZpbGUubWFlPic=

> <r_lp_tautomer_probability>
1

> <r_epik_Ionization_Penalty>
4.98275e-05

> <r_epik_Ionization_Penalty_Charging>
0

> <r_epik_Ionization_Penalty_Neutral>
4.98275e-05

> <r_epik_State_Penalty>
-0

> <r_epik_Charging_Adjusted_Penalty>
0

> <i_epik_Tot_Q>
0

> <i_epik_Tot_abs_Q>
0

> <r_epik_Metal_State_Penalty>
-0

> <b_epik_Metal_Only>
0

> <s_lp_Force_Field>
OPLS_2005

> <r_lp_Energy>
54.4618

> <b_lp_Chiralities_Consistent>
1

> <s_lp_Variant>
AV-unprocessed.smi:170-5

> <Gold.Version>
5.8.1

> <Gold.Id.Protein>
6NUR|6NUR_protein|mol2

> <Gold.PLP.Fitness>
42.7092

> <Gold.PLP.PLP>
-41.6943

> <Gold.PLP.part.hbond>
-1.7865

> <Gold.PLP.part.metal>
0.0000

> <Gold.PLP.part.buried>
1.1788

> <Gold.PLP.part.nonpolar>
-45.2168

> <Gold.PLP.part.repulsive>
3.8781

> <Gold.PLP.ligand.clash>
0.0000

> <Gold.PLP.ligand.torsion>
1.0988

> <Gold.PLP.Chemscore.Hbond>
0.6636

> <Gold.PLP.Chemscore.CHOScore>
0.2995

> <Gold.PLP.Chemscore.Metal>
0.0000

> <Gold.Chemscore.Hbonds>
donor molecule, donor type, donor heavy atom, donor atom, acceptor molecule, acceptor atom, score
      P1  H  8011  8017       L1    12  0.01
      P1  H  8022  8030       L1    12  0.78
      L1  C     5    33       P1 10171  0.30

> <Gold.PLP.Chemscore.Internal.Correction>
0.3230

> <Gold.Rescore>
     Score         DG    S(hbond)    S(metal)    S(lipo)     H(rot)  DE(clash)    DE(int)     intcor
      7.77     -12.51       0.06        0.00     115.67       2.61       2.29       2.44       ----

> <Gold.Chemscore.Fitness>
7.7724

> <Gold.Chemscore.DG>
-12.5092

> <Gold.Chemscore.ZeroCoef>
-5.4800

> <Gold.Chemscore.Hbond>
0.0563

> <Gold.Chemscore.Metal>
0.0000

> <Gold.Chemscore.Lipo>
115.6749

> <Gold.Chemscore.Internal_Hbond>
0.0000

> <Gold.Chemscore.DEClash>
2.2930

> <Gold.Chemscore.DEInternal>
2.4438

> <Gold.Chemscore.Rot>
2.6144

> <Gold.Chemscore.Internal.Correction>
   9.000000E+99

> <Gold.Chemscore.Hbonds>
donor molecule, donor type, donor heavy atom, donor atom, acceptor molecule, acceptor atom, score
      P1  H  8022  8030       L1    12  0.22

> <Gold.Chemscore.Hbond.Weighted>
-0.1882

> <Gold.Chemscore.Metal.Weighted>
-0.0000

> <Gold.Chemscore.Lipo.Weighted>
-13.5340

> <Gold.Chemscore.Internal_Hbond.Weighted>
0.0000

> <Gold.Chemscore.DEClash.Weighted>
2.2930

> <Gold.Chemscore.DEInternal.Weighted>
2.4438

> <Gold.Chemscore.Rot.Weighted>
6.6929

> <Gold.Chemscore.Internal.Correction.Weighted>
   9.000000E+99

> <Gold.Protein.RotatedTorsions>
[ 6907 6896 6895 6894 ] final  101.94 input  -60.11 | X-H torsion
[ 7974 7965 7964 7962 ] final   70.55 input  175.53 | X-H torsion
[ 8008 7997 7996 7995 ] final -114.13 input   59.86 | X-H torsion
[ 10167 10162 10161 10158 ] final -177.51 input  -65.29 | X-H torsion
[ 10718 10713 10712 10709 ] final -155.49 input   66.30 | X-H torsion
[ 10763 10752 10751 10750 ] final   94.22 input  -60.55 | X-H torsion
[ 11005 11000 10999 10996 ] final   99.09 input  -57.11 | X-H torsion

> <Gold.Protein.ActiveResidues>
 VAL166  LYS551  ARG553  GLY616  TRP617  ASP618  TYR619  PRO620  LYS621  CYS622 
 ASP623  PHE694  ASN695  SER759  ASP760  ASP761  ALA762  ILE779  LEU786  VAL792 
 PHE793  MET794  SER795  GLU796  ALA797  LYS798  CYS799  TRP800  GLU811  SER814 

> <Gold.Protein.RotatedAtoms>
  152.5336  134.0050  159.7911 H   0  0  0  0  0  0  0  0  0  0  0  0  # atno 6907 bound_to 6896
  151.0262  133.5824  159.2673 H   0  0  0  0  0  0  0  0  0  0  0  0  # atno 6908 bound_to 6896
  151.2845  135.0731  159.9235 H   0  0  0  0  0  0  0  0  0  0  0  0  # atno 6909 bound_to 6896
  145.7767  139.2868  143.1289 H   0  0  0  0  0  0  0  0  0  0  0  0  # atno 7974 bound_to 7965
  155.0315  140.0393  157.2476 H   0  0  0  0  0  0  0  0  0  0  0  0  # atno 8008 bound_to 7997
  154.7292  140.2727  155.6447 H   0  0  0  0  0  0  0  0  0  0  0  0  # atno 8009 bound_to 7997
  156.2837  140.2687  156.1987 H   0  0  0  0  0  0  0  0  0  0  0  0  # atno 8010 bound_to 7997
  139.5477  144.2192  152.1018 H   0  0  0  0  0  0  0  0  0  0  0  0  # atno 10167 bound_to 10162
  156.5136  130.8446  151.2655 H   0  0  0  0  0  0  0  0  0  0  0  0  # atno 10718 bound_to 10713
  153.2391  135.4297  155.0679 H   0  0  0  0  0  0  0  0  0  0  0  0  # atno 10763 bound_to 10752
  154.8332  135.3398  154.6675 H   0  0  0  0  0  0  0  0  0  0  0  0  # atno 10764 bound_to 10752
  153.7099  135.7023  153.5096 H   0  0  0  0  0  0  0  0  0  0  0  0  # atno 10765 bound_to 10752
  139.8771  134.9079  156.4554 H   0  0  0  0  0  0  0  0  0  0  0  0  # atno 11005 bound_to 11000
  146.0115  140.8431  142.9968 LP  0  0  0  0  0  0  0  0  0  0  0  0  # atno 17320 bound_to 7965
  144.6803  140.2497  143.7333 LP  0  0  0  0  0  0  0  0  0  0  0  0  # atno 17321 bound_to 7965
  140.1682  144.4961  150.6594 LP  0  0  0  0  0  0  0  0  0  0  0  0  # atno 17342 bound_to 10162
  140.6730  143.2293  151.5578 LP  0  0  0  0  0  0  0  0  0  0  0  0  # atno 17343 bound_to 10162
  157.7447  130.9941  150.2697 LP  0  0  0  0  0  0  0  0  0  0  0  0  # atno 17370 bound_to 10713
  156.3217  130.3787  149.7569 LP  0  0  0  0  0  0  0  0  0  0  0  0  # atno 17371 bound_to 10713
  140.8902  133.7853  155.9563 LP  0  0  0  0  0  0  0  0  0  0  0  0  # atno 17394 bound_to 11000
  140.8761  134.2667  157.5167 LP  0  0  0  0  0  0  0  0  0  0  0  0  # atno 17395 bound_to 11000

$$$$
