AV-unprocessed.smi:1773|AV-procd|sdf|7163|dock7
  -GOLD-   22720 8403D 1   1.00000     0.00000
 Structure written by MMmdl.
 40 41  0  0  0  0  0  0  0  0  1 V2000
  151.0961  137.5633  154.4521 C   0  0  0  0  0  0  0  0  0  0  0  0
  150.5742  138.9506  154.7901 C   0  0  0  0  0  0  0  0  0  0  0  0
  151.3898  139.8337  155.5291 C   0  0  0  0  0  0  0  0  0  0  0  0
  150.9059  141.1158  155.8408 C   0  0  0  0  0  0  0  0  0  0  0  0
  149.6180  141.4623  155.3979 C   0  0  0  0  0  0  0  0  0  0  0  0
  148.8319  140.6249  154.6911 N   0  0  0  0  0  0  0  0  0  0  0  0
  149.2841  139.3836  154.3813 C   0  0  0  0  0  0  0  0  0  0  0  0
  148.5113  138.4479  153.6371 N   0  0  0  0  0  0  0  0  0  0  0  0
  147.1750  138.3844  153.5006 C   0  0  0  0  0  0  0  0  0  0  0  0
  146.3666  139.1475  154.0302 O   0  0  0  0  0  0  0  0  0  0  0  0
  146.8204  137.3625  152.7078 N   0  0  0  0  0  0  0  0  0  0  0  0
  145.4520  136.9950  152.3464 C   0  0  0  0  0  0  0  0  0  0  0  0
  145.3785  135.7808  151.3872 C   0  0  0  0  0  0  0  0  0  0  0  0
  145.6278  136.2758  150.0833 O   0  0  0  0  0  0  0  0  0  0  0  0
  146.4111  134.6732  151.7202 C   0  0  0  0  0  0  0  0  0  0  0  0
  146.2427  133.4109  150.8553 C   0  0  0  0  0  0  0  0  0  0  0  0
  144.8109  132.8636  150.9299 C   0  0  0  0  0  0  0  0  0  0  0  0
  143.7921  133.9391  150.5294 C   0  0  0  0  0  0  0  0  0  0  0  0
  143.9432  135.2015  151.3971 C   0  0  0  0  0  0  0  0  0  0  0  0
  152.1066  137.4150  154.8339 H   0  0  0  0  0  0  0  0  0  0  0  0
  151.1217  137.4172  153.3718 H   0  0  0  0  0  0  0  0  0  0  0  0
  150.4560  136.7976  154.8912 H   0  0  0  0  0  0  0  0  0  0  0  0
  152.3756  139.5353  155.8548 H   0  0  0  0  0  0  0  0  0  0  0  0
  151.5057  141.8150  156.4045 H   0  0  0  0  0  0  0  0  0  0  0  0
  149.2074  142.4372  155.6155 H   0  0  0  0  0  0  0  0  0  0  0  0
  149.0425  137.7445  153.1458 H   0  0  0  0  0  0  0  0  0  0  0  0
  147.5533  136.7830  152.3256 H   0  0  0  0  0  0  0  0  0  0  0  0
  144.8738  136.7870  153.2483 H   0  0  0  0  0  0  0  0  0  0  0  0
  144.9770  137.8648  151.8905 H   0  0  0  0  0  0  0  0  0  0  0  0
  145.2014  137.1146  149.9967 H   0  0  0  0  0  0  0  0  0  0  0  0
  147.4291  135.0464  151.6039 H   0  0  0  0  0  0  0  0  0  0  0  0
  146.3086  134.3945  152.7700 H   0  0  0  0  0  0  0  0  0  0  0  0
  146.4944  133.6371  149.8184 H   0  0  0  0  0  0  0  0  0  0  0  0
  146.9477  132.6453  151.1805 H   0  0  0  0  0  0  0  0  0  0  0  0
  144.7099  131.9942  150.2796 H   0  0  0  0  0  0  0  0  0  0  0  0
  144.6020  132.5189  151.9434 H   0  0  0  0  0  0  0  0  0  0  0  0
  143.9202  134.1933  149.4766 H   0  0  0  0  0  0  0  0  0  0  0  0
  142.7806  133.5440  150.6272 H   0  0  0  0  0  0  0  0  0  0  0  0
  143.6661  134.9489  152.4217 H   0  0  0  0  0  0  0  0  0  0  0  0
  143.2274  135.9576  151.0715 H   0  0  0  0  0  0  0  0  0  0  0  0
  1  2  1  0  0  0  0
  1 20  1  0  0  0  0
  1 21  1  0  0  0  0
  1 22  1  0  0  0  0
  2  7  1  0  0  0  0
  2  3  2  0  0  0  0
  3  4  1  0  0  0  0
  3 23  1  0  0  0  0
  4  5  2  0  0  0  0
  4 24  1  0  0  0  0
  5  6  1  0  0  0  0
  5 25  1  0  0  0  0
  6  7  2  0  0  0  0
  7  8  1  0  0  0  0
  8  9  1  0  0  0  0
  8 26  1  0  0  0  0
  9 10  2  0  0  0  0
  9 11  1  0  0  0  0
 11 12  1  0  0  0  0
 11 27  1  0  0  0  0
 12 13  1  0  0  0  0
 12 28  1  0  0  0  0
 12 29  1  0  0  0  0
 13 19  1  0  0  0  0
 13 14  1  0  0  0  0
 13 15  1  0  0  0  0
 14 30  1  0  0  0  0
 15 16  1  0  0  0  0
 15 31  1  0  0  0  0
 15 32  1  0  0  0  0
 16 17  1  0  0  0  0
 16 33  1  0  0  0  0
 16 34  1  0  0  0  0
 17 18  1  0  0  0  0
 17 35  1  0  0  0  0
 17 36  1  0  0  0  0
 18 19  1  0  0  0  0
 18 37  1  0  0  0  0
 18 38  1  0  0  0  0
 19 39  1  0  0  0  0
 19 40  1  0  0  0  0
M  END
> <s_m_source_file>
AV-unprocessed.smi

> <i_m_source_file_index>
1773

> <i_lp_mmshare_version>
43012

> <i_f3d_flags>
0

> <s_epik_input>
W0NIM11jMVtjSF1bY0hdW2NIXW5jMVtOSF1DKD1PKVtOSF1bQ0gyXUMyKFtPSF0pW0NIMl1bQ0gyXVtDSDJdW0NIMl1bQ0gyXTI=

> <s_epik_cmdline>
J2VwaWtfcHl0aG9uJywgJy1waCcsICc3LjAnLCAnLXRuJywgJzgnLCAnLW1hJywgJzIwMCcsICctbWV0YWxfYmluZGluZycsICctaW1hZScsICc8aW5maWxlLm1hZT4nLCAnLW9tYWUnLCAnPG91dGZpbGUubWFlPic=

> <r_lp_tautomer_probability>
1

> <r_epik_Ionization_Penalty>
6.74357e-05

> <r_epik_Ionization_Penalty_Charging>
0

> <r_epik_Ionization_Penalty_Neutral>
6.74357e-05

> <r_epik_State_Penalty>
-0

> <r_epik_Charging_Adjusted_Penalty>
0

> <i_epik_Tot_Q>
0

> <i_epik_Tot_abs_Q>
0

> <r_epik_Metal_State_Penalty>
-0

> <b_epik_Metal_Only>
0

> <s_lp_Force_Field>
OPLS_2005

> <r_lp_Energy>
17.1315

> <b_lp_Chiralities_Consistent>
1

> <s_lp_Variant>
AV-unprocessed.smi:1773-1

> <Gold.Version>
5.8.1

> <Gold.Id.Protein>
6NUR|6NUR_protein|mol2

> <Gold.PLP.Fitness>
46.3214

> <Gold.PLP.PLP>
-35.2762

> <Gold.PLP.part.hbond>
-4.6340

> <Gold.PLP.part.metal>
0.0000

> <Gold.PLP.part.buried>
-1.6089

> <Gold.PLP.part.nonpolar>
-30.4549

> <Gold.PLP.part.repulsive>
0.3198

> <Gold.PLP.ligand.clash>
0.0000

> <Gold.PLP.ligand.torsion>
0.3966

> <Gold.PLP.Chemscore.Hbond>
2.9440

> <Gold.PLP.Chemscore.CHOScore>
1.0000

> <Gold.PLP.Chemscore.Metal>
0.0000

> <Gold.Chemscore.Hbonds>
donor molecule, donor type, donor heavy atom, donor atom, acceptor molecule, acceptor atom, score
      L1  H     8    26       P1  7948  0.93
      L1  H    11    27       P1  7948  1.00
      L1  H    14    30       P1 10171  1.00
      L1  C     5    25       P1  8028  1.00

> <Gold.PLP.Chemscore.Internal.Correction>
0.0065

> <Gold.Rescore>
     Score         DG    S(hbond)    S(metal)    S(lipo)     H(rot)  DE(clash)    DE(int)     intcor
     16.55     -19.74       2.74        0.00      81.62       1.73       1.57       1.61       ----

> <Gold.Chemscore.Fitness>
16.5534

> <Gold.Chemscore.DG>
-19.7382

> <Gold.Chemscore.ZeroCoef>
-5.4800

> <Gold.Chemscore.Hbond>
2.7387

> <Gold.Chemscore.Metal>
0.0000

> <Gold.Chemscore.Lipo>
81.6192

> <Gold.Chemscore.Internal_Hbond>
0.0000

> <Gold.Chemscore.DEClash>
1.5706

> <Gold.Chemscore.DEInternal>
1.6141

> <Gold.Chemscore.Rot>
1.7339

> <Gold.Chemscore.Internal.Correction>
   9.000000E+99

> <Gold.Chemscore.Hbonds>
donor molecule, donor type, donor heavy atom, donor atom, acceptor molecule, acceptor atom, score
      L1  H     8    26       P1  7948  0.88
      L1  H    11    27       P1  7948  0.97
      L1  H    14    30       P1 10171  0.98

> <Gold.Chemscore.Hbond.Weighted>
-9.1474

> <Gold.Chemscore.Metal.Weighted>
-0.0000

> <Gold.Chemscore.Lipo.Weighted>
-9.5494

> <Gold.Chemscore.Internal_Hbond.Weighted>
0.0000

> <Gold.Chemscore.DEClash.Weighted>
1.5706

> <Gold.Chemscore.DEInternal.Weighted>
1.6141

> <Gold.Chemscore.Rot.Weighted>
4.4387

> <Gold.Chemscore.Internal.Correction.Weighted>
   9.000000E+99

> <Gold.Protein.RotatedTorsions>
[ 6907 6896 6895 6894 ] final   34.13 input  -60.11 | X-H torsion
[ 7974 7965 7964 7962 ] final -178.99 input  175.53 | X-H torsion
[ 8008 7997 7996 7995 ] final  148.45 input   59.86 | X-H torsion
[ 10167 10162 10161 10158 ] final  119.30 input  -65.29 | X-H torsion
[ 10718 10713 10712 10709 ] final   13.15 input   66.30 | X-H torsion
[ 10763 10752 10751 10750 ] final  -54.75 input  -60.55 | X-H torsion
[ 11005 11000 10999 10996 ] final  -40.14 input  -57.11 | X-H torsion

> <Gold.Protein.ActiveResidues>
 VAL166  LYS551  ARG553  GLY616  TRP617  ASP618  TYR619  PRO620  LYS621  CYS622 
 ASP623  PHE694  ASN695  SER759  ASP760  ASP761  ALA762  ILE779  LEU786  VAL792 
 PHE793  MET794  SER795  GLU796  ALA797  LYS798  CYS799  TRP800  GLU811  SER814 

> <Gold.Protein.RotatedAtoms>
  152.0981  134.9361  160.0570 H   0  0  0  0  0  0  0  0  0  0  0  0  # atno 6907 bound_to 6896
  152.0586  133.4046  159.4416 H   0  0  0  0  0  0  0  0  0  0  0  0  # atno 6908 bound_to 6896
  150.6838  134.3147  159.4804 H   0  0  0  0  0  0  0  0  0  0  0  0  # atno 6909 bound_to 6896
  144.7134  140.0785  143.6426 H   0  0  0  0  0  0  0  0  0  0  0  0  # atno 7974 bound_to 7965
  156.2790  140.2128  156.5701 H   0  0  0  0  0  0  0  0  0  0  0  0  # atno 8008 bound_to 7997
  154.7143  140.0509  157.0602 H   0  0  0  0  0  0  0  0  0  0  0  0  # atno 8009 bound_to 7997
  155.0564  140.3162  155.4678 H   0  0  0  0  0  0  0  0  0  0  0  0  # atno 8010 bound_to 7997
  139.6055  144.7068  151.2964 H   0  0  0  0  0  0  0  0  0  0  0  0  # atno 10167 bound_to 10162
  157.0204  130.6152  149.5720 H   0  0  0  0  0  0  0  0  0  0  0  0  # atno 10718 bound_to 10713
  154.1798  135.6445  153.5031 H   0  0  0  0  0  0  0  0  0  0  0  0  # atno 10763 bound_to 10752
  153.0062  135.5403  154.6526 H   0  0  0  0  0  0  0  0  0  0  0  0  # atno 10764 bound_to 10752
  154.5887  135.2932  155.0630 H   0  0  0  0  0  0  0  0  0  0  0  0  # atno 10765 bound_to 10752
  141.0153  133.6888  156.2281 H   0  0  0  0  0  0  0  0  0  0  0  0  # atno 11005 bound_to 11000
  145.9723  139.2879  143.1091 LP  0  0  0  0  0  0  0  0  0  0  0  0  # atno 17320 bound_to 7965
  145.9103  140.9184  143.0457 LP  0  0  0  0  0  0  0  0  0  0  0  0  # atno 17321 bound_to 7965
  140.7281  143.6944  150.7896 LP  0  0  0  0  0  0  0  0  0  0  0  0  # atno 17342 bound_to 10162
  140.0528  143.5232  152.2665 LP  0  0  0  0  0  0  0  0  0  0  0  0  # atno 17343 bound_to 10162
  156.0104  130.5195  150.7970 LP  0  0  0  0  0  0  0  0  0  0  0  0  # atno 17370 bound_to 10713
  157.5254  131.0934  151.0025 LP  0  0  0  0  0  0  0  0  0  0  0  0  # atno 17371 bound_to 10713
  140.6665  134.4913  157.5585 LP  0  0  0  0  0  0  0  0  0  0  0  0  # atno 17394 bound_to 11000
  139.9113  134.8338  156.1518 LP  0  0  0  0  0  0  0  0  0  0  0  0  # atno 17395 bound_to 11000

$$$$
