AV-unprocessed.smi:1570|AV-procd|sdf|6312|dock3
  -GOLD-   22720 6513D 1   1.00000     0.00000
 Structure written by MMmdl.
 51 53  0  0  0  0  0  0  0  0  1 V2000
  154.4167  137.6985  162.5668 C   0  0  0  0  0  0  0  0  0  0  0  0
  154.8958  138.6156  161.4346 C   0  0  0  0  0  0  0  0  0  0  0  0
  153.8112  138.9180  160.5039 N   0  0  0  0  0  0  0  0  0  0  0  0
  153.0269  138.0199  159.8627 C   0  0  0  0  0  0  0  0  0  0  0  0
  153.0977  136.7954  159.9668 O   0  0  0  0  0  0  0  0  0  0  0  0
  152.1691  138.7020  159.0671 N   0  0  0  0  0  0  0  0  0  0  0  0
  151.1725  138.1306  158.1611 C   0  0  0  0  0  0  0  0  0  0  0  0
  150.4502  136.9201  158.7859 C   0  0  2  0  0  0  0  0  0  0  0  0
  150.8529  135.7658  158.0795 O   0  0  0  0  0  0  0  0  0  0  0  0
  148.9107  137.0218  158.7080 C   0  0  0  0  0  0  0  0  0  0  0  0
  148.1992  136.7205  159.9503 N   0  0  0  0  0  0  0  0  0  0  0  0
  146.7703  137.0182  159.8601 C   0  0  0  0  0  0  0  0  0  0  0  0
  146.0228  136.6675  161.1606 C   0  0  1  0  0  0  0  0  0  0  0  0
  144.5134  136.9004  161.0390 C   0  0  0  0  0  0  0  0  0  0  0  0
  146.2413  135.2939  161.4691 O   0  0  0  0  0  0  0  0  0  0  0  0
  147.6194  134.9627  161.6140 C   0  0  1  0  0  0  0  0  0  0  0  0
  147.7231  133.4726  161.9554 C   0  0  0  0  0  0  0  0  0  0  0  0
  148.3589  135.3157  160.3093 C   0  0  0  0  0  0  0  0  0  0  0  0
  152.4187  140.0758  159.1972 C   0  0  0  0  0  0  0  0  0  0  0  0
  151.8142  141.1871  158.5843 C   0  0  0  0  0  0  0  0  0  0  0  0
  152.3139  142.4656  158.9259 C   0  0  0  0  0  0  0  0  0  0  0  0
  153.3818  142.6050  159.8500 C   0  0  0  0  0  0  0  0  0  0  0  0
  153.9719  141.4695  160.4527 C   0  0  0  0  0  0  0  0  0  0  0  0
  153.4542  140.2116  160.0977 C   0  0  0  0  0  0  0  0  0  0  0  0
  155.2306  137.4797  163.2582 H   0  0  0  0  0  0  0  0  0  0  0  0
  154.0474  136.7496  162.1766 H   0  0  0  0  0  0  0  0  0  0  0  0
  153.6123  138.1626  163.1381 H   0  0  0  0  0  0  0  0  0  0  0  0
  155.2932  139.5422  161.8517 H   0  0  0  0  0  0  0  0  0  0  0  0
  155.7219  138.1479  160.8988 H   0  0  0  0  0  0  0  0  0  0  0  0
  150.4489  138.8896  157.8592 H   0  0  0  0  0  0  0  0  0  0  0  0
  151.6859  137.8268  157.2477 H   0  0  0  0  0  0  0  0  0  0  0  0
  150.7896  136.8077  159.8139 H   0  0  0  0  0  0  0  0  0  0  0  0
  151.1659  136.0333  157.2284 H   0  0  0  0  0  0  0  0  0  0  0  0
  148.6227  138.0224  158.3865 H   0  0  0  0  0  0  0  0  0  0  0  0
  148.5669  136.3552  157.9153 H   0  0  0  0  0  0  0  0  0  0  0  0
  146.6109  138.0735  159.6451 H   0  0  0  0  0  0  0  0  0  0  0  0
  146.3307  136.4627  159.0297 H   0  0  0  0  0  0  0  0  0  0  0  0
  146.4071  137.2787  161.9790 H   0  0  0  0  0  0  0  0  0  0  0  0
  144.2944  137.9458  160.8205 H   0  0  0  0  0  0  0  0  0  0  0  0
  144.0035  136.6409  161.9670 H   0  0  0  0  0  0  0  0  0  0  0  0
  144.0838  136.2940  160.2412 H   0  0  0  0  0  0  0  0  0  0  0  0
  148.0376  135.5413  162.4395 H   0  0  0  0  0  0  0  0  0  0  0  0
  148.7623  133.1732  162.0923 H   0  0  0  0  0  0  0  0  0  0  0  0
  147.2978  132.8555  161.1636 H   0  0  0  0  0  0  0  0  0  0  0  0
  147.1878  133.2464  162.8780 H   0  0  0  0  0  0  0  0  0  0  0  0
  147.9879  134.6845  159.4998 H   0  0  0  0  0  0  0  0  0  0  0  0
  149.4185  135.0834  160.4232 H   0  0  0  0  0  0  0  0  0  0  0  0
  151.0032  141.0738  157.8800 H   0  0  0  0  0  0  0  0  0  0  0  0
  151.8781  143.3458  158.4771 H   0  0  0  0  0  0  0  0  0  0  0  0
  153.7489  143.5905  160.0958 H   0  0  0  0  0  0  0  0  0  0  0  0
  154.7867  141.5700  161.1542 H   0  0  0  0  0  0  0  0  0  0  0  0
  1  2  1  0  0  0  0
  1 25  1  0  0  0  0
  1 26  1  0  0  0  0
  1 27  1  0  0  0  0
  2  3  1  0  0  0  0
  2 28  1  0  0  0  0
  2 29  1  0  0  0  0
  3 24  1  0  0  0  0
  3  4  1  0  0  0  0
  4  5  2  0  0  0  0
  4  6  1  0  0  0  0
  6  7  1  0  0  0  0
  6 19  1  0  0  0  0
  7  8  1  0  0  0  0
  7 30  1  0  0  0  0
  7 31  1  0  0  0  0
  8  9  1  0  0  0  0
  8 10  1  0  0  0  0
  8 32  1  0  0  0  0
  9 33  1  0  0  0  0
 10 11  1  0  0  0  0
 10 34  1  0  0  0  0
 10 35  1  0  0  0  0
 11 18  1  0  0  0  0
 11 12  1  0  0  0  0
 12 13  1  0  0  0  0
 12 36  1  0  0  0  0
 12 37  1  0  0  0  0
 13 14  1  0  0  0  0
 13 15  1  0  0  0  0
 13 38  1  0  0  0  0
 14 39  1  0  0  0  0
 14 40  1  0  0  0  0
 14 41  1  0  0  0  0
 15 16  1  0  0  0  0
 16 17  1  0  0  0  0
 16 18  1  0  0  0  0
 16 42  1  0  0  0  0
 17 43  1  0  0  0  0
 17 44  1  0  0  0  0
 17 45  1  0  0  0  0
 18 46  1  0  0  0  0
 18 47  1  0  0  0  0
 19 24  2  0  0  0  0
 19 20  1  0  0  0  0
 20 21  2  0  0  0  0
 20 48  1  0  0  0  0
 21 22  1  0  0  0  0
 21 49  1  0  0  0  0
 22 23  2  0  0  0  0
 22 50  1  0  0  0  0
 23 24  1  0  0  0  0
 23 51  1  0  0  0  0
M  END
> <s_m_source_file>
AV-unprocessed.smi

> <i_m_source_file_index>
1570

> <i_lp_mmshare_version>
43012

> <i_f3d_flags>
0

> <s_epik_input>
W2NIXTFbY0hdW2NIXVtjSF1jKGMxMiluKFtDSDJdW0NIM10pYyg9TyluMltDSDJdW0NASF0oW09IXSlbQ0gyXU4zW0NIMl1bQ0BASF0oW0NIM10pT1tDQEBIXShbQ0gzXSlbQ0gyXTM=

> <s_epik_cmdline>
J2VwaWtfcHl0aG9uJywgJy1waCcsICc3LjAnLCAnLXRuJywgJzgnLCAnLW1hJywgJzIwMCcsICctbWV0YWxfYmluZGluZycsICctaW1hZScsICc8aW5maWxlLm1hZT4nLCAnLW9tYWUnLCAnPG91dGZpbGUubWFlPic=

> <r_epik_Ionization_Penalty>
0.214359

> <r_epik_Ionization_Penalty_Charging>
2.30976e-09

> <r_epik_Ionization_Penalty_Neutral>
0.214359

> <r_epik_State_Penalty>
0.204533

> <r_epik_Charging_Adjusted_Penalty>
0.204533

> <i_epik_Tot_Q>
0

> <i_epik_Tot_abs_Q>
0

> <r_epik_Metal_State_Penalty>
0.204533

> <b_epik_Metal_Only>
0

> <s_lp_Force_Field>
OPLS_2005

> <r_lp_Energy>
58.4553

> <b_lp_Chiralities_Consistent>
1

> <s_lp_Variant>
AV-unprocessed.smi:1570-1

> <Gold.Version>
5.8.1

> <Gold.Id.Protein>
6NUR|6NUR_protein|mol2

> <Gold.PLP.Fitness>
48.7476

> <Gold.PLP.PLP>
-45.0790

> <Gold.PLP.part.hbond>
-4.0000

> <Gold.PLP.part.metal>
0.0000

> <Gold.PLP.part.buried>
-3.2907

> <Gold.PLP.part.nonpolar>
-38.4420

> <Gold.PLP.part.repulsive>
0.0000

> <Gold.PLP.ligand.clash>
0.0000

> <Gold.PLP.ligand.torsion>
1.7527

> <Gold.PLP.Chemscore.Hbond>
2.3540

> <Gold.PLP.Chemscore.CHOScore>
0.0000

> <Gold.PLP.Chemscore.Metal>
0.0000

> <Gold.Chemscore.Hbonds>
donor molecule, donor type, donor heavy atom, donor atom, acceptor molecule, acceptor atom, score
      P1  H  6896  6907       L1     5  0.89
      P1  H  6896  6909       L1     9  0.36

> <Gold.PLP.Chemscore.Internal.Correction>
0.1121

> <Gold.Rescore>
     Score         DG    S(hbond)    S(metal)    S(lipo)     H(rot)  DE(clash)    DE(int)     intcor
     15.84     -20.17       1.83        0.00     118.32       2.06       1.33       3.00       ----

> <Gold.Chemscore.Fitness>
15.8393

> <Gold.Chemscore.DG>
-20.1734

> <Gold.Chemscore.ZeroCoef>
-5.4800

> <Gold.Chemscore.Hbond>
1.8313

> <Gold.Chemscore.Metal>
0.0000

> <Gold.Chemscore.Lipo>
118.3208

> <Gold.Chemscore.Internal_Hbond>
0.0000

> <Gold.Chemscore.DEClash>
1.3301

> <Gold.Chemscore.DEInternal>
3.0040

> <Gold.Chemscore.Rot>
2.0574

> <Gold.Chemscore.Internal.Correction>
   9.000000E+99

> <Gold.Chemscore.Hbonds>
donor molecule, donor type, donor heavy atom, donor atom, acceptor molecule, acceptor atom, score
      P1  H  6896  6907       L1     5  0.87
      P1  H  6896  6909       L1     9  0.08

> <Gold.Chemscore.Hbond.Weighted>
-6.1167

> <Gold.Chemscore.Metal.Weighted>
-0.0000

> <Gold.Chemscore.Lipo.Weighted>
-13.8435

> <Gold.Chemscore.Internal_Hbond.Weighted>
0.0000

> <Gold.Chemscore.DEClash.Weighted>
1.3301

> <Gold.Chemscore.DEInternal.Weighted>
3.0040

> <Gold.Chemscore.Rot.Weighted>
5.2669

> <Gold.Chemscore.Internal.Correction.Weighted>
   9.000000E+99

> <Gold.Protein.RotatedTorsions>
[ 6907 6896 6895 6894 ] final   43.33 input  -60.11 | X-H torsion
[ 7974 7965 7964 7962 ] final   50.86 input  175.53 | X-H torsion
[ 8008 7997 7996 7995 ] final   83.53 input   59.86 | X-H torsion
[ 10167 10162 10161 10158 ] final  -76.79 input  -65.29 | X-H torsion
[ 10718 10713 10712 10709 ] final -108.43 input   66.30 | X-H torsion
[ 10763 10752 10751 10750 ] final   -0.88 input  -60.55 | X-H torsion
[ 11005 11000 10999 10996 ] final  124.88 input  -57.11 | X-H torsion

> <Gold.Protein.ActiveResidues>
 VAL166  LYS551  ARG553  GLY616  TRP617  ASP618  TYR619  PRO620  LYS621  CYS622 
 ASP623  PHE694  ASN695  SER759  ASP760  ASP761  ALA762  ILE779  LEU786  VAL792 
 PHE793  MET794  SER795  GLU796  ALA797  LYS798  CYS799  TRP800  GLU811  SER814 

> <Gold.Protein.RotatedAtoms>
  152.2189  134.8431  160.0488 H   0  0  0  0  0  0  0  0  0  0  0  0  # atno 6907 bound_to 6896
  151.9222  133.3583  159.3909 H   0  0  0  0  0  0  0  0  0  0  0  0  # atno 6908 bound_to 6896
  150.6995  134.4548  159.5397 H   0  0  0  0  0  0  0  0  0  0  0  0  # atno 6909 bound_to 6896
  145.9970  139.4399  143.0038 H   0  0  0  0  0  0  0  0  0  0  0  0  # atno 7974 bound_to 7965
  155.9251  140.3418  155.6204 H   0  0  0  0  0  0  0  0  0  0  0  0  # atno 8008 bound_to 7997
  155.7226  140.0785  157.2343 H   0  0  0  0  0  0  0  0  0  0  0  0  # atno 8009 bound_to 7997
  154.4076  140.1602  156.2406 H   0  0  0  0  0  0  0  0  0  0  0  0  # atno 8010 bound_to 7997
  140.4826  143.2398  151.8033 H   0  0  0  0  0  0  0  0  0  0  0  0  # atno 10167 bound_to 10162
  156.0485  130.5712  150.7960 H   0  0  0  0  0  0  0  0  0  0  0  0  # atno 10718 bound_to 10713
  153.3376  135.6979  153.6894 H   0  0  0  0  0  0  0  0  0  0  0  0  # atno 10763 bound_to 10752
  153.5671  135.3523  155.2823 H   0  0  0  0  0  0  0  0  0  0  0  0  # atno 10764 bound_to 10752
  154.8630  135.4263  154.2581 H   0  0  0  0  0  0  0  0  0  0  0  0  # atno 10765 bound_to 10752
  139.9379  134.9638  156.8475 H   0  0  0  0  0  0  0  0  0  0  0  0  # atno 11005 bound_to 11000
  145.7544  140.9960  143.1233 LP  0  0  0  0  0  0  0  0  0  0  0  0  # atno 17320 bound_to 7965
  144.6907  139.9254  143.7469 LP  0  0  0  0  0  0  0  0  0  0  0  0  # atno 17321 bound_to 7965
  139.4836  144.4752  151.9375 LP  0  0  0  0  0  0  0  0  0  0  0  0  # atno 17342 bound_to 10162
  140.3838  144.2703  150.5906 LP  0  0  0  0  0  0  0  0  0  0  0  0  # atno 17343 bound_to 10162
  157.5387  131.0940  150.9857 LP  0  0  0  0  0  0  0  0  0  0  0  0  # atno 17370 bound_to 10713
  157.0145  130.5650  149.5324 LP  0  0  0  0  0  0  0  0  0  0  0  0  # atno 17371 bound_to 10713
  140.6027  134.0157  155.7543 LP  0  0  0  0  0  0  0  0  0  0  0  0  # atno 17394 bound_to 11000
  141.1002  133.9781  157.3092 LP  0  0  0  0  0  0  0  0  0  0  0  0  # atno 17395 bound_to 11000

$$$$
