AV-unprocessed.smi:2478|AV-procd|sdf|9763|dock8
  -GOLD-   2272013403D 1   1.00000     0.00000
 Structure written by MMmdl.
 42 43  0  0  0  0  0  0  0  0  1 V2000
  149.4733  137.6666  154.9794 C   0  0  0  0  0  0  0  0  0  0  0  0
  148.8491  138.9194  154.3431 C   0  0  2  0  0  0  0  0  0  0  0  0
  149.6568  140.1789  154.7173 C   0  0  0  0  0  0  0  0  0  0  0  0
  149.0515  141.4492  154.1015 C   0  0  0  0  0  0  0  0  0  0  0  0
  147.5810  141.6111  154.5095 C   0  0  0  0  0  0  0  0  0  0  0  0
  146.7640  140.3677  154.1298 C   0  0  0  0  0  0  0  0  0  0  0  0
  147.3642  139.0831  154.7404 C   0  0  1  0  0  0  0  0  0  0  0  0
  146.6521  137.9527  154.2519 O   0  0  0  0  0  0  0  0  0  0  0  0
  146.4516  137.9492  152.8460 C   0  0  0  0  0  0  0  0  0  0  0  0
  145.5989  136.7366  152.4777 C   0  0  0  0  0  0  0  0  0  0  0  0
  144.4286  136.6839  152.8559 O   0  0  0  0  0  0  0  0  0  0  0  0
  146.2115  135.7906  151.7421 N   0  0  0  0  0  0  0  0  0  0  0  0
  145.6880  134.5532  151.2761 C   0  0  0  0  0  0  0  0  0  0  0  0
  144.6302  134.4688  150.4308 N   0  0  0  0  0  0  0  0  0  0  0  0
  144.1861  133.2560  150.0442 C   0  0  0  0  0  0  0  0  0  0  0  0
  144.7659  132.0527  150.4801 C   0  0  0  0  0  0  0  0  0  0  0  0
  145.8631  132.1244  151.3553 C   0  0  0  0  0  0  0  0  0  0  0  0
  146.3458  133.3932  151.7580 C   0  0  0  0  0  0  0  0  0  0  0  0
  147.4074  133.5348  152.6259 O   0  0  0  0  0  0  0  0  0  0  0  0
  147.9451  132.4272  153.2027 C   0  0  0  0  0  0  0  0  0  0  0  0
  149.0682  132.7644  153.8811 F   0  0  0  0  0  0  0  0  0  0  0  0
  147.0754  131.8869  154.0911 F   0  0  0  0  0  0  0  0  0  0  0  0
  149.4452  137.7191  156.0682 H   0  0  0  0  0  0  0  0  0  0  0  0
  150.5150  137.5518  154.6790 H   0  0  0  0  0  0  0  0  0  0  0  0
  148.9459  136.7616  154.6766 H   0  0  0  0  0  0  0  0  0  0  0  0
  148.8986  138.8008  153.2595 H   0  0  0  0  0  0  0  0  0  0  0  0
  149.6926  140.2851  155.8026 H   0  0  0  0  0  0  0  0  0  0  0  0
  150.6900  140.0714  154.3852 H   0  0  0  0  0  0  0  0  0  0  0  0
  149.6221  142.3238  154.4148 H   0  0  0  0  0  0  0  0  0  0  0  0
  149.1279  141.4025  153.0143 H   0  0  0  0  0  0  0  0  0  0  0  0
  147.5148  141.7792  155.5853 H   0  0  0  0  0  0  0  0  0  0  0  0
  147.1571  142.4943  154.0307 H   0  0  0  0  0  0  0  0  0  0  0  0
  145.7332  140.5040  154.4560 H   0  0  0  0  0  0  0  0  0  0  0  0
  146.7320  140.2739  153.0435 H   0  0  0  0  0  0  0  0  0  0  0  0
  147.3013  139.1293  155.8296 H   0  0  0  0  0  0  0  0  0  0  0  0
  145.9587  138.8725  152.5356 H   0  0  0  0  0  0  0  0  0  0  0  0
  147.3988  137.8814  152.3110 H   0  0  0  0  0  0  0  0  0  0  0  0
  147.1711  135.9753  151.4884 H   0  0  0  0  0  0  0  0  0  0  0  0
  143.3410  133.2456  149.3719 H   0  0  0  0  0  0  0  0  0  0  0  0
  144.3769  131.0993  150.1545 H   0  0  0  0  0  0  0  0  0  0  0  0
  146.3178  131.2122  151.7114 H   0  0  0  0  0  0  0  0  0  0  0  0
  148.2170  131.6769  152.4599 H   0  0  0  0  0  0  0  0  0  0  0  0
  1  2  1  0  0  0  0
  1 23  1  0  0  0  0
  1 24  1  0  0  0  0
  1 25  1  0  0  0  0
  2  7  1  0  0  0  0
  2  3  1  0  0  0  0
  2 26  1  0  0  0  0
  3  4  1  0  0  0  0
  3 27  1  0  0  0  0
  3 28  1  0  0  0  0
  4  5  1  0  0  0  0
  4 29  1  0  0  0  0
  4 30  1  0  0  0  0
  5  6  1  0  0  0  0
  5 31  1  0  0  0  0
  5 32  1  0  0  0  0
  6  7  1  0  0  0  0
  6 33  1  0  0  0  0
  6 34  1  0  0  0  0
  7  8  1  0  0  0  0
  7 35  1  0  0  0  0
  8  9  1  0  0  0  0
  9 10  1  0  0  0  0
  9 36  1  0  0  0  0
  9 37  1  0  0  0  0
 10 11  2  0  0  0  0
 10 12  1  0  0  0  0
 12 13  1  0  0  0  0
 12 38  1  0  0  0  0
 13 18  1  0  0  0  0
 13 14  2  0  0  0  0
 14 15  1  0  0  0  0
 15 16  2  0  0  0  0
 15 39  1  0  0  0  0
 16 17  1  0  0  0  0
 16 40  1  0  0  0  0
 17 18  2  0  0  0  0
 17 41  1  0  0  0  0
 18 19  1  0  0  0  0
 19 20  1  0  0  0  0
 20 21  1  0  0  0  0
 20 22  1  0  0  0  0
 20 42  1  0  0  0  0
M  END
> <s_m_source_file>
AV-unprocessed.smi

> <i_m_source_file_index>
2478

> <i_lp_mmshare_version>
43012

> <i_f3d_flags>
0

> <s_epik_input>
W0NIM11bQ0BASF0xW0NIMl1bQ0gyXVtDSDJdW0NIMl1bQ0BIXTFPW0NIMl1DKD1PKVtOSF1jMm5bY0hdW2NIXVtjSF1jMk9bQ0hdKEYpRg==

> <s_epik_cmdline>
J2VwaWtfcHl0aG9uJywgJy1waCcsICc3LjAnLCAnLXRuJywgJzgnLCAnLW1hJywgJzIwMCcsICctbWV0YWxfYmluZGluZycsICctaW1hZScsICc8aW5maWxlLm1hZT4nLCAnLW9tYWUnLCAnPG91dGZpbGUubWFlPic=

> <r_lp_tautomer_probability>
1

> <r_epik_Ionization_Penalty>
6.06012e-05

> <r_epik_Ionization_Penalty_Charging>
0

> <r_epik_Ionization_Penalty_Neutral>
6.06012e-05

> <r_epik_State_Penalty>
-0

> <r_epik_Charging_Adjusted_Penalty>
0

> <i_epik_Tot_Q>
0

> <i_epik_Tot_abs_Q>
0

> <r_epik_Metal_State_Penalty>
-0

> <b_epik_Metal_Only>
0

> <s_lp_Force_Field>
OPLS_2005

> <r_lp_Energy>
14.0723

> <b_lp_Chiralities_Consistent>
1

> <s_lp_Variant>
AV-unprocessed.smi:2478-1

> <Gold.Version>
5.8.1

> <Gold.Id.Protein>
6NUR|6NUR_protein|mol2

> <Gold.PLP.Fitness>
40.3783

> <Gold.PLP.PLP>
-35.8913

> <Gold.PLP.part.hbond>
-1.0000

> <Gold.PLP.part.metal>
0.0000

> <Gold.PLP.part.buried>
-6.1173

> <Gold.PLP.part.nonpolar>
-32.3267

> <Gold.PLP.part.repulsive>
1.4575

> <Gold.PLP.ligand.clash>
0.0000

> <Gold.PLP.ligand.torsion>
0.7867

> <Gold.PLP.Chemscore.Hbond>
0.9920

> <Gold.PLP.Chemscore.CHOScore>
1.0000

> <Gold.PLP.Chemscore.Metal>
0.0000

> <Gold.Chemscore.Hbonds>
donor molecule, donor type, donor heavy atom, donor atom, acceptor molecule, acceptor atom, score
      L1  H    12    38       P1  7948  1.00
      L1  C    15    39       P1 10186  0.78

> <Gold.PLP.Chemscore.Internal.Correction>
0.0843

> <Gold.Rescore>
     Score         DG    S(hbond)    S(metal)    S(lipo)     H(rot)  DE(clash)    DE(int)     intcor
     12.37     -13.41       0.97        0.00      80.50       1.85       0.15       0.89       ----

> <Gold.Chemscore.Fitness>
12.3716

> <Gold.Chemscore.DG>
-13.4076

> <Gold.Chemscore.ZeroCoef>
-5.4800

> <Gold.Chemscore.Hbond>
0.9702

> <Gold.Chemscore.Metal>
0.0000

> <Gold.Chemscore.Lipo>
80.4975

> <Gold.Chemscore.Internal_Hbond>
0.0000

> <Gold.Chemscore.DEClash>
0.1483

> <Gold.Chemscore.DEInternal>
0.8877

> <Gold.Chemscore.Rot>
1.8481

> <Gold.Chemscore.Internal.Correction>
   9.000000E+99

> <Gold.Chemscore.Hbonds>
donor molecule, donor type, donor heavy atom, donor atom, acceptor molecule, acceptor atom, score
      L1  H    12    38       P1  7948  0.98

> <Gold.Chemscore.Hbond.Weighted>
-3.2405

> <Gold.Chemscore.Metal.Weighted>
-0.0000

> <Gold.Chemscore.Lipo.Weighted>
-9.4182

> <Gold.Chemscore.Internal_Hbond.Weighted>
0.0000

> <Gold.Chemscore.DEClash.Weighted>
0.1483

> <Gold.Chemscore.DEInternal.Weighted>
0.8877

> <Gold.Chemscore.Rot.Weighted>
4.7311

> <Gold.Chemscore.Internal.Correction.Weighted>
   9.000000E+99

> <Gold.Protein.RotatedTorsions>
[ 6907 6896 6895 6894 ] final  -58.14 input  -60.11 | X-H torsion
[ 7974 7965 7964 7962 ] final  106.13 input  175.53 | X-H torsion
[ 8008 7997 7996 7995 ] final  -30.10 input   59.86 | X-H torsion
[ 10167 10162 10161 10158 ] final    6.20 input  -65.29 | X-H torsion
[ 10718 10713 10712 10709 ] final  152.60 input   66.30 | X-H torsion
[ 10763 10752 10751 10750 ] final   61.01 input  -60.55 | X-H torsion
[ 11005 11000 10999 10996 ] final   -3.91 input  -57.11 | X-H torsion

> <Gold.Protein.ActiveResidues>
 VAL166  LYS551  ARG553  GLY616  TRP617  ASP618  TYR619  PRO620  LYS621  CYS622 
 ASP623  PHE694  ASN695  SER759  ASP760  ASP761  ALA762  ILE779  LEU786  VAL792 
 PHE793  MET794  SER795  GLU796  ALA797  LYS798  CYS799  TRP800  GLU811  SER814 

> <Gold.Protein.RotatedAtoms>
  150.8030  134.7137  159.6617 H   0  0  0  0  0  0  0  0  0  0  0  0  # atno 6907 bound_to 6896
  152.4148  134.6057  160.0022 H   0  0  0  0  0  0  0  0  0  0  0  0  # atno 6908 bound_to 6896
  151.6289  133.3296  159.3140 H   0  0  0  0  0  0  0  0  0  0  0  0  # atno 6909 bound_to 6896
  145.3107  139.2541  143.3764 H   0  0  0  0  0  0  0  0  0  0  0  0  # atno 7974 bound_to 7965
  154.4263  140.1800  156.1353 H   0  0  0  0  0  0  0  0  0  0  0  0  # atno 8008 bound_to 7997
  156.0035  140.3357  155.6844 H   0  0  0  0  0  0  0  0  0  0  0  0  # atno 8009 bound_to 7997
  155.6210  140.0660  157.2668 H   0  0  0  0  0  0  0  0  0  0  0  0  # atno 8010 bound_to 7997
  140.6440  143.7706  150.7471 H   0  0  0  0  0  0  0  0  0  0  0  0  # atno 10167 bound_to 10162
  157.2557  131.0788  151.1700 H   0  0  0  0  0  0  0  0  0  0  0  0  # atno 10718 bound_to 10713
  152.9938  135.5516  154.5965 H   0  0  0  0  0  0  0  0  0  0  0  0  # atno 10763 bound_to 10752
  154.5316  135.2814  155.1177 H   0  0  0  0  0  0  0  0  0  0  0  0  # atno 10764 bound_to 10752
  154.2490  135.6402  153.5286 H   0  0  0  0  0  0  0  0  0  0  0  0  # atno 10765 bound_to 10752
  140.6745  133.9208  155.8515 H   0  0  0  0  0  0  0  0  0  0  0  0  # atno 11005 bound_to 11000
  146.3119  140.3642  142.8668 LP  0  0  0  0  0  0  0  0  0  0  0  0  # atno 17320 bound_to 7965
  144.9018  140.7652  143.5862 LP  0  0  0  0  0  0  0  0  0  0  0  0  # atno 17321 bound_to 7965
  140.1343  143.4498  152.2234 LP  0  0  0  0  0  0  0  0  0  0  0  0  # atno 17342 bound_to 10162
  139.5650  144.7429  151.4047 LP  0  0  0  0  0  0  0  0  0  0  0  0  # atno 17343 bound_to 10162
  157.3230  130.6947  149.6280 LP  0  0  0  0  0  0  0  0  0  0  0  0  # atno 17370 bound_to 10713
  155.9665  130.4330  150.4986 LP  0  0  0  0  0  0  0  0  0  0  0  0  # atno 17371 bound_to 10713
  141.0366  134.0680  157.3951 LP  0  0  0  0  0  0  0  0  0  0  0  0  # atno 17394 bound_to 11000
  139.8971  135.0149  156.7084 LP  0  0  0  0  0  0  0  0  0  0  0  0  # atno 17395 bound_to 11000

$$$$
