AV-unprocessed.smi:3163|AV-procd|sdf|12077|dock6
  -GOLD-   2272017503D 1   1.00000     0.00000
 Structure written by MMmdl.
 37 38  0  0  0  0  0  0  0  0  3 V2000
  144.1235  134.5490  148.0812 C   0  0  0  0  0  0  0  0  0  0  0  0
  143.8053  134.3594  149.5120 N   0  3  1  0  0  0  0  0  0  0  0  0
  144.1656  133.0263  150.0411 C   0  0  0  0  0  0  0  0  0  0  0  0
  144.5308  133.2556  151.5056 C   0  0  0  0  0  0  0  0  0  0  0  0
  145.2099  134.6223  151.4699 C   0  0  2  0  0  0  0  0  0  0  0  0
  145.3008  135.3084  152.8466 C   0  0  0  0  0  0  0  0  0  0  0  0
  146.3674  136.3045  152.8970 N   0  0  0  0  0  0  0  0  0  0  0  0
  146.2487  137.5519  153.3748 C   0  0  0  0  0  0  0  0  0  0  0  0
  145.1934  138.0147  153.8067 O   0  0  0  0  0  0  0  0  0  0  0  0
  147.4142  138.2173  153.2949 N   0  0  0  0  0  0  0  0  0  0  0  0
  147.7055  139.5496  153.6979 C   0  0  0  0  0  0  0  0  0  0  0  0
  148.9785  139.7982  154.2581 C   0  0  0  0  0  0  0  0  0  0  0  0
  149.3092  141.1005  154.6853 C   0  0  0  0  0  0  0  0  0  0  0  0
  148.4059  142.0967  154.5660 N   0  3  0  0  0  0  0  0  0  0  0  0
  147.1723  141.9056  154.0512 C   0  0  0  0  0  0  0  0  0  0  0  0
  146.7848  140.6250  153.6065 C   0  0  0  0  0  0  0  0  0  0  0  0
  144.3932  135.3801  150.4109 C   0  0  0  0  0  0  0  0  0  0  0  0
  145.1986  134.4913  147.9067 H   0  0  0  0  0  0  0  0  0  0  0  0
  143.7724  135.5229  147.7387 H   0  0  0  0  0  0  0  0  0  0  0  0
  143.6346  133.7837  147.4776 H   0  0  0  0  0  0  0  0  0  0  0  0
  143.3503  132.3129  149.9183 H   0  0  0  0  0  0  0  0  0  0  0  0
  145.0353  132.6362  149.5090 H   0  0  0  0  0  0  0  0  0  0  0  0
  143.6260  133.2958  152.1144 H   0  0  0  0  0  0  0  0  0  0  0  0
  145.1742  132.4722  151.9074 H   0  0  0  0  0  0  0  0  0  0  0  0
  146.2197  134.4771  151.0813 H   0  0  0  0  0  0  0  0  0  0  0  0
  144.3420  135.7508  153.1228 H   0  0  0  0  0  0  0  0  0  0  0  0
  145.5191  134.5603  153.6092 H   0  0  0  0  0  0  0  0  0  0  0  0
  147.2724  136.0109  152.5585 H   0  0  0  0  0  0  0  0  0  0  0  0
  148.1729  137.7269  152.8438 H   0  0  0  0  0  0  0  0  0  0  0  0
  149.7016  139.0012  154.3571 H   0  0  0  0  0  0  0  0  0  0  0  0
  150.2613  141.3720  155.1176 H   0  0  0  0  0  0  0  0  0  0  0  0
  146.5331  142.7758  154.0158 H   0  0  0  0  0  0  0  0  0  0  0  0
  145.7867  140.4930  153.2180 H   0  0  0  0  0  0  0  0  0  0  0  0
  145.0055  136.1105  149.8800 H   0  0  0  0  0  0  0  0  0  0  0  0
  143.5665  135.9200  150.8734 H   0  0  0  0  0  0  0  0  0  0  0  0
  142.8035  134.4471  149.6076 H   0  0  0  0  0  0  0  0  0  0  0  0
  148.6639  143.0318  154.8830 H   0  0  0  0  0  0  0  0  0  0  0  0
  1  2  1  0  0  0  0
  1 18  1  0  0  0  0
  1 19  1  0  0  0  0
  1 20  1  0  0  0  0
  2 17  1  0  0  0  0
  2  3  1  0  0  0  0
  2 36  1  0  0  0  0
  3  4  1  0  0  0  0
  3 21  1  0  0  0  0
  3 22  1  0  0  0  0
  4  5  1  0  0  0  0
  4 23  1  0  0  0  0
  4 24  1  0  0  0  0
  5  6  1  0  0  0  0
  5 17  1  0  0  0  0
  5 25  1  0  0  0  0
  6  7  1  0  0  0  0
  6 26  1  0  0  0  0
  6 27  1  0  0  0  0
  7  8  1  0  0  0  0
  7 28  1  0  0  0  0
  8  9  2  0  0  0  0
  8 10  1  0  0  0  0
 10 11  1  0  0  0  0
 10 29  1  0  0  0  0
 11 16  1  0  0  0  0
 11 12  2  0  0  0  0
 12 13  1  0  0  0  0
 12 30  1  0  0  0  0
 13 14  2  0  0  0  0
 13 31  1  0  0  0  0
 14 15  1  0  0  0  0
 14 37  1  0  0  0  0
 15 16  2  0  0  0  0
 15 32  1  0  0  0  0
 16 33  1  0  0  0  0
 17 34  1  0  0  0  0
 17 35  1  0  0  0  0
M  CHG  1   2   1
M  CHG  1  14   1
M  END
> <s_m_source_file>
AV-unprocessed.smi

> <i_m_source_file_index>
3163

> <i_lp_mmshare_version>
43012

> <i_f3d_flags>
0

> <s_epik_input>
W0NIM11OMVtDSDJdW0NIMl1bQ0BIXShbQ0gyXTEpW0NIMl1bTkhdQyg9TylbTkhdYzJbY0hdW2NIXW5bY0hdW2NIXTI=

> <s_epik_cmdline>
J2VwaWtfcHl0aG9uJywgJy1waCcsICc3LjAnLCAnLXRuJywgJzgnLCAnLW1hJywgJzIwMCcsICctbWV0YWxfYmluZGluZycsICctaW1hZScsICc8aW5maWxlLm1hZT4nLCAnLW9tYWUnLCAnPG91dGZpbGUubWFlPic=

> <r_epik_Ionization_Penalty>
1.09034

> <r_epik_Ionization_Penalty_Charging>
1.09032

> <r_epik_Ionization_Penalty_Neutral>
1.86664e-05

> <r_epik_State_Penalty>
1.14521

> <r_epik_Charging_Adjusted_Penalty>
2.23553

> <i_epik_Tot_Q>
2

> <i_epik_Tot_abs_Q>
2

> <r_epik_Metal_State_Penalty>
1.23399

> <b_epik_Metal_Only>
0

> <s_lp_Force_Field>
OPLS_2005

> <r_lp_Energy>
39.8127

> <b_lp_Chiralities_Consistent>
1

> <s_lp_Variant>
AV-unprocessed.smi:3163-7

> <Gold.Version>
5.8.1

> <Gold.Id.Protein>
6NUR|6NUR_protein|mol2

> <Gold.PLP.Fitness>
43.5332

> <Gold.PLP.PLP>
-26.6679

> <Gold.PLP.part.hbond>
-5.0000

> <Gold.PLP.part.metal>
0.0000

> <Gold.PLP.part.buried>
2.0855

> <Gold.PLP.part.nonpolar>
-25.7351

> <Gold.PLP.part.repulsive>
0.4882

> <Gold.PLP.ligand.clash>
0.0000

> <Gold.PLP.ligand.torsion>
0.5692

> <Gold.PLP.Chemscore.Hbond>
6.0000

> <Gold.PLP.Chemscore.CHOScore>
0.0000

> <Gold.PLP.Chemscore.Metal>
0.0000

> <Gold.Chemscore.Hbonds>
donor molecule, donor type, donor heavy atom, donor atom, acceptor molecule, acceptor atom, score
      L1  H     2    36       P1 10186  2.00
      L1  H     7    28       P1  7948  1.00
      L1  H    10    29       P1  7948  1.00
      L1  H    14    37       P1  8028  2.00

> <Gold.PLP.Chemscore.Internal.Correction>
0.0037

> <Gold.Rescore>
     Score         DG    S(hbond)    S(metal)    S(lipo)     H(rot)  DE(clash)    DE(int)     intcor
     21.81     -24.68       3.96        0.00      78.92       1.27       2.25       0.62       ----

> <Gold.Chemscore.Fitness>
21.8119

> <Gold.Chemscore.DG>
-24.6769

> <Gold.Chemscore.ZeroCoef>
-5.4800

> <Gold.Chemscore.Hbond>
3.9579

> <Gold.Chemscore.Metal>
0.0000

> <Gold.Chemscore.Lipo>
78.9230

> <Gold.Chemscore.Internal_Hbond>
0.0000

> <Gold.Chemscore.DEClash>
2.2486

> <Gold.Chemscore.DEInternal>
0.6164

> <Gold.Chemscore.Rot>
1.2721

> <Gold.Chemscore.Internal.Correction>
   9.000000E+99

> <Gold.Chemscore.Hbonds>
donor molecule, donor type, donor heavy atom, donor atom, acceptor molecule, acceptor atom, score
      L1  H     2    36       P1 10186  0.98
      L1  H     7    28       P1  7948  0.99
      L1  H    10    29       P1  7948  0.97
      L1  H    14    37       P1  8028  1.00

> <Gold.Chemscore.Hbond.Weighted>
-13.2193

> <Gold.Chemscore.Metal.Weighted>
-0.0000

> <Gold.Chemscore.Lipo.Weighted>
-9.2340

> <Gold.Chemscore.Internal_Hbond.Weighted>
0.0000

> <Gold.Chemscore.DEClash.Weighted>
2.2486

> <Gold.Chemscore.DEInternal.Weighted>
0.6164

> <Gold.Chemscore.Rot.Weighted>
3.2565

> <Gold.Chemscore.Internal.Correction.Weighted>
   9.000000E+99

> <Gold.Protein.RotatedTorsions>
[ 6907 6896 6895 6894 ] final  133.26 input  -60.11 | X-H torsion
[ 7974 7965 7964 7962 ] final -133.68 input  175.53 | X-H torsion
[ 8008 7997 7996 7995 ] final  -16.21 input   59.86 | X-H torsion
[ 10167 10162 10161 10158 ] final  -86.72 input  -65.29 | X-H torsion
[ 10718 10713 10712 10709 ] final -116.01 input   66.30 | X-H torsion
[ 10763 10752 10751 10750 ] final  147.53 input  -60.55 | X-H torsion
[ 11005 11000 10999 10996 ] final  129.24 input  -57.11 | X-H torsion

> <Gold.Protein.ActiveResidues>
 VAL166  LYS551  ARG553  GLY616  TRP617  ASP618  TYR619  PRO620  LYS621  CYS622 
 ASP623  PHE694  ASN695  SER759  ASP760  ASP761  ALA762  ILE779  LEU786  VAL792 
 PHE793  MET794  SER795  GLU796  ALA797  LYS798  CYS799  TRP800  GLU811  SER814 

> <Gold.Protein.RotatedAtoms>
  152.3238  133.5883  159.5762 H   0  0  0  0  0  0  0  0  0  0  0  0  # atno 6907 bound_to 6896
  150.7386  133.9970  159.3635 H   0  0  0  0  0  0  0  0  0  0  0  0  # atno 6908 bound_to 6896
  151.7852  135.0751  160.0430 H   0  0  0  0  0  0  0  0  0  0  0  0  # atno 6909 bound_to 6896
  144.9171  140.6968  143.4989 H   0  0  0  0  0  0  0  0  0  0  0  0  # atno 7974 bound_to 7965
  154.5070  140.2175  155.9230 H   0  0  0  0  0  0  0  0  0  0  0  0  # atno 8008 bound_to 7997
  156.1506  140.3162  155.8609 H   0  0  0  0  0  0  0  0  0  0  0  0  # atno 8009 bound_to 7997
  155.3945  140.0480  157.3030 H   0  0  0  0  0  0  0  0  0  0  0  0  # atno 8010 bound_to 7997
  140.3914  143.2703  151.9260 H   0  0  0  0  0  0  0  0  0  0  0  0  # atno 10167 bound_to 10162
  156.0934  130.6112  150.8980 H   0  0  0  0  0  0  0  0  0  0  0  0  # atno 10718 bound_to 10713
  154.0399  135.2890  155.3356 H   0  0  0  0  0  0  0  0  0  0  0  0  # atno 10763 bound_to 10752
  154.6935  135.5217  153.8429 H   0  0  0  0  0  0  0  0  0  0  0  0  # atno 10764 bound_to 10752
  153.0604  135.6611  154.0604 H   0  0  0  0  0  0  0  0  0  0  0  0  # atno 10765 bound_to 10752
  139.9604  134.9603  156.9119 H   0  0  0  0  0  0  0  0  0  0  0  0  # atno 11005 bound_to 11000
  145.3358  139.1746  143.4512 LP  0  0  0  0  0  0  0  0  0  0  0  0  # atno 17320 bound_to 7965
  146.3187  140.3393  142.8646 LP  0  0  0  0  0  0  0  0  0  0  0  0  # atno 17321 bound_to 7965
  139.4789  144.5724  151.8067 LP  0  0  0  0  0  0  0  0  0  0  0  0  # atno 17342 bound_to 10162
  140.4836  144.1414  150.5937 LP  0  0  0  0  0  0  0  0  0  0  0  0  # atno 17343 bound_to 10162
  157.6089  131.0937  150.8830 LP  0  0  0  0  0  0  0  0  0  0  0  0  # atno 17370 bound_to 10713
  156.8973  130.5234  149.5284 LP  0  0  0  0  0  0  0  0  0  0  0  0  # atno 17371 bound_to 10713
  140.5512  134.0625  155.7370 LP  0  0  0  0  0  0  0  0  0  0  0  0  # atno 17394 bound_to 11000
  141.1281  133.9349  157.2593 LP  0  0  0  0  0  0  0  0  0  0  0  0  # atno 17395 bound_to 11000

$$$$
