AV-unprocessed.smi:249|AV-procd|sdf|1900|dock7
  -GOLD-   2262020573D 1   1.00000     0.00000
 Structure written by MMmdl.
 64 67  0  0  0  0  0  0  0  0  2 V2000
  147.7675  128.1798  151.8348 C   0  0  0  0  0  0  0  0  0  0  0  0
  146.9226  129.2055  152.6080 C   0  0  0  0  0  0  0  0  0  0  0  0
  147.3823  130.6139  152.4319 N   0  3  2  0  0  0  0  0  0  0  0  0
  148.3278  131.0261  153.5095 C   0  0  0  0  0  0  0  0  0  0  0  0
  148.8684  132.4497  153.2991 C   0  0  0  0  0  0  0  0  0  0  0  0
  147.7265  133.4830  153.2214 C   0  0  2  0  0  0  0  0  0  0  0  0
  146.9994  133.6559  154.4899 N   0  0  0  0  0  0  0  0  0  0  0  0
  145.7723  134.4460  154.4549 C   0  0  0  0  0  0  0  0  0  0  0  0
  147.7675  134.0277  155.5387 C   0  0  0  0  0  0  0  0  0  0  0  0
  147.9606  133.1165  156.5234 N   0  0  0  0  0  0  0  0  0  0  0  0
  148.7155  133.4294  157.5813 C   0  0  0  0  0  0  0  0  0  0  0  0
  149.3515  134.5733  157.8447 N   0  0  0  0  0  0  0  0  0  0  0  0
  149.1531  135.4922  156.8565 C   0  0  0  0  0  0  0  0  0  0  0  0
  148.3817  135.3042  155.6759 C   0  0  0  0  0  0  0  0  0  0  0  0
  148.4071  136.4573  154.9012 N   0  0  0  0  0  0  0  0  0  0  0  0
  149.1486  137.2836  155.5877 C   0  0  0  0  0  0  0  0  0  0  0  0
  149.6424  136.7839  156.7715 N   0  0  0  0  0  0  0  0  0  0  0  0
  150.4857  137.4881  157.7219 C   0  0  0  0  0  0  0  0  0  0  0  0
  150.7875  138.9489  157.3055 C   0  0  2  0  0  0  0  0  0  0  0  0
  151.6879  139.0378  156.0490 C   0  0  0  0  0  0  0  0  0  0  0  0
  151.4834  140.2494  155.3515 O   0  0  0  0  0  0  0  0  0  0  0  0
  151.3493  139.7771  158.4891 C   0  0  2  0  0  0  0  0  0  0  0  0
  151.5147  141.2606  158.2094 C   0  0  0  0  0  0  0  0  0  0  0  0
  152.4751  141.6870  159.3129 C   0  0  0  0  0  0  0  0  0  0  0  0
  153.3344  140.5721  159.5170 O   0  0  0  0  0  0  0  0  0  0  0  0
  152.7774  139.4102  158.9090 C   0  0  0  0  0  0  0  0  0  0  0  0
  146.8077  133.0300  152.0716 C   0  0  0  0  0  0  0  0  0  0  0  0
  146.2611  131.5966  152.2674 C   0  0  1  0  0  0  0  0  0  0  0  0
  145.3312  131.2613  151.0827 C   0  0  0  0  0  0  0  0  0  0  0  0
  147.2929  127.1985  151.8650 H   0  0  0  0  0  0  0  0  0  0  0  0
  148.7640  128.0586  152.2585 H   0  0  0  0  0  0  0  0  0  0  0  0
  147.8717  128.4614  150.7866 H   0  0  0  0  0  0  0  0  0  0  0  0
  145.9069  129.0910  152.2370 H   0  0  0  0  0  0  0  0  0  0  0  0
  146.8968  128.9528  153.6689 H   0  0  0  0  0  0  0  0  0  0  0  0
  147.8319  130.9474  154.4779 H   0  0  0  0  0  0  0  0  0  0  0  0
  149.1842  130.3549  153.5424 H   0  0  0  0  0  0  0  0  0  0  0  0
  149.5835  132.7002  154.0830 H   0  0  0  0  0  0  0  0  0  0  0  0
  149.4399  132.4771  152.3704 H   0  0  0  0  0  0  0  0  0  0  0  0
  148.1529  134.4500  152.9523 H   0  0  0  0  0  0  0  0  0  0  0  0
  145.4596  134.7616  155.4520 H   0  0  0  0  0  0  0  0  0  0  0  0
  144.9576  133.8575  154.0330 H   0  0  0  0  0  0  0  0  0  0  0  0
  145.9034  135.3386  153.8419 H   0  0  0  0  0  0  0  0  0  0  0  0
  148.8252  132.6534  158.3245 H   0  0  0  0  0  0  0  0  0  0  0  0
  149.3596  138.2870  155.2472 H   0  0  0  0  0  0  0  0  0  0  0  0
  149.9791  137.4614  158.6868 H   0  0  0  0  0  0  0  0  0  0  0  0
  151.4145  136.9307  157.8480 H   0  0  0  0  0  0  0  0  0  0  0  0
  149.8327  139.3982  157.0280 H   0  0  0  0  0  0  0  0  0  0  0  0
  152.7422  138.9604  156.3149 H   0  0  0  0  0  0  0  0  0  0  0  0
  151.4892  138.2084  155.3706 H   0  0  0  0  0  0  0  0  0  0  0  0
  150.9825  140.8326  155.9008 H   0  0  0  0  0  0  0  0  0  0  0  0
  150.6949  139.6671  159.3555 H   0  0  0  0  0  0  0  0  0  0  0  0
  151.9734  141.4177  157.2322 H   0  0  0  0  0  0  0  0  0  0  0  0
  150.5754  141.8134  158.2411 H   0  0  0  0  0  0  0  0  0  0  0  0
  153.0368  142.5853  159.0562 H   0  0  0  0  0  0  0  0  0  0  0  0
  151.9298  141.8797  160.2375 H   0  0  0  0  0  0  0  0  0  0  0  0
  152.8031  138.5618  159.5935 H   0  0  0  0  0  0  0  0  0  0  0  0
  153.3859  139.1591  158.0392 H   0  0  0  0  0  0  0  0  0  0  0  0
  145.9873  133.7358  151.9394 H   0  0  0  0  0  0  0  0  0  0  0  0
  147.3694  133.0702  151.1370 H   0  0  0  0  0  0  0  0  0  0  0  0
  145.6614  131.5775  153.1790 H   0  0  0  0  0  0  0  0  0  0  0  0
  144.6285  132.0745  150.8979 H   0  0  0  0  0  0  0  0  0  0  0  0
  144.7216  130.3776  151.2676 H   0  0  0  0  0  0  0  0  0  0  0  0
  145.8963  131.1035  150.1634 H   0  0  0  0  0  0  0  0  0  0  0  0
  147.9040  130.6381  151.5673 H   0  0  0  0  0  0  0  0  0  0  0  0
  1  2  1  0  0  0  0
  1 30  1  0  0  0  0
  1 31  1  0  0  0  0
  1 32  1  0  0  0  0
  2  3  1  0  0  0  0
  2 33  1  0  0  0  0
  2 34  1  0  0  0  0
  3 28  1  0  0  0  0
  3  4  1  0  0  0  0
  3 64  1  0  0  0  0
  4  5  1  0  0  0  0
  4 35  1  0  0  0  0
  4 36  1  0  0  0  0
  5  6  1  0  0  0  0
  5 37  1  0  0  0  0
  5 38  1  0  0  0  0
  6  7  1  0  0  0  0
  6 27  1  0  0  0  0
  6 39  1  0  0  0  0
  7  8  1  0  0  0  0
  7  9  1  0  0  0  0
  8 40  1  0  0  0  0
  8 41  1  0  0  0  0
  8 42  1  0  0  0  0
  9 14  1  0  0  0  0
  9 10  2  0  0  0  0
 10 11  1  0  0  0  0
 11 12  2  0  0  0  0
 11 43  1  0  0  0  0
 12 13  1  0  0  0  0
 13 17  1  0  0  0  0
 13 14  2  0  0  0  0
 14 15  1  0  0  0  0
 15 16  2  0  0  0  0
 16 17  1  0  0  0  0
 16 44  1  0  0  0  0
 17 18  1  0  0  0  0
 18 19  1  0  0  0  0
 18 45  1  0  0  0  0
 18 46  1  0  0  0  0
 19 20  1  0  0  0  0
 19 22  1  0  0  0  0
 19 47  1  0  0  0  0
 20 21  1  0  0  0  0
 20 48  1  0  0  0  0
 20 49  1  0  0  0  0
 21 50  1  0  0  0  0
 22 26  1  0  0  0  0
 22 23  1  0  0  0  0
 22 51  1  0  0  0  0
 23 24  1  0  0  0  0
 23 52  1  0  0  0  0
 23 53  1  0  0  0  0
 24 25  1  0  0  0  0
 24 54  1  0  0  0  0
 24 55  1  0  0  0  0
 25 26  1  0  0  0  0
 26 56  1  0  0  0  0
 26 57  1  0  0  0  0
 27 28  1  0  0  0  0
 27 58  1  0  0  0  0
 27 59  1  0  0  0  0
 28 29  1  0  0  0  0
 28 60  1  0  0  0  0
 29 61  1  0  0  0  0
 29 62  1  0  0  0  0
 29 63  1  0  0  0  0
M  CHG  1   3   1
M  END
> <s_m_source_file>
AV-unprocessed.smi

> <i_m_source_file_index>
249

> <i_lp_mmshare_version>
43012

> <i_f3d_flags>
0

> <s_epik_input>
W0NIM11bQ0gyXU4xW0NIMl1bQ0gyXVtDQEhdKFtDSDJdW0NASF0xW0NIM10pTihbQ0gzXSljKG5bY0hdbjIpYyhjMjMpbltjSF1uM1tDSDJdW0NASF0oW0NIMl1bT0hdKVtDQEBIXTRbQ0gyXVtDSDJdT1tDSDJdNA==

> <s_epik_cmdline>
J2VwaWtfcHl0aG9uJywgJy1waCcsICc3LjAnLCAnLXRuJywgJzgnLCAnLW1hJywgJzIwMCcsICctbWV0YWxfYmluZGluZycsICctaW1hZScsICc8aW5maWxlLm1hZT4nLCAnLW9tYWUnLCAnPG91dGZpbGUubWFlPic=

> <r_lp_tautomer_probability>
1

> <r_epik_Ionization_Penalty>
0.00294688

> <r_epik_Ionization_Penalty_Charging>
0.00169971

> <r_epik_Ionization_Penalty_Neutral>
0.00124717

> <r_epik_State_Penalty>
-0

> <r_epik_Charging_Adjusted_Penalty>
0.00169971

> <i_epik_Tot_Q>
1

> <i_epik_Tot_abs_Q>
1

> <r_epik_Metal_State_Penalty>
-0

> <b_epik_Metal_Only>
0

> <s_lp_Force_Field>
OPLS_2005

> <r_lp_Energy>
57.7525

> <b_lp_Chiralities_Consistent>
1

> <s_lp_Variant>
AV-unprocessed.smi:249-3

> <Gold.Version>
5.8.1

> <Gold.Id.Protein>
6NUR|6NUR_protein|mol2

> <Gold.PLP.Fitness>
44.4373

> <Gold.PLP.PLP>
-36.9988

> <Gold.PLP.part.hbond>
-3.0000

> <Gold.PLP.part.metal>
0.0000

> <Gold.PLP.part.buried>
-6.6665

> <Gold.PLP.part.nonpolar>
-28.1112

> <Gold.PLP.part.repulsive>
0.2703

> <Gold.PLP.ligand.clash>
0.0000

> <Gold.PLP.ligand.torsion>
1.0392

> <Gold.PLP.Chemscore.Hbond>
2.9600

> <Gold.PLP.Chemscore.CHOScore>
0.0000

> <Gold.PLP.Chemscore.Metal>
0.0000

> <Gold.Chemscore.Hbonds>
donor molecule, donor type, donor heavy atom, donor atom, acceptor molecule, acceptor atom, score
      L1  H     3    64       P1 10747  1.00
      P1  H  6896  6907       L1    12  0.86
      P1  H  7989  7998       L1    21  0.96

> <Gold.PLP.Chemscore.Internal.Correction>
0.6368

> <Gold.Rescore>
     Score         DG    S(hbond)    S(metal)    S(lipo)     H(rot)  DE(clash)    DE(int)     intcor
     17.43     -18.60       2.75        0.00      97.01       2.90       0.02       1.14       ----

> <Gold.Chemscore.Fitness>
17.4318

> <Gold.Chemscore.DG>
-18.5975

> <Gold.Chemscore.ZeroCoef>
-5.4800

> <Gold.Chemscore.Hbond>
2.7523

> <Gold.Chemscore.Metal>
0.0000

> <Gold.Chemscore.Lipo>
97.0113

> <Gold.Chemscore.Internal_Hbond>
0.0000

> <Gold.Chemscore.DEClash>
0.0208

> <Gold.Chemscore.DEInternal>
1.1449

> <Gold.Chemscore.Rot>
2.9006

> <Gold.Chemscore.Internal.Correction>
   9.000000E+99

> <Gold.Chemscore.Hbonds>
donor molecule, donor type, donor heavy atom, donor atom, acceptor molecule, acceptor atom, score
      L1  H     3    64       P1 10747  1.00
      P1  H  6896  6907       L1    12  0.24
      P1  H  7989  7998       L1    21  0.78

> <Gold.Chemscore.Hbond.Weighted>
-9.1928

> <Gold.Chemscore.Metal.Weighted>
-0.0000

> <Gold.Chemscore.Lipo.Weighted>
-11.3503

> <Gold.Chemscore.Internal_Hbond.Weighted>
0.0000

> <Gold.Chemscore.DEClash.Weighted>
0.0208

> <Gold.Chemscore.DEInternal.Weighted>
1.1449

> <Gold.Chemscore.Rot.Weighted>
7.4256

> <Gold.Chemscore.Internal.Correction.Weighted>
   9.000000E+99

> <Gold.Protein.RotatedTorsions>
[ 6907 6896 6895 6894 ] final -110.77 input  -60.11 | X-H torsion
[ 7974 7965 7964 7962 ] final  156.55 input  175.53 | X-H torsion
[ 8008 7997 7996 7995 ] final  134.54 input   59.86 | X-H torsion
[ 10167 10162 10161 10158 ] final  -86.14 input  -65.29 | X-H torsion
[ 10718 10713 10712 10709 ] final   -7.19 input   66.30 | X-H torsion
[ 10763 10752 10751 10750 ] final  100.47 input  -60.55 | X-H torsion
[ 11005 11000 10999 10996 ] final  -86.07 input  -57.11 | X-H torsion

> <Gold.Protein.ActiveResidues>
 VAL166  LYS551  ARG553  GLY616  TRP617  ASP618  TYR619  PRO620  LYS621  CYS622 
 ASP623  PHE694  ASN695  SER759  ASP760  ASP761  ALA762  ILE779  LEU786  VAL792 
 PHE793  MET794  SER795  GLU796  ALA797  LYS798  CYS799  TRP800  GLU811  SER814 

> <Gold.Protein.RotatedAtoms>
  150.7647  133.9332  159.3433 H   0  0  0  0  0  0  0  0  0  0  0  0  # atno 6907 bound_to 6896
  151.7233  135.0888  160.0297 H   0  0  0  0  0  0  0  0  0  0  0  0  # atno 6908 bound_to 6896
  152.3636  133.6290  159.6069 H   0  0  0  0  0  0  0  0  0  0  0  0  # atno 6909 bound_to 6896
  144.7956  139.7219  143.6203 H   0  0  0  0  0  0  0  0  0  0  0  0  # atno 7974 bound_to 7965
  156.2999  140.2493  156.3434 H   0  0  0  0  0  0  0  0  0  0  0  0  # atno 8008 bound_to 7997
  154.9034  140.0405  157.1925 H   0  0  0  0  0  0  0  0  0  0  0  0  # atno 8009 bound_to 7997
  154.8478  140.2901  155.5622 H   0  0  0  0  0  0  0  0  0  0  0  0  # atno 8010 bound_to 7997
  140.3970  143.2679  151.9191 H   0  0  0  0  0  0  0  0  0  0  0  0  # atno 10167 bound_to 10162
  156.7208  130.5150  149.5868 H   0  0  0  0  0  0  0  0  0  0  0  0  # atno 10718 bound_to 10713
  153.3144  135.4078  155.1363 H   0  0  0  0  0  0  0  0  0  0  0  0  # atno 10763 bound_to 10752
  154.8584  135.3572  154.5680 H   0  0  0  0  0  0  0  0  0  0  0  0  # atno 10764 bound_to 10752
  153.6111  135.7068  153.5405 H   0  0  0  0  0  0  0  0  0  0  0  0  # atno 10765 bound_to 10752
  141.1634  133.7434  156.9108 H   0  0  0  0  0  0  0  0  0  0  0  0  # atno 11005 bound_to 11000
  146.2223  139.5658  142.9610 LP  0  0  0  0  0  0  0  0  0  0  0  0  # atno 17320 bound_to 7965
  145.5682  141.0397  143.2189 LP  0  0  0  0  0  0  0  0  0  0  0  0  # atno 17321 bound_to 7965
  139.4786  144.5671  151.8147 LP  0  0  0  0  0  0  0  0  0  0  0  0  # atno 17342 bound_to 10162
  140.4780  144.1491  150.5928 LP  0  0  0  0  0  0  0  0  0  0  0  0  # atno 17343 bound_to 10162
  156.1596  130.6365  151.0701 LP  0  0  0  0  0  0  0  0  0  0  0  0  # atno 17370 bound_to 10713
  157.6899  131.0813  150.7138 LP  0  0  0  0  0  0  0  0  0  0  0  0  # atno 17371 bound_to 10713
  140.1518  134.9225  157.2603 LP  0  0  0  0  0  0  0  0  0  0  0  0  # atno 17394 bound_to 11000
  140.2713  134.3456  155.7372 LP  0  0  0  0  0  0  0  0  0  0  0  0  # atno 17395 bound_to 11000

$$$$
