AV-unprocessed.smi:1417|AV-procd|sdf|5772|dock3
  -GOLD-   22720 5413D 1   1.00000     0.00000
 Structure written by MMmdl.
 39 40  0  0  0  0  0  0  0  0  3 V2000
  154.0300  137.6003  157.8222 C   0  0  0  0  0  0  0  0  0  0  0  0
  153.2424  137.7994  156.5729 C   0  0  0  0  0  0  0  0  0  0  0  0
  151.9117  137.6869  156.2844 C   0  0  0  0  0  0  0  0  0  0  0  0
  151.8559  138.0237  154.9006 C   0  0  0  0  0  0  0  0  0  0  0  0
  150.6916  138.0581  154.0906 N   0  0  0  0  0  0  0  0  0  0  0  0
  149.8388  139.0783  153.8987 C   0  0  0  0  0  0  0  0  0  0  0  0
  149.9379  140.1961  154.4043 O   0  0  0  0  0  0  0  0  0  0  0  0
  148.8444  138.7292  153.0690 N   0  0  0  0  0  0  0  0  0  0  0  0
  147.7564  139.6053  152.6350 C   0  0  2  0  0  0  0  0  0  0  0  0
  146.9616  140.1737  153.8277 C   0  0  0  0  0  0  0  0  0  0  0  0
  146.1175  139.0930  154.5252 C   0  0  0  0  0  0  0  0  0  0  0  0
  145.2068  138.4213  153.5603 N   0  3  2  0  0  0  0  0  0  0  0  0
  144.2657  137.4703  154.2051 C   0  0  0  0  0  0  0  0  0  0  0  0
  143.1600  137.0604  153.2265 C   0  0  0  0  0  0  0  0  0  0  0  0
  142.4622  138.1191  152.7678 N   0  5  0  0  0  0  0  0  0  0  0  0
  142.9997  135.8733  152.9532 O   0  0  0  0  0  0  0  0  0  0  0  0
  145.9551  137.8050  152.4358 C   0  0  0  0  0  0  0  0  0  0  0  0
  146.8039  138.8518  151.6904 C   0  0  0  0  0  0  0  0  0  0  0  0
  153.0433  138.3048  154.3968 N   0  0  0  0  0  0  0  0  0  0  0  0
  153.9385  138.1676  155.4639 O   0  0  0  0  0  0  0  0  0  0  0  0
  153.3900  137.2590  158.6361 H   0  0  0  0  0  0  0  0  0  0  0  0
  154.5037  138.5316  158.1326 H   0  0  0  0  0  0  0  0  0  0  0  0
  154.8118  136.8556  157.6721 H   0  0  0  0  0  0  0  0  0  0  0  0
  151.1220  137.4075  156.9652 H   0  0  0  0  0  0  0  0  0  0  0  0
  150.4921  137.2051  153.5894 H   0  0  0  0  0  0  0  0  0  0  0  0
  148.8486  137.7909  152.6966 H   0  0  0  0  0  0  0  0  0  0  0  0
  148.1973  140.4348  152.0790 H   0  0  0  0  0  0  0  0  0  0  0  0
  147.6292  140.6488  154.5471 H   0  0  0  0  0  0  0  0  0  0  0  0
  146.2986  140.9626  153.4699 H   0  0  0  0  0  0  0  0  0  0  0  0
  146.7651  138.3512  154.9952 H   0  0  0  0  0  0  0  0  0  0  0  0
  145.5414  139.5572  155.3260 H   0  0  0  0  0  0  0  0  0  0  0  0
  144.7908  136.5664  154.5191 H   0  0  0  0  0  0  0  0  0  0  0  0
  143.8378  137.9098  155.1076 H   0  0  0  0  0  0  0  0  0  0  0  0
  142.9685  138.9046  152.3420 H   0  0  0  0  0  0  0  0  0  0  0  0
  146.5865  137.0001  152.8150 H   0  0  0  0  0  0  0  0  0  0  0  0
  145.2537  137.3522  151.7340 H   0  0  0  0  0  0  0  0  0  0  0  0
  146.1371  139.5695  151.2100 H   0  0  0  0  0  0  0  0  0  0  0  0
  147.3654  138.3758  150.8854 H   0  0  0  0  0  0  0  0  0  0  0  0
  144.6238  139.1412  153.1557 H   0  0  0  0  0  0  0  0  0  0  0  0
  1  2  1  0  0  0  0
  1 21  1  0  0  0  0
  1 22  1  0  0  0  0
  1 23  1  0  0  0  0
  2 20  1  0  0  0  0
  2  3  2  0  0  0  0
  3  4  1  0  0  0  0
  3 24  1  0  0  0  0
  4  5  1  0  0  0  0
  4 19  2  0  0  0  0
  5  6  1  0  0  0  0
  5 25  1  0  0  0  0
  6  7  2  0  0  0  0
  6  8  1  0  0  0  0
  8  9  1  0  0  0  0
  8 26  1  0  0  0  0
  9 18  1  0  0  0  0
  9 10  1  0  0  0  0
  9 27  1  0  0  0  0
 10 11  1  0  0  0  0
 10 28  1  0  0  0  0
 10 29  1  0  0  0  0
 11 12  1  0  0  0  0
 11 30  1  0  0  0  0
 11 31  1  0  0  0  0
 12 13  1  0  0  0  0
 12 17  1  0  0  0  0
 12 39  1  0  0  0  0
 13 14  1  0  0  0  0
 13 32  1  0  0  0  0
 13 33  1  0  0  0  0
 14 15  1  0  0  0  0
 14 16  2  0  0  0  0
 15 34  1  0  0  0  0
 17 18  1  0  0  0  0
 17 35  1  0  0  0  0
 17 36  1  0  0  0  0
 18 37  1  0  0  0  0
 18 38  1  0  0  0  0
 19 20  1  0  0  0  0
M  CHG  1  12   1
M  CHG  1  15  -1
M  END
> <s_m_source_file>
AV-unprocessed.smi

> <i_m_source_file_index>
1417

> <i_lp_mmshare_version>
43012

> <i_f3d_flags>
0

> <s_epik_input>
W0NIM11jMVtjSF1jKG5vMSlbTkhdQyg9TylbTkhdW0NIXTJbQ0gyXVtDSDJdTihbQ0gyXVtDSDJdMilbQ0gyXUMoPU8pW05IMl0=

> <s_epik_cmdline>
J2VwaWtfcHl0aG9uJywgJy1waCcsICc3LjAnLCAnLXRuJywgJzgnLCAnLW1hJywgJzIwMCcsICctbWV0YWxfYmluZGluZycsICctaW1hZScsICc8aW5maWxlLm1hZT4nLCAnLW9tYWUnLCAnPG91dGZpbGUubWFlPic=

> <r_epik_Ionization_Penalty>
5.73218

> <r_epik_Ionization_Penalty_Charging>
5.73215

> <r_epik_Ionization_Penalty_Neutral>
3.37968e-05

> <r_epik_State_Penalty>
6.58009

> <r_epik_Charging_Adjusted_Penalty>
12.3122

> <i_epik_Tot_Q>
0

> <i_epik_Tot_abs_Q>
2

> <r_epik_Metal_State_Penalty>
2.55295

> <b_epik_Metal_Only>
1

> <s_lp_Force_Field>
OPLS_2005

> <r_lp_Energy>
7.04924

> <b_lp_Chiralities_Consistent>
1

> <s_lp_Variant>
AV-unprocessed.smi:1417-8

> <Gold.Version>
5.8.1

> <Gold.Id.Protein>
6NUR|6NUR_protein|mol2

> <Gold.PLP.Fitness>
41.8621

> <Gold.PLP.PLP>
-27.2246

> <Gold.PLP.part.hbond>
-7.0625

> <Gold.PLP.part.metal>
0.0000

> <Gold.PLP.part.buried>
1.3661

> <Gold.PLP.part.nonpolar>
-21.6557

> <Gold.PLP.part.repulsive>
0.4807

> <Gold.PLP.ligand.clash>
0.0000

> <Gold.PLP.ligand.torsion>
0.8046

> <Gold.PLP.Chemscore.Hbond>
5.4059

> <Gold.PLP.Chemscore.CHOScore>
0.0000

> <Gold.PLP.Chemscore.Metal>
0.0000

> <Gold.Chemscore.Hbonds>
donor molecule, donor type, donor heavy atom, donor atom, acceptor molecule, acceptor atom, score
      L1  H     8    26       P1  7948  1.00
      L1  H    12    39       P1 10175  2.00
      L1  H    15    34       P1 10175  1.00
      P1  H  7989  7998       L1     7  0.96
      P1  H  7997  8009       L1    20  0.45

> <Gold.PLP.Chemscore.Internal.Correction>
0.0288

> <Gold.Rescore>
     Score         DG    S(hbond)    S(metal)    S(lipo)     H(rot)  DE(clash)    DE(int)     intcor
     14.59     -16.94       3.42        0.00      44.32       2.02       0.54       1.81       ----

> <Gold.Chemscore.Fitness>
14.5889

> <Gold.Chemscore.DG>
-16.9355

> <Gold.Chemscore.ZeroCoef>
-5.4800

> <Gold.Chemscore.Hbond>
3.4236

> <Gold.Chemscore.Metal>
0.0000

> <Gold.Chemscore.Lipo>
44.3233

> <Gold.Chemscore.Internal_Hbond>
0.0000

> <Gold.Chemscore.DEClash>
0.5403

> <Gold.Chemscore.DEInternal>
1.8062

> <Gold.Chemscore.Rot>
2.0176

> <Gold.Chemscore.Internal.Correction>
   9.000000E+99

> <Gold.Chemscore.Hbonds>
donor molecule, donor type, donor heavy atom, donor atom, acceptor molecule, acceptor atom, score
      L1  H     8    26       P1  7948  1.00
      L1  H    12    39       P1 10175  1.00
      L1  H    15    34       P1 10175  0.94
      P1  H  7989  7998       L1     7  0.26
      P1  H  7997  8009       L1    20  0.06

> <Gold.Chemscore.Hbond.Weighted>
-11.4347

> <Gold.Chemscore.Metal.Weighted>
-0.0000

> <Gold.Chemscore.Lipo.Weighted>
-5.1858

> <Gold.Chemscore.Internal_Hbond.Weighted>
0.0000

> <Gold.Chemscore.DEClash.Weighted>
0.5403

> <Gold.Chemscore.DEInternal.Weighted>
1.8062

> <Gold.Chemscore.Rot.Weighted>
5.1651

> <Gold.Chemscore.Internal.Correction.Weighted>
   9.000000E+99

> <Gold.Protein.RotatedTorsions>
[ 6907 6896 6895 6894 ] final -158.06 input  -60.11 | X-H torsion
[ 7974 7965 7964 7962 ] final -112.05 input  175.53 | X-H torsion
[ 8008 7997 7996 7995 ] final -142.19 input   59.86 | X-H torsion
[ 10167 10162 10161 10158 ] final -104.30 input  -65.29 | X-H torsion
[ 10718 10713 10712 10709 ] final  153.47 input   66.30 | X-H torsion
[ 10763 10752 10751 10750 ] final   57.48 input  -60.55 | X-H torsion
[ 11005 11000 10999 10996 ] final  159.68 input  -57.11 | X-H torsion

> <Gold.Protein.ActiveResidues>
 VAL166  LYS551  ARG553  GLY616  TRP617  ASP618  TYR619  PRO620  LYS621  CYS622 
 ASP623  PHE694  ASN695  SER759  ASP760  ASP761  ALA762  ILE779  LEU786  VAL792 
 PHE793  MET794  SER795  GLU796  ALA797  LYS798  CYS799  TRP800  GLU811  SER814 

> <Gold.Protein.RotatedAtoms>
  151.3124  133.4075  159.2647 H   0  0  0  0  0  0  0  0  0  0  0  0  # atno 6907 bound_to 6896
  151.0103  134.9392  159.8014 H   0  0  0  0  0  0  0  0  0  0  0  0  # atno 6908 bound_to 6896
  152.5299  134.3088  159.9158 H   0  0  0  0  0  0  0  0  0  0  0  0  # atno 6909 bound_to 6896
  145.1487  140.8817  143.3659 H   0  0  0  0  0  0  0  0  0  0  0  0  # atno 7974 bound_to 7965
  155.4902  140.0567  157.2955 H   0  0  0  0  0  0  0  0  0  0  0  0  # atno 8008 bound_to 7997
  154.4626  140.2003  156.0154 H   0  0  0  0  0  0  0  0  0  0  0  0  # atno 8009 bound_to 7997
  156.0918  140.3232  155.7829 H   0  0  0  0  0  0  0  0  0  0  0  0  # atno 8010 bound_to 7997
  140.2108  143.3748  152.1052 H   0  0  0  0  0  0  0  0  0  0  0  0  # atno 10167 bound_to 10162
  157.2443  131.0766  151.1771 H   0  0  0  0  0  0  0  0  0  0  0  0  # atno 10718 bound_to 10713
  152.9851  135.5640  154.5397 H   0  0  0  0  0  0  0  0  0  0  0  0  # atno 10763 bound_to 10752
  154.4854  135.2790  155.1540 H   0  0  0  0  0  0  0  0  0  0  0  0  # atno 10764 bound_to 10752
  154.3032  135.6303  153.5487 H   0  0  0  0  0  0  0  0  0  0  0  0  # atno 10765 bound_to 10752
  140.1986  134.8355  157.2992 H   0  0  0  0  0  0  0  0  0  0  0  0  # atno 11005 bound_to 11000
  145.0454  139.3225  143.5956 LP  0  0  0  0  0  0  0  0  0  0  0  0  # atno 17320 bound_to 7965
  146.3497  139.9842  142.8692 LP  0  0  0  0  0  0  0  0  0  0  0  0  # atno 17321 bound_to 7965
  139.5181  144.7001  151.5519 LP  0  0  0  0  0  0  0  0  0  0  0  0  # atno 17342 bound_to 10162
  140.6325  143.9048  150.6618 LP  0  0  0  0  0  0  0  0  0  0  0  0  # atno 17343 bound_to 10162
  157.3345  130.7002  149.6344 LP  0  0  0  0  0  0  0  0  0  0  0  0  # atno 17370 bound_to 10713
  155.9668  130.4298  150.4847 LP  0  0  0  0  0  0  0  0  0  0  0  0  # atno 17371 bound_to 10713
  140.2080  134.4174  155.7628 LP  0  0  0  0  0  0  0  0  0  0  0  0  # atno 17394 bound_to 11000
  141.2227  133.7104  156.8291 LP  0  0  0  0  0  0  0  0  0  0  0  0  # atno 17395 bound_to 11000

$$$$
