AV-unprocessed.smi:1978|AV-procd|sdf|8007|dock6
  -GOLD-   2272010193D 1   1.00000     0.00000
 Structure written by MMmdl.
 44 45  0  0  0  0  0  0  0  0  3 V2000
  153.2213  141.9621  160.6785 C   0  0  0  0  0  0  0  0  0  0  0  0
  152.7522  141.3737  159.3919 C   0  0  0  0  0  0  0  0  0  0  0  0
  151.6795  141.6376  158.5883 C   0  0  0  0  0  0  0  0  0  0  0  0
  151.8320  140.7053  157.5258 C   0  0  0  0  0  0  0  0  0  0  0  0
  151.0229  140.5781  156.4626 N   0  5  0  0  0  0  0  0  0  0  0  0
  151.1677  139.5325  155.6172 C   0  0  0  0  0  0  0  0  0  0  0  0
  151.9814  139.4408  154.6954 O   0  0  0  0  0  0  0  0  0  0  0  0
  150.3138  138.5282  155.8542 N   0  0  0  0  0  0  0  0  0  0  0  0
  150.2348  137.2904  155.0869 C   0  0  0  0  0  0  0  0  0  0  0  0
  148.8987  136.5342  155.3219 C   0  0  1  0  0  0  0  0  0  0  0  0
  147.7115  137.5245  155.2095 C   0  0  0  0  0  0  0  0  0  0  0  0
  148.7243  135.3642  154.3912 N   0  3  2  0  0  0  0  0  0  0  0  0
  147.3494  134.7760  154.4105 C   0  0  0  0  0  0  0  0  0  0  0  0
  147.1515  133.7337  153.2972 C   0  0  0  0  0  0  0  0  0  0  0  0
  148.2010  132.6242  153.3749 C   0  0  0  0  0  0  0  0  0  0  0  0
  149.5996  133.2479  153.3609 C   0  0  0  0  0  0  0  0  0  0  0  0
  149.7813  134.3002  154.4751 C   0  0  2  0  0  0  0  0  0  0  0  0
  149.8889  133.6513  155.8732 C   0  0  0  0  0  0  0  0  0  0  0  0
  152.9110  139.9533  157.6642 N   0  0  0  0  0  0  0  0  0  0  0  0
  153.5036  140.3714  158.8617 O   0  0  0  0  0  0  0  0  0  0  0  0
  153.3850  143.0347  160.5744 H   0  0  0  0  0  0  0  0  0  0  0  0
  154.1581  141.5075  161.0018 H   0  0  0  0  0  0  0  0  0  0  0  0
  152.4823  141.8071  161.4645 H   0  0  0  0  0  0  0  0  0  0  0  0
  150.9063  142.3760  158.7380 H   0  0  0  0  0  0  0  0  0  0  0  0
  149.6651  138.6405  156.6194 H   0  0  0  0  0  0  0  0  0  0  0  0
  150.3556  137.5041  154.0233 H   0  0  0  0  0  0  0  0  0  0  0  0
  151.0949  136.7005  155.4006 H   0  0  0  0  0  0  0  0  0  0  0  0
  148.9099  136.1500  156.3428 H   0  0  0  0  0  0  0  0  0  0  0  0
  147.8695  138.4305  155.7936 H   0  0  0  0  0  0  0  0  0  0  0  0
  146.7813  137.1070  155.5906 H   0  0  0  0  0  0  0  0  0  0  0  0
  147.5500  137.8312  154.1756 H   0  0  0  0  0  0  0  0  0  0  0  0
  147.1438  134.3367  155.3869 H   0  0  0  0  0  0  0  0  0  0  0  0
  146.5907  135.5381  154.2516 H   0  0  0  0  0  0  0  0  0  0  0  0
  146.1518  133.3032  153.3641 H   0  0  0  0  0  0  0  0  0  0  0  0
  147.2109  134.2243  152.3248 H   0  0  0  0  0  0  0  0  0  0  0  0
  148.0564  132.0327  154.2793 H   0  0  0  0  0  0  0  0  0  0  0  0
  148.0864  131.9387  152.5346 H   0  0  0  0  0  0  0  0  0  0  0  0
  150.3565  132.4677  153.4501 H   0  0  0  0  0  0  0  0  0  0  0  0
  149.7679  133.7201  152.3919 H   0  0  0  0  0  0  0  0  0  0  0  0
  150.7449  134.7547  154.2515 H   0  0  0  0  0  0  0  0  0  0  0  0
  150.6735  132.8946  155.8859 H   0  0  0  0  0  0  0  0  0  0  0  0
  148.9642  133.1615  156.1765 H   0  0  0  0  0  0  0  0  0  0  0  0
  150.1420  134.3789  156.6436 H   0  0  0  0  0  0  0  0  0  0  0  0
  148.8304  135.7566  153.4666 H   0  0  0  0  0  0  0  0  0  0  0  0
  1  2  1  0  0  0  0
  1 21  1  0  0  0  0
  1 22  1  0  0  0  0
  1 23  1  0  0  0  0
  2 20  1  0  0  0  0
  2  3  2  0  0  0  0
  3  4  1  0  0  0  0
  3 24  1  0  0  0  0
  4  5  1  0  0  0  0
  4 19  2  0  0  0  0
  5  6  1  0  0  0  0
  6  7  2  0  0  0  0
  6  8  1  0  0  0  0
  8  9  1  0  0  0  0
  8 25  1  0  0  0  0
  9 10  1  0  0  0  0
  9 26  1  0  0  0  0
  9 27  1  0  0  0  0
 10 11  1  0  0  0  0
 10 12  1  0  0  0  0
 10 28  1  0  0  0  0
 11 29  1  0  0  0  0
 11 30  1  0  0  0  0
 11 31  1  0  0  0  0
 12 17  1  0  0  0  0
 12 13  1  0  0  0  0
 12 44  1  0  0  0  0
 13 14  1  0  0  0  0
 13 32  1  0  0  0  0
 13 33  1  0  0  0  0
 14 15  1  0  0  0  0
 14 34  1  0  0  0  0
 14 35  1  0  0  0  0
 15 16  1  0  0  0  0
 15 36  1  0  0  0  0
 15 37  1  0  0  0  0
 16 17  1  0  0  0  0
 16 38  1  0  0  0  0
 16 39  1  0  0  0  0
 17 18  1  0  0  0  0
 17 40  1  0  0  0  0
 18 41  1  0  0  0  0
 18 42  1  0  0  0  0
 18 43  1  0  0  0  0
 19 20  1  0  0  0  0
M  CHG  1   5  -1
M  CHG  1  12   1
M  END
> <s_m_source_file>
AV-unprocessed.smi

> <i_m_source_file_index>
1978

> <i_lp_mmshare_version>
43012

> <i_f3d_flags>
0

> <s_epik_input>
W0NIM11jMVtjSF1jKG5vMSlbTkhdQyg9TylbTkhdW0NIMl1bQ0BIXShbQ0gzXSlOMltDSDJdW0NIMl1bQ0gyXVtDSDJdW0NASF0yW0NIM10=

> <s_epik_cmdline>
J2VwaWtfcHl0aG9uJywgJy1waCcsICc3LjAnLCAnLXRuJywgJzgnLCAnLW1hJywgJzIwMCcsICctbWV0YWxfYmluZGluZycsICctaW1hZScsICc8aW5maWxlLm1hZT4nLCAnLW9tYWUnLCAnPG91dGZpbGUubWFlPic=

> <r_epik_Ionization_Penalty>
6.22372

> <r_epik_Ionization_Penalty_Charging>
6.22362

> <r_epik_Ionization_Penalty_Neutral>
9.65074e-05

> <r_epik_State_Penalty>
6.22363

> <r_epik_Charging_Adjusted_Penalty>
12.4472

> <i_epik_Tot_Q>
0

> <i_epik_Tot_abs_Q>
2

> <r_epik_Metal_State_Penalty>
2.16675

> <b_epik_Metal_Only>
1

> <s_lp_Force_Field>
OPLS_2005

> <r_lp_Energy>
15.9266

> <b_lp_Chiralities_Consistent>
1

> <s_lp_Variant>
AV-unprocessed.smi:1978-16

> <Gold.Version>
5.8.1

> <Gold.Id.Protein>
6NUR|6NUR_protein|mol2

> <Gold.PLP.Fitness>
40.6240

> <Gold.PLP.PLP>
-31.0406

> <Gold.PLP.part.hbond>
-3.8388

> <Gold.PLP.part.metal>
0.0000

> <Gold.PLP.part.buried>
-3.9120

> <Gold.PLP.part.nonpolar>
-22.4188

> <Gold.PLP.part.repulsive>
0.0953

> <Gold.PLP.ligand.clash>
0.0000

> <Gold.PLP.ligand.torsion>
1.0158

> <Gold.PLP.Chemscore.Hbond>
3.8240

> <Gold.PLP.Chemscore.CHOScore>
0.0000

> <Gold.PLP.Chemscore.Metal>
0.0000

> <Gold.Chemscore.Hbonds>
donor molecule, donor type, donor heavy atom, donor atom, acceptor molecule, acceptor atom, score
      L1  H    12    44       P1  7948  2.00
      P1  H  7989  7998       L1     7  0.93
      P1  H  7997  8009       L1    19  0.87

> <Gold.PLP.Chemscore.Internal.Correction>
0.1429

> <Gold.Rescore>
     Score         DG    S(hbond)    S(metal)    S(lipo)     H(rot)  DE(clash)    DE(int)     intcor
     15.77     -16.83       2.30        0.00      64.72       1.52       0.07       1.00       ----

> <Gold.Chemscore.Fitness>
15.7715

> <Gold.Chemscore.DG>
-16.8349

> <Gold.Chemscore.ZeroCoef>
-5.4800

> <Gold.Chemscore.Hbond>
2.2969

> <Gold.Chemscore.Metal>
0.0000

> <Gold.Chemscore.Lipo>
64.7163

> <Gold.Chemscore.Internal_Hbond>
0.0000

> <Gold.Chemscore.DEClash>
0.0661

> <Gold.Chemscore.DEInternal>
0.9973

> <Gold.Chemscore.Rot>
1.5190

> <Gold.Chemscore.Internal.Correction>
   9.000000E+99

> <Gold.Chemscore.Hbonds>
donor molecule, donor type, donor heavy atom, donor atom, acceptor molecule, acceptor atom, score
      L1  H    12    44       P1  7948  0.96
      P1  H  7989  7998       L1     7  0.58
      P1  H  7997  8009       L1    19  0.19

> <Gold.Chemscore.Hbond.Weighted>
-7.6717

> <Gold.Chemscore.Metal.Weighted>
-0.0000

> <Gold.Chemscore.Lipo.Weighted>
-7.5718

> <Gold.Chemscore.Internal_Hbond.Weighted>
0.0000

> <Gold.Chemscore.DEClash.Weighted>
0.0661

> <Gold.Chemscore.DEInternal.Weighted>
0.9973

> <Gold.Chemscore.Rot.Weighted>
3.8886

> <Gold.Chemscore.Internal.Correction.Weighted>
   9.000000E+99

> <Gold.Protein.RotatedTorsions>
[ 6907 6896 6895 6894 ] final -162.46 input  -60.11 | X-H torsion
[ 7974 7965 7964 7962 ] final   66.81 input  175.53 | X-H torsion
[ 8008 7997 7996 7995 ] final -174.31 input   59.86 | X-H torsion
[ 10167 10162 10161 10158 ] final -132.54 input  -65.29 | X-H torsion
[ 10718 10713 10712 10709 ] final   -6.48 input   66.30 | X-H torsion
[ 10763 10752 10751 10750 ] final  145.84 input  -60.55 | X-H torsion
[ 11005 11000 10999 10996 ] final  -90.12 input  -57.11 | X-H torsion

> <Gold.Protein.ActiveResidues>
 VAL166  LYS551  ARG553  GLY616  TRP617  ASP618  TYR619  PRO620  LYS621  CYS622 
 ASP623  PHE694  ASN695  SER759  ASP760  ASP761  ALA762  ILE779  LEU786  VAL792 
 PHE793  MET794  SER795  GLU796  ALA797  LYS798  CYS799  TRP800  GLU811  SER814 

> <Gold.Protein.RotatedAtoms>
  151.3806  133.3822  159.2709 H   0  0  0  0  0  0  0  0  0  0  0  0  # atno 6907 bound_to 6896
  150.9580  134.8973  159.7724 H   0  0  0  0  0  0  0  0  0  0  0  0  # atno 6908 bound_to 6896
  152.5138  134.3764  159.9388 H   0  0  0  0  0  0  0  0  0  0  0  0  # atno 6909 bound_to 6896
  145.8221  139.3091  143.1037 H   0  0  0  0  0  0  0  0  0  0  0  0  # atno 7974 bound_to 7965
  155.9685  140.1158  157.0833 H   0  0  0  0  0  0  0  0  0  0  0  0  # atno 8008 bound_to 7997
  154.4150  140.1168  156.5342 H   0  0  0  0  0  0  0  0  0  0  0  0  # atno 8009 bound_to 7997
  155.6628  140.3473  155.4791 H   0  0  0  0  0  0  0  0  0  0  0  0  # atno 8010 bound_to 7997
  139.9075  143.6533  152.2582 H   0  0  0  0  0  0  0  0  0  0  0  0  # atno 10167 bound_to 10162
  156.7312  130.5181  149.5845 H   0  0  0  0  0  0  0  0  0  0  0  0  # atno 10718 bound_to 10713
  154.0121  135.2913  155.3391 H   0  0  0  0  0  0  0  0  0  0  0  0  # atno 10763 bound_to 10752
  154.7097  135.5154  153.8651 H   0  0  0  0  0  0  0  0  0  0  0  0  # atno 10764 bound_to 10752
  153.0718  135.6650  154.0351 H   0  0  0  0  0  0  0  0  0  0  0  0  # atno 10765 bound_to 10752
  141.1572  133.7672  156.9692 H   0  0  0  0  0  0  0  0  0  0  0  0  # atno 11005 bound_to 11000
  145.9663  140.8796  143.0185 LP  0  0  0  0  0  0  0  0  0  0  0  0  # atno 17320 bound_to 7965
  144.6747  140.1883  143.7399 LP  0  0  0  0  0  0  0  0  0  0  0  0  # atno 17321 bound_to 7965
  139.6971  144.7640  151.1337 LP  0  0  0  0  0  0  0  0  0  0  0  0  # atno 17342 bound_to 10162
  140.7693  143.5508  150.9206 LP  0  0  0  0  0  0  0  0  0  0  0  0  # atno 17343 bound_to 10162
  156.1527  130.6321  151.0617 LP  0  0  0  0  0  0  0  0  0  0  0  0  # atno 17370 bound_to 10713
  157.6858  131.0825  150.7247 LP  0  0  0  0  0  0  0  0  0  0  0  0  # atno 17371 bound_to 10713
  140.1140  134.9459  157.2108 LP  0  0  0  0  0  0  0  0  0  0  0  0  # atno 17394 bound_to 11000
  140.3156  134.2974  155.7257 LP  0  0  0  0  0  0  0  0  0  0  0  0  # atno 17395 bound_to 11000

$$$$
