AV-unprocessed.smi:790|AV-procd|sdf|3744|dock1
  -GOLD-   22720 1173D 1   1.00000     0.00000
 Structure written by MMmdl.
 38 40  0  0  0  0  0  0  0  0  1 V2000
  145.3986  137.4479  154.1270 O   0  0  0  0  0  0  0  0  0  0  0  0
  146.4219  137.1165  153.5293 C   0  0  0  0  0  0  0  0  0  0  0  0
  147.5159  137.8824  153.3767 N   0  0  0  0  0  0  0  0  0  0  0  0
  147.7293  139.2221  153.8010 C   0  0  0  0  0  0  0  0  0  0  0  0
  149.0014  139.7825  154.0711 C   0  0  0  0  0  0  0  0  0  0  0  0
  149.0768  141.1200  154.5052 C   0  0  0  0  0  0  0  0  0  0  0  0
  147.8801  141.8456  154.6608 C   0  0  0  0  0  0  0  0  0  0  0  0
  146.6602  141.3208  154.4192 N   0  0  0  0  0  0  0  0  0  0  0  0
  146.5958  140.0381  154.0032 C   0  0  0  0  0  0  0  0  0  0  0  0
  146.5926  135.9179  152.9549 N   0  0  0  0  0  0  0  0  0  0  0  0
  145.6120  134.8300  152.9287 C   0  0  2  0  0  0  0  0  0  0  0  0
  146.2627  133.4367  153.1207 C   0  0  2  0  0  0  0  0  0  0  0  0
  147.4705  133.2441  152.1789 C   0  0  0  0  0  0  0  0  0  0  0  0
  146.8027  133.1432  150.7954 C   0  0  0  0  0  0  0  0  0  0  0  0
  145.2987  133.2452  151.1278 C   0  0  1  0  0  0  0  0  0  0  0  0
  145.2404  132.5140  152.4640 C   0  0  0  0  0  0  0  0  0  0  0  0
  144.8917  134.6753  151.5597 C   0  0  2  0  0  0  0  0  0  0  0  0
  145.1108  135.7922  150.5143 C   0  0  0  0  0  0  0  0  0  0  0  0
  144.4478  135.4719  149.3097 O   0  0  0  0  0  0  0  0  0  0  0  0
  148.3092  137.4388  152.9373 H   0  0  0  0  0  0  0  0  0  0  0  0
  149.9140  139.2165  153.9699 H   0  0  0  0  0  0  0  0  0  0  0  0
  150.0314  141.5777  154.7191 H   0  0  0  0  0  0  0  0  0  0  0  0
  147.9031  142.8727  154.9939 H   0  0  0  0  0  0  0  0  0  0  0  0
  145.6033  139.6512  153.8227 H   0  0  0  0  0  0  0  0  0  0  0  0
  147.4727  135.7381  152.4943 H   0  0  0  0  0  0  0  0  0  0  0  0
  144.8562  134.9755  153.7027 H   0  0  0  0  0  0  0  0  0  0  0  0
  146.4853  133.2018  154.1619 H   0  0  0  0  0  0  0  0  0  0  0  0
  148.2081  134.0444  152.2355 H   0  0  0  0  0  0  0  0  0  0  0  0
  147.9889  132.3137  152.4144 H   0  0  0  0  0  0  0  0  0  0  0  0
  147.1454  133.9135  150.1061 H   0  0  0  0  0  0  0  0  0  0  0  0
  147.0283  132.1787  150.3386 H   0  0  0  0  0  0  0  0  0  0  0  0
  144.6531  132.8250  150.3557 H   0  0  0  0  0  0  0  0  0  0  0  0
  145.5678  131.4742  152.4042 H   0  0  0  0  0  0  0  0  0  0  0  0
  144.2575  132.5489  152.9376 H   0  0  0  0  0  0  0  0  0  0  0  0
  143.8196  134.6550  151.7659 H   0  0  0  0  0  0  0  0  0  0  0  0
  144.7043  136.7340  150.8847 H   0  0  0  0  0  0  0  0  0  0  0  0
  146.1663  135.9646  150.3073 H   0  0  0  0  0  0  0  0  0  0  0  0
  145.0440  134.9906  148.7564 H   0  0  0  0  0  0  0  0  0  0  0  0
  1  2  2  0  0  0  0
  2  3  1  0  0  0  0
  2 10  1  0  0  0  0
  3  4  1  0  0  0  0
  3 20  1  0  0  0  0
  4  9  1  0  0  0  0
  4  5  2  0  0  0  0
  5  6  1  0  0  0  0
  5 21  1  0  0  0  0
  6  7  2  0  0  0  0
  6 22  1  0  0  0  0
  7  8  1  0  0  0  0
  7 23  1  0  0  0  0
  8  9  2  0  0  0  0
  9 24  1  0  0  0  0
 10 11  1  0  0  0  0
 10 25  1  0  0  0  0
 11 17  1  0  0  0  0
 11 12  1  0  0  0  0
 11 26  1  0  0  0  0
 12 16  1  0  0  0  0
 12 13  1  0  0  0  0
 12 27  1  0  0  0  0
 13 14  1  0  0  0  0
 13 28  1  0  0  0  0
 13 29  1  0  0  0  0
 14 15  1  0  0  0  0
 14 30  1  0  0  0  0
 14 31  1  0  0  0  0
 15 16  1  0  0  0  0
 15 17  1  0  0  0  0
 15 32  1  0  0  0  0
 16 33  1  0  0  0  0
 16 34  1  0  0  0  0
 17 18  1  0  0  0  0
 17 35  1  0  0  0  0
 18 19  1  0  0  0  0
 18 36  1  0  0  0  0
 18 37  1  0  0  0  0
 19 38  1  0  0  0  0
M  END
> <s_m_source_file>
AV-unprocessed.smi

> <i_m_source_file_index>
790

> <i_lp_mmshare_version>
43012

> <i_f3d_flags>
0

> <s_epik_input>
W0NIMl0xW0NIMl1bQ0BASF0oW0NIMl0yKVtDQEBIXShbQ0gyXVtPSF0pW0NAQEhdKFtDQEhdMTIpW05IXUMoPU8pW05IXWMzW2NIXVtjSF1bY0hdbltjSF0z

> <s_epik_cmdline>
J2VwaWtfcHl0aG9uJywgJy1waCcsICc3LjAnLCAnLXRuJywgJzgnLCAnLW1hJywgJzIwMCcsICctbWV0YWxfYmluZGluZycsICctaW1hZScsICc8aW5maWxlLm1hZT4nLCAnLW9tYWUnLCAnPG91dGZpbGUubWFlPic=

> <r_epik_Ionization_Penalty>
0.00497582

> <r_epik_Ionization_Penalty_Charging>
0

> <r_epik_Ionization_Penalty_Neutral>
0.00497582

> <r_epik_State_Penalty>
0.00358602

> <r_epik_Charging_Adjusted_Penalty>
0.00358602

> <i_epik_Tot_Q>
0

> <i_epik_Tot_abs_Q>
0

> <r_epik_Metal_State_Penalty>
-0

> <b_epik_Metal_Only>
0

> <s_lp_Force_Field>
OPLS_2005

> <r_lp_Energy>
54.3883

> <b_lp_Chiralities_Consistent>
1

> <s_lp_Variant>
AV-unprocessed.smi:790-5

> <Gold.Version>
5.8.1

> <Gold.Id.Protein>
6NUR|6NUR_protein|mol2

> <Gold.PLP.Fitness>
42.5582

> <Gold.PLP.PLP>
-28.3306

> <Gold.PLP.part.hbond>
-3.5301

> <Gold.PLP.part.metal>
0.0000

> <Gold.PLP.part.buried>
-0.1539

> <Gold.PLP.part.nonpolar>
-25.3824

> <Gold.PLP.part.repulsive>
0.2648

> <Gold.PLP.ligand.clash>
0.0000

> <Gold.PLP.ligand.torsion>
0.3917

> <Gold.PLP.Chemscore.Hbond>
3.0000

> <Gold.PLP.Chemscore.CHOScore>
2.0000

> <Gold.PLP.Chemscore.Metal>
0.0000

> <Gold.Chemscore.Hbonds>
donor molecule, donor type, donor heavy atom, donor atom, acceptor molecule, acceptor atom, score
      L1  H     3    20       P1  7948  1.00
      L1  H    10    25       P1  7948  1.00
      L1  H    19    38       P1  7921  1.00
      L1  C     7    23       P1  8028  1.00
      L1  C     9    24       P1 10175  1.00

> <Gold.PLP.Chemscore.Internal.Correction>
0.0109

> <Gold.Rescore>
     Score         DG    S(hbond)    S(metal)    S(lipo)     H(rot)  DE(clash)    DE(int)     intcor
     17.64     -19.56       2.95        0.00      75.08       1.78       0.21       1.71       ----

> <Gold.Chemscore.Fitness>
17.6396

> <Gold.Chemscore.DG>
-19.5612

> <Gold.Chemscore.ZeroCoef>
-5.4800

> <Gold.Chemscore.Hbond>
2.9488

> <Gold.Chemscore.Metal>
0.0000

> <Gold.Chemscore.Lipo>
75.0839

> <Gold.Chemscore.Internal_Hbond>
0.0000

> <Gold.Chemscore.DEClash>
0.2130

> <Gold.Chemscore.DEInternal>
1.7086

> <Gold.Chemscore.Rot>
1.7783

> <Gold.Chemscore.Internal.Correction>
   9.000000E+99

> <Gold.Chemscore.Hbonds>
donor molecule, donor type, donor heavy atom, donor atom, acceptor molecule, acceptor atom, score
      L1  H     3    20       P1  7948  0.95
      L1  H    10    25       P1  7948  0.97
      L1  H    19    38       P1  7921  0.95

> <Gold.Chemscore.Hbond.Weighted>
-9.8489

> <Gold.Chemscore.Metal.Weighted>
-0.0000

> <Gold.Chemscore.Lipo.Weighted>
-8.7848

> <Gold.Chemscore.Internal_Hbond.Weighted>
0.0000

> <Gold.Chemscore.DEClash.Weighted>
0.2130

> <Gold.Chemscore.DEInternal.Weighted>
1.7086

> <Gold.Chemscore.Rot.Weighted>
4.5525

> <Gold.Chemscore.Internal.Correction.Weighted>
   9.000000E+99

> <Gold.Protein.RotatedTorsions>
[ 6907 6896 6895 6894 ] final -103.64 input  -60.11 | X-H torsion
[ 7974 7965 7964 7962 ] final   75.68 input  175.53 | X-H torsion
[ 8008 7997 7996 7995 ] final  131.17 input   59.86 | X-H torsion
[ 10167 10162 10161 10158 ] final   66.10 input  -65.29 | X-H torsion
[ 10718 10713 10712 10709 ] final   14.93 input   66.30 | X-H torsion
[ 10763 10752 10751 10750 ] final  129.88 input  -60.55 | X-H torsion
[ 11005 11000 10999 10996 ] final    6.64 input  -57.11 | X-H torsion

> <Gold.Protein.ActiveResidues>
 VAL166  LYS551  ARG553  GLY616  TRP617  ASP618  TYR619  PRO620  LYS621  CYS622 
 ASP623  PHE694  ASN695  SER759  ASP760  ASP761  ALA762  ILE779  LEU786  VAL792 
 PHE793  MET794  SER795  GLU796  ALA797  LYS798  CYS799  TRP800  GLU811  SER814 

> <Gold.Protein.RotatedAtoms>
  150.7250  134.0398  159.3761 H   0  0  0  0  0  0  0  0  0  0  0  0  # atno 6907 bound_to 6896
  151.8371  135.0600  160.0453 H   0  0  0  0  0  0  0  0  0  0  0  0  # atno 6908 bound_to 6896
  152.2890  133.5507  159.5582 H   0  0  0  0  0  0  0  0  0  0  0  0  # atno 6909 bound_to 6896
  145.7125  139.2619  143.1642 H   0  0  0  0  0  0  0  0  0  0  0  0  # atno 7974 bound_to 7965
  156.2966  140.2578  156.2882 H   0  0  0  0  0  0  0  0  0  0  0  0  # atno 8008 bound_to 7997
  154.9535  140.0394  157.2174 H   0  0  0  0  0  0  0  0  0  0  0  0  # atno 8009 bound_to 7997
  154.8014  140.2829  155.5923 H   0  0  0  0  0  0  0  0  0  0  0  0  # atno 8010 bound_to 7997
  140.1041  144.4877  150.7019 H   0  0  0  0  0  0  0  0  0  0  0  0  # atno 10167 bound_to 10162
  157.0462  130.6251  149.5759 H   0  0  0  0  0  0  0  0  0  0  0  0  # atno 10718 bound_to 10713
  153.7489  135.3213  155.3317 H   0  0  0  0  0  0  0  0  0  0  0  0  # atno 10763 bound_to 10752
  154.8270  135.4562  154.0951 H   0  0  0  0  0  0  0  0  0  0  0  0  # atno 10764 bound_to 10752
  153.2148  135.6940  153.8152 H   0  0  0  0  0  0  0  0  0  0  0  0  # atno 10765 bound_to 10752
  140.5571  134.0227  155.7958 H   0  0  0  0  0  0  0  0  0  0  0  0  # atno 11005 bound_to 11000
  146.0699  140.7880  142.9693 LP  0  0  0  0  0  0  0  0  0  0  0  0  # atno 17320 bound_to 7965
  144.6938  140.3326  143.7213 LP  0  0  0  0  0  0  0  0  0  0  0  0  # atno 17321 bound_to 7965
  140.6962  143.2405  151.4995 LP  0  0  0  0  0  0  0  0  0  0  0  0  # atno 17342 bound_to 10162
  139.5655  144.2053  152.1758 LP  0  0  0  0  0  0  0  0  0  0  0  0  # atno 17343 bound_to 10162
  156.0022  130.5103  150.7704 LP  0  0  0  0  0  0  0  0  0  0  0  0  # atno 17370 bound_to 10713
  157.5066  131.0922  151.0250 LP  0  0  0  0  0  0  0  0  0  0  0  0  # atno 17371 bound_to 10713
  141.1136  133.9576  157.2863 LP  0  0  0  0  0  0  0  0  0  0  0  0  # atno 17394 bound_to 11000
  139.9426  135.0189  156.8754 LP  0  0  0  0  0  0  0  0  0  0  0  0  # atno 17395 bound_to 11000

$$$$
