AV-unprocessed.smi:2151|AV-procd|sdf|8761|dock1
  -GOLD-   2272011543D 1   1.00000     0.00000
 Structure written by MMmdl.
 39 40  0  0  0  0  0  0  0  0  1 V2000
  150.3317  133.4208  155.5676 C   0  0  0  0  0  0  0  0  0  0  0  0
  149.2692  134.4823  155.2427 C   0  0  1  0  0  0  0  0  0  0  0  0
  149.9280  135.6185  154.6015 N   0  0  0  0  0  0  0  0  0  0  0  0
  150.7583  136.4830  155.2052 C   0  0  0  0  0  0  0  0  0  0  0  0
  151.0711  136.4010  156.3940 O   0  0  0  0  0  0  0  0  0  0  0  0
  151.2951  137.6188  154.3224 C   0  0  0  0  0  0  0  0  0  0  0  0
  150.7122  138.9331  154.6408 N   0  0  0  0  0  0  0  0  0  0  0  0
  149.3934  139.1688  154.2053 C   0  0  0  0  0  0  0  0  0  0  0  0
  148.7426  140.3262  154.4301 C   0  0  0  0  0  0  0  0  0  0  0  0
  147.2954  140.5247  154.0063 C   0  0  0  0  0  0  0  0  0  0  0  0
  146.9111  141.7889  154.1852 F   0  0  0  0  0  0  0  0  0  0  0  0
  147.1575  140.2273  152.7150 F   0  0  0  0  0  0  0  0  0  0  0  0
  146.4769  139.7355  154.7033 F   0  0  0  0  0  0  0  0  0  0  0  0
  149.4628  141.3351  155.1821 C   0  0  0  0  0  0  0  0  0  0  0  0
  150.7191  141.1201  155.6191 C   0  0  0  0  0  0  0  0  0  0  0  0
  151.4179  139.8601  155.3552 C   0  0  0  0  0  0  0  0  0  0  0  0
  152.5644  139.6510  155.7526 O   0  0  0  0  0  0  0  0  0  0  0  0
  148.1538  133.9353  154.3266 C   0  0  1  0  0  0  0  0  0  0  0  0
  148.6538  133.1940  153.0863 C   0  0  0  0  0  0  0  0  0  0  0  0
  147.4572  132.3389  152.7375 C   0  0  0  0  0  0  0  0  0  0  0  0
  146.9389  131.9404  154.1165 C   0  0  0  0  0  0  0  0  0  0  0  0
  147.3623  132.9658  155.0111 O   0  0  0  0  0  0  0  0  0  0  0  0
  149.9002  132.5783  156.1083 H   0  0  0  0  0  0  0  0  0  0  0  0
  151.1214  133.8367  156.1946 H   0  0  0  0  0  0  0  0  0  0  0  0
  150.7962  133.0323  154.6607 H   0  0  0  0  0  0  0  0  0  0  0  0
  148.8240  134.8018  156.1867 H   0  0  0  0  0  0  0  0  0  0  0  0
  149.7237  135.7667  153.6239 H   0  0  0  0  0  0  0  0  0  0  0  0
  152.3830  137.6507  154.4062 H   0  0  0  0  0  0  0  0  0  0  0  0
  151.0980  137.3644  153.2797 H   0  0  0  0  0  0  0  0  0  0  0  0
  148.9379  138.3374  153.6867 H   0  0  0  0  0  0  0  0  0  0  0  0
  148.9883  142.2812  155.3975 H   0  0  0  0  0  0  0  0  0  0  0  0
  151.2256  141.8948  156.1760 H   0  0  0  0  0  0  0  0  0  0  0  0
  147.4904  134.7444  154.0155 H   0  0  0  0  0  0  0  0  0  0  0  0
  148.9470  133.8635  152.2772 H   0  0  0  0  0  0  0  0  0  0  0  0
  149.5063  132.5599  153.3341 H   0  0  0  0  0  0  0  0  0  0  0  0
  146.7106  132.9386  152.2151 H   0  0  0  0  0  0  0  0  0  0  0  0
  147.7071  131.4822  152.1111 H   0  0  0  0  0  0  0  0  0  0  0  0
  145.8549  131.8257  154.1307 H   0  0  0  0  0  0  0  0  0  0  0  0
  147.3830  130.9977  154.4374 H   0  0  0  0  0  0  0  0  0  0  0  0
  1  2  1  0  0  0  0
  1 23  1  0  0  0  0
  1 24  1  0  0  0  0
  1 25  1  0  0  0  0
  2  3  1  0  0  0  0
  2 18  1  0  0  0  0
  2 26  1  0  0  0  0
  3  4  1  0  0  0  0
  3 27  1  0  0  0  0
  4  5  2  0  0  0  0
  4  6  1  0  0  0  0
  6  7  1  0  0  0  0
  6 28  1  0  0  0  0
  6 29  1  0  0  0  0
  7 16  1  0  0  0  0
  7  8  1  0  0  0  0
  8  9  2  0  0  0  0
  8 30  1  0  0  0  0
  9 10  1  0  0  0  0
  9 14  1  0  0  0  0
 10 11  1  0  0  0  0
 10 12  1  0  0  0  0
 10 13  1  0  0  0  0
 14 15  2  0  0  0  0
 14 31  1  0  0  0  0
 15 16  1  0  0  0  0
 15 32  1  0  0  0  0
 16 17  2  0  0  0  0
 18 22  1  0  0  0  0
 18 19  1  0  0  0  0
 18 33  1  0  0  0  0
 19 20  1  0  0  0  0
 19 34  1  0  0  0  0
 19 35  1  0  0  0  0
 20 21  1  0  0  0  0
 20 36  1  0  0  0  0
 20 37  1  0  0  0  0
 21 22  1  0  0  0  0
 21 38  1  0  0  0  0
 21 39  1  0  0  0  0
M  END
> <s_m_source_file>
AV-unprocessed.smi

> <i_m_source_file_index>
2151

> <i_lp_mmshare_version>
43012

> <i_f3d_flags>
0

> <s_epik_input>
TzFbQ0gyXVtDSDJdW0NIMl1bQ0BIXTFbQ0BIXShbQ0gzXSlbTkhdQyg9TylbQ0gyXW4yW2NIXWMoQyhGKShGKUYpW2NIXVtjSF1jMj1P

> <s_epik_cmdline>
J2VwaWtfcHl0aG9uJywgJy1waCcsICc3LjAnLCAnLXRuJywgJzgnLCAnLW1hJywgJzIwMCcsICctbWV0YWxfYmluZGluZycsICctaW1hZScsICc8aW5maWxlLm1hZT4nLCAnLW9tYWUnLCAnPG91dGZpbGUubWFlPic=

> <r_lp_tautomer_probability>
1

> <r_epik_Ionization_Penalty>
4.20109e-08

> <r_epik_Ionization_Penalty_Charging>
1.89977e-08

> <r_epik_Ionization_Penalty_Neutral>
2.30132e-08

> <r_epik_State_Penalty>
-0

> <r_epik_Charging_Adjusted_Penalty>
1.89977e-08

> <i_epik_Tot_Q>
0

> <i_epik_Tot_abs_Q>
0

> <r_epik_Metal_State_Penalty>
-0

> <b_epik_Metal_Only>
0

> <s_lp_Force_Field>
OPLS_2005

> <r_lp_Energy>
30.384

> <b_lp_Chiralities_Consistent>
1

> <s_lp_Variant>
AV-unprocessed.smi:2151-4

> <Gold.Version>
5.8.1

> <Gold.Id.Protein>
6NUR|6NUR_protein|mol2

> <Gold.PLP.Fitness>
45.5625

> <Gold.PLP.PLP>
-40.1028

> <Gold.PLP.part.hbond>
-2.0000

> <Gold.PLP.part.metal>
0.0000

> <Gold.PLP.part.buried>
0.3219

> <Gold.PLP.part.nonpolar>
-38.6325

> <Gold.PLP.part.repulsive>
0.0755

> <Gold.PLP.ligand.clash>
0.0000

> <Gold.PLP.ligand.torsion>
0.8083

> <Gold.PLP.Chemscore.Hbond>
1.9000

> <Gold.PLP.Chemscore.CHOScore>
0.4357

> <Gold.PLP.Chemscore.Metal>
0.0000

> <Gold.Chemscore.Hbonds>
donor molecule, donor type, donor heavy atom, donor atom, acceptor molecule, acceptor atom, score
      L1  H     3    27       P1  7948  0.80
      P1  H  7997  8010       L1    17  1.00
      L1  C     8    30       P1  7948  0.42

> <Gold.PLP.Chemscore.Internal.Correction>
0.0692

> <Gold.Rescore>
     Score         DG    S(hbond)    S(metal)    S(lipo)     H(rot)  DE(clash)    DE(int)     intcor
     13.75     -14.19       1.70        0.00      65.85       1.82       0.12       0.32       ----

> <Gold.Chemscore.Fitness>
13.7485

> <Gold.Chemscore.DG>
-14.1892

> <Gold.Chemscore.ZeroCoef>
-5.4800

> <Gold.Chemscore.Hbond>
1.6980

> <Gold.Chemscore.Metal>
0.0000

> <Gold.Chemscore.Lipo>
65.8478

> <Gold.Chemscore.Internal_Hbond>
0.0000

> <Gold.Chemscore.DEClash>
0.1240

> <Gold.Chemscore.DEInternal>
0.3167

> <Gold.Chemscore.Rot>
1.8228

> <Gold.Chemscore.Internal.Correction>
   9.000000E+99

> <Gold.Chemscore.Hbonds>
donor molecule, donor type, donor heavy atom, donor atom, acceptor molecule, acceptor atom, score
      L1  H     3    27       P1  7948  0.12
      P1  H  7997  8010       L1    17  1.00

> <Gold.Chemscore.Hbond.Weighted>
-5.6715

> <Gold.Chemscore.Metal.Weighted>
-0.0000

> <Gold.Chemscore.Lipo.Weighted>
-7.7042

> <Gold.Chemscore.Internal_Hbond.Weighted>
0.0000

> <Gold.Chemscore.DEClash.Weighted>
0.1240

> <Gold.Chemscore.DEInternal.Weighted>
0.3167

> <Gold.Chemscore.Rot.Weighted>
4.6665

> <Gold.Chemscore.Internal.Correction.Weighted>
   9.000000E+99

> <Gold.Protein.RotatedTorsions>
[ 6907 6896 6895 6894 ] final -157.70 input  -60.11 | X-H torsion
[ 7974 7965 7964 7962 ] final   -9.29 input  175.53 | X-H torsion
[ 8008 7997 7996 7995 ] final   78.57 input   59.86 | X-H torsion
[ 10167 10162 10161 10158 ] final  -15.33 input  -65.29 | X-H torsion
[ 10718 10713 10712 10709 ] final  176.50 input   66.30 | X-H torsion
[ 10763 10752 10751 10750 ] final  -57.47 input  -60.55 | X-H torsion
[ 11005 11000 10999 10996 ] final   45.65 input  -57.11 | X-H torsion

> <Gold.Protein.ActiveResidues>
 VAL166  LYS551  ARG553  GLY616  TRP617  ASP618  TYR619  PRO620  LYS621  CYS622 
 ASP623  PHE694  ASN695  SER759  ASP760  ASP761  ALA762  ILE779  LEU786  VAL792 
 PHE793  MET794  SER795  GLU796  ALA797  LYS798  CYS799  TRP800  GLU811  SER814 

> <Gold.Protein.RotatedAtoms>
  151.3068  133.4098  159.2643 H   0  0  0  0  0  0  0  0  0  0  0  0  # atno 6907 bound_to 6896
  151.0148  134.9425  159.8037 H   0  0  0  0  0  0  0  0  0  0  0  0  # atno 6908 bound_to 6896
  152.5310  134.3032  159.9138 H   0  0  0  0  0  0  0  0  0  0  0  0  # atno 6909 bound_to 6896
  146.2256  140.2594  142.8351 H   0  0  0  0  0  0  0  0  0  0  0  0  # atno 7974 bound_to 7965
  155.8575  140.3455  155.5734 H   0  0  0  0  0  0  0  0  0  0  0  0  # atno 8008 bound_to 7997
  155.7969  140.0879  157.1998 H   0  0  0  0  0  0  0  0  0  0  0  0  # atno 8009 bound_to 7997
  154.4010  140.1472  156.3216 H   0  0  0  0  0  0  0  0  0  0  0  0  # atno 8010 bound_to 7997
  140.7216  143.5229  150.9611 H   0  0  0  0  0  0  0  0  0  0  0  0  # atno 10167 bound_to 10162
  156.9192  130.9935  151.3007 H   0  0  0  0  0  0  0  0  0  0  0  0  # atno 10718 bound_to 10713
  154.2229  135.6374  153.5150 H   0  0  0  0  0  0  0  0  0  0  0  0  # atno 10763 bound_to 10752
  152.9965  135.5501  154.6095 H   0  0  0  0  0  0  0  0  0  0  0  0  # atno 10764 bound_to 10752
  154.5559  135.2905  155.0939 H   0  0  0  0  0  0  0  0  0  0  0  0  # atno 10765 bound_to 10752
  140.1440  134.4547  155.8429 H   0  0  0  0  0  0  0  0  0  0  0  0  # atno 11005 bound_to 11000
  144.9351  140.8018  143.5665 LP  0  0  0  0  0  0  0  0  0  0  0  0  # atno 17320 bound_to 7965
  145.2541  139.2019  143.4927 LP  0  0  0  0  0  0  0  0  0  0  0  0  # atno 17321 bound_to 7965
  139.8947  143.6910  152.3140 LP  0  0  0  0  0  0  0  0  0  0  0  0  # atno 17342 bound_to 10162
  139.7238  144.7597  151.0912 LP  0  0  0  0  0  0  0  0  0  0  0  0  # atno 17343 bound_to 10162
  157.5918  130.8449  149.8671 LP  0  0  0  0  0  0  0  0  0  0  0  0  # atno 17370 bound_to 10713
  156.0499  130.3720  150.1227 LP  0  0  0  0  0  0  0  0  0  0  0  0  # atno 17371 bound_to 10713
  141.2190  133.6845  156.7299 LP  0  0  0  0  0  0  0  0  0  0  0  0  # atno 17394 bound_to 11000
  140.2687  134.8409  157.3827 LP  0  0  0  0  0  0  0  0  0  0  0  0  # atno 17395 bound_to 11000

$$$$
