AV-unprocessed.smi:1666|AV-procd|sdf|6671|dock1
  -GOLD-   22720 7383D 1   1.00000     0.00000
 Structure written by MMmdl.
 39 40  0  0  0  0  0  0  0  0  1 V2000
  147.6234  132.9795  152.4397 C   0  0  0  0  0  0  0  0  0  0  0  0
  146.3909  133.0748  151.5550 C   0  0  0  0  0  0  0  0  0  0  0  0
  145.8780  131.9040  150.9574 C   0  0  0  0  0  0  0  0  0  0  0  0
  144.7395  131.9940  150.1384 C   0  0  0  0  0  0  0  0  0  0  0  0
  144.1587  133.2598  149.9504 C   0  0  0  0  0  0  0  0  0  0  0  0
  144.6426  134.3838  150.5170 N   0  0  0  0  0  0  0  0  0  0  0  0
  145.7412  134.3145  151.3101 C   0  0  0  0  0  0  0  0  0  0  0  0
  146.3059  135.4582  151.9422 N   0  0  0  0  0  0  0  0  0  0  0  0
  145.6718  136.4899  152.5267 C   0  0  0  0  0  0  0  0  0  0  0  0
  144.4502  136.6158  152.6176 O   0  0  0  0  0  0  0  0  0  0  0  0
  146.5476  137.3887  152.9999 N   0  0  0  0  0  0  0  0  0  0  0  0
  146.1986  138.6580  153.6310 C   0  0  0  0  0  0  0  0  0  0  0  0
  147.2586  139.7383  153.3417 C   0  0  0  0  0  0  0  0  0  0  0  0
  148.3020  139.8859  154.3564 N   0  0  0  0  0  0  0  0  0  0  0  0
  149.4154  138.9602  154.1604 C   0  0  0  0  0  0  0  0  0  0  0  0
  150.5005  139.1384  155.2363 C   0  0  0  0  0  0  0  0  0  0  0  0
  150.9569  140.4874  155.2364 O   0  0  0  0  0  0  0  0  0  0  0  0
  149.9069  141.4221  155.4637 C   0  0  0  0  0  0  0  0  0  0  0  0
  148.8207  141.2483  154.3880 C   0  0  0  0  0  0  0  0  0  0  0  0
  147.9763  131.9509  152.5197 H   0  0  0  0  0  0  0  0  0  0  0  0
  147.4005  133.3363  153.4456 H   0  0  0  0  0  0  0  0  0  0  0  0
  148.4344  133.5817  152.0296 H   0  0  0  0  0  0  0  0  0  0  0  0
  146.3493  130.9462  151.1226 H   0  0  0  0  0  0  0  0  0  0  0  0
  144.3223  131.1165  149.6671 H   0  0  0  0  0  0  0  0  0  0  0  0
  143.2827  133.3738  149.3292 H   0  0  0  0  0  0  0  0  0  0  0  0
  147.3140  135.5009  151.9344 H   0  0  0  0  0  0  0  0  0  0  0  0
  147.5319  137.1988  152.8821 H   0  0  0  0  0  0  0  0  0  0  0  0
  145.1995  138.9893  153.3458 H   0  0  0  0  0  0  0  0  0  0  0  0
  146.1542  138.4854  154.7064 H   0  0  0  0  0  0  0  0  0  0  0  0
  147.7193  139.5381  152.3733 H   0  0  0  0  0  0  0  0  0  0  0  0
  146.7369  140.6899  153.2288 H   0  0  0  0  0  0  0  0  0  0  0  0
  149.0645  137.9297  154.1877 H   0  0  0  0  0  0  0  0  0  0  0  0
  149.8558  139.1136  153.1742 H   0  0  0  0  0  0  0  0  0  0  0  0
  150.1115  138.8783  156.2220 H   0  0  0  0  0  0  0  0  0  0  0  0
  151.3431  138.4757  155.0389 H   0  0  0  0  0  0  0  0  0  0  0  0
  149.4891  141.2751  156.4609 H   0  0  0  0  0  0  0  0  0  0  0  0
  150.3146  142.4326  155.4325 H   0  0  0  0  0  0  0  0  0  0  0  0
  149.2330  141.5103  153.4123 H   0  0  0  0  0  0  0  0  0  0  0  0
  148.0083  141.9495  154.5815 H   0  0  0  0  0  0  0  0  0  0  0  0
  1  2  1  0  0  0  0
  1 20  1  0  0  0  0
  1 21  1  0  0  0  0
  1 22  1  0  0  0  0
  2  7  1  0  0  0  0
  2  3  2  0  0  0  0
  3  4  1  0  0  0  0
  3 23  1  0  0  0  0
  4  5  2  0  0  0  0
  4 24  1  0  0  0  0
  5  6  1  0  0  0  0
  5 25  1  0  0  0  0
  6  7  2  0  0  0  0
  7  8  1  0  0  0  0
  8  9  1  0  0  0  0
  8 26  1  0  0  0  0
  9 10  2  0  0  0  0
  9 11  1  0  0  0  0
 11 12  1  0  0  0  0
 11 27  1  0  0  0  0
 12 13  1  0  0  0  0
 12 28  1  0  0  0  0
 12 29  1  0  0  0  0
 13 14  1  0  0  0  0
 13 30  1  0  0  0  0
 13 31  1  0  0  0  0
 14 19  1  0  0  0  0
 14 15  1  0  0  0  0
 15 16  1  0  0  0  0
 15 32  1  0  0  0  0
 15 33  1  0  0  0  0
 16 17  1  0  0  0  0
 16 34  1  0  0  0  0
 16 35  1  0  0  0  0
 17 18  1  0  0  0  0
 18 19  1  0  0  0  0
 18 36  1  0  0  0  0
 18 37  1  0  0  0  0
 19 38  1  0  0  0  0
 19 39  1  0  0  0  0
M  END
> <s_m_source_file>
AV-unprocessed.smi

> <i_m_source_file_index>
1666

> <i_lp_mmshare_version>
43012

> <i_f3d_flags>
0

> <s_epik_input>
W0NIM11jMVtjSF1bY0hdW2NIXW5jMVtOSF1DKD1PKVtOSF1bQ0gyXVtDSDJdTjJbQ0gyXVtDSDJdT1tDSDJdW0NIMl0y

> <s_epik_cmdline>
J2VwaWtfcHl0aG9uJywgJy1waCcsICc3LjAnLCAnLXRuJywgJzgnLCAnLW1hJywgJzIwMCcsICctbWV0YWxfYmluZGluZycsICctaW1hZScsICc8aW5maWxlLm1hZT4nLCAnLW9tYWUnLCAnPG91dGZpbGUubWFlPic=

> <r_epik_Ionization_Penalty>
0.266047

> <r_epik_Ionization_Penalty_Charging>
0

> <r_epik_Ionization_Penalty_Neutral>
0.266047

> <r_epik_State_Penalty>
0.257924

> <r_epik_Charging_Adjusted_Penalty>
0.257924

> <i_epik_Tot_Q>
0

> <i_epik_Tot_abs_Q>
0

> <r_epik_Metal_State_Penalty>
0.257922

> <b_epik_Metal_Only>
0

> <s_lp_Force_Field>
OPLS_2005

> <r_lp_Energy>
28.1058

> <b_lp_Chiralities_Consistent>
1

> <s_lp_Variant>
AV-unprocessed.smi:1666-1

> <Gold.Version>
5.8.1

> <Gold.Id.Protein>
6NUR|6NUR_protein|mol2

> <Gold.PLP.Fitness>
44.2732

> <Gold.PLP.PLP>
-34.3956

> <Gold.PLP.part.hbond>
-3.0000

> <Gold.PLP.part.metal>
0.0000

> <Gold.PLP.part.buried>
-4.7378

> <Gold.PLP.part.nonpolar>
-27.9687

> <Gold.PLP.part.repulsive>
0.5530

> <Gold.PLP.ligand.clash>
0.0000

> <Gold.PLP.ligand.torsion>
1.0437

> <Gold.PLP.Chemscore.Hbond>
2.9760

> <Gold.PLP.Chemscore.CHOScore>
1.0000

> <Gold.PLP.Chemscore.Metal>
0.0000

> <Gold.Chemscore.Hbonds>
donor molecule, donor type, donor heavy atom, donor atom, acceptor molecule, acceptor atom, score
      L1  H     8    26       P1  7948  1.00
      L1  H    11    27       P1  7948  0.94
      P1  H  7989  7998       L1    17  0.99
      L1  C     5    25       P1 10186  1.00

> <Gold.PLP.Chemscore.Internal.Correction>
0.0370

> <Gold.Rescore>
     Score         DG    S(hbond)    S(metal)    S(lipo)     H(rot)  DE(clash)    DE(int)     intcor
     18.07     -19.20       2.39        0.00      81.59       1.49       0.02       1.10       ----

> <Gold.Chemscore.Fitness>
18.0740

> <Gold.Chemscore.DG>
-19.1986

> <Gold.Chemscore.ZeroCoef>
-5.4800

> <Gold.Chemscore.Hbond>
2.3902

> <Gold.Chemscore.Metal>
0.0000

> <Gold.Chemscore.Lipo>
81.5851

> <Gold.Chemscore.Internal_Hbond>
0.0000

> <Gold.Chemscore.DEClash>
0.0216

> <Gold.Chemscore.DEInternal>
1.1029

> <Gold.Chemscore.Rot>
1.4884

> <Gold.Chemscore.Internal.Correction>
   9.000000E+99

> <Gold.Chemscore.Hbonds>
donor molecule, donor type, donor heavy atom, donor atom, acceptor molecule, acceptor atom, score
      L1  H     8    26       P1  7948  0.99
      L1  H    11    27       P1  7948  0.88
      P1  H  7989  7998       L1    17  0.34

> <Gold.Chemscore.Hbond.Weighted>
-7.9834

> <Gold.Chemscore.Metal.Weighted>
-0.0000

> <Gold.Chemscore.Lipo.Weighted>
-9.5455

> <Gold.Chemscore.Internal_Hbond.Weighted>
0.0000

> <Gold.Chemscore.DEClash.Weighted>
0.0216

> <Gold.Chemscore.DEInternal.Weighted>
1.1029

> <Gold.Chemscore.Rot.Weighted>
3.8103

> <Gold.Chemscore.Internal.Correction.Weighted>
   9.000000E+99

> <Gold.Protein.RotatedTorsions>
[ 6907 6896 6895 6894 ] final  -59.66 input  -60.11 | X-H torsion
[ 7974 7965 7964 7962 ] final  -94.47 input  175.53 | X-H torsion
[ 8008 7997 7996 7995 ] final  -51.55 input   59.86 | X-H torsion
[ 10167 10162 10161 10158 ] final  -40.39 input  -65.29 | X-H torsion
[ 10718 10713 10712 10709 ] final -126.11 input   66.30 | X-H torsion
[ 10763 10752 10751 10750 ] final -111.42 input  -60.55 | X-H torsion
[ 11005 11000 10999 10996 ] final  -29.26 input  -57.11 | X-H torsion

> <Gold.Protein.ActiveResidues>
 VAL166  LYS551  ARG553  GLY616  TRP617  ASP618  TYR619  PRO620  LYS621  CYS622 
 ASP623  PHE694  ASN695  SER759  ASP760  ASP761  ALA762  ILE779  LEU786  VAL792 
 PHE793  MET794  SER795  GLU796  ALA797  LYS798  CYS799  TRP800  GLU811  SER814 

> <Gold.Protein.RotatedAtoms>
  150.7914  134.6939  159.6511 H   0  0  0  0  0  0  0  0  0  0  0  0  # atno 6907 bound_to 6896
  152.4019  134.6268  160.0075 H   0  0  0  0  0  0  0  0  0  0  0  0  # atno 6908 bound_to 6896
  151.6537  133.3283  159.3194 H   0  0  0  0  0  0  0  0  0  0  0  0  # atno 6909 bound_to 6896
  145.3728  140.9507  143.2437 H   0  0  0  0  0  0  0  0  0  0  0  0  # atno 7974 bound_to 7965
  154.4085  140.1245  156.4848 H   0  0  0  0  0  0  0  0  0  0  0  0  # atno 8008 bound_to 7997
  155.7049  140.3494  155.4929 H   0  0  0  0  0  0  0  0  0  0  0  0  # atno 8009 bound_to 7997
  155.9352  140.1077  157.1090 H   0  0  0  0  0  0  0  0  0  0  0  0  # atno 8010 bound_to 7997
  140.7035  143.3156  151.2918 H   0  0  0  0  0  0  0  0  0  0  0  0  # atno 10167 bound_to 10162
  156.1736  130.6684  151.0212 H   0  0  0  0  0  0  0  0  0  0  0  0  # atno 10718 bound_to 10713
  154.8299  135.4528  154.1036 H   0  0  0  0  0  0  0  0  0  0  0  0  # atno 10763 bound_to 10752
  153.2318  135.6906  153.7888 H   0  0  0  0  0  0  0  0  0  0  0  0  # atno 10764 bound_to 10752
  153.7268  135.3333  155.3254 H   0  0  0  0  0  0  0  0  0  0  0  0  # atno 10765 bound_to 10752
  140.9281  133.7356  156.0896 H   0  0  0  0  0  0  0  0  0  0  0  0  # atno 11005 bound_to 11000
  144.8564  139.5244  143.6833 LP  0  0  0  0  0  0  0  0  0  0  0  0  # atno 17320 bound_to 7965
  146.2877  139.7051  142.9183 LP  0  0  0  0  0  0  0  0  0  0  0  0  # atno 17321 bound_to 7965
  139.6594  144.0218  152.2682 LP  0  0  0  0  0  0  0  0  0  0  0  0  # atno 17342 bound_to 10162
  139.9780  144.6448  150.7927 LP  0  0  0  0  0  0  0  0  0  0  0  0  # atno 17343 bound_to 10162
  157.6820  131.0835  150.7345 LP  0  0  0  0  0  0  0  0  0  0  0  0  # atno 17370 bound_to 10713
  156.7404  130.4737  149.5479 LP  0  0  0  0  0  0  0  0  0  0  0  0  # atno 17371 bound_to 10713
  140.7899  134.3629  157.5467 LP  0  0  0  0  0  0  0  0  0  0  0  0  # atno 17394 bound_to 11000
  139.8790  134.9134  156.3082 LP  0  0  0  0  0  0  0  0  0  0  0  0  # atno 17395 bound_to 11000

$$$$
