AV-unprocessed.smi:2189|AV-procd|sdf|8885|dock4
  -GOLD-   2272012 83D 1   1.00000     0.00000
 Structure written by MMmdl.
 40 42  0  0  0  0  0  0  0  0  2 V2000
  151.2729  140.4803  155.4100 O   0  0  0  0  0  0  0  0  0  0  0  0
  150.7669  141.4480  155.9815 C   0  0  0  0  0  0  0  0  0  0  0  0
  149.5236  141.8673  155.6754 N   0  0  0  0  0  0  0  0  0  0  0  0
  148.6354  141.2679  154.6818 C   0  0  0  0  0  0  0  0  0  0  0  0
  147.2115  141.0327  155.2233 C   0  0  0  0  0  0  0  0  0  0  0  0
  146.2743  142.2094  155.0165 C   0  0  0  0  0  0  0  0  0  0  0  0
  146.0959  142.8181  153.7548 C   0  0  0  0  0  0  0  0  0  0  0  0
  145.1912  143.8928  153.6305 C   0  0  0  0  0  0  0  0  0  0  0  0
  144.4870  144.3378  154.7686 C   0  0  0  0  0  0  0  0  0  0  0  0
  144.7057  143.6956  156.0042 C   0  0  0  0  0  0  0  0  0  0  0  0
  145.5812  142.6698  156.0832 N   0  3  0  0  0  0  0  0  0  0  0  0
  151.4252  142.2532  157.0275 C   0  0  0  0  0  0  0  0  0  0  0  0
  151.2170  143.5969  157.0587 C   0  0  0  0  0  0  0  0  0  0  0  0
  151.8161  144.4358  158.0668 C   0  0  0  0  0  0  0  0  0  0  0  0
  152.6271  143.8620  158.9619 C   0  0  0  0  0  0  0  0  0  0  0  0
  152.9193  142.4995  158.9632 N   0  0  0  0  0  0  0  0  0  0  0  0
  153.9127  142.0374  159.9266 C   0  0  0  0  0  0  0  0  0  0  0  0
  153.4866  140.7119  160.5308 C   0  0  0  0  0  0  0  0  0  0  0  0
  153.4504  139.5191  159.1455 S   0  0  0  0  0  0  0  0  0  0  0  0
  154.8021  139.4467  158.5690 O   0  0  0  0  0  0  0  0  0  0  0  0
  152.7997  138.2877  159.6180 O   0  0  0  0  0  0  0  0  0  0  0  0
  152.4407  140.3218  158.0773 N   0  0  0  0  0  0  0  0  0  0  0  0
  152.2956  141.6161  158.0376 C   0  0  0  0  0  0  0  0  0  0  0  0
  149.1613  142.6614  156.1833 H   0  0  0  0  0  0  0  0  0  0  0  0
  148.6026  141.8773  153.7772 H   0  0  0  0  0  0  0  0  0  0  0  0
  149.0689  140.3128  154.3849 H   0  0  0  0  0  0  0  0  0  0  0  0
  146.7787  140.1552  154.7414 H   0  0  0  0  0  0  0  0  0  0  0  0
  147.2587  140.7987  156.2877 H   0  0  0  0  0  0  0  0  0  0  0  0
  146.6366  142.4611  152.8905 H   0  0  0  0  0  0  0  0  0  0  0  0
  145.0370  144.3687  152.6732 H   0  0  0  0  0  0  0  0  0  0  0  0
  143.7881  145.1580  154.6940 H   0  0  0  0  0  0  0  0  0  0  0  0
  144.2083  143.9669  156.9241 H   0  0  0  0  0  0  0  0  0  0  0  0
  150.5989  144.0883  156.3211 H   0  0  0  0  0  0  0  0  0  0  0  0
  151.6132  145.4961  158.1006 H   0  0  0  0  0  0  0  0  0  0  0  0
  153.1043  144.4377  159.7418 H   0  0  0  0  0  0  0  0  0  0  0  0
  154.8802  141.9472  159.4314 H   0  0  0  0  0  0  0  0  0  0  0  0
  154.0399  142.7644  160.7292 H   0  0  0  0  0  0  0  0  0  0  0  0
  154.1976  140.3601  161.2780 H   0  0  0  0  0  0  0  0  0  0  0  0
  152.4988  140.7671  160.9897 H   0  0  0  0  0  0  0  0  0  0  0  0
  145.7182  142.2154  156.9865 H   0  0  0  0  0  0  0  0  0  0  0  0
  1  2  2  0  0  0  0
  2  3  1  0  0  0  0
  2 12  1  0  0  0  0
  3  4  1  0  0  0  0
  3 24  1  0  0  0  0
  4  5  1  0  0  0  0
  4 25  1  0  0  0  0
  4 26  1  0  0  0  0
  5  6  1  0  0  0  0
  5 27  1  0  0  0  0
  5 28  1  0  0  0  0
  6 11  1  0  0  0  0
  6  7  2  0  0  0  0
  7  8  1  0  0  0  0
  7 29  1  0  0  0  0
  8  9  2  0  0  0  0
  8 30  1  0  0  0  0
  9 10  1  0  0  0  0
  9 31  1  0  0  0  0
 10 11  2  0  0  0  0
 10 32  1  0  0  0  0
 11 40  1  0  0  0  0
 12 23  1  0  0  0  0
 12 13  2  0  0  0  0
 13 14  1  0  0  0  0
 13 33  1  0  0  0  0
 14 15  2  0  0  0  0
 14 34  1  0  0  0  0
 15 16  1  0  0  0  0
 15 35  1  0  0  0  0
 16 23  1  0  0  0  0
 16 17  1  0  0  0  0
 17 18  1  0  0  0  0
 17 36  1  0  0  0  0
 17 37  1  0  0  0  0
 18 19  1  0  0  0  0
 18 38  1  0  0  0  0
 18 39  1  0  0  0  0
 19 20  2  0  0  0  0
 19 21  2  0  0  0  0
 19 22  1  0  0  0  0
 22 23  2  0  0  0  0
M  CHG  1  11   1
M  END
> <s_m_source_file>
AV-unprocessed.smi

> <i_m_source_file_index>
2189

> <i_lp_mmshare_version>
43012

> <i_f3d_flags>
0

> <s_epik_input>
W0NIMl0xW0NIMl1TKD1PKSg9TylOPUMoTjEyKUMoPVtDSF1bQ0hdPVtDSF0yKUMoPU8pW05IXVtDSDJdW0NIMl1jM1tjSF1bY0hdW2NIXVtjSF1uMw==

> <s_epik_cmdline>
J2VwaWtfcHl0aG9uJywgJy1waCcsICc3LjAnLCAnLXRuJywgJzgnLCAnLW1hJywgJzIwMCcsICctbWV0YWxfYmluZGluZycsICctaW1hZScsICc8aW5maWxlLm1hZT4nLCAnLW9tYWUnLCAnPG91dGZpbGUubWFlPic=

> <r_epik_Ionization_Penalty>
2.08937

> <r_epik_Ionization_Penalty_Charging>
2.08928

> <r_epik_Ionization_Penalty_Neutral>
8.13788e-05

> <r_epik_State_Penalty>
2.22459

> <r_epik_Charging_Adjusted_Penalty>
4.31388

> <i_epik_Tot_Q>
1

> <i_epik_Tot_abs_Q>
1

> <r_epik_Metal_State_Penalty>
2.35797

> <b_epik_Metal_Only>
0

> <s_lp_Force_Field>
OPLS_2005

> <r_lp_Energy>
32.7786

> <b_lp_Chiralities_Consistent>
1

> <s_lp_Variant>
AV-unprocessed.smi:2189-2

> <Gold.Version>
5.8.1

> <Gold.Id.Protein>
6NUR|6NUR_protein|mol2

> <Gold.PLP.Fitness>
54.1133

> <Gold.PLP.PLP>
-47.7598

> <Gold.PLP.part.hbond>
-3.0000

> <Gold.PLP.part.metal>
0.0000

> <Gold.PLP.part.buried>
-6.0096

> <Gold.PLP.part.nonpolar>
-37.8840

> <Gold.PLP.part.repulsive>
0.1843

> <Gold.PLP.ligand.clash>
0.0000

> <Gold.PLP.ligand.torsion>
0.8688

> <Gold.PLP.Chemscore.Hbond>
2.6320

> <Gold.PLP.Chemscore.CHOScore>
0.0000

> <Gold.PLP.Chemscore.Metal>
0.0000

> <Gold.Chemscore.Hbonds>
donor molecule, donor type, donor heavy atom, donor atom, acceptor molecule, acceptor atom, score
      L1  H     3    24       P1  8028  0.48
      P1  H  7989  7998       L1     1  0.91
      P1  H  7997  8009       L1    20  0.67

> <Gold.PLP.Chemscore.Internal.Correction>
0.1951

> <Gold.Rescore>
     Score         DG    S(hbond)    S(metal)    S(lipo)     H(rot)  DE(clash)    DE(int)     intcor
     19.05     -21.66       2.36        0.00     104.55       1.54       0.58       2.03       ----

> <Gold.Chemscore.Fitness>
19.0471

> <Gold.Chemscore.DG>
-21.6568

> <Gold.Chemscore.ZeroCoef>
-5.4800

> <Gold.Chemscore.Hbond>
2.3581

> <Gold.Chemscore.Metal>
0.0000

> <Gold.Chemscore.Lipo>
104.5455

> <Gold.Chemscore.Internal_Hbond>
0.0000

> <Gold.Chemscore.DEClash>
0.5768

> <Gold.Chemscore.DEInternal>
2.0330

> <Gold.Chemscore.Rot>
1.5355

> <Gold.Chemscore.Internal.Correction>
   9.000000E+99

> <Gold.Chemscore.Hbonds>
donor molecule, donor type, donor heavy atom, donor atom, acceptor molecule, acceptor atom, score
      L1  H     3    24       P1  8028  0.48
      P1  H  7989  7998       L1     1  0.68
      P1  H  7997  8009       L1    20  0.67

> <Gold.Chemscore.Hbond.Weighted>
-7.8759

> <Gold.Chemscore.Metal.Weighted>
-0.0000

> <Gold.Chemscore.Lipo.Weighted>
-12.2318

> <Gold.Chemscore.Internal_Hbond.Weighted>
0.0000

> <Gold.Chemscore.DEClash.Weighted>
0.5768

> <Gold.Chemscore.DEInternal.Weighted>
2.0330

> <Gold.Chemscore.Rot.Weighted>
3.9309

> <Gold.Chemscore.Internal.Correction.Weighted>
   9.000000E+99

> <Gold.Protein.RotatedTorsions>
[ 6907 6896 6895 6894 ] final   49.01 input  -60.11 | X-H torsion
[ 7974 7965 7964 7962 ] final  144.58 input  175.53 | X-H torsion
[ 8008 7997 7996 7995 ] final  113.88 input   59.86 | X-H torsion
[ 10167 10162 10161 10158 ] final -163.07 input  -65.29 | X-H torsion
[ 10718 10713 10712 10709 ] final  -53.68 input   66.30 | X-H torsion
[ 10763 10752 10751 10750 ] final -173.13 input  -60.55 | X-H torsion
[ 11005 11000 10999 10996 ] final   24.69 input  -57.11 | X-H torsion

> <Gold.Protein.ActiveResidues>
 VAL166  LYS551  ARG553  GLY616  TRP617  ASP618  TYR619  PRO620  LYS621  CYS622 
 ASP623  PHE694  ASN695  SER759  ASP760  ASP761  ALA762  ILE779  LEU786  VAL792 
 PHE793  MET794  SER795  GLU796  ALA797  LYS798  CYS799  TRP800  GLU811  SER814 

> <Gold.Protein.RotatedAtoms>
  152.2860  134.7775  160.0387 H   0  0  0  0  0  0  0  0  0  0  0  0  # atno 6907 bound_to 6896
  151.8338  133.3407  159.3630 H   0  0  0  0  0  0  0  0  0  0  0  0  # atno 6908 bound_to 6896
  150.7209  134.5386  159.5780 H   0  0  0  0  0  0  0  0  0  0  0  0  # atno 6909 bound_to 6896
  144.8824  139.5679  143.5836 H   0  0  0  0  0  0  0  0  0  0  0  0  # atno 7974 bound_to 7965
  156.2286  140.2970  156.0130 H   0  0  0  0  0  0  0  0  0  0  0  0  # atno 8008 bound_to 7997
  155.2288  140.0418  157.2976 H   0  0  0  0  0  0  0  0  0  0  0  0  # atno 8009 bound_to 7997
  154.5957  140.2413  155.7867 H   0  0  0  0  0  0  0  0  0  0  0  0  # atno 8010 bound_to 7997
  139.6347  144.0373  152.2044 H   0  0  0  0  0  0  0  0  0  0  0  0  # atno 10167 bound_to 10162
  156.1514  130.4151  149.9938 H   0  0  0  0  0  0  0  0  0  0  0  0  # atno 10718 bound_to 10713
  154.6114  135.2865  155.0428 H   0  0  0  0  0  0  0  0  0  0  0  0  # atno 10763 bound_to 10752
  154.1657  135.6481  153.5000 H   0  0  0  0  0  0  0  0  0  0  0  0  # atno 10764 bound_to 10752
  153.0196  135.5389  154.6869 H   0  0  0  0  0  0  0  0  0  0  0  0  # atno 10765 bound_to 10752
  140.3560  134.2177  155.7676 H   0  0  0  0  0  0  0  0  0  0  0  0  # atno 11005 bound_to 11000
  146.3003  139.7405  142.9096 LP  0  0  0  0  0  0  0  0  0  0  0  0  # atno 17320 bound_to 7965
  145.3930  141.0375  143.3113 LP  0  0  0  0  0  0  0  0  0  0  0  0  # atno 17321 bound_to 7965
  140.0047  144.6268  150.7699 LP  0  0  0  0  0  0  0  0  0  0  0  0  # atno 17342 bound_to 10162
  140.7459  143.2882  151.3404 LP  0  0  0  0  0  0  0  0  0  0  0  0  # atno 17343 bound_to 10162
  156.7795  130.9216  151.3646 LP  0  0  0  0  0  0  0  0  0  0  0  0  # atno 17370 bound_to 10713
  157.6660  130.9008  149.9933 LP  0  0  0  0  0  0  0  0  0  0  0  0  # atno 17371 bound_to 10713
  141.1998  133.8002  157.0518 LP  0  0  0  0  0  0  0  0  0  0  0  0  # atno 17394 bound_to 11000
  140.0665  134.9726  157.1394 LP  0  0  0  0  0  0  0  0  0  0  0  0  # atno 17395 bound_to 11000

$$$$
