AV-unprocessed.smi:1941|AV-procd|sdf|7845|dock5
  -GOLD-   22720 9583D 1   1.00000     0.00000
 Structure written by MMmdl.
 40 41  0  0  0  0  0  0  0  0  1 V2000
  145.9160  130.9036  151.6974 C   0  0  0  0  0  0  0  0  0  0  0  0
  145.2589  132.1992  151.3662 C   0  0  0  0  0  0  0  0  0  0  0  0
  145.9139  133.3602  151.2841 N   0  0  0  0  0  0  0  0  0  0  0  0
  145.0743  134.4309  150.9617 C   0  0  0  0  0  0  0  0  0  0  0  0
  145.6410  135.8119  150.8288 C   0  0  0  0  0  0  0  0  0  0  0  0
  145.5578  136.6044  152.1438 C   0  0  0  0  0  0  0  0  0  0  0  0
  146.7180  137.4699  152.3215 N   0  0  0  0  0  0  0  0  0  0  0  0
  146.9676  138.2044  153.4142 C   0  0  0  0  0  0  0  0  0  0  0  0
  146.2475  138.2200  154.4125 O   0  0  0  0  0  0  0  0  0  0  0  0
  148.0941  138.9194  153.2824 N   0  0  0  0  0  0  0  0  0  0  0  0
  148.6513  139.8322  154.2791 C   0  0  2  0  0  0  0  0  0  0  0  0
  148.1791  141.2599  153.9686 C   0  0  0  0  0  0  0  0  0  0  0  0
  150.1885  139.7248  154.2940 C   0  0  2  0  0  0  0  0  0  0  0  0
  150.7327  138.3000  154.4060 C   0  0  0  0  0  0  0  0  0  0  0  0
  152.1166  138.4954  155.0042 C   0  0  0  0  0  0  0  0  0  0  0  0
  152.0788  139.9153  155.5776 C   0  0  0  0  0  0  0  0  0  0  0  0
  150.7261  140.3337  155.4575 O   0  0  0  0  0  0  0  0  0  0  0  0
  143.7633  134.0589  150.7953 C   0  0  0  0  0  0  0  0  0  0  0  0
  143.5368  132.3489  151.0394 S   0  0  0  0  0  0  0  0  0  0  0  0
  146.9158  131.0722  152.0991 H   0  0  0  0  0  0  0  0  0  0  0  0
  145.9975  130.2883  150.8014 H   0  0  0  0  0  0  0  0  0  0  0  0
  145.3278  130.3657  152.4409 H   0  0  0  0  0  0  0  0  0  0  0  0
  146.6813  135.7553  150.5058 H   0  0  0  0  0  0  0  0  0  0  0  0
  145.1135  136.3501  150.0403 H   0  0  0  0  0  0  0  0  0  0  0  0
  144.6400  137.1943  152.1801 H   0  0  0  0  0  0  0  0  0  0  0  0
  145.5179  135.9163  152.9886 H   0  0  0  0  0  0  0  0  0  0  0  0
  147.3710  137.5204  151.5533 H   0  0  0  0  0  0  0  0  0  0  0  0
  148.6103  138.8285  152.4199 H   0  0  0  0  0  0  0  0  0  0  0  0
  148.2835  139.5727  155.2734 H   0  0  0  0  0  0  0  0  0  0  0  0
  148.5597  141.9685  154.7044 H   0  0  0  0  0  0  0  0  0  0  0  0
  147.0907  141.3249  153.9851 H   0  0  0  0  0  0  0  0  0  0  0  0
  148.5187  141.5871  152.9854 H   0  0  0  0  0  0  0  0  0  0  0  0
  150.6122  140.2127  153.4138 H   0  0  0  0  0  0  0  0  0  0  0  0
  150.1175  137.7166  155.0928 H   0  0  0  0  0  0  0  0  0  0  0  0
  150.7538  137.7785  153.4488 H   0  0  0  0  0  0  0  0  0  0  0  0
  152.3193  137.7506  155.7743 H   0  0  0  0  0  0  0  0  0  0  0  0
  152.8931  138.4125  154.2430 H   0  0  0  0  0  0  0  0  0  0  0  0
  152.4084  139.9560  156.6159 H   0  0  0  0  0  0  0  0  0  0  0  0
  152.7139  140.5824  154.9932 H   0  0  0  0  0  0  0  0  0  0  0  0
  142.9197  134.6848  150.5447 H   0  0  0  0  0  0  0  0  0  0  0  0
  1  2  1  0  0  0  0
  1 20  1  0  0  0  0
  1 21  1  0  0  0  0
  1 22  1  0  0  0  0
  2 19  1  0  0  0  0
  2  3  2  0  0  0  0
  3  4  1  0  0  0  0
  4  5  1  0  0  0  0
  4 18  2  0  0  0  0
  5  6  1  0  0  0  0
  5 23  1  0  0  0  0
  5 24  1  0  0  0  0
  6  7  1  0  0  0  0
  6 25  1  0  0  0  0
  6 26  1  0  0  0  0
  7  8  1  0  0  0  0
  7 27  1  0  0  0  0
  8  9  2  0  0  0  0
  8 10  1  0  0  0  0
 10 11  1  0  0  0  0
 10 28  1  0  0  0  0
 11 12  1  0  0  0  0
 11 13  1  0  0  0  0
 11 29  1  0  0  0  0
 12 30  1  0  0  0  0
 12 31  1  0  0  0  0
 12 32  1  0  0  0  0
 13 17  1  0  0  0  0
 13 14  1  0  0  0  0
 13 33  1  0  0  0  0
 14 15  1  0  0  0  0
 14 34  1  0  0  0  0
 14 35  1  0  0  0  0
 15 16  1  0  0  0  0
 15 36  1  0  0  0  0
 15 37  1  0  0  0  0
 16 17  1  0  0  0  0
 16 38  1  0  0  0  0
 16 39  1  0  0  0  0
 18 19  1  0  0  0  0
 18 40  1  0  0  0  0
M  END
> <s_m_source_file>
AV-unprocessed.smi

> <i_m_source_file_index>
1941

> <i_lp_mmshare_version>
43012

> <i_f3d_flags>
0

> <s_epik_input>
W0NIM11jMW5jKFtjSF1zMSlbQ0gyXVtDSDJdW05IXUMoPU8pW05IXVtDQEhdKFtDSDNdKVtDQEBIXTJbQ0gyXVtDSDJdW0NIMl1PMg==

> <s_epik_cmdline>
J2VwaWtfcHl0aG9uJywgJy1waCcsICc3LjAnLCAnLXRuJywgJzgnLCAnLW1hJywgJzIwMCcsICctbWV0YWxfYmluZGluZycsICctaW1hZScsICc8aW5maWxlLm1hZT4nLCAnLW9tYWUnLCAnPG91dGZpbGUubWFlPic=

> <r_epik_Ionization_Penalty>
0.00195486

> <r_epik_Ionization_Penalty_Charging>
0

> <r_epik_Ionization_Penalty_Neutral>
0.00195486

> <r_epik_State_Penalty>
0.00129472

> <r_epik_Charging_Adjusted_Penalty>
0.00129472

> <i_epik_Tot_Q>
0

> <i_epik_Tot_abs_Q>
0

> <r_epik_Metal_State_Penalty>
-0

> <b_epik_Metal_Only>
0

> <s_lp_Force_Field>
OPLS_2005

> <r_lp_Energy>
10.4909

> <b_lp_Chiralities_Consistent>
1

> <s_lp_Variant>
AV-unprocessed.smi:1941-1

> <Gold.Version>
5.8.1

> <Gold.Id.Protein>
6NUR|6NUR_protein|mol2

> <Gold.PLP.Fitness>
40.7526

> <Gold.PLP.PLP>
-36.8276

> <Gold.PLP.part.hbond>
-2.8460

> <Gold.PLP.part.metal>
0.0000

> <Gold.PLP.part.buried>
-2.2939

> <Gold.PLP.part.nonpolar>
-32.8319

> <Gold.PLP.part.repulsive>
0.3762

> <Gold.PLP.ligand.clash>
0.0000

> <Gold.PLP.ligand.torsion>
1.0873

> <Gold.PLP.Chemscore.Hbond>
1.0176

> <Gold.PLP.Chemscore.CHOScore>
1.0000

> <Gold.PLP.Chemscore.Metal>
0.0000

> <Gold.Chemscore.Hbonds>
donor molecule, donor type, donor heavy atom, donor atom, acceptor molecule, acceptor atom, score
      L1  H     7    27       P1  7948  0.24
      L1  H    10    28       P1  7957  0.77
      L1  C    18    40       P1 10186  1.00

> <Gold.PLP.Chemscore.Internal.Correction>
0.0466

> <Gold.Rescore>
     Score         DG    S(hbond)    S(metal)    S(lipo)     H(rot)  DE(clash)    DE(int)     intcor
     14.44     -15.67       1.05        0.00      94.17       1.69       0.05       1.18       ----

> <Gold.Chemscore.Fitness>
14.4365

> <Gold.Chemscore.DG>
-15.6653

> <Gold.Chemscore.ZeroCoef>
-5.4800

> <Gold.Chemscore.Hbond>
1.0476

> <Gold.Chemscore.Metal>
0.0000

> <Gold.Chemscore.Lipo>
94.1746

> <Gold.Chemscore.Internal_Hbond>
0.0000

> <Gold.Chemscore.DEClash>
0.0462

> <Gold.Chemscore.DEInternal>
1.1826

> <Gold.Chemscore.Rot>
1.6923

> <Gold.Chemscore.Internal.Correction>
   9.000000E+99

> <Gold.Chemscore.Hbonds>
donor molecule, donor type, donor heavy atom, donor atom, acceptor molecule, acceptor atom, score
      L1  H     7    27       P1  7948  0.23
      L1  H    10    28       P1  7957  0.72

> <Gold.Chemscore.Hbond.Weighted>
-3.4991

> <Gold.Chemscore.Metal.Weighted>
-0.0000

> <Gold.Chemscore.Lipo.Weighted>
-11.0184

> <Gold.Chemscore.Internal_Hbond.Weighted>
0.0000

> <Gold.Chemscore.DEClash.Weighted>
0.0462

> <Gold.Chemscore.DEInternal.Weighted>
1.1826

> <Gold.Chemscore.Rot.Weighted>
4.3323

> <Gold.Chemscore.Internal.Correction.Weighted>
   9.000000E+99

> <Gold.Protein.RotatedTorsions>
[ 6907 6896 6895 6894 ] final  -37.34 input  -60.11 | X-H torsion
[ 7974 7965 7964 7962 ] final  109.33 input  175.53 | X-H torsion
[ 8008 7997 7996 7995 ] final   67.81 input   59.86 | X-H torsion
[ 10167 10162 10161 10158 ] final  -87.92 input  -65.29 | X-H torsion
[ 10718 10713 10712 10709 ] final -140.91 input   66.30 | X-H torsion
[ 10763 10752 10751 10750 ] final   20.63 input  -60.55 | X-H torsion
[ 11005 11000 10999 10996 ] final -150.80 input  -57.11 | X-H torsion

> <Gold.Protein.ActiveResidues>
 VAL166  LYS551  ARG553  GLY616  TRP617  ASP618  TYR619  PRO620  LYS621  CYS622 
 ASP623  PHE694  ASN695  SER759  ASP760  ASP761  ALA762  ILE779  LEU786  VAL792 
 PHE793  MET794  SER795  GLU796  ALA797  LYS798  CYS799  TRP800  GLU811  SER814 

> <Gold.Protein.RotatedAtoms>
  151.0160  134.9433  159.8032 H   0  0  0  0  0  0  0  0  0  0  0  0  # atno 6907 bound_to 6896
  152.5314  134.2966  159.9073 H   0  0  0  0  0  0  0  0  0  0  0  0  # atno 6908 bound_to 6896
  151.2973  133.4096  159.2671 H   0  0  0  0  0  0  0  0  0  0  0  0  # atno 6909 bound_to 6896
  145.2691  139.2673  143.3975 H   0  0  0  0  0  0  0  0  0  0  0  0  # atno 7974 bound_to 7965
  155.6987  140.3495  155.4924 H   0  0  0  0  0  0  0  0  0  0  0  0  # atno 8008 bound_to 7997
  155.9460  140.1110  157.1038 H   0  0  0  0  0  0  0  0  0  0  0  0  # atno 8009 bound_to 7997
  154.4112  140.1203  156.4976 H   0  0  0  0  0  0  0  0  0  0  0  0  # atno 8010 bound_to 7997
  140.3797  143.2754  151.9398 H   0  0  0  0  0  0  0  0  0  0  0  0  # atno 10167 bound_to 10162
  156.3278  130.7569  151.1681 H   0  0  0  0  0  0  0  0  0  0  0  0  # atno 10718 bound_to 10713
  153.1061  135.6685  153.9584 H   0  0  0  0  0  0  0  0  0  0  0  0  # atno 10763 bound_to 10752
  153.9141  135.3022  155.3450 H   0  0  0  0  0  0  0  0  0  0  0  0  # atno 10764 bound_to 10752
  154.7482  135.5047  153.9318 H   0  0  0  0  0  0  0  0  0  0  0  0  # atno 10765 bound_to 10752
  140.7364  134.3563  157.5156 H   0  0  0  0  0  0  0  0  0  0  0  0  # atno 11005 bound_to 11000
  146.3252  140.3129  142.8628 LP  0  0  0  0  0  0  0  0  0  0  0  0  # atno 17320 bound_to 7965
  144.9350  140.8017  143.5665 LP  0  0  0  0  0  0  0  0  0  0  0  0  # atno 17321 bound_to 7965
  139.4796  144.5830  151.7901 LP  0  0  0  0  0  0  0  0  0  0  0  0  # atno 17342 bound_to 10162
  140.4950  144.1255  150.5958 LP  0  0  0  0  0  0  0  0  0  0  0  0  # atno 17343 bound_to 10162
  157.7424  131.0489  150.5023 LP  0  0  0  0  0  0  0  0  0  0  0  0  # atno 17370 bound_to 10713
  156.5184  130.4156  149.6263 LP  0  0  0  0  0  0  0  0  0  0  0  0  # atno 17371 bound_to 10713
  139.8815  134.9052  156.2894 LP  0  0  0  0  0  0  0  0  0  0  0  0  # atno 17394 bound_to 11000
  140.9876  133.7229  156.0764 LP  0  0  0  0  0  0  0  0  0  0  0  0  # atno 17395 bound_to 11000

$$$$
