AV-unprocessed.smi:2520|AV-procd|sdf|9914|dock5
  -GOLD-   2272013553D 1   1.00000     0.00000
 Structure written by MMmdl.
 41 44  0  0  0  0  0  0  0  0  1 V2000
  150.0141  136.6067  159.6311 O   0  0  0  0  0  0  0  0  0  0  0  0
  149.1338  137.3033  159.1295 C   0  0  0  0  0  0  0  0  0  0  0  0
  147.8507  137.2039  159.5378 N   0  0  0  0  0  0  0  0  0  0  0  0
  147.2357  136.3774  160.5237 C   0  0  0  0  0  0  0  0  0  0  0  0
  147.9929  136.1994  161.7013 C   0  0  0  0  0  0  0  0  0  0  0  0
  147.4597  135.3998  162.7267 C   0  0  0  0  0  0  0  0  0  0  0  0
  146.1952  134.8289  162.5057 C   0  0  0  0  0  0  0  0  0  0  0  0
  145.5014  135.0268  161.3645 N   0  0  0  0  0  0  0  0  0  0  0  0
  146.0163  135.7896  160.3946 N   0  0  0  0  0  0  0  0  0  0  0  0
  149.3812  138.1988  158.1616 N   0  0  0  0  0  0  0  0  0  0  0  0
  150.6977  138.5145  157.6219 C   0  0  1  0  0  0  0  0  0  0  0  0
  150.7606  138.3222  156.1066 C   0  0  2  0  0  0  0  0  0  0  0  0
  151.4645  137.3703  155.2071 C   0  0  0  0  0  0  0  0  0  0  0  0
  152.0194  138.4044  154.1920 C   0  0  0  0  0  0  0  0  0  0  0  0
  151.7889  139.7057  154.7840 O   0  0  0  0  0  0  0  0  0  0  0  0
  151.7699  139.4497  156.1741 C   0  0  1  0  0  0  0  0  0  0  0  0
  150.9076  140.0455  157.3058 C   0  0  0  0  0  0  0  0  0  0  0  0
  151.6405  140.8748  158.3699 C   0  0  0  0  0  0  0  0  0  0  0  0
  150.8836  142.1897  158.5721 C   0  0  0  0  0  0  0  0  0  0  0  0
  149.4786  141.9132  158.0566 C   0  0  0  0  0  0  0  0  0  0  0  0
  149.7009  140.9246  156.9169 C   0  0  0  0  0  0  0  0  0  0  0  0
  147.2084  137.7996  159.0363 H   0  0  0  0  0  0  0  0  0  0  0  0
  148.9617  136.6628  161.8191 H   0  0  0  0  0  0  0  0  0  0  0  0
  147.9990  135.2307  163.6467 H   0  0  0  0  0  0  0  0  0  0  0  0
  145.7313  134.2041  163.2547 H   0  0  0  0  0  0  0  0  0  0  0  0
  148.6010  138.7273  157.7974 H   0  0  0  0  0  0  0  0  0  0  0  0
  151.5275  138.0429  158.1564 H   0  0  0  0  0  0  0  0  0  0  0  0
  149.8183  138.6314  155.6435 H   0  0  0  0  0  0  0  0  0  0  0  0
  152.2627  136.8354  155.7235 H   0  0  0  0  0  0  0  0  0  0  0  0
  150.7915  136.6481  154.7446 H   0  0  0  0  0  0  0  0  0  0  0  0
  153.0849  138.2474  154.0201 H   0  0  0  0  0  0  0  0  0  0  0  0
  151.5086  138.3464  153.2305 H   0  0  0  0  0  0  0  0  0  0  0  0
  152.7611  139.1398  156.5250 H   0  0  0  0  0  0  0  0  0  0  0  0
  151.6757  140.3302  159.3134 H   0  0  0  0  0  0  0  0  0  0  0  0
  152.6764  141.0717  158.0916 H   0  0  0  0  0  0  0  0  0  0  0  0
  150.8918  142.5247  159.6097 H   0  0  0  0  0  0  0  0  0  0  0  0
  151.3442  142.9714  157.9667 H   0  0  0  0  0  0  0  0  0  0  0  0
  148.8853  141.4421  158.8415 H   0  0  0  0  0  0  0  0  0  0  0  0
  148.9584  142.8168  157.7383 H   0  0  0  0  0  0  0  0  0  0  0  0
  149.9269  141.4772  156.0041 H   0  0  0  0  0  0  0  0  0  0  0  0
  148.7908  140.3584  156.7185 H   0  0  0  0  0  0  0  0  0  0  0  0
  1  2  2  0  0  0  0
  2  3  1  0  0  0  0
  2 10  1  0  0  0  0
  3  4  1  0  0  0  0
  3 22  1  0  0  0  0
  4  9  1  0  0  0  0
  4  5  2  0  0  0  0
  5  6  1  0  0  0  0
  5 23  1  0  0  0  0
  6  7  2  0  0  0  0
  6 24  1  0  0  0  0
  7  8  1  0  0  0  0
  7 25  1  0  0  0  0
  8  9  2  0  0  0  0
 10 11  1  0  0  0  0
 10 26  1  0  0  0  0
 11 17  1  0  0  0  0
 11 12  1  0  0  0  0
 11 27  1  0  0  0  0
 12 16  1  0  0  0  0
 12 13  1  0  0  0  0
 12 28  1  0  0  0  0
 13 14  1  0  0  0  0
 13 29  1  0  0  0  0
 13 30  1  0  0  0  0
 14 15  1  0  0  0  0
 14 31  1  0  0  0  0
 14 32  1  0  0  0  0
 15 16  1  0  0  0  0
 16 17  1  0  0  0  0
 16 33  1  0  0  0  0
 17 21  1  0  0  0  0
 17 18  1  0  0  0  0
 18 19  1  0  0  0  0
 18 34  1  0  0  0  0
 18 35  1  0  0  0  0
 19 20  1  0  0  0  0
 19 36  1  0  0  0  0
 19 37  1  0  0  0  0
 20 21  1  0  0  0  0
 20 38  1  0  0  0  0
 20 39  1  0  0  0  0
 21 40  1  0  0  0  0
 21 41  1  0  0  0  0
M  END
> <s_m_source_file>
AV-unprocessed.smi

> <i_m_source_file_index>
2520

> <i_lp_mmshare_version>
43012

> <i_f3d_flags>
0

> <s_epik_input>
bjFuW2NIXVtjSF1bY0hdYzFbTkhdQyg9TylbTkhdW0NAQEhdMltDQEBIXShbQ0gyXVtDSDJdTzMpW0NASF0zQzI0W0NIMl1bQ0gyXVtDSDJdW0NIMl00

> <s_epik_cmdline>
J2VwaWtfcHl0aG9uJywgJy1waCcsICc3LjAnLCAnLXRuJywgJzgnLCAnLW1hJywgJzIwMCcsICctbWV0YWxfYmluZGluZycsICctaW1hZScsICc8aW5maWxlLm1hZT4nLCAnLW9tYWUnLCAnPG91dGZpbGUubWFlPic=

> <r_lp_tautomer_probability>
1

> <r_epik_Ionization_Penalty>
0.00552561

> <r_epik_Ionization_Penalty_Charging>
0

> <r_epik_Ionization_Penalty_Neutral>
0.00552561

> <r_epik_State_Penalty>
-0

> <r_epik_Charging_Adjusted_Penalty>
0

> <i_epik_Tot_Q>
0

> <i_epik_Tot_abs_Q>
0

> <r_epik_Metal_State_Penalty>
-0

> <b_epik_Metal_Only>
0

> <s_lp_Force_Field>
OPLS_2005

> <r_lp_Energy>
83.483

> <b_lp_Chiralities_Consistent>
1

> <s_lp_Variant>
AV-unprocessed.smi:2520-8

> <Gold.Version>
5.8.1

> <Gold.Id.Protein>
6NUR|6NUR_protein|mol2

> <Gold.PLP.Fitness>
38.0128

> <Gold.PLP.PLP>
-32.6511

> <Gold.PLP.part.hbond>
-2.0000

> <Gold.PLP.part.metal>
0.0000

> <Gold.PLP.part.buried>
-6.7965

> <Gold.PLP.part.nonpolar>
-25.1177

> <Gold.PLP.part.repulsive>
0.3612

> <Gold.PLP.ligand.clash>
0.0000

> <Gold.PLP.ligand.torsion>
0.4602

> <Gold.PLP.Chemscore.Hbond>
2.0000

> <Gold.PLP.Chemscore.CHOScore>
0.0000

> <Gold.PLP.Chemscore.Metal>
0.0000

> <Gold.Chemscore.Hbonds>
donor molecule, donor type, donor heavy atom, donor atom, acceptor molecule, acceptor atom, score
      P1  H  6896  6909       L1     1  1.00
      P1  H  7989  7998       L1    15  1.00

> <Gold.PLP.Chemscore.Internal.Correction>
0.2821

> <Gold.Rescore>
     Score         DG    S(hbond)    S(metal)    S(lipo)     H(rot)  DE(clash)    DE(int)     intcor
     17.24     -19.16       1.94        0.00      83.51       1.00       0.22       1.70       ----

> <Gold.Chemscore.Fitness>
17.2404

> <Gold.Chemscore.DG>
-19.1592

> <Gold.Chemscore.ZeroCoef>
-5.4800

> <Gold.Chemscore.Hbond>
1.9366

> <Gold.Chemscore.Metal>
0.0000

> <Gold.Chemscore.Lipo>
83.5132

> <Gold.Chemscore.Internal_Hbond>
0.0000

> <Gold.Chemscore.DEClash>
0.2223

> <Gold.Chemscore.DEInternal>
1.6965

> <Gold.Chemscore.Rot>
1.0000

> <Gold.Chemscore.Internal.Correction>
   9.000000E+99

> <Gold.Chemscore.Hbonds>
donor molecule, donor type, donor heavy atom, donor atom, acceptor molecule, acceptor atom, score
      P1  H  6896  6909       L1     1  1.00
      P1  H  7989  7998       L1    15  0.63

> <Gold.Chemscore.Hbond.Weighted>
-6.4681

> <Gold.Chemscore.Metal.Weighted>
-0.0000

> <Gold.Chemscore.Lipo.Weighted>
-9.7710

> <Gold.Chemscore.Internal_Hbond.Weighted>
0.0000

> <Gold.Chemscore.DEClash.Weighted>
0.2223

> <Gold.Chemscore.DEInternal.Weighted>
1.6965

> <Gold.Chemscore.Rot.Weighted>
2.5600

> <Gold.Chemscore.Internal.Correction.Weighted>
   9.000000E+99

> <Gold.Protein.RotatedTorsions>
[ 6907 6896 6895 6894 ] final   84.12 input  -60.11 | X-H torsion
[ 7974 7965 7964 7962 ] final   58.00 input  175.53 | X-H torsion
[ 8008 7997 7996 7995 ] final -159.28 input   59.86 | X-H torsion
[ 10167 10162 10161 10158 ] final  -32.09 input  -65.29 | X-H torsion
[ 10718 10713 10712 10709 ] final  -73.14 input   66.30 | X-H torsion
[ 10763 10752 10751 10750 ] final   36.17 input  -60.55 | X-H torsion
[ 11005 11000 10999 10996 ] final   97.40 input  -57.11 | X-H torsion

> <Gold.Protein.ActiveResidues>
 VAL166  LYS551  ARG553  GLY616  TRP617  ASP618  TYR619  PRO620  LYS621  CYS622 
 ASP623  PHE694  ASN695  SER759  ASP760  ASP761  ALA762  ILE779  LEU786  VAL792 
 PHE793  MET794  SER795  GLU796  ALA797  LYS798  CYS799  TRP800  GLU811  SER814 

> <Gold.Protein.RotatedAtoms>
  152.5344  134.2789  159.8999 H   0  0  0  0  0  0  0  0  0  0  0  0  # atno 6907 bound_to 6896
  151.2744  133.4233  159.2631 H   0  0  0  0  0  0  0  0  0  0  0  0  # atno 6908 bound_to 6896
  151.0339  134.9574  159.8182 H   0  0  0  0  0  0  0  0  0  0  0  0  # atno 6909 bound_to 6896
  145.9229  139.3744  143.0467 H   0  0  0  0  0  0  0  0  0  0  0  0  # atno 7974 bound_to 7965
  155.7602  140.0838  157.2159 H   0  0  0  0  0  0  0  0  0  0  0  0  # atno 8008 bound_to 7997
  154.4004  140.1544  156.2880 H   0  0  0  0  0  0  0  0  0  0  0  0  # atno 8009 bound_to 7997
  155.8847  140.3418  155.5915 H   0  0  0  0  0  0  0  0  0  0  0  0  # atno 8010 bound_to 7997
  140.7226  143.3721  151.1758 H   0  0  0  0  0  0  0  0  0  0  0  0  # atno 10167 bound_to 10162
  156.0292  130.4387  150.2698 H   0  0  0  0  0  0  0  0  0  0  0  0  # atno 10718 bound_to 10713
  153.0088  135.6313  154.1943 H   0  0  0  0  0  0  0  0  0  0  0  0  # atno 10763 bound_to 10752
  154.1686  135.2819  155.3089 H   0  0  0  0  0  0  0  0  0  0  0  0  # atno 10764 bound_to 10752
  154.5926  135.5613  153.7354 H   0  0  0  0  0  0  0  0  0  0  0  0  # atno 10765 bound_to 10752
  139.8776  134.8999  156.4302 H   0  0  0  0  0  0  0  0  0  0  0  0  # atno 11005 bound_to 11000
  145.8526  140.9520  143.0741 LP  0  0  0  0  0  0  0  0  0  0  0  0  # atno 17320 bound_to 7965
  144.6755  140.0427  143.7480 LP  0  0  0  0  0  0  0  0  0  0  0  0  # atno 17321 bound_to 7965
  139.7294  143.9096  152.3014 LP  0  0  0  0  0  0  0  0  0  0  0  0  # atno 17342 bound_to 10162
  139.8880  144.6981  150.8803 LP  0  0  0  0  0  0  0  0  0  0  0  0  # atno 17343 bound_to 10162
  157.0801  131.0141  151.3159 LP  0  0  0  0  0  0  0  0  0  0  0  0  # atno 17370 bound_to 10713
  157.4934  130.7835  149.7530 LP  0  0  0  0  0  0  0  0  0  0  0  0  # atno 17371 bound_to 10713
  140.9072  133.7737  155.9749 LP  0  0  0  0  0  0  0  0  0  0  0  0  # atno 17394 bound_to 11000
  140.8586  134.2868  157.5244 LP  0  0  0  0  0  0  0  0  0  0  0  0  # atno 17395 bound_to 11000

$$$$
