AV-unprocessed.smi:2940|AV-procd|sdf|11263|dock4
  -GOLD-   2272016153D 1   1.00000     0.00000
 Structure written by MMmdl.
 27 28  0  0  0  0  0  0  0  0  2 V2000
  146.0977  139.0283  151.9062 N   0  0  0  0  0  0  0  0  0  0  0  0
  147.0904  139.4951  152.7655 C   0  0  0  0  0  0  0  0  0  0  0  0
  147.0818  140.8104  153.2740 C   0  0  0  0  0  0  0  0  0  0  0  0
  148.1172  141.2193  154.1401 C   0  0  0  0  0  0  0  0  0  0  0  0
  149.1410  140.3090  154.4819 C   0  0  0  0  0  0  0  0  0  0  0  0
  150.1677  140.7175  155.3440 N   0  0  0  0  0  0  0  0  0  0  0  0
  149.6845  141.4307  156.5202 C   0  0  0  0  0  0  0  0  0  0  0  0
  150.8734  141.9438  157.3516 C   0  0  0  0  0  0  0  0  0  0  0  0
  151.7245  140.8525  157.6904 O   0  0  0  0  0  0  0  0  0  0  0  0
  152.2545  140.2094  156.5348 C   0  0  0  0  0  0  0  0  0  0  0  0
  151.1014  139.6502  155.6829 C   0  0  0  0  0  0  0  0  0  0  0  0
  149.0944  139.0032  153.9397 C   0  0  0  0  0  0  0  0  0  0  0  0
  148.0852  138.6499  153.1135 N   0  3  0  0  0  0  0  0  0  0  0  0
  146.1119  138.0843  151.5470 H   0  0  0  0  0  0  0  0  0  0  0  0
  145.3300  139.6159  151.6142 H   0  0  0  0  0  0  0  0  0  0  0  0
  146.2946  141.5006  153.0072 H   0  0  0  0  0  0  0  0  0  0  0  0
  148.1239  142.2238  154.5378 H   0  0  0  0  0  0  0  0  0  0  0  0
  149.0541  142.2667  156.2144 H   0  0  0  0  0  0  0  0  0  0  0  0
  149.0690  140.7673  157.1294 H   0  0  0  0  0  0  0  0  0  0  0  0
  151.4357  142.7004  156.8018 H   0  0  0  0  0  0  0  0  0  0  0  0
  150.5171  142.4147  158.2677 H   0  0  0  0  0  0  0  0  0  0  0  0
  152.8591  140.9121  155.9593 H   0  0  0  0  0  0  0  0  0  0  0  0
  152.9163  139.4024  156.8490 H   0  0  0  0  0  0  0  0  0  0  0  0
  150.5837  138.8650  156.2356 H   0  0  0  0  0  0  0  0  0  0  0  0
  151.4952  139.1987  154.7714 H   0  0  0  0  0  0  0  0  0  0  0  0
  149.8273  138.2351  154.1401 H   0  0  0  0  0  0  0  0  0  0  0  0
  148.0768  137.7017  152.7373 H   0  0  0  0  0  0  0  0  0  0  0  0
  1  2  1  0  0  0  0
  1 14  1  0  0  0  0
  1 15  1  0  0  0  0
  2 13  1  0  0  0  0
  2  3  2  0  0  0  0
  3  4  1  0  0  0  0
  3 16  1  0  0  0  0
  4  5  2  0  0  0  0
  4 17  1  0  0  0  0
  5  6  1  0  0  0  0
  5 12  1  0  0  0  0
  6 11  1  0  0  0  0
  6  7  1  0  0  0  0
  7  8  1  0  0  0  0
  7 18  1  0  0  0  0
  7 19  1  0  0  0  0
  8  9  1  0  0  0  0
  8 20  1  0  0  0  0
  8 21  1  0  0  0  0
  9 10  1  0  0  0  0
 10 11  1  0  0  0  0
 10 22  1  0  0  0  0
 10 23  1  0  0  0  0
 11 24  1  0  0  0  0
 11 25  1  0  0  0  0
 12 13  2  0  0  0  0
 12 26  1  0  0  0  0
 13 27  1  0  0  0  0
M  CHG  1  13   1
M  END
> <s_m_source_file>
AV-unprocessed.smi

> <i_m_source_file_index>
2940

> <i_lp_mmshare_version>
43012

> <i_f3d_flags>
0

> <s_epik_input>
W05IMl1jMVtjSF1bY0hdYyhbY0hdbjEpTjJbQ0gyXVtDSDJdT1tDSDJdW0NIMl0y

> <s_epik_cmdline>
J2VwaWtfcHl0aG9uJywgJy1waCcsICc3LjAnLCAnLXRuJywgJzgnLCAnLW1hJywgJzIwMCcsICctbWV0YWxfYmluZGluZycsICctaW1hZScsICc8aW5maWxlLm1hZT4nLCAnLW9tYWUnLCAnPG91dGZpbGUubWFlPic=

> <r_lp_tautomer_probability>
0.999994

> <r_epik_Ionization_Penalty>
1.05441

> <r_epik_Ionization_Penalty_Charging>
1.05441

> <r_epik_Ionization_Penalty_Neutral>
7.75172e-07

> <r_epik_State_Penalty>
1.10757

> <r_epik_Charging_Adjusted_Penalty>
2.16198

> <i_epik_Tot_Q>
1

> <i_epik_Tot_abs_Q>
1

> <r_epik_Metal_State_Penalty>
5.10118

> <b_epik_Metal_Only>
0

> <s_lp_Force_Field>
OPLS_2005

> <r_lp_Energy>
27.835

> <b_lp_Chiralities_Consistent>
1

> <s_lp_Variant>
AV-unprocessed.smi:2940-2

> <Gold.Version>
5.8.1

> <Gold.Id.Protein>
6NUR|6NUR_protein|mol2

> <Gold.PLP.Fitness>
34.4512

> <Gold.PLP.PLP>
-24.6369

> <Gold.PLP.part.hbond>
-4.2335

> <Gold.PLP.part.metal>
0.0000

> <Gold.PLP.part.buried>
-0.6470

> <Gold.PLP.part.nonpolar>
-19.7307

> <Gold.PLP.part.repulsive>
0.1729

> <Gold.PLP.ligand.clash>
0.5083

> <Gold.PLP.ligand.torsion>
0.1820

> <Gold.PLP.Chemscore.Hbond>
3.5284

> <Gold.PLP.Chemscore.CHOScore>
0.0000

> <Gold.PLP.Chemscore.Metal>
0.0000

> <Gold.Chemscore.Hbonds>
donor molecule, donor type, donor heavy atom, donor atom, acceptor molecule, acceptor atom, score
      L1  H     1    15       P1 10175  1.54
      L1  H    13    27       P1  7948  2.00

> <Gold.PLP.Chemscore.Internal.Correction>
0.1012

> <Gold.Rescore>
     Score         DG    S(hbond)    S(metal)    S(lipo)     H(rot)  DE(clash)    DE(int)     intcor
     14.58     -15.01       1.99        0.00      46.56       1.00       0.21       0.21       ----

> <Gold.Chemscore.Fitness>
14.5831

> <Gold.Chemscore.DG>
-15.0085

> <Gold.Chemscore.ZeroCoef>
-5.4800

> <Gold.Chemscore.Hbond>
1.9883

> <Gold.Chemscore.Metal>
0.0000

> <Gold.Chemscore.Lipo>
46.5603

> <Gold.Chemscore.Internal_Hbond>
0.0000

> <Gold.Chemscore.DEClash>
0.2121

> <Gold.Chemscore.DEInternal>
0.2133

> <Gold.Chemscore.Rot>
1.0000

> <Gold.Chemscore.Internal.Correction>
   9.000000E+99

> <Gold.Chemscore.Hbonds>
donor molecule, donor type, donor heavy atom, donor atom, acceptor molecule, acceptor atom, score
      L1  H     1    15       P1 10175  0.44
      L1  H    13    27       P1  7948  0.94

> <Gold.Chemscore.Hbond.Weighted>
-6.6410

> <Gold.Chemscore.Metal.Weighted>
-0.0000

> <Gold.Chemscore.Lipo.Weighted>
-5.4476

> <Gold.Chemscore.Internal_Hbond.Weighted>
0.0000

> <Gold.Chemscore.DEClash.Weighted>
0.2121

> <Gold.Chemscore.DEInternal.Weighted>
0.2133

> <Gold.Chemscore.Rot.Weighted>
2.5600

> <Gold.Chemscore.Internal.Correction.Weighted>
   9.000000E+99

> <Gold.Protein.RotatedTorsions>
[ 6907 6896 6895 6894 ] final  146.29 input  -60.11 | X-H torsion
[ 7974 7965 7964 7962 ] final -117.00 input  175.53 | X-H torsion
[ 8008 7997 7996 7995 ] final  177.05 input   59.86 | X-H torsion
[ 10167 10162 10161 10158 ] final  -37.71 input  -65.29 | X-H torsion
[ 10718 10713 10712 10709 ] final  164.67 input   66.30 | X-H torsion
[ 10763 10752 10751 10750 ] final -140.09 input  -60.55 | X-H torsion
[ 11005 11000 10999 10996 ] final  105.59 input  -57.11 | X-H torsion

> <Gold.Protein.ActiveResidues>
 VAL166  LYS551  ARG553  GLY616  TRP617  ASP618  TYR619  PRO620  LYS621  CYS622 
 ASP623  PHE694  ASN695  SER759  ASP760  ASP761  ALA762  ILE779  LEU786  VAL792 
 PHE793  MET794  SER795  GLU796  ALA797  LYS798  CYS799  TRP800  GLU811  SER814 

> <Gold.Protein.RotatedAtoms>
  152.1698  133.4636  159.4903 H   0  0  0  0  0  0  0  0  0  0  0  0  # atno 6907 bound_to 6896
  150.6918  134.1967  159.4315 H   0  0  0  0  0  0  0  0  0  0  0  0  # atno 6908 bound_to 6896
  151.9874  134.9997  160.0610 H   0  0  0  0  0  0  0  0  0  0  0  0  # atno 6909 bound_to 6896
  145.0902  140.8485  143.3987 H   0  0  0  0  0  0  0  0  0  0  0  0  # atno 7974 bound_to 7965
  156.0699  140.1368  156.9841 H   0  0  0  0  0  0  0  0  0  0  0  0  # atno 8008 bound_to 7997
  154.4526  140.0974  156.6714 H   0  0  0  0  0  0  0  0  0  0  0  0  # atno 8009 bound_to 7997
  155.5245  140.3457  155.4416 H   0  0  0  0  0  0  0  0  0  0  0  0  # atno 8010 bound_to 7997
  140.7111  143.3324  151.2539 H   0  0  0  0  0  0  0  0  0  0  0  0  # atno 10167 bound_to 10162
  157.0911  131.0418  151.2537 H   0  0  0  0  0  0  0  0  0  0  0  0  # atno 10718 bound_to 10713
  154.8589  135.3563  154.5651 H   0  0  0  0  0  0  0  0  0  0  0  0  # atno 10763 bound_to 10752
  153.6265  135.7004  153.5296 H   0  0  0  0  0  0  0  0  0  0  0  0  # atno 10764 bound_to 10752
  153.3085  135.4185  155.1275 H   0  0  0  0  0  0  0  0  0  0  0  0  # atno 10765 bound_to 10752
  139.8804  134.9341  156.5537 H   0  0  0  0  0  0  0  0  0  0  0  0  # atno 11005 bound_to 11000
  145.1074  139.2780  143.5655 LP  0  0  0  0  0  0  0  0  0  0  0  0  # atno 17320 bound_to 7965
  146.3531  140.0660  142.8626 LP  0  0  0  0  0  0  0  0  0  0  0  0  # atno 17321 bound_to 7965
  139.6810  143.9855  152.2808 LP  0  0  0  0  0  0  0  0  0  0  0  0  # atno 17342 bound_to 10162
  139.9485  144.6636  150.8195 LP  0  0  0  0  0  0  0  0  0  0  0  0  # atno 17343 bound_to 10162
  157.4720  130.7714  149.7332 LP  0  0  0  0  0  0  0  0  0  0  0  0  # atno 17370 bound_to 10713
  155.9898  130.3949  150.3058 LP  0  0  0  0  0  0  0  0  0  0  0  0  # atno 17371 bound_to 10713
  140.8221  133.8345  155.8905 LP  0  0  0  0  0  0  0  0  0  0  0  0  # atno 17394 bound_to 11000
  140.9408  134.1903  157.4798 LP  0  0  0  0  0  0  0  0  0  0  0  0  # atno 17395 bound_to 11000

$$$$
