AV-unprocessed.smi:342|AV-procd|sdf|2387|dock7
  -GOLD-   2262022313D 1   1.00000     0.00000
 Structure written by MMmdl.
 42 44  0  0  0  0  0  0  0  0  2 V2000
  149.1924  142.5836  157.0366 O   0  0  0  0  0  0  0  0  0  0  0  0
  149.4543  141.3998  156.3085 C   0  0  1  0  0  0  0  0  0  0  0  0
  148.6575  141.4505  154.9900 C   0  0  0  0  0  0  0  0  0  0  0  0
  147.4395  142.2947  155.0899 N   0  3  0  0  0  0  0  0  0  0  0  0
  146.8006  142.5281  153.7726 C   0  0  0  0  0  0  0  0  0  0  0  0
  145.5838  143.4568  153.9218 C   0  0  0  0  0  0  0  0  0  0  0  0
  144.6637  142.8905  154.8466 O   0  0  0  0  0  0  0  0  0  0  0  0
  145.2347  142.7400  156.1405 C   0  0  0  0  0  0  0  0  0  0  0  0
  146.4420  141.7899  156.0663 C   0  0  0  0  0  0  0  0  0  0  0  0
  150.9701  141.2706  156.0498 C   0  0  0  0  0  0  0  0  0  0  0  0
  151.7176  140.8576  157.2312 N   0  0  0  0  0  0  0  0  0  0  0  0
  152.2252  139.6303  157.5214 C   0  0  0  0  0  0  0  0  0  0  0  0
  152.0966  138.4613  156.5830 C   0  0  0  0  0  0  0  0  0  0  0  0
  150.8173  138.1243  156.4135 F   0  0  0  0  0  0  0  0  0  0  0  0
  152.5996  138.7510  155.3836 F   0  0  0  0  0  0  0  0  0  0  0  0
  152.7384  137.3997  157.0707 F   0  0  0  0  0  0  0  0  0  0  0  0
  152.8774  139.5387  158.6826 N   0  0  0  0  0  0  0  0  0  0  0  0
  152.7914  140.8201  159.1882 C   0  0  0  0  0  0  0  0  0  0  0  0
  153.2901  141.3678  160.3918 C   0  0  0  0  0  0  0  0  0  0  0  0
  153.0802  142.7283  160.6975 C   0  0  0  0  0  0  0  0  0  0  0  0
  152.3713  143.5588  159.8058 C   0  0  0  0  0  0  0  0  0  0  0  0
  151.8661  143.0326  158.6014 C   0  0  0  0  0  0  0  0  0  0  0  0
  152.0759  141.6728  158.3017 C   0  0  0  0  0  0  0  0  0  0  0  0
  149.3246  143.3247  156.4639 H   0  0  0  0  0  0  0  0  0  0  0  0
  149.1274  140.5574  156.9151 H   0  0  0  0  0  0  0  0  0  0  0  0
  149.3105  141.8393  154.2067 H   0  0  0  0  0  0  0  0  0  0  0  0
  148.3713  140.4458  154.6748 H   0  0  0  0  0  0  0  0  0  0  0  0
  147.5192  142.9762  153.0853 H   0  0  0  0  0  0  0  0  0  0  0  0
  146.4928  141.5744  153.3402 H   0  0  0  0  0  0  0  0  0  0  0  0
  145.8893  144.4502  154.2546 H   0  0  0  0  0  0  0  0  0  0  0  0
  145.0864  143.5824  152.9598 H   0  0  0  0  0  0  0  0  0  0  0  0
  145.5278  143.7132  156.5381 H   0  0  0  0  0  0  0  0  0  0  0  0
  144.4795  142.3350  156.8144 H   0  0  0  0  0  0  0  0  0  0  0  0
  146.1109  140.7931  155.7703 H   0  0  0  0  0  0  0  0  0  0  0  0
  146.8863  141.6969  157.0567 H   0  0  0  0  0  0  0  0  0  0  0  0
  151.1542  140.5564  155.2478 H   0  0  0  0  0  0  0  0  0  0  0  0
  151.3760  142.2206  155.6996 H   0  0  0  0  0  0  0  0  0  0  0  0
  153.8368  140.7406  161.0803 H   0  0  0  0  0  0  0  0  0  0  0  0
  153.4667  143.1369  161.6198 H   0  0  0  0  0  0  0  0  0  0  0  0
  152.2163  144.6005  160.0467 H   0  0  0  0  0  0  0  0  0  0  0  0
  151.3235  143.6680  157.9175 H   0  0  0  0  0  0  0  0  0  0  0  0
  147.7480  143.1993  155.4180 H   0  0  0  0  0  0  0  0  0  0  0  0
  1  2  1  0  0  0  0
  1 24  1  0  0  0  0
  2  3  1  0  0  0  0
  2 10  1  0  0  0  0
  2 25  1  0  0  0  0
  3  4  1  0  0  0  0
  3 26  1  0  0  0  0
  3 27  1  0  0  0  0
  4  9  1  0  0  0  0
  4  5  1  0  0  0  0
  4 42  1  0  0  0  0
  5  6  1  0  0  0  0
  5 28  1  0  0  0  0
  5 29  1  0  0  0  0
  6  7  1  0  0  0  0
  6 30  1  0  0  0  0
  6 31  1  0  0  0  0
  7  8  1  0  0  0  0
  8  9  1  0  0  0  0
  8 32  1  0  0  0  0
  8 33  1  0  0  0  0
  9 34  1  0  0  0  0
  9 35  1  0  0  0  0
 10 11  1  0  0  0  0
 10 36  1  0  0  0  0
 10 37  1  0  0  0  0
 11 23  1  0  0  0  0
 11 12  1  0  0  0  0
 12 13  1  0  0  0  0
 12 17  2  0  0  0  0
 13 14  1  0  0  0  0
 13 15  1  0  0  0  0
 13 16  1  0  0  0  0
 17 18  1  0  0  0  0
 18 23  2  0  0  0  0
 18 19  1  0  0  0  0
 19 20  2  0  0  0  0
 19 38  1  0  0  0  0
 20 21  1  0  0  0  0
 20 39  1  0  0  0  0
 21 22  2  0  0  0  0
 21 40  1  0  0  0  0
 22 23  1  0  0  0  0
 22 41  1  0  0  0  0
M  CHG  1   4   1
M  END
> <s_m_source_file>
AV-unprocessed.smi

> <i_m_source_file_index>
342

> <i_lp_mmshare_version>
43012

> <i_f3d_flags>
0

> <s_epik_input>
W2NIXTFbY0hdW2NIXVtjSF1jKGMxMiluKGMobjIpQyhGKShGKUYpW0NIMl1bQ0BIXShbT0hdKVtDSDJdTjNbQ0gyXVtDSDJdT1tDSDJdW0NIMl0z

> <s_epik_cmdline>
J2VwaWtfcHl0aG9uJywgJy1waCcsICc3LjAnLCAnLXRuJywgJzgnLCAnLW1hJywgJzIwMCcsICctbWV0YWxfYmluZGluZycsICctaW1hZScsICc8aW5maWxlLm1hZT4nLCAnLW9tYWUnLCAnPG91dGZpbGUubWFlPic=

> <r_epik_Ionization_Penalty>
0.608409

> <r_epik_Ionization_Penalty_Charging>
0.608065

> <r_epik_Ionization_Penalty_Neutral>
0.000344684

> <r_epik_State_Penalty>
0.623026

> <r_epik_Charging_Adjusted_Penalty>
1.23109

> <i_epik_Tot_Q>
1

> <i_epik_Tot_abs_Q>
1

> <r_epik_Metal_State_Penalty>
0.623013

> <b_epik_Metal_Only>
0

> <s_lp_Force_Field>
OPLS_2005

> <r_lp_Energy>
25.6933

> <b_lp_Chiralities_Consistent>
1

> <s_lp_Variant>
AV-unprocessed.smi:342-4

> <Gold.Version>
5.8.1

> <Gold.Id.Protein>
6NUR|6NUR_protein|mol2

> <Gold.PLP.Fitness>
52.1212

> <Gold.PLP.PLP>
-44.7358

> <Gold.PLP.part.hbond>
-2.0000

> <Gold.PLP.part.metal>
0.0000

> <Gold.PLP.part.buried>
-7.8392

> <Gold.PLP.part.nonpolar>
-35.9201

> <Gold.PLP.part.repulsive>
0.2881

> <Gold.PLP.ligand.clash>
0.0000

> <Gold.PLP.ligand.torsion>
0.8398

> <Gold.PLP.Chemscore.Hbond>
3.0000

> <Gold.PLP.Chemscore.CHOScore>
0.0000

> <Gold.PLP.Chemscore.Metal>
0.0000

> <Gold.Chemscore.Hbonds>
donor molecule, donor type, donor heavy atom, donor atom, acceptor molecule, acceptor atom, score
      L1  H     1    24       P1  8028  1.00
      L1  H     4    42       P1  8028  2.00

> <Gold.PLP.Chemscore.Internal.Correction>
0.0650

> <Gold.Rescore>
     Score         DG    S(hbond)    S(metal)    S(lipo)     H(rot)  DE(clash)    DE(int)     intcor
     15.80     -18.04       1.67        0.00     110.37       2.32       0.22       2.02       ----

> <Gold.Chemscore.Fitness>
15.7960

> <Gold.Chemscore.DG>
-18.0385

> <Gold.Chemscore.ZeroCoef>
-5.4800

> <Gold.Chemscore.Hbond>
1.6726

> <Gold.Chemscore.Metal>
0.0000

> <Gold.Chemscore.Lipo>
110.3653

> <Gold.Chemscore.Internal_Hbond>
0.0000

> <Gold.Chemscore.DEClash>
0.2175

> <Gold.Chemscore.DEInternal>
2.0250

> <Gold.Chemscore.Rot>
2.3206

> <Gold.Chemscore.Internal.Correction>
   9.000000E+99

> <Gold.Chemscore.Hbonds>
donor molecule, donor type, donor heavy atom, donor atom, acceptor molecule, acceptor atom, score
      L1  H     1    24       P1  8028  0.98
      L1  H     4    42       P1  8028  0.45

> <Gold.Chemscore.Hbond.Weighted>
-5.5865

> <Gold.Chemscore.Metal.Weighted>
-0.0000

> <Gold.Chemscore.Lipo.Weighted>
-12.9127

> <Gold.Chemscore.Internal_Hbond.Weighted>
0.0000

> <Gold.Chemscore.DEClash.Weighted>
0.2175

> <Gold.Chemscore.DEInternal.Weighted>
2.0250

> <Gold.Chemscore.Rot.Weighted>
5.9407

> <Gold.Chemscore.Internal.Correction.Weighted>
   9.000000E+99

> <Gold.Protein.RotatedTorsions>
[ 6907 6896 6895 6894 ] final -141.53 input  -60.11 | X-H torsion
[ 7974 7965 7964 7962 ] final   27.84 input  175.53 | X-H torsion
[ 8008 7997 7996 7995 ] final  -70.13 input   59.86 | X-H torsion
[ 10167 10162 10161 10158 ] final  -58.57 input  -65.29 | X-H torsion
[ 10718 10713 10712 10709 ] final  -17.56 input   66.30 | X-H torsion
[ 10763 10752 10751 10750 ] final   10.23 input  -60.55 | X-H torsion
[ 11005 11000 10999 10996 ] final  143.19 input  -57.11 | X-H torsion

> <Gold.Protein.ActiveResidues>
 VAL166  LYS551  ARG553  GLY616  TRP617  ASP618  TYR619  PRO620  LYS621  CYS622 
 ASP623  PHE694  ASN695  SER759  ASP760  ASP761  ALA762  ILE779  LEU786  VAL792 
 PHE793  MET794  SER795  GLU796  ALA797  LYS798  CYS799  TRP800  GLU811  SER814 

> <Gold.Protein.RotatedAtoms>
  151.0751  133.5435  159.2624 H   0  0  0  0  0  0  0  0  0  0  0  0  # atno 6907 bound_to 6896
  151.2360  135.0571  159.9016 H   0  0  0  0  0  0  0  0  0  0  0  0  # atno 6908 bound_to 6896
  152.5416  134.0533  159.8173 H   0  0  0  0  0  0  0  0  0  0  0  0  # atno 6909 bound_to 6896
  146.1762  139.7136  142.8933 H   0  0  0  0  0  0  0  0  0  0  0  0  # atno 7974 bound_to 7965
  154.4989  140.0840  156.7756 H   0  0  0  0  0  0  0  0  0  0  0  0  # atno 8008 bound_to 7997
  155.4050  140.3439  155.4241 H   0  0  0  0  0  0  0  0  0  0  0  0  # atno 8009 bound_to 7997
  156.1430  140.1535  156.8878 H   0  0  0  0  0  0  0  0  0  0  0  0  # atno 8010 bound_to 7997
  140.6189  143.2412  151.5529 H   0  0  0  0  0  0  0  0  0  0  0  0  # atno 10167 bound_to 10162
  156.5718  130.4751  149.6359 H   0  0  0  0  0  0  0  0  0  0  0  0  # atno 10718 bound_to 10713
  153.2055  135.6862  153.8178 H   0  0  0  0  0  0  0  0  0  0  0  0  # atno 10763 bound_to 10752
  153.7429  135.3235  155.3308 H   0  0  0  0  0  0  0  0  0  0  0  0  # atno 10764 bound_to 10752
  154.8194  135.4662  154.0840 H   0  0  0  0  0  0  0  0  0  0  0  0  # atno 10765 bound_to 10752
  140.0535  134.9243  157.1059 H   0  0  0  0  0  0  0  0  0  0  0  0  # atno 11005 bound_to 11000
  145.4205  141.0406  143.2966 LP  0  0  0  0  0  0  0  0  0  0  0  0  # atno 17320 bound_to 7965
  144.8240  139.5742  143.6974 LP  0  0  0  0  0  0  0  0  0  0  0  0  # atno 17321 bound_to 7965
  139.5422  144.2618  152.1372 LP  0  0  0  0  0  0  0  0  0  0  0  0  # atno 17342 bound_to 10162
  140.1833  144.4823  150.6517 LP  0  0  0  0  0  0  0  0  0  0  0  0  # atno 17343 bound_to 10162
  156.2708  130.7016  151.1813 LP  0  0  0  0  0  0  0  0  0  0  0  0  # atno 17370 bound_to 10713
  157.7346  131.0580  150.5513 LP  0  0  0  0  0  0  0  0  0  0  0  0  # atno 17371 bound_to 10713
  140.3880  134.2215  155.7167 LP  0  0  0  0  0  0  0  0  0  0  0  0  # atno 17394 bound_to 11000
  141.1941  133.8135  157.0771 LP  0  0  0  0  0  0  0  0  0  0  0  0  # atno 17395 bound_to 11000

$$$$
