AV-unprocessed.smi:1439|AV-procd|sdf|5871|dock9
  -GOLD-   22720 5543D 1   1.00000     0.00000
 Structure written by MMmdl.
 35 36  0  0  0  0  0  0  0  0  2 V2000
  147.0473  143.1951  153.9684 N   0  0  0  0  0  0  0  0  0  0  0  0
  147.1271  142.0256  154.6115 C   0  0  0  0  0  0  0  0  0  0  0  0
  146.6238  141.8576  155.7202 O   0  0  0  0  0  0  0  0  0  0  0  0
  147.8457  140.8684  153.9070 C   0  0  0  0  0  0  0  0  0  0  0  0
  148.9791  140.3304  154.7349 C   0  0  0  0  0  0  0  0  0  0  0  0
  149.9189  139.4116  154.3432 C   0  0  0  0  0  0  0  0  0  0  0  0
  151.0563  139.0706  155.6152 S   0  0  0  0  0  0  0  0  0  0  0  0
  150.2070  140.2077  156.6640 C   0  0  0  0  0  0  0  0  0  0  0  0
  150.5514  140.4904  157.9300 N   0  5  0  0  0  0  0  0  0  0  0  0
  151.8363  140.3251  158.3247 C   0  0  0  0  0  0  0  0  0  0  0  0
  152.8255  140.0681  157.6349 O   0  0  0  0  0  0  0  0  0  0  0  0
  151.9744  140.4991  159.8437 C   0  0  0  0  0  0  0  0  0  0  0  0
  152.8103  141.7265  160.2544 C   0  0  0  0  0  0  0  0  0  0  0  0
  152.1555  143.0520  159.8394 C   0  0  2  0  0  0  0  0  0  0  0  0
  152.7732  143.6870  158.5970 C   0  0  0  0  0  0  0  0  0  0  0  0
  152.3916  145.1512  158.7345 C   0  0  0  0  0  0  0  0  0  0  0  0
  152.0733  145.3143  160.2246 C   0  0  0  0  0  0  0  0  0  0  0  0
  152.3645  144.0561  160.8196 O   0  0  0  0  0  0  0  0  0  0  0  0
  149.1508  140.7580  156.0549 N   0  0  0  0  0  0  0  0  0  0  0  0
  146.6051  143.9843  154.4163 H   0  0  0  0  0  0  0  0  0  0  0  0
  147.4537  143.2925  153.0492 H   0  0  0  0  0  0  0  0  0  0  0  0
  147.1263  140.0771  153.6918 H   0  0  0  0  0  0  0  0  0  0  0  0
  148.2090  141.2228  152.9419 H   0  0  0  0  0  0  0  0  0  0  0  0
  150.0132  138.9185  153.3876 H   0  0  0  0  0  0  0  0  0  0  0  0
  150.9768  140.5791  160.2784 H   0  0  0  0  0  0  0  0  0  0  0  0
  152.4261  139.5968  160.2592 H   0  0  0  0  0  0  0  0  0  0  0  0
  152.9723  141.7231  161.3334 H   0  0  0  0  0  0  0  0  0  0  0  0
  153.7963  141.6626  159.7916 H   0  0  0  0  0  0  0  0  0  0  0  0
  151.0825  142.9167  159.6897 H   0  0  0  0  0  0  0  0  0  0  0  0
  153.8594  143.5879  158.6239 H   0  0  0  0  0  0  0  0  0  0  0  0
  152.4160  143.2385  157.6696 H   0  0  0  0  0  0  0  0  0  0  0  0
  153.2012  145.8064  158.4115 H   0  0  0  0  0  0  0  0  0  0  0  0
  151.5115  145.3823  158.1335 H   0  0  0  0  0  0  0  0  0  0  0  0
  152.6608  146.1049  160.6921 H   0  0  0  0  0  0  0  0  0  0  0  0
  151.0170  145.5459  160.3680 H   0  0  0  0  0  0  0  0  0  0  0  0
  1  2  1  0  0  0  0
  1 20  1  0  0  0  0
  1 21  1  0  0  0  0
  2  3  2  0  0  0  0
  2  4  1  0  0  0  0
  4  5  1  0  0  0  0
  4 22  1  0  0  0  0
  4 23  1  0  0  0  0
  5 19  1  0  0  0  0
  5  6  2  0  0  0  0
  6  7  1  0  0  0  0
  6 24  1  0  0  0  0
  7  8  1  0  0  0  0
  8  9  1  0  0  0  0
  8 19  2  0  0  0  0
  9 10  1  0  0  0  0
 10 11  2  0  0  0  0
 10 12  1  0  0  0  0
 12 13  1  0  0  0  0
 12 25  1  0  0  0  0
 12 26  1  0  0  0  0
 13 14  1  0  0  0  0
 13 27  1  0  0  0  0
 13 28  1  0  0  0  0
 14 18  1  0  0  0  0
 14 15  1  0  0  0  0
 14 29  1  0  0  0  0
 15 16  1  0  0  0  0
 15 30  1  0  0  0  0
 15 31  1  0  0  0  0
 16 17  1  0  0  0  0
 16 32  1  0  0  0  0
 16 33  1  0  0  0  0
 17 18  1  0  0  0  0
 17 34  1  0  0  0  0
 17 35  1  0  0  0  0
M  CHG  1   9  -1
M  END
> <s_m_source_file>
AV-unprocessed.smi

> <i_m_source_file_index>
1439

> <i_lp_mmshare_version>
43012

> <i_f3d_flags>
0

> <s_epik_input>
W05IMl1DKD1PKVtDSDJdYzFbY0hdc2MobjEpW05IXUMoPU8pW0NIMl1bQ0gyXVtDQEBIXTJbQ0gyXVtDSDJdW0NIMl1PMg==

> <s_epik_cmdline>
J2VwaWtfcHl0aG9uJywgJy1waCcsICc3LjAnLCAnLXRuJywgJzgnLCAnLW1hJywgJzIwMCcsICctbWV0YWxfYmluZGluZycsICctaW1hZScsICc8aW5maWxlLm1hZT4nLCAnLW9tYWUnLCAnPG91dGZpbGUubWFlPic=

> <r_lp_tautomer_probability>
1

> <r_epik_Ionization_Penalty>
4.85214

> <r_epik_Ionization_Penalty_Charging>
4.5239

> <r_epik_Ionization_Penalty_Neutral>
0.32824

> <r_epik_State_Penalty>
4.52362

> <r_epik_Charging_Adjusted_Penalty>
9.04752

> <i_epik_Tot_Q>
-1

> <i_epik_Tot_abs_Q>
1

> <r_epik_Metal_State_Penalty>
0.831335

> <b_epik_Metal_Only>
1

> <s_lp_Force_Field>
OPLS_2005

> <r_lp_Energy>
14.205

> <b_lp_Chiralities_Consistent>
1

> <s_lp_Variant>
AV-unprocessed.smi:1439-3

> <Gold.Version>
5.8.1

> <Gold.Id.Protein>
6NUR|6NUR_protein|mol2

> <Gold.PLP.Fitness>
43.0300

> <Gold.PLP.PLP>
-38.5018

> <Gold.PLP.part.hbond>
-2.0000

> <Gold.PLP.part.metal>
0.0000

> <Gold.PLP.part.buried>
-1.0420

> <Gold.PLP.part.nonpolar>
-35.3035

> <Gold.PLP.part.repulsive>
0.9774

> <Gold.PLP.ligand.clash>
0.0000

> <Gold.PLP.ligand.torsion>
0.8204

> <Gold.PLP.Chemscore.Hbond>
1.0000

> <Gold.PLP.Chemscore.CHOScore>
1.0000

> <Gold.PLP.Chemscore.Metal>
0.0000

> <Gold.Chemscore.Hbonds>
donor molecule, donor type, donor heavy atom, donor atom, acceptor molecule, acceptor atom, score
      P1  H  7997  8008       L1    11  1.00
      L1  C     6    24       P1  7957  0.90

> <Gold.PLP.Chemscore.Internal.Correction>
0.1689

> <Gold.Rescore>
     Score         DG    S(hbond)    S(metal)    S(lipo)     H(rot)  DE(clash)    DE(int)     intcor
      9.85     -13.06       0.96        0.00      92.22       2.51       0.04       3.17       ----

> <Gold.Chemscore.Fitness>
9.8461

> <Gold.Chemscore.DG>
-13.0565

> <Gold.Chemscore.ZeroCoef>
-5.4800

> <Gold.Chemscore.Hbond>
0.9620

> <Gold.Chemscore.Metal>
0.0000

> <Gold.Chemscore.Lipo>
92.2213

> <Gold.Chemscore.Internal_Hbond>
0.0000

> <Gold.Chemscore.DEClash>
0.0404

> <Gold.Chemscore.DEInternal>
3.1701

> <Gold.Chemscore.Rot>
2.5103

> <Gold.Chemscore.Internal.Correction>
   9.000000E+99

> <Gold.Chemscore.Hbonds>
donor molecule, donor type, donor heavy atom, donor atom, acceptor molecule, acceptor atom, score
      P1  H  7997  8008       L1    11  0.95

> <Gold.Chemscore.Hbond.Weighted>
-3.2131

> <Gold.Chemscore.Metal.Weighted>
-0.0000

> <Gold.Chemscore.Lipo.Weighted>
-10.7899

> <Gold.Chemscore.Internal_Hbond.Weighted>
0.0000

> <Gold.Chemscore.DEClash.Weighted>
0.0404

> <Gold.Chemscore.DEInternal.Weighted>
3.1701

> <Gold.Chemscore.Rot.Weighted>
6.4264

> <Gold.Chemscore.Internal.Correction.Weighted>
   9.000000E+99

> <Gold.Protein.RotatedTorsions>
[ 6907 6896 6895 6894 ] final  171.33 input  -60.11 | X-H torsion
[ 7974 7965 7964 7962 ] final  116.30 input  175.53 | X-H torsion
[ 8008 7997 7996 7995 ] final  -60.81 input   59.86 | X-H torsion
[ 10167 10162 10161 10158 ] final  -46.80 input  -65.29 | X-H torsion
[ 10718 10713 10712 10709 ] final   81.14 input   66.30 | X-H torsion
[ 10763 10752 10751 10750 ] final  -70.41 input  -60.55 | X-H torsion
[ 11005 11000 10999 10996 ] final  137.89 input  -57.11 | X-H torsion

> <Gold.Protein.ActiveResidues>
 VAL166  LYS551  ARG553  GLY616  TRP617  ASP618  TYR619  PRO620  LYS621  CYS622 
 ASP623  PHE694  ASN695  SER759  ASP760  ASP761  ALA762  ILE779  LEU786  VAL792 
 PHE793  MET794  SER795  GLU796  ALA797  LYS798  CYS799  TRP800  GLU811  SER814 

> <Gold.Protein.RotatedAtoms>
  151.8019  133.3371  159.3529 H   0  0  0  0  0  0  0  0  0  0  0  0  # atno 6907 bound_to 6896
  150.7355  134.5745  159.5917 H   0  0  0  0  0  0  0  0  0  0  0  0  # atno 6908 bound_to 6896
  152.3137  134.7467  160.0382 H   0  0  0  0  0  0  0  0  0  0  0  0  # atno 6909 bound_to 6896
  145.1814  139.3048  143.4416 H   0  0  0  0  0  0  0  0  0  0  0  0  # atno 7974 bound_to 7965
  154.4417  140.1031  156.6332 H   0  0  0  0  0  0  0  0  0  0  0  0  # atno 8008 bound_to 7997
  155.5582  140.3487  155.4466 H   0  0  0  0  0  0  0  0  0  0  0  0  # atno 8009 bound_to 7997
  156.0479  140.1297  157.0072 H   0  0  0  0  0  0  0  0  0  0  0  0  # atno 8010 bound_to 7997
  140.6802  143.2814  151.3835 H   0  0  0  0  0  0  0  0  0  0  0  0  # atno 10167 bound_to 10162
  157.6825  130.9991  150.2183 H   0  0  0  0  0  0  0  0  0  0  0  0  # atno 10718 bound_to 10713
  154.4173  135.5995  153.5988 H   0  0  0  0  0  0  0  0  0  0  0  0  # atno 10763 bound_to 10752
  152.9792  135.5943  154.3998 H   0  0  0  0  0  0  0  0  0  0  0  0  # atno 10764 bound_to 10752
  154.3819  135.2841  155.2185 H   0  0  0  0  0  0  0  0  0  0  0  0  # atno 10765 bound_to 10752
  140.0145  134.9424  157.0347 H   0  0  0  0  0  0  0  0  0  0  0  0  # atno 11005 bound_to 11000
  146.3452  140.1995  142.8589 LP  0  0  0  0  0  0  0  0  0  0  0  0  # atno 17320 bound_to 7965
  145.0133  140.8732  143.5211 LP  0  0  0  0  0  0  0  0  0  0  0  0  # atno 17321 bound_to 7965
  139.6120  144.1080  152.2308 LP  0  0  0  0  0  0  0  0  0  0  0  0  # atno 17342 bound_to 10162
  140.0497  144.5942  150.7346 LP  0  0  0  0  0  0  0  0  0  0  0  0  # atno 17343 bound_to 10162
  156.2840  130.3737  149.7907 LP  0  0  0  0  0  0  0  0  0  0  0  0  # atno 17370 bound_to 10713
  156.5587  130.8374  151.3322 LP  0  0  0  0  0  0  0  0  0  0  0  0  # atno 17371 bound_to 10713
  140.4495  134.1597  155.7180 LP  0  0  0  0  0  0  0  0  0  0  0  0  # atno 17394 bound_to 11000
  141.1733  133.8564  157.1500 LP  0  0  0  0  0  0  0  0  0  0  0  0  # atno 17395 bound_to 11000

$$$$
