AV-unprocessed.smi:2845|AV-procd|sdf|10950|dock4
  -GOLD-   2272015403D 1   1.00000     0.00000
 Structure written by MMmdl.
 43 45  0  0  0  0  0  0  0  0  2 V2000
  152.1792  144.1407  161.6316 C   0  0  0  0  0  0  0  0  0  0  0  0
  152.0801  143.2843  160.3806 C   0  0  0  0  0  0  0  0  0  0  0  0
  151.2263  143.7096  159.3380 C   0  0  0  0  0  0  0  0  0  0  0  0
  151.1607  142.9077  158.2047 C   0  0  0  0  0  0  0  0  0  0  0  0
  150.4299  143.0526  157.0235 N   0  3  0  0  0  0  0  0  0  0  0  0
  150.6963  142.0068  156.1931 C   0  0  0  0  0  0  0  0  0  0  0  0
  151.5854  141.1948  156.8269 N   0  0  0  0  0  0  0  0  0  0  0  0
  152.1969  139.9376  156.3721 C   0  0  0  0  0  0  0  0  0  0  0  0
  151.1893  138.9934  155.6876 C   0  0  1  0  0  0  0  0  0  0  0  0
  150.8473  139.4960  154.4097 O   0  0  0  0  0  0  0  0  0  0  0  0
  151.7450  137.5625  155.5537 C   0  0  0  0  0  0  0  0  0  0  0  0
  150.7059  136.5862  155.2797 N   0  0  0  0  0  0  0  0  0  0  0  0
  149.3755  136.7109  155.2893 C   0  0  0  0  0  0  0  0  0  0  0  0
  148.7269  135.5971  154.9753 N   0  0  0  0  0  0  0  0  0  0  0  0
  149.7986  134.7773  154.7728 C   0  0  0  0  0  0  0  0  0  0  0  0
  149.5824  133.0338  154.2966 S   0  0  2  0  0  0  0  0  0  0  0  0
  147.9800  133.2865  153.3974 C   0  0  0  0  0  0  0  0  0  0  0  0
  149.2575  132.2811  155.5887 O   0  0  0  0  0  0  0  0  0  0  0  0
  151.0072  135.3101  154.9420 N   0  0  0  0  0  0  0  0  0  0  0  0
  151.9048  141.7176  158.0861 C   0  0  0  0  0  0  0  0  0  0  0  0
  152.7500  141.2841  159.1049 C   0  0  0  0  0  0  0  0  0  0  0  0
  152.8321  142.0865  160.2652 C   0  0  0  0  0  0  0  0  0  0  0  0
  153.7506  141.6403  161.3901 C   0  0  0  0  0  0  0  0  0  0  0  0
  151.5604  145.0351  161.5533 H   0  0  0  0  0  0  0  0  0  0  0  0
  153.2082  144.4613  161.7964 H   0  0  0  0  0  0  0  0  0  0  0  0
  151.8460  143.5808  162.5057 H   0  0  0  0  0  0  0  0  0  0  0  0
  150.6514  144.6208  159.4179 H   0  0  0  0  0  0  0  0  0  0  0  0
  150.2783  141.8503  155.2091 H   0  0  0  0  0  0  0  0  0  0  0  0
  153.0392  140.1622  155.7174 H   0  0  0  0  0  0  0  0  0  0  0  0
  152.6184  139.4519  157.2532 H   0  0  0  0  0  0  0  0  0  0  0  0
  150.2764  138.9623  156.2839 H   0  0  0  0  0  0  0  0  0  0  0  0
  150.0324  139.1001  154.1388 H   0  0  0  0  0  0  0  0  0  0  0  0
  152.4953  137.5137  154.7627 H   0  0  0  0  0  0  0  0  0  0  0  0
  152.2462  137.2682  156.4765 H   0  0  0  0  0  0  0  0  0  0  0  0
  148.8723  137.6366  155.5275 H   0  0  0  0  0  0  0  0  0  0  0  0
  147.9149  134.2951  152.9887 H   0  0  0  0  0  0  0  0  0  0  0  0
  147.1393  133.1311  154.0737 H   0  0  0  0  0  0  0  0  0  0  0  0
  147.8980  132.5773  152.5740 H   0  0  0  0  0  0  0  0  0  0  0  0
  153.3296  140.3773  159.0150 H   0  0  0  0  0  0  0  0  0  0  0  0
  154.2108  140.6764  161.1706 H   0  0  0  0  0  0  0  0  0  0  0  0
  153.1959  141.5377  162.3230 H   0  0  0  0  0  0  0  0  0  0  0  0
  154.5503  142.3660  161.5395 H   0  0  0  0  0  0  0  0  0  0  0  0
  149.7971  143.8094  156.7975 H   0  0  0  0  0  0  0  0  0  0  0  0
  1  2  1  0  0  0  0
  1 24  1  0  0  0  0
  1 25  1  0  0  0  0
  1 26  1  0  0  0  0
  2 22  1  0  0  0  0
  2  3  2  0  0  0  0
  3  4  1  0  0  0  0
  3 27  1  0  0  0  0
  4 20  2  0  0  0  0
  4  5  1  0  0  0  0
  5  6  2  0  0  0  0
  5 43  1  0  0  0  0
  6  7  1  0  0  0  0
  6 28  1  0  0  0  0
  7  8  1  0  0  0  0
  7 20  1  0  0  0  0
  8  9  1  0  0  0  0
  8 29  1  0  0  0  0
  8 30  1  0  0  0  0
  9 10  1  0  0  0  0
  9 11  1  0  0  0  0
  9 31  1  0  0  0  0
 10 32  1  0  0  0  0
 11 12  1  0  0  0  0
 11 33  1  0  0  0  0
 11 34  1  0  0  0  0
 12 19  1  0  0  0  0
 12 13  1  0  0  0  0
 13 14  2  0  0  0  0
 13 35  1  0  0  0  0
 14 15  1  0  0  0  0
 15 16  1  0  0  0  0
 15 19  2  0  0  0  0
 16 17  1  0  0  0  0
 16 18  2  0  0  0  0
 17 36  1  0  0  0  0
 17 37  1  0  0  0  0
 17 38  1  0  0  0  0
 20 21  1  0  0  0  0
 21 22  2  0  0  0  0
 21 39  1  0  0  0  0
 22 23  1  0  0  0  0
 23 40  1  0  0  0  0
 23 41  1  0  0  0  0
 23 42  1  0  0  0  0
M  CHG  1   5   1
M  END
> <s_m_source_file>
AV-unprocessed.smi

> <i_m_source_file_index>
2845

> <i_lp_mmshare_version>
43012

> <i_f3d_flags>
0

> <s_epik_input>
W0NIM11jKFtjSF0xKWMoW0NIM10pW2NIXWMoYzEyKW4oW2NIXW4yKVtDSDJdW0NASF0oW09IXSlbQ0gyXW4zW2NIXW5jKG4zKVtTQF0oPU8pW0NIM10=

> <s_epik_cmdline>
J2VwaWtfcHl0aG9uJywgJy1waCcsICc3LjAnLCAnLXRuJywgJzgnLCAnLW1hJywgJzIwMCcsICctbWV0YWxfYmluZGluZycsICctaW1hZScsICc8aW5maWxlLm1hZT4nLCAnLW9tYWUnLCAnPG91dGZpbGUubWFlPic=

> <r_lp_tautomer_probability>
1

> <r_epik_Ionization_Penalty>
1.12076

> <r_epik_Ionization_Penalty_Charging>
1.12075

> <r_epik_Ionization_Penalty_Neutral>
1.54566e-06

> <r_epik_State_Penalty>
1.17957

> <r_epik_Charging_Adjusted_Penalty>
2.30033

> <i_epik_Tot_Q>
1

> <i_epik_Tot_abs_Q>
1

> <r_epik_Metal_State_Penalty>
1.26402

> <b_epik_Metal_Only>
0

> <s_lp_Force_Field>
OPLS_2005

> <r_lp_Energy>
14.8832

> <b_lp_Chiralities_Consistent>
1

> <s_lp_Variant>
AV-unprocessed.smi:2845-8

> <Gold.Version>
5.8.1

> <Gold.Id.Protein>
6NUR|6NUR_protein|mol2

> <Gold.PLP.Fitness>
56.6488

> <Gold.PLP.PLP>
-46.6339

> <Gold.PLP.part.hbond>
-3.0000

> <Gold.PLP.part.metal>
0.0000

> <Gold.PLP.part.buried>
-4.5938

> <Gold.PLP.part.nonpolar>
-38.2925

> <Gold.PLP.part.repulsive>
0.2888

> <Gold.PLP.ligand.clash>
0.0000

> <Gold.PLP.ligand.torsion>
1.4285

> <Gold.PLP.Chemscore.Hbond>
3.9424

> <Gold.PLP.Chemscore.CHOScore>
0.0000

> <Gold.PLP.Chemscore.Metal>
0.0000

> <Gold.Chemscore.Hbonds>
donor molecule, donor type, donor heavy atom, donor atom, acceptor molecule, acceptor atom, score
      L1  H     5    43       P1  8028  2.00
      P1  H  7989  7998       L1    10  1.00
      P1  H 10752 10764       L1    19  0.89

> <Gold.PLP.Chemscore.Internal.Correction>
1.0447

> <Gold.Rescore>
     Score         DG    S(hbond)    S(metal)    S(lipo)     H(rot)  DE(clash)    DE(int)     intcor
     16.45     -18.22       2.25        0.00     105.26       2.77       0.38       1.39       ----

> <Gold.Chemscore.Fitness>
16.4515

> <Gold.Chemscore.DG>
-18.2221

> <Gold.Chemscore.ZeroCoef>
-5.4800

> <Gold.Chemscore.Hbond>
2.2493

> <Gold.Chemscore.Metal>
0.0000

> <Gold.Chemscore.Lipo>
105.2624

> <Gold.Chemscore.Internal_Hbond>
0.0000

> <Gold.Chemscore.DEClash>
0.3826

> <Gold.Chemscore.DEInternal>
1.3879

> <Gold.Chemscore.Rot>
2.7681

> <Gold.Chemscore.Internal.Correction>
   9.000000E+99

> <Gold.Chemscore.Hbonds>
donor molecule, donor type, donor heavy atom, donor atom, acceptor molecule, acceptor atom, score
      L1  H     5    43       P1  8028  0.95
      P1  H  7989  7998       L1    10  0.99
      P1  H 10752 10764       L1    19  0.17

> <Gold.Chemscore.Hbond.Weighted>
-7.5126

> <Gold.Chemscore.Metal.Weighted>
-0.0000

> <Gold.Chemscore.Lipo.Weighted>
-12.3157

> <Gold.Chemscore.Internal_Hbond.Weighted>
0.0000

> <Gold.Chemscore.DEClash.Weighted>
0.3826

> <Gold.Chemscore.DEInternal.Weighted>
1.3879

> <Gold.Chemscore.Rot.Weighted>
7.0863

> <Gold.Chemscore.Internal.Correction.Weighted>
   9.000000E+99

> <Gold.Protein.RotatedTorsions>
[ 6907 6896 6895 6894 ] final -130.28 input  -60.11 | X-H torsion
[ 7974 7965 7964 7962 ] final  -46.41 input  175.53 | X-H torsion
[ 8008 7997 7996 7995 ] final -166.87 input   59.86 | X-H torsion
[ 10167 10162 10161 10158 ] final  131.16 input  -65.29 | X-H torsion
[ 10718 10713 10712 10709 ] final -167.54 input   66.30 | X-H torsion
[ 10763 10752 10751 10750 ] final  -55.48 input  -60.55 | X-H torsion
[ 11005 11000 10999 10996 ] final   42.84 input  -57.11 | X-H torsion

> <Gold.Protein.ActiveResidues>
 VAL166  LYS551  ARG553  GLY616  TRP617  ASP618  TYR619  PRO620  LYS621  CYS622 
 ASP623  PHE694  ASN695  SER759  ASP760  ASP761  ALA762  ILE779  LEU786  VAL792 
 PHE793  MET794  SER795  GLU796  ALA797  LYS798  CYS799  TRP800  GLU811  SER814 

> <Gold.Protein.RotatedAtoms>
  150.9380  133.6690  159.2796 H   0  0  0  0  0  0  0  0  0  0  0  0  # atno 6907 bound_to 6896
  151.4089  135.0981  159.9588 H   0  0  0  0  0  0  0  0  0  0  0  0  # atno 6908 bound_to 6896
  152.5056  133.8857  159.7423 H   0  0  0  0  0  0  0  0  0  0  0  0  # atno 6909 bound_to 6896
  145.9722  140.7371  142.9405 H   0  0  0  0  0  0  0  0  0  0  0  0  # atno 7974 bound_to 7965
  155.8699  140.0991  157.1557 H   0  0  0  0  0  0  0  0  0  0  0  0  # atno 8008 bound_to 7997
  154.3996  140.1349  156.4128 H   0  0  0  0  0  0  0  0  0  0  0  0  # atno 8009 bound_to 7997
  155.7762  140.3459  155.5275 H   0  0  0  0  0  0  0  0  0  0  0  0  # atno 8010 bound_to 7997
  139.5397  144.6718  151.4667 H   0  0  0  0  0  0  0  0  0  0  0  0  # atno 10167 bound_to 10162
  156.6839  130.9132  151.3060 H   0  0  0  0  0  0  0  0  0  0  0  0  # atno 10718 bound_to 10713
  154.1914  135.6426  153.5061 H   0  0  0  0  0  0  0  0  0  0  0  0  # atno 10763 bound_to 10752
  153.0034  135.5429  154.6411 H   0  0  0  0  0  0  0  0  0  0  0  0  # atno 10764 bound_to 10752
  154.5801  135.2924  155.0714 H   0  0  0  0  0  0  0  0  0  0  0  0  # atno 10765 bound_to 10752
  140.1701  134.4233  155.8263 H   0  0  0  0  0  0  0  0  0  0  0  0  # atno 11005 bound_to 11000
  144.6840  140.2768  143.7298 LP  0  0  0  0  0  0  0  0  0  0  0  0  # atno 17320 bound_to 7965
  145.7890  139.1919  143.2114 LP  0  0  0  0  0  0  0  0  0  0  0  0  # atno 17321 bound_to 7965
  140.6621  143.8477  150.6899 LP  0  0  0  0  0  0  0  0  0  0  0  0  # atno 17342 bound_to 10162
  140.1875  143.4064  152.1888 LP  0  0  0  0  0  0  0  0  0  0  0  0  # atno 17343 bound_to 10162
  157.7034  130.9357  150.0854 LP  0  0  0  0  0  0  0  0  0  0  0  0  # atno 17370 bound_to 10713
  156.1847  130.3651  149.8988 LP  0  0  0  0  0  0  0  0  0  0  0  0  # atno 17371 bound_to 10713
  141.2216  133.6952  156.7747 LP  0  0  0  0  0  0  0  0  0  0  0  0  # atno 17394 bound_to 11000
  140.2388  134.8629  157.3552 LP  0  0  0  0  0  0  0  0  0  0  0  0  # atno 17395 bound_to 11000

$$$$
