AV-unprocessed.smi:339|AV-procd|sdf|2378|dock10
  -GOLD-   2262022303D 1   1.00000     0.00000
 Structure written by MMmdl.
 45 46  0  0  0  0  0  0  0  0  1 V2000
  144.9761  135.6931  151.6635 C   0  0  0  0  0  0  0  0  0  0  0  0
  145.0879  134.2098  151.3623 C   0  0  0  0  0  0  0  0  0  0  0  0
  144.6243  133.7170  150.1252 C   0  0  0  0  0  0  0  0  0  0  0  0
  144.7067  132.3430  149.8334 C   0  0  0  0  0  0  0  0  0  0  0  0
  145.2494  131.4543  150.7796 C   0  0  0  0  0  0  0  0  0  0  0  0
  145.7171  131.9355  152.0198 C   0  0  0  0  0  0  0  0  0  0  0  0
  146.2909  130.9618  153.0322 C   0  0  0  0  0  0  0  0  0  0  0  0
  145.6492  133.3190  152.3084 C   0  0  0  0  0  0  0  0  0  0  0  0
  146.0993  133.7896  153.5149 O   0  0  0  0  0  0  0  0  0  0  0  0
  147.5002  133.6456  153.6981 C   0  0  0  0  0  0  0  0  0  0  0  0
  147.9893  134.7386  154.6622 C   0  0  2  0  0  0  0  0  0  0  0  0
  147.7060  135.9862  154.0586 O   0  0  0  0  0  0  0  0  0  0  0  0
  149.5145  134.6597  154.8972 C   0  0  0  0  0  0  0  0  0  0  0  0
  149.9702  135.6363  155.8945 N   0  0  0  0  0  0  0  0  0  0  0  0
  149.3477  135.5161  157.1211 N   0  0  0  0  0  0  0  0  0  0  0  0
  149.6538  136.2897  158.1102 C   0  0  0  0  0  0  0  0  0  0  0  0
  148.9106  136.0652  159.3996 C   0  0  0  0  0  0  0  0  0  0  0  0
  150.6772  137.3156  157.9359 C   0  0  0  0  0  0  0  0  0  0  0  0
  150.9991  138.1957  159.1361 C   0  0  0  0  0  0  0  0  0  0  0  0
  151.2735  137.4308  156.7230 C   0  0  0  0  0  0  0  0  0  0  0  0
  152.2792  138.4082  156.4569 C   0  0  0  0  0  0  0  0  0  0  0  0
  153.0816  139.2113  156.2299 N   0  0  0  0  0  0  0  0  0  0  0  0
  150.9304  136.5581  155.5978 C   0  0  0  0  0  0  0  0  0  0  0  0
  151.4544  136.6345  154.4854 O   0  0  0  0  0  0  0  0  0  0  0  0
  144.1974  136.1574  151.0577 H   0  0  0  0  0  0  0  0  0  0  0  0
  145.9197  136.1944  151.4486 H   0  0  0  0  0  0  0  0  0  0  0  0
  144.7269  135.8618  152.7115 H   0  0  0  0  0  0  0  0  0  0  0  0
  144.1999  134.3916  149.3959 H   0  0  0  0  0  0  0  0  0  0  0  0
  144.3485  131.9699  148.8852 H   0  0  0  0  0  0  0  0  0  0  0  0
  145.3035  130.4001  150.5499 H   0  0  0  0  0  0  0  0  0  0  0  0
  145.9585  131.2087  154.0407 H   0  0  0  0  0  0  0  0  0  0  0  0
  147.3800  130.9933  153.0105 H   0  0  0  0  0  0  0  0  0  0  0  0
  145.9757  129.9404  152.8185 H   0  0  0  0  0  0  0  0  0  0  0  0
  147.6783  132.6612  154.1328 H   0  0  0  0  0  0  0  0  0  0  0  0
  148.0465  133.6774  152.7536 H   0  0  0  0  0  0  0  0  0  0  0  0
  147.4517  134.6525  155.6073 H   0  0  0  0  0  0  0  0  0  0  0  0
  148.2884  136.1039  153.3241 H   0  0  0  0  0  0  0  0  0  0  0  0
  149.7861  133.6614  155.2446 H   0  0  0  0  0  0  0  0  0  0  0  0
  150.0535  134.7816  153.9553 H   0  0  0  0  0  0  0  0  0  0  0  0
  148.4358  136.9858  159.7394 H   0  0  0  0  0  0  0  0  0  0  0  0
  149.5896  135.7251  160.1819 H   0  0  0  0  0  0  0  0  0  0  0  0
  148.1277  135.3128  159.2922 H   0  0  0  0  0  0  0  0  0  0  0  0
  151.8473  138.8536  158.9491 H   0  0  0  0  0  0  0  0  0  0  0  0
  151.2475  137.5876  160.0065 H   0  0  0  0  0  0  0  0  0  0  0  0
  150.1432  138.8226  159.3874 H   0  0  0  0  0  0  0  0  0  0  0  0
  1  2  1  0  0  0  0
  1 25  1  0  0  0  0
  1 26  1  0  0  0  0
  1 27  1  0  0  0  0
  2  8  1  0  0  0  0
  2  3  2  0  0  0  0
  3  4  1  0  0  0  0
  3 28  1  0  0  0  0
  4  5  2  0  0  0  0
  4 29  1  0  0  0  0
  5  6  1  0  0  0  0
  5 30  1  0  0  0  0
  6  7  1  0  0  0  0
  6  8  2  0  0  0  0
  7 31  1  0  0  0  0
  7 32  1  0  0  0  0
  7 33  1  0  0  0  0
  8  9  1  0  0  0  0
  9 10  1  0  0  0  0
 10 11  1  0  0  0  0
 10 34  1  0  0  0  0
 10 35  1  0  0  0  0
 11 12  1  0  0  0  0
 11 13  1  0  0  0  0
 11 36  1  0  0  0  0
 12 37  1  0  0  0  0
 13 14  1  0  0  0  0
 13 38  1  0  0  0  0
 13 39  1  0  0  0  0
 14 23  1  0  0  0  0
 14 15  1  0  0  0  0
 15 16  2  0  0  0  0
 16 17  1  0  0  0  0
 16 18  1  0  0  0  0
 17 40  1  0  0  0  0
 17 41  1  0  0  0  0
 17 42  1  0  0  0  0
 18 19  1  0  0  0  0
 18 20  2  0  0  0  0
 19 43  1  0  0  0  0
 19 44  1  0  0  0  0
 19 45  1  0  0  0  0
 20 21  1  0  0  0  0
 20 23  1  0  0  0  0
 21 22  3  0  0  0  0
 23 24  2  0  0  0  0
M  END
> <s_m_source_file>
AV-unprocessed.smi

> <i_m_source_file_index>
339

> <i_lp_mmshare_version>
43012

> <i_f3d_flags>
0

> <s_epik_input>
W0NIM11jMVtjSF1bY0hdW2NIXWMoW0NIM10pYzFPW0NIMl1bQ0BIXShbT0hdKVtDSDJdbjJuYyhbQ0gzXSljKFtDSDNdKWMoQyNOKWMyPU8=

> <s_epik_cmdline>
J2VwaWtfcHl0aG9uJywgJy1waCcsICc3LjAnLCAnLXRuJywgJzgnLCAnLW1hJywgJzIwMCcsICctbWV0YWxfYmluZGluZycsICctaW1hZScsICc8aW5maWxlLm1hZT4nLCAnLW9tYWUnLCAnPG91dGZpbGUubWFlPic=

> <r_lp_tautomer_probability>
1

> <r_epik_Ionization_Penalty>
1.17331e-07

> <r_epik_Ionization_Penalty_Charging>
1.57223e-10

> <r_epik_Ionization_Penalty_Neutral>
1.17174e-07

> <r_epik_State_Penalty>
-0

> <r_epik_Charging_Adjusted_Penalty>
1.57223e-10

> <i_epik_Tot_Q>
0

> <i_epik_Tot_abs_Q>
0

> <r_epik_Metal_State_Penalty>
-0

> <b_epik_Metal_Only>
0

> <s_lp_Force_Field>
OPLS_2005

> <r_lp_Energy>
35.9352

> <b_lp_Chiralities_Consistent>
1

> <s_lp_Variant>
AV-unprocessed.smi:339-1

> <Gold.Version>
5.8.1

> <Gold.Id.Protein>
6NUR|6NUR_protein|mol2

> <Gold.PLP.Fitness>
43.1315

> <Gold.PLP.PLP>
-34.4852

> <Gold.PLP.part.hbond>
-2.7839

> <Gold.PLP.part.metal>
0.0000

> <Gold.PLP.part.buried>
-7.3499

> <Gold.PLP.part.nonpolar>
-26.0904

> <Gold.PLP.part.repulsive>
1.4709

> <Gold.PLP.ligand.clash>
0.0000

> <Gold.PLP.ligand.torsion>
0.2142

> <Gold.PLP.Chemscore.Hbond>
3.0000

> <Gold.PLP.Chemscore.CHOScore>
0.0000

> <Gold.PLP.Chemscore.Metal>
0.0000

> <Gold.Chemscore.Hbonds>
donor molecule, donor type, donor heavy atom, donor atom, acceptor molecule, acceptor atom, score
      L1  H    12    37       P1  7948  1.00
      P1  H  7997  8009       L1    22  1.00
      P1  H 10752 10763       L1    24  1.00

> <Gold.PLP.Chemscore.Internal.Correction>
0.0747

> <Gold.Rescore>
     Score         DG    S(hbond)    S(metal)    S(lipo)     H(rot)  DE(clash)    DE(int)     intcor
     19.31     -19.80       2.97        0.00      87.69       2.29       0.08       0.41       ----

> <Gold.Chemscore.Fitness>
19.3068

> <Gold.Chemscore.DG>
-19.7972

> <Gold.Chemscore.ZeroCoef>
-5.4800

> <Gold.Chemscore.Hbond>
2.9705

> <Gold.Chemscore.Metal>
0.0000

> <Gold.Chemscore.Lipo>
87.6858

> <Gold.Chemscore.Internal_Hbond>
0.0000

> <Gold.Chemscore.DEClash>
0.0794

> <Gold.Chemscore.DEInternal>
0.4110

> <Gold.Chemscore.Rot>
2.2905

> <Gold.Chemscore.Internal.Correction>
   9.000000E+99

> <Gold.Chemscore.Hbonds>
donor molecule, donor type, donor heavy atom, donor atom, acceptor molecule, acceptor atom, score
      L1  H    12    37       P1  7948  0.99
      P1  H  7997  8009       L1    22  0.96
      P1  H 10752 10763       L1    24  0.82

> <Gold.Chemscore.Hbond.Weighted>
-9.9215

> <Gold.Chemscore.Metal.Weighted>
-0.0000

> <Gold.Chemscore.Lipo.Weighted>
-10.2592

> <Gold.Chemscore.Internal_Hbond.Weighted>
0.0000

> <Gold.Chemscore.DEClash.Weighted>
0.0794

> <Gold.Chemscore.DEInternal.Weighted>
0.4110

> <Gold.Chemscore.Rot.Weighted>
5.8636

> <Gold.Chemscore.Internal.Correction.Weighted>
   9.000000E+99

> <Gold.Protein.RotatedTorsions>
[ 6907 6896 6895 6894 ] final  -32.17 input  -60.11 | X-H torsion
[ 7974 7965 7964 7962 ] final  142.99 input  175.53 | X-H torsion
[ 8008 7997 7996 7995 ] final -156.52 input   59.86 | X-H torsion
[ 10167 10162 10161 10158 ] final -128.93 input  -65.29 | X-H torsion
[ 10718 10713 10712 10709 ] final -113.65 input   66.30 | X-H torsion
[ 10763 10752 10751 10750 ] final   46.12 input  -60.55 | X-H torsion
[ 11005 11000 10999 10996 ] final  -96.74 input  -57.11 | X-H torsion

> <Gold.Protein.ActiveResidues>
 VAL166  LYS551  ARG553  GLY616  TRP617  ASP618  TYR619  PRO620  LYS621  CYS622 
 ASP623  PHE694  ASN695  SER759  ASP760  ASP761  ALA762  ILE779  LEU786  VAL792 
 PHE793  MET794  SER795  GLU796  ALA797  LYS798  CYS799  TRP800  GLU811  SER814 

> <Gold.Protein.RotatedAtoms>
  151.0823  134.9865  159.8361 H   0  0  0  0  0  0  0  0  0  0  0  0  # atno 6907 bound_to 6896
  152.5421  134.2167  159.8781 H   0  0  0  0  0  0  0  0  0  0  0  0  # atno 6908 bound_to 6896
  151.2198  133.4465  159.2634 H   0  0  0  0  0  0  0  0  0  0  0  0  # atno 6909 bound_to 6896
  144.8959  139.5491  143.5776 H   0  0  0  0  0  0  0  0  0  0  0  0  # atno 7974 bound_to 7965
  155.7184  140.0787  157.2341 H   0  0  0  0  0  0  0  0  0  0  0  0  # atno 8008 bound_to 7997
  154.4048  140.1617  156.2428 H   0  0  0  0  0  0  0  0  0  0  0  0  # atno 8009 bound_to 7997
  155.9219  140.3397  155.6182 H   0  0  0  0  0  0  0  0  0  0  0  0  # atno 8010 bound_to 7997
  139.9451  143.6119  152.2492 H   0  0  0  0  0  0  0  0  0  0  0  0  # atno 10167 bound_to 10162
  156.0780  130.5985  150.8671 H   0  0  0  0  0  0  0  0  0  0  0  0  # atno 10718 bound_to 10713
  152.9815  135.6018  154.3548 H   0  0  0  0  0  0  0  0  0  0  0  0  # atno 10763 bound_to 10752
  154.3234  135.2769  155.2510 H   0  0  0  0  0  0  0  0  0  0  0  0  # atno 10764 bound_to 10752
  154.4666  135.5952  153.6348 H   0  0  0  0  0  0  0  0  0  0  0  0  # atno 10765 bound_to 10752
  141.1401  133.8120  157.0612 H   0  0  0  0  0  0  0  0  0  0  0  0  # atno 11005 bound_to 11000
  146.3081  139.7650  142.9041 LP  0  0  0  0  0  0  0  0  0  0  0  0  # atno 17320 bound_to 7965
  145.3701  141.0341  143.3236 LP  0  0  0  0  0  0  0  0  0  0  0  0  # atno 17321 bound_to 7965
  139.6673  144.7662  151.1848 LP  0  0  0  0  0  0  0  0  0  0  0  0  # atno 17342 bound_to 10162
  140.7599  143.5918  150.8789 LP  0  0  0  0  0  0  0  0  0  0  0  0  # atno 17343 bound_to 10162
  157.5884  131.0945  150.9158 LP  0  0  0  0  0  0  0  0  0  0  0  0  # atno 17370 bound_to 10713
  156.9339  130.5360  149.5279 LP  0  0  0  0  0  0  0  0  0  0  0  0  # atno 17371 bound_to 10713
  140.0570  134.9775  157.1237 LP  0  0  0  0  0  0  0  0  0  0  0  0  # atno 17394 bound_to 11000
  140.3905  134.2190  155.7166 LP  0  0  0  0  0  0  0  0  0  0  0  0  # atno 17395 bound_to 11000

$$$$
