AV-unprocessed.smi:148|AV-procd|sdf|1221|dock5
  -GOLD-   2262018413D 1   1.00000     0.00000
 Structure written by MMmdl.
 63 67  0  0  0  0  0  0  0  0  1 V2000
  149.7395  142.1567  155.4880 O   0  0  0  0  0  0  0  0  0  0  0  0
  150.9954  141.7058  155.9508 C   0  0  0  0  0  0  0  0  0  0  0  0
  150.8653  140.9685  157.3069 C   0  0  1  0  0  0  0  0  0  0  0  0
  151.7335  139.6833  157.3647 C   0  0  0  0  0  0  0  0  0  0  0  0
  151.1807  138.6590  158.2330 N   0  0  0  0  0  0  0  0  0  0  0  0
  151.7725  138.1241  159.3542 C   0  0  0  0  0  0  0  0  0  0  0  0
  151.0682  137.2168  159.9740 N   0  0  0  0  0  0  0  0  0  0  0  0
  149.9016  137.1204  159.2240 C   0  0  0  0  0  0  0  0  0  0  0  0
  148.7075  136.3505  159.3283 C   0  0  0  0  0  0  0  0  0  0  0  0
  148.4431  135.4492  160.3026 N   0  0  0  0  0  0  0  0  0  0  0  0
  148.1959  136.1569  161.5603 C   0  0  0  0  0  0  0  0  0  0  0  0
  148.1327  135.1920  162.7514 C   0  0  0  0  0  0  0  0  0  0  0  0
  147.0950  134.0948  162.4945 C   0  0  0  0  0  0  0  0  0  0  0  0
  147.4249  133.3728  161.1825 C   0  0  0  0  0  0  0  0  0  0  0  0
  147.4948  134.3629  159.9898 C   0  0  2  0  0  0  0  0  0  0  0  0
  147.7694  133.6553  158.6225 C   0  0  2  0  0  0  0  0  0  0  0  0
  146.6687  132.6600  158.1947 C   0  0  0  0  0  0  0  0  0  0  0  0
  147.3833  131.4293  157.6196 C   0  0  0  0  0  0  0  0  0  0  0  0
  148.8211  131.8753  157.3643 C   0  0  0  0  0  0  0  0  0  0  0  0
  149.0926  132.8731  158.4884 C   0  0  1  0  0  0  0  0  0  0  0  0
  150.1877  133.7037  158.1649 O   0  0  0  0  0  0  0  0  0  0  0  0
  147.7643  136.5083  158.3668 N   0  0  0  0  0  0  0  0  0  0  0  0
  147.9563  137.3870  157.3785 C   0  0  0  0  0  0  0  0  0  0  0  0
  149.0036  138.1857  157.1635 N   0  0  0  0  0  0  0  0  0  0  0  0
  149.9629  138.0130  158.1175 C   0  0  0  0  0  0  0  0  0  0  0  0
  151.1029  141.9326  158.5040 C   0  0  1  0  0  0  0  0  0  0  0  0
  152.5133  142.4645  158.6860 C   0  0  0  0  0  0  0  0  0  0  0  0
  152.2779  143.5916  159.6853 C   0  0  0  0  0  0  0  0  0  0  0  0
  151.0129  144.1445  159.3354 O   0  0  0  0  0  0  0  0  0  0  0  0
  150.2807  143.2266  158.5255 C   0  0  0  0  0  0  0  0  0  0  0  0
  149.5157  142.9499  155.9508 H   0  0  0  0  0  0  0  0  0  0  0  0
  151.3944  141.0500  155.1775 H   0  0  0  0  0  0  0  0  0  0  0  0
  151.6778  142.5522  156.0310 H   0  0  0  0  0  0  0  0  0  0  0  0
  149.8284  140.6357  157.3798 H   0  0  0  0  0  0  0  0  0  0  0  0
  151.8589  139.2520  156.3725 H   0  0  0  0  0  0  0  0  0  0  0  0
  152.7338  139.9072  157.7330 H   0  0  0  0  0  0  0  0  0  0  0  0
  152.7474  138.4342  159.7019 H   0  0  0  0  0  0  0  0  0  0  0  0
  148.9800  136.8952  161.7373 H   0  0  0  0  0  0  0  0  0  0  0  0
  147.2563  136.7065  161.4830 H   0  0  0  0  0  0  0  0  0  0  0  0
  149.1137  134.7431  162.9126 H   0  0  0  0  0  0  0  0  0  0  0  0
  147.8857  135.7381  163.6620 H   0  0  0  0  0  0  0  0  0  0  0  0
  147.0842  133.3859  163.3228 H   0  0  0  0  0  0  0  0  0  0  0  0
  146.0965  134.5302  162.4389 H   0  0  0  0  0  0  0  0  0  0  0  0
  148.3777  132.8612  161.3130 H   0  0  0  0  0  0  0  0  0  0  0  0
  146.6809  132.5969  161.0089 H   0  0  0  0  0  0  0  0  0  0  0  0
  146.5097  134.8234  159.9148 H   0  0  0  0  0  0  0  0  0  0  0  0
  147.7683  134.4033  157.8294 H   0  0  0  0  0  0  0  0  0  0  0  0
  146.0095  132.3689  159.0110 H   0  0  0  0  0  0  0  0  0  0  0  0
  146.0331  133.1193  157.4364 H   0  0  0  0  0  0  0  0  0  0  0  0
  147.3794  130.6286  158.3606 H   0  0  0  0  0  0  0  0  0  0  0  0
  146.9003  131.0472  156.7199 H   0  0  0  0  0  0  0  0  0  0  0  0
  149.5256  131.0429  157.3596 H   0  0  0  0  0  0  0  0  0  0  0  0
  148.8816  132.3708  156.3938 H   0  0  0  0  0  0  0  0  0  0  0  0
  149.3245  132.3148  159.3932 H   0  0  0  0  0  0  0  0  0  0  0  0
  149.8602  134.4775  157.7313 H   0  0  0  0  0  0  0  0  0  0  0  0
  147.1552  137.4627  156.6582 H   0  0  0  0  0  0  0  0  0  0  0  0
  150.8673  141.3900  159.4212 H   0  0  0  0  0  0  0  0  0  0  0  0
  153.2131  141.7126  159.0515 H   0  0  0  0  0  0  0  0  0  0  0  0
  152.9107  142.8863  157.7639 H   0  0  0  0  0  0  0  0  0  0  0  0
  152.2184  143.1952  160.6998 H   0  0  0  0  0  0  0  0  0  0  0  0
  153.0649  144.3456  159.6612 H   0  0  0  0  0  0  0  0  0  0  0  0
  150.1792  143.6641  157.5334 H   0  0  0  0  0  0  0  0  0  0  0  0
  149.2782  143.0687  158.9241 H   0  0  0  0  0  0  0  0  0  0  0  0
  1  2  1  0  0  0  0
  1 31  1  0  0  0  0
  2  3  1  0  0  0  0
  2 32  1  0  0  0  0
  2 33  1  0  0  0  0
  3  4  1  0  0  0  0
  3 26  1  0  0  0  0
  3 34  1  0  0  0  0
  4  5  1  0  0  0  0
  4 35  1  0  0  0  0
  4 36  1  0  0  0  0
  5 25  1  0  0  0  0
  5  6  1  0  0  0  0
  6  7  2  0  0  0  0
  6 37  1  0  0  0  0
  7  8  1  0  0  0  0
  8 25  2  0  0  0  0
  8  9  1  0  0  0  0
  9 10  1  0  0  0  0
  9 22  2  0  0  0  0
 10 15  1  0  0  0  0
 10 11  1  0  0  0  0
 11 12  1  0  0  0  0
 11 38  1  0  0  0  0
 11 39  1  0  0  0  0
 12 13  1  0  0  0  0
 12 40  1  0  0  0  0
 12 41  1  0  0  0  0
 13 14  1  0  0  0  0
 13 42  1  0  0  0  0
 13 43  1  0  0  0  0
 14 15  1  0  0  0  0
 14 44  1  0  0  0  0
 14 45  1  0  0  0  0
 15 16  1  0  0  0  0
 15 46  1  0  0  0  0
 16 20  1  0  0  0  0
 16 17  1  0  0  0  0
 16 47  1  0  0  0  0
 17 18  1  0  0  0  0
 17 48  1  0  0  0  0
 17 49  1  0  0  0  0
 18 19  1  0  0  0  0
 18 50  1  0  0  0  0
 18 51  1  0  0  0  0
 19 20  1  0  0  0  0
 19 52  1  0  0  0  0
 19 53  1  0  0  0  0
 20 21  1  0  0  0  0
 20 54  1  0  0  0  0
 21 55  1  0  0  0  0
 22 23  1  0  0  0  0
 23 24  2  0  0  0  0
 23 56  1  0  0  0  0
 24 25  1  0  0  0  0
 26 30  1  0  0  0  0
 26 27  1  0  0  0  0
 26 57  1  0  0  0  0
 27 28  1  0  0  0  0
 27 58  1  0  0  0  0
 27 59  1  0  0  0  0
 28 29  1  0  0  0  0
 28 60  1  0  0  0  0
 28 61  1  0  0  0  0
 29 30  1  0  0  0  0
 30 62  1  0  0  0  0
 30 63  1  0  0  0  0
M  END
> <s_m_source_file>
AV-unprocessed.smi

> <i_m_source_file_index>
148

> <i_lp_mmshare_version>
43012

> <i_f3d_flags>
0

> <s_epik_input>
W0NIMl0xT1tDSDJdW0NIMl1bQ0BIXTFbQ0BIXShbQ0gyXVtPSF0pW0NIMl1uKFtjSF1uMiljKGMyMyluW2NIXW5jM040W0NIMl1bQ0gyXVtDSDJdW0NIMl1bQ0BIXTRbQ0BASF01W0NIMl1bQ0gyXVtDSDJdW0NASF01W09IXQ==

> <s_epik_cmdline>
J2VwaWtfcHl0aG9uJywgJy1waCcsICc3LjAnLCAnLXRuJywgJzgnLCAnLW1hJywgJzIwMCcsICctbWV0YWxfYmluZGluZycsICctaW1hZScsICc8aW5maWxlLm1hZT4nLCAnLW9tYWUnLCAnPG91dGZpbGUubWFlPic=

> <r_lp_tautomer_probability>
1

> <r_epik_Ionization_Penalty>
0.00556303

> <r_epik_Ionization_Penalty_Charging>
0

> <r_epik_Ionization_Penalty_Neutral>
0.00556303

> <r_epik_State_Penalty>
0.00401767

> <r_epik_Charging_Adjusted_Penalty>
0.00401767

> <i_epik_Tot_Q>
0

> <i_epik_Tot_abs_Q>
0

> <r_epik_Metal_State_Penalty>
-0

> <b_epik_Metal_Only>
0

> <s_lp_Force_Field>
OPLS_2005

> <r_lp_Energy>
68.4806

> <b_lp_Chiralities_Consistent>
1

> <s_lp_Variant>
AV-unprocessed.smi:148-20

> <Gold.Version>
5.8.1

> <Gold.Id.Protein>
6NUR|6NUR_protein|mol2

> <Gold.PLP.Fitness>
48.7136

> <Gold.PLP.PLP>
-42.3734

> <Gold.PLP.part.hbond>
-3.5313

> <Gold.PLP.part.metal>
0.0000

> <Gold.PLP.part.buried>
-7.2154

> <Gold.PLP.part.nonpolar>
-31.7243

> <Gold.PLP.part.repulsive>
0.0826

> <Gold.PLP.ligand.clash>
0.0000

> <Gold.PLP.ligand.torsion>
1.3288

> <Gold.PLP.Chemscore.Hbond>
2.8640

> <Gold.PLP.Chemscore.CHOScore>
0.0000

> <Gold.PLP.Chemscore.Metal>
0.0000

> <Gold.Chemscore.Hbonds>
donor molecule, donor type, donor heavy atom, donor atom, acceptor molecule, acceptor atom, score
      L1  H     1    31       P1  8028  0.83
      P1  H  6896  6908       L1    21  0.39
      P1  H  6896  6909       L1     7  0.53

> <Gold.PLP.Chemscore.Internal.Correction>
0.4057

> <Gold.Rescore>
     Score         DG    S(hbond)    S(metal)    S(lipo)     H(rot)  DE(clash)    DE(int)     intcor
     13.90     -16.46       2.36        0.00      99.01       3.32       0.03       2.54       ----

> <Gold.Chemscore.Fitness>
13.8988

> <Gold.Chemscore.DG>
-16.4632

> <Gold.Chemscore.ZeroCoef>
-5.4800

> <Gold.Chemscore.Hbond>
2.3649

> <Gold.Chemscore.Metal>
0.0000

> <Gold.Chemscore.Lipo>
99.0125

> <Gold.Chemscore.Internal_Hbond>
0.0000

> <Gold.Chemscore.DEClash>
0.0270

> <Gold.Chemscore.DEInternal>
2.5374

> <Gold.Chemscore.Rot>
3.3203

> <Gold.Chemscore.Internal.Correction>
   9.000000E+99

> <Gold.Chemscore.Hbonds>
donor molecule, donor type, donor heavy atom, donor atom, acceptor molecule, acceptor atom, score
      L1  H     1    31       P1  8028  0.83
      P1  H  6896  6908       L1    21  0.15
      P1  H  6896  6909       L1     7  0.04

> <Gold.Chemscore.Hbond.Weighted>
-7.8987

> <Gold.Chemscore.Metal.Weighted>
-0.0000

> <Gold.Chemscore.Lipo.Weighted>
-11.5845

> <Gold.Chemscore.Internal_Hbond.Weighted>
0.0000

> <Gold.Chemscore.DEClash.Weighted>
0.0270

> <Gold.Chemscore.DEInternal.Weighted>
2.5374

> <Gold.Chemscore.Rot.Weighted>
8.5000

> <Gold.Chemscore.Internal.Correction.Weighted>
   9.000000E+99

> <Gold.Protein.RotatedTorsions>
[ 6907 6896 6895 6894 ] final  106.69 input  -60.11 | X-H torsion
[ 7974 7965 7964 7962 ] final  -53.41 input  175.53 | X-H torsion
[ 8008 7997 7996 7995 ] final  -63.45 input   59.86 | X-H torsion
[ 10167 10162 10161 10158 ] final -150.99 input  -65.29 | X-H torsion
[ 10718 10713 10712 10709 ] final   22.57 input   66.30 | X-H torsion
[ 10763 10752 10751 10750 ] final  -36.71 input  -60.55 | X-H torsion
[ 11005 11000 10999 10996 ] final  153.58 input  -57.11 | X-H torsion

> <Gold.Protein.ActiveResidues>
 VAL166  LYS551  ARG553  GLY616  TRP617  ASP618  TYR619  PRO620  LYS621  CYS622 
 ASP623  PHE694  ASN695  SER759  ASP760  ASP761  ALA762  ILE779  LEU786  VAL792 
 PHE793  MET794  SER795  GLU796  ALA797  LYS798  CYS799  TRP800  GLU811  SER814 

> <Gold.Protein.RotatedAtoms>
  152.5184  133.9344  159.7595 H   0  0  0  0  0  0  0  0  0  0  0  0  # atno 6907 bound_to 6896
  150.9688  133.6358  159.2748 H   0  0  0  0  0  0  0  0  0  0  0  0  # atno 6908 bound_to 6896
  151.3577  135.0903  159.9477 H   0  0  0  0  0  0  0  0  0  0  0  0  # atno 6909 bound_to 6896
  145.8971  140.8024  142.9762 H   0  0  0  0  0  0  0  0  0  0  0  0  # atno 7974 bound_to 7965
  154.4555  140.0974  156.6744 H   0  0  0  0  0  0  0  0  0  0  0  0  # atno 8008 bound_to 7997
  155.5152  140.3477  155.4377 H   0  0  0  0  0  0  0  0  0  0  0  0  # atno 8009 bound_to 7997
  156.0768  140.1363  156.9750 H   0  0  0  0  0  0  0  0  0  0  0  0  # atno 8010 bound_to 7997
  139.7306  143.8814  152.2533 H   0  0  0  0  0  0  0  0  0  0  0  0  # atno 10167 bound_to 10162
  157.1542  130.6688  149.6022 H   0  0  0  0  0  0  0  0  0  0  0  0  # atno 10718 bound_to 10713
  153.8842  135.6818  153.4765 H   0  0  0  0  0  0  0  0  0  0  0  0  # atno 10763 bound_to 10752
  153.1217  135.4737  154.9203 H   0  0  0  0  0  0  0  0  0  0  0  0  # atno 10764 bound_to 10752
  154.7654  135.3222  154.8249 H   0  0  0  0  0  0  0  0  0  0  0  0  # atno 10765 bound_to 10752
  140.1411  134.8738  157.2332 H   0  0  0  0  0  0  0  0  0  0  0  0  # atno 11005 bound_to 11000
  144.6733  140.1620  143.7421 LP  0  0  0  0  0  0  0  0  0  0  0  0  # atno 17320 bound_to 7965
  145.8836  139.2337  143.1590 LP  0  0  0  0  0  0  0  0  0  0  0  0  # atno 17321 bound_to 7965
  139.8736  144.7055  150.8959 LP  0  0  0  0  0  0  0  0  0  0  0  0  # atno 17342 bound_to 10162
  140.7770  143.3718  151.1636 LP  0  0  0  0  0  0  0  0  0  0  0  0  # atno 17343 bound_to 10162
  155.9765  130.4734  150.6533 LP  0  0  0  0  0  0  0  0  0  0  0  0  # atno 17370 bound_to 10713
  157.4193  131.0834  151.1147 LP  0  0  0  0  0  0  0  0  0  0  0  0  # atno 17371 bound_to 10713
  140.2721  134.3448  155.7370 LP  0  0  0  0  0  0  0  0  0  0  0  0  # atno 17394 bound_to 11000
  141.2186  133.7429  156.9238 LP  0  0  0  0  0  0  0  0  0  0  0  0  # atno 17395 bound_to 11000

$$$$
