AV-unprocessed.smi:200|AV-procd|sdf|1576|dock7
  -GOLD-   2262019453D 1   1.00000     0.00000
 Structure written by MMmdl.
 56 59  0  0  0  0  0  0  0  0  1 V2000
  151.6909  138.2248  154.0875 C   0  0  0  0  0  0  0  0  0  0  0  0
  150.5963  138.7006  154.8510 O   0  0  0  0  0  0  0  0  0  0  0  0
  150.0795  139.9240  154.3561 C   0  0  0  0  0  0  0  0  0  0  0  0
  149.2733  140.6026  155.4752 C   0  0  0  0  0  0  0  0  0  0  0  0
  150.0542  140.8334  156.6947 N   0  0  0  0  0  0  0  0  0  0  0  0
  150.2116  139.7750  157.5244 C   0  0  0  0  0  0  0  0  0  0  0  0
  151.4401  139.5997  158.0720 N   0  0  0  0  0  0  0  0  0  0  0  0
  151.6615  138.5823  158.9089 C   0  0  0  0  0  0  0  0  0  0  0  0
  150.8071  137.6487  159.3319 N   0  0  0  0  0  0  0  0  0  0  0  0
  149.5666  137.8293  158.7952 C   0  0  0  0  0  0  0  0  0  0  0  0
  149.1848  138.8557  157.8850 C   0  0  0  0  0  0  0  0  0  0  0  0
  147.8405  138.7204  157.5596 N   0  0  0  0  0  0  0  0  0  0  0  0
  147.4524  137.6719  158.2315 C   0  0  0  0  0  0  0  0  0  0  0  0
  148.4209  137.0837  159.0135 N   0  0  0  0  0  0  0  0  0  0  0  0
  148.2522  135.9201  159.8707 C   0  0  0  0  0  0  0  0  0  0  0  0
  147.3714  136.1719  161.1131 C   0  0  0  0  0  0  0  0  0  0  0  0
  147.0080  134.8476  161.8084 C   0  0  0  0  0  0  0  0  0  0  0  0
  148.1553  134.0569  162.0464 O   0  0  0  0  0  0  0  0  0  0  0  0
  147.8530  137.2813  162.0581 C   0  0  0  0  0  0  0  0  0  0  0  0
  146.5600  137.9223  162.0559 O   0  0  0  0  0  0  0  0  0  0  0  0
  146.1841  137.1254  160.9133 C   0  0  0  0  0  0  0  0  0  0  0  0
  149.9058  142.0950  157.4270 C   0  0  2  0  0  0  0  0  0  0  0  0
  150.0830  143.3581  156.5748 C   0  0  0  0  0  0  0  0  0  0  0  0
  150.3706  144.4381  157.6135 C   0  0  0  0  0  0  0  0  0  0  0  0
  151.2789  143.7422  158.6357 C   0  0  1  0  0  0  0  0  0  0  0  0
  151.2508  144.3917  160.0258 C   0  0  0  0  0  0  0  0  0  0  0  0
  150.8540  142.2615  158.6290 C   0  0  0  0  0  0  0  0  0  0  0  0
  152.0527  137.2879  154.5110 H   0  0  0  0  0  0  0  0  0  0  0  0
  152.5163  138.9378  154.0933 H   0  0  0  0  0  0  0  0  0  0  0  0
  151.3980  138.0359  153.0540 H   0  0  0  0  0  0  0  0  0  0  0  0
  150.9010  140.5607  154.0247 H   0  0  0  0  0  0  0  0  0  0  0  0
  149.4372  139.7354  153.4944 H   0  0  0  0  0  0  0  0  0  0  0  0
  148.8985  141.5545  155.1025 H   0  0  0  0  0  0  0  0  0  0  0  0
  148.3887  140.0089  155.7014 H   0  0  0  0  0  0  0  0  0  0  0  0
  152.6661  138.5079  159.2983 H   0  0  0  0  0  0  0  0  0  0  0  0
  146.4375  137.3046  158.1867 H   0  0  0  0  0  0  0  0  0  0  0  0
  147.8361  135.1120  159.2678 H   0  0  0  0  0  0  0  0  0  0  0  0
  149.2446  135.5782  160.1674 H   0  0  0  0  0  0  0  0  0  0  0  0
  146.5317  135.0395  162.7707 H   0  0  0  0  0  0  0  0  0  0  0  0
  146.2873  134.2708  161.2285 H   0  0  0  0  0  0  0  0  0  0  0  0
  148.2125  133.8822  162.9735 H   0  0  0  0  0  0  0  0  0  0  0  0
  148.1456  136.9290  163.0480 H   0  0  0  0  0  0  0  0  0  0  0  0
  148.6241  137.9241  161.6303 H   0  0  0  0  0  0  0  0  0  0  0  0
  146.2261  137.7083  159.9925 H   0  0  0  0  0  0  0  0  0  0  0  0
  145.2080  136.6530  161.0302 H   0  0  0  0  0  0  0  0  0  0  0  0
  148.8945  142.1372  157.8368 H   0  0  0  0  0  0  0  0  0  0  0  0
  150.9392  143.2685  155.9059 H   0  0  0  0  0  0  0  0  0  0  0  0
  149.2056  143.5816  155.9673 H   0  0  0  0  0  0  0  0  0  0  0  0
  150.8331  145.3243  157.1779 H   0  0  0  0  0  0  0  0  0  0  0  0
  149.4367  144.7477  158.0848 H   0  0  0  0  0  0  0  0  0  0  0  0
  152.2999  143.7926  158.2542 H   0  0  0  0  0  0  0  0  0  0  0  0
  150.2467  144.3754  160.4508 H   0  0  0  0  0  0  0  0  0  0  0  0
  151.5758  145.4311  159.9775 H   0  0  0  0  0  0  0  0  0  0  0  0
  151.9132  143.8681  160.7157 H   0  0  0  0  0  0  0  0  0  0  0  0
  150.3325  141.9865  159.5468 H   0  0  0  0  0  0  0  0  0  0  0  0
  151.7347  141.6227  158.5709 H   0  0  0  0  0  0  0  0  0  0  0  0
  1  2  1  0  0  0  0
  1 28  1  0  0  0  0
  1 29  1  0  0  0  0
  1 30  1  0  0  0  0
  2  3  1  0  0  0  0
  3  4  1  0  0  0  0
  3 31  1  0  0  0  0
  3 32  1  0  0  0  0
  4  5  1  0  0  0  0
  4 33  1  0  0  0  0
  4 34  1  0  0  0  0
  5  6  1  0  0  0  0
  5 22  1  0  0  0  0
  6 11  1  0  0  0  0
  6  7  2  0  0  0  0
  7  8  1  0  0  0  0
  8  9  2  0  0  0  0
  8 35  1  0  0  0  0
  9 10  1  0  0  0  0
 10 14  1  0  0  0  0
 10 11  2  0  0  0  0
 11 12  1  0  0  0  0
 12 13  2  0  0  0  0
 13 14  1  0  0  0  0
 13 36  1  0  0  0  0
 14 15  1  0  0  0  0
 15 16  1  0  0  0  0
 15 37  1  0  0  0  0
 15 38  1  0  0  0  0
 16 21  1  0  0  0  0
 16 17  1  0  0  0  0
 16 19  1  0  0  0  0
 17 18  1  0  0  0  0
 17 39  1  0  0  0  0
 17 40  1  0  0  0  0
 18 41  1  0  0  0  0
 19 20  1  0  0  0  0
 19 42  1  0  0  0  0
 19 43  1  0  0  0  0
 20 21  1  0  0  0  0
 21 44  1  0  0  0  0
 21 45  1  0  0  0  0
 22 27  1  0  0  0  0
 22 23  1  0  0  0  0
 22 46  1  0  0  0  0
 23 24  1  0  0  0  0
 23 47  1  0  0  0  0
 23 48  1  0  0  0  0
 24 25  1  0  0  0  0
 24 49  1  0  0  0  0
 24 50  1  0  0  0  0
 25 26  1  0  0  0  0
 25 27  1  0  0  0  0
 25 51  1  0  0  0  0
 26 52  1  0  0  0  0
 26 53  1  0  0  0  0
 26 54  1  0  0  0  0
 27 55  1  0  0  0  0
 27 56  1  0  0  0  0
M  END
> <s_m_source_file>
AV-unprocessed.smi

> <i_m_source_file_index>
200

> <i_lp_mmshare_version>
43012

> <i_f3d_flags>
0

> <s_epik_input>
W0NIM11bQ0BASF0oW0NIMl0xKVtDSDJdW0NIMl1bQ0BIXTFOKFtDSDJdW0NIMl1PW0NIM10pYyhuW2NIXW4yKWMoYzIzKW5bY0hdbjNbQ0gyXUM0KFtDSDJdW09IXSlbQ0gyXU9bQ0gyXTQ=

> <s_epik_cmdline>
J2VwaWtfcHl0aG9uJywgJy1waCcsICc3LjAnLCAnLXRuJywgJzgnLCAnLW1hJywgJzIwMCcsICctbWV0YWxfYmluZGluZycsICctaW1hZScsICc8aW5maWxlLm1hZT4nLCAnLW9tYWUnLCAnPG91dGZpbGUubWFlPic=

> <r_lp_tautomer_probability>
1

> <r_epik_Ionization_Penalty>
0.00363087

> <r_epik_Ionization_Penalty_Charging>
0

> <r_epik_Ionization_Penalty_Neutral>
0.00363087

> <r_epik_State_Penalty>
0.0024341

> <r_epik_Charging_Adjusted_Penalty>
0.0024341

> <i_epik_Tot_Q>
0

> <i_epik_Tot_abs_Q>
0

> <r_epik_Metal_State_Penalty>
-0

> <b_epik_Metal_Only>
0

> <s_lp_Force_Field>
OPLS_2005

> <r_lp_Energy>
49.2687

> <b_lp_Chiralities_Consistent>
1

> <s_lp_Variant>
AV-unprocessed.smi:200-1

> <Gold.Version>
5.8.1

> <Gold.Id.Protein>
6NUR|6NUR_protein|mol2

> <Gold.PLP.Fitness>
49.1579

> <Gold.PLP.PLP>
-47.8022

> <Gold.PLP.part.hbond>
-3.4598

> <Gold.PLP.part.metal>
0.0000

> <Gold.PLP.part.buried>
-4.9035

> <Gold.PLP.part.nonpolar>
-40.1897

> <Gold.PLP.part.repulsive>
0.0742

> <Gold.PLP.ligand.clash>
0.0000

> <Gold.PLP.ligand.torsion>
1.5159

> <Gold.PLP.Chemscore.Hbond>
1.0000

> <Gold.PLP.Chemscore.CHOScore>
0.0000

> <Gold.PLP.Chemscore.Metal>
0.0000

> <Gold.Chemscore.Hbonds>
donor molecule, donor type, donor heavy atom, donor atom, acceptor molecule, acceptor atom, score
      P1  H  6934  6947       L1    20  0.10

> <Gold.PLP.Chemscore.Internal.Correction>
1.3875

> <Gold.Rescore>
     Score         DG    S(hbond)    S(metal)    S(lipo)     H(rot)  DE(clash)    DE(int)     intcor
      8.23     -13.42       0.93        0.00     112.96       3.28       1.28       3.91       ----

> <Gold.Chemscore.Fitness>
8.2341

> <Gold.Chemscore.DG>
-13.4198

> <Gold.Chemscore.ZeroCoef>
-5.4800

> <Gold.Chemscore.Hbond>
0.9313

> <Gold.Chemscore.Metal>
0.0000

> <Gold.Chemscore.Lipo>
112.9562

> <Gold.Chemscore.Internal_Hbond>
0.0000

> <Gold.Chemscore.DEClash>
1.2781

> <Gold.Chemscore.DEInternal>
3.9076

> <Gold.Chemscore.Rot>
3.2761

> <Gold.Chemscore.Internal.Correction>
   9.000000E+99

> <Gold.Chemscore.Hbond.Weighted>
-3.1107

> <Gold.Chemscore.Metal.Weighted>
-0.0000

> <Gold.Chemscore.Lipo.Weighted>
-13.2159

> <Gold.Chemscore.Internal_Hbond.Weighted>
0.0000

> <Gold.Chemscore.DEClash.Weighted>
1.2781

> <Gold.Chemscore.DEInternal.Weighted>
3.9076

> <Gold.Chemscore.Rot.Weighted>
8.3868

> <Gold.Chemscore.Internal.Correction.Weighted>
   9.000000E+99

> <Gold.Protein.RotatedTorsions>
[ 6907 6896 6895 6894 ] final   85.35 input  -60.11 | X-H torsion
[ 7974 7965 7964 7962 ] final  147.25 input  175.53 | X-H torsion
[ 8008 7997 7996 7995 ] final   23.66 input   59.86 | X-H torsion
[ 10167 10162 10161 10158 ] final  -18.07 input  -65.29 | X-H torsion
[ 10718 10713 10712 10709 ] final -146.69 input   66.30 | X-H torsion
[ 10763 10752 10751 10750 ] final  -80.88 input  -60.55 | X-H torsion
[ 11005 11000 10999 10996 ] final  -66.68 input  -57.11 | X-H torsion

> <Gold.Protein.ActiveResidues>
 VAL166  LYS551  ARG553  GLY616  TRP617  ASP618  TYR619  PRO620  LYS621  CYS622 
 ASP623  PHE694  ASN695  SER759  ASP760  ASP761  ALA762  ILE779  LEU786  VAL792 
 PHE793  MET794  SER795  GLU796  ALA797  LYS798  CYS799  TRP800  GLU811  SER814 

> <Gold.Protein.RotatedAtoms>
  152.5373  134.2599  159.8931 H   0  0  0  0  0  0  0  0  0  0  0  0  # atno 6907 bound_to 6896
  151.2559  133.4319  159.2621 H   0  0  0  0  0  0  0  0  0  0  0  0  # atno 6908 bound_to 6896
  151.0496  134.9678  159.8261 H   0  0  0  0  0  0  0  0  0  0  0  0  # atno 6909 bound_to 6896
  144.8606  139.6005  143.5932 H   0  0  0  0  0  0  0  0  0  0  0  0  # atno 7974 bound_to 7965
  154.9844  140.3106  155.4932 H   0  0  0  0  0  0  0  0  0  0  0  0  # atno 8008 bound_to 7997
  156.2949  140.2260  156.4885 H   0  0  0  0  0  0  0  0  0  0  0  0  # atno 8009 bound_to 7997
  154.7760  140.0449  157.1077 H   0  0  0  0  0  0  0  0  0  0  0  0  # atno 8010 bound_to 7997
  140.7254  143.4953  150.9939 H   0  0  0  0  0  0  0  0  0  0  0  0  # atno 10167 bound_to 10162
  156.3981  130.7920  151.2128 H   0  0  0  0  0  0  0  0  0  0  0  0  # atno 10718 bound_to 10713
  154.5567  135.5645  153.6970 H   0  0  0  0  0  0  0  0  0  0  0  0  # atno 10763 bound_to 10752
  153.0005  135.6264  154.2300 H   0  0  0  0  0  0  0  0  0  0  0  0  # atno 10764 bound_to 10752
  154.2237  135.2868  155.2895 H   0  0  0  0  0  0  0  0  0  0  0  0  # atno 10765 bound_to 10752
  141.1488  133.6704  156.6176 H   0  0  0  0  0  0  0  0  0  0  0  0  # atno 11005 bound_to 11000
  146.2858  139.6999  142.9197 LP  0  0  0  0  0  0  0  0  0  0  0  0  # atno 17320 bound_to 7965
  145.4319  141.0416  143.2906 LP  0  0  0  0  0  0  0  0  0  0  0  0  # atno 17321 bound_to 7965
  139.8660  143.7254  152.3170 LP  0  0  0  0  0  0  0  0  0  0  0  0  # atno 17342 bound_to 10162
  139.7486  144.7540  151.0542 LP  0  0  0  0  0  0  0  0  0  0  0  0  # atno 17343 bound_to 10162
  157.7502  131.0295  150.4095 LP  0  0  0  0  0  0  0  0  0  0  0  0  # atno 17370 bound_to 10713
  156.4370  130.3983  149.6722 LP  0  0  0  0  0  0  0  0  0  0  0  0  # atno 17371 bound_to 10713
  140.3565  134.7724  157.4504 LP  0  0  0  0  0  0  0  0  0  0  0  0  # atno 17394 bound_to 11000
  140.0819  134.5720  155.8532 LP  0  0  0  0  0  0  0  0  0  0  0  0  # atno 17395 bound_to 11000

$$$$
