AV-unprocessed.smi:1933|AV-procd|sdf|7815|dock5
  -GOLD-   22720 9553D 1   1.00000     0.00000
 Structure written by MMmdl.
 47 49  0  0  0  0  0  0  0  0  1 V2000
  145.1985  135.5008  153.8268 O   0  0  0  0  0  0  0  0  0  0  0  0
  146.2975  135.4658  153.2729 C   0  0  0  0  0  0  0  0  0  0  0  0
  147.3725  136.1367  153.7127 N   0  0  0  0  0  0  0  0  0  0  0  0
  147.4210  136.9950  154.8937 C   0  0  0  0  0  0  0  0  0  0  0  0
  148.1895  138.3187  154.6344 C   0  0  2  0  0  0  0  0  0  0  0  0
  149.6892  138.2491  155.0469 C   0  0  2  0  0  0  0  0  0  0  0  0
  150.6705  139.2615  154.4861 C   0  0  0  0  0  0  0  0  0  0  0  0
  151.9963  138.6399  154.9116 C   0  0  0  0  0  0  0  0  0  0  0  0
  151.7987  137.2308  154.8186 O   0  0  0  0  0  0  0  0  0  0  0  0
  150.4060  136.9359  154.7261 C   0  0  0  0  0  0  0  0  0  0  0  0
  147.4787  139.5369  155.0723 N   0  0  0  0  0  0  0  0  0  0  0  0
  147.9527  140.7391  154.3904 C   0  0  0  0  0  0  0  0  0  0  0  0
  147.2897  142.0110  154.9480 C   0  0  0  0  0  0  0  0  0  0  0  0
  145.8734  141.8971  154.8555 O   0  0  0  0  0  0  0  0  0  0  0  0
  145.3671  140.7566  155.5414 C   0  0  0  0  0  0  0  0  0  0  0  0
  146.0177  139.4861  154.9697 C   0  0  0  0  0  0  0  0  0  0  0  0
  146.5867  134.7617  152.1644 N   0  0  0  0  0  0  0  0  0  0  0  0
  145.7371  133.8931  151.4285 C   0  0  0  0  0  0  0  0  0  0  0  0
  146.4050  132.9776  150.5837 C   0  0  0  0  0  0  0  0  0  0  0  0
  145.6528  132.0677  149.8155 C   0  0  0  0  0  0  0  0  0  0  0  0
  144.2503  132.0970  149.9115 C   0  0  0  0  0  0  0  0  0  0  0  0
  143.6642  133.0403  150.7756 C   0  0  0  0  0  0  0  0  0  0  0  0
  144.3833  133.9130  151.5130 N   0  0  0  0  0  0  0  0  0  0  0  0
  148.2310  136.0452  153.1895 H   0  0  0  0  0  0  0  0  0  0  0  0
  146.3867  137.2071  155.1638 H   0  0  0  0  0  0  0  0  0  0  0  0
  147.8505  136.4624  155.7437 H   0  0  0  0  0  0  0  0  0  0  0  0
  148.2514  138.3897  153.5473 H   0  0  0  0  0  0  0  0  0  0  0  0
  149.7303  138.3470  156.1323 H   0  0  0  0  0  0  0  0  0  0  0  0
  150.6502  139.2914  153.4000 H   0  0  0  0  0  0  0  0  0  0  0  0
  150.5289  140.2715  154.8699 H   0  0  0  0  0  0  0  0  0  0  0  0
  152.8317  138.9692  154.2933 H   0  0  0  0  0  0  0  0  0  0  0  0
  152.2204  138.8942  155.9485 H   0  0  0  0  0  0  0  0  0  0  0  0
  150.1253  136.1324  155.4073 H   0  0  0  0  0  0  0  0  0  0  0  0
  150.1958  136.6049  153.7086 H   0  0  0  0  0  0  0  0  0  0  0  0
  149.0339  140.8287  154.5011 H   0  0  0  0  0  0  0  0  0  0  0  0
  147.7525  140.6684  153.3208 H   0  0  0  0  0  0  0  0  0  0  0  0
  147.5799  142.1726  155.9874 H   0  0  0  0  0  0  0  0  0  0  0  0
  147.6152  142.8859  154.3853 H   0  0  0  0  0  0  0  0  0  0  0  0
  145.5651  140.8460  156.6108 H   0  0  0  0  0  0  0  0  0  0  0  0
  144.2849  140.7174  155.4171 H   0  0  0  0  0  0  0  0  0  0  0  0
  145.7196  139.3904  153.9251 H   0  0  0  0  0  0  0  0  0  0  0  0
  145.6087  138.6200  155.4790 H   0  0  0  0  0  0  0  0  0  0  0  0
  147.5294  134.8443  151.8140 H   0  0  0  0  0  0  0  0  0  0  0  0
  147.4836  132.9682  150.5222 H   0  0  0  0  0  0  0  0  0  0  0  0
  146.1446  131.3597  149.1650 H   0  0  0  0  0  0  0  0  0  0  0  0
  143.6399  131.4148  149.3385 H   0  0  0  0  0  0  0  0  0  0  0  0
  142.5906  133.0957  150.8784 H   0  0  0  0  0  0  0  0  0  0  0  0
  1  2  2  0  0  0  0
  2  3  1  0  0  0  0
  2 17  1  0  0  0  0
  3  4  1  0  0  0  0
  3 24  1  0  0  0  0
  4  5  1  0  0  0  0
  4 25  1  0  0  0  0
  4 26  1  0  0  0  0
  5  6  1  0  0  0  0
  5 11  1  0  0  0  0
  5 27  1  0  0  0  0
  6 10  1  0  0  0  0
  6  7  1  0  0  0  0
  6 28  1  0  0  0  0
  7  8  1  0  0  0  0
  7 29  1  0  0  0  0
  7 30  1  0  0  0  0
  8  9  1  0  0  0  0
  8 31  1  0  0  0  0
  8 32  1  0  0  0  0
  9 10  1  0  0  0  0
 10 33  1  0  0  0  0
 10 34  1  0  0  0  0
 11 16  1  0  0  0  0
 11 12  1  0  0  0  0
 12 13  1  0  0  0  0
 12 35  1  0  0  0  0
 12 36  1  0  0  0  0
 13 14  1  0  0  0  0
 13 37  1  0  0  0  0
 13 38  1  0  0  0  0
 14 15  1  0  0  0  0
 15 16  1  0  0  0  0
 15 39  1  0  0  0  0
 15 40  1  0  0  0  0
 16 41  1  0  0  0  0
 16 42  1  0  0  0  0
 17 18  1  0  0  0  0
 17 43  1  0  0  0  0
 18 23  1  0  0  0  0
 18 19  2  0  0  0  0
 19 20  1  0  0  0  0
 19 44  1  0  0  0  0
 20 21  2  0  0  0  0
 20 45  1  0  0  0  0
 21 22  1  0  0  0  0
 21 46  1  0  0  0  0
 22 23  2  0  0  0  0
 22 47  1  0  0  0  0
M  END
> <s_m_source_file>
AV-unprocessed.smi

> <i_m_source_file_index>
1933

> <i_lp_mmshare_version>
43012

> <i_f3d_flags>
0

> <s_epik_input>
bjFbY0hdW2NIXVtjSF1bY0hdYzFbTkhdQyg9TylbTkhdW0NIMl1bQ0BIXShbQ0BASF0yW0NIMl1bQ0gyXU9bQ0gyXTIpTjNbQ0gyXVtDSDJdT1tDSDJdW0NIMl0z

> <s_epik_cmdline>
J2VwaWtfcHl0aG9uJywgJy1waCcsICc3LjAnLCAnLXRuJywgJzgnLCAnLW1hJywgJzIwMCcsICctbWV0YWxfYmluZGluZycsICctaW1hZScsICc8aW5maWxlLm1hZT4nLCAnLW9tYWUnLCAnPG91dGZpbGUubWFlPic=

> <r_epik_Ionization_Penalty>
0.125062

> <r_epik_Ionization_Penalty_Charging>
0

> <r_epik_Ionization_Penalty_Neutral>
0.125062

> <r_epik_State_Penalty>
0.114484

> <r_epik_Charging_Adjusted_Penalty>
0.114484

> <i_epik_Tot_Q>
0

> <i_epik_Tot_abs_Q>
0

> <r_epik_Metal_State_Penalty>
0.114484

> <b_epik_Metal_Only>
0

> <s_lp_Force_Field>
OPLS_2005

> <r_lp_Energy>
57.3648

> <b_lp_Chiralities_Consistent>
1

> <s_lp_Variant>
AV-unprocessed.smi:1933-1

> <Gold.Version>
5.8.1

> <Gold.Id.Protein>
6NUR|6NUR_protein|mol2

> <Gold.PLP.Fitness>
42.8460

> <Gold.PLP.PLP>
-33.9541

> <Gold.PLP.part.hbond>
-2.7076

> <Gold.PLP.part.metal>
0.0000

> <Gold.PLP.part.buried>
-3.2958

> <Gold.PLP.part.nonpolar>
-29.2608

> <Gold.PLP.part.repulsive>
0.5169

> <Gold.PLP.ligand.clash>
0.0000

> <Gold.PLP.ligand.torsion>
1.2909

> <Gold.PLP.Chemscore.Hbond>
2.7355

> <Gold.PLP.Chemscore.CHOScore>
0.9772

> <Gold.PLP.Chemscore.Metal>
0.0000

> <Gold.Chemscore.Hbonds>
donor molecule, donor type, donor heavy atom, donor atom, acceptor molecule, acceptor atom, score
      L1  H     3    24       P1  7948  0.94
      L1  H    17    43       P1  7948  0.75
      P1  H 10752 10764       L1     9  1.00
      L1  C    22    47       P1 10186  0.98

> <Gold.PLP.Chemscore.Internal.Correction>
0.3356

> <Gold.Rescore>
     Score         DG    S(hbond)    S(metal)    S(lipo)     H(rot)  DE(clash)    DE(int)     intcor
     16.67     -19.51       2.61        0.00      83.06       1.72       0.06       2.78       ----

> <Gold.Chemscore.Fitness>
16.6694

> <Gold.Chemscore.DG>
-19.5077

> <Gold.Chemscore.ZeroCoef>
-5.4800

> <Gold.Chemscore.Hbond>
2.6057

> <Gold.Chemscore.Metal>
0.0000

> <Gold.Chemscore.Lipo>
83.0579

> <Gold.Chemscore.Internal_Hbond>
0.0000

> <Gold.Chemscore.DEClash>
0.0582

> <Gold.Chemscore.DEInternal>
2.7801

> <Gold.Chemscore.Rot>
1.7161

> <Gold.Chemscore.Internal.Correction>
   9.000000E+99

> <Gold.Chemscore.Hbonds>
donor molecule, donor type, donor heavy atom, donor atom, acceptor molecule, acceptor atom, score
      L1  H     3    24       P1  7948  0.84
      L1  H    17    43       P1  7948  0.53
      P1  H 10752 10764       L1     9  0.78

> <Gold.Chemscore.Hbond.Weighted>
-8.7031

> <Gold.Chemscore.Metal.Weighted>
-0.0000

> <Gold.Chemscore.Lipo.Weighted>
-9.7178

> <Gold.Chemscore.Internal_Hbond.Weighted>
0.0000

> <Gold.Chemscore.DEClash.Weighted>
0.0582

> <Gold.Chemscore.DEInternal.Weighted>
2.7801

> <Gold.Chemscore.Rot.Weighted>
4.3932

> <Gold.Chemscore.Internal.Correction.Weighted>
   9.000000E+99

> <Gold.Protein.RotatedTorsions>
[ 6907 6896 6895 6894 ] final    5.81 input  -60.11 | X-H torsion
[ 7974 7965 7964 7962 ] final  -22.46 input  175.53 | X-H torsion
[ 8008 7997 7996 7995 ] final   14.98 input   59.86 | X-H torsion
[ 10167 10162 10161 10158 ] final   62.64 input  -65.29 | X-H torsion
[ 10718 10713 10712 10709 ] final  -49.16 input   66.30 | X-H torsion
[ 10763 10752 10751 10750 ] final  -65.29 input  -60.55 | X-H torsion
[ 11005 11000 10999 10996 ] final -172.02 input  -57.11 | X-H torsion

> <Gold.Protein.ActiveResidues>
 VAL166  LYS551  ARG553  GLY616  TRP617  ASP618  TYR619  PRO620  LYS621  CYS622 
 ASP623  PHE694  ASN695  SER759  ASP760  ASP761  ALA762  ILE779  LEU786  VAL792 
 PHE793  MET794  SER795  GLU796  ALA797  LYS798  CYS799  TRP800  GLU811  SER814 

> <Gold.Protein.RotatedAtoms>
  151.6636  135.0986  160.0184 H   0  0  0  0  0  0  0  0  0  0  0  0  # atno 6907 bound_to 6896
  152.3932  133.6705  159.6263 H   0  0  0  0  0  0  0  0  0  0  0  0  # atno 6908 bound_to 6896
  150.7844  133.8835  159.3334 H   0  0  0  0  0  0  0  0  0  0  0  0  # atno 6909 bound_to 6896
  146.1674  140.4482  142.8546 H   0  0  0  0  0  0  0  0  0  0  0  0  # atno 7974 bound_to 7965
  154.8561  140.2937  155.5568 H   0  0  0  0  0  0  0  0  0  0  0  0  # atno 8008 bound_to 7997
  156.3018  140.2487  156.3460 H   0  0  0  0  0  0  0  0  0  0  0  0  # atno 8009 bound_to 7997
  154.8968  140.0392  157.1859 H   0  0  0  0  0  0  0  0  0  0  0  0  # atno 8010 bound_to 7997
  140.1417  144.4547  150.6807 H   0  0  0  0  0  0  0  0  0  0  0  0  # atno 10167 bound_to 10162
  156.1919  130.4153  149.9359 H   0  0  0  0  0  0  0  0  0  0  0  0  # atno 10718 bound_to 10713
  154.3428  135.6153  153.5604 H   0  0  0  0  0  0  0  0  0  0  0  0  # atno 10763 bound_to 10752
  152.9803  135.5773  154.4833 H   0  0  0  0  0  0  0  0  0  0  0  0  # atno 10764 bound_to 10752
  154.4540  135.2854  155.1737 H   0  0  0  0  0  0  0  0  0  0  0  0  # atno 10765 bound_to 10752
  140.5016  134.5888  157.4989 H   0  0  0  0  0  0  0  0  0  0  0  0  # atno 11005 bound_to 11000
  144.8113  140.6390  143.6413 LP  0  0  0  0  0  0  0  0  0  0  0  0  # atno 17320 bound_to 7965
  145.4430  139.1533  143.3960 LP  0  0  0  0  0  0  0  0  0  0  0  0  # atno 17321 bound_to 7965
  140.6756  143.2304  151.5515 LP  0  0  0  0  0  0  0  0  0  0  0  0  # atno 17342 bound_to 10162
  139.5468  144.2499  152.1458 LP  0  0  0  0  0  0  0  0  0  0  0  0  # atno 17343 bound_to 10162
  156.7096  130.8965  151.3608 LP  0  0  0  0  0  0  0  0  0  0  0  0  # atno 17370 bound_to 10713
  157.6934  130.9257  150.0577 LP  0  0  0  0  0  0  0  0  0  0  0  0  # atno 17371 bound_to 10713
  139.9710  134.7293  156.0042 LP  0  0  0  0  0  0  0  0  0  0  0  0  # atno 17394 bound_to 11000
  141.1432  133.6560  156.3791 LP  0  0  0  0  0  0  0  0  0  0  0  0  # atno 17395 bound_to 11000

$$$$
