AV-unprocessed.smi:1213|AV-procd|sdf|5090|dock5
  -GOLD-   22720 4143D 1   1.00000     0.00000
 Structure written by MMmdl.
 36 37  0  0  0  0  0  0  0  0  3 V2000
  144.5799  135.9067  149.6929 N   0  0  0  0  0  0  0  0  0  0  0  0
  145.0328  135.4987  150.8805 C   0  0  0  0  0  0  0  0  0  0  0  0
  145.6210  134.4284  151.0245 O   0  0  0  0  0  0  0  0  0  0  0  0
  144.8045  136.4408  152.0675 C   0  0  0  0  0  0  0  0  0  0  0  0
  146.0584  137.0558  152.5745 N   0  3  2  0  0  0  0  0  0  0  0  0
  146.2339  136.8999  154.0437 C   0  0  0  0  0  0  0  0  0  0  0  0
  147.6043  137.4293  154.4967 C   0  0  0  0  0  0  0  0  0  0  0  0
  147.7926  138.8980  154.0854 C   0  0  1  0  0  0  0  0  0  0  0  0
  149.1302  139.3487  154.4570 N   0  0  0  0  0  0  0  0  0  0  0  0
  149.6905  140.5167  154.1121 C   0  0  0  0  0  0  0  0  0  0  0  0
  149.0627  141.3189  153.4168 O   0  0  0  0  0  0  0  0  0  0  0  0
  150.9438  140.6790  154.5916 N   0  5  0  0  0  0  0  0  0  0  0  0
  151.1424  140.8428  155.9096 C   0  0  0  0  0  0  0  0  0  0  0  0
  152.2240  140.3805  156.5469 N   0  0  0  0  0  0  0  0  0  0  0  0
  152.2293  140.6694  157.9128 C   0  0  0  0  0  0  0  0  0  0  0  0
  151.1298  141.3754  158.3235 C   0  0  0  0  0  0  0  0  0  0  0  0
  150.0485  141.7004  156.9989 S   0  0  0  0  0  0  0  0  0  0  0  0
  147.5683  139.0401  152.5690 C   0  0  0  0  0  0  0  0  0  0  0  0
  146.2013  138.4733  152.1549 C   0  0  0  0  0  0  0  0  0  0  0  0
  144.7107  135.3213  148.8798 H   0  0  0  0  0  0  0  0  0  0  0  0
  144.1122  136.7974  149.6044 H   0  0  0  0  0  0  0  0  0  0  0  0
  144.1282  137.2220  151.7178 H   0  0  0  0  0  0  0  0  0  0  0  0
  144.2893  135.9202  152.8765 H   0  0  0  0  0  0  0  0  0  0  0  0
  145.4368  137.4315  154.5659 H   0  0  0  0  0  0  0  0  0  0  0  0
  146.1474  135.8500  154.3246 H   0  0  0  0  0  0  0  0  0  0  0  0
  147.6991  137.3287  155.5786 H   0  0  0  0  0  0  0  0  0  0  0  0
  148.3926  136.8153  154.0585 H   0  0  0  0  0  0  0  0  0  0  0  0
  147.0523  139.4999  154.6159 H   0  0  0  0  0  0  0  0  0  0  0  0
  149.6821  138.7252  155.0282 H   0  0  0  0  0  0  0  0  0  0  0  0
  153.0586  140.3345  158.5179 H   0  0  0  0  0  0  0  0  0  0  0  0
  150.8912  141.7231  159.3172 H   0  0  0  0  0  0  0  0  0  0  0  0
  147.6338  140.0877  152.2729 H   0  0  0  0  0  0  0  0  0  0  0  0
  148.3579  138.5171  152.0268 H   0  0  0  0  0  0  0  0  0  0  0  0
  146.0983  138.5500  151.0720 H   0  0  0  0  0  0  0  0  0  0  0  0
  145.3981  139.0673  152.5938 H   0  0  0  0  0  0  0  0  0  0  0  0
  146.8162  136.5531  152.1339 H   0  0  0  0  0  0  0  0  0  0  0  0
  1  2  1  0  0  0  0
  1 20  1  0  0  0  0
  1 21  1  0  0  0  0
  2  3  2  0  0  0  0
  2  4  1  0  0  0  0
  4  5  1  0  0  0  0
  4 22  1  0  0  0  0
  4 23  1  0  0  0  0
  5 19  1  0  0  0  0
  5  6  1  0  0  0  0
  5 36  1  0  0  0  0
  6  7  1  0  0  0  0
  6 24  1  0  0  0  0
  6 25  1  0  0  0  0
  7  8  1  0  0  0  0
  7 26  1  0  0  0  0
  7 27  1  0  0  0  0
  8  9  1  0  0  0  0
  8 18  1  0  0  0  0
  8 28  1  0  0  0  0
  9 10  1  0  0  0  0
  9 29  1  0  0  0  0
 10 11  2  0  0  0  0
 10 12  1  0  0  0  0
 12 13  1  0  0  0  0
 13 17  1  0  0  0  0
 13 14  2  0  0  0  0
 14 15  1  0  0  0  0
 15 16  2  0  0  0  0
 15 30  1  0  0  0  0
 16 17  1  0  0  0  0
 16 31  1  0  0  0  0
 18 19  1  0  0  0  0
 18 32  1  0  0  0  0
 18 33  1  0  0  0  0
 19 34  1  0  0  0  0
 19 35  1  0  0  0  0
M  CHG  1   5   1
M  CHG  1  12  -1
M  END
> <s_m_source_file>
AV-unprocessed.smi

> <i_m_source_file_index>
1213

> <i_lp_mmshare_version>
43012

> <i_f3d_flags>
0

> <s_epik_input>
W05IMl1DKD1PKVtDSDJdTjFbQ0gyXVtDSDJdW0NIXShbQ0gyXVtDSDJdMSlbTkhdQyg9TylbTkhdYzJuW2NIXVtjSF1zMg==

> <s_epik_cmdline>
J2VwaWtfcHl0aG9uJywgJy1waCcsICc3LjAnLCAnLXRuJywgJzgnLCAnLW1hJywgJzIwMCcsICctbWV0YWxfYmluZGluZycsICctaW1hZScsICc8aW5maWxlLm1hZT4nLCAnLW9tYWUnLCAnPG91dGZpbGUubWFlPic=

> <r_lp_tautomer_probability>
0.999

> <r_epik_Ionization_Penalty>
7.1168

> <r_epik_Ionization_Penalty_Charging>
6.25003

> <r_epik_Ionization_Penalty_Neutral>
0.866763

> <r_epik_State_Penalty>
6.33484

> <r_epik_Charging_Adjusted_Penalty>
12.5849

> <i_epik_Tot_Q>
0

> <i_epik_Tot_abs_Q>
2

> <r_epik_Metal_State_Penalty>
2.3501

> <b_epik_Metal_Only>
1

> <s_lp_Force_Field>
OPLS_2005

> <r_lp_Energy>
2.02951

> <b_lp_Chiralities_Consistent>
1

> <s_lp_Variant>
AV-unprocessed.smi:1213-7

> <Gold.Version>
5.8.1

> <Gold.Id.Protein>
6NUR|6NUR_protein|mol2

> <Gold.PLP.Fitness>
41.7356

> <Gold.PLP.PLP>
-25.6809

> <Gold.PLP.part.hbond>
-6.4743

> <Gold.PLP.part.metal>
0.0000

> <Gold.PLP.part.buried>
2.2053

> <Gold.PLP.part.nonpolar>
-22.1126

> <Gold.PLP.part.repulsive>
1.7157

> <Gold.PLP.ligand.clash>
0.0000

> <Gold.PLP.ligand.torsion>
1.7171

> <Gold.PLP.Chemscore.Hbond>
6.4807

> <Gold.PLP.Chemscore.CHOScore>
0.0000

> <Gold.PLP.Chemscore.Metal>
0.0000

> <Gold.Chemscore.Hbonds>
donor molecule, donor type, donor heavy atom, donor atom, acceptor molecule, acceptor atom, score
      L1  H     1    20       P1  7921  0.78
      L1  H     1    21       P1 10171  1.00
      L1  H     5    36       P1  7948  1.37
      P1  H  7989  7998       L1    12  0.41
      P1  H  7997  8008       L1    14  0.57
      P1  H  8011  8017       L1    11  0.96

> <Gold.PLP.Chemscore.Internal.Correction>
0.0466

> <Gold.Rescore>
     Score         DG    S(hbond)    S(metal)    S(lipo)     H(rot)  DE(clash)    DE(int)     intcor
     13.66     -19.03       3.92        0.00      48.64       2.04       2.12       3.26       ----

> <Gold.Chemscore.Fitness>
13.6570

> <Gold.Chemscore.DG>
-19.0344

> <Gold.Chemscore.ZeroCoef>
-5.4800

> <Gold.Chemscore.Hbond>
3.9158

> <Gold.Chemscore.Metal>
0.0000

> <Gold.Chemscore.Lipo>
48.6396

> <Gold.Chemscore.Internal_Hbond>
0.0000

> <Gold.Chemscore.DEClash>
2.1208

> <Gold.Chemscore.DEInternal>
3.2566

> <Gold.Chemscore.Rot>
2.0373

> <Gold.Chemscore.Internal.Correction>
   9.000000E+99

> <Gold.Chemscore.Hbonds>
donor molecule, donor type, donor heavy atom, donor atom, acceptor molecule, acceptor atom, score
      L1  H     1    20       P1  7921  0.77
      L1  H     1    21       P1 10171  0.99
      L1  H     5    36       P1  7948  0.64
      P1  H  7989  7998       L1    12  0.14
      P1  H  7997  8008       L1    14  0.07
      P1  H  8011  8017       L1    11  0.92

> <Gold.Chemscore.Hbond.Weighted>
-13.0789

> <Gold.Chemscore.Metal.Weighted>
-0.0000

> <Gold.Chemscore.Lipo.Weighted>
-5.6908

> <Gold.Chemscore.Internal_Hbond.Weighted>
0.0000

> <Gold.Chemscore.DEClash.Weighted>
2.1208

> <Gold.Chemscore.DEInternal.Weighted>
3.2566

> <Gold.Chemscore.Rot.Weighted>
5.2154

> <Gold.Chemscore.Internal.Correction.Weighted>
   9.000000E+99

> <Gold.Protein.RotatedTorsions>
[ 6907 6896 6895 6894 ] final  153.06 input  -60.11 | X-H torsion
[ 7974 7965 7964 7962 ] final    7.40 input  175.53 | X-H torsion
[ 8008 7997 7996 7995 ] final  -45.99 input   59.86 | X-H torsion
[ 10167 10162 10161 10158 ] final   22.35 input  -65.29 | X-H torsion
[ 10718 10713 10712 10709 ] final   12.45 input   66.30 | X-H torsion
[ 10763 10752 10751 10750 ] final  -23.66 input  -60.55 | X-H torsion
[ 11005 11000 10999 10996 ] final -141.62 input  -57.11 | X-H torsion

> <Gold.Protein.ActiveResidues>
 VAL166  LYS551  ARG553  GLY616  TRP617  ASP618  TYR619  PRO620  LYS621  CYS622 
 ASP623  PHE694  ASN695  SER759  ASP760  ASP761  ALA762  ILE779  LEU786  VAL792 
 PHE793  MET794  SER795  GLU796  ALA797  LYS798  CYS799  TRP800  GLU811  SER814 

> <Gold.Protein.RotatedAtoms>
  152.0779  133.4138  159.4487 H   0  0  0  0  0  0  0  0  0  0  0  0  # atno 6907 bound_to 6896
  150.6862  134.3016  159.4718 H   0  0  0  0  0  0  0  0  0  0  0  0  # atno 6908 bound_to 6896
  152.0854  134.9442  160.0623 H   0  0  0  0  0  0  0  0  0  0  0  0  # atno 6909 bound_to 6896
  146.2427  140.0089  142.8408 H   0  0  0  0  0  0  0  0  0  0  0  0  # atno 7974 bound_to 7965
  154.4004  140.1382  156.3939 H   0  0  0  0  0  0  0  0  0  0  0  0  # atno 8008 bound_to 7997
  155.7888  140.3479  155.5317 H   0  0  0  0  0  0  0  0  0  0  0  0  # atno 8009 bound_to 7997
  155.8600  140.0955  157.1610 H   0  0  0  0  0  0  0  0  0  0  0  0  # atno 8010 bound_to 7997
  140.5355  143.9767  150.6489 H   0  0  0  0  0  0  0  0  0  0  0  0  # atno 10167 bound_to 10162
  157.0103  130.6114  149.5707 H   0  0  0  0  0  0  0  0  0  0  0  0  # atno 10718 bound_to 10713
  153.6714  135.6971  153.5146 H   0  0  0  0  0  0  0  0  0  0  0  0  # atno 10763 bound_to 10752
  153.2555  135.4261  155.0840 H   0  0  0  0  0  0  0  0  0  0  0  0  # atno 10764 bound_to 10752
  154.8425  135.3542  154.6258 H   0  0  0  0  0  0  0  0  0  0  0  0  # atno 10765 bound_to 10752
  140.8306  134.2521  157.4858 H   0  0  0  0  0  0  0  0  0  0  0  0  # atno 11005 bound_to 11000
  145.1346  140.9537  143.4524 LP  0  0  0  0  0  0  0  0  0  0  0  0  # atno 17320 bound_to 7965
  145.0355  139.3305  143.6003 LP  0  0  0  0  0  0  0  0  0  0  0  0  # atno 17321 bound_to 7965
  140.3154  143.3171  152.0838 LP  0  0  0  0  0  0  0  0  0  0  0  0  # atno 17342 bound_to 10162
  139.4969  144.6609  151.6467 LP  0  0  0  0  0  0  0  0  0  0  0  0  # atno 17343 bound_to 10162
  156.0138  130.5231  150.8072 LP  0  0  0  0  0  0  0  0  0  0  0  0  # atno 17370 bound_to 10713
  157.5325  131.0937  150.9936 LP  0  0  0  0  0  0  0  0  0  0  0  0  # atno 17371 bound_to 10713
  139.8705  134.9584  156.4299 LP  0  0  0  0  0  0  0  0  0  0  0  0  # atno 17394 bound_to 11000
  140.9002  133.7785  155.9671 LP  0  0  0  0  0  0  0  0  0  0  0  0  # atno 17395 bound_to 11000

$$$$
