AV-unprocessed.smi:2441|AV-procd|sdf|9619|dock4
  -GOLD-   2272013253D 1   1.00000     0.00000
 Structure written by MMmdl.
 40 41  0  0  0  0  0  0  0  0  1 V2000
  146.7354  143.0467  154.1018 C   0  0  0  0  0  0  0  0  0  0  0  0
  147.6512  141.8359  153.8496 C   0  0  2  0  0  0  0  0  0  0  0  0
  146.8864  140.7311  153.0921 C   0  0  0  0  0  0  0  0  0  0  0  0
  147.7687  139.5038  152.8198 C   0  0  0  0  0  0  0  0  0  0  0  0
  148.3571  138.9486  154.1235 C   0  0  0  0  0  0  0  0  0  0  0  0
  149.1397  140.0335  154.8767 C   0  0  0  0  0  0  0  0  0  0  0  0
  148.2702  141.2753  155.1555 C   0  0  1  0  0  0  0  0  0  0  0  0
  149.0951  142.2874  155.8145 N   0  0  0  0  0  0  0  0  0  0  0  0
  149.6720  142.1731  157.0196 C   0  0  0  0  0  0  0  0  0  0  0  0
  149.5608  141.1776  157.7346 O   0  0  0  0  0  0  0  0  0  0  0  0
  150.3855  143.2763  157.3118 N   0  0  0  0  0  0  0  0  0  0  0  0
  151.1168  143.5840  158.4724 C   0  0  0  0  0  0  0  0  0  0  0  0
  151.1386  144.8035  159.0668 C   0  0  0  0  0  0  0  0  0  0  0  0
  151.9285  145.0367  160.2514 C   0  0  0  0  0  0  0  0  0  0  0  0
  152.6505  144.0210  160.7439 C   0  0  0  0  0  0  0  0  0  0  0  0
  152.6544  142.7535  160.1402 N   0  0  0  0  0  0  0  0  0  0  0  0
  153.4904  141.7413  160.7916 C   0  0  0  0  0  0  0  0  0  0  0  0
  151.9206  142.4730  159.0202 C   0  0  0  0  0  0  0  0  0  0  0  0
  151.9342  141.3527  158.5048 O   0  0  0  0  0  0  0  0  0  0  0  0
  145.9162  142.7875  154.7730 H   0  0  0  0  0  0  0  0  0  0  0  0
  146.2995  143.4087  153.1704 H   0  0  0  0  0  0  0  0  0  0  0  0
  147.2798  143.8790  154.5480 H   0  0  0  0  0  0  0  0  0  0  0  0
  148.4660  142.1710  153.2057 H   0  0  0  0  0  0  0  0  0  0  0  0
  146.0125  140.4273  153.6700 H   0  0  0  0  0  0  0  0  0  0  0  0
  146.5082  141.1212  152.1466 H   0  0  0  0  0  0  0  0  0  0  0  0
  147.1865  138.7317  152.3164 H   0  0  0  0  0  0  0  0  0  0  0  0
  148.5765  139.7763  152.1393 H   0  0  0  0  0  0  0  0  0  0  0  0
  147.5550  138.5682  154.7572 H   0  0  0  0  0  0  0  0  0  0  0  0
  149.0093  138.1023  153.9067 H   0  0  0  0  0  0  0  0  0  0  0  0
  149.5185  139.6254  155.8147 H   0  0  0  0  0  0  0  0  0  0  0  0
  150.0140  140.3185  154.2894 H   0  0  0  0  0  0  0  0  0  0  0  0
  147.4539  140.9679  155.8121 H   0  0  0  0  0  0  0  0  0  0  0  0
  149.2454  143.1444  155.3028 H   0  0  0  0  0  0  0  0  0  0  0  0
  150.4393  143.9775  156.5872 H   0  0  0  0  0  0  0  0  0  0  0  0
  150.5870  145.6406  158.6709 H   0  0  0  0  0  0  0  0  0  0  0  0
  151.9368  146.0055  160.7289 H   0  0  0  0  0  0  0  0  0  0  0  0
  153.2684  144.1081  161.6265 H   0  0  0  0  0  0  0  0  0  0  0  0
  153.5527  140.7952  160.2531 H   0  0  0  0  0  0  0  0  0  0  0  0
  153.1026  141.5256  161.7878 H   0  0  0  0  0  0  0  0  0  0  0  0
  154.5099  142.1128  160.9027 H   0  0  0  0  0  0  0  0  0  0  0  0
  1  2  1  0  0  0  0
  1 20  1  0  0  0  0
  1 21  1  0  0  0  0
  1 22  1  0  0  0  0
  2  7  1  0  0  0  0
  2  3  1  0  0  0  0
  2 23  1  0  0  0  0
  3  4  1  0  0  0  0
  3 24  1  0  0  0  0
  3 25  1  0  0  0  0
  4  5  1  0  0  0  0
  4 26  1  0  0  0  0
  4 27  1  0  0  0  0
  5  6  1  0  0  0  0
  5 28  1  0  0  0  0
  5 29  1  0  0  0  0
  6  7  1  0  0  0  0
  6 30  1  0  0  0  0
  6 31  1  0  0  0  0
  7  8  1  0  0  0  0
  7 32  1  0  0  0  0
  8  9  1  0  0  0  0
  8 33  1  0  0  0  0
  9 10  2  0  0  0  0
  9 11  1  0  0  0  0
 11 12  1  0  0  0  0
 11 34  1  0  0  0  0
 12 18  1  0  0  0  0
 12 13  2  0  0  0  0
 13 14  1  0  0  0  0
 13 35  1  0  0  0  0
 14 15  2  0  0  0  0
 14 36  1  0  0  0  0
 15 16  1  0  0  0  0
 15 37  1  0  0  0  0
 16 17  1  0  0  0  0
 16 18  1  0  0  0  0
 17 38  1  0  0  0  0
 17 39  1  0  0  0  0
 17 40  1  0  0  0  0
 18 19  2  0  0  0  0
M  END
> <s_m_source_file>
AV-unprocessed.smi

> <i_m_source_file_index>
2441

> <i_lp_mmshare_version>
43012

> <i_f3d_flags>
0

> <s_epik_input>
W0NIM11bQ0BASF0xW0NIMl1bQ0gyXVtDSDJdW0NIMl1bQ0BIXTFbTkhdQyg9TylbTkhdYzJbY0hdW2NIXVtjSF1uKFtDSDNdKWMyPU8=

> <s_epik_cmdline>
J2VwaWtfcHl0aG9uJywgJy1waCcsICc3LjAnLCAnLXRuJywgJzgnLCAnLW1hJywgJzIwMCcsICctbWV0YWxfYmluZGluZycsICctaW1hZScsICc8aW5maWxlLm1hZT4nLCAnLW9tYWUnLCAnPG91dGZpbGUubWFlPic=

> <r_lp_tautomer_probability>
1

> <r_epik_Ionization_Penalty>
2.64999e-05

> <r_epik_Ionization_Penalty_Charging>
5.09663e-06

> <r_epik_Ionization_Penalty_Neutral>
2.14032e-05

> <r_epik_State_Penalty>
-0

> <r_epik_Charging_Adjusted_Penalty>
5.09663e-06

> <i_epik_Tot_Q>
0

> <i_epik_Tot_abs_Q>
0

> <r_epik_Metal_State_Penalty>
-0

> <b_epik_Metal_Only>
0

> <s_lp_Force_Field>
OPLS_2005

> <r_lp_Energy>
23.8871

> <b_lp_Chiralities_Consistent>
1

> <s_lp_Variant>
AV-unprocessed.smi:2441-1

> <Gold.Version>
5.8.1

> <Gold.Id.Protein>
6NUR|6NUR_protein|mol2

> <Gold.PLP.Fitness>
44.2079

> <Gold.PLP.PLP>
-40.1213

> <Gold.PLP.part.hbond>
-2.0000

> <Gold.PLP.part.metal>
0.0000

> <Gold.PLP.part.buried>
-1.5312

> <Gold.PLP.part.nonpolar>
-37.6104

> <Gold.PLP.part.repulsive>
0.1448

> <Gold.PLP.ligand.clash>
0.0000

> <Gold.PLP.ligand.torsion>
0.3587

> <Gold.PLP.Chemscore.Hbond>
1.6000

> <Gold.PLP.Chemscore.CHOScore>
0.0000

> <Gold.PLP.Chemscore.Metal>
0.0000

> <Gold.Chemscore.Hbonds>
donor molecule, donor type, donor heavy atom, donor atom, acceptor molecule, acceptor atom, score
      L1  H     8    33       P1  8028  0.66
      L1  H    11    34       P1  8028  0.50

> <Gold.PLP.Chemscore.Internal.Correction>
0.0040

> <Gold.Rescore>
     Score         DG    S(hbond)    S(metal)    S(lipo)     H(rot)  DE(clash)    DE(int)     intcor
     14.63     -20.12       1.85        0.00      94.14       1.00       1.28       4.21       ----

> <Gold.Chemscore.Fitness>
14.6339

> <Gold.Chemscore.DG>
-20.1216

> <Gold.Chemscore.ZeroCoef>
-5.4800

> <Gold.Chemscore.Hbond>
1.8525

> <Gold.Chemscore.Metal>
0.0000

> <Gold.Chemscore.Lipo>
94.1405

> <Gold.Chemscore.Internal_Hbond>
0.0000

> <Gold.Chemscore.DEClash>
1.2825

> <Gold.Chemscore.DEInternal>
4.2053

> <Gold.Chemscore.Rot>
1.0000

> <Gold.Chemscore.Internal.Correction>
   9.000000E+99

> <Gold.Chemscore.Hbonds>
donor molecule, donor type, donor heavy atom, donor atom, acceptor molecule, acceptor atom, score
      L1  H     8    33       P1  8028  0.66
      L1  H    11    34       P1  8028  0.50

> <Gold.Chemscore.Hbond.Weighted>
-6.1872

> <Gold.Chemscore.Metal.Weighted>
-0.0000

> <Gold.Chemscore.Lipo.Weighted>
-11.0144

> <Gold.Chemscore.Internal_Hbond.Weighted>
0.0000

> <Gold.Chemscore.DEClash.Weighted>
1.2825

> <Gold.Chemscore.DEInternal.Weighted>
4.2053

> <Gold.Chemscore.Rot.Weighted>
2.5600

> <Gold.Chemscore.Internal.Correction.Weighted>
   9.000000E+99

> <Gold.Protein.RotatedTorsions>
[ 6907 6896 6895 6894 ] final   75.22 input  -60.11 | X-H torsion
[ 7974 7965 7964 7962 ] final -127.65 input  175.53 | X-H torsion
[ 8008 7997 7996 7995 ] final -157.85 input   59.86 | X-H torsion
[ 10167 10162 10161 10158 ] final  -41.75 input  -65.29 | X-H torsion
[ 10718 10713 10712 10709 ] final   64.77 input   66.30 | X-H torsion
[ 10763 10752 10751 10750 ] final   79.60 input  -60.55 | X-H torsion
[ 11005 11000 10999 10996 ] final  -35.42 input  -57.11 | X-H torsion

> <Gold.Protein.ActiveResidues>
 VAL166  LYS551  ARG553  GLY616  TRP617  ASP618  TYR619  PRO620  LYS621  CYS622 
 ASP623  PHE694  ASN695  SER759  ASP760  ASP761  ALA762  ILE779  LEU786  VAL792 
 PHE793  MET794  SER795  GLU796  ALA797  LYS798  CYS799  TRP800  GLU811  SER814 

> <Gold.Protein.RotatedAtoms>
  152.5015  134.4153  159.9462 H   0  0  0  0  0  0  0  0  0  0  0  0  # atno 6907 bound_to 6896
  151.4123  133.3717  159.2753 H   0  0  0  0  0  0  0  0  0  0  0  0  # atno 6908 bound_to 6896
  150.9282  134.8720  159.7593 H   0  0  0  0  0  0  0  0  0  0  0  0  # atno 6909 bound_to 6896
  144.9749  140.7582  143.4648 H   0  0  0  0  0  0  0  0  0  0  0  0  # atno 7974 bound_to 7965
  155.7386  140.0811  157.2256 H   0  0  0  0  0  0  0  0  0  0  0  0  # atno 8008 bound_to 7997
  154.4024  140.1582  156.2646 H   0  0  0  0  0  0  0  0  0  0  0  0  # atno 8009 bound_to 7997
  155.9041  140.3408  155.6051 H   0  0  0  0  0  0  0  0  0  0  0  0  # atno 8010 bound_to 7997
  140.6992  143.3077  151.3110 H   0  0  0  0  0  0  0  0  0  0  0  0  # atno 10167 bound_to 10162
  157.6061  130.9178  149.9888 H   0  0  0  0  0  0  0  0  0  0  0  0  # atno 10718 bound_to 10713
  153.0966  135.4833  154.8789 H   0  0  0  0  0  0  0  0  0  0  0  0  # atno 10763 bound_to 10752
  154.7331  135.3065  154.8860 H   0  0  0  0  0  0  0  0  0  0  0  0  # atno 10764 bound_to 10752
  153.9490  135.6825  153.4797 H   0  0  0  0  0  0  0  0  0  0  0  0  # atno 10765 bound_to 10752
  140.9795  133.7064  156.1659 H   0  0  0  0  0  0  0  0  0  0  0  0  # atno 11005 bound_to 11000
  145.2505  139.2034  143.4945 LP  0  0  0  0  0  0  0  0  0  0  0  0  # atno 17320 bound_to 7965
  146.3392  140.2417  142.8596 LP  0  0  0  0  0  0  0  0  0  0  0  0  # atno 17321 bound_to 7965
  139.6488  144.0400  152.2611 LP  0  0  0  0  0  0  0  0  0  0  0  0  # atno 17342 bound_to 10162
  139.9930  144.6348  150.7797 LP  0  0  0  0  0  0  0  0  0  0  0  0  # atno 17343 bound_to 10162
  156.1148  130.3648  149.9986 LP  0  0  0  0  0  0  0  0  0  0  0  0  # atno 17370 bound_to 10713
  156.8078  130.9314  151.3645 LP  0  0  0  0  0  0  0  0  0  0  0  0  # atno 17371 bound_to 10713
  140.7209  134.4360  157.5575 LP  0  0  0  0  0  0  0  0  0  0  0  0  # atno 17394 bound_to 11000
  139.8944  134.8707  156.2178 LP  0  0  0  0  0  0  0  0  0  0  0  0  # atno 17395 bound_to 11000

$$$$
