AV-unprocessed.smi:112|AV-procd|sdf|1085|dock6
  -GOLD-   2262018183D 1   1.00000     0.00000
 Structure written by MMmdl.
 54 57  0  0  0  0  0  0  0  0  3 V2000
  152.1991  144.5530  160.8770 C   0  0  0  0  0  0  0  0  0  0  0  0
  152.1264  143.2341  160.1234 C   0  0  0  0  0  0  0  0  0  0  0  0
  152.8926  142.1709  160.4599 C   0  0  0  0  0  0  0  0  0  0  0  0
  152.8482  140.9576  159.7967 N   0  0  0  0  0  0  0  0  0  0  0  0
  153.6965  139.7785  160.2203 C   0  0  2  0  0  0  0  0  0  0  0  0
  154.5358  140.1410  161.4555 C   0  0  0  0  0  0  0  0  0  0  0  0
  155.8792  139.5197  161.1291 C   0  0  2  0  0  0  0  0  0  0  0  0
  156.9282  140.2125  161.7740 O   0  0  0  0  0  0  0  0  0  0  0  0
  155.9177  139.6835  159.6083 C   0  0  1  0  0  0  0  0  0  0  0  0
  156.9065  138.7975  158.8313 C   0  0  0  0  0  0  0  0  0  0  0  0
  157.0077  139.1824  157.4764 O   0  0  0  0  0  0  0  0  0  0  0  0
  154.5799  139.4364  159.1901 O   0  0  0  0  0  0  0  0  0  0  0  0
  151.9557  140.7836  158.7208 C   0  0  0  0  0  0  0  0  0  0  0  0
  151.8762  139.6996  158.1379 O   0  0  0  0  0  0  0  0  0  0  0  0
  151.1480  141.8775  158.3377 N   0  0  0  0  0  0  0  0  0  0  0  0
  150.1977  141.6931  157.2175 C   0  0  0  0  0  0  0  0  0  0  0  0
  148.7579  142.1498  157.5421 C   0  0  0  0  0  0  0  0  0  0  0  0
  148.4854  142.4792  158.6971 O   0  0  0  0  0  0  0  0  0  0  0  0
  147.8560  142.1737  156.5293 N   0  0  0  0  0  0  0  0  0  0  0  0
  148.1797  141.7936  155.1432 C   0  0  0  0  0  0  0  0  0  0  0  0
  146.8886  142.0027  154.3225 C   0  0  0  0  0  0  0  0  0  0  0  0
  145.9033  142.4668  155.3536 C   0  0  0  0  0  0  0  0  0  0  0  0
  144.5520  142.7853  155.1385 C   0  0  0  0  0  0  0  0  0  0  0  0
  143.7658  143.2123  156.2372 C   0  0  0  0  0  0  0  0  0  0  0  0
  142.3425  143.5566  156.0485 N   0  3  0  0  0  0  0  0  0  0  0  0
  141.8237  143.3139  154.9636 O   0  0  0  0  0  0  0  0  0  0  0  0
  141.7403  144.0705  156.9858 O   0  5  0  0  0  0  0  0  0  0  0  0
  144.3663  143.3045  157.5210 C   0  0  0  0  0  0  0  0  0  0  0  0
  145.7261  142.9793  157.7195 C   0  0  0  0  0  0  0  0  0  0  0  0
  146.4906  142.5570  156.6102 C   0  0  0  0  0  0  0  0  0  0  0  0
  151.1849  143.1259  159.0061 C   0  0  0  0  0  0  0  0  0  0  0  0
  150.4482  144.0489  158.6538 O   0  0  0  0  0  0  0  0  0  0  0  0
  152.9425  144.5253  161.6742 H   0  0  0  0  0  0  0  0  0  0  0  0
  151.2344  144.7862  161.3288 H   0  0  0  0  0  0  0  0  0  0  0  0
  152.4675  145.3658  160.2013 H   0  0  0  0  0  0  0  0  0  0  0  0
  153.5652  142.2889  161.2956 H   0  0  0  0  0  0  0  0  0  0  0  0
  153.0126  138.9428  160.3779 H   0  0  0  0  0  0  0  0  0  0  0  0
  154.6201  141.2271  161.5320 H   0  0  0  0  0  0  0  0  0  0  0  0
  154.0826  139.7562  162.3695 H   0  0  0  0  0  0  0  0  0  0  0  0
  155.8796  138.4698  161.4235 H   0  0  0  0  0  0  0  0  0  0  0  0
  157.7403  139.9989  161.3403 H   0  0  0  0  0  0  0  0  0  0  0  0
  156.1301  140.7275  159.3700 H   0  0  0  0  0  0  0  0  0  0  0  0
  157.8928  138.8249  159.2951 H   0  0  0  0  0  0  0  0  0  0  0  0
  156.5700  137.7608  158.8587 H   0  0  0  0  0  0  0  0  0  0  0  0
  157.3750  138.4617  156.9875 H   0  0  0  0  0  0  0  0  0  0  0  0
  150.5379  142.2239  156.3272 H   0  0  0  0  0  0  0  0  0  0  0  0
  150.1866  140.6453  156.9150 H   0  0  0  0  0  0  0  0  0  0  0  0
  148.9892  142.4079  154.7466 H   0  0  0  0  0  0  0  0  0  0  0  0
  148.4870  140.7479  155.0957 H   0  0  0  0  0  0  0  0  0  0  0  0
  147.0170  142.7629  153.5513 H   0  0  0  0  0  0  0  0  0  0  0  0
  146.5484  141.0783  153.8546 H   0  0  0  0  0  0  0  0  0  0  0  0
  144.1339  142.7011  154.1461 H   0  0  0  0  0  0  0  0  0  0  0  0
  143.7859  143.6272  158.3729 H   0  0  0  0  0  0  0  0  0  0  0  0
  146.1424  143.0613  158.7111 H   0  0  0  0  0  0  0  0  0  0  0  0
  1  2  1  0  0  0  0
  1 33  1  0  0  0  0
  1 34  1  0  0  0  0
  1 35  1  0  0  0  0
  2 31  1  0  0  0  0
  2  3  2  0  0  0  0
  3  4  1  0  0  0  0
  3 36  1  0  0  0  0
  4  5  1  0  0  0  0
  4 13  1  0  0  0  0
  5 12  1  0  0  0  0
  5  6  1  0  0  0  0
  5 37  1  0  0  0  0
  6  7  1  0  0  0  0
  6 38  1  0  0  0  0
  6 39  1  0  0  0  0
  7  8  1  0  0  0  0
  7  9  1  0  0  0  0
  7 40  1  0  0  0  0
  8 41  1  0  0  0  0
  9 10  1  0  0  0  0
  9 12  1  0  0  0  0
  9 42  1  0  0  0  0
 10 11  1  0  0  0  0
 10 43  1  0  0  0  0
 10 44  1  0  0  0  0
 11 45  1  0  0  0  0
 13 14  2  0  0  0  0
 13 15  1  0  0  0  0
 15 16  1  0  0  0  0
 15 31  1  0  0  0  0
 16 17  1  0  0  0  0
 16 46  1  0  0  0  0
 16 47  1  0  0  0  0
 17 18  2  0  0  0  0
 17 19  1  0  0  0  0
 19 30  1  0  0  0  0
 19 20  1  0  0  0  0
 20 21  1  0  0  0  0
 20 48  1  0  0  0  0
 20 49  1  0  0  0  0
 21 22  1  0  0  0  0
 21 50  1  0  0  0  0
 21 51  1  0  0  0  0
 22 30  2  0  0  0  0
 22 23  1  0  0  0  0
 23 24  2  0  0  0  0
 23 52  1  0  0  0  0
 24 25  1  0  0  0  0
 24 28  1  0  0  0  0
 25 26  2  0  0  0  0
 25 27  1  0  0  0  0
 28 29  2  0  0  0  0
 28 53  1  0  0  0  0
 29 30  1  0  0  0  0
 29 54  1  0  0  0  0
 31 32  2  0  0  0  0
M  CHG  1  25   1
M  CHG  1  27  -1
M  END
> <s_m_source_file>
AV-unprocessed.smi

> <i_m_source_file_index>
112

> <i_lp_mmshare_version>
43012

> <i_f3d_flags>
0

> <s_epik_input>
W09IXVtDSDJdW0NAQEhdKE8xKVtDQEhdKFtPSF0pW0NIMl1bQ0BIXTFuKFtjSF1jMltDSDNdKWMoPU8pbihjMj1PKVtDSDJdQyg9TylOKFtDSDJdW0NIMl0zKWMoYzM0KVtjSF1bY0hdYyhbY0hdNClbTitdKD1PKVtPLV0=

> <s_epik_cmdline>
J2VwaWtfcHl0aG9uJywgJy1waCcsICc3LjAnLCAnLXRuJywgJzgnLCAnLW1hJywgJzIwMCcsICctbWV0YWxfYmluZGluZycsICctaW1hZScsICc8aW5maWxlLm1hZT4nLCAnLW9tYWUnLCAnPG91dGZpbGUubWFlPic=

> <r_lp_tautomer_probability>
1

> <r_epik_Ionization_Penalty>
2.5696e-07

> <r_epik_Ionization_Penalty_Charging>
1.04886e-08

> <r_epik_Ionization_Penalty_Neutral>
2.46472e-07

> <r_epik_State_Penalty>
-0

> <r_epik_Charging_Adjusted_Penalty>
1.04886e-08

> <i_epik_Tot_Q>
0

> <i_epik_Tot_abs_Q>
2

> <r_epik_Metal_State_Penalty>
-0

> <b_epik_Metal_Only>
0

> <s_epik_Chemistry_Notes>
This compound contains an acetal/aminal-like group ( X-CH(R)-Y where X, Y are N, S, or O) that may be acid/base labile, releasing an aldehyde.

> <s_lp_Force_Field>
OPLS_2005

> <r_lp_Energy>
57.8842

> <b_lp_Chiralities_Consistent>
1

> <s_lp_Variant>
AV-unprocessed.smi:112-3

> <Gold.Version>
5.8.1

> <Gold.Id.Protein>
6NUR|6NUR_protein|mol2

> <Gold.PLP.Fitness>
51.2316

> <Gold.PLP.PLP>
-47.0773

> <Gold.PLP.part.hbond>
-4.6714

> <Gold.PLP.part.metal>
0.0000

> <Gold.PLP.part.buried>
-4.7041

> <Gold.PLP.part.nonpolar>
-38.8562

> <Gold.PLP.part.repulsive>
1.6008

> <Gold.PLP.ligand.clash>
0.0000

> <Gold.PLP.ligand.torsion>
0.2604

> <Gold.PLP.Chemscore.Hbond>
1.5520

> <Gold.PLP.Chemscore.CHOScore>
0.0000

> <Gold.PLP.Chemscore.Metal>
0.0000

> <Gold.Chemscore.Hbonds>
donor molecule, donor type, donor heavy atom, donor atom, acceptor molecule, acceptor atom, score
      P1  H  7997  8008       L1    11  0.38
      P1  H  7997  8009       L1    12  0.69

> <Gold.PLP.Chemscore.Internal.Correction>
0.0190

> <Gold.Rescore>
     Score         DG    S(hbond)    S(metal)    S(lipo)     H(rot)  DE(clash)    DE(int)     intcor
      2.58     -10.16       0.88        0.00      86.74       3.29       1.69       5.89       ----

> <Gold.Chemscore.Fitness>
2.5810

> <Gold.Chemscore.DG>
-10.1558

> <Gold.Chemscore.ZeroCoef>
-5.4800

> <Gold.Chemscore.Hbond>
0.8842

> <Gold.Chemscore.Metal>
0.0000

> <Gold.Chemscore.Lipo>
86.7436

> <Gold.Chemscore.Internal_Hbond>
0.0000

> <Gold.Chemscore.DEClash>
1.6878

> <Gold.Chemscore.DEInternal>
5.8870

> <Gold.Chemscore.Rot>
3.2916

> <Gold.Chemscore.Internal.Correction>
   9.000000E+99

> <Gold.Chemscore.Hbonds>
donor molecule, donor type, donor heavy atom, donor atom, acceptor molecule, acceptor atom, score
      P1  H  7997  8008       L1    11  0.21
      P1  H  7997  8009       L1    12  0.07

> <Gold.Chemscore.Hbond.Weighted>
-2.9533

> <Gold.Chemscore.Metal.Weighted>
-0.0000

> <Gold.Chemscore.Lipo.Weighted>
-10.1490

> <Gold.Chemscore.Internal_Hbond.Weighted>
0.0000

> <Gold.Chemscore.DEClash.Weighted>
1.6878

> <Gold.Chemscore.DEInternal.Weighted>
5.8870

> <Gold.Chemscore.Rot.Weighted>
8.4265

> <Gold.Chemscore.Internal.Correction.Weighted>
   9.000000E+99

> <Gold.Protein.RotatedTorsions>
[ 6907 6896 6895 6894 ] final -112.09 input  -60.11 | X-H torsion
[ 7974 7965 7964 7962 ] final -139.31 input  175.53 | X-H torsion
[ 8008 7997 7996 7995 ] final  132.64 input   59.86 | X-H torsion
[ 10167 10162 10161 10158 ] final   52.50 input  -65.29 | X-H torsion
[ 10718 10713 10712 10709 ] final  110.36 input   66.30 | X-H torsion
[ 10763 10752 10751 10750 ] final  -42.30 input  -60.55 | X-H torsion
[ 11005 11000 10999 10996 ] final   49.41 input  -57.11 | X-H torsion

> <Gold.Protein.ActiveResidues>
 VAL166  LYS551  ARG553  GLY616  TRP617  ASP618  TYR619  PRO620  LYS621  CYS622 
 ASP623  PHE694  ASN695  SER759  ASP760  ASP761  ALA762  ILE779  LEU786  VAL792 
 PHE793  MET794  SER795  GLU796  ALA797  LYS798  CYS799  TRP800  GLU811  SER814 

> <Gold.Protein.RotatedAtoms>
  150.7735  133.9140  159.3377 H   0  0  0  0  0  0  0  0  0  0  0  0  # atno 6907 bound_to 6896
  151.7020  135.0926  160.0262 H   0  0  0  0  0  0  0  0  0  0  0  0  # atno 6908 bound_to 6896
  152.3761  133.6445  159.6160 H   0  0  0  0  0  0  0  0  0  0  0  0  # atno 6909 bound_to 6896
  144.8687  140.6334  143.5281 H   0  0  0  0  0  0  0  0  0  0  0  0  # atno 7974 bound_to 7965
  156.2984  140.2541  156.3122 H   0  0  0  0  0  0  0  0  0  0  0  0  # atno 8008 bound_to 7997
  154.9315  140.0398  157.2069 H   0  0  0  0  0  0  0  0  0  0  0  0  # atno 8009 bound_to 7997
  154.8213  140.2860  155.5789 H   0  0  0  0  0  0  0  0  0  0  0  0  # atno 8010 bound_to 7997
  140.2507  144.3482  150.6349 H   0  0  0  0  0  0  0  0  0  0  0  0  # atno 10167 bound_to 10162
  157.6498  131.0931  150.6590 H   0  0  0  0  0  0  0  0  0  0  0  0  # atno 10718 bound_to 10713
  153.9768  135.6722  153.4748 H   0  0  0  0  0  0  0  0  0  0  0  0  # atno 10763 bound_to 10752
  153.0767  135.4945  154.8415 H   0  0  0  0  0  0  0  0  0  0  0  0  # atno 10764 bound_to 10752
  154.7187  135.3112  154.9043 H   0  0  0  0  0  0  0  0  0  0  0  0  # atno 10765 bound_to 10752
  140.1106  134.4960  155.8681 H   0  0  0  0  0  0  0  0  0  0  0  0  # atno 11005 bound_to 11000
  145.4171  139.1570  143.4094 LP  0  0  0  0  0  0  0  0  0  0  0  0  # atno 17320 bound_to 7965
  146.2915  140.4279  142.8738 LP  0  0  0  0  0  0  0  0  0  0  0  0  # atno 17321 bound_to 7965
  140.6043  143.2167  151.7012 LP  0  0  0  0  0  0  0  0  0  0  0  0  # atno 17342 bound_to 10162
  139.5047  144.3744  152.0439 LP  0  0  0  0  0  0  0  0  0  0  0  0  # atno 17343 bound_to 10162
  156.6902  130.4593  149.5602 LP  0  0  0  0  0  0  0  0  0  0  0  0  # atno 17370 bound_to 10713
  156.1867  130.6533  151.1014 LP  0  0  0  0  0  0  0  0  0  0  0  0  # atno 17371 bound_to 10713
  141.2129  133.6726  156.6697 LP  0  0  0  0  0  0  0  0  0  0  0  0  # atno 17394 bound_to 11000
  140.3096  134.8097  157.4165 LP  0  0  0  0  0  0  0  0  0  0  0  0  # atno 17395 bound_to 11000

$$$$
