AV-unprocessed.smi:158|AV-procd|sdf|1327|dock1
  -GOLD-   2262019 23D 1   1.00000     0.00000
 Structure written by MMmdl.
 31 33  0  0  0  0  0  0  0  0  1 V2000
  154.7862  136.4360  157.4541 N   0  0  0  0  0  0  0  0  0  0  0  0
  153.9090  137.4097  157.7362 C   0  0  0  0  0  0  0  0  0  0  0  0
  154.2293  138.3050  158.6986 N   0  0  0  0  0  0  0  0  0  0  0  0
  153.3828  139.2943  159.0070 C   0  0  0  0  0  0  0  0  0  0  0  0
  153.8858  140.3796  160.2489 Cl  0  0  0  0  0  0  0  0  0  0  0  0
  152.1879  139.5369  158.4607 N   0  0  0  0  0  0  0  0  0  0  0  0
  151.8527  138.6340  157.4935 C   0  0  0  0  0  0  0  0  0  0  0  0
  152.6644  137.5449  157.0736 C   0  0  0  0  0  0  0  0  0  0  0  0
  152.0257  136.8360  156.0670 N   0  0  0  0  0  0  0  0  0  0  0  0
  150.8979  137.4732  155.9052 C   0  0  0  0  0  0  0  0  0  0  0  0
  150.7026  138.5632  156.7266 N   0  0  0  0  0  0  0  0  0  0  0  0
  149.4979  139.4630  156.7440 C   0  0  2  0  0  0  0  0  0  0  0  0
  148.4525  138.8484  156.0468 O   0  0  0  0  0  0  0  0  0  0  0  0
  148.0446  139.6541  154.9390 C   0  0  2  0  0  0  0  0  0  0  0  0
  147.5100  138.7998  153.7751 C   0  0  0  0  0  0  0  0  0  0  0  0
  147.2687  139.6112  152.6450 O   0  0  0  0  0  0  0  0  0  0  0  0
  149.2341  140.5790  154.6394 C   0  0  2  0  0  0  0  0  0  0  0  0
  150.1846  139.9652  153.7879 O   0  0  0  0  0  0  0  0  0  0  0  0
  149.7792  140.7990  156.0384 C   0  0  2  0  0  0  0  0  0  0  0  0
  151.0638  141.1614  156.0810 F   0  0  0  0  0  0  0  0  0  0  0  0
  149.2622  139.5711  157.8033 H   0  0  0  0  0  0  0  0  0  0  0  0
  147.2274  140.2722  155.3157 H   0  0  0  0  0  0  0  0  0  0  0  0
  148.9139  141.5135  154.1773 H   0  0  0  0  0  0  0  0  0  0  0  0
  149.2034  141.5752  156.5440 H   0  0  0  0  0  0  0  0  0  0  0  0
  154.5693  135.7564  156.7391 H   0  0  0  0  0  0  0  0  0  0  0  0
  155.6600  136.3823  157.9573 H   0  0  0  0  0  0  0  0  0  0  0  0
  150.1633  137.1589  155.1780 H   0  0  0  0  0  0  0  0  0  0  0  0
  148.1955  137.9957  153.5091 H   0  0  0  0  0  0  0  0  0  0  0  0
  146.5695  138.3301  154.0636 H   0  0  0  0  0  0  0  0  0  0  0  0
  148.0820  139.7216  152.1762 H   0  0  0  0  0  0  0  0  0  0  0  0
  149.7881  139.8372  152.9397 H   0  0  0  0  0  0  0  0  0  0  0  0
  1  2  1  0  0  0  0
  1 25  1  0  0  0  0
  1 26  1  0  0  0  0
  2  8  1  0  0  0  0
  2  3  2  0  0  0  0
  3  4  1  0  0  0  0
  4  5  1  0  0  0  0
  4  6  2  0  0  0  0
  6  7  1  0  0  0  0
  7 11  1  0  0  0  0
  7  8  2  0  0  0  0
  8  9  1  0  0  0  0
  9 10  2  0  0  0  0
 10 11  1  0  0  0  0
 10 27  1  0  0  0  0
 11 12  1  0  0  0  0
 12 21  1  0  0  0  0
 12 19  1  0  0  0  0
 12 13  1  0  0  0  0
 13 14  1  0  0  0  0
 14 22  1  0  0  0  0
 14 15  1  0  0  0  0
 14 17  1  0  0  0  0
 15 16  1  0  0  0  0
 15 28  1  0  0  0  0
 15 29  1  0  0  0  0
 16 30  1  0  0  0  0
 17 23  1  0  0  0  0
 17 18  1  0  0  0  0
 17 19  1  0  0  0  0
 18 31  1  0  0  0  0
 19 24  1  0  0  0  0
 19 20  1  0  0  0  0
M  END
> <s_m_source_file>
AV-unprocessed.smi

> <i_m_source_file_index>
158

> <i_lp_mmshare_version>
43012

> <i_f3d_flags>
0

> <s_epik_input>
Q2xjKG4xKW5jKFtOSDJdKWMoYzEyKW5bY0hdbjJbQ0BASF0zT1tDQEhdKFtDSDJdW09IXSlbQ0BASF0oW09IXSlbQ0BASF0zRg==

> <s_epik_cmdline>
J2VwaWtfcHl0aG9uJywgJy1waCcsICc3LjAnLCAnLXRuJywgJzgnLCAnLW1hJywgJzIwMCcsICctbWV0YWxfYmluZGluZycsICctaW1hZScsICc8aW5maWxlLm1hZT4nLCAnLW9tYWUnLCAnPG91dGZpbGUubWFlPic=

> <r_lp_tautomer_probability>
1

> <r_epik_Ionization_Penalty>
6.51543e-05

> <r_epik_Ionization_Penalty_Charging>
0

> <r_epik_Ionization_Penalty_Neutral>
6.51543e-05

> <r_epik_State_Penalty>
-0

> <r_epik_Charging_Adjusted_Penalty>
0

> <i_epik_Tot_Q>
0

> <i_epik_Tot_abs_Q>
0

> <r_epik_Metal_State_Penalty>
-0

> <b_epik_Metal_Only>
0

> <s_epik_Chemistry_Notes>
This compound contains an acetal/aminal-like group ( X-CH(R)-Y where X, Y are N, S, or O) that may be acid/base labile, releasing an aldehyde.

> <s_lp_Force_Field>
OPLS_2005

> <r_lp_Energy>
41.2985

> <b_lp_Chiralities_Consistent>
1

> <s_lp_Variant>
AV-unprocessed.smi:158-5

> <Gold.Version>
5.8.1

> <Gold.Id.Protein>
6NUR|6NUR_protein|mol2

> <Gold.PLP.Fitness>
32.7364

> <Gold.PLP.PLP>
-21.3811

> <Gold.PLP.part.hbond>
-4.1104

> <Gold.PLP.part.metal>
0.0000

> <Gold.PLP.part.buried>
-4.6073

> <Gold.PLP.part.nonpolar>
-13.6877

> <Gold.PLP.part.repulsive>
0.1771

> <Gold.PLP.ligand.clash>
0.0000

> <Gold.PLP.ligand.torsion>
0.4284

> <Gold.PLP.Chemscore.Hbond>
3.7957

> <Gold.PLP.Chemscore.CHOScore>
0.0000

> <Gold.PLP.Chemscore.Metal>
0.0000

> <Gold.Chemscore.Hbonds>
donor molecule, donor type, donor heavy atom, donor atom, acceptor molecule, acceptor atom, score
      L1  H    16    30       P1  7957  1.00
      L1  H    18    31       P1  7957  1.00
      P1  H  7989  7998       L1    18  0.88
      P1  H 10752 10763       L1     9  0.84

> <Gold.PLP.Chemscore.Internal.Correction>
0.8248

> <Gold.Rescore>
     Score         DG    S(hbond)    S(metal)    S(lipo)     H(rot)  DE(clash)    DE(int)     intcor
     12.29     -12.99       3.45        0.00      34.16       3.12       0.02       0.69       ----

> <Gold.Chemscore.Fitness>
12.2859

> <Gold.Chemscore.DG>
-12.9885

> <Gold.Chemscore.ZeroCoef>
-5.4800

> <Gold.Chemscore.Hbond>
3.4450

> <Gold.Chemscore.Metal>
0.0000

> <Gold.Chemscore.Lipo>
34.1622

> <Gold.Chemscore.Internal_Hbond>
0.0000

> <Gold.Chemscore.DEClash>
0.0174

> <Gold.Chemscore.DEInternal>
0.6852

> <Gold.Chemscore.Rot>
3.1230

> <Gold.Chemscore.Internal.Correction>
   9.000000E+99

> <Gold.Chemscore.Hbonds>
donor molecule, donor type, donor heavy atom, donor atom, acceptor molecule, acceptor atom, score
      L1  H    16    30       P1  7957  1.00
      L1  H    18    31       P1  7957  0.99
      P1  H  7989  7998       L1    18  0.36
      P1  H 10752 10763       L1     9  0.79

> <Gold.Chemscore.Hbond.Weighted>
-11.5065

> <Gold.Chemscore.Metal.Weighted>
-0.0000

> <Gold.Chemscore.Lipo.Weighted>
-3.9970

> <Gold.Chemscore.Internal_Hbond.Weighted>
0.0000

> <Gold.Chemscore.DEClash.Weighted>
0.0174

> <Gold.Chemscore.DEInternal.Weighted>
0.6852

> <Gold.Chemscore.Rot.Weighted>
7.9950

> <Gold.Chemscore.Internal.Correction.Weighted>
   9.000000E+99

> <Gold.Protein.RotatedTorsions>
[ 6907 6896 6895 6894 ] final -105.44 input  -60.11 | X-H torsion
[ 7974 7965 7964 7962 ] final   98.55 input  175.53 | X-H torsion
[ 8008 7997 7996 7995 ] final  132.80 input   59.86 | X-H torsion
[ 10167 10162 10161 10158 ] final  -40.06 input  -65.29 | X-H torsion
[ 10718 10713 10712 10709 ] final   44.38 input   66.30 | X-H torsion
[ 10763 10752 10751 10750 ] final   66.63 input  -60.55 | X-H torsion
[ 11005 11000 10999 10996 ] final -110.93 input  -57.11 | X-H torsion

> <Gold.Protein.ActiveResidues>
 VAL166  LYS551  ARG553  GLY616  TRP617  ASP618  TYR619  PRO620  LYS621  CYS622 
 ASP623  PHE694  ASN695  SER759  ASP760  ASP761  ALA762  ILE779  LEU786  VAL792 
 PHE793  MET794  SER795  GLU796  ALA797  LYS798  CYS799  TRP800  GLU811  SER814 

> <Gold.Protein.RotatedAtoms>
  150.7337  134.0126  159.3674 H   0  0  0  0  0  0  0  0  0  0  0  0  # atno 6907 bound_to 6896
  151.8086  135.0685  160.0419 H   0  0  0  0  0  0  0  0  0  0  0  0  # atno 6908 bound_to 6896
  152.3089  133.5695  159.5704 H   0  0  0  0  0  0  0  0  0  0  0  0  # atno 6909 bound_to 6896
  145.4107  139.2334  143.3249 H   0  0  0  0  0  0  0  0  0  0  0  0  # atno 7974 bound_to 7965
  156.2986  140.2537  156.3149 H   0  0  0  0  0  0  0  0  0  0  0  0  # atno 8008 bound_to 7997
  154.9290  140.0399  157.2057 H   0  0  0  0  0  0  0  0  0  0  0  0  # atno 8009 bound_to 7997
  154.8236  140.2864  155.5774 H   0  0  0  0  0  0  0  0  0  0  0  0  # atno 8010 bound_to 7997
  140.7045  143.3176  151.2871 H   0  0  0  0  0  0  0  0  0  0  0  0  # atno 10167 bound_to 10162
  157.4261  130.7998  149.7560 H   0  0  0  0  0  0  0  0  0  0  0  0  # atno 10718 bound_to 10713
  153.0149  135.5313  154.6854 H   0  0  0  0  0  0  0  0  0  0  0  0  # atno 10763 bound_to 10752
  154.6003  135.2867  155.0545 H   0  0  0  0  0  0  0  0  0  0  0  0  # atno 10764 bound_to 10752
  154.1604  135.6548  153.5037 H   0  0  0  0  0  0  0  0  0  0  0  0  # atno 10765 bound_to 10752
  141.0763  133.9295  157.2382 H   0  0  0  0  0  0  0  0  0  0  0  0  # atno 11005 bound_to 11000
  146.2706  140.4818  142.8816 LP  0  0  0  0  0  0  0  0  0  0  0  0  # atno 17320 bound_to 7965
  144.8311  140.6708  143.6290 LP  0  0  0  0  0  0  0  0  0  0  0  0  # atno 17321 bound_to 7965
  139.6620  144.0173  152.2698 LP  0  0  0  0  0  0  0  0  0  0  0  0  # atno 17342 bound_to 10162
  139.9743  144.6472  150.7960 LP  0  0  0  0  0  0  0  0  0  0  0  0  # atno 17343 bound_to 10162
  155.9897  130.3950  150.3061 LP  0  0  0  0  0  0  0  0  0  0  0  0  # atno 17370 bound_to 10713
  157.1213  131.0247  151.3008 LP  0  0  0  0  0  0  0  0  0  0  0  0  # atno 17371 bound_to 10713
  139.9576  135.0162  156.9171 LP  0  0  0  0  0  0  0  0  0  0  0  0  # atno 17394 bound_to 11000
  140.5565  134.0576  155.7385 LP  0  0  0  0  0  0  0  0  0  0  0  0  # atno 17395 bound_to 11000

$$$$
