AV-unprocessed.smi:2531|AV-procd|sdf|9966|dock10
  -GOLD-   2272014 13D 1   1.00000     0.00000
 Structure written by MMmdl.
 45 47  0  0  0  0  0  0  0  0  2 V2000
  147.9118  134.7949  154.2579 O   0  0  0  0  0  0  0  0  0  0  0  0
  149.0786  134.7153  154.6449 C   0  0  0  0  0  0  0  0  0  0  0  0
  149.9418  133.4863  154.2915 C   0  0  0  0  0  0  0  0  0  0  0  0
  149.2538  132.5512  153.2709 C   0  0  0  0  0  0  0  0  0  0  0  0
  148.8574  131.2702  154.0219 C   0  0  0  0  0  0  0  0  0  0  0  0
  149.0779  131.5619  155.5060 C   0  0  0  0  0  0  0  0  0  0  0  0
  150.1957  132.6030  155.5245 C   0  0  0  0  0  0  0  0  0  0  0  0
  149.6335  135.6828  155.4875 N   0  0  0  0  0  0  0  0  0  0  0  0
  151.0739  135.8852  155.5421 C   0  0  0  0  0  0  0  0  0  0  0  0
  150.7477  137.3399  155.8960 C   0  0  0  0  0  0  0  0  0  0  0  0
  151.7786  138.5529  154.9543 S   0  0  0  0  0  0  0  0  0  0  0  0
  152.8153  137.7497  154.2859 O   0  0  0  0  0  0  0  0  0  0  0  0
  150.8673  139.3125  154.0828 O   0  0  0  0  0  0  0  0  0  0  0  0
  152.3591  139.4526  156.1736 N   0  5  0  0  0  0  0  0  0  0  0  0
  151.5142  140.4659  156.7883 C   0  0  0  0  0  0  0  0  0  0  0  0
  152.0678  140.8858  158.1719 C   0  0  0  0  0  0  0  0  0  0  0  0
  151.7968  142.3307  158.5830 C   0  0  0  0  0  0  0  0  0  0  0  0
  152.2540  142.8192  159.8282 C   0  0  0  0  0  0  0  0  0  0  0  0
  151.9901  144.1602  160.1651 C   0  0  0  0  0  0  0  0  0  0  0  0
  151.2698  144.9587  159.2566 C   0  0  0  0  0  0  0  0  0  0  0  0
  150.8433  144.3772  158.0464 C   0  0  0  0  0  0  0  0  0  0  0  0
  151.0901  143.0924  157.7127 N   0  0  0  0  0  0  0  0  0  0  0  0
  149.3416  137.1009  155.3289 C   0  0  0  0  0  0  0  0  0  0  0  0
  150.8908  133.8284  153.8770 H   0  0  0  0  0  0  0  0  0  0  0  0
  148.3784  133.0112  152.8099 H   0  0  0  0  0  0  0  0  0  0  0  0
  149.9364  132.3090  152.4556 H   0  0  0  0  0  0  0  0  0  0  0  0
  147.8305  130.9681  153.8138 H   0  0  0  0  0  0  0  0  0  0  0  0
  149.5076  130.4516  153.7108 H   0  0  0  0  0  0  0  0  0  0  0  0
  148.1706  131.9863  155.9376 H   0  0  0  0  0  0  0  0  0  0  0  0
  149.3290  130.6674  156.0766 H   0  0  0  0  0  0  0  0  0  0  0  0
  151.1628  132.1087  155.4248 H   0  0  0  0  0  0  0  0  0  0  0  0
  150.2141  133.1597  156.4627 H   0  0  0  0  0  0  0  0  0  0  0  0
  151.5717  135.3267  156.3349 H   0  0  0  0  0  0  0  0  0  0  0  0
  151.5671  135.7721  154.5742 H   0  0  0  0  0  0  0  0  0  0  0  0
  150.7766  137.5320  156.9696 H   0  0  0  0  0  0  0  0  0  0  0  0
  151.3947  141.3497  156.1606 H   0  0  0  0  0  0  0  0  0  0  0  0
  150.5051  140.0793  156.9323 H   0  0  0  0  0  0  0  0  0  0  0  0
  151.6380  140.2342  158.9335 H   0  0  0  0  0  0  0  0  0  0  0  0
  153.1429  140.7043  158.2071 H   0  0  0  0  0  0  0  0  0  0  0  0
  152.8118  142.1844  160.5009 H   0  0  0  0  0  0  0  0  0  0  0  0
  152.3359  144.5690  161.1028 H   0  0  0  0  0  0  0  0  0  0  0  0
  151.0506  145.9919  159.4807 H   0  0  0  0  0  0  0  0  0  0  0  0
  150.2860  144.9594  157.3275 H   0  0  0  0  0  0  0  0  0  0  0  0
  149.2118  137.4046  154.2899 H   0  0  0  0  0  0  0  0  0  0  0  0
  148.5353  137.4590  155.9692 H   0  0  0  0  0  0  0  0  0  0  0  0
  1  2  2  0  0  0  0
  2  3  1  0  0  0  0
  2  8  1  0  0  0  0
  3  7  1  0  0  0  0
  3  4  1  0  0  0  0
  3 24  1  0  0  0  0
  4  5  1  0  0  0  0
  4 25  1  0  0  0  0
  4 26  1  0  0  0  0
  5  6  1  0  0  0  0
  5 27  1  0  0  0  0
  5 28  1  0  0  0  0
  6  7  1  0  0  0  0
  6 29  1  0  0  0  0
  6 30  1  0  0  0  0
  7 31  1  0  0  0  0
  7 32  1  0  0  0  0
  8 23  1  0  0  0  0
  8  9  1  0  0  0  0
  9 10  1  0  0  0  0
  9 33  1  0  0  0  0
  9 34  1  0  0  0  0
 10 11  1  0  0  0  0
 10 23  1  0  0  0  0
 10 35  1  0  0  0  0
 11 12  2  0  0  0  0
 11 13  2  0  0  0  0
 11 14  1  0  0  0  0
 14 15  1  0  0  0  0
 15 16  1  0  0  0  0
 15 36  1  0  0  0  0
 15 37  1  0  0  0  0
 16 17  1  0  0  0  0
 16 38  1  0  0  0  0
 16 39  1  0  0  0  0
 17 22  1  0  0  0  0
 17 18  2  0  0  0  0
 18 19  1  0  0  0  0
 18 40  1  0  0  0  0
 19 20  2  0  0  0  0
 19 41  1  0  0  0  0
 20 21  1  0  0  0  0
 20 42  1  0  0  0  0
 21 22  2  0  0  0  0
 21 43  1  0  0  0  0
 23 44  1  0  0  0  0
 23 45  1  0  0  0  0
M  CHG  1  14  -1
M  END
> <s_m_source_file>
AV-unprocessed.smi

> <i_m_source_file_index>
2531

> <i_lp_mmshare_version>
43012

> <i_f3d_flags>
0

> <s_epik_input>
W0NIMl0xW0NIMl1bQ0gyXVtDSDJdW0NIXTFDKD1PKU4yW0NIMl1bQ0hdKFtDSDJdMilTKD1PKSg9TylbTkhdW0NIMl1bQ0gyXWMzW2NIXVtjSF1bY0hdW2NIXW4z

> <s_epik_cmdline>
J2VwaWtfcHl0aG9uJywgJy1waCcsICc3LjAnLCAnLXRuJywgJzgnLCAnLW1hJywgJzIwMCcsICctbWV0YWxfYmluZGluZycsICctaW1hZScsICc8aW5maWxlLm1hZT4nLCAnLW9tYWUnLCAnPG91dGZpbGUubWFlPic=

> <r_epik_Ionization_Penalty>
5.87379

> <r_epik_Ionization_Penalty_Charging>
5.8024

> <r_epik_Ionization_Penalty_Neutral>
0.0713848

> <r_epik_State_Penalty>
5.81862

> <r_epik_Charging_Adjusted_Penalty>
11.621

> <i_epik_Tot_Q>
-1

> <i_epik_Tot_abs_Q>
1

> <r_epik_Metal_State_Penalty>
1.80653

> <b_epik_Metal_Only>
1

> <s_lp_Force_Field>
OPLS_2005

> <r_lp_Energy>
33.3625

> <b_lp_Chiralities_Consistent>
1

> <s_lp_Variant>
AV-unprocessed.smi:2531-3

> <Gold.Version>
5.8.1

> <Gold.Id.Protein>
6NUR|6NUR_protein|mol2

> <Gold.PLP.Fitness>
55.5909

> <Gold.PLP.PLP>
-42.9020

> <Gold.PLP.part.hbond>
-3.0000

> <Gold.PLP.part.metal>
0.0000

> <Gold.PLP.part.buried>
-4.2298

> <Gold.PLP.part.nonpolar>
-35.7820

> <Gold.PLP.part.repulsive>
0.7497

> <Gold.PLP.ligand.clash>
0.0000

> <Gold.PLP.ligand.torsion>
1.6849

> <Gold.PLP.Chemscore.Hbond>
3.5075

> <Gold.PLP.Chemscore.CHOScore>
1.0015

> <Gold.PLP.Chemscore.Metal>
0.0000

> <Gold.Chemscore.Hbonds>
donor molecule, donor type, donor heavy atom, donor atom, acceptor molecule, acceptor atom, score
      P1  H  7989  7998       L1    13  1.00
      P1  H  7997  8009       L1    14  1.59
      P1  H 10752 10763       L1    12  0.44
      L1  C    21    43       P1  8028  0.85

> <Gold.PLP.Chemscore.Internal.Correction>
2.5317

> <Gold.Rescore>
     Score         DG    S(hbond)    S(metal)    S(lipo)     H(rot)  DE(clash)    DE(int)     intcor
     18.99     -20.66       2.00        0.00     107.98       1.61       0.06       1.61       ----

> <Gold.Chemscore.Fitness>
18.9859

> <Gold.Chemscore.DG>
-20.6584

> <Gold.Chemscore.ZeroCoef>
-5.4800

> <Gold.Chemscore.Hbond>
1.9968

> <Gold.Chemscore.Metal>
0.0000

> <Gold.Chemscore.Lipo>
107.9775

> <Gold.Chemscore.Internal_Hbond>
0.0000

> <Gold.Chemscore.DEClash>
0.0596

> <Gold.Chemscore.DEInternal>
1.6129

> <Gold.Chemscore.Rot>
1.6110

> <Gold.Chemscore.Internal.Correction>
   9.000000E+99

> <Gold.Chemscore.Hbonds>
donor molecule, donor type, donor heavy atom, donor atom, acceptor molecule, acceptor atom, score
      P1  H  7989  7998       L1    13  0.82
      P1  H  7997  8009       L1    14  0.43
      P1  H 10752 10763       L1    12  0.41

> <Gold.Chemscore.Hbond.Weighted>
-6.6693

> <Gold.Chemscore.Metal.Weighted>
-0.0000

> <Gold.Chemscore.Lipo.Weighted>
-12.6334

> <Gold.Chemscore.Internal_Hbond.Weighted>
0.0000

> <Gold.Chemscore.DEClash.Weighted>
0.0596

> <Gold.Chemscore.DEInternal.Weighted>
1.6129

> <Gold.Chemscore.Rot.Weighted>
4.1243

> <Gold.Chemscore.Internal.Correction.Weighted>
   9.000000E+99

> <Gold.Protein.RotatedTorsions>
[ 6907 6896 6895 6894 ] final    3.53 input  -60.11 | X-H torsion
[ 7974 7965 7964 7962 ] final  -42.76 input  175.53 | X-H torsion
[ 8008 7997 7996 7995 ] final -172.44 input   59.86 | X-H torsion
[ 10167 10162 10161 10158 ] final   89.21 input  -65.29 | X-H torsion
[ 10718 10713 10712 10709 ] final  106.40 input   66.30 | X-H torsion
[ 10763 10752 10751 10750 ] final   28.11 input  -60.55 | X-H torsion
[ 11005 11000 10999 10996 ] final  -99.31 input  -57.11 | X-H torsion

> <Gold.Protein.ActiveResidues>
 VAL166  LYS551  ARG553  GLY616  TRP617  ASP618  TYR619  PRO620  LYS621  CYS622 
 ASP623  PHE694  ASN695  SER759  ASP760  ASP761  ALA762  ILE779  LEU786  VAL792 
 PHE793  MET794  SER795  GLU796  ALA797  LYS798  CYS799  TRP800  GLU811  SER814 

> <Gold.Protein.RotatedAtoms>
  151.6266  135.1027  160.0112 H   0  0  0  0  0  0  0  0  0  0  0  0  # atno 6907 bound_to 6896
  152.4129  133.6987  159.6422 H   0  0  0  0  0  0  0  0  0  0  0  0  # atno 6908 bound_to 6896
  150.8018  133.8509  159.3246 H   0  0  0  0  0  0  0  0  0  0  0  0  # atno 6909 bound_to 6896
  146.0084  140.6993  142.9236 H   0  0  0  0  0  0  0  0  0  0  0  0  # atno 7974 bound_to 7965
  155.9446  140.1115  157.1027 H   0  0  0  0  0  0  0  0  0  0  0  0  # atno 8008 bound_to 7997
  154.4096  140.1212  156.5038 H   0  0  0  0  0  0  0  0  0  0  0  0  # atno 8009 bound_to 7997
  155.6919  140.3472  155.4899 H   0  0  0  0  0  0  0  0  0  0  0  0  # atno 8010 bound_to 7997
  139.8596  144.6551  150.9074 H   0  0  0  0  0  0  0  0  0  0  0  0  # atno 10167 bound_to 10162
  157.6669  131.0850  150.6001 H   0  0  0  0  0  0  0  0  0  0  0  0  # atno 10718 bound_to 10713
  153.0512  135.6521  154.0688 H   0  0  0  0  0  0  0  0  0  0  0  0  # atno 10763 bound_to 10752
  154.0376  135.2906  155.3361 H   0  0  0  0  0  0  0  0  0  0  0  0  # atno 10764 bound_to 10752
  154.6802  135.5323  153.8319 H   0  0  0  0  0  0  0  0  0  0  0  0  # atno 10765 bound_to 10752
  141.1313  133.8311  157.0955 H   0  0  0  0  0  0  0  0  0  0  0  0  # atno 11005 bound_to 11000
  144.6944  140.3356  143.7208 LP  0  0  0  0  0  0  0  0  0  0  0  0  # atno 17320 bound_to 7965
  145.7380  139.1755  143.2392 LP  0  0  0  0  0  0  0  0  0  0  0  0  # atno 17321 bound_to 7965
  140.7777  143.3756  151.1569 LP  0  0  0  0  0  0  0  0  0  0  0  0  # atno 17342 bound_to 10162
  139.7387  143.8959  152.3043 LP  0  0  0  0  0  0  0  0  0  0  0  0  # atno 17343 bound_to 10162
  156.6301  130.4429  149.5790 LP  0  0  0  0  0  0  0  0  0  0  0  0  # atno 17370 bound_to 10713
  156.2288  130.6782  151.1443 LP  0  0  0  0  0  0  0  0  0  0  0  0  # atno 17371 bound_to 10713
  140.0366  134.9875  157.0882 LP  0  0  0  0  0  0  0  0  0  0  0  0  # atno 17394 bound_to 11000
  140.4201  134.1890  155.7164 LP  0  0  0  0  0  0  0  0  0  0  0  0  # atno 17395 bound_to 11000

$$$$
