AV-unprocessed.smi:3284|AV-procd|sdf|12573|dock9
  -GOLD-   2272018493D 1   1.00000     0.00000
 Structure written by MMmdl.
 44 45  0  0  0  0  0  0  0  0  2 V2000
  147.7397  142.0245  157.8832 C   0  0  0  0  0  0  0  0  0  0  0  0
  147.9498  141.7052  156.4124 C   0  0  0  0  0  0  0  0  0  0  0  0
  147.1227  142.2328  155.4898 C   0  0  0  0  0  0  0  0  0  0  0  0
  147.1874  141.9258  154.0115 C   0  0  0  0  0  0  0  0  0  0  0  0
  147.9289  140.6117  153.7557 C   0  0  0  0  0  0  0  0  0  0  0  0
  149.2732  140.5702  154.5005 C   0  0  2  0  0  0  0  0  0  0  0  0
  150.0179  139.2701  154.1391 C   0  0  0  0  0  0  0  0  0  0  0  0
  149.1064  140.7542  156.0412 C   0  0  1  0  0  0  0  0  0  0  0  0
  150.4590  141.1774  156.6734 C   0  0  0  0  0  0  0  0  0  0  0  0
  150.6290  142.6430  156.7513 N   0  3  0  0  0  0  0  0  0  0  0  0
  150.7060  143.1655  158.1290 C   0  0  0  0  0  0  0  0  0  0  0  0
  152.1479  143.5309  158.5036 C   0  0  0  0  0  0  0  0  0  0  0  0
  152.4021  143.3988  159.9729 C   0  0  0  0  0  0  0  0  0  0  0  0
  151.9983  144.2929  160.8699 N   0  0  0  0  0  0  0  0  0  0  0  0
  152.4563  143.8048  162.0893 C   0  0  0  0  0  0  0  0  0  0  0  0
  153.1330  142.6269  161.8829 C   0  0  0  0  0  0  0  0  0  0  0  0
  153.0965  142.3802  160.5168 N   0  0  0  0  0  0  0  0  0  0  0  0
  153.6951  141.2451  159.8413 C   0  0  0  0  0  0  0  0  0  0  0  0
  147.7107  141.1081  158.4731 H   0  0  0  0  0  0  0  0  0  0  0  0
  146.7968  142.5487  158.0436 H   0  0  0  0  0  0  0  0  0  0  0  0
  148.5353  142.6666  158.2608 H   0  0  0  0  0  0  0  0  0  0  0  0
  146.3402  142.9133  155.7932 H   0  0  0  0  0  0  0  0  0  0  0  0
  146.1738  141.8592  153.6156 H   0  0  0  0  0  0  0  0  0  0  0  0
  147.6778  142.7558  153.5020 H   0  0  0  0  0  0  0  0  0  0  0  0
  147.3075  139.7746  154.0775 H   0  0  0  0  0  0  0  0  0  0  0  0
  148.0823  140.4873  152.6832 H   0  0  0  0  0  0  0  0  0  0  0  0
  149.8658  141.4057  154.1235 H   0  0  0  0  0  0  0  0  0  0  0  0
  149.4803  138.3933  154.5018 H   0  0  0  0  0  0  0  0  0  0  0  0
  151.0240  139.2357  154.5542 H   0  0  0  0  0  0  0  0  0  0  0  0
  150.1198  139.1672  153.0583 H   0  0  0  0  0  0  0  0  0  0  0  0
  148.8260  139.7833  156.4524 H   0  0  0  0  0  0  0  0  0  0  0  0
  150.5533  140.7942  157.6880 H   0  0  0  0  0  0  0  0  0  0  0  0
  151.2830  140.7430  156.1055 H   0  0  0  0  0  0  0  0  0  0  0  0
  151.4808  142.8895  156.2674 H   0  0  0  0  0  0  0  0  0  0  0  0
  150.0631  144.0423  158.2172 H   0  0  0  0  0  0  0  0  0  0  0  0
  150.3226  142.4129  158.8195 H   0  0  0  0  0  0  0  0  0  0  0  0
  152.8435  142.8770  157.9760 H   0  0  0  0  0  0  0  0  0  0  0  0
  152.3811  144.5458  158.1801 H   0  0  0  0  0  0  0  0  0  0  0  0
  152.2673  144.3348  163.0112 H   0  0  0  0  0  0  0  0  0  0  0  0
  153.6272  141.9638  162.5778 H   0  0  0  0  0  0  0  0  0  0  0  0
  154.3119  140.6762  160.5377 H   0  0  0  0  0  0  0  0  0  0  0  0
  154.3225  141.5889  159.0186 H   0  0  0  0  0  0  0  0  0  0  0  0
  152.9122  140.5947  159.4508 H   0  0  0  0  0  0  0  0  0  0  0  0
  149.8511  143.0827  156.2805 H   0  0  0  0  0  0  0  0  0  0  0  0
  1  2  1  0  0  0  0
  1 19  1  0  0  0  0
  1 20  1  0  0  0  0
  1 21  1  0  0  0  0
  2  8  1  0  0  0  0
  2  3  2  0  0  0  0
  3  4  1  0  0  0  0
  3 22  1  0  0  0  0
  4  5  1  0  0  0  0
  4 23  1  0  0  0  0
  4 24  1  0  0  0  0
  5  6  1  0  0  0  0
  5 25  1  0  0  0  0
  5 26  1  0  0  0  0
  6  7  1  0  0  0  0
  6  8  1  0  0  0  0
  6 27  1  0  0  0  0
  7 28  1  0  0  0  0
  7 29  1  0  0  0  0
  7 30  1  0  0  0  0
  8  9  1  0  0  0  0
  8 31  1  0  0  0  0
  9 10  1  0  0  0  0
  9 32  1  0  0  0  0
  9 33  1  0  0  0  0
 10 11  1  0  0  0  0
 10 34  1  0  0  0  0
 10 44  1  0  0  0  0
 11 12  1  0  0  0  0
 11 35  1  0  0  0  0
 11 36  1  0  0  0  0
 12 13  1  0  0  0  0
 12 37  1  0  0  0  0
 12 38  1  0  0  0  0
 13 17  1  0  0  0  0
 13 14  2  0  0  0  0
 14 15  1  0  0  0  0
 15 16  2  0  0  0  0
 15 39  1  0  0  0  0
 16 17  1  0  0  0  0
 16 40  1  0  0  0  0
 17 18  1  0  0  0  0
 18 41  1  0  0  0  0
 18 42  1  0  0  0  0
 18 43  1  0  0  0  0
M  CHG  1  10   1
M  END
> <s_m_source_file>
AV-unprocessed.smi

> <i_m_source_file_index>
3284

> <i_lp_mmshare_version>
43012

> <i_f3d_flags>
0

> <s_epik_input>
W0NIM11DMT1bQ0hdW0NIMl1bQ0gyXVtDQEBIXShbQ0gzXSlbQ0BIXTFbQ0gyXVtOSF1bQ0gyXVtDSDJdYzJuW2NIXVtjSF1uMltDSDNd

> <s_epik_cmdline>
J2VwaWtfcHl0aG9uJywgJy1waCcsICc3LjAnLCAnLXRuJywgJzgnLCAnLW1hJywgJzIwMCcsICctbWV0YWxfYmluZGluZycsICctaW1hZScsICc8aW5maWxlLm1hZT4nLCAnLW9tYWUnLCAnPG91dGZpbGUubWFlPic=

> <r_lp_tautomer_probability>
1

> <r_epik_Ionization_Penalty>
0.150779

> <r_epik_Ionization_Penalty_Charging>
0.150779

> <r_epik_Ionization_Penalty_Neutral>
1.39452e-13

> <r_epik_State_Penalty>
0.349447

> <r_epik_Charging_Adjusted_Penalty>
0.500226

> <i_epik_Tot_Q>
1

> <i_epik_Tot_abs_Q>
1

> <r_epik_Metal_State_Penalty>
0.000470967

> <b_epik_Metal_Only>
0

> <s_lp_Force_Field>
OPLS_2005

> <r_lp_Energy>
12.7039

> <b_lp_Chiralities_Consistent>
1

> <s_lp_Variant>
AV-unprocessed.smi:3284-2

> <Gold.Version>
5.8.1

> <Gold.Id.Protein>
6NUR|6NUR_protein|mol2

> <Gold.PLP.Fitness>
46.9834

> <Gold.PLP.PLP>
-43.7501

> <Gold.PLP.part.hbond>
-1.0000

> <Gold.PLP.part.metal>
0.0000

> <Gold.PLP.part.buried>
-1.8557

> <Gold.PLP.part.nonpolar>
-39.9851

> <Gold.PLP.part.repulsive>
0.1709

> <Gold.PLP.ligand.clash>
0.0000

> <Gold.PLP.ligand.torsion>
1.4113

> <Gold.PLP.Chemscore.Hbond>
2.0000

> <Gold.PLP.Chemscore.CHOScore>
0.0000

> <Gold.PLP.Chemscore.Metal>
0.0000

> <Gold.Chemscore.Hbonds>
donor molecule, donor type, donor heavy atom, donor atom, acceptor molecule, acceptor atom, score
      L1  H    10    44       P1  8028  2.00

> <Gold.PLP.Chemscore.Internal.Correction>
0.0557

> <Gold.Rescore>
     Score         DG    S(hbond)    S(metal)    S(lipo)     H(rot)  DE(clash)    DE(int)     intcor
     14.98     -16.43       0.88        0.00     103.73       1.61       0.09       1.37       ----

> <Gold.Chemscore.Fitness>
14.9829

> <Gold.Chemscore.DG>
-16.4349

> <Gold.Chemscore.ZeroCoef>
-5.4800

> <Gold.Chemscore.Hbond>
0.8807

> <Gold.Chemscore.Metal>
0.0000

> <Gold.Chemscore.Lipo>
103.7301

> <Gold.Chemscore.Internal_Hbond>
0.0000

> <Gold.Chemscore.DEClash>
0.0865

> <Gold.Chemscore.DEInternal>
1.3654

> <Gold.Chemscore.Rot>
1.6105

> <Gold.Chemscore.Internal.Correction>
   9.000000E+99

> <Gold.Chemscore.Hbonds>
donor molecule, donor type, donor heavy atom, donor atom, acceptor molecule, acceptor atom, score
      L1  H    10    44       P1  8028  0.91

> <Gold.Chemscore.Hbond.Weighted>
-2.9415

> <Gold.Chemscore.Metal.Weighted>
-0.0000

> <Gold.Chemscore.Lipo.Weighted>
-12.1364

> <Gold.Chemscore.Internal_Hbond.Weighted>
0.0000

> <Gold.Chemscore.DEClash.Weighted>
0.0865

> <Gold.Chemscore.DEInternal.Weighted>
1.3654

> <Gold.Chemscore.Rot.Weighted>
4.1230

> <Gold.Chemscore.Internal.Correction.Weighted>
   9.000000E+99

> <Gold.Protein.RotatedTorsions>
[ 6907 6896 6895 6894 ] final   45.84 input  -60.11 | X-H torsion
[ 7974 7965 7964 7962 ] final   -2.93 input  175.53 | X-H torsion
[ 8008 7997 7996 7995 ] final -118.81 input   59.86 | X-H torsion
[ 10167 10162 10161 10158 ] final  -78.87 input  -65.29 | X-H torsion
[ 10718 10713 10712 10709 ] final   73.30 input   66.30 | X-H torsion
[ 10763 10752 10751 10750 ] final  156.66 input  -60.55 | X-H torsion
[ 11005 11000 10999 10996 ] final   77.27 input  -57.11 | X-H torsion

> <Gold.Protein.ActiveResidues>
 VAL166  LYS551  ARG553  GLY616  TRP617  ASP618  TYR619  PRO620  LYS621  CYS622 
 ASP623  PHE694  ASN695  SER759  ASP760  ASP761  ALA762  ILE779  LEU786  VAL792 
 PHE793  MET794  SER795  GLU796  ALA797  LYS798  CYS799  TRP800  GLU811  SER814 

> <Gold.Protein.RotatedAtoms>
  152.2493  134.8149  160.0448 H   0  0  0  0  0  0  0  0  0  0  0  0  # atno 6907 bound_to 6896
  151.8835  133.3495  159.3782 H   0  0  0  0  0  0  0  0  0  0  0  0  # atno 6908 bound_to 6896
  150.7079  134.4922  159.5565 H   0  0  0  0  0  0  0  0  0  0  0  0  # atno 6909 bound_to 6896
  146.2397  140.1645  142.8332 H   0  0  0  0  0  0  0  0  0  0  0  0  # atno 7974 bound_to 7965
  155.1057  140.0396  157.2709 H   0  0  0  0  0  0  0  0  0  0  0  0  # atno 8008 bound_to 7997
  154.6724  140.2615  155.6968 H   0  0  0  0  0  0  0  0  0  0  0  0  # atno 8009 bound_to 7997
  156.2663  140.2795  156.1238 H   0  0  0  0  0  0  0  0  0  0  0  0  # atno 8010 bound_to 7997
  140.4644  143.2444  151.8300 H   0  0  0  0  0  0  0  0  0  0  0  0  # atno 10167 bound_to 10162
  157.6541  130.9621  150.1049 H   0  0  0  0  0  0  0  0  0  0  0  0  # atno 10718 bound_to 10713
  154.1879  135.2796  155.3031 H   0  0  0  0  0  0  0  0  0  0  0  0  # atno 10763 bound_to 10752
  154.5952  135.5547  153.7321 H   0  0  0  0  0  0  0  0  0  0  0  0  # atno 10764 bound_to 10752
  153.0120  135.6378  154.2018 H   0  0  0  0  0  0  0  0  0  0  0  0  # atno 10765 bound_to 10752
  139.9261  134.7669  156.1501 H   0  0  0  0  0  0  0  0  0  0  0  0  # atno 11005 bound_to 11000
  145.0062  140.8675  143.5252 LP  0  0  0  0  0  0  0  0  0  0  0  0  # atno 17320 bound_to 7965
  145.1672  139.2425  143.5361 LP  0  0  0  0  0  0  0  0  0  0  0  0  # atno 17321 bound_to 7965
  139.4810  144.4968  151.9112 LP  0  0  0  0  0  0  0  0  0  0  0  0  # atno 17342 bound_to 10162
  140.4054  144.2439  150.5891 LP  0  0  0  0  0  0  0  0  0  0  0  0  # atno 17343 bound_to 10162
  156.1962  130.3657  149.8847 LP  0  0  0  0  0  0  0  0  0  0  0  0  # atno 17370 bound_to 10713
  156.6762  130.8840  151.3569 LP  0  0  0  0  0  0  0  0  0  0  0  0  # atno 17371 bound_to 10713
  141.0820  133.6750  156.2356 LP  0  0  0  0  0  0  0  0  0  0  0  0  # atno 17394 bound_to 11000
  140.6331  134.5243  157.5562 LP  0  0  0  0  0  0  0  0  0  0  0  0  # atno 17395 bound_to 11000

$$$$
