AV-unprocessed.smi:1303|AV-procd|sdf|5428|dock4
  -GOLD-   22720 4583D 1   1.00000     0.00000
 Structure written by MMmdl.
 40 41  0  0  0  0  0  0  0  0  1 V2000
  147.8648  134.9101  155.9653 C   0  0  0  0  0  0  0  0  0  0  0  0
  149.0834  134.6626  155.0606 C   0  0  0  0  0  0  0  0  0  0  0  0
  149.5830  133.2132  155.1793 C   0  0  0  0  0  0  0  0  0  0  0  0
  150.2141  135.6475  155.3838 C   0  0  0  0  0  0  0  0  0  0  0  0
  150.9699  135.4360  156.3329 O   0  0  0  0  0  0  0  0  0  0  0  0
  150.3286  136.7142  154.5775 N   0  0  0  0  0  0  0  0  0  0  0  0
  151.3728  137.7293  154.6794 C   0  0  0  0  0  0  0  0  0  0  0  0
  150.8729  139.1120  155.0790 C   0  0  0  0  0  0  0  0  0  0  0  0
  149.8520  139.7294  154.3305 C   0  0  0  0  0  0  0  0  0  0  0  0
  149.4135  141.0081  154.7206 C   0  0  0  0  0  0  0  0  0  0  0  0
  149.9210  141.6742  155.7785 N   0  0  0  0  0  0  0  0  0  0  0  0
  150.9036  141.0919  156.5092 C   0  0  0  0  0  0  0  0  0  0  0  0
  151.4192  141.7929  157.6208 N   0  0  0  0  0  0  0  0  0  0  0  0
  152.4114  141.1184  158.4559 C   0  0  0  0  0  0  0  0  0  0  0  0
  152.6434  141.9078  159.7553 C   0  0  0  0  0  0  0  0  0  0  0  0
  153.0083  143.2481  159.4436 O   0  0  0  0  0  0  0  0  0  0  0  0
  151.9816  143.9223  158.7234 C   0  0  0  0  0  0  0  0  0  0  0  0
  151.7225  143.2032  157.3885 C   0  0  0  0  0  0  0  0  0  0  0  0
  151.4142  139.8141  156.1795 C   0  0  0  0  0  0  0  0  0  0  0  0
  147.5204  135.9426  155.8938 H   0  0  0  0  0  0  0  0  0  0  0  0
  148.0933  134.7062  157.0121 H   0  0  0  0  0  0  0  0  0  0  0  0
  147.0318  134.2678  155.6792 H   0  0  0  0  0  0  0  0  0  0  0  0
  148.7707  134.8264  154.0279 H   0  0  0  0  0  0  0  0  0  0  0  0
  150.4527  133.0397  154.5436 H   0  0  0  0  0  0  0  0  0  0  0  0
  148.8095  132.5086  154.8730 H   0  0  0  0  0  0  0  0  0  0  0  0
  149.8657  132.9680  156.2039 H   0  0  0  0  0  0  0  0  0  0  0  0
  149.6668  136.8134  153.8216 H   0  0  0  0  0  0  0  0  0  0  0  0
  152.0958  137.3993  155.4251 H   0  0  0  0  0  0  0  0  0  0  0  0
  151.9122  137.7935  153.7328 H   0  0  0  0  0  0  0  0  0  0  0  0
  149.4119  139.2361  153.4764 H   0  0  0  0  0  0  0  0  0  0  0  0
  148.6320  141.5097  154.1691 H   0  0  0  0  0  0  0  0  0  0  0  0
  152.0758  140.1101  158.7008 H   0  0  0  0  0  0  0  0  0  0  0  0
  153.3473  141.0267  157.9033 H   0  0  0  0  0  0  0  0  0  0  0  0
  151.7497  141.8982  160.3813 H   0  0  0  0  0  0  0  0  0  0  0  0
  153.4431  141.4475  160.3358 H   0  0  0  0  0  0  0  0  0  0  0  0
  151.0712  143.9682  159.3233 H   0  0  0  0  0  0  0  0  0  0  0  0
  152.2935  144.9505  158.5401 H   0  0  0  0  0  0  0  0  0  0  0  0
  152.6050  143.2722  156.7513 H   0  0  0  0  0  0  0  0  0  0  0  0
  150.9143  143.7114  156.8646 H   0  0  0  0  0  0  0  0  0  0  0  0
  152.2162  139.3797  156.7569 H   0  0  0  0  0  0  0  0  0  0  0  0
  1  2  1  0  0  0  0
  1 20  1  0  0  0  0
  1 21  1  0  0  0  0
  1 22  1  0  0  0  0
  2  3  1  0  0  0  0
  2  4  1  0  0  0  0
  2 23  1  0  0  0  0
  3 24  1  0  0  0  0
  3 25  1  0  0  0  0
  3 26  1  0  0  0  0
  4  5  2  0  0  0  0
  4  6  1  0  0  0  0
  6  7  1  0  0  0  0
  6 27  1  0  0  0  0
  7  8  1  0  0  0  0
  7 28  1  0  0  0  0
  7 29  1  0  0  0  0
  8 19  1  0  0  0  0
  8  9  2  0  0  0  0
  9 10  1  0  0  0  0
  9 30  1  0  0  0  0
 10 11  2  0  0  0  0
 10 31  1  0  0  0  0
 11 12  1  0  0  0  0
 12 13  1  0  0  0  0
 12 19  2  0  0  0  0
 13 18  1  0  0  0  0
 13 14  1  0  0  0  0
 14 15  1  0  0  0  0
 14 32  1  0  0  0  0
 14 33  1  0  0  0  0
 15 16  1  0  0  0  0
 15 34  1  0  0  0  0
 15 35  1  0  0  0  0
 16 17  1  0  0  0  0
 17 18  1  0  0  0  0
 17 36  1  0  0  0  0
 17 37  1  0  0  0  0
 18 38  1  0  0  0  0
 18 39  1  0  0  0  0
 19 40  1  0  0  0  0
M  END
> <s_m_source_file>
AV-unprocessed.smi

> <i_m_source_file_index>
1303

> <i_lp_mmshare_version>
43012

> <i_f3d_flags>
0

> <s_epik_input>
W0NIM11bQ0hdKFtDSDNdKUMoPU8pW05IXVtDSDJdYzFbY0hdW2NIXW5jKFtjSF0xKU4yW0NIMl1bQ0gyXU9bQ0gyXVtDSDJdMg==

> <s_epik_cmdline>
J2VwaWtfcHl0aG9uJywgJy1waCcsICc3LjAnLCAnLXRuJywgJzgnLCAnLW1hJywgJzIwMCcsICctbWV0YWxfYmluZGluZycsICctaW1hZScsICc8aW5maWxlLm1hZT4nLCAnLW9tYWUnLCAnPG91dGZpbGUubWFlPic=

> <r_lp_tautomer_probability>
1

> <r_epik_Ionization_Penalty>
0.00576177

> <r_epik_Ionization_Penalty_Charging>
0

> <r_epik_Ionization_Penalty_Neutral>
0.00576177

> <r_epik_State_Penalty>
0.00422935

> <r_epik_Charging_Adjusted_Penalty>
0.00422935

> <i_epik_Tot_Q>
0

> <i_epik_Tot_abs_Q>
0

> <r_epik_Metal_State_Penalty>
-0

> <b_epik_Metal_Only>
0

> <s_lp_Force_Field>
OPLS_2005

> <r_lp_Energy>
14.5519

> <b_lp_Chiralities_Consistent>
1

> <s_lp_Variant>
AV-unprocessed.smi:1303-1

> <Gold.Version>
5.8.1

> <Gold.Id.Protein>
6NUR|6NUR_protein|mol2

> <Gold.PLP.Fitness>
42.5263

> <Gold.PLP.PLP>
-37.9665

> <Gold.PLP.part.hbond>
-3.0000

> <Gold.PLP.part.metal>
0.0000

> <Gold.PLP.part.buried>
-3.9032

> <Gold.PLP.part.nonpolar>
-30.5678

> <Gold.PLP.part.repulsive>
0.2428

> <Gold.PLP.ligand.clash>
0.0000

> <Gold.PLP.ligand.torsion>
0.7743

> <Gold.PLP.Chemscore.Hbond>
1.9204

> <Gold.PLP.Chemscore.CHOScore>
0.0000

> <Gold.PLP.Chemscore.Metal>
0.0000

> <Gold.Chemscore.Hbonds>
donor molecule, donor type, donor heavy atom, donor atom, acceptor molecule, acceptor atom, score
      L1  H     6    27       P1  7948  0.73

> <Gold.PLP.Chemscore.Internal.Correction>
0.3472

> <Gold.Rescore>
     Score         DG    S(hbond)    S(metal)    S(lipo)     H(rot)  DE(clash)    DE(int)     intcor
     16.68     -16.97       1.54        0.00      88.41       1.56       0.07       0.22       ----

> <Gold.Chemscore.Fitness>
16.6822

> <Gold.Chemscore.DG>
-16.9672

> <Gold.Chemscore.ZeroCoef>
-5.4800

> <Gold.Chemscore.Hbond>
1.5366

> <Gold.Chemscore.Metal>
0.0000

> <Gold.Chemscore.Lipo>
88.4134

> <Gold.Chemscore.Internal_Hbond>
0.0000

> <Gold.Chemscore.DEClash>
0.0699

> <Gold.Chemscore.DEInternal>
0.2151

> <Gold.Chemscore.Rot>
1.5584

> <Gold.Chemscore.Internal.Correction>
   9.000000E+99

> <Gold.Chemscore.Hbonds>
donor molecule, donor type, donor heavy atom, donor atom, acceptor molecule, acceptor atom, score
      L1  H     6    27       P1  7948  0.51

> <Gold.Chemscore.Hbond.Weighted>
-5.1323

> <Gold.Chemscore.Metal.Weighted>
-0.0000

> <Gold.Chemscore.Lipo.Weighted>
-10.3444

> <Gold.Chemscore.Internal_Hbond.Weighted>
0.0000

> <Gold.Chemscore.DEClash.Weighted>
0.0699

> <Gold.Chemscore.DEInternal.Weighted>
0.2151

> <Gold.Chemscore.Rot.Weighted>
3.9895

> <Gold.Chemscore.Internal.Correction.Weighted>
   9.000000E+99

> <Gold.Protein.RotatedTorsions>
[ 6907 6896 6895 6894 ] final -117.99 input  -60.11 | X-H torsion
[ 7974 7965 7964 7962 ] final  -55.69 input  175.53 | X-H torsion
[ 8008 7997 7996 7995 ] final  113.31 input   59.86 | X-H torsion
[ 10167 10162 10161 10158 ] final  -16.92 input  -65.29 | X-H torsion
[ 10718 10713 10712 10709 ] final  -96.06 input   66.30 | X-H torsion
[ 10763 10752 10751 10750 ] final  -32.97 input  -60.55 | X-H torsion
[ 11005 11000 10999 10996 ] final  -88.29 input  -57.11 | X-H torsion

> <Gold.Protein.ActiveResidues>
 VAL166  LYS551  ARG553  GLY616  TRP617  ASP618  TYR619  PRO620  LYS621  CYS622 
 ASP623  PHE694  ASN695  SER759  ASP760  ASP761  ALA762  ILE779  LEU786  VAL792 
 PHE793  MET794  SER795  GLU796  ALA797  LYS798  CYS799  TRP800  GLU811  SER814 

> <Gold.Protein.RotatedAtoms>
  150.8182  133.8300  159.3150 H   0  0  0  0  0  0  0  0  0  0  0  0  # atno 6907 bound_to 6896
  151.6066  135.1042  160.0081 H   0  0  0  0  0  0  0  0  0  0  0  0  # atno 6908 bound_to 6896
  152.4272  133.7175  159.6571 H   0  0  0  0  0  0  0  0  0  0  0  0  # atno 6909 bound_to 6896
  145.8713  140.8214  142.9887 H   0  0  0  0  0  0  0  0  0  0  0  0  # atno 7974 bound_to 7965
  156.2250  140.2982  156.0044 H   0  0  0  0  0  0  0  0  0  0  0  0  # atno 8008 bound_to 7997
  155.2382  140.0421  157.2988 H   0  0  0  0  0  0  0  0  0  0  0  0  # atno 8009 bound_to 7997
  154.5900  140.2399  155.7942 H   0  0  0  0  0  0  0  0  0  0  0  0  # atno 8010 bound_to 7997
  140.7240  143.5068  150.9800 H   0  0  0  0  0  0  0  0  0  0  0  0  # atno 10167 bound_to 10162
  156.0055  130.5135  150.6169 H   0  0  0  0  0  0  0  0  0  0  0  0  # atno 10718 bound_to 10713
  153.8225  135.6873  153.4825 H   0  0  0  0  0  0  0  0  0  0  0  0  # atno 10763 bound_to 10752
  153.1560  135.4599  154.9703 H   0  0  0  0  0  0  0  0  0  0  0  0  # atno 10764 bound_to 10752
  154.7921  135.3305  154.7696 H   0  0  0  0  0  0  0  0  0  0  0  0  # atno 10765 bound_to 10752
  141.1604  133.7561  156.9429 H   0  0  0  0  0  0  0  0  0  0  0  0  # atno 11005 bound_to 11000
  144.6726  140.1243  143.7448 LP  0  0  0  0  0  0  0  0  0  0  0  0  # atno 17320 bound_to 7965
  145.9134  139.2501  143.1424 LP  0  0  0  0  0  0  0  0  0  0  0  0  # atno 17321 bound_to 7965
  139.8780  143.7108  152.3160 LP  0  0  0  0  0  0  0  0  0  0  0  0  # atno 17342 bound_to 10162
  139.7380  144.7566  151.0696 LP  0  0  0  0  0  0  0  0  0  0  0  0  # atno 17343 bound_to 10162
  157.3991  131.0807  151.1324 LP  0  0  0  0  0  0  0  0  0  0  0  0  # atno 17370 bound_to 10713
  157.1991  130.6387  149.5732 LP  0  0  0  0  0  0  0  0  0  0  0  0  # atno 17371 bound_to 10713
  140.1309  134.9356  157.2335 LP  0  0  0  0  0  0  0  0  0  0  0  0  # atno 17394 bound_to 11000
  140.2954  134.3192  155.7304 LP  0  0  0  0  0  0  0  0  0  0  0  0  # atno 17395 bound_to 11000

$$$$
