AV-unprocessed.smi:48|AV-procd|sdf|459|dock8
  -GOLD-   2262016323D 1   1.00000     0.00000
 Structure written by MMmdl.
 30 32  0  0  0  0  0  0  0  0  1 V2000
  144.3502  142.3386  154.6827 O   0  0  0  0  0  0  0  0  0  0  0  0
  145.6636  142.8550  154.6989 C   0  0  0  0  0  0  0  0  0  0  0  0
  146.6055  141.9253  153.9132 C   0  0  1  0  0  0  0  0  0  0  0  0
  147.9696  142.2987  154.1056 O   0  0  0  0  0  0  0  0  0  0  0  0
  148.8076  141.1821  154.0568 C   0  0  1  0  0  0  0  0  0  0  0  0
  149.5469  141.1189  155.3581 N   0  0  0  0  0  0  0  0  0  0  0  0
  149.2672  141.7352  156.5265 C   0  0  0  0  0  0  0  0  0  0  0  0
  150.0907  141.5119  157.5502 N   0  0  0  0  0  0  0  0  0  0  0  0
  151.0176  140.6568  156.9772 C   0  0  0  0  0  0  0  0  0  0  0  0
  152.1759  140.0170  157.4808 C   0  0  0  0  0  0  0  0  0  0  0  0
  152.6738  140.2406  159.1179 Cl  0  0  0  0  0  0  0  0  0  0  0  0
  152.8868  139.2211  156.6466 N   0  0  0  0  0  0  0  0  0  0  0  0
  152.4778  139.0645  155.3812 C   0  0  0  0  0  0  0  0  0  0  0  0
  151.4152  139.5996  154.7685 N   0  0  0  0  0  0  0  0  0  0  0  0
  150.7013  140.4009  155.6131 C   0  0  0  0  0  0  0  0  0  0  0  0
  147.9123  139.9476  153.8418 C   0  0  1  0  0  0  0  0  0  0  0  0
  148.3288  138.7645  154.5016 O   0  0  0  0  0  0  0  0  0  0  0  0
  146.5456  140.4397  154.2980 C   0  0  1  0  0  0  0  0  0  0  0  0
  146.3408  140.2692  155.6909 O   0  0  0  0  0  0  0  0  0  0  0  0
  146.3921  141.9961  152.8449 H   0  0  0  0  0  0  0  0  0  0  0  0
  149.5852  141.2985  153.3009 H   0  0  0  0  0  0  0  0  0  0  0  0
  147.8794  139.7569  152.7682 H   0  0  0  0  0  0  0  0  0  0  0  0
  145.7387  139.9247  153.7760 H   0  0  0  0  0  0  0  0  0  0  0  0
  144.3274  141.5952  154.0999 H   0  0  0  0  0  0  0  0  0  0  0  0
  145.6762  143.8682  154.2959 H   0  0  0  0  0  0  0  0  0  0  0  0
  145.9765  142.9142  155.7417 H   0  0  0  0  0  0  0  0  0  0  0  0
  148.4107  142.3843  156.6344 H   0  0  0  0  0  0  0  0  0  0  0  0
  153.0892  138.4158  154.7712 H   0  0  0  0  0  0  0  0  0  0  0  0
  147.8474  138.6918  155.3115 H   0  0  0  0  0  0  0  0  0  0  0  0
  146.7335  141.0019  156.1409 H   0  0  0  0  0  0  0  0  0  0  0  0
  1  2  1  0  0  0  0
  1 24  1  0  0  0  0
  2  3  1  0  0  0  0
  2 25  1  0  0  0  0
  2 26  1  0  0  0  0
  3 20  1  0  0  0  0
  3 18  1  0  0  0  0
  3  4  1  0  0  0  0
  4  5  1  0  0  0  0
  5 21  1  0  0  0  0
  5  6  1  0  0  0  0
  5 16  1  0  0  0  0
  6 15  1  0  0  0  0
  6  7  1  0  0  0  0
  7  8  2  0  0  0  0
  7 27  1  0  0  0  0
  8  9  1  0  0  0  0
  9 15  2  0  0  0  0
  9 10  1  0  0  0  0
 10 11  1  0  0  0  0
 10 12  2  0  0  0  0
 12 13  1  0  0  0  0
 13 14  2  0  0  0  0
 13 28  1  0  0  0  0
 14 15  1  0  0  0  0
 16 22  1  0  0  0  0
 16 17  1  0  0  0  0
 16 18  1  0  0  0  0
 17 29  1  0  0  0  0
 18 23  1  0  0  0  0
 18 19  1  0  0  0  0
 19 30  1  0  0  0  0
M  END
> <s_m_source_file>
AV-unprocessed.smi

> <i_m_source_file_index>
48

> <i_lp_mmshare_version>
43012

> <i_f3d_flags>
0

> <s_epik_input>
W09IXVtDSDJdW0NASF0xT1tDQEhdKFtDQEhdKFtPSF0pW0NAQEhdMVtPSF0pbihbY0hdbjIpYyhjMjMpbltjSF1uYzNDbA==

> <s_epik_cmdline>
J2VwaWtfcHl0aG9uJywgJy1waCcsICc3LjAnLCAnLXRuJywgJzgnLCAnLW1hJywgJzIwMCcsICctbWV0YWxfYmluZGluZycsICctaW1hZScsICc8aW5maWxlLm1hZT4nLCAnLW9tYWUnLCAnPG91dGZpbGUubWFlPic=

> <r_lp_tautomer_probability>
1

> <r_epik_Ionization_Penalty>
3.45505e-06

> <r_epik_Ionization_Penalty_Charging>
0

> <r_epik_Ionization_Penalty_Neutral>
3.45505e-06

> <r_epik_State_Penalty>
-0

> <r_epik_Charging_Adjusted_Penalty>
0

> <i_epik_Tot_Q>
0

> <i_epik_Tot_abs_Q>
0

> <r_epik_Metal_State_Penalty>
-0

> <b_epik_Metal_Only>
0

> <s_epik_Chemistry_Notes>
This compound contains an acetal/aminal-like group ( X-CH(R)-Y where X, Y are N, S, or O) that may be acid/base labile, releasing an aldehyde.

> <s_lp_Force_Field>
OPLS_2005

> <r_lp_Energy>
40.6027

> <b_lp_Chiralities_Consistent>
1

> <s_lp_Variant>
AV-unprocessed.smi:48-13

> <Gold.Version>
5.8.1

> <Gold.Id.Protein>
6NUR|6NUR_protein|mol2

> <Gold.PLP.Fitness>
39.9186

> <Gold.PLP.PLP>
-30.9742

> <Gold.PLP.part.hbond>
-4.8596

> <Gold.PLP.part.metal>
0.0000

> <Gold.PLP.part.buried>
-0.3245

> <Gold.PLP.part.nonpolar>
-25.8508

> <Gold.PLP.part.repulsive>
1.1723

> <Gold.PLP.ligand.clash>
0.0000

> <Gold.PLP.ligand.torsion>
0.5591

> <Gold.PLP.Chemscore.Hbond>
2.6775

> <Gold.PLP.Chemscore.CHOScore>
0.6248

> <Gold.PLP.Chemscore.Metal>
0.0000

> <Gold.Chemscore.Hbonds>
donor molecule, donor type, donor heavy atom, donor atom, acceptor molecule, acceptor atom, score
      L1  H     1    24       P1 10175  0.88
      P1  H  7989  7998       L1    14  0.80
      P1  H  7997  8010       L1    12  1.00
      L1  C     7    27       P1  8028  0.58

> <Gold.PLP.Chemscore.Internal.Correction>
0.1557

> <Gold.Rescore>
     Score         DG    S(hbond)    S(metal)    S(lipo)     H(rot)  DE(clash)    DE(int)     intcor
      5.61      -6.34       1.88        0.00      36.73       3.80       0.06       0.66       ----

> <Gold.Chemscore.Fitness>
5.6144

> <Gold.Chemscore.DG>
-6.3409

> <Gold.Chemscore.ZeroCoef>
-5.4800

> <Gold.Chemscore.Hbond>
1.8850

> <Gold.Chemscore.Metal>
0.0000

> <Gold.Chemscore.Lipo>
36.7306

> <Gold.Chemscore.Internal_Hbond>
0.0000

> <Gold.Chemscore.DEClash>
0.0650

> <Gold.Chemscore.DEInternal>
0.6615

> <Gold.Chemscore.Rot>
3.8017

> <Gold.Chemscore.Internal.Correction>
   9.000000E+99

> <Gold.Chemscore.Hbonds>
donor molecule, donor type, donor heavy atom, donor atom, acceptor molecule, acceptor atom, score
      L1  H     1    24       P1 10175  0.16
      P1  H  7989  7998       L1    14  0.12
      P1  H  7997  8010       L1    12  0.11

> <Gold.Chemscore.Hbond.Weighted>
-6.2958

> <Gold.Chemscore.Metal.Weighted>
-0.0000

> <Gold.Chemscore.Lipo.Weighted>
-4.2975

> <Gold.Chemscore.Internal_Hbond.Weighted>
0.0000

> <Gold.Chemscore.DEClash.Weighted>
0.0650

> <Gold.Chemscore.DEInternal.Weighted>
0.6615

> <Gold.Chemscore.Rot.Weighted>
9.7324

> <Gold.Chemscore.Internal.Correction.Weighted>
   9.000000E+99

> <Gold.Protein.RotatedTorsions>
[ 6907 6896 6895 6894 ] final  175.47 input  -60.11 | X-H torsion
[ 7974 7965 7964 7962 ] final   15.36 input  175.53 | X-H torsion
[ 8008 7997 7996 7995 ] final   76.10 input   59.86 | X-H torsion
[ 10167 10162 10161 10158 ] final   53.44 input  -65.29 | X-H torsion
[ 10718 10713 10712 10709 ] final  -51.35 input   66.30 | X-H torsion
[ 10763 10752 10751 10750 ] final   98.91 input  -60.55 | X-H torsion
[ 11005 11000 10999 10996 ] final -162.10 input  -57.11 | X-H torsion

> <Gold.Protein.ActiveResidues>
 VAL166  LYS551  ARG553  GLY616  TRP617  ASP618  TYR619  PRO620  LYS621  CYS622 
 ASP623  PHE694  ASN695  SER759  ASP760  ASP761  ALA762  ILE779  LEU786  VAL792 
 PHE793  MET794  SER795  GLU796  ALA797  LYS798  CYS799  TRP800  GLU811  SER814 

> <Gold.Protein.RotatedAtoms>
  151.7357  133.3319  159.3351 H   0  0  0  0  0  0  0  0  0  0  0  0  # atno 6907 bound_to 6896
  150.7594  134.6324  159.6202 H   0  0  0  0  0  0  0  0  0  0  0  0  # atno 6908 bound_to 6896
  152.3563  134.6937  160.0272 H   0  0  0  0  0  0  0  0  0  0  0  0  # atno 6909 bound_to 6896
  146.2280  139.8905  142.8555 H   0  0  0  0  0  0  0  0  0  0  0  0  # atno 7974 bound_to 7965
  155.8225  140.3469  155.5523 H   0  0  0  0  0  0  0  0  0  0  0  0  # atno 8008 bound_to 7997
  155.8327  140.0929  157.1802 H   0  0  0  0  0  0  0  0  0  0  0  0  # atno 8009 bound_to 7997
  154.4004  140.1409  156.3621 H   0  0  0  0  0  0  0  0  0  0  0  0  # atno 8010 bound_to 7997
  140.2407  144.3587  150.6381 H   0  0  0  0  0  0  0  0  0  0  0  0  # atno 10167 bound_to 10162
  156.1718  130.4149  149.9636 H   0  0  0  0  0  0  0  0  0  0  0  0  # atno 10718 bound_to 10713
  153.2949  135.4131  155.1200 H   0  0  0  0  0  0  0  0  0  0  0  0  # atno 10763 bound_to 10752
  154.8532  135.3527  154.5930 H   0  0  0  0  0  0  0  0  0  0  0  0  # atno 10764 bound_to 10752
  153.6354  135.7059  153.5318 H   0  0  0  0  0  0  0  0  0  0  0  0  # atno 10765 bound_to 10752
  140.6130  134.4829  157.5217 H   0  0  0  0  0  0  0  0  0  0  0  0  # atno 11005 bound_to 11000
  145.2422  141.0013  143.3929 LP  0  0  0  0  0  0  0  0  0  0  0  0  # atno 17320 bound_to 7965
  144.9442  139.4154  143.6434 LP  0  0  0  0  0  0  0  0  0  0  0  0  # atno 17321 bound_to 7965
  140.6116  143.2170  151.6875 LP  0  0  0  0  0  0  0  0  0  0  0  0  # atno 17342 bound_to 10162
  139.5078  144.3633  152.0541 LP  0  0  0  0  0  0  0  0  0  0  0  0  # atno 17343 bound_to 10162
  156.7434  130.9088  151.3633 LP  0  0  0  0  0  0  0  0  0  0  0  0  # atno 17370 bound_to 10713
  157.6808  130.9138  150.0262 LP  0  0  0  0  0  0  0  0  0  0  0  0  # atno 17371 bound_to 10713
  139.9184  134.8198  156.1290 LP  0  0  0  0  0  0  0  0  0  0  0  0  # atno 17394 bound_to 11000
  141.0795  133.6760  156.2306 LP  0  0  0  0  0  0  0  0  0  0  0  0  # atno 17395 bound_to 11000

$$$$
