AV-unprocessed.smi:2192|AV-procd|sdf|8897|dock7
  -GOLD-   2272012103D 1   1.00000     0.00000
 Structure written by MMmdl.
 42 44  0  0  0  0  0  0  0  0  1 V2000
  152.4102  143.2797  161.9133 C   0  0  0  0  0  0  0  0  0  0  0  0
  152.7948  142.1948  160.9906 N   0  0  0  0  0  0  0  0  0  0  0  0
  152.0421  142.0072  159.8610 C   0  0  0  0  0  0  0  0  0  0  0  0
  151.0505  142.6719  159.5572 O   0  0  0  0  0  0  0  0  0  0  0  0
  152.5176  140.9154  159.0054 C   0  0  0  0  0  0  0  0  0  0  0  0
  153.5925  140.1512  159.3161 C   0  0  0  0  0  0  0  0  0  0  0  0
  153.8257  139.1844  158.3450 N   0  0  0  0  0  0  0  0  0  0  0  0
  152.8464  139.4261  157.4726 C   0  0  0  0  0  0  0  0  0  0  0  0
  152.0206  140.4439  157.7905 N   0  0  0  0  0  0  0  0  0  0  0  0
  150.8829  140.9007  157.0063 C   0  0  0  0  0  0  0  0  0  0  0  0
  150.4896  139.9015  155.8991 C   0  0  1  0  0  0  0  0  0  0  0  0
  150.1033  138.6486  156.4274 O   0  0  0  0  0  0  0  0  0  0  0  0
  149.3787  140.4150  154.9695 C   0  0  0  0  0  0  0  0  0  0  0  0
  148.1556  140.5125  155.6891 O   0  0  0  0  0  0  0  0  0  0  0  0
  147.2550  141.4872  155.3178 C   0  0  0  0  0  0  0  0  0  0  0  0
  146.1900  141.7443  156.2059 C   0  0  0  0  0  0  0  0  0  0  0  0
  145.2207  142.7207  155.9061 C   0  0  0  0  0  0  0  0  0  0  0  0
  145.3099  143.4552  154.7095 C   0  0  0  0  0  0  0  0  0  0  0  0
  144.3786  144.3939  154.4184 F   0  0  0  0  0  0  0  0  0  0  0  0
  146.3693  143.2120  153.8157 C   0  0  0  0  0  0  0  0  0  0  0  0
  147.3381  142.2341  154.1151 C   0  0  0  0  0  0  0  0  0  0  0  0
  154.2947  140.4207  160.5170 N   0  0  0  0  0  0  0  0  0  0  0  0
  155.4477  139.5687  160.8232 C   0  0  0  0  0  0  0  0  0  0  0  0
  153.8999  141.4407  161.3488 C   0  0  0  0  0  0  0  0  0  0  0  0
  154.5168  141.6774  162.3912 O   0  0  0  0  0  0  0  0  0  0  0  0
  151.5521  143.8718  161.5942 H   0  0  0  0  0  0  0  0  0  0  0  0
  153.2361  143.9815  162.0417 H   0  0  0  0  0  0  0  0  0  0  0  0
  152.1598  142.8730  162.8945 H   0  0  0  0  0  0  0  0  0  0  0  0
  152.7251  138.8427  156.5716 H   0  0  0  0  0  0  0  0  0  0  0  0
  150.0466  141.1082  157.6724 H   0  0  0  0  0  0  0  0  0  0  0  0
  151.1466  141.8581  156.5550 H   0  0  0  0  0  0  0  0  0  0  0  0
  151.3703  139.7083  155.2856 H   0  0  0  0  0  0  0  0  0  0  0  0
  150.8548  138.0749  156.4130 H   0  0  0  0  0  0  0  0  0  0  0  0
  149.6556  141.4039  154.6010 H   0  0  0  0  0  0  0  0  0  0  0  0
  149.2755  139.7555  154.1058 H   0  0  0  0  0  0  0  0  0  0  0  0
  146.1137  141.1838  157.1262 H   0  0  0  0  0  0  0  0  0  0  0  0
  144.4092  142.9051  156.5946 H   0  0  0  0  0  0  0  0  0  0  0  0
  146.4392  143.7766  152.8977 H   0  0  0  0  0  0  0  0  0  0  0  0
  148.1359  142.0773  153.4054 H   0  0  0  0  0  0  0  0  0  0  0  0
  155.9681  139.8267  161.7458 H   0  0  0  0  0  0  0  0  0  0  0  0
  156.1774  139.6250  160.0149 H   0  0  0  0  0  0  0  0  0  0  0  0
  155.1276  138.5300  160.9113 H   0  0  0  0  0  0  0  0  0  0  0  0
  1  2  1  0  0  0  0
  1 26  1  0  0  0  0
  1 27  1  0  0  0  0
  1 28  1  0  0  0  0
  2 24  1  0  0  0  0
  2  3  1  0  0  0  0
  3  4  2  0  0  0  0
  3  5  1  0  0  0  0
  5  9  1  0  0  0  0
  5  6  2  0  0  0  0
  6  7  1  0  0  0  0
  6 22  1  0  0  0  0
  7  8  2  0  0  0  0
  8  9  1  0  0  0  0
  8 29  1  0  0  0  0
  9 10  1  0  0  0  0
 10 11  1  0  0  0  0
 10 30  1  0  0  0  0
 10 31  1  0  0  0  0
 11 12  1  0  0  0  0
 11 13  1  0  0  0  0
 11 32  1  0  0  0  0
 12 33  1  0  0  0  0
 13 14  1  0  0  0  0
 13 34  1  0  0  0  0
 13 35  1  0  0  0  0
 14 15  1  0  0  0  0
 15 21  1  0  0  0  0
 15 16  2  0  0  0  0
 16 17  1  0  0  0  0
 16 36  1  0  0  0  0
 17 18  2  0  0  0  0
 17 37  1  0  0  0  0
 18 19  1  0  0  0  0
 18 20  1  0  0  0  0
 20 21  2  0  0  0  0
 20 38  1  0  0  0  0
 21 39  1  0  0  0  0
 22 23  1  0  0  0  0
 22 24  1  0  0  0  0
 23 40  1  0  0  0  0
 23 41  1  0  0  0  0
 23 42  1  0  0  0  0
 24 25  2  0  0  0  0
M  END
> <s_m_source_file>
AV-unprocessed.smi

> <i_m_source_file_index>
2192

> <i_lp_mmshare_version>
43012

> <i_f3d_flags>
0

> <s_epik_input>
Tz1jMW4oW0NIM10pYyg9TyluKFtDSDNdKWMoYzEyKW5bY0hdbjJbQ0gyXVtDQEhdKFtPSF0pW0NIMl1PYzNbY0hdW2NIXWMoRilbY0hdW2NIXTM=

> <s_epik_cmdline>
J2VwaWtfcHl0aG9uJywgJy1waCcsICc3LjAnLCAnLXRuJywgJzgnLCAnLW1hJywgJzIwMCcsICctbWV0YWxfYmluZGluZycsICctaW1hZScsICc8aW5maWxlLm1hZT4nLCAnLW9tYWUnLCAnPG91dGZpbGUubWFlPic=

> <r_lp_tautomer_probability>
1

> <r_epik_Ionization_Penalty>
1.0344e-06

> <r_epik_Ionization_Penalty_Charging>
3.2247e-09

> <r_epik_Ionization_Penalty_Neutral>
1.03118e-06

> <r_epik_State_Penalty>
-0

> <r_epik_Charging_Adjusted_Penalty>
3.2247e-09

> <i_epik_Tot_Q>
0

> <i_epik_Tot_abs_Q>
0

> <r_epik_Metal_State_Penalty>
-0

> <b_epik_Metal_Only>
0

> <s_lp_Force_Field>
OPLS_2005

> <r_lp_Energy>
39.8918

> <b_lp_Chiralities_Consistent>
1

> <s_lp_Variant>
AV-unprocessed.smi:2192-2

> <Gold.Version>
5.8.1

> <Gold.Id.Protein>
6NUR|6NUR_protein|mol2

> <Gold.PLP.Fitness>
48.4924

> <Gold.PLP.PLP>
-47.4437

> <Gold.PLP.part.hbond>
-2.5950

> <Gold.PLP.part.metal>
0.0000

> <Gold.PLP.part.buried>
-3.8438

> <Gold.PLP.part.nonpolar>
-40.2273

> <Gold.PLP.part.repulsive>
0.0482

> <Gold.PLP.ligand.clash>
0.0000

> <Gold.PLP.ligand.torsion>
0.5177

> <Gold.PLP.Chemscore.Hbond>
0.6650

> <Gold.PLP.Chemscore.CHOScore>
0.0000

> <Gold.PLP.Chemscore.Metal>
0.0000

> <Gold.Chemscore.Hbonds>
donor molecule, donor type, donor heavy atom, donor atom, acceptor molecule, acceptor atom, score
      P1  H  7997  8008       L1     7  0.60

> <Gold.PLP.Chemscore.Internal.Correction>
0.0890

> <Gold.Rescore>
     Score         DG    S(hbond)    S(metal)    S(lipo)     H(rot)  DE(clash)    DE(int)     intcor
      4.71      -6.44       0.03        0.00      70.37       2.88       1.16       0.57       ----

> <Gold.Chemscore.Fitness>
4.7068

> <Gold.Chemscore.DG>
-6.4367

> <Gold.Chemscore.ZeroCoef>
-5.4800

> <Gold.Chemscore.Hbond>
0.0258

> <Gold.Chemscore.Metal>
0.0000

> <Gold.Chemscore.Lipo>
70.3745

> <Gold.Chemscore.Internal_Hbond>
0.0000

> <Gold.Chemscore.DEClash>
1.1606

> <Gold.Chemscore.DEInternal>
0.5693

> <Gold.Chemscore.Rot>
2.8762

> <Gold.Chemscore.Internal.Correction>
   9.000000E+99

> <Gold.Chemscore.Hbonds>
donor molecule, donor type, donor heavy atom, donor atom, acceptor molecule, acceptor atom, score
      P1  H  7997  8008       L1     7  0.01

> <Gold.Chemscore.Hbond.Weighted>
-0.0861

> <Gold.Chemscore.Metal.Weighted>
-0.0000

> <Gold.Chemscore.Lipo.Weighted>
-8.2338

> <Gold.Chemscore.Internal_Hbond.Weighted>
0.0000

> <Gold.Chemscore.DEClash.Weighted>
1.1606

> <Gold.Chemscore.DEInternal.Weighted>
0.5693

> <Gold.Chemscore.Rot.Weighted>
7.3631

> <Gold.Chemscore.Internal.Correction.Weighted>
   9.000000E+99

> <Gold.Protein.RotatedTorsions>
[ 6907 6896 6895 6894 ] final   45.97 input  -60.11 | X-H torsion
[ 7974 7965 7964 7962 ] final  117.64 input  175.53 | X-H torsion
[ 8008 7997 7996 7995 ] final -116.91 input   59.86 | X-H torsion
[ 10167 10162 10161 10158 ] final   66.95 input  -65.29 | X-H torsion
[ 10718 10713 10712 10709 ] final  -95.31 input   66.30 | X-H torsion
[ 10763 10752 10751 10750 ] final  107.68 input  -60.55 | X-H torsion
[ 11005 11000 10999 10996 ] final  -49.46 input  -57.11 | X-H torsion

> <Gold.Protein.ActiveResidues>
 VAL166  LYS551  ARG553  GLY616  TRP617  ASP618  TYR619  PRO620  LYS621  CYS622 
 ASP623  PHE694  ASN695  SER759  ASP760  ASP761  ALA762  ILE779  LEU786  VAL792 
 PHE793  MET794  SER795  GLU796  ALA797  LYS798  CYS799  TRP800  GLU811  SER814 

> <Gold.Protein.RotatedAtoms>
  152.2508  134.8134  160.0445 H   0  0  0  0  0  0  0  0  0  0  0  0  # atno 6907 bound_to 6896
  151.8815  133.3491  159.3776 H   0  0  0  0  0  0  0  0  0  0  0  0  # atno 6908 bound_to 6896
  150.7083  134.4940  159.5574 H   0  0  0  0  0  0  0  0  0  0  0  0  # atno 6909 bound_to 6896
  145.1648  139.3134  143.4498 H   0  0  0  0  0  0  0  0  0  0  0  0  # atno 7974 bound_to 7965
  155.0753  140.0394  157.2622 H   0  0  0  0  0  0  0  0  0  0  0  0  # atno 8008 bound_to 7997
  154.6950  140.2661  155.6750 H   0  0  0  0  0  0  0  0  0  0  0  0  # atno 8009 bound_to 7997
  156.2741  140.2752  156.1541 H   0  0  0  0  0  0  0  0  0  0  0  0  # atno 8010 bound_to 7997
  140.0948  144.4956  150.7075 H   0  0  0  0  0  0  0  0  0  0  0  0  # atno 10167 bound_to 10162
  156.0041  130.5104  150.6057 H   0  0  0  0  0  0  0  0  0  0  0  0  # atno 10718 bound_to 10713
  153.4101  135.3836  155.2045 H   0  0  0  0  0  0  0  0  0  0  0  0  # atno 10763 bound_to 10752
  154.8737  135.3792  154.4511 H   0  0  0  0  0  0  0  0  0  0  0  0  # atno 10764 bound_to 10752
  153.5018  135.7088  153.5890 H   0  0  0  0  0  0  0  0  0  0  0  0  # atno 10765 bound_to 10752
  141.0760  133.6665  156.3588 H   0  0  0  0  0  0  0  0  0  0  0  0  # atno 11005 bound_to 11000
  146.3477  140.1772  142.8589 LP  0  0  0  0  0  0  0  0  0  0  0  0  # atno 17320 bound_to 7965
  145.0293  140.8858  143.5119 LP  0  0  0  0  0  0  0  0  0  0  0  0  # atno 17321 bound_to 7965
  140.7009  143.2434  151.4867 LP  0  0  0  0  0  0  0  0  0  0  0  0  # atno 17342 bound_to 10162
  139.5704  144.1942  152.1828 LP  0  0  0  0  0  0  0  0  0  0  0  0  # atno 17343 bound_to 10162
  157.3898  131.0794  151.1403 LP  0  0  0  0  0  0  0  0  0  0  0  0  # atno 17370 bound_to 10713
  157.2099  130.6433  149.5770 LP  0  0  0  0  0  0  0  0  0  0  0  0  # atno 17371 bound_to 10713
  140.5572  134.5970  157.5424 LP  0  0  0  0  0  0  0  0  0  0  0  0  # atno 17394 bound_to 11000
  139.9572  134.7514  156.0314 LP  0  0  0  0  0  0  0  0  0  0  0  0  # atno 17395 bound_to 11000

$$$$
