AV-unprocessed.smi:2362|AV-procd|sdf|9413|dock10
  -GOLD-   2272013 53D 1   1.00000     0.00000
 Structure written by MMmdl.
 45 46  0  0  0  0  0  0  0  0  2 V2000
  136.8917  137.5083  154.6453 C   0  0  0  0  0  0  0  0  0  0  0  0
  138.3373  137.6761  154.2262 C   0  0  0  0  0  0  0  0  0  0  0  0
  139.2623  136.6225  154.3550 C   0  0  0  0  0  0  0  0  0  0  0  0
  140.5942  136.8360  153.9505 C   0  0  0  0  0  0  0  0  0  0  0  0
  140.9694  138.0937  153.4272 C   0  0  0  0  0  0  0  0  0  0  0  0
  142.3351  138.2071  153.0526 N   0  0  0  0  0  0  0  0  0  0  0  0
  143.1909  137.2208  152.7321 C   0  0  0  0  0  0  0  0  0  0  0  0
  142.9294  136.0179  152.7486 O   0  0  0  0  0  0  0  0  0  0  0  0
  144.3880  137.7094  152.3721 N   0  0  0  0  0  0  0  0  0  0  0  0
  145.5561  136.9166  151.9842 C   0  0  2  0  0  0  0  0  0  0  0  0
  146.7269  137.8631  151.6864 C   0  0  0  0  0  0  0  0  0  0  0  0
  145.2487  136.0093  150.7698 C   0  0  0  0  0  0  0  0  0  0  0  0
  145.1059  134.5751  151.1301 N   0  3  0  0  0  0  0  0  0  0  0  0
  144.2107  133.8347  150.2040 C   0  0  0  0  0  0  0  0  0  0  0  0
  143.9623  132.4015  150.7050 C   0  0  0  0  0  0  0  0  0  0  0  0
  145.2849  131.6508  150.9086 C   0  0  0  0  0  0  0  0  0  0  0  0
  146.2068  132.4543  151.8353 C   0  0  0  0  0  0  0  0  0  0  0  0
  146.4101  133.8824  151.3032 C   0  0  0  0  0  0  0  0  0  0  0  0
  140.0712  139.1033  153.3090 N   0  0  0  0  0  0  0  0  0  0  0  0
  138.7948  138.8980  153.6964 C   0  0  0  0  0  0  0  0  0  0  0  0
  136.6939  136.4933  154.9916 H   0  0  0  0  0  0  0  0  0  0  0  0
  136.2277  137.7175  153.8063 H   0  0  0  0  0  0  0  0  0  0  0  0
  136.6513  138.1982  155.4544 H   0  0  0  0  0  0  0  0  0  0  0  0
  138.9611  135.6660  154.7565 H   0  0  0  0  0  0  0  0  0  0  0  0
  141.3163  136.0377  154.0431 H   0  0  0  0  0  0  0  0  0  0  0  0
  142.6960  139.1489  153.0124 H   0  0  0  0  0  0  0  0  0  0  0  0
  144.5103  138.7117  152.3891 H   0  0  0  0  0  0  0  0  0  0  0  0
  145.8623  136.2975  152.8284 H   0  0  0  0  0  0  0  0  0  0  0  0
  147.6297  137.3033  151.4403 H   0  0  0  0  0  0  0  0  0  0  0  0
  146.9560  138.4899  152.5492 H   0  0  0  0  0  0  0  0  0  0  0  0
  146.5049  138.5210  150.8454 H   0  0  0  0  0  0  0  0  0  0  0  0
  144.3203  136.3600  150.3161 H   0  0  0  0  0  0  0  0  0  0  0  0
  146.0173  136.1168  150.0026 H   0  0  0  0  0  0  0  0  0  0  0  0
  143.2542  134.3521  150.1218 H   0  0  0  0  0  0  0  0  0  0  0  0
  144.6508  133.8171  149.2058 H   0  0  0  0  0  0  0  0  0  0  0  0
  143.4119  132.4339  151.6463 H   0  0  0  0  0  0  0  0  0  0  0  0
  143.3327  131.8620  149.9968 H   0  0  0  0  0  0  0  0  0  0  0  0
  145.0975  130.6617  151.3276 H   0  0  0  0  0  0  0  0  0  0  0  0
  145.7734  131.4960  149.9457 H   0  0  0  0  0  0  0  0  0  0  0  0
  145.7764  132.4953  152.8371 H   0  0  0  0  0  0  0  0  0  0  0  0
  147.1692  131.9510  151.9321 H   0  0  0  0  0  0  0  0  0  0  0  0
  146.9405  133.8561  150.3500 H   0  0  0  0  0  0  0  0  0  0  0  0
  147.0419  134.4333  151.9994 H   0  0  0  0  0  0  0  0  0  0  0  0
  138.1208  139.7342  153.5803 H   0  0  0  0  0  0  0  0  0  0  0  0
  144.6490  134.5583  152.0311 H   0  0  0  0  0  0  0  0  0  0  0  0
  1  2  1  0  0  0  0
  1 21  1  0  0  0  0
  1 22  1  0  0  0  0
  1 23  1  0  0  0  0
  2 20  1  0  0  0  0
  2  3  2  0  0  0  0
  3  4  1  0  0  0  0
  3 24  1  0  0  0  0
  4  5  2  0  0  0  0
  4 25  1  0  0  0  0
  5  6  1  0  0  0  0
  5 19  1  0  0  0  0
  6  7  1  0  0  0  0
  6 26  1  0  0  0  0
  7  8  2  0  0  0  0
  7  9  1  0  0  0  0
  9 10  1  0  0  0  0
  9 27  1  0  0  0  0
 10 11  1  0  0  0  0
 10 12  1  0  0  0  0
 10 28  1  0  0  0  0
 11 29  1  0  0  0  0
 11 30  1  0  0  0  0
 11 31  1  0  0  0  0
 12 13  1  0  0  0  0
 12 32  1  0  0  0  0
 12 33  1  0  0  0  0
 13 18  1  0  0  0  0
 13 14  1  0  0  0  0
 13 45  1  0  0  0  0
 14 15  1  0  0  0  0
 14 34  1  0  0  0  0
 14 35  1  0  0  0  0
 15 16  1  0  0  0  0
 15 36  1  0  0  0  0
 15 37  1  0  0  0  0
 16 17  1  0  0  0  0
 16 38  1  0  0  0  0
 16 39  1  0  0  0  0
 17 18  1  0  0  0  0
 17 40  1  0  0  0  0
 17 41  1  0  0  0  0
 18 42  1  0  0  0  0
 18 43  1  0  0  0  0
 19 20  2  0  0  0  0
 20 44  1  0  0  0  0
M  CHG  1  13   1
M  END
> <s_m_source_file>
AV-unprocessed.smi

> <i_m_source_file_index>
2362

> <i_lp_mmshare_version>
43012

> <i_f3d_flags>
0

> <s_epik_input>
W0NIM11jMVtjSF1bY0hdYyhuW2NIXTEpW05IXUMoPU8pW05IXVtDQEhdKFtDSDNdKVtDSDJdTjJbQ0gyXVtDSDJdW0NIMl1bQ0gyXVtDSDJdMg==

> <s_epik_cmdline>
J2VwaWtfcHl0aG9uJywgJy1waCcsICc3LjAnLCAnLXRuJywgJzgnLCAnLW1hJywgJzIwMCcsICctbWV0YWxfYmluZGluZycsICctaW1hZScsICc8aW5maWxlLm1hZT4nLCAnLW9tYWUnLCAnPG91dGZpbGUubWFlPic=

> <r_epik_Ionization_Penalty>
0.00215987

> <r_epik_Ionization_Penalty_Charging>
0.00211816

> <r_epik_Ionization_Penalty_Neutral>
4.17101e-05

> <r_epik_State_Penalty>
0.00145254

> <r_epik_Charging_Adjusted_Penalty>
0.0035707

> <i_epik_Tot_Q>
1

> <i_epik_Tot_abs_Q>
1

> <r_epik_Metal_State_Penalty>
-0

> <b_epik_Metal_Only>
0

> <s_lp_Force_Field>
OPLS_2005

> <r_lp_Energy>
24.6446

> <b_lp_Chiralities_Consistent>
1

> <s_lp_Variant>
AV-unprocessed.smi:2362-1

> <Gold.Version>
5.8.1

> <Gold.Id.Protein>
6NUR|6NUR_protein|mol2

> <Gold.PLP.Fitness>
44.2457

> <Gold.PLP.PLP>
-40.4284

> <Gold.PLP.part.hbond>
-3.0000

> <Gold.PLP.part.metal>
0.0000

> <Gold.PLP.part.buried>
-3.0261

> <Gold.PLP.part.nonpolar>
-36.2509

> <Gold.PLP.part.repulsive>
2.6816

> <Gold.PLP.ligand.clash>
0.0000

> <Gold.PLP.ligand.torsion>
1.0444

> <Gold.PLP.Chemscore.Hbond>
1.9600

> <Gold.PLP.Chemscore.CHOScore>
0.0000

> <Gold.PLP.Chemscore.Metal>
0.0000

> <Gold.Chemscore.Hbonds>
donor molecule, donor type, donor heavy atom, donor atom, acceptor molecule, acceptor atom, score
      L1  H     6    26       P1 10175  1.00
      L1  H     9    27       P1 10175  0.93

> <Gold.PLP.Chemscore.Internal.Correction>
0.0261

> <Gold.Rescore>
     Score         DG    S(hbond)    S(metal)    S(lipo)     H(rot)  DE(clash)    DE(int)     intcor
     15.13     -19.23       1.95        0.00      93.27       1.44       1.73       2.37       ----

> <Gold.Chemscore.Fitness>
15.1332

> <Gold.Chemscore.DG>
-19.2295

> <Gold.Chemscore.ZeroCoef>
-5.4800

> <Gold.Chemscore.Hbond>
1.9534

> <Gold.Chemscore.Metal>
0.0000

> <Gold.Chemscore.Lipo>
93.2701

> <Gold.Chemscore.Internal_Hbond>
0.0000

> <Gold.Chemscore.DEClash>
1.7264

> <Gold.Chemscore.DEInternal>
2.3698

> <Gold.Chemscore.Rot>
1.4404

> <Gold.Chemscore.Internal.Correction>
   9.000000E+99

> <Gold.Chemscore.Hbonds>
donor molecule, donor type, donor heavy atom, donor atom, acceptor molecule, acceptor atom, score
      L1  H     6    26       P1 10175  0.99
      L1  H     9    27       P1 10175  0.91

> <Gold.Chemscore.Hbond.Weighted>
-6.5244

> <Gold.Chemscore.Metal.Weighted>
-0.0000

> <Gold.Chemscore.Lipo.Weighted>
-10.9126

> <Gold.Chemscore.Internal_Hbond.Weighted>
0.0000

> <Gold.Chemscore.DEClash.Weighted>
1.7264

> <Gold.Chemscore.DEInternal.Weighted>
2.3698

> <Gold.Chemscore.Rot.Weighted>
3.6875

> <Gold.Chemscore.Internal.Correction.Weighted>
   9.000000E+99

> <Gold.Protein.RotatedTorsions>
[ 6907 6896 6895 6894 ] final  -43.53 input  -60.11 | X-H torsion
[ 7974 7965 7964 7962 ] final  110.60 input  175.53 | X-H torsion
[ 8008 7997 7996 7995 ] final    3.44 input   59.86 | X-H torsion
[ 10167 10162 10161 10158 ] final -179.25 input  -65.29 | X-H torsion
[ 10718 10713 10712 10709 ] final -147.87 input   66.30 | X-H torsion
[ 10763 10752 10751 10750 ] final  -56.84 input  -60.55 | X-H torsion
[ 11005 11000 10999 10996 ] final -126.51 input  -57.11 | X-H torsion

> <Gold.Protein.ActiveResidues>
 VAL166  LYS551  ARG553  GLY616  TRP617  ASP618  TYR619  PRO620  LYS621  CYS622 
 ASP623  PHE694  ASN695  SER759  ASP760  ASP761  ALA762  ILE779  LEU786  VAL792 
 PHE793  MET794  SER795  GLU796  ALA797  LYS798  CYS799  TRP800  GLU811  SER814 

> <Gold.Protein.RotatedAtoms>
  150.9429  134.8836  159.7623 H   0  0  0  0  0  0  0  0  0  0  0  0  # atno 6907 bound_to 6896
  152.5087  134.3916  159.9396 H   0  0  0  0  0  0  0  0  0  0  0  0  # atno 6908 bound_to 6896
  151.3936  133.3740  159.2759 H   0  0  0  0  0  0  0  0  0  0  0  0  # atno 6909 bound_to 6896
  145.2529  139.2732  143.4058 H   0  0  0  0  0  0  0  0  0  0  0  0  # atno 7974 bound_to 7965
  154.7037  140.2678  155.6695 H   0  0  0  0  0  0  0  0  0  0  0  0  # atno 8008 bound_to 7997
  156.2773  140.2767  156.1580 H   0  0  0  0  0  0  0  0  0  0  0  0  # atno 8009 bound_to 7997
  155.0729  140.0372  157.2604 H   0  0  0  0  0  0  0  0  0  0  0  0  # atno 8010 bound_to 7997
  139.5395  144.2404  152.0865 H   0  0  0  0  0  0  0  0  0  0  0  0  # atno 10167 bound_to 10162
  156.4131  130.7991  151.2210 H   0  0  0  0  0  0  0  0  0  0  0  0  # atno 10718 bound_to 10713
  154.2130  135.6391  153.5121 H   0  0  0  0  0  0  0  0  0  0  0  0  # atno 10763 bound_to 10752
  152.9985  135.5478  154.6195 H   0  0  0  0  0  0  0  0  0  0  0  0  # atno 10764 bound_to 10752
  154.5636  135.2911  155.0869 H   0  0  0  0  0  0  0  0  0  0  0  0  # atno 10765 bound_to 10752
  140.9675  134.0851  157.3904 H   0  0  0  0  0  0  0  0  0  0  0  0  # atno 11005 bound_to 11000
  146.3297  140.2925  142.8616 LP  0  0  0  0  0  0  0  0  0  0  0  0  # atno 17320 bound_to 7965
  144.9487  140.8155  143.5585 LP  0  0  0  0  0  0  0  0  0  0  0  0  # atno 17321 bound_to 7965
  140.1880  144.4780  150.6494 LP  0  0  0  0  0  0  0  0  0  0  0  0  # atno 17342 bound_to 10162
  140.6618  143.2254  151.5839 LP  0  0  0  0  0  0  0  0  0  0  0  0  # atno 17343 bound_to 10162
  157.7507  131.0251  150.3906 LP  0  0  0  0  0  0  0  0  0  0  0  0  # atno 17370 bound_to 10713
  156.4209  130.3952  149.6826 LP  0  0  0  0  0  0  0  0  0  0  0  0  # atno 17371 bound_to 10713
  139.8900  135.0109  156.6711 LP  0  0  0  0  0  0  0  0  0  0  0  0  # atno 17394 bound_to 11000
  140.7377  133.9004  155.8256 LP  0  0  0  0  0  0  0  0  0  0  0  0  # atno 17395 bound_to 11000

$$$$
