AV-unprocessed.smi:2718|AV-procd|sdf|10488|dock2
  -GOLD-   2272014533D 1   1.00000     0.00000
 Structure written by MMmdl.
 47 48  0  0  0  0  0  0  0  0  1 V2000
  154.4905  136.8717  163.9740 C   0  0  0  0  0  0  0  0  0  0  0  0
  155.6442  137.7813  163.6001 C   0  0  0  0  0  0  0  0  0  0  0  0
  156.5057  138.2262  164.7695 C   0  0  0  0  0  0  0  0  0  0  0  0
  155.8720  138.1451  162.3234 C   0  0  0  0  0  0  0  0  0  0  0  0
  156.9849  139.0108  161.8358 C   0  0  2  0  0  0  0  0  0  0  0  0
  156.8124  140.1053  160.7916 C   0  0  2  0  0  0  0  0  0  0  0  0
  155.4814  140.3462  160.1350 C   0  0  0  0  0  0  0  0  0  0  0  0
  155.0175  139.6588  159.2253 O   0  0  0  0  0  0  0  0  0  0  0  0
  154.8284  141.4025  160.6428 N   0  0  0  0  0  0  0  0  0  0  0  0
  153.5415  141.9202  160.1832 C   0  0  0  0  0  0  0  0  0  0  0  0
  152.9168  142.9805  161.1199 C   0  0  2  0  0  0  0  0  0  0  0  0
  152.8652  142.4924  162.5746 C   0  0  0  0  0  0  0  0  0  0  0  0
  151.5706  143.4646  160.6519 C   0  0  0  0  0  0  0  0  0  0  0  0
  150.4553  143.3849  161.3903 N   0  0  0  0  0  0  0  0  0  0  0  0
  149.4545  143.9374  160.6170 N   0  0  0  0  0  0  0  0  0  0  0  0
  150.0668  144.3109  159.4945 C   0  0  0  0  0  0  0  0  0  0  0  0
  151.3823  144.0540  159.4524 N   0  0  0  0  0  0  0  0  0  0  0  0
  152.3248  144.3476  158.3917 C   0  0  0  0  0  0  0  0  0  0  0  0
  157.6343  138.8591  160.4678 C   0  0  0  0  0  0  0  0  0  0  0  0
  159.1398  139.0281  160.3492 C   0  0  0  0  0  0  0  0  0  0  0  0
  157.1842  137.7873  159.4760 C   0  0  0  0  0  0  0  0  0  0  0  0
  154.8654  135.9581  164.4358 H   0  0  0  0  0  0  0  0  0  0  0  0
  153.8996  136.5921  163.1010 H   0  0  0  0  0  0  0  0  0  0  0  0
  153.8297  137.3679  164.6844 H   0  0  0  0  0  0  0  0  0  0  0  0
  155.8848  138.6716  165.5461 H   0  0  0  0  0  0  0  0  0  0  0  0
  157.2537  138.9651  164.4834 H   0  0  0  0  0  0  0  0  0  0  0  0
  157.0227  137.3692  165.2015 H   0  0  0  0  0  0  0  0  0  0  0  0
  155.1975  137.7737  161.5672 H   0  0  0  0  0  0  0  0  0  0  0  0
  157.6589  139.2544  162.6550 H   0  0  0  0  0  0  0  0  0  0  0  0
  157.3871  141.0117  160.9787 H   0  0  0  0  0  0  0  0  0  0  0  0
  155.2707  141.9063  161.3979 H   0  0  0  0  0  0  0  0  0  0  0  0
  153.7177  142.3643  159.2033 H   0  0  0  0  0  0  0  0  0  0  0  0
  152.8465  141.0942  160.0239 H   0  0  0  0  0  0  0  0  0  0  0  0
  153.5973  143.8309  161.1142 H   0  0  0  0  0  0  0  0  0  0  0  0
  152.5081  143.2802  163.2386 H   0  0  0  0  0  0  0  0  0  0  0  0
  153.8532  142.1898  162.9224 H   0  0  0  0  0  0  0  0  0  0  0  0
  152.1975  141.6373  162.6833 H   0  0  0  0  0  0  0  0  0  0  0  0
  149.5402  144.7899  158.6821 H   0  0  0  0  0  0  0  0  0  0  0  0
  151.8229  144.8694  157.5765 H   0  0  0  0  0  0  0  0  0  0  0  0
  152.7502  143.4194  158.0102 H   0  0  0  0  0  0  0  0  0  0  0  0
  153.1257  144.9799  158.7752 H   0  0  0  0  0  0  0  0  0  0  0  0
  159.4093  139.3344  159.3380 H   0  0  0  0  0  0  0  0  0  0  0  0
  159.6483  138.0909  160.5777 H   0  0  0  0  0  0  0  0  0  0  0  0
  159.5015  139.7874  161.0433 H   0  0  0  0  0  0  0  0  0  0  0  0
  157.3330  138.1370  158.4540 H   0  0  0  0  0  0  0  0  0  0  0  0
  156.1372  137.5168  159.5902 H   0  0  0  0  0  0  0  0  0  0  0  0
  157.7684  136.8771  159.6145 H   0  0  0  0  0  0  0  0  0  0  0  0
  1  2  1  0  0  0  0
  1 22  1  0  0  0  0
  1 23  1  0  0  0  0
  1 24  1  0  0  0  0
  2  3  1  0  0  0  0
  2  4  2  0  0  0  0
  3 25  1  0  0  0  0
  3 26  1  0  0  0  0
  3 27  1  0  0  0  0
  4  5  1  0  0  0  0
  4 28  1  0  0  0  0
  5 19  1  0  0  0  0
  5  6  1  0  0  0  0
  5 29  1  0  0  0  0
  6  7  1  0  0  0  0
  6 19  1  0  0  0  0
  6 30  1  0  0  0  0
  7  8  2  0  0  0  0
  7  9  1  0  0  0  0
  9 10  1  0  0  0  0
  9 31  1  0  0  0  0
 10 11  1  0  0  0  0
 10 32  1  0  0  0  0
 10 33  1  0  0  0  0
 11 12  1  0  0  0  0
 11 13  1  0  0  0  0
 11 34  1  0  0  0  0
 12 35  1  0  0  0  0
 12 36  1  0  0  0  0
 12 37  1  0  0  0  0
 13 17  1  0  0  0  0
 13 14  2  0  0  0  0
 14 15  1  0  0  0  0
 15 16  2  0  0  0  0
 16 17  1  0  0  0  0
 16 38  1  0  0  0  0
 17 18  1  0  0  0  0
 18 39  1  0  0  0  0
 18 40  1  0  0  0  0
 18 41  1  0  0  0  0
 19 20  1  0  0  0  0
 19 21  1  0  0  0  0
 20 42  1  0  0  0  0
 20 43  1  0  0  0  0
 20 44  1  0  0  0  0
 21 45  1  0  0  0  0
 21 46  1  0  0  0  0
 21 47  1  0  0  0  0
M  END
> <s_m_source_file>
AV-unprocessed.smi

> <i_m_source_file_index>
2718

> <i_lp_mmshare_version>
43012

> <i_f3d_flags>
0

> <s_epik_input>
W0NIM11DKFtDSDNdKT1bQ0hdW0NAQEhdKEMxKFtDSDNdKVtDSDNdKVtDQEhdMUMoPU8pW05IXVtDSDJdW0NASF0oW0NIM10pYzJubltjSF1uMltDSDNd

> <s_epik_cmdline>
J2VwaWtfcHl0aG9uJywgJy1waCcsICc3LjAnLCAnLXRuJywgJzgnLCAnLW1hJywgJzIwMCcsICctbWV0YWxfYmluZGluZycsICctaW1hZScsICc8aW5maWxlLm1hZT4nLCAnLW9tYWUnLCAnPG91dGZpbGUubWFlPic=

> <r_lp_tautomer_probability>
1

> <r_epik_Ionization_Penalty>
0.000449586

> <r_epik_Ionization_Penalty_Charging>
0

> <r_epik_Ionization_Penalty_Neutral>
0.000449586

> <r_epik_State_Penalty>
0.000243372

> <r_epik_Charging_Adjusted_Penalty>
0.000243372

> <i_epik_Tot_Q>
0

> <i_epik_Tot_abs_Q>
0

> <r_epik_Metal_State_Penalty>
-0

> <b_epik_Metal_Only>
0

> <s_lp_Force_Field>
OPLS_2005

> <r_lp_Energy>
15.3261

> <b_lp_Chiralities_Consistent>
1

> <s_lp_Variant>
AV-unprocessed.smi:2718-3

> <Gold.Version>
5.8.1

> <Gold.Id.Protein>
6NUR|6NUR_protein|mol2

> <Gold.PLP.Fitness>
49.3493

> <Gold.PLP.PLP>
-44.3812

> <Gold.PLP.part.hbond>
-3.1556

> <Gold.PLP.part.metal>
0.0000

> <Gold.PLP.part.buried>
-5.8241

> <Gold.PLP.part.nonpolar>
-35.1906

> <Gold.PLP.part.repulsive>
0.3962

> <Gold.PLP.ligand.clash>
0.0000

> <Gold.PLP.ligand.torsion>
0.7095

> <Gold.PLP.Chemscore.Hbond>
1.0029

> <Gold.PLP.Chemscore.CHOScore>
1.0000

> <Gold.PLP.Chemscore.Metal>
0.0000

> <Gold.Chemscore.Hbonds>
donor molecule, donor type, donor heavy atom, donor atom, acceptor molecule, acceptor atom, score
      P1  H  7997  8008       L1     8  1.00
      L1  C    16    38       P1  8029  1.00

> <Gold.PLP.Chemscore.Internal.Correction>
0.3785

> <Gold.Rescore>
     Score         DG    S(hbond)    S(metal)    S(lipo)     H(rot)  DE(clash)    DE(int)     intcor
     12.34     -14.49       1.04        0.00      90.17       1.95       0.14       2.02       ----

> <Gold.Chemscore.Fitness>
12.3367

> <Gold.Chemscore.DG>
-14.4930

> <Gold.Chemscore.ZeroCoef>
-5.4800

> <Gold.Chemscore.Hbond>
1.0372

> <Gold.Chemscore.Metal>
0.0000

> <Gold.Chemscore.Lipo>
90.1653

> <Gold.Chemscore.Internal_Hbond>
0.0000

> <Gold.Chemscore.DEClash>
0.1363

> <Gold.Chemscore.DEInternal>
2.0200

> <Gold.Chemscore.Rot>
1.9533

> <Gold.Chemscore.Internal.Correction>
   9.000000E+99

> <Gold.Chemscore.Hbonds>
donor molecule, donor type, donor heavy atom, donor atom, acceptor molecule, acceptor atom, score
      P1  H  6933  6945       L1    14  0.05
      P1  H  7997  8008       L1     8  0.99

> <Gold.Chemscore.Hbond.Weighted>
-3.4642

> <Gold.Chemscore.Metal.Weighted>
-0.0000

> <Gold.Chemscore.Lipo.Weighted>
-10.5493

> <Gold.Chemscore.Internal_Hbond.Weighted>
0.0000

> <Gold.Chemscore.DEClash.Weighted>
0.1363

> <Gold.Chemscore.DEInternal.Weighted>
2.0200

> <Gold.Chemscore.Rot.Weighted>
5.0005

> <Gold.Chemscore.Internal.Correction.Weighted>
   9.000000E+99

> <Gold.Protein.RotatedTorsions>
[ 6907 6896 6895 6894 ] final  135.73 input  -60.11 | X-H torsion
[ 7974 7965 7964 7962 ] final   77.23 input  175.53 | X-H torsion
[ 8008 7997 7996 7995 ] final -130.58 input   59.86 | X-H torsion
[ 10167 10162 10161 10158 ] final  -36.78 input  -65.29 | X-H torsion
[ 10718 10713 10712 10709 ] final  -32.84 input   66.30 | X-H torsion
[ 10763 10752 10751 10750 ] final   46.88 input  -60.55 | X-H torsion
[ 11005 11000 10999 10996 ] final   41.72 input  -57.11 | X-H torsion

> <Gold.Protein.ActiveResidues>
 VAL166  LYS551  ARG553  GLY616  TRP617  ASP618  TYR619  PRO620  LYS621  CYS622 
 ASP623  PHE694  ASN695  SER759  ASP760  ASP761  ALA762  ILE779  LEU786  VAL792 
 PHE793  MET794  SER795  GLU796  ALA797  LYS798  CYS799  TRP800  GLU811  SER814 

> <Gold.Protein.RotatedAtoms>
  152.2972  133.5619  159.5594 H   0  0  0  0  0  0  0  0  0  0  0  0  # atno 6907 bound_to 6896
  150.7261  134.0344  159.3753 H   0  0  0  0  0  0  0  0  0  0  0  0  # atno 6908 bound_to 6896
  151.8246  135.0641  160.0480 H   0  0  0  0  0  0  0  0  0  0  0  0  # atno 6909 bound_to 6896
  145.6926  139.2557  143.1751 H   0  0  0  0  0  0  0  0  0  0  0  0  # atno 7974 bound_to 7965
  155.2981  140.0451  157.3027 H   0  0  0  0  0  0  0  0  0  0  0  0  # atno 8008 bound_to 7997
  154.5502  140.2315  155.8464 H   0  0  0  0  0  0  0  0  0  0  0  0  # atno 8009 bound_to 7997
  156.1960  140.3038  155.9436 H   0  0  0  0  0  0  0  0  0  0  0  0  # atno 8010 bound_to 7997
  140.7134  143.3386  151.2408 H   0  0  0  0  0  0  0  0  0  0  0  0  # atno 10167 bound_to 10162
  156.3700  130.4338  149.7553 H   0  0  0  0  0  0  0  0  0  0  0  0  # atno 10718 bound_to 10713
  152.9805  135.5994  154.3672 H   0  0  0  0  0  0  0  0  0  0  0  0  # atno 10763 bound_to 10752
  154.3349  135.2768  155.2455 H   0  0  0  0  0  0  0  0  0  0  0  0  # atno 10764 bound_to 10752
  154.4562  135.5977  153.6280 H   0  0  0  0  0  0  0  0  0  0  0  0  # atno 10765 bound_to 10752
  140.1808  134.4107  155.8201 H   0  0  0  0  0  0  0  0  0  0  0  0  # atno 11005 bound_to 11000
  146.0868  140.7701  142.9615 LP  0  0  0  0  0  0  0  0  0  0  0  0  # atno 17320 bound_to 7965
  144.6992  140.3575  143.7170 LP  0  0  0  0  0  0  0  0  0  0  0  0  # atno 17321 bound_to 7965
  139.6887  143.9729  152.2848 LP  0  0  0  0  0  0  0  0  0  0  0  0  # atno 17342 bound_to 10162
  139.9383  144.6698  150.8292 LP  0  0  0  0  0  0  0  0  0  0  0  0  # atno 17343 bound_to 10162
  156.4684  130.7985  151.3003 LP  0  0  0  0  0  0  0  0  0  0  0  0  # atno 17370 bound_to 10713
  157.7483  131.0043  150.3072 LP  0  0  0  0  0  0  0  0  0  0  0  0  # atno 17371 bound_to 10713
  141.2223  133.6999  156.7926 LP  0  0  0  0  0  0  0  0  0  0  0  0  # atno 17394 bound_to 11000
  140.2270  134.8714  157.3437 LP  0  0  0  0  0  0  0  0  0  0  0  0  # atno 17395 bound_to 11000

$$$$
