AV-unprocessed.smi:2229|AV-procd|sdf|9028|dock6
  -GOLD-   2272012233D 1   1.00000     0.00000
 Structure written by MMmdl.
 44 45  0  0  0  0  0  0  0  0  1 V2000
  152.4243  143.4945  161.4571 C   0  0  0  0  0  0  0  0  0  0  0  0
  152.3418  143.9878  160.0019 C   0  0  0  0  0  0  0  0  0  0  0  0
  151.9353  145.4687  159.9622 C   0  0  0  0  0  0  0  0  0  0  0  0
  151.3882  143.1366  159.1370 C   0  0  0  0  0  0  0  0  0  0  0  0
  151.8459  141.6778  158.9679 C   0  0  0  0  0  0  0  0  0  0  0  0
  151.0573  140.8868  157.9000 C   0  0  1  0  0  0  0  0  0  0  0  0
  151.3395  141.3258  156.4593 C   0  0  0  0  0  0  0  0  0  0  0  0
  150.8151  140.1726  155.6101 C   0  0  0  0  0  0  0  0  0  0  0  0
  151.1567  138.9139  156.4104 C   0  0  0  0  0  0  0  0  0  0  0  0
  151.2658  139.3481  157.8864 C   0  0  1  0  0  0  0  0  0  0  0  0
  152.5608  138.9423  158.4360 N   0  0  0  0  0  0  0  0  0  0  0  0
  152.7677  137.9063  159.2638 C   0  0  0  0  0  0  0  0  0  0  0  0
  151.8812  137.1242  159.6083 O   0  0  0  0  0  0  0  0  0  0  0  0
  154.1966  137.7276  159.7868 C   0  0  0  0  0  0  0  0  0  0  0  0
  154.7330  138.9760  160.3308 N   0  0  0  0  0  0  0  0  0  0  0  0
  154.1865  139.6329  161.4127 C   0  0  0  0  0  0  0  0  0  0  0  0
  154.8232  140.7202  161.6870 N   0  0  0  0  0  0  0  0  0  0  0  0
  155.7945  140.7393  160.7429 N   0  0  0  0  0  0  0  0  0  0  0  0
  155.7664  139.6998  159.9078 C   0  0  0  0  0  0  0  0  0  0  0  0
  156.5239  139.4697  158.9668 O   0  0  0  0  0  0  0  0  0  0  0  0
  156.4526  141.5052  160.7266 H   0  0  0  0  0  0  0  0  0  0  0  0
  151.4434  143.4977  161.9332 H   0  0  0  0  0  0  0  0  0  0  0  0
  153.0815  144.1323  162.0485 H   0  0  0  0  0  0  0  0  0  0  0  0
  152.8235  142.4828  161.5211 H   0  0  0  0  0  0  0  0  0  0  0  0
  153.3412  143.9169  159.5701 H   0  0  0  0  0  0  0  0  0  0  0  0
  150.9392  145.6173  160.3804 H   0  0  0  0  0  0  0  0  0  0  0  0
  151.9281  145.8496  158.9405 H   0  0  0  0  0  0  0  0  0  0  0  0
  152.6314  146.0833  160.5342 H   0  0  0  0  0  0  0  0  0  0  0  0
  150.3834  143.1609  159.5601 H   0  0  0  0  0  0  0  0  0  0  0  0
  151.3127  143.5955  158.1510 H   0  0  0  0  0  0  0  0  0  0  0  0
  152.9094  141.6626  158.7273 H   0  0  0  0  0  0  0  0  0  0  0  0
  151.7353  141.1671  159.9236 H   0  0  0  0  0  0  0  0  0  0  0  0
  149.9947  141.0547  158.0835 H   0  0  0  0  0  0  0  0  0  0  0  0
  150.8627  142.2730  156.2054 H   0  0  0  0  0  0  0  0  0  0  0  0
  152.4134  141.4393  156.3038 H   0  0  0  0  0  0  0  0  0  0  0  0
  149.7327  140.2589  155.5068 H   0  0  0  0  0  0  0  0  0  0  0  0
  151.2440  140.1613  154.6076 H   0  0  0  0  0  0  0  0  0  0  0  0
  150.4043  138.1371  156.2702 H   0  0  0  0  0  0  0  0  0  0  0  0
  152.1036  138.5062  156.0521 H   0  0  0  0  0  0  0  0  0  0  0  0
  150.4616  138.8766  158.4544 H   0  0  0  0  0  0  0  0  0  0  0  0
  153.3516  139.5273  158.2077 H   0  0  0  0  0  0  0  0  0  0  0  0
  154.1949  136.9441  160.5463 H   0  0  0  0  0  0  0  0  0  0  0  0
  154.8515  137.3801  158.9856 H   0  0  0  0  0  0  0  0  0  0  0  0
  153.3150  139.2122  161.9172 H   0  0  0  0  0  0  0  0  0  0  0  0
  1  2  1  0  0  0  0
  1 22  1  0  0  0  0
  1 23  1  0  0  0  0
  1 24  1  0  0  0  0
  2  3  1  0  0  0  0
  2  4  1  0  0  0  0
  2 25  1  0  0  0  0
  3 26  1  0  0  0  0
  3 27  1  0  0  0  0
  3 28  1  0  0  0  0
  4  5  1  0  0  0  0
  4 29  1  0  0  0  0
  4 30  1  0  0  0  0
  5  6  1  0  0  0  0
  5 31  1  0  0  0  0
  5 32  1  0  0  0  0
  6 10  1  0  0  0  0
  6  7  1  0  0  0  0
  6 33  1  0  0  0  0
  7  8  1  0  0  0  0
  7 34  1  0  0  0  0
  7 35  1  0  0  0  0
  8  9  1  0  0  0  0
  8 36  1  0  0  0  0
  8 37  1  0  0  0  0
  9 10  1  0  0  0  0
  9 38  1  0  0  0  0
  9 39  1  0  0  0  0
 10 11  1  0  0  0  0
 10 40  1  0  0  0  0
 11 12  1  0  0  0  0
 11 41  1  0  0  0  0
 12 13  2  0  0  0  0
 12 14  1  0  0  0  0
 14 15  1  0  0  0  0
 14 42  1  0  0  0  0
 14 43  1  0  0  0  0
 15 19  1  0  0  0  0
 15 16  1  0  0  0  0
 16 17  2  0  0  0  0
 16 44  1  0  0  0  0
 17 18  1  0  0  0  0
 18 21  1  0  0  0  0
 18 19  1  0  0  0  0
 19 20  2  0  0  0  0
M  END
> <s_m_source_file>
AV-unprocessed.smi

> <i_m_source_file_index>
2229

> <i_lp_mmshare_version>
43012

> <i_f3d_flags>
0

> <s_epik_input>
W0NIM11bQ0hdKFtDSDNdKVtDSDJdW0NIMl1bQ0BASF0xW0NIMl1bQ0gyXVtDSDJdW0NASF0xW05IXUMoPU8pW0NIMl1uMltjSF1uW25IXWMyPU8=

> <s_epik_cmdline>
J2VwaWtfcHl0aG9uJywgJy1waCcsICc3LjAnLCAnLXRuJywgJzgnLCAnLW1hJywgJzIwMCcsICctbWV0YWxfYmluZGluZycsICctaW1hZScsICc8aW5maWxlLm1hZT4nLCAnLW9tYWUnLCAnPG91dGZpbGUubWFlPic=

> <r_lp_tautomer_probability>
1

> <r_epik_Ionization_Penalty>
4.14174e-05

> <r_epik_Ionization_Penalty_Charging>
4.13165e-05

> <r_epik_Ionization_Penalty_Neutral>
1.00911e-07

> <r_epik_State_Penalty>
-0

> <r_epik_Charging_Adjusted_Penalty>
4.13165e-05

> <i_epik_Tot_Q>
0

> <i_epik_Tot_abs_Q>
0

> <r_epik_Metal_State_Penalty>
0.0399369

> <b_epik_Metal_Only>
0

> <s_lp_Force_Field>
OPLS_2005

> <r_lp_Energy>
36.1569

> <b_lp_Chiralities_Consistent>
1

> <s_lp_Variant>
AV-unprocessed.smi:2229-2

> <Gold.Version>
5.8.1

> <Gold.Id.Protein>
6NUR|6NUR_protein|mol2

> <Gold.PLP.Fitness>
42.3987

> <Gold.PLP.PLP>
-37.2703

> <Gold.PLP.part.hbond>
-4.0000

> <Gold.PLP.part.metal>
0.0000

> <Gold.PLP.part.buried>
-6.4365

> <Gold.PLP.part.nonpolar>
-27.3647

> <Gold.PLP.part.repulsive>
0.1791

> <Gold.PLP.ligand.clash>
0.0000

> <Gold.PLP.ligand.torsion>
0.4431

> <Gold.PLP.Chemscore.Hbond>
1.9913

> <Gold.PLP.Chemscore.CHOScore>
0.0000

> <Gold.PLP.Chemscore.Metal>
0.0000

> <Gold.Chemscore.Hbonds>
donor molecule, donor type, donor heavy atom, donor atom, acceptor molecule, acceptor atom, score
      P1  H  6896  6907       L1    13  1.00
      P1  H  7997  8008       L1    20  1.00

> <Gold.PLP.Chemscore.Internal.Correction>
0.0409

> <Gold.Rescore>
     Score         DG    S(hbond)    S(metal)    S(lipo)     H(rot)  DE(clash)    DE(int)     intcor
     15.02     -15.58       1.98        0.00      87.55       2.64       0.03       0.53       ----

> <Gold.Chemscore.Fitness>
15.0212

> <Gold.Chemscore.DG>
-15.5838

> <Gold.Chemscore.ZeroCoef>
-5.4800

> <Gold.Chemscore.Hbond>
1.9793

> <Gold.Chemscore.Metal>
0.0000

> <Gold.Chemscore.Lipo>
87.5468

> <Gold.Chemscore.Internal_Hbond>
0.0000

> <Gold.Chemscore.DEClash>
0.0284

> <Gold.Chemscore.DEInternal>
0.5343

> <Gold.Chemscore.Rot>
2.6368

> <Gold.Chemscore.Internal.Correction>
   9.000000E+99

> <Gold.Chemscore.Hbonds>
donor molecule, donor type, donor heavy atom, donor atom, acceptor molecule, acceptor atom, score
      P1  H  6896  6907       L1    13  0.95
      P1  H  7997  8008       L1    20  0.42

> <Gold.Chemscore.Hbond.Weighted>
-6.6109

> <Gold.Chemscore.Metal.Weighted>
-0.0000

> <Gold.Chemscore.Lipo.Weighted>
-10.2430

> <Gold.Chemscore.Internal_Hbond.Weighted>
0.0000

> <Gold.Chemscore.DEClash.Weighted>
0.0284

> <Gold.Chemscore.DEInternal.Weighted>
0.5343

> <Gold.Chemscore.Rot.Weighted>
6.7501

> <Gold.Chemscore.Internal.Correction.Weighted>
   9.000000E+99

> <Gold.Protein.RotatedTorsions>
[ 6907 6896 6895 6894 ] final    5.19 input  -60.11 | X-H torsion
[ 7974 7965 7964 7962 ] final    4.82 input  175.53 | X-H torsion
[ 8008 7997 7996 7995 ] final -140.63 input   59.86 | X-H torsion
[ 10167 10162 10161 10158 ] final  148.73 input  -65.29 | X-H torsion
[ 10718 10713 10712 10709 ] final   92.76 input   66.30 | X-H torsion
[ 10763 10752 10751 10750 ] final  113.41 input  -60.55 | X-H torsion
[ 11005 11000 10999 10996 ] final   48.44 input  -57.11 | X-H torsion

> <Gold.Protein.ActiveResidues>
 VAL166  LYS551  ARG553  GLY616  TRP617  ASP618  TYR619  PRO620  LYS621  CYS622 
 ASP623  PHE694  ASN695  SER759  ASP760  ASP761  ALA762  ILE779  LEU786  VAL792 
 PHE793  MET794  SER795  GLU796  ALA797  LYS798  CYS799  TRP800  GLU811  SER814 

> <Gold.Protein.RotatedAtoms>
  151.6534  135.0998  160.0164 H   0  0  0  0  0  0  0  0  0  0  0  0  # atno 6907 bound_to 6896
  152.3988  133.6782  159.6307 H   0  0  0  0  0  0  0  0  0  0  0  0  # atno 6908 bound_to 6896
  150.7891  133.8745  159.3309 H   0  0  0  0  0  0  0  0  0  0  0  0  # atno 6909 bound_to 6896
  146.2443  140.0477  142.8377 H   0  0  0  0  0  0  0  0  0  0  0  0  # atno 7974 bound_to 7965
  155.4644  140.0548  157.2987 H   0  0  0  0  0  0  0  0  0  0  0  0  # atno 8008 bound_to 7997
  154.4724  140.2046  155.9917 H   0  0  0  0  0  0  0  0  0  0  0  0  # atno 8009 bound_to 7997
  156.1077  140.3209  155.8033 H   0  0  0  0  0  0  0  0  0  0  0  0  # atno 8010 bound_to 7997
  139.4871  144.5657  151.7150 H   0  0  0  0  0  0  0  0  0  0  0  0  # atno 10167 bound_to 10162
  157.6957  131.0454  150.3930 H   0  0  0  0  0  0  0  0  0  0  0  0  # atno 10718 bound_to 10713
  153.4920  135.3656  155.2497 H   0  0  0  0  0  0  0  0  0  0  0  0  # atno 10763 bound_to 10752
  154.8751  135.3979  154.3577 H   0  0  0  0  0  0  0  0  0  0  0  0  # atno 10764 bound_to 10752
  153.4199  135.7080  153.6367 H   0  0  0  0  0  0  0  0  0  0  0  0  # atno 10765 bound_to 10752
  140.1190  134.4854  155.8613 H   0  0  0  0  0  0  0  0  0  0  0  0  # atno 11005 bound_to 11000
  145.1012  140.9347  143.4711 LP  0  0  0  0  0  0  0  0  0  0  0  0  # atno 17320 bound_to 7965
  145.0670  139.3060  143.5851 LP  0  0  0  0  0  0  0  0  0  0  0  0  # atno 17321 bound_to 7965
  140.5234  144.0843  150.6030 LP  0  0  0  0  0  0  0  0  0  0  0  0  # atno 17342 bound_to 10162
  140.3809  143.2803  152.0172 LP  0  0  0  0  0  0  0  0  0  0  0  0  # atno 17343 bound_to 10162
  156.4332  130.3976  149.6746 LP  0  0  0  0  0  0  0  0  0  0  0  0  # atno 17370 bound_to 10713
  156.3956  130.7649  151.2653 LP  0  0  0  0  0  0  0  0  0  0  0  0  # atno 17371 bound_to 10713
  141.2147  133.6754  156.6853 LP  0  0  0  0  0  0  0  0  0  0  0  0  # atno 17394 bound_to 11000
  140.2990  134.8179  157.4081 LP  0  0  0  0  0  0  0  0  0  0  0  0  # atno 17395 bound_to 11000

$$$$
