AV-unprocessed.smi:1225|AV-procd|sdf|5142|dock3
  -GOLD-   22720 4213D 1   1.00000     0.00000
 Structure written by MMmdl.
 49 51  0  0  0  0  0  0  0  0  2 V2000
  142.4703  144.3440  157.9121 C   0  0  0  0  0  0  0  0  0  0  0  0
  143.2134  143.6568  156.8180 C   0  0  0  0  0  0  0  0  0  0  0  0
  142.7482  142.5896  156.1651 N   0  0  0  0  0  0  0  0  0  0  0  0
  143.6351  142.1322  155.1888 C   0  0  0  0  0  0  0  0  0  0  0  0
  144.7873  142.8734  155.0944 C   0  0  0  0  0  0  0  0  0  0  0  0
  145.9317  142.6545  154.1588 C   0  0  0  0  0  0  0  0  0  0  0  0
  147.1798  142.2881  154.8764 N   0  3  1  0  0  0  0  0  0  0  0  0
  146.9259  141.4234  156.0526 C   0  0  0  0  0  0  0  0  0  0  0  0
  148.2224  141.7218  153.9836 C   0  0  0  0  0  0  0  0  0  0  0  0
  149.4016  141.1117  154.7750 C   0  0  1  0  0  0  0  0  0  0  0  0
  150.2907  140.4934  153.8670 O   0  0  0  0  0  0  0  0  0  0  0  0
  150.2040  142.1472  155.5866 C   0  0  0  0  0  0  0  0  0  0  0  0
  150.9179  141.5498  156.7002 N   0  0  0  0  0  0  0  0  0  0  0  0
  151.3709  140.2842  156.7854 C   0  0  0  0  0  0  0  0  0  0  0  0
  151.9970  139.9362  157.9056 N   0  0  0  0  0  0  0  0  0  0  0  0
  151.9529  141.1158  158.6288 C   0  0  0  0  0  0  0  0  0  0  0  0
  152.4465  141.4212  159.9159 C   0  0  0  0  0  0  0  0  0  0  0  0
  152.2854  142.7126  160.4663 C   0  0  0  0  0  0  0  0  0  0  0  0
  152.8336  142.9976  161.8536 C   0  0  0  0  0  0  0  0  0  0  0  0
  151.6207  143.7229  159.7258 C   0  0  0  0  0  0  0  0  0  0  0  0
  151.4392  145.1186  160.2958 C   0  0  0  0  0  0  0  0  0  0  0  0
  151.1192  143.4341  158.4395 C   0  0  0  0  0  0  0  0  0  0  0  0
  151.2867  142.1454  157.9019 C   0  0  0  0  0  0  0  0  0  0  0  0
  144.7997  144.1733  156.2591 S   0  0  0  0  0  0  0  0  0  0  0  0
  141.4529  143.9585  157.9882 H   0  0  0  0  0  0  0  0  0  0  0  0
  142.4230  145.4152  157.7158 H   0  0  0  0  0  0  0  0  0  0  0  0
  142.9774  144.1840  158.8635 H   0  0  0  0  0  0  0  0  0  0  0  0
  143.3631  141.2694  154.5988 H   0  0  0  0  0  0  0  0  0  0  0  0
  145.6879  141.8813  153.4286 H   0  0  0  0  0  0  0  0  0  0  0  0
  146.0787  143.5682  153.5842 H   0  0  0  0  0  0  0  0  0  0  0  0
  146.5129  140.4612  155.7472 H   0  0  0  0  0  0  0  0  0  0  0  0
  146.2262  141.8917  156.7446 H   0  0  0  0  0  0  0  0  0  0  0  0
  147.8486  141.2398  156.6040 H   0  0  0  0  0  0  0  0  0  0  0  0
  147.7931  140.9420  153.3522 H   0  0  0  0  0  0  0  0  0  0  0  0
  148.5614  142.5062  153.3054 H   0  0  0  0  0  0  0  0  0  0  0  0
  149.0424  140.3441  155.4597 H   0  0  0  0  0  0  0  0  0  0  0  0
  149.8462  140.3710  153.0415 H   0  0  0  0  0  0  0  0  0  0  0  0
  150.9314  142.6488  154.9465 H   0  0  0  0  0  0  0  0  0  0  0  0
  149.5436  142.9240  155.9738 H   0  0  0  0  0  0  0  0  0  0  0  0
  151.2285  139.5768  155.9811 H   0  0  0  0  0  0  0  0  0  0  0  0
  152.9538  140.6519  160.4794 H   0  0  0  0  0  0  0  0  0  0  0  0
  153.5869  143.7846  161.8126 H   0  0  0  0  0  0  0  0  0  0  0  0
  153.2986  142.1122  162.2880 H   0  0  0  0  0  0  0  0  0  0  0  0
  152.0343  143.3169  162.5229 H   0  0  0  0  0  0  0  0  0  0  0  0
  150.9272  145.7737  159.5907 H   0  0  0  0  0  0  0  0  0  0  0  0
  152.4061  145.5666  160.5257 H   0  0  0  0  0  0  0  0  0  0  0  0
  150.8478  145.0834  161.2108 H   0  0  0  0  0  0  0  0  0  0  0  0
  150.6110  144.1956  157.8667 H   0  0  0  0  0  0  0  0  0  0  0  0
  147.5698  143.1472  155.2377 H   0  0  0  0  0  0  0  0  0  0  0  0
  1  2  1  0  0  0  0
  1 25  1  0  0  0  0
  1 26  1  0  0  0  0
  1 27  1  0  0  0  0
  2 24  1  0  0  0  0
  2  3  2  0  0  0  0
  3  4  1  0  0  0  0
  4  5  2  0  0  0  0
  4 28  1  0  0  0  0
  5  6  1  0  0  0  0
  5 24  1  0  0  0  0
  6  7  1  0  0  0  0
  6 29  1  0  0  0  0
  6 30  1  0  0  0  0
  7  8  1  0  0  0  0
  7  9  1  0  0  0  0
  7 49  1  0  0  0  0
  8 31  1  0  0  0  0
  8 32  1  0  0  0  0
  8 33  1  0  0  0  0
  9 10  1  0  0  0  0
  9 34  1  0  0  0  0
  9 35  1  0  0  0  0
 10 11  1  0  0  0  0
 10 12  1  0  0  0  0
 10 36  1  0  0  0  0
 11 37  1  0  0  0  0
 12 13  1  0  0  0  0
 12 38  1  0  0  0  0
 12 39  1  0  0  0  0
 13 23  1  0  0  0  0
 13 14  1  0  0  0  0
 14 15  2  0  0  0  0
 14 40  1  0  0  0  0
 15 16  1  0  0  0  0
 16 23  2  0  0  0  0
 16 17  1  0  0  0  0
 17 18  2  0  0  0  0
 17 41  1  0  0  0  0
 18 19  1  0  0  0  0
 18 20  1  0  0  0  0
 19 42  1  0  0  0  0
 19 43  1  0  0  0  0
 19 44  1  0  0  0  0
 20 21  1  0  0  0  0
 20 22  2  0  0  0  0
 21 45  1  0  0  0  0
 21 46  1  0  0  0  0
 21 47  1  0  0  0  0
 22 23  1  0  0  0  0
 22 48  1  0  0  0  0
M  CHG  1   7   1
M  END
> <s_m_source_file>
AV-unprocessed.smi

> <i_m_source_file_index>
1225

> <i_lp_mmshare_version>
43012

> <i_f3d_flags>
0

> <s_epik_input>
W0NIM11jMW5bY0hdYyhzMSlbQ0gyXU4oW0NIM10pW0NIMl1bQ0BIXShbT0hdKVtDSDJdbihbY0hdbjIpYyhjMjMpW2NIXWMoW0NIM10pYyhbY0hdMylbQ0gzXQ==

> <s_epik_cmdline>
J2VwaWtfcHl0aG9uJywgJy1waCcsICc3LjAnLCAnLXRuJywgJzgnLCAnLW1hJywgJzIwMCcsICctbWV0YWxfYmluZGluZycsICctaW1hZScsICc8aW5maWxlLm1hZT4nLCAnLW9tYWUnLCAnPG91dGZpbGUubWFlPic=

> <r_epik_Ionization_Penalty>
1.62543

> <r_epik_Ionization_Penalty_Charging>
1.53932

> <r_epik_Ionization_Penalty_Neutral>
0.0861152

> <r_epik_State_Penalty>
1.73127

> <r_epik_Charging_Adjusted_Penalty>
3.27059

> <i_epik_Tot_Q>
1

> <i_epik_Tot_abs_Q>
1

> <r_epik_Metal_State_Penalty>
1.71387

> <b_epik_Metal_Only>
0

> <s_lp_Force_Field>
OPLS_2005

> <r_lp_Energy>
12.5973

> <b_lp_Chiralities_Consistent>
1

> <s_lp_Variant>
AV-unprocessed.smi:1225-7

> <Gold.Version>
5.8.1

> <Gold.Id.Protein>
6NUR|6NUR_protein|mol2

> <Gold.PLP.Fitness>
60.9311

> <Gold.PLP.PLP>
-47.7375

> <Gold.PLP.part.hbond>
-3.0000

> <Gold.PLP.part.metal>
0.0000

> <Gold.PLP.part.buried>
-5.8797

> <Gold.PLP.part.nonpolar>
-38.3620

> <Gold.PLP.part.repulsive>
0.1644

> <Gold.PLP.ligand.clash>
0.0000

> <Gold.PLP.ligand.torsion>
0.9399

> <Gold.PLP.Chemscore.Hbond>
3.8800

> <Gold.PLP.Chemscore.CHOScore>
1.0119

> <Gold.PLP.Chemscore.Metal>
0.0000

> <Gold.Chemscore.Hbonds>
donor molecule, donor type, donor heavy atom, donor atom, acceptor molecule, acceptor atom, score
      L1  H     7    49       P1  8028  1.89
      L1  H    11    37       P1  7957  1.00
      P1  H  7989  7998       L1    11  0.55
      L1  C     4    28       P1 10175  1.00

> <Gold.PLP.Chemscore.Internal.Correction>
0.3976

> <Gold.Rescore>
     Score         DG    S(hbond)    S(metal)    S(lipo)     H(rot)  DE(clash)    DE(int)     intcor
     17.66     -19.40       1.57        0.00     126.26       2.37       0.73       1.02       ----

> <Gold.Chemscore.Fitness>
17.6555

> <Gold.Chemscore.DG>
-19.4021

> <Gold.Chemscore.ZeroCoef>
-5.4800

> <Gold.Chemscore.Hbond>
1.5658

> <Gold.Chemscore.Metal>
0.0000

> <Gold.Chemscore.Lipo>
126.2601

> <Gold.Chemscore.Internal_Hbond>
0.0000

> <Gold.Chemscore.DEClash>
0.7294

> <Gold.Chemscore.DEInternal>
1.0172

> <Gold.Chemscore.Rot>
2.3750

> <Gold.Chemscore.Internal.Correction>
   9.000000E+99

> <Gold.Chemscore.Hbonds>
donor molecule, donor type, donor heavy atom, donor atom, acceptor molecule, acceptor atom, score
      L1  H     7    49       P1  8028  0.31
      L1  H    11    37       P1  7957  0.99
      P1  H  7989  7998       L1    11  0.21

> <Gold.Chemscore.Hbond.Weighted>
-5.2297

> <Gold.Chemscore.Metal.Weighted>
-0.0000

> <Gold.Chemscore.Lipo.Weighted>
-14.7724

> <Gold.Chemscore.Internal_Hbond.Weighted>
0.0000

> <Gold.Chemscore.DEClash.Weighted>
0.7294

> <Gold.Chemscore.DEInternal.Weighted>
1.0172

> <Gold.Chemscore.Rot.Weighted>
6.0800

> <Gold.Chemscore.Internal.Correction.Weighted>
   9.000000E+99

> <Gold.Protein.RotatedTorsions>
[ 6907 6896 6895 6894 ] final  154.58 input  -60.11 | X-H torsion
[ 7974 7965 7964 7962 ] final   35.20 input  175.53 | X-H torsion
[ 8008 7997 7996 7995 ] final  104.82 input   59.86 | X-H torsion
[ 10167 10162 10161 10158 ] final -151.80 input  -65.29 | X-H torsion
[ 10718 10713 10712 10709 ] final  -83.68 input   66.30 | X-H torsion
[ 10763 10752 10751 10750 ] final  -11.00 input  -60.55 | X-H torsion
[ 11005 11000 10999 10996 ] final  167.31 input  -57.11 | X-H torsion

> <Gold.Protein.ActiveResidues>
 VAL166  LYS551  ARG553  GLY616  TRP617  ASP618  TYR619  PRO620  LYS621  CYS622 
 ASP623  PHE694  ASN695  SER759  ASP760  ASP761  ALA762  ILE779  LEU786  VAL792 
 PHE793  MET794  SER795  GLU796  ALA797  LYS798  CYS799  TRP800  GLU811  SER814 

> <Gold.Protein.RotatedAtoms>
  152.0564  133.4042  159.4398 H   0  0  0  0  0  0  0  0  0  0  0  0  # atno 6907 bound_to 6896
  150.6868  134.3249  159.4811 H   0  0  0  0  0  0  0  0  0  0  0  0  # atno 6908 bound_to 6896
  152.1065  134.9304  160.0618 H   0  0  0  0  0  0  0  0  0  0  0  0  # atno 6909 bound_to 6896
  146.1300  139.6173  142.9233 H   0  0  0  0  0  0  0  0  0  0  0  0  # atno 7974 bound_to 7965
  156.1606  140.3141  155.8800 H   0  0  0  0  0  0  0  0  0  0  0  0  # atno 8008 bound_to 7997
  155.3790  140.0486  157.3061 H   0  0  0  0  0  0  0  0  0  0  0  0  # atno 8009 bound_to 7997
  154.5143  140.2175  155.9107 H   0  0  0  0  0  0  0  0  0  0  0  0  # atno 8010 bound_to 7997
  139.7236  143.8918  152.2511 H   0  0  0  0  0  0  0  0  0  0  0  0  # atno 10167 bound_to 10162
  156.0015  130.4673  150.4294 H   0  0  0  0  0  0  0  0  0  0  0  0  # atno 10718 bound_to 10713
  153.4774  135.7017  153.5958 H   0  0  0  0  0  0  0  0  0  0  0  0  # atno 10763 bound_to 10752
  153.4186  135.3831  155.2096 H   0  0  0  0  0  0  0  0  0  0  0  0  # atno 10764 bound_to 10752
  154.8723  135.3922  154.4219 H   0  0  0  0  0  0  0  0  0  0  0  0  # atno 10765 bound_to 10752
  140.2754  134.7793  157.3712 H   0  0  0  0  0  0  0  0  0  0  0  0  # atno 11005 bound_to 11000
  145.5282  141.0428  143.2398 LP  0  0  0  0  0  0  0  0  0  0  0  0  # atno 17320 bound_to 7965
  144.7681  139.6799  143.7206 LP  0  0  0  0  0  0  0  0  0  0  0  0  # atno 17321 bound_to 7965
  139.8821  144.7012  150.8865 LP  0  0  0  0  0  0  0  0  0  0  0  0  # atno 17342 bound_to 10162
  140.7758  143.3653  151.1751 LP  0  0  0  0  0  0  0  0  0  0  0  0  # atno 17343 bound_to 10162
  157.2344  131.0511  151.2473 LP  0  0  0  0  0  0  0  0  0  0  0  0  # atno 17370 bound_to 10713
  157.3680  130.7166  149.6546 LP  0  0  0  0  0  0  0  0  0  0  0  0  # atno 17371 bound_to 10713
  140.1333  134.5067  155.8088 LP  0  0  0  0  0  0  0  0  0  0  0  0  # atno 17394 bound_to 11000
  141.2171  133.6798  156.7079 LP  0  0  0  0  0  0  0  0  0  0  0  0  # atno 17395 bound_to 11000

$$$$
