AV-unprocessed.smi:358|AV-procd|sdf|2417|dock8
  -GOLD-   2262022353D 1   1.00000     0.00000
 Structure written by MMmdl.
 37 39  0  0  0  0  0  0  0  0  1 V2000
  147.9047  140.4126  153.4752 N   0  0  0  0  0  0  0  0  0  0  0  0
  148.0985  140.9655  154.6747 C   0  0  0  0  0  0  0  0  0  0  0  0
  147.2848  140.8437  155.5887 O   0  0  0  0  0  0  0  0  0  0  0  0
  149.3901  141.7681  154.8638 C   0  0  0  0  0  0  0  0  0  0  0  0
  150.3690  141.0561  155.6776 N   0  0  0  0  0  0  0  0  0  0  0  0
  150.8708  139.8139  155.5184 C   0  0  0  0  0  0  0  0  0  0  0  0
  150.3915  138.7498  154.2018 S   0  0  0  0  0  0  0  0  0  0  0  0
  151.6053  137.4364  154.5186 C   0  0  0  0  0  0  0  0  0  0  0  0
  151.0072  136.1677  155.1288 C   0  0  0  0  0  0  0  0  0  0  0  0
  151.5298  135.6320  156.1068 O   0  0  0  0  0  0  0  0  0  0  0  0
  149.8934  135.7057  154.5415 N   0  0  0  0  0  0  0  0  0  0  0  0
  149.1614  134.5484  154.9432 C   0  0  0  0  0  0  0  0  0  0  0  0
  149.9454  133.2830  155.2171 C   0  0  0  0  0  0  0  0  0  0  0  0
  149.1001  133.3846  153.9774 C   0  0  0  0  0  0  0  0  0  0  0  0
  151.7734  139.4751  156.4418 N   0  0  0  0  0  0  0  0  0  0  0  0
  151.8779  140.5683  157.2730 N   0  0  0  0  0  0  0  0  0  0  0  0
  151.0163  141.4655  156.7882 C   0  0  0  0  0  0  0  0  0  0  0  0
  150.8245  142.8269  157.3777 C   0  0  0  0  0  0  0  0  0  0  0  0
  151.9418  143.8471  157.3724 C   0  0  0  0  0  0  0  0  0  0  0  0
  151.5036  143.2226  158.6705 C   0  0  0  0  0  0  0  0  0  0  0  0
  147.0688  139.8725  153.3033 H   0  0  0  0  0  0  0  0  0  0  0  0
  148.5917  140.5328  152.7451 H   0  0  0  0  0  0  0  0  0  0  0  0
  149.8231  141.9883  153.8879 H   0  0  0  0  0  0  0  0  0  0  0  0
  149.1746  142.7296  155.3316 H   0  0  0  0  0  0  0  0  0  0  0  0
  152.0915  137.1732  153.5790 H   0  0  0  0  0  0  0  0  0  0  0  0
  152.3772  137.8314  155.1805 H   0  0  0  0  0  0  0  0  0  0  0  0
  149.5362  136.2134  153.7453 H   0  0  0  0  0  0  0  0  0  0  0  0
  148.2796  134.7040  155.5632 H   0  0  0  0  0  0  0  0  0  0  0  0
  151.0261  133.3156  155.0916 H   0  0  0  0  0  0  0  0  0  0  0  0
  149.5896  132.6355  156.0159 H   0  0  0  0  0  0  0  0  0  0  0  0
  148.1789  132.8064  153.9479 H   0  0  0  0  0  0  0  0  0  0  0  0
  149.6160  133.4863  153.0244 H   0  0  0  0  0  0  0  0  0  0  0  0
  149.8107  143.1820  157.2038 H   0  0  0  0  0  0  0  0  0  0  0  0
  152.9082  143.5435  156.9745 H   0  0  0  0  0  0  0  0  0  0  0  0
  151.6711  144.8864  157.1977 H   0  0  0  0  0  0  0  0  0  0  0  0
  150.9396  143.8431  159.3638 H   0  0  0  0  0  0  0  0  0  0  0  0
  152.1816  142.5065  159.1304 H   0  0  0  0  0  0  0  0  0  0  0  0
  1  2  1  0  0  0  0
  1 21  1  0  0  0  0
  1 22  1  0  0  0  0
  2  3  2  0  0  0  0
  2  4  1  0  0  0  0
  4  5  1  0  0  0  0
  4 23  1  0  0  0  0
  4 24  1  0  0  0  0
  5 17  1  0  0  0  0
  5  6  1  0  0  0  0
  6  7  1  0  0  0  0
  6 15  2  0  0  0  0
  7  8  1  0  0  0  0
  8  9  1  0  0  0  0
  8 25  1  0  0  0  0
  8 26  1  0  0  0  0
  9 10  2  0  0  0  0
  9 11  1  0  0  0  0
 11 12  1  0  0  0  0
 11 27  1  0  0  0  0
 12 14  1  0  0  0  0
 12 13  1  0  0  0  0
 12 28  1  0  0  0  0
 13 14  1  0  0  0  0
 13 29  1  0  0  0  0
 13 30  1  0  0  0  0
 14 31  1  0  0  0  0
 14 32  1  0  0  0  0
 15 16  1  0  0  0  0
 16 17  2  0  0  0  0
 17 18  1  0  0  0  0
 18 20  1  0  0  0  0
 18 19  1  0  0  0  0
 18 33  1  0  0  0  0
 19 20  1  0  0  0  0
 19 34  1  0  0  0  0
 19 35  1  0  0  0  0
 20 36  1  0  0  0  0
 20 37  1  0  0  0  0
M  END
> <s_m_source_file>
AV-unprocessed.smi

> <i_m_source_file_index>
358

> <i_lp_mmshare_version>
43012

> <i_f3d_flags>
0

> <s_epik_input>
W0NIMl0xW0NIMl1bQ0hdMWMybm5jKG4yW0NIMl1DKD1PKVtOSDJdKVNbQ0gyXUMoPU8pW05IXVtDSF0zW0NIMl1bQ0gyXTM=

> <s_epik_cmdline>
J2VwaWtfcHl0aG9uJywgJy1waCcsICc3LjAnLCAnLXRuJywgJzgnLCAnLW1hJywgJzIwMCcsICctbWV0YWxfYmluZGluZycsICctaW1hZScsICc8aW5maWxlLm1hZT4nLCAnLW9tYWUnLCAnPG91dGZpbGUubWFlPic=

> <r_lp_tautomer_probability>
1

> <r_epik_Ionization_Penalty>
5.83215e-07

> <r_epik_Ionization_Penalty_Charging>
0

> <r_epik_Ionization_Penalty_Neutral>
5.83215e-07

> <r_epik_State_Penalty>
-0

> <r_epik_Charging_Adjusted_Penalty>
0

> <i_epik_Tot_Q>
0

> <i_epik_Tot_abs_Q>
0

> <r_epik_Metal_State_Penalty>
-0

> <b_epik_Metal_Only>
0

> <s_lp_Force_Field>
OPLS_2005

> <r_lp_Energy>
18.9456

> <b_lp_Chiralities_Consistent>
1

> <s_lp_Variant>
AV-unprocessed.smi:358-1

> <Gold.Version>
5.8.1

> <Gold.Id.Protein>
6NUR|6NUR_protein|mol2

> <Gold.PLP.Fitness>
42.0237

> <Gold.PLP.PLP>
-36.6081

> <Gold.PLP.part.hbond>
-3.5991

> <Gold.PLP.part.metal>
0.0000

> <Gold.PLP.part.buried>
1.6983

> <Gold.PLP.part.nonpolar>
-34.0129

> <Gold.PLP.part.repulsive>
0.2371

> <Gold.PLP.ligand.clash>
0.0000

> <Gold.PLP.ligand.torsion>
0.8801

> <Gold.PLP.Chemscore.Hbond>
2.3140

> <Gold.PLP.Chemscore.CHOScore>
0.0000

> <Gold.PLP.Chemscore.Metal>
0.0000

> <Gold.Chemscore.Hbonds>
donor molecule, donor type, donor heavy atom, donor atom, acceptor molecule, acceptor atom, score
      L1  H     1    22       P1  7957  1.00
      L1  H    11    27       P1  7948  0.98
      P1  H 10752 10765       L1    10  0.15

> <Gold.PLP.Chemscore.Internal.Correction>
0.2337

> <Gold.Rescore>
     Score         DG    S(hbond)    S(metal)    S(lipo)     H(rot)  DE(clash)    DE(int)     intcor
      9.09     -11.21       1.73        0.00      71.77       3.30       0.32       1.81       ----

> <Gold.Chemscore.Fitness>
9.0876

> <Gold.Chemscore.DG>
-11.2084

> <Gold.Chemscore.ZeroCoef>
-5.4800

> <Gold.Chemscore.Hbond>
1.7290

> <Gold.Chemscore.Metal>
0.0000

> <Gold.Chemscore.Lipo>
71.7730

> <Gold.Chemscore.Internal_Hbond>
0.0000

> <Gold.Chemscore.DEClash>
0.3151

> <Gold.Chemscore.DEInternal>
1.8057

> <Gold.Chemscore.Rot>
3.2984

> <Gold.Chemscore.Internal.Correction>
   9.000000E+99

> <Gold.Chemscore.Hbonds>
donor molecule, donor type, donor heavy atom, donor atom, acceptor molecule, acceptor atom, score
      L1  H     1    22       P1  7957  0.98
      L1  H    11    27       P1  7948  0.56

> <Gold.Chemscore.Hbond.Weighted>
-5.7748

> <Gold.Chemscore.Metal.Weighted>
-0.0000

> <Gold.Chemscore.Lipo.Weighted>
-8.3974

> <Gold.Chemscore.Internal_Hbond.Weighted>
0.0000

> <Gold.Chemscore.DEClash.Weighted>
0.3151

> <Gold.Chemscore.DEInternal.Weighted>
1.8057

> <Gold.Chemscore.Rot.Weighted>
8.4438

> <Gold.Chemscore.Internal.Correction.Weighted>
   9.000000E+99

> <Gold.Protein.RotatedTorsions>
[ 6907 6896 6895 6894 ] final  140.55 input  -60.11 | X-H torsion
[ 7974 7965 7964 7962 ] final  -17.71 input  175.53 | X-H torsion
[ 8008 7997 7996 7995 ] final  -81.16 input   59.86 | X-H torsion
[ 10167 10162 10161 10158 ] final -153.45 input  -65.29 | X-H torsion
[ 10718 10713 10712 10709 ] final   -7.72 input   66.30 | X-H torsion
[ 10763 10752 10751 10750 ] final -160.05 input  -60.55 | X-H torsion
[ 11005 11000 10999 10996 ] final   63.93 input  -57.11 | X-H torsion

> <Gold.Protein.ActiveResidues>
 VAL166  LYS551  ARG553  GLY616  TRP617  ASP618  TYR619  PRO620  LYS621  CYS622 
 ASP623  PHE694  ASN695  SER759  ASP760  ASP761  ALA762  ILE779  LEU786  VAL792 
 PHE793  MET794  SER795  GLU796  ALA797  LYS798  CYS799  TRP800  GLU811  SER814 

> <Gold.Protein.RotatedAtoms>
  152.2417  133.5141  159.5273 H   0  0  0  0  0  0  0  0  0  0  0  0  # atno 6907 bound_to 6896
  150.7066  134.1080  159.3998 H   0  0  0  0  0  0  0  0  0  0  0  0  # atno 6908 bound_to 6896
  151.9000  135.0382  160.0556 H   0  0  0  0  0  0  0  0  0  0  0  0  # atno 6909 bound_to 6896
  146.1928  140.3818  142.8452 H   0  0  0  0  0  0  0  0  0  0  0  0  # atno 7974 bound_to 7965
  154.5955  140.0652  156.9297 H   0  0  0  0  0  0  0  0  0  0  0  0  # atno 8008 bound_to 7997
  155.2222  140.3331  155.4296 H   0  0  0  0  0  0  0  0  0  0  0  0  # atno 8009 bound_to 7997
  156.2284  140.1830  156.7289 H   0  0  0  0  0  0  0  0  0  0  0  0  # atno 8010 bound_to 7997
  139.7096  143.9130  152.2462 H   0  0  0  0  0  0  0  0  0  0  0  0  # atno 10167 bound_to 10162
  156.7131  130.5128  149.5887 H   0  0  0  0  0  0  0  0  0  0  0  0  # atno 10718 bound_to 10713
  154.7423  135.3071  154.8706 H   0  0  0  0  0  0  0  0  0  0  0  0  # atno 10763 bound_to 10752
  153.9517  135.6763  153.4748 H   0  0  0  0  0  0  0  0  0  0  0  0  # atno 10764 bound_to 10752
  153.1021  135.4907  154.8811 H   0  0  0  0  0  0  0  0  0  0  0  0  # atno 10765 bound_to 10752
  139.9992  134.6468  155.9958 H   0  0  0  0  0  0  0  0  0  0  0  0  # atno 11005 bound_to 11000
  144.8519  140.7014  143.6162 LP  0  0  0  0  0  0  0  0  0  0  0  0  # atno 17320 bound_to 7965
  145.3740  139.1652  143.4316 LP  0  0  0  0  0  0  0  0  0  0  0  0  # atno 17321 bound_to 7965
  139.8996  144.6919  150.8680 LP  0  0  0  0  0  0  0  0  0  0  0  0  # atno 17342 bound_to 10162
  140.7730  143.3524  151.1988 LP  0  0  0  0  0  0  0  0  0  0  0  0  # atno 17343 bound_to 10162
  156.1647  130.6397  151.0763 LP  0  0  0  0  0  0  0  0  0  0  0  0  # atno 17370 bound_to 10713
  157.6928  131.0804  150.7058 LP  0  0  0  0  0  0  0  0  0  0  0  0  # atno 17371 bound_to 10713
  141.1629  133.6538  156.4379 LP  0  0  0  0  0  0  0  0  0  0  0  0  # atno 17394 bound_to 11000
  140.4759  134.6709  157.5150 LP  0  0  0  0  0  0  0  0  0  0  0  0  # atno 17395 bound_to 11000

$$$$
