AV-unprocessed.smi:287|AV-procd|sdf|2206|dock8
  -GOLD-   2262022 33D 1   1.00000     0.00000
 Structure written by MMmdl.
 55 58  0  0  0  0  0  0  0  0  1 V2000
  138.7901  137.2411  158.5507 C   0  0  0  0  0  0  0  0  0  0  0  0
  139.6046  137.5858  157.3514 C   0  0  0  0  0  0  0  0  0  0  0  0
  140.6969  138.3773  157.1470 C   0  0  0  0  0  0  0  0  0  0  0  0
  141.0283  138.2972  155.7615 C   0  0  0  0  0  0  0  0  0  0  0  0
  142.1863  139.0141  155.0800 C   0  0  2  0  0  0  0  0  0  0  0  0
  142.1054  140.5243  155.3596 C   0  0  0  0  0  0  0  0  0  0  0  0
  142.1557  138.8946  153.6709 O   0  0  0  0  0  0  0  0  0  0  0  0
  143.5602  138.4639  155.5259 C   0  0  0  0  0  0  0  0  0  0  0  0
  144.6802  139.2048  154.9546 N   0  0  0  0  0  0  0  0  0  0  0  0
  145.3089  138.7427  153.8538 C   0  0  0  0  0  0  0  0  0  0  0  0
  146.3214  139.4433  153.2798 N   0  0  0  0  0  0  0  0  0  0  0  0
  146.9293  138.9638  152.1909 C   0  0  0  0  0  0  0  0  0  0  0  0
  146.6855  137.8297  151.5310 N   0  0  0  0  0  0  0  0  0  0  0  0
  145.6699  137.1205  152.1037 C   0  0  0  0  0  0  0  0  0  0  0  0
  144.9357  137.5103  153.2587 C   0  0  0  0  0  0  0  0  0  0  0  0
  143.9764  136.5513  153.5542 N   0  0  0  0  0  0  0  0  0  0  0  0
  144.1376  135.6485  152.6251 C   0  0  0  0  0  0  0  0  0  0  0  0
  145.1328  135.9098  151.7092 N   0  0  0  0  0  0  0  0  0  0  0  0
  145.5345  135.0543  150.5444 C   0  0  2  0  0  0  0  0  0  0  0  0
  144.3910  134.5662  149.9048 O   0  0  0  0  0  0  0  0  0  0  0  0
  144.3772  133.1382  149.9193 C   0  0  1  0  0  0  0  0  0  0  0  0
  143.6826  132.6110  148.6542 C   0  0  0  0  0  0  0  0  0  0  0  0
  143.5038  133.6588  147.7255 O   0  0  0  0  0  0  0  0  0  0  0  0
  145.8641  132.7866  149.9921 C   0  0  2  0  0  0  0  0  0  0  0  0
  146.1105  131.4670  150.4388 O   0  0  0  0  0  0  0  0  0  0  0  0
  146.4011  133.8450  150.9446 C   0  0  2  0  0  0  0  0  0  0  0  0
  146.2645  133.4715  152.3078 O   0  0  0  0  0  0  0  0  0  0  0  0
  140.0859  137.4532  155.2238 C   0  0  0  0  0  0  0  0  0  0  0  0
  139.8222  136.9299  153.8501 C   0  0  0  0  0  0  0  0  0  0  0  0
  139.2210  137.0164  156.1816 O   0  0  0  0  0  0  0  0  0  0  0  0
  146.0495  135.7363  149.8667 H   0  0  0  0  0  0  0  0  0  0  0  0
  143.8756  132.7820  150.8207 H   0  0  0  0  0  0  0  0  0  0  0  0
  146.3201  132.9205  149.0097 H   0  0  0  0  0  0  0  0  0  0  0  0
  147.4513  134.0680  150.7534 H   0  0  0  0  0  0  0  0  0  0  0  0
  139.2145  137.6869  159.4504 H   0  0  0  0  0  0  0  0  0  0  0  0
  138.7520  136.1612  158.6949 H   0  0  0  0  0  0  0  0  0  0  0  0
  137.7687  137.6058  158.4419 H   0  0  0  0  0  0  0  0  0  0  0  0
  141.2079  138.9479  157.9084 H   0  0  0  0  0  0  0  0  0  0  0  0
  142.1627  140.7328  156.4285 H   0  0  0  0  0  0  0  0  0  0  0  0
  141.1680  140.9457  154.9935 H   0  0  0  0  0  0  0  0  0  0  0  0
  142.9213  141.0648  154.8783 H   0  0  0  0  0  0  0  0  0  0  0  0
  142.5927  139.6444  153.2972 H   0  0  0  0  0  0  0  0  0  0  0  0
  143.6346  138.4356  156.6141 H   0  0  0  0  0  0  0  0  0  0  0  0
  143.6516  137.4332  155.1801 H   0  0  0  0  0  0  0  0  0  0  0  0
  144.9016  140.0855  155.3974 H   0  0  0  0  0  0  0  0  0  0  0  0
  147.7246  139.5750  151.7909 H   0  0  0  0  0  0  0  0  0  0  0  0
  143.5269  134.7583  152.5809 H   0  0  0  0  0  0  0  0  0  0  0  0
  144.2459  131.7940  148.2021 H   0  0  0  0  0  0  0  0  0  0  0  0
  142.6939  132.2240  148.9026 H   0  0  0  0  0  0  0  0  0  0  0  0
  144.3128  134.1426  147.6582 H   0  0  0  0  0  0  0  0  0  0  0  0
  147.0310  131.2837  150.3225 H   0  0  0  0  0  0  0  0  0  0  0  0
  145.3880  133.1443  152.4421 H   0  0  0  0  0  0  0  0  0  0  0  0
  139.6696  137.7488  153.1472 H   0  0  0  0  0  0  0  0  0  0  0  0
  138.9316  136.3017  153.8307 H   0  0  0  0  0  0  0  0  0  0  0  0
  140.6620  136.3311  153.4975 H   0  0  0  0  0  0  0  0  0  0  0  0
  1  2  1  0  0  0  0
  1 35  1  0  0  0  0
  1 36  1  0  0  0  0
  1 37  1  0  0  0  0
  2 30  1  0  0  0  0
  2  3  2  0  0  0  0
  3  4  1  0  0  0  0
  3 38  1  0  0  0  0
  4  5  1  0  0  0  0
  4 28  2  0  0  0  0
  5  6  1  0  0  0  0
  5  7  1  0  0  0  0
  5  8  1  0  0  0  0
  6 39  1  0  0  0  0
  6 40  1  0  0  0  0
  6 41  1  0  0  0  0
  7 42  1  0  0  0  0
  8  9  1  0  0  0  0
  8 43  1  0  0  0  0
  8 44  1  0  0  0  0
  9 10  1  0  0  0  0
  9 45  1  0  0  0  0
 10 15  1  0  0  0  0
 10 11  2  0  0  0  0
 11 12  1  0  0  0  0
 12 13  2  0  0  0  0
 12 46  1  0  0  0  0
 13 14  1  0  0  0  0
 14 18  1  0  0  0  0
 14 15  2  0  0  0  0
 15 16  1  0  0  0  0
 16 17  2  0  0  0  0
 17 18  1  0  0  0  0
 17 47  1  0  0  0  0
 18 19  1  0  0  0  0
 19 31  1  0  0  0  0
 19 26  1  0  0  0  0
 19 20  1  0  0  0  0
 20 21  1  0  0  0  0
 21 32  1  0  0  0  0
 21 22  1  0  0  0  0
 21 24  1  0  0  0  0
 22 23  1  0  0  0  0
 22 48  1  0  0  0  0
 22 49  1  0  0  0  0
 23 50  1  0  0  0  0
 24 33  1  0  0  0  0
 24 25  1  0  0  0  0
 24 26  1  0  0  0  0
 25 51  1  0  0  0  0
 26 34  1  0  0  0  0
 26 27  1  0  0  0  0
 27 52  1  0  0  0  0
 28 29  1  0  0  0  0
 28 30  1  0  0  0  0
 29 53  1  0  0  0  0
 29 54  1  0  0  0  0
 29 55  1  0  0  0  0
M  END
> <s_m_source_file>
AV-unprocessed.smi

> <i_m_source_file_index>
287

> <i_lp_mmshare_version>
43012

> <i_f3d_flags>
0

> <s_epik_input>
W0NIM11jMVtjSF1jKGMobzEpW0NIM10pW0NAQF0oW0NIM10pKFtPSF0pW0NIMl1bTkhdYyhuW2NIXW4yKWMoYzIzKW5bY0hdbjNbQ0BASF00T1tDQEhdKFtDSDJdW09IXSlbQ0BASF0oW09IXSlbQ0BIXTRbT0hd

> <s_epik_cmdline>
J2VwaWtfcHl0aG9uJywgJy1waCcsICc3LjAnLCAnLXRuJywgJzgnLCAnLW1hJywgJzIwMCcsICctbWV0YWxfYmluZGluZycsICctaW1hZScsICc8aW5maWxlLm1hZT4nLCAnLW9tYWUnLCAnPG91dGZpbGUubWFlPic=

> <r_lp_tautomer_probability>
1

> <r_epik_Ionization_Penalty>
0.000992612

> <r_epik_Ionization_Penalty_Charging>
0

> <r_epik_Ionization_Penalty_Neutral>
0.000992612

> <r_epik_State_Penalty>
-0

> <r_epik_Charging_Adjusted_Penalty>
0

> <i_epik_Tot_Q>
0

> <i_epik_Tot_abs_Q>
0

> <r_epik_Metal_State_Penalty>
-0

> <b_epik_Metal_Only>
0

> <s_epik_Chemistry_Notes>
This compound contains an acetal/aminal-like group ( X-CH(R)-Y where X, Y are N, S, or O) that may be acid/base labile, releasing an aldehyde.

> <s_lp_Force_Field>
OPLS_2005

> <r_lp_Energy>
49.5285

> <b_lp_Chiralities_Consistent>
1

> <s_lp_Variant>
AV-unprocessed.smi:287-30

> <Gold.Version>
5.8.1

> <Gold.Id.Protein>
6NUR|6NUR_protein|mol2

> <Gold.PLP.Fitness>
50.9327

> <Gold.PLP.PLP>
-34.3097

> <Gold.PLP.part.hbond>
-8.1019

> <Gold.PLP.part.metal>
0.0000

> <Gold.PLP.part.buried>
-1.7844

> <Gold.PLP.part.nonpolar>
-28.5059

> <Gold.PLP.part.repulsive>
5.0255

> <Gold.PLP.ligand.clash>
0.0000

> <Gold.PLP.ligand.torsion>
1.4696

> <Gold.PLP.Chemscore.Hbond>
5.5275

> <Gold.PLP.Chemscore.CHOScore>
0.9612

> <Gold.PLP.Chemscore.Metal>
0.0000

> <Gold.Chemscore.Hbonds>
donor molecule, donor type, donor heavy atom, donor atom, acceptor molecule, acceptor atom, score
      L1  H     7    42       P1 10175  0.98
      L1  H    23    50       P1  7921  1.00
      L1  H    25    51       P1 10747  1.00
      P1  H  7954  7966       L1    13  0.57
      P1  H 10192 10197       L1    23  0.62
      P1  H 11000 11005       L1    30  0.40
      L1  C    12    46       P1  7957  0.94

> <Gold.PLP.Chemscore.Internal.Correction>
0.0961

> <Gold.Rescore>
     Score         DG    S(hbond)    S(metal)    S(lipo)     H(rot)  DE(clash)    DE(int)     intcor
      3.80     -10.92       3.75        0.00      54.76       5.27       2.90       4.22       ----

> <Gold.Chemscore.Fitness>
3.8011

> <Gold.Chemscore.DG>
-10.9206

> <Gold.Chemscore.ZeroCoef>
-5.4800

> <Gold.Chemscore.Hbond>
3.7479

> <Gold.Chemscore.Metal>
0.0000

> <Gold.Chemscore.Lipo>
54.7580

> <Gold.Chemscore.Internal_Hbond>
0.0000

> <Gold.Chemscore.DEClash>
2.8951

> <Gold.Chemscore.DEInternal>
4.2244

> <Gold.Chemscore.Rot>
5.2672

> <Gold.Chemscore.Internal.Correction>
   9.000000E+99

> <Gold.Chemscore.Hbonds>
donor molecule, donor type, donor heavy atom, donor atom, acceptor molecule, acceptor atom, score
      L1  H     7    42       P1 10175  0.92
      L1  H    23    50       P1  7921  1.00
      L1  H    25    51       P1 10747  0.97
      P1  H  7954  7966       L1    13  0.22
      P1  H 10192 10197       L1    23  0.21
      P1  H 11000 11005       L1    30  0.02

> <Gold.Chemscore.Hbond.Weighted>
-12.5178

> <Gold.Chemscore.Metal.Weighted>
-0.0000

> <Gold.Chemscore.Lipo.Weighted>
-6.4067

> <Gold.Chemscore.Internal_Hbond.Weighted>
0.0000

> <Gold.Chemscore.DEClash.Weighted>
2.8951

> <Gold.Chemscore.DEInternal.Weighted>
4.2244

> <Gold.Chemscore.Rot.Weighted>
13.4839

> <Gold.Chemscore.Internal.Correction.Weighted>
   9.000000E+99

> <Gold.Protein.RotatedTorsions>
[ 6907 6896 6895 6894 ] final   70.59 input  -60.11 | X-H torsion
[ 7974 7965 7964 7962 ] final    8.03 input  175.53 | X-H torsion
[ 8008 7997 7996 7995 ] final  165.00 input   59.86 | X-H torsion
[ 10167 10162 10161 10158 ] final  120.34 input  -65.29 | X-H torsion
[ 10718 10713 10712 10709 ] final  -13.92 input   66.30 | X-H torsion
[ 10763 10752 10751 10750 ] final -167.28 input  -60.55 | X-H torsion
[ 11005 11000 10999 10996 ] final  121.51 input  -57.11 | X-H torsion

> <Gold.Protein.ActiveResidues>
 VAL166  LYS551  ARG553  GLY616  TRP617  ASP618  TYR619  PRO620  LYS621  CYS622 
 ASP623  PHE694  ASN695  SER759  ASP760  ASP761  ALA762  ILE779  LEU786  VAL792 
 PHE793  MET794  SER795  GLU796  ALA797  LYS798  CYS799  TRP800  GLU811  SER814 

> <Gold.Protein.RotatedAtoms>
  152.4759  134.4845  159.9675 H   0  0  0  0  0  0  0  0  0  0  0  0  # atno 6907 bound_to 6896
  151.4862  133.3529  159.2854 H   0  0  0  0  0  0  0  0  0  0  0  0  # atno 6908 bound_to 6896
  150.8797  134.8213  159.7277 H   0  0  0  0  0  0  0  0  0  0  0  0  # atno 6909 bound_to 6896
  146.2420  139.9994  142.8417 H   0  0  0  0  0  0  0  0  0  0  0  0  # atno 7974 bound_to 7965
  156.1835  140.1681  156.8229 H   0  0  0  0  0  0  0  0  0  0  0  0  # atno 8008 bound_to 7997
  154.5387  140.0741  156.8506 H   0  0  0  0  0  0  0  0  0  0  0  0  # atno 8009 bound_to 7997
  155.3258  140.3376  155.4242 H   0  0  0  0  0  0  0  0  0  0  0  0  # atno 8010 bound_to 7997
  139.5988  144.7050  151.3112 H   0  0  0  0  0  0  0  0  0  0  0  0  # atno 10167 bound_to 10162
  156.6234  130.4881  149.6156 H   0  0  0  0  0  0  0  0  0  0  0  0  # atno 10718 bound_to 10713
  154.6748  135.2945  154.9693 H   0  0  0  0  0  0  0  0  0  0  0  0  # atno 10763 bound_to 10752
  154.0708  135.6618  153.4828 H   0  0  0  0  0  0  0  0  0  0  0  0  # atno 10764 bound_to 10752
  153.0509  135.5174  154.7762 H   0  0  0  0  0  0  0  0  0  0  0  0  # atno 10765 bound_to 10752
  139.9229  134.9639  156.7969 H   0  0  0  0  0  0  0  0  0  0  0  0  # atno 11005 bound_to 11000
  145.1429  140.9581  143.4478 LP  0  0  0  0  0  0  0  0  0  0  0  0  # atno 17320 bound_to 7965
  145.0278  139.3367  143.6040 LP  0  0  0  0  0  0  0  0  0  0  0  0  # atno 17321 bound_to 7965
  140.7233  143.7074  150.7796 LP  0  0  0  0  0  0  0  0  0  0  0  0  # atno 17342 bound_to 10162
  140.0646  143.5121  152.2610 LP  0  0  0  0  0  0  0  0  0  0  0  0  # atno 17343 bound_to 10162
  156.2293  130.6785  151.1448 LP  0  0  0  0  0  0  0  0  0  0  0  0  # atno 17370 bound_to 10713
  157.7221  131.0674  150.6091 LP  0  0  0  0  0  0  0  0  0  0  0  0  # atno 17371 bound_to 10713
  140.6422  133.9808  155.7713 LP  0  0  0  0  0  0  0  0  0  0  0  0  # atno 17394 bound_to 11000
  141.0764  134.0129  157.3452 LP  0  0  0  0  0  0  0  0  0  0  0  0  # atno 17395 bound_to 11000

$$$$
