AV-unprocessed.smi:3031|AV-procd|sdf|11545|dock2
  -GOLD-   2272016493D 1   1.00000     0.00000
 Structure written by MMmdl.
 47 48  0  0  0  0  0  0  0  0  2 V2000
  151.8094  145.6368  159.2708 C   0  0  0  0  0  0  0  0  0  0  0  0
  151.9195  144.1822  158.9153 C   0  0  0  0  0  0  0  0  0  0  0  0
  152.6997  143.1826  159.5629 C   0  0  0  0  0  0  0  0  0  0  0  0
  152.5727  141.9893  159.0059 N   0  0  0  0  0  0  0  0  0  0  0  0
  151.7104  142.1837  157.9860 N   0  0  0  0  0  0  0  0  0  0  0  0
  151.3254  141.0651  157.1433 C   0  0  0  0  0  0  0  0  0  0  0  0
  150.1960  141.4331  156.1604 C   0  0  2  0  0  0  0  0  0  0  0  0
  148.8429  141.4844  156.8925 C   0  0  0  0  0  0  0  0  0  0  0  0
  150.1708  140.4791  155.0456 N   0  0  0  0  0  0  0  0  0  0  0  0
  148.9408  140.4664  154.2546 C   0  0  0  0  0  0  0  0  0  0  0  0
  148.4051  139.0349  154.0878 C   0  0  2  0  0  0  0  0  0  0  0  0
  149.4319  138.2601  153.5018 O   0  0  0  0  0  0  0  0  0  0  0  0
  147.1653  138.9624  153.1711 C   0  0  0  0  0  0  0  0  0  0  0  0
  146.7415  137.5646  152.9038 N   0  3  0  0  0  0  0  0  0  0  0  0
  146.2301  136.8596  154.1059 C   0  0  0  0  0  0  0  0  0  0  0  0
  145.8548  135.4092  153.7584 C   0  0  0  0  0  0  0  0  0  0  0  0
  144.8953  135.4027  152.7087 O   0  0  0  0  0  0  0  0  0  0  0  0
  145.4027  135.9982  151.5210 C   0  0  0  0  0  0  0  0  0  0  0  0
  145.7635  137.4683  151.7939 C   0  0  0  0  0  0  0  0  0  0  0  0
  151.3019  143.4982  157.9067 C   0  0  0  0  0  0  0  0  0  0  0  0
  152.7904  146.0995  159.3796 H   0  0  0  0  0  0  0  0  0  0  0  0
  151.2795  145.7799  160.2127 H   0  0  0  0  0  0  0  0  0  0  0  0
  151.2709  146.2017  158.5095 H   0  0  0  0  0  0  0  0  0  0  0  0
  153.3500  143.2885  160.4187 H   0  0  0  0  0  0  0  0  0  0  0  0
  152.2060  140.7109  156.6058 H   0  0  0  0  0  0  0  0  0  0  0  0
  151.0096  140.2474  157.7932 H   0  0  0  0  0  0  0  0  0  0  0  0
  150.4027  142.4311  155.7713 H   0  0  0  0  0  0  0  0  0  0  0  0
  148.8943  142.1484  157.7559 H   0  0  0  0  0  0  0  0  0  0  0  0
  148.5471  140.4984  157.2524 H   0  0  0  0  0  0  0  0  0  0  0  0
  148.0461  141.8633  156.2529 H   0  0  0  0  0  0  0  0  0  0  0  0
  150.3617  139.5458  155.3952 H   0  0  0  0  0  0  0  0  0  0  0  0
  148.1748  141.0894  154.7160 H   0  0  0  0  0  0  0  0  0  0  0  0
  149.1424  140.8931  153.2710 H   0  0  0  0  0  0  0  0  0  0  0  0
  148.1924  138.6212  155.0735 H   0  0  0  0  0  0  0  0  0  0  0  0
  149.0452  137.6726  152.8701 H   0  0  0  0  0  0  0  0  0  0  0  0
  146.3258  139.5072  153.6057 H   0  0  0  0  0  0  0  0  0  0  0  0
  147.3961  139.4675  152.2314 H   0  0  0  0  0  0  0  0  0  0  0  0
  146.9786  136.8577  154.8974 H   0  0  0  0  0  0  0  0  0  0  0  0
  145.3561  137.3844  154.4953 H   0  0  0  0  0  0  0  0  0  0  0  0
  146.7369  134.8370  153.4660 H   0  0  0  0  0  0  0  0  0  0  0  0
  145.4276  134.9126  154.6299 H   0  0  0  0  0  0  0  0  0  0  0  0
  146.2713  135.4429  151.1630 H   0  0  0  0  0  0  0  0  0  0  0  0
  144.6425  135.9365  150.7421 H   0  0  0  0  0  0  0  0  0  0  0  0
  144.8652  138.0340  152.0471 H   0  0  0  0  0  0  0  0  0  0  0  0
  146.1815  137.9150  150.8910 H   0  0  0  0  0  0  0  0  0  0  0  0
  150.6082  143.8332  157.1496 H   0  0  0  0  0  0  0  0  0  0  0  0
  147.5677  137.0705  152.5972 H   0  0  0  0  0  0  0  0  0  0  0  0
  1  2  1  0  0  0  0
  1 21  1  0  0  0  0
  1 22  1  0  0  0  0
  1 23  1  0  0  0  0
  2 20  2  0  0  0  0
  2  3  1  0  0  0  0
  3  4  2  0  0  0  0
  3 24  1  0  0  0  0
  4  5  1  0  0  0  0
  5  6  1  0  0  0  0
  5 20  1  0  0  0  0
  6  7  1  0  0  0  0
  6 25  1  0  0  0  0
  6 26  1  0  0  0  0
  7  8  1  0  0  0  0
  7  9  1  0  0  0  0
  7 27  1  0  0  0  0
  8 28  1  0  0  0  0
  8 29  1  0  0  0  0
  8 30  1  0  0  0  0
  9 10  1  0  0  0  0
  9 31  1  0  0  0  0
 10 11  1  0  0  0  0
 10 32  1  0  0  0  0
 10 33  1  0  0  0  0
 11 12  1  0  0  0  0
 11 13  1  0  0  0  0
 11 34  1  0  0  0  0
 12 35  1  0  0  0  0
 13 14  1  0  0  0  0
 13 36  1  0  0  0  0
 13 37  1  0  0  0  0
 14 19  1  0  0  0  0
 14 15  1  0  0  0  0
 14 47  1  0  0  0  0
 15 16  1  0  0  0  0
 15 38  1  0  0  0  0
 15 39  1  0  0  0  0
 16 17  1  0  0  0  0
 16 40  1  0  0  0  0
 16 41  1  0  0  0  0
 17 18  1  0  0  0  0
 18 19  1  0  0  0  0
 18 42  1  0  0  0  0
 18 43  1  0  0  0  0
 19 44  1  0  0  0  0
 19 45  1  0  0  0  0
 20 46  1  0  0  0  0
M  CHG  1  14   1
M  END
> <s_m_source_file>
AV-unprocessed.smi

> <i_m_source_file_index>
3031

> <i_lp_mmshare_version>
43012

> <i_f3d_flags>
0

> <s_epik_input>
W0NIM11jMVtjSF1ubihbY0hdMSlbQ0gyXVtDQEhdKFtDSDNdKVtOSF1bQ0gyXVtDQEhdKFtPSF0pW0NIMl1OMltDSDJdW0NIMl1PW0NIMl1bQ0gyXTI=

> <s_epik_cmdline>
J2VwaWtfcHl0aG9uJywgJy1waCcsICc3LjAnLCAnLXRuJywgJzgnLCAnLW1hJywgJzIwMCcsICctbWV0YWxfYmluZGluZycsICctaW1hZScsICc8aW5maWxlLm1hZT4nLCAnLW9tYWUnLCAnPG91dGZpbGUubWFlPic=

> <r_epik_Ionization_Penalty>
0.467051

> <r_epik_Ionization_Penalty_Charging>
0.202493

> <r_epik_Ionization_Penalty_Neutral>
0.264558

> <r_epik_State_Penalty>
1.34287

> <r_epik_Charging_Adjusted_Penalty>
1.54537

> <i_epik_Tot_Q>
1

> <i_epik_Tot_abs_Q>
1

> <r_epik_Metal_State_Penalty>
1.34281

> <b_epik_Metal_Only>
0

> <s_lp_Force_Field>
OPLS_2005

> <r_lp_Energy>
23.7878

> <b_lp_Chiralities_Consistent>
1

> <s_lp_Variant>
AV-unprocessed.smi:3031-5

> <Gold.Version>
5.8.1

> <Gold.Id.Protein>
6NUR|6NUR_protein|mol2

> <Gold.PLP.Fitness>
53.8784

> <Gold.PLP.PLP>
-40.5047

> <Gold.PLP.part.hbond>
-4.0000

> <Gold.PLP.part.metal>
0.0000

> <Gold.PLP.part.buried>
-2.1133

> <Gold.PLP.part.nonpolar>
-33.5287

> <Gold.PLP.part.repulsive>
0.1226

> <Gold.PLP.ligand.clash>
0.0000

> <Gold.PLP.ligand.torsion>
0.8043

> <Gold.PLP.Chemscore.Hbond>
3.9440

> <Gold.PLP.Chemscore.CHOScore>
0.9828

> <Gold.PLP.Chemscore.Metal>
0.0000

> <Gold.Chemscore.Hbonds>
donor molecule, donor type, donor heavy atom, donor atom, acceptor molecule, acceptor atom, score
      L1  H    12    35       P1  7948  1.00
      L1  H    14    47       P1  7948  2.00
      P1  H  7989  7998       L1     9  0.67
      L1  C    20    46       P1  8028  1.00

> <Gold.PLP.Chemscore.Internal.Correction>
0.2019

> <Gold.Rescore>
     Score         DG    S(hbond)    S(metal)    S(lipo)     H(rot)  DE(clash)    DE(int)     intcor
     16.15     -17.06       1.93        0.00     102.02       2.65       0.04       0.87       ----

> <Gold.Chemscore.Fitness>
16.1512

> <Gold.Chemscore.DG>
-17.0601

> <Gold.Chemscore.ZeroCoef>
-5.4800

> <Gold.Chemscore.Hbond>
1.9261

> <Gold.Chemscore.Metal>
0.0000

> <Gold.Chemscore.Lipo>
102.0199

> <Gold.Chemscore.Internal_Hbond>
0.0000

> <Gold.Chemscore.DEClash>
0.0398

> <Gold.Chemscore.DEInternal>
0.8691

> <Gold.Chemscore.Rot>
2.6521

> <Gold.Chemscore.Internal.Correction>
   9.000000E+99

> <Gold.Chemscore.Hbonds>
donor molecule, donor type, donor heavy atom, donor atom, acceptor molecule, acceptor atom, score
      L1  H    12    35       P1  7948  0.98
      L1  H    14    47       P1  7948  1.00
      P1  H  7989  7998       L1     9  0.08

> <Gold.Chemscore.Hbond.Weighted>
-6.4331

> <Gold.Chemscore.Metal.Weighted>
-0.0000

> <Gold.Chemscore.Lipo.Weighted>
-11.9363

> <Gold.Chemscore.Internal_Hbond.Weighted>
0.0000

> <Gold.Chemscore.DEClash.Weighted>
0.0398

> <Gold.Chemscore.DEInternal.Weighted>
0.8691

> <Gold.Chemscore.Rot.Weighted>
6.7894

> <Gold.Chemscore.Internal.Correction.Weighted>
   9.000000E+99

> <Gold.Protein.RotatedTorsions>
[ 6907 6896 6895 6894 ] final -146.25 input  -60.11 | X-H torsion
[ 7974 7965 7964 7962 ] final  -65.19 input  175.53 | X-H torsion
[ 8008 7997 7996 7995 ] final  117.57 input   59.86 | X-H torsion
[ 10167 10162 10161 10158 ] final -109.94 input  -65.29 | X-H torsion
[ 10718 10713 10712 10709 ] final  -54.08 input   66.30 | X-H torsion
[ 10763 10752 10751 10750 ] final   53.51 input  -60.55 | X-H torsion
[ 11005 11000 10999 10996 ] final   50.03 input  -57.11 | X-H torsion

> <Gold.Protein.ActiveResidues>
 VAL166  LYS551  ARG553  GLY616  TRP617  ASP618  TYR619  PRO620  LYS621  CYS622 
 ASP623  PHE694  ASN695  SER759  ASP760  ASP761  ALA762  ILE779  LEU786  VAL792 
 PHE793  MET794  SER795  GLU796  ALA797  LYS798  CYS799  TRP800  GLU811  SER814 

> <Gold.Protein.RotatedAtoms>
  151.1391  133.4984  159.2597 H   0  0  0  0  0  0  0  0  0  0  0  0  # atno 6907 bound_to 6896
  151.1675  135.0302  159.8747 H   0  0  0  0  0  0  0  0  0  0  0  0  # atno 6908 bound_to 6896
  152.5462  134.1258  159.8471 H   0  0  0  0  0  0  0  0  0  0  0  0  # atno 6909 bound_to 6896
  145.7574  140.8878  143.0448 H   0  0  0  0  0  0  0  0  0  0  0  0  # atno 7974 bound_to 7965
  156.2501  140.2893  156.0699 H   0  0  0  0  0  0  0  0  0  0  0  0  # atno 8008 bound_to 7997
  155.1682  140.0401  157.2874 H   0  0  0  0  0  0  0  0  0  0  0  0  # atno 8009 bound_to 7997
  154.6344  140.2507  155.7402 H   0  0  0  0  0  0  0  0  0  0  0  0  # atno 8010 bound_to 7997
  140.1498  143.4208  152.1503 H   0  0  0  0  0  0  0  0  0  0  0  0  # atno 10167 bound_to 10162
  156.1481  130.4152  149.9990 H   0  0  0  0  0  0  0  0  0  0  0  0  # atno 10718 bound_to 10713
  152.9796  135.5776  154.4753 H   0  0  0  0  0  0  0  0  0  0  0  0  # atno 10763 bound_to 10752
  154.4309  135.2773  155.1915 H   0  0  0  0  0  0  0  0  0  0  0  0  # atno 10764 bound_to 10752
  154.3623  135.6186  153.5751 H   0  0  0  0  0  0  0  0  0  0  0  0  # atno 10765 bound_to 10752
  140.1052  134.5028  155.8726 H   0  0  0  0  0  0  0  0  0  0  0  0  # atno 11005 bound_to 11000
  144.6837  139.9675  143.7481 LP  0  0  0  0  0  0  0  0  0  0  0  0  # atno 17320 bound_to 7965
  146.0298  139.3324  143.0762 LP  0  0  0  0  0  0  0  0  0  0  0  0  # atno 17321 bound_to 7965
  139.5431  144.7274  151.4669 LP  0  0  0  0  0  0  0  0  0  0  0  0  # atno 17342 bound_to 10162
  140.6709  143.8295  150.6998 LP  0  0  0  0  0  0  0  0  0  0  0  0  # atno 17343 bound_to 10162
  156.7856  130.9237  151.3646 LP  0  0  0  0  0  0  0  0  0  0  0  0  # atno 17370 bound_to 10713
  157.6634  130.8986  149.9878 LP  0  0  0  0  0  0  0  0  0  0  0  0  # atno 17371 bound_to 10713
  141.2116  133.6709  156.6597 LP  0  0  0  0  0  0  0  0  0  0  0  0  # atno 17394 bound_to 11000
  140.3165  134.8043  157.4218 LP  0  0  0  0  0  0  0  0  0  0  0  0  # atno 17395 bound_to 11000

$$$$
