AV-unprocessed.smi:3181|AV-procd|sdf|12150|dock6
  -GOLD-   2272017583D 1   1.00000     0.00000
 Structure written by MMmdl.
 42 43  0  0  0  0  0  0  0  0  2 V2000
  148.4429  141.6013  154.5020 C   0  0  0  0  0  0  0  0  0  0  0  0
  148.9470  141.4004  155.9406 C   0  0  1  0  0  0  0  0  0  0  0  0
  149.2243  139.9198  156.2782 C   0  0  0  0  0  0  0  0  0  0  0  0
  150.3281  139.3648  155.5171 N   0  0  0  0  0  0  0  0  0  0  0  0
  151.6322  139.6432  155.5531 C   0  0  0  0  0  0  0  0  0  0  0  0
  152.3556  138.9269  154.7043 N   0  0  0  0  0  0  0  0  0  0  0  0
  151.3646  138.1793  154.1333 C   0  0  0  0  0  0  0  0  0  0  0  0
  150.1303  138.4041  154.5845 N   0  0  0  0  0  0  0  0  0  0  0  0
  150.1753  142.2011  156.1468 N   0  3  0  0  0  0  0  0  0  0  0  0
  150.5947  142.4081  157.5521 C   0  0  1  0  0  0  0  0  0  0  0  0
  151.2190  141.1355  158.1608 C   0  0  0  0  0  0  0  0  0  0  0  0
  151.7175  141.3787  159.5941 C   0  0  0  0  0  0  0  0  0  0  0  0
  152.7107  142.5556  159.6581 C   0  0  2  0  0  0  0  0  0  0  0  0
  153.2765  142.7496  161.0746 C   0  0  0  0  0  0  0  0  0  0  0  0
  152.1021  143.8481  159.0564 C   0  0  2  0  0  0  0  0  0  0  0  0
  151.0148  144.5043  159.9311 C   0  0  0  0  0  0  0  0  0  0  0  0
  151.5952  143.5791  157.6238 C   0  0  0  0  0  0  0  0  0  0  0  0
  147.4912  141.0961  154.3356 H   0  0  0  0  0  0  0  0  0  0  0  0
  149.1567  141.2157  153.7735 H   0  0  0  0  0  0  0  0  0  0  0  0
  148.2858  142.6589  154.2869 H   0  0  0  0  0  0  0  0  0  0  0  0
  148.1640  141.7662  156.6065 H   0  0  0  0  0  0  0  0  0  0  0  0
  149.4420  139.8092  157.3421 H   0  0  0  0  0  0  0  0  0  0  0  0
  148.3430  139.3093  156.0801 H   0  0  0  0  0  0  0  0  0  0  0  0
  152.0609  140.3823  156.2140 H   0  0  0  0  0  0  0  0  0  0  0  0
  151.5583  137.4484  153.3621 H   0  0  0  0  0  0  0  0  0  0  0  0
  150.9346  141.7798  155.6311 H   0  0  0  0  0  0  0  0  0  0  0  0
  149.7062  142.6786  158.1239 H   0  0  0  0  0  0  0  0  0  0  0  0
  150.4952  140.3205  158.1743 H   0  0  0  0  0  0  0  0  0  0  0  0
  152.0511  140.7996  157.5404 H   0  0  0  0  0  0  0  0  0  0  0  0
  150.8680  141.5671  160.2513 H   0  0  0  0  0  0  0  0  0  0  0  0
  152.1940  140.4717  159.9680 H   0  0  0  0  0  0  0  0  0  0  0  0
  153.5598  142.2866  159.0278 H   0  0  0  0  0  0  0  0  0  0  0  0
  152.4878  142.9352  161.8039 H   0  0  0  0  0  0  0  0  0  0  0  0
  153.9706  143.5896  161.1093 H   0  0  0  0  0  0  0  0  0  0  0  0
  153.8192  141.8624  161.4019 H   0  0  0  0  0  0  0  0  0  0  0  0
  152.9082  144.5789  158.9743 H   0  0  0  0  0  0  0  0  0  0  0  0
  150.1835  143.8297  160.1329 H   0  0  0  0  0  0  0  0  0  0  0  0
  150.6074  145.3906  159.4437 H   0  0  0  0  0  0  0  0  0  0  0  0
  151.4169  144.8296  160.8903 H   0  0  0  0  0  0  0  0  0  0  0  0
  152.4510  143.3579  156.9840 H   0  0  0  0  0  0  0  0  0  0  0  0
  151.1431  144.4840  157.2152 H   0  0  0  0  0  0  0  0  0  0  0  0
  149.9996  143.1153  155.7550 H   0  0  0  0  0  0  0  0  0  0  0  0
  1  2  1  0  0  0  0
  1 18  1  0  0  0  0
  1 19  1  0  0  0  0
  1 20  1  0  0  0  0
  2  3  1  0  0  0  0
  2  9  1  0  0  0  0
  2 21  1  0  0  0  0
  3  4  1  0  0  0  0
  3 22  1  0  0  0  0
  3 23  1  0  0  0  0
  4  8  1  0  0  0  0
  4  5  1  0  0  0  0
  5  6  2  0  0  0  0
  5 24  1  0  0  0  0
  6  7  1  0  0  0  0
  7  8  2  0  0  0  0
  7 25  1  0  0  0  0
  9 10  1  0  0  0  0
  9 26  1  0  0  0  0
  9 42  1  0  0  0  0
 10 17  1  0  0  0  0
 10 11  1  0  0  0  0
 10 27  1  0  0  0  0
 11 12  1  0  0  0  0
 11 28  1  0  0  0  0
 11 29  1  0  0  0  0
 12 13  1  0  0  0  0
 12 30  1  0  0  0  0
 12 31  1  0  0  0  0
 13 14  1  0  0  0  0
 13 15  1  0  0  0  0
 13 32  1  0  0  0  0
 14 33  1  0  0  0  0
 14 34  1  0  0  0  0
 14 35  1  0  0  0  0
 15 16  1  0  0  0  0
 15 17  1  0  0  0  0
 15 36  1  0  0  0  0
 16 37  1  0  0  0  0
 16 38  1  0  0  0  0
 16 39  1  0  0  0  0
 17 40  1  0  0  0  0
 17 41  1  0  0  0  0
M  CHG  1   9   1
M  END
> <s_m_source_file>
AV-unprocessed.smi

> <i_m_source_file_index>
3181

> <i_lp_mmshare_version>
43012

> <i_f3d_flags>
0

> <s_epik_input>
bjFbY0hdbltjSF1uMVtDSDJdW0NAQEhdKFtDSDNdKVtOSF1bQ0BASF0yW0NIMl1bQ0gyXVtDQEBIXShbQ0gzXSlbQ0BASF0oW0NIM10pW0NIMl0y

> <s_epik_cmdline>
J2VwaWtfcHl0aG9uJywgJy1waCcsICc3LjAnLCAnLXRuJywgJzgnLCAnLW1hJywgJzIwMCcsICctbWV0YWxfYmluZGluZycsICctaW1hZScsICc8aW5maWxlLm1hZT4nLCAnLW9tYWUnLCAnPG91dGZpbGUubWFlPic=

> <r_lp_tautomer_probability>
1

> <r_epik_Ionization_Penalty>
0.000617007

> <r_epik_Ionization_Penalty_Charging>
0.000616215

> <r_epik_Ionization_Penalty_Neutral>
7.92544e-07

> <r_epik_State_Penalty>
0.000388807

> <r_epik_Charging_Adjusted_Penalty>
0.00100502

> <i_epik_Tot_Q>
1

> <i_epik_Tot_abs_Q>
1

> <r_epik_Metal_State_Penalty>
-0

> <b_epik_Metal_Only>
0

> <s_lp_Force_Field>
OPLS_2005

> <r_lp_Energy>
21.8546

> <b_lp_Chiralities_Consistent>
1

> <s_lp_Variant>
AV-unprocessed.smi:3181-16

> <Gold.Version>
5.8.1

> <Gold.Id.Protein>
6NUR|6NUR_protein|mol2

> <Gold.PLP.Fitness>
45.3834

> <Gold.PLP.PLP>
-36.9098

> <Gold.PLP.part.hbond>
-1.4528

> <Gold.PLP.part.metal>
0.0000

> <Gold.PLP.part.buried>
-6.5854

> <Gold.PLP.part.nonpolar>
-31.1605

> <Gold.PLP.part.repulsive>
0.3308

> <Gold.PLP.ligand.clash>
0.0000

> <Gold.PLP.ligand.torsion>
0.2774

> <Gold.PLP.Chemscore.Hbond>
2.0000

> <Gold.PLP.Chemscore.CHOScore>
1.0000

> <Gold.PLP.Chemscore.Metal>
0.0000

> <Gold.Chemscore.Hbonds>
donor molecule, donor type, donor heavy atom, donor atom, acceptor molecule, acceptor atom, score
      L1  H     9    42       P1  8028  2.00
      L1  C     7    25       P1  7949  1.00

> <Gold.PLP.Chemscore.Internal.Correction>
0.0283

> <Gold.Rescore>
     Score         DG    S(hbond)    S(metal)    S(lipo)     H(rot)  DE(clash)    DE(int)     intcor
     12.82     -14.30       0.94        0.00      94.60       2.11       0.09       1.39       ----

> <Gold.Chemscore.Fitness>
12.8216

> <Gold.Chemscore.DG>
-14.2983

> <Gold.Chemscore.ZeroCoef>
-5.4800

> <Gold.Chemscore.Hbond>
0.9432

> <Gold.Chemscore.Metal>
0.0000

> <Gold.Chemscore.Lipo>
94.6007

> <Gold.Chemscore.Internal_Hbond>
0.0000

> <Gold.Chemscore.DEClash>
0.0871

> <Gold.Chemscore.DEInternal>
1.3896

> <Gold.Chemscore.Rot>
2.1095

> <Gold.Chemscore.Internal.Correction>
   9.000000E+99

> <Gold.Chemscore.Hbonds>
donor molecule, donor type, donor heavy atom, donor atom, acceptor molecule, acceptor atom, score
      L1  H     9    42       P1  8028  0.93

> <Gold.Chemscore.Hbond.Weighted>
-3.1503

> <Gold.Chemscore.Metal.Weighted>
-0.0000

> <Gold.Chemscore.Lipo.Weighted>
-11.0683

> <Gold.Chemscore.Internal_Hbond.Weighted>
0.0000

> <Gold.Chemscore.DEClash.Weighted>
0.0871

> <Gold.Chemscore.DEInternal.Weighted>
1.3896

> <Gold.Chemscore.Rot.Weighted>
5.4003

> <Gold.Chemscore.Internal.Correction.Weighted>
   9.000000E+99

> <Gold.Protein.RotatedTorsions>
[ 6907 6896 6895 6894 ] final  -54.39 input  -60.11 | X-H torsion
[ 7974 7965 7964 7962 ] final   90.52 input  175.53 | X-H torsion
[ 8008 7997 7996 7995 ] final  -29.64 input   59.86 | X-H torsion
[ 10167 10162 10161 10158 ] final  -54.37 input  -65.29 | X-H torsion
[ 10718 10713 10712 10709 ] final  -15.04 input   66.30 | X-H torsion
[ 10763 10752 10751 10750 ] final -106.57 input  -60.55 | X-H torsion
[ 11005 11000 10999 10996 ] final  141.58 input  -57.11 | X-H torsion

> <Gold.Protein.ActiveResidues>
 VAL166  LYS551  ARG553  GLY616  TRP617  ASP618  TYR619  PRO620  LYS621  CYS622 
 ASP623  PHE694  ASN695  SER759  ASP760  ASP761  ALA762  ILE779  LEU786  VAL792 
 PHE793  MET794  SER795  GLU796  ALA797  LYS798  CYS799  TRP800  GLU811  SER814 

> <Gold.Protein.RotatedAtoms>
  150.8342  134.7608  159.6878 H   0  0  0  0  0  0  0  0  0  0  0  0  # atno 6907 bound_to 6896
  152.4441  134.5527  159.9881 H   0  0  0  0  0  0  0  0  0  0  0  0  # atno 6908 bound_to 6896
  151.5681  133.3356  159.3020 H   0  0  0  0  0  0  0  0  0  0  0  0  # atno 6909 bound_to 6896
  145.5179  139.2278  143.2688 H   0  0  0  0  0  0  0  0  0  0  0  0  # atno 7974 bound_to 7965
  154.4281  140.1812  156.1281 H   0  0  0  0  0  0  0  0  0  0  0  0  # atno 8008 bound_to 7997
  156.0090  140.3352  155.6896 H   0  0  0  0  0  0  0  0  0  0  0  0  # atno 8009 bound_to 7997
  155.6138  140.0652  157.2689 H   0  0  0  0  0  0  0  0  0  0  0  0  # atno 8010 bound_to 7997
  140.6434  143.2521  151.4926 H   0  0  0  0  0  0  0  0  0  0  0  0  # atno 10167 bound_to 10162
  156.6074  130.4840  149.6215 H   0  0  0  0  0  0  0  0  0  0  0  0  # atno 10718 bound_to 10713
  154.8020  135.4707  154.0299 H   0  0  0  0  0  0  0  0  0  0  0  0  # atno 10763 bound_to 10752
  153.1797  135.6838  153.8501 H   0  0  0  0  0  0  0  0  0  0  0  0  # atno 10764 bound_to 10752
  153.8055  135.3224  155.3372 H   0  0  0  0  0  0  0  0  0  0  0  0  # atno 10765 bound_to 10752
  140.0412  134.9304  157.0847 H   0  0  0  0  0  0  0  0  0  0  0  0  # atno 11005 bound_to 11000
  146.2124  140.5990  142.9053 LP  0  0  0  0  0  0  0  0  0  0  0  0  # atno 17320 bound_to 7965
  144.7692  140.5598  143.6682 LP  0  0  0  0  0  0  0  0  0  0  0  0  # atno 17321 bound_to 7965
  139.5644  144.2078  152.1742 LP  0  0  0  0  0  0  0  0  0  0  0  0  # atno 17342 bound_to 10162
  140.1356  144.5249  150.6776 LP  0  0  0  0  0  0  0  0  0  0  0  0  # atno 17343 bound_to 10162
  156.2418  130.6856  151.1563 LP  0  0  0  0  0  0  0  0  0  0  0  0  # atno 17370 bound_to 10713
  157.7263  131.0647  150.5914 LP  0  0  0  0  0  0  0  0  0  0  0  0  # atno 17371 bound_to 10713
  140.4066  134.2026  155.7163 LP  0  0  0  0  0  0  0  0  0  0  0  0  # atno 17394 bound_to 11000
  141.1884  133.8261  157.0996 LP  0  0  0  0  0  0  0  0  0  0  0  0  # atno 17395 bound_to 11000

$$$$
