AV-unprocessed.smi:2055|AV-procd|sdf|8335|dock5
  -GOLD-   2272011 03D 1   1.00000     0.00000
 Structure written by MMmdl.
 43 44  0  0  0  0  0  0  0  0  1 V2000
  145.5944  133.3518  152.9304 C   0  0  0  0  0  0  0  0  0  0  0  0
  145.7824  134.0975  151.6003 C   0  0  1  0  0  0  0  0  0  0  0  0
  144.4583  134.2592  150.8269 C   0  0  0  0  0  0  0  0  0  0  0  0
  144.6719  134.9599  149.6201 O   0  0  0  0  0  0  0  0  0  0  0  0
  146.3729  135.4060  151.8668 N   0  0  0  0  0  0  0  0  0  0  0  0
  145.6934  136.5040  152.2264 C   0  0  0  0  0  0  0  0  0  0  0  0
  144.4697  136.5504  152.3516 O   0  0  0  0  0  0  0  0  0  0  0  0
  146.5117  137.5392  152.4607 N   0  0  0  0  0  0  0  0  0  0  0  0
  146.0817  138.8512  152.9358 C   0  0  0  0  0  0  0  0  0  0  0  0
  147.1897  139.7323  153.5037 C   0  0  0  0  0  0  0  0  0  0  0  0
  147.1723  141.1152  153.2393 C   0  0  0  0  0  0  0  0  0  0  0  0
  148.2034  141.9137  153.7661 C   0  0  0  0  0  0  0  0  0  0  0  0
  149.2107  141.4213  154.5160 N   0  0  0  0  0  0  0  0  0  0  0  0
  149.2448  140.0932  154.7807 C   0  0  0  0  0  0  0  0  0  0  0  0
  150.3090  139.6384  155.5906 N   0  0  0  0  0  0  0  0  0  0  0  0
  151.2820  138.7107  155.0205 C   0  0  0  0  0  0  0  0  0  0  0  0
  152.1259  138.0663  156.1331 C   0  0  0  0  0  0  0  0  0  0  0  0
  152.7250  139.0815  156.9309 O   0  0  0  0  0  0  0  0  0  0  0  0
  151.7470  139.8905  157.5761 C   0  0  0  0  0  0  0  0  0  0  0  0
  150.8834  140.6063  156.5234 C   0  0  0  0  0  0  0  0  0  0  0  0
  148.2513  139.2137  154.2808 C   0  0  0  0  0  0  0  0  0  0  0  0
  145.1937  132.3507  152.7691 H   0  0  0  0  0  0  0  0  0  0  0  0
  144.9071  133.8823  153.5901 H   0  0  0  0  0  0  0  0  0  0  0  0
  146.5433  133.2419  153.4562 H   0  0  0  0  0  0  0  0  0  0  0  0
  146.4818  133.5243  150.9883 H   0  0  0  0  0  0  0  0  0  0  0  0
  144.0066  133.2900  150.6132 H   0  0  0  0  0  0  0  0  0  0  0  0
  143.7351  134.8274  151.4130 H   0  0  0  0  0  0  0  0  0  0  0  0
  145.5371  134.7525  149.3013 H   0  0  0  0  0  0  0  0  0  0  0  0
  147.3774  135.4725  151.7927 H   0  0  0  0  0  0  0  0  0  0  0  0
  147.5035  137.4038  152.3317 H   0  0  0  0  0  0  0  0  0  0  0  0
  145.6239  139.3782  152.0986 H   0  0  0  0  0  0  0  0  0  0  0  0
  145.2991  138.7281  153.6866 H   0  0  0  0  0  0  0  0  0  0  0  0
  146.3854  141.5576  152.6462 H   0  0  0  0  0  0  0  0  0  0  0  0
  148.2196  142.9775  153.5815 H   0  0  0  0  0  0  0  0  0  0  0  0
  150.7739  137.9240  154.4615 H   0  0  0  0  0  0  0  0  0  0  0  0
  151.9272  139.2480  154.3244 H   0  0  0  0  0  0  0  0  0  0  0  0
  151.5134  137.4127  156.7563 H   0  0  0  0  0  0  0  0  0  0  0  0
  152.9096  137.4464  155.6977 H   0  0  0  0  0  0  0  0  0  0  0  0
  151.1285  139.2773  158.2335 H   0  0  0  0  0  0  0  0  0  0  0  0
  152.2520  140.6224  158.2067 H   0  0  0  0  0  0  0  0  0  0  0  0
  151.4916  141.3158  155.9611 H   0  0  0  0  0  0  0  0  0  0  0  0
  150.1116  141.1827  157.0333 H   0  0  0  0  0  0  0  0  0  0  0  0
  148.2968  138.1550  154.4821 H   0  0  0  0  0  0  0  0  0  0  0  0
  1  2  1  0  0  0  0
  1 22  1  0  0  0  0
  1 23  1  0  0  0  0
  1 24  1  0  0  0  0
  2  3  1  0  0  0  0
  2  5  1  0  0  0  0
  2 25  1  0  0  0  0
  3  4  1  0  0  0  0
  3 26  1  0  0  0  0
  3 27  1  0  0  0  0
  4 28  1  0  0  0  0
  5  6  1  0  0  0  0
  5 29  1  0  0  0  0
  6  7  2  0  0  0  0
  6  8  1  0  0  0  0
  8  9  1  0  0  0  0
  8 30  1  0  0  0  0
  9 10  1  0  0  0  0
  9 31  1  0  0  0  0
  9 32  1  0  0  0  0
 10 21  1  0  0  0  0
 10 11  2  0  0  0  0
 11 12  1  0  0  0  0
 11 33  1  0  0  0  0
 12 13  2  0  0  0  0
 12 34  1  0  0  0  0
 13 14  1  0  0  0  0
 14 15  1  0  0  0  0
 14 21  2  0  0  0  0
 15 20  1  0  0  0  0
 15 16  1  0  0  0  0
 16 17  1  0  0  0  0
 16 35  1  0  0  0  0
 16 36  1  0  0  0  0
 17 18  1  0  0  0  0
 17 37  1  0  0  0  0
 17 38  1  0  0  0  0
 18 19  1  0  0  0  0
 19 20  1  0  0  0  0
 19 39  1  0  0  0  0
 19 40  1  0  0  0  0
 20 41  1  0  0  0  0
 20 42  1  0  0  0  0
 21 43  1  0  0  0  0
M  END
> <s_m_source_file>
AV-unprocessed.smi

> <i_m_source_file_index>
2055

> <i_lp_mmshare_version>
43012

> <i_f3d_flags>
0

> <s_epik_input>
W09IXVtDSDJdW0NAQEhdKFtDSDNdKVtOSF1DKD1PKVtOSF1bQ0gyXWMxW2NIXVtjSF1uYyhbY0hdMSlOMltDSDJdW0NIMl1PW0NIMl1bQ0gyXTI=

> <s_epik_cmdline>
J2VwaWtfcHl0aG9uJywgJy1waCcsICc3LjAnLCAnLXRuJywgJzgnLCAnLW1hJywgJzIwMCcsICctbWV0YWxfYmluZGluZycsICctaW1hZScsICc8aW5maWxlLm1hZT4nLCAnLW9tYWUnLCAnPG91dGZpbGUubWFlPic=

> <r_lp_tautomer_probability>
1

> <r_epik_Ionization_Penalty>
0.0122173

> <r_epik_Ionization_Penalty_Charging>
0

> <r_epik_Ionization_Penalty_Neutral>
0.0122173

> <r_epik_State_Penalty>
0.00940497

> <r_epik_Charging_Adjusted_Penalty>
0.00940497

> <i_epik_Tot_Q>
0

> <i_epik_Tot_abs_Q>
0

> <r_epik_Metal_State_Penalty>
0.00921475

> <b_epik_Metal_Only>
0

> <s_lp_Force_Field>
OPLS_2005

> <r_lp_Energy>
11.6971

> <b_lp_Chiralities_Consistent>
1

> <s_lp_Variant>
AV-unprocessed.smi:2055-2

> <Gold.Version>
5.8.1

> <Gold.Id.Protein>
6NUR|6NUR_protein|mol2

> <Gold.PLP.Fitness>
46.9695

> <Gold.PLP.PLP>
-34.3050

> <Gold.PLP.part.hbond>
-3.9518

> <Gold.PLP.part.metal>
0.0000

> <Gold.PLP.part.buried>
-3.2397

> <Gold.PLP.part.nonpolar>
-27.8031

> <Gold.PLP.part.repulsive>
0.5033

> <Gold.PLP.ligand.clash>
0.0000

> <Gold.PLP.ligand.torsion>
1.1077

> <Gold.PLP.Chemscore.Hbond>
3.7760

> <Gold.PLP.Chemscore.CHOScore>
1.0000

> <Gold.PLP.Chemscore.Metal>
0.0000

> <Gold.Chemscore.Hbonds>
donor molecule, donor type, donor heavy atom, donor atom, acceptor molecule, acceptor atom, score
      L1  H     4    28       P1  7921  0.58
      L1  H     5    29       P1  7948  1.00
      L1  H     8    30       P1  7948  0.98
      P1  H  7997  8010       L1    18  1.00
      L1  C    12    34       P1  8028  0.38

> <Gold.PLP.Chemscore.Internal.Correction>
0.5519

> <Gold.Rescore>
     Score         DG    S(hbond)    S(metal)    S(lipo)     H(rot)  DE(clash)    DE(int)     intcor
     15.88     -19.06       3.74        0.00      68.54       2.70       0.36       2.82       ----

> <Gold.Chemscore.Fitness>
15.8790

> <Gold.Chemscore.DG>
-19.0619

> <Gold.Chemscore.ZeroCoef>
-5.4800

> <Gold.Chemscore.Hbond>
3.7374

> <Gold.Chemscore.Metal>
0.0000

> <Gold.Chemscore.Lipo>
68.5381

> <Gold.Chemscore.Internal_Hbond>
0.0000

> <Gold.Chemscore.DEClash>
0.3596

> <Gold.Chemscore.DEInternal>
2.8233

> <Gold.Chemscore.Rot>
2.7031

> <Gold.Chemscore.Internal.Correction>
   9.000000E+99

> <Gold.Chemscore.Hbonds>
donor molecule, donor type, donor heavy atom, donor atom, acceptor molecule, acceptor atom, score
      L1  H     4    28       P1  7921  0.55
      L1  H     5    29       P1  7948  0.99
      L1  H     8    30       P1  7948  0.93
      P1  H  7997  8010       L1    18  0.80

> <Gold.Chemscore.Hbond.Weighted>
-12.4829

> <Gold.Chemscore.Metal.Weighted>
-0.0000

> <Gold.Chemscore.Lipo.Weighted>
-8.0190

> <Gold.Chemscore.Internal_Hbond.Weighted>
0.0000

> <Gold.Chemscore.DEClash.Weighted>
0.3596

> <Gold.Chemscore.DEInternal.Weighted>
2.8233

> <Gold.Chemscore.Rot.Weighted>
6.9199

> <Gold.Chemscore.Internal.Correction.Weighted>
   9.000000E+99

> <Gold.Protein.RotatedTorsions>
[ 6907 6896 6895 6894 ] final  -18.90 input  -60.11 | X-H torsion
[ 7974 7965 7964 7962 ] final -177.35 input  175.53 | X-H torsion
[ 8008 7997 7996 7995 ] final   77.15 input   59.86 | X-H torsion
[ 10167 10162 10161 10158 ] final   12.65 input  -65.29 | X-H torsion
[ 10718 10713 10712 10709 ] final  171.11 input   66.30 | X-H torsion
[ 10763 10752 10751 10750 ] final   79.13 input  -60.55 | X-H torsion
[ 11005 11000 10999 10996 ] final  -34.98 input  -57.11 | X-H torsion

> <Gold.Protein.ActiveResidues>
 VAL166  LYS551  ARG553  GLY616  TRP617  ASP618  TYR619  PRO620  LYS621  CYS622 
 ASP623  PHE694  ASN695  SER759  ASP760  ASP761  ALA762  ILE779  LEU786  VAL792 
 PHE793  MET794  SER795  GLU796  ALA797  LYS798  CYS799  TRP800  GLU811  SER814 

> <Gold.Protein.RotatedAtoms>
  151.2712  135.0685  159.9134 H   0  0  0  0  0  0  0  0  0  0  0  0  # atno 6907 bound_to 6896
  152.5350  134.0128  159.7956 H   0  0  0  0  0  0  0  0  0  0  0  0  # atno 6908 bound_to 6896
  151.0367  133.5692  159.2686 H   0  0  0  0  0  0  0  0  0  0  0  0  # atno 6909 bound_to 6896
  144.7127  140.1033  143.6415 H   0  0  0  0  0  0  0  0  0  0  0  0  # atno 7974 bound_to 7965
  155.8376  140.3463  155.5611 H   0  0  0  0  0  0  0  0  0  0  0  0  # atno 8008 bound_to 7997
  155.8175  140.0908  157.1888 H   0  0  0  0  0  0  0  0  0  0  0  0  # atno 8009 bound_to 7997
  154.4004  140.1436  156.3448 H   0  0  0  0  0  0  0  0  0  0  0  0  # atno 8010 bound_to 7997
  140.6054  143.8518  150.7008 H   0  0  0  0  0  0  0  0  0  0  0  0  # atno 10167 bound_to 10162
  156.9983  131.0168  151.2838 H   0  0  0  0  0  0  0  0  0  0  0  0  # atno 10718 bound_to 10713
  153.0928  135.4851  154.8722 H   0  0  0  0  0  0  0  0  0  0  0  0  # atno 10763 bound_to 10752
  154.7289  135.3056  154.8927 H   0  0  0  0  0  0  0  0  0  0  0  0  # atno 10764 bound_to 10752
  153.9568  135.6817  153.4798 H   0  0  0  0  0  0  0  0  0  0  0  0  # atno 10765 bound_to 10752
  140.9759  133.7083  156.1602 H   0  0  0  0  0  0  0  0  0  0  0  0  # atno 11005 bound_to 11000
  145.9519  139.2739  143.1207 LP  0  0  0  0  0  0  0  0  0  0  0  0  # atno 17320 bound_to 7965
  145.9314  140.9045  143.0354 LP  0  0  0  0  0  0  0  0  0  0  0  0  # atno 17321 bound_to 7965
  140.2074  143.3910  152.1744 LP  0  0  0  0  0  0  0  0  0  0  0  0  # atno 17342 bound_to 10162
  139.5321  144.7170  151.5019 LP  0  0  0  0  0  0  0  0  0  0  0  0  # atno 17343 bound_to 10162
  157.5409  130.8119  149.8027 LP  0  0  0  0  0  0  0  0  0  0  0  0  # atno 17370 bound_to 10713
  156.0181  130.3806  150.2048 LP  0  0  0  0  0  0  0  0  0  0  0  0  # atno 17371 bound_to 10713
  140.7259  134.4308  157.5570 LP  0  0  0  0  0  0  0  0  0  0  0  0  # atno 17394 bound_to 11000
  139.8930  134.8740  156.2242 LP  0  0  0  0  0  0  0  0  0  0  0  0  # atno 17395 bound_to 11000

$$$$
