AV-unprocessed.smi:337|AV-procd|sdf|2373|dock8
  -GOLD-   2262022293D 1   1.00000     0.00000
 Structure written by MMmdl.
 43 44  0  0  0  0  0  0  0  0  1 V2000
  149.7961  135.1827  155.2103 C   0  0  0  0  0  0  0  0  0  0  0  0
  151.1119  134.6137  154.6539 C   0  0  1  0  0  0  0  0  0  0  0  0
  150.8449  134.0459  153.3327 N   0  0  0  0  0  0  0  0  0  0  0  0
  151.3982  132.9218  152.8526 C   0  0  0  0  0  0  0  0  0  0  0  0
  151.0059  132.6545  151.6067 N   0  0  0  0  0  0  0  0  0  0  0  0
  152.1841  132.2100  153.4755 O   0  0  0  0  0  0  0  0  0  0  0  0
  152.1342  135.7547  154.5402 C   0  0  0  0  0  0  0  0  0  0  0  0
  153.1859  135.7188  155.1811 O   0  0  0  0  0  0  0  0  0  0  0  0
  151.8022  136.7693  153.7275 N   0  0  0  0  0  0  0  0  0  0  0  0
  152.5817  137.9916  153.5633 C   0  0  0  0  0  0  0  0  0  0  0  0
  152.3988  138.9893  154.6988 C   0  0  0  0  0  0  0  0  0  0  0  0
  151.2366  139.7808  154.8130 C   0  0  0  0  0  0  0  0  0  0  0  0
  151.1210  140.6741  155.8942 C   0  0  0  0  0  0  0  0  0  0  0  0
  152.1737  140.7583  156.8359 C   0  0  0  0  0  0  0  0  0  0  0  0
  152.0696  141.6377  157.9353 N   0  0  0  0  0  0  0  0  0  0  0  0
  152.3745  141.1118  159.2643 C   0  0  0  0  0  0  0  0  0  0  0  0
  152.4802  142.2596  160.2826 C   0  0  0  0  0  0  0  0  0  0  0  0
  151.2837  143.0310  160.2609 O   0  0  0  0  0  0  0  0  0  0  0  0
  151.0604  143.6244  158.9860 C   0  0  0  0  0  0  0  0  0  0  0  0
  150.9110  142.5274  157.9177 C   0  0  0  0  0  0  0  0  0  0  0  0
  153.2984  140.0105  156.7115 N   0  0  0  0  0  0  0  0  0  0  0  0
  153.4026  139.1532  155.6740 C   0  0  0  0  0  0  0  0  0  0  0  0
  149.9422  135.6216  156.1980 H   0  0  0  0  0  0  0  0  0  0  0  0
  149.0462  134.3978  155.3129 H   0  0  0  0  0  0  0  0  0  0  0  0
  149.3781  135.9542  154.5615 H   0  0  0  0  0  0  0  0  0  0  0  0
  151.4829  133.8343  155.3227 H   0  0  0  0  0  0  0  0  0  0  0  0
  150.2159  134.5624  152.7356 H   0  0  0  0  0  0  0  0  0  0  0  0
  151.3462  131.8314  151.1318 H   0  0  0  0  0  0  0  0  0  0  0  0
  150.3610  133.2786  151.1437 H   0  0  0  0  0  0  0  0  0  0  0  0
  150.9227  136.7159  153.2341 H   0  0  0  0  0  0  0  0  0  0  0  0
  153.6383  137.7420  153.4503 H   0  0  0  0  0  0  0  0  0  0  0  0
  152.2746  138.4704  152.6333 H   0  0  0  0  0  0  0  0  0  0  0  0
  150.4395  139.7088  154.0877 H   0  0  0  0  0  0  0  0  0  0  0  0
  150.2367  141.2872  155.9818 H   0  0  0  0  0  0  0  0  0  0  0  0
  151.5905  140.4163  159.5671 H   0  0  0  0  0  0  0  0  0  0  0  0
  153.3140  140.5578  159.2447 H   0  0  0  0  0  0  0  0  0  0  0  0
  152.6264  141.8588  161.2856 H   0  0  0  0  0  0  0  0  0  0  0  0
  153.3401  142.8955  160.0651 H   0  0  0  0  0  0  0  0  0  0  0  0
  150.1548  144.2295  159.0306 H   0  0  0  0  0  0  0  0  0  0  0  0
  151.8815  144.2993  158.7381 H   0  0  0  0  0  0  0  0  0  0  0  0
  150.7772  142.9975  156.9443 H   0  0  0  0  0  0  0  0  0  0  0  0
  150.0135  141.9381  158.1109 H   0  0  0  0  0  0  0  0  0  0  0  0
  154.3144  138.5757  155.6271 H   0  0  0  0  0  0  0  0  0  0  0  0
  1  2  1  0  0  0  0
  1 23  1  0  0  0  0
  1 24  1  0  0  0  0
  1 25  1  0  0  0  0
  2  3  1  0  0  0  0
  2  7  1  0  0  0  0
  2 26  1  0  0  0  0
  3  4  1  0  0  0  0
  3 27  1  0  0  0  0
  4  5  1  0  0  0  0
  4  6  2  0  0  0  0
  5 28  1  0  0  0  0
  5 29  1  0  0  0  0
  7  8  2  0  0  0  0
  7  9  1  0  0  0  0
  9 10  1  0  0  0  0
  9 30  1  0  0  0  0
 10 11  1  0  0  0  0
 10 31  1  0  0  0  0
 10 32  1  0  0  0  0
 11 22  1  0  0  0  0
 11 12  2  0  0  0  0
 12 13  1  0  0  0  0
 12 33  1  0  0  0  0
 13 14  2  0  0  0  0
 13 34  1  0  0  0  0
 14 15  1  0  0  0  0
 14 21  1  0  0  0  0
 15 20  1  0  0  0  0
 15 16  1  0  0  0  0
 16 17  1  0  0  0  0
 16 35  1  0  0  0  0
 16 36  1  0  0  0  0
 17 18  1  0  0  0  0
 17 37  1  0  0  0  0
 17 38  1  0  0  0  0
 18 19  1  0  0  0  0
 19 20  1  0  0  0  0
 19 39  1  0  0  0  0
 19 40  1  0  0  0  0
 20 41  1  0  0  0  0
 20 42  1  0  0  0  0
 21 22  2  0  0  0  0
 22 43  1  0  0  0  0
M  END
> <s_m_source_file>
AV-unprocessed.smi

> <i_m_source_file_index>
337

> <i_lp_mmshare_version>
43012

> <i_f3d_flags>
0

> <s_epik_input>
W05IMl1DKD1PKVtOSF1bQ0BASF0oW0NIM10pQyg9TylbTkhdW0NIMl1jMVtjSF1bY0hdYyhuW2NIXTEpTjJbQ0gyXVtDSDJdT1tDSDJdW0NIMl0y

> <s_epik_cmdline>
J2VwaWtfcHl0aG9uJywgJy1waCcsICc3LjAnLCAnLXRuJywgJzgnLCAnLW1hJywgJzIwMCcsICctbWV0YWxfYmluZGluZycsICctaW1hZScsICc8aW5maWxlLm1hZT4nLCAnLW9tYWUnLCAnPG91dGZpbGUubWFlPic=

> <r_lp_tautomer_probability>
1

> <r_epik_Ionization_Penalty>
0.0048357

> <r_epik_Ionization_Penalty_Charging>
0

> <r_epik_Ionization_Penalty_Neutral>
0.0048357

> <r_epik_State_Penalty>
0.0034696

> <r_epik_Charging_Adjusted_Penalty>
0.0034696

> <i_epik_Tot_Q>
0

> <i_epik_Tot_abs_Q>
0

> <r_epik_Metal_State_Penalty>
-0

> <b_epik_Metal_Only>
0

> <s_lp_Force_Field>
OPLS_2005

> <r_lp_Energy>
9.87941

> <b_lp_Chiralities_Consistent>
1

> <s_lp_Variant>
AV-unprocessed.smi:337-2

> <Gold.Version>
5.8.1

> <Gold.Id.Protein>
6NUR|6NUR_protein|mol2

> <Gold.PLP.Fitness>
50.4993

> <Gold.PLP.PLP>
-39.3795

> <Gold.PLP.part.hbond>
-6.2538

> <Gold.PLP.part.metal>
0.0000

> <Gold.PLP.part.buried>
-0.5321

> <Gold.PLP.part.nonpolar>
-31.4092

> <Gold.PLP.part.repulsive>
0.2521

> <Gold.PLP.ligand.clash>
0.0000

> <Gold.PLP.ligand.torsion>
0.7999

> <Gold.PLP.Chemscore.Hbond>
4.1275

> <Gold.PLP.Chemscore.CHOScore>
0.0000

> <Gold.PLP.Chemscore.Metal>
0.0000

> <Gold.Chemscore.Hbonds>
donor molecule, donor type, donor heavy atom, donor atom, acceptor molecule, acceptor atom, score
      L1  H     9    30       P1  7949  0.20
      P1  H  7997  8008       L1    21  0.08

> <Gold.PLP.Chemscore.Internal.Correction>
0.3372

> <Gold.Rescore>
     Score         DG    S(hbond)    S(metal)    S(lipo)     H(rot)  DE(clash)    DE(int)     intcor
     13.57     -15.74       2.31        0.00      79.90       2.66       0.35       1.82       ----

> <Gold.Chemscore.Fitness>
13.5681

> <Gold.Chemscore.DG>
-15.7433

> <Gold.Chemscore.ZeroCoef>
-5.4800

> <Gold.Chemscore.Hbond>
2.3107

> <Gold.Chemscore.Metal>
0.0000

> <Gold.Chemscore.Lipo>
79.8991

> <Gold.Chemscore.Internal_Hbond>
0.0000

> <Gold.Chemscore.DEClash>
0.3526

> <Gold.Chemscore.DEInternal>
1.8226

> <Gold.Chemscore.Rot>
2.6573

> <Gold.Chemscore.Internal.Correction>
   9.000000E+99

> <Gold.Chemscore.Hbonds>
donor molecule, donor type, donor heavy atom, donor atom, acceptor molecule, acceptor atom, score
      L1  H     9    30       P1  7949  0.04
      P1  H  7997  8008       L1    21  0.01

> <Gold.Chemscore.Hbond.Weighted>
-7.7179

> <Gold.Chemscore.Metal.Weighted>
-0.0000

> <Gold.Chemscore.Lipo.Weighted>
-9.3482

> <Gold.Chemscore.Internal_Hbond.Weighted>
0.0000

> <Gold.Chemscore.DEClash.Weighted>
0.3526

> <Gold.Chemscore.DEInternal.Weighted>
1.8226

> <Gold.Chemscore.Rot.Weighted>
6.8027

> <Gold.Chemscore.Internal.Correction.Weighted>
   9.000000E+99

> <Gold.Protein.RotatedTorsions>
[ 6907 6896 6895 6894 ] final   70.15 input  -60.11 | X-H torsion
[ 7974 7965 7964 7962 ] final   90.04 input  175.53 | X-H torsion
[ 8008 7997 7996 7995 ] final  -76.70 input   59.86 | X-H torsion
[ 10167 10162 10161 10158 ] final -142.57 input  -65.29 | X-H torsion
[ 10718 10713 10712 10709 ] final  135.46 input   66.30 | X-H torsion
[ 10763 10752 10751 10750 ] final   55.29 input  -60.55 | X-H torsion
[ 11005 11000 10999 10996 ] final  113.63 input  -57.11 | X-H torsion

> <Gold.Protein.ActiveResidues>
 VAL166  LYS551  ARG553  GLY616  TRP617  ASP618  TYR619  PRO620  LYS621  CYS622 
 ASP623  PHE694  ASN695  SER759  ASP760  ASP761  ALA762  ILE779  LEU786  VAL792 
 PHE793  MET794  SER795  GLU796  ALA797  LYS798  CYS799  TRP800  GLU811  SER814 

> <Gold.Protein.RotatedAtoms>
  152.4731  134.4911  159.9695 H   0  0  0  0  0  0  0  0  0  0  0  0  # atno 6907 bound_to 6896
  151.4933  133.3514  159.2865 H   0  0  0  0  0  0  0  0  0  0  0  0  # atno 6908 bound_to 6896
  150.8753  134.8162  159.7246 H   0  0  0  0  0  0  0  0  0  0  0  0  # atno 6909 bound_to 6896
  145.5243  139.2280  143.2654 H   0  0  0  0  0  0  0  0  0  0  0  0  # atno 7974 bound_to 7965
  154.5528  140.0723  156.8696 H   0  0  0  0  0  0  0  0  0  0  0  0  # atno 8008 bound_to 7997
  155.2959  140.3381  155.4232 H   0  0  0  0  0  0  0  0  0  0  0  0  # atno 8009 bound_to 7997
  156.1976  140.1709  156.7951 H   0  0  0  0  0  0  0  0  0  0  0  0  # atno 8010 bound_to 7997
  139.8076  143.7747  152.2662 H   0  0  0  0  0  0  0  0  0  0  0  0  # atno 10167 bound_to 10162
  157.4568  131.1070  150.9968 H   0  0  0  0  0  0  0  0  0  0  0  0  # atno 10718 bound_to 10713
  152.9815  135.5716  154.5042 H   0  0  0  0  0  0  0  0  0  0  0  0  # atno 10763 bound_to 10752
  154.4557  135.2780  155.1751 H   0  0  0  0  0  0  0  0  0  0  0  0  # atno 10764 bound_to 10752
  154.3360  135.6239  153.5627 H   0  0  0  0  0  0  0  0  0  0  0  0  # atno 10765 bound_to 10752
  139.8958  134.9553  156.6769 H   0  0  0  0  0  0  0  0  0  0  0  0  # atno 11005 bound_to 11000
  146.2086  140.6056  142.9070 LP  0  0  0  0  0  0  0  0  0  0  0  0  # atno 17320 bound_to 7965
  144.7659  140.5530  143.6703 LP  0  0  0  0  0  0  0  0  0  0  0  0  # atno 17321 bound_to 7965
  139.7886  144.7418  150.9987 LP  0  0  0  0  0  0  0  0  0  0  0  0  # atno 17342 bound_to 10162
  140.7819  143.4466  151.0474 LP  0  0  0  0  0  0  0  0  0  0  0  0  # atno 17343 bound_to 10162
  157.0779  130.5891  149.5415 LP  0  0  0  0  0  0  0  0  0  0  0  0  # atno 17370 bound_to 10713
  156.0011  130.5090  150.7665 LP  0  0  0  0  0  0  0  0  0  0  0  0  # atno 17371 bound_to 10713
  140.7330  133.9043  155.8224 LP  0  0  0  0  0  0  0  0  0  0  0  0  # atno 17394 bound_to 11000
  141.0138  134.0983  157.4193 LP  0  0  0  0  0  0  0  0  0  0  0  0  # atno 17395 bound_to 11000

$$$$
