AV-unprocessed.smi:2550|AV-procd|sdf|10011|dock3
  -GOLD-   2272014 53D 1   1.00000     0.00000
 Structure written by MMmdl.
 28 29  0  0  0  0  0  0  0  0  2 V2000
  147.5451  129.3031  153.9416 C   0  0  0  0  0  0  0  0  0  0  0  0
  146.6173  129.0941  152.7338 C   0  0  0  0  0  0  0  0  0  0  0  0
  147.3404  128.4141  151.5599 C   0  0  0  0  0  0  0  0  0  0  0  0
  145.5843  128.2205  153.1500 O   0  0  0  0  0  0  0  0  0  0  0  0
  145.9530  130.3823  152.3099 C   0  0  0  0  0  0  0  0  0  0  0  0
  145.0803  130.6343  151.2856 C   0  0  0  0  0  0  0  0  0  0  0  0
  144.8154  131.9811  151.4096 N   0  0  0  0  0  0  0  0  0  0  0  0
  144.0128  132.7985  150.5499 C   0  0  0  0  0  0  0  0  0  0  0  0
  144.2214  132.8039  149.0354 C   0  0  0  0  0  0  0  0  0  0  0  0
  143.8569  134.2151  149.0526 N   0  3  0  0  0  0  0  0  0  0  0  0
  144.2594  134.3024  150.4508 C   0  0  0  0  0  0  0  0  0  0  0  0
  145.5227  132.5374  152.4194 N   0  0  0  0  0  0  0  0  0  0  0  0
  146.1943  131.5833  152.9821 N   0  0  0  0  0  0  0  0  0  0  0  0
  148.3695  129.9729  153.6942 H   0  0  0  0  0  0  0  0  0  0  0  0
  147.9790  128.3611  154.2787 H   0  0  0  0  0  0  0  0  0  0  0  0
  147.0080  129.7406  154.7841 H   0  0  0  0  0  0  0  0  0  0  0  0
  148.1470  129.0402  151.1772 H   0  0  0  0  0  0  0  0  0  0  0  0
  146.6568  128.2169  150.7332 H   0  0  0  0  0  0  0  0  0  0  0  0
  147.7793  127.4622  151.8606 H   0  0  0  0  0  0  0  0  0  0  0  0
  144.8925  128.7371  153.5343 H   0  0  0  0  0  0  0  0  0  0  0  0
  144.6489  130.0031  150.5227 H   0  0  0  0  0  0  0  0  0  0  0  0
  142.9709  132.5882  150.8018 H   0  0  0  0  0  0  0  0  0  0  0  0
  145.2600  132.6527  148.7341 H   0  0  0  0  0  0  0  0  0  0  0  0
  143.5330  132.1725  148.4730 H   0  0  0  0  0  0  0  0  0  0  0  0
  144.4059  134.7901  148.4295 H   0  0  0  0  0  0  0  0  0  0  0  0
  143.6028  134.9182  151.0661 H   0  0  0  0  0  0  0  0  0  0  0  0
  145.3091  134.5821  150.5605 H   0  0  0  0  0  0  0  0  0  0  0  0
  142.8602  134.3409  148.9462 H   0  0  0  0  0  0  0  0  0  0  0  0
  1  2  1  0  0  0  0
  1 14  1  0  0  0  0
  1 15  1  0  0  0  0
  1 16  1  0  0  0  0
  2  3  1  0  0  0  0
  2  4  1  0  0  0  0
  2  5  1  0  0  0  0
  3 17  1  0  0  0  0
  3 18  1  0  0  0  0
  3 19  1  0  0  0  0
  4 20  1  0  0  0  0
  5 13  1  0  0  0  0
  5  6  2  0  0  0  0
  6  7  1  0  0  0  0
  6 21  1  0  0  0  0
  7  8  1  0  0  0  0
  7 12  1  0  0  0  0
  8 11  1  0  0  0  0
  8  9  1  0  0  0  0
  8 22  1  0  0  0  0
  9 10  1  0  0  0  0
  9 23  1  0  0  0  0
  9 24  1  0  0  0  0
 10 11  1  0  0  0  0
 10 25  1  0  0  0  0
 10 28  1  0  0  0  0
 11 26  1  0  0  0  0
 11 27  1  0  0  0  0
 12 13  2  0  0  0  0
M  CHG  1  10   1
M  END
> <s_m_source_file>
AV-unprocessed.smi

> <i_m_source_file_index>
2550

> <i_lp_mmshare_version>
43012

> <i_f3d_flags>
0

> <s_epik_input>
W0NIM11DKFtDSDNdKShbT0hdKWMxW2NIXW4obm4xKVtDSF0yW0NIMl1bTkhdW0NIMl0y

> <s_epik_cmdline>
J2VwaWtfcHl0aG9uJywgJy1waCcsICc3LjAnLCAnLXRuJywgJzgnLCAnLW1hJywgJzIwMCcsICctbWV0YWxfYmluZGluZycsICctaW1hZScsICc8aW5maWxlLm1hZT4nLCAnLW9tYWUnLCAnPG91dGZpbGUubWFlPic=

> <r_lp_tautomer_probability>
1

> <r_epik_Ionization_Penalty>
0.215038

> <r_epik_Ionization_Penalty_Charging>
0.215038

> <r_epik_Ionization_Penalty_Neutral>
3.71976e-07

> <r_epik_State_Penalty>
0.20523

> <r_epik_Charging_Adjusted_Penalty>
0.420268

> <i_epik_Tot_Q>
1

> <i_epik_Tot_abs_Q>
1

> <r_epik_Metal_State_Penalty>
0.20531

> <b_epik_Metal_Only>
0

> <s_lp_Force_Field>
OPLS_2005

> <r_lp_Energy>
9.80929

> <b_lp_Chiralities_Consistent>
1

> <s_lp_Variant>
AV-unprocessed.smi:2550-1

> <Gold.Version>
5.8.1

> <Gold.Id.Protein>
6NUR|6NUR_protein|mol2

> <Gold.PLP.Fitness>
39.9509

> <Gold.PLP.PLP>
-28.9248

> <Gold.PLP.part.hbond>
-3.0000

> <Gold.PLP.part.metal>
0.0000

> <Gold.PLP.part.buried>
-5.0071

> <Gold.PLP.part.nonpolar>
-20.8898

> <Gold.PLP.part.repulsive>
0.4106

> <Gold.PLP.ligand.clash>
0.0000

> <Gold.PLP.ligand.torsion>
0.4204

> <Gold.PLP.Chemscore.Hbond>
3.8480

> <Gold.PLP.Chemscore.CHOScore>
0.0000

> <Gold.PLP.Chemscore.Metal>
0.0000

> <Gold.Chemscore.Hbonds>
donor molecule, donor type, donor heavy atom, donor atom, acceptor molecule, acceptor atom, score
      L1  H     4    20       P1 10956  0.62
      L1  H    10    25       P1  7921  0.80
      L1  H    10    28       P1 10186  2.00

> <Gold.PLP.Chemscore.Internal.Correction>
0.3229

> <Gold.Rescore>
     Score         DG    S(hbond)    S(metal)    S(lipo)     H(rot)  DE(clash)    DE(int)     intcor
     18.49     -18.76       2.86        0.00      70.61       1.78       0.01       0.25       ----

> <Gold.Chemscore.Fitness>
18.4934

> <Gold.Chemscore.DG>
-18.7553

> <Gold.Chemscore.ZeroCoef>
-5.4800

> <Gold.Chemscore.Hbond>
2.8637

> <Gold.Chemscore.Metal>
0.0000

> <Gold.Chemscore.Lipo>
70.6054

> <Gold.Chemscore.Internal_Hbond>
0.0000

> <Gold.Chemscore.DEClash>
0.0077

> <Gold.Chemscore.DEInternal>
0.2541

> <Gold.Chemscore.Rot>
1.7775

> <Gold.Chemscore.Internal.Correction>
   9.000000E+99

> <Gold.Chemscore.Hbonds>
donor molecule, donor type, donor heavy atom, donor atom, acceptor molecule, acceptor atom, score
      L1  H     4    20       P1 10956  0.61
      L1  H    10    25       P1  7921  0.79
      L1  H    10    28       P1 10186  0.98

> <Gold.Chemscore.Hbond.Weighted>
-9.5647

> <Gold.Chemscore.Metal.Weighted>
-0.0000

> <Gold.Chemscore.Lipo.Weighted>
-8.2608

> <Gold.Chemscore.Internal_Hbond.Weighted>
0.0000

> <Gold.Chemscore.DEClash.Weighted>
0.0077

> <Gold.Chemscore.DEInternal.Weighted>
0.2541

> <Gold.Chemscore.Rot.Weighted>
4.5503

> <Gold.Chemscore.Internal.Correction.Weighted>
   9.000000E+99

> <Gold.Protein.RotatedTorsions>
[ 6907 6896 6895 6894 ] final  179.28 input  -60.11 | X-H torsion
[ 7974 7965 7964 7962 ] final -103.38 input  175.53 | X-H torsion
[ 8008 7997 7996 7995 ] final  -80.86 input   59.86 | X-H torsion
[ 10167 10162 10161 10158 ] final   91.35 input  -65.29 | X-H torsion
[ 10718 10713 10712 10709 ] final   12.29 input   66.30 | X-H torsion
[ 10763 10752 10751 10750 ] final  -55.18 input  -60.55 | X-H torsion
[ 11005 11000 10999 10996 ] final  -69.51 input  -57.11 | X-H torsion

> <Gold.Protein.ActiveResidues>
 VAL166  LYS551  ARG553  GLY616  TRP617  ASP618  TYR619  PRO620  LYS621  CYS622 
 ASP623  PHE694  ASN695  SER759  ASP760  ASP761  ALA762  ILE779  LEU786  VAL792 
 PHE793  MET794  SER795  GLU796  ALA797  LYS798  CYS799  TRP800  GLU811  SER814 

> <Gold.Protein.RotatedAtoms>
  151.6742  133.3313  159.3203 H   0  0  0  0  0  0  0  0  0  0  0  0  # atno 6907 bound_to 6896
  150.7853  134.6837  159.6467 H   0  0  0  0  0  0  0  0  0  0  0  0  # atno 6908 bound_to 6896
  152.3921  134.6427  160.0155 H   0  0  0  0  0  0  0  0  0  0  0  0  # atno 6909 bound_to 6896
  145.2566  140.9255  143.3064 H   0  0  0  0  0  0  0  0  0  0  0  0  # atno 7974 bound_to 7965
  154.5925  140.0656  156.9258 H   0  0  0  0  0  0  0  0  0  0  0  0  # atno 8008 bound_to 7997
  155.2271  140.3334  155.4290 H   0  0  0  0  0  0  0  0  0  0  0  0  # atno 8009 bound_to 7997
  156.2265  140.1821  156.7334 H   0  0  0  0  0  0  0  0  0  0  0  0  # atno 8010 bound_to 7997
  139.8384  144.6653  150.9314 H   0  0  0  0  0  0  0  0  0  0  0  0  # atno 10167 bound_to 10162
  157.0079  130.6105  149.5704 H   0  0  0  0  0  0  0  0  0  0  0  0  # atno 10718 bound_to 10713
  154.1866  135.6434  153.5048 H   0  0  0  0  0  0  0  0  0  0  0  0  # atno 10763 bound_to 10752
  153.0045  135.5419  154.6458 H   0  0  0  0  0  0  0  0  0  0  0  0  # atno 10764 bound_to 10752
  154.5836  135.2927  155.0680 H   0  0  0  0  0  0  0  0  0  0  0  0  # atno 10765 bound_to 10752
  141.1555  133.6766  156.6610 H   0  0  0  0  0  0  0  0  0  0  0  0  # atno 11005 bound_to 11000
  144.9455  139.4141  143.6428 LP  0  0  0  0  0  0  0  0  0  0  0  0  # atno 17320 bound_to 7965
  146.3287  139.8436  142.8886 LP  0  0  0  0  0  0  0  0  0  0  0  0  # atno 17321 bound_to 7965
  140.7800  143.3936  151.1268 LP  0  0  0  0  0  0  0  0  0  0  0  0  # atno 17342 bound_to 10162
  139.7584  143.8672  152.3094 LP  0  0  0  0  0  0  0  0  0  0  0  0  # atno 17343 bound_to 10162
  156.0147  130.5240  150.8097 LP  0  0  0  0  0  0  0  0  0  0  0  0  # atno 17370 bound_to 10713
  157.5342  131.0938  150.9915 LP  0  0  0  0  0  0  0  0  0  0  0  0  # atno 17371 bound_to 10713
  140.3247  134.7978  157.4280 LP  0  0  0  0  0  0  0  0  0  0  0  0  # atno 17394 bound_to 11000
  140.1067  134.5400  155.8303 LP  0  0  0  0  0  0  0  0  0  0  0  0  # atno 17395 bound_to 11000

$$$$
