AV-unprocessed.smi:1707|AV-procd|sdf|6888|dock4
  -GOLD-   22720 8 93D 1   1.00000     0.00000
 Structure written by MMmdl.
 40 41  0  0  0  0  0  0  0  0  2 V2000
  150.2174  139.5014  158.9747 O   0  0  0  0  0  0  0  0  0  0  0  0
  149.7841  138.9956  157.9395 C   0  0  0  0  0  0  0  0  0  0  0  0
  149.6049  139.6883  156.8055 N   0  0  0  0  0  0  0  0  0  0  0  0
  149.8925  141.1080  156.6381 C   0  0  0  0  0  0  0  0  0  0  0  0
  149.3605  141.9345  157.8221 C   0  0  0  0  0  0  0  0  0  0  0  0
  150.4179  142.8405  158.4303 C   0  0  0  0  0  0  0  0  0  0  0  0
  151.5767  142.3571  158.9192 C   0  0  0  0  0  0  0  0  0  0  0  0
  152.6619  143.2144  159.5466 C   0  0  0  0  0  0  0  0  0  0  0  0
  152.1692  144.6325  159.8796 C   0  0  0  0  0  0  0  0  0  0  0  0
  151.3249  145.2082  158.7359 C   0  0  0  0  0  0  0  0  0  0  0  0
  150.0931  144.3302  158.4522 C   0  0  0  0  0  0  0  0  0  0  0  0
  149.4148  137.7119  157.7775 N   0  0  0  0  0  0  0  0  0  0  0  0
  149.4515  136.6437  158.6907 C   0  0  0  0  0  0  0  0  0  0  0  0
  148.9806  136.6897  159.9681 C   0  0  0  0  0  0  0  0  0  0  0  0
  149.0605  135.5486  160.8712 C   0  0  0  0  0  0  0  0  0  0  0  0
  148.4595  135.5342  162.2657 C   0  0  0  0  0  0  0  0  0  0  0  0
  149.0055  136.4775  163.0337 F   0  0  0  0  0  0  0  0  0  0  0  0
  147.1487  135.7619  162.1967 F   0  0  0  0  0  0  0  0  0  0  0  0
  148.6457  134.3528  162.8542 F   0  0  0  0  0  0  0  0  0  0  0  0
  149.6469  134.4489  160.2757 C   0  0  0  0  0  0  0  0  0  0  0  0
  150.1606  134.3278  159.0322 N   0  5  0  0  0  0  0  0  0  0  0  0
  150.0821  135.4018  158.1967 C   0  0  0  0  0  0  0  0  0  0  0  0
  150.5249  135.3571  157.0483 O   0  0  0  0  0  0  0  0  0  0  0  0
  149.2438  139.1974  156.0007 H   0  0  0  0  0  0  0  0  0  0  0  0
  150.9664  141.2524  156.5101 H   0  0  0  0  0  0  0  0  0  0  0  0
  149.4216  141.4411  155.7129 H   0  0  0  0  0  0  0  0  0  0  0  0
  148.5130  142.5371  157.4917 H   0  0  0  0  0  0  0  0  0  0  0  0
  148.9809  141.2767  158.6048 H   0  0  0  0  0  0  0  0  0  0  0  0
  151.7815  141.2978  158.8678 H   0  0  0  0  0  0  0  0  0  0  0  0
  153.0285  142.7275  160.4506 H   0  0  0  0  0  0  0  0  0  0  0  0
  153.4989  143.2601  158.8493 H   0  0  0  0  0  0  0  0  0  0  0  0
  151.5670  144.6048  160.7888 H   0  0  0  0  0  0  0  0  0  0  0  0
  153.0184  145.2829  160.0912 H   0  0  0  0  0  0  0  0  0  0  0  0
  151.0100  146.2253  158.9711 H   0  0  0  0  0  0  0  0  0  0  0  0
  151.9385  145.2757  157.8366 H   0  0  0  0  0  0  0  0  0  0  0  0
  149.6505  144.6220  157.4993 H   0  0  0  0  0  0  0  0  0  0  0  0
  149.3363  144.5034  159.2178 H   0  0  0  0  0  0  0  0  0  0  0  0
  149.0263  137.4697  156.8777 H   0  0  0  0  0  0  0  0  0  0  0  0
  148.5426  137.5888  160.3673 H   0  0  0  0  0  0  0  0  0  0  0  0
  149.7085  133.5252  160.8898 H   0  0  0  0  0  0  0  0  0  0  0  0
  1  2  2  0  0  0  0
  2  3  1  0  0  0  0
  2 12  1  0  0  0  0
  3  4  1  0  0  0  0
  3 24  1  0  0  0  0
  4  5  1  0  0  0  0
  4 25  1  0  0  0  0
  4 26  1  0  0  0  0
  5  6  1  0  0  0  0
  5 27  1  0  0  0  0
  5 28  1  0  0  0  0
  6 11  1  0  0  0  0
  6  7  2  0  0  0  0
  7  8  1  0  0  0  0
  7 29  1  0  0  0  0
  8  9  1  0  0  0  0
  8 30  1  0  0  0  0
  8 31  1  0  0  0  0
  9 10  1  0  0  0  0
  9 32  1  0  0  0  0
  9 33  1  0  0  0  0
 10 11  1  0  0  0  0
 10 34  1  0  0  0  0
 10 35  1  0  0  0  0
 11 36  1  0  0  0  0
 11 37  1  0  0  0  0
 12 13  1  0  0  0  0
 12 38  1  0  0  0  0
 13 22  1  0  0  0  0
 13 14  2  0  0  0  0
 14 15  1  0  0  0  0
 14 39  1  0  0  0  0
 15 16  1  0  0  0  0
 15 20  2  0  0  0  0
 16 17  1  0  0  0  0
 16 18  1  0  0  0  0
 16 19  1  0  0  0  0
 20 21  1  0  0  0  0
 20 40  1  0  0  0  0
 21 22  1  0  0  0  0
 22 23  2  0  0  0  0
M  CHG  1  21  -1
M  END
> <s_m_source_file>
AV-unprocessed.smi

> <i_m_source_file_index>
1707

> <i_lp_mmshare_version>
43012

> <i_f3d_flags>
0

> <s_epik_input>
Tz1jMVtuSF1bY0hdYyhDKEYpKEYpRilbY0hdYzFbTkhdQyg9TylbTkhdW0NIMl1bQ0gyXUMyPVtDSF1bQ0gyXVtDSDJdW0NIMl1bQ0gyXTI=

> <s_epik_cmdline>
J2VwaWtfcHl0aG9uJywgJy1waCcsICc3LjAnLCAnLXRuJywgJzgnLCAnLW1hJywgJzIwMCcsICctbWV0YWxfYmluZGluZycsICctaW1hZScsICc8aW5maWxlLm1hZT4nLCAnLW9tYWUnLCAnPG91dGZpbGUubWFlPic=

> <r_lp_tautomer_probability>
1

> <r_epik_Ionization_Penalty>
3.1649

> <r_epik_Ionization_Penalty_Charging>
0.171543

> <r_epik_Ionization_Penalty_Neutral>
2.99336

> <r_epik_State_Penalty>
2.98952

> <r_epik_Charging_Adjusted_Penalty>
3.16106

> <i_epik_Tot_Q>
-1

> <i_epik_Tot_abs_Q>
1

> <r_epik_Metal_State_Penalty>
0.452963

> <b_epik_Metal_Only>
1

> <s_lp_Force_Field>
OPLS_2005

> <r_lp_Energy>
21.1574

> <b_lp_Chiralities_Consistent>
1

> <s_lp_Variant>
AV-unprocessed.smi:1707-2

> <Gold.Version>
5.8.1

> <Gold.Id.Protein>
6NUR|6NUR_protein|mol2

> <Gold.PLP.Fitness>
46.2961

> <Gold.PLP.PLP>
-42.0975

> <Gold.PLP.part.hbond>
-2.8282

> <Gold.PLP.part.metal>
0.0000

> <Gold.PLP.part.buried>
-3.4083

> <Gold.PLP.part.nonpolar>
-36.0575

> <Gold.PLP.part.repulsive>
0.0751

> <Gold.PLP.ligand.clash>
0.0000

> <Gold.PLP.ligand.torsion>
0.9095

> <Gold.PLP.Chemscore.Hbond>
1.9840

> <Gold.PLP.Chemscore.CHOScore>
0.0000

> <Gold.PLP.Chemscore.Metal>
0.0000

> <Gold.PLP.Chemscore.Internal.Correction>
0.0656

> <Gold.Rescore>
     Score         DG    S(hbond)    S(metal)    S(lipo)     H(rot)  DE(clash)    DE(int)     intcor
     11.13     -13.56       0.00        0.00     102.98       1.55       0.25       2.17       ----

> <Gold.Chemscore.Fitness>
11.1296

> <Gold.Chemscore.DG>
-13.5577

> <Gold.Chemscore.ZeroCoef>
-5.4800

> <Gold.Chemscore.Hbond>
0.0011

> <Gold.Chemscore.Metal>
0.0000

> <Gold.Chemscore.Lipo>
102.9756

> <Gold.Chemscore.Internal_Hbond>
0.0000

> <Gold.Chemscore.DEClash>
0.2538

> <Gold.Chemscore.DEInternal>
2.1743

> <Gold.Chemscore.Rot>
1.5523

> <Gold.Chemscore.Internal.Correction>
   9.000000E+99

> <Gold.Chemscore.Hbond.Weighted>
-0.0036

> <Gold.Chemscore.Metal.Weighted>
-0.0000

> <Gold.Chemscore.Lipo.Weighted>
-12.0482

> <Gold.Chemscore.Internal_Hbond.Weighted>
0.0000

> <Gold.Chemscore.DEClash.Weighted>
0.2538

> <Gold.Chemscore.DEInternal.Weighted>
2.1743

> <Gold.Chemscore.Rot.Weighted>
3.9740

> <Gold.Chemscore.Internal.Correction.Weighted>
   9.000000E+99

> <Gold.Protein.RotatedTorsions>
[ 6907 6896 6895 6894 ] final  129.62 input  -60.11 | X-H torsion
[ 7974 7965 7964 7962 ] final  -47.77 input  175.53 | X-H torsion
[ 8008 7997 7996 7995 ] final -138.54 input   59.86 | X-H torsion
[ 10167 10162 10161 10158 ] final  -10.21 input  -65.29 | X-H torsion
[ 10718 10713 10712 10709 ] final -114.07 input   66.30 | X-H torsion
[ 10763 10752 10751 10750 ] final -120.36 input  -60.55 | X-H torsion
[ 11005 11000 10999 10996 ] final -135.63 input  -57.11 | X-H torsion

> <Gold.Protein.ActiveResidues>
 VAL166  LYS551  ARG553  GLY616  TRP617  ASP618  TYR619  PRO620  LYS621  CYS622 
 ASP623  PHE694  ASN695  SER759  ASP760  ASP761  ALA762  ILE779  LEU786  VAL792 
 PHE793  MET794  SER795  GLU796  ALA797  LYS798  CYS799  TRP800  GLU811  SER814 

> <Gold.Protein.RotatedAtoms>
  152.3606  133.6291  159.6011 H   0  0  0  0  0  0  0  0  0  0  0  0  # atno 6907 bound_to 6896
  150.7598  133.9430  159.3471 H   0  0  0  0  0  0  0  0  0  0  0  0  # atno 6908 bound_to 6896
  151.7269  135.0884  160.0344 H   0  0  0  0  0  0  0  0  0  0  0  0  # atno 6909 bound_to 6896
  145.9581  140.7506  142.9471 H   0  0  0  0  0  0  0  0  0  0  0  0  # atno 7974 bound_to 7965
  155.4300  140.0524  157.3019 H   0  0  0  0  0  0  0  0  0  0  0  0  # atno 8008 bound_to 7997
  154.4864  140.2102  155.9603 H   0  0  0  0  0  0  0  0  0  0  0  0  # atno 8009 bound_to 7997
  156.1281  140.3176  155.8312 H   0  0  0  0  0  0  0  0  0  0  0  0  # atno 8010 bound_to 7997
  140.7108  143.5773  150.9029 H   0  0  0  0  0  0  0  0  0  0  0  0  # atno 10167 bound_to 10162
  156.0806  130.6007  150.8726 H   0  0  0  0  0  0  0  0  0  0  0  0  # atno 10718 bound_to 10713
  154.8642  135.4206  154.2447 H   0  0  0  0  0  0  0  0  0  0  0  0  # atno 10763 bound_to 10752
  153.3405  135.6993  153.6877 H   0  0  0  0  0  0  0  0  0  0  0  0  # atno 10764 bound_to 10752
  153.5857  135.3564  155.2865 H   0  0  0  0  0  0  0  0  0  0  0  0  # atno 10765 bound_to 10752
  140.8880  134.1848  157.4547 H   0  0  0  0  0  0  0  0  0  0  0  0  # atno 11005 bound_to 11000
  144.6809  140.2545  143.7327 LP  0  0  0  0  0  0  0  0  0  0  0  0  # atno 17320 bound_to 7965
  145.8078  139.1990  143.2010 LP  0  0  0  0  0  0  0  0  0  0  0  0  # atno 17321 bound_to 7965
  139.9499  143.6284  152.3032 LP  0  0  0  0  0  0  0  0  0  0  0  0  # atno 17342 bound_to 10162
  139.6799  144.7656  151.1627 LP  0  0  0  0  0  0  0  0  0  0  0  0  # atno 17343 bound_to 10162
  157.5921  131.0944  150.9101 LP  0  0  0  0  0  0  0  0  0  0  0  0  # atno 17370 bound_to 10713
  156.9275  130.5337  149.5279 LP  0  0  0  0  0  0  0  0  0  0  0  0  # atno 17371 bound_to 10713
  139.8726  134.9846  156.5247 LP  0  0  0  0  0  0  0  0  0  0  0  0  # atno 17394 bound_to 11000
  140.8381  133.8226  155.9049 LP  0  0  0  0  0  0  0  0  0  0  0  0  # atno 17395 bound_to 11000

$$$$
