AV-unprocessed.smi:992|AV-procd|sdf|4329|dock5
  -GOLD-   22720 2233D 1   1.00000     0.00000
 Structure written by MMmdl.
 32 33  0  0  0  0  0  0  0  0  1 V2000
  153.6249  141.7040  160.5961 C   0  0  0  0  0  0  0  0  0  0  0  0
  152.5352  142.4817  159.8510 C   0  0  2  0  0  0  0  0  0  0  0  0
  152.0195  141.7138  158.6207 C   0  0  0  0  0  0  0  0  0  0  0  0
  151.0632  142.5321  157.8882 N   0  0  0  0  0  0  0  0  0  0  0  0
  150.4242  141.8488  156.8440 C   0  0  0  0  0  0  0  0  0  0  0  0
  149.0166  141.7515  156.8521 C   0  0  0  0  0  0  0  0  0  0  0  0
  148.3792  141.0604  155.8036 C   0  0  0  0  0  0  0  0  0  0  0  0
  149.1706  140.4934  154.7854 C   0  0  0  0  0  0  0  0  0  0  0  0
  148.5848  139.7986  153.7282 N   0  0  0  0  0  0  0  0  0  0  0  0
  150.5701  140.6459  154.8628 C   0  0  0  0  0  0  0  0  0  0  0  0
  151.1883  141.3061  155.8654 N   0  0  0  0  0  0  0  0  0  0  0  0
  151.6287  143.8128  157.4829 C   0  0  0  0  0  0  0  0  0  0  0  0
  152.1926  144.5714  158.7015 C   0  0  1  0  0  0  0  0  0  0  0  0
  151.1052  145.1816  159.6035 C   0  0  0  0  0  0  0  0  0  0  0  0
  153.0886  143.7305  159.4337 O   0  0  0  0  0  0  0  0  0  0  0  0
  153.2512  140.7402  160.9428 H   0  0  0  0  0  0  0  0  0  0  0  0
  153.9727  142.2591  161.4676 H   0  0  0  0  0  0  0  0  0  0  0  0
  154.4862  141.5181  159.9540 H   0  0  0  0  0  0  0  0  0  0  0  0
  151.7123  142.6577  160.5442 H   0  0  0  0  0  0  0  0  0  0  0  0
  152.8536  141.4511  157.9680 H   0  0  0  0  0  0  0  0  0  0  0  0
  151.5455  140.7814  158.9304 H   0  0  0  0  0  0  0  0  0  0  0  0
  148.4352  142.1955  157.6469 H   0  0  0  0  0  0  0  0  0  0  0  0
  147.3029  140.9692  155.7854 H   0  0  0  0  0  0  0  0  0  0  0  0
  147.5833  139.6840  153.6647 H   0  0  0  0  0  0  0  0  0  0  0  0
  149.1338  139.4576  152.9521 H   0  0  0  0  0  0  0  0  0  0  0  0
  151.2129  140.2271  154.1022 H   0  0  0  0  0  0  0  0  0  0  0  0
  152.4300  143.6379  156.7635 H   0  0  0  0  0  0  0  0  0  0  0  0
  150.8727  144.4144  156.9764 H   0  0  0  0  0  0  0  0  0  0  0  0
  152.7922  145.4011  158.3264 H   0  0  0  0  0  0  0  0  0  0  0  0
  150.5118  145.9114  159.0523 H   0  0  0  0  0  0  0  0  0  0  0  0
  151.5512  145.6955  160.4551 H   0  0  0  0  0  0  0  0  0  0  0  0
  150.4161  144.4302  159.9883 H   0  0  0  0  0  0  0  0  0  0  0  0
  1  2  1  0  0  0  0
  1 16  1  0  0  0  0
  1 17  1  0  0  0  0
  1 18  1  0  0  0  0
  2 15  1  0  0  0  0
  2  3  1  0  0  0  0
  2 19  1  0  0  0  0
  3  4  1  0  0  0  0
  3 20  1  0  0  0  0
  3 21  1  0  0  0  0
  4  5  1  0  0  0  0
  4 12  1  0  0  0  0
  5 11  1  0  0  0  0
  5  6  2  0  0  0  0
  6  7  1  0  0  0  0
  6 22  1  0  0  0  0
  7  8  2  0  0  0  0
  7 23  1  0  0  0  0
  8  9  1  0  0  0  0
  8 10  1  0  0  0  0
  9 24  1  0  0  0  0
  9 25  1  0  0  0  0
 10 11  2  0  0  0  0
 10 26  1  0  0  0  0
 12 13  1  0  0  0  0
 12 27  1  0  0  0  0
 12 28  1  0  0  0  0
 13 14  1  0  0  0  0
 13 15  1  0  0  0  0
 13 29  1  0  0  0  0
 14 30  1  0  0  0  0
 14 31  1  0  0  0  0
 14 32  1  0  0  0  0
M  END
> <s_m_source_file>
AV-unprocessed.smi

> <i_m_source_file_index>
992

> <i_lp_mmshare_version>
43012

> <i_f3d_flags>
0

> <s_epik_input>
W0NIM11bQ0BASF0xW0NIMl1OKFtDSDJdW0NASF0oTzEpW0NIM10pYzJbY0hdW2NIXWMoW05IMl0pW2NIXW4y

> <s_epik_cmdline>
J2VwaWtfcHl0aG9uJywgJy1waCcsICc3LjAnLCAnLXRuJywgJzgnLCAnLW1hJywgJzIwMCcsICctbWV0YWxfYmluZGluZycsICctaW1hZScsICc8aW5maWxlLm1hZT4nLCAnLW9tYWUnLCAnPG91dGZpbGUubWFlPic=

> <r_lp_tautomer_probability>
1

> <r_epik_Ionization_Penalty>
0.0126232

> <r_epik_Ionization_Penalty_Charging>
0

> <r_epik_Ionization_Penalty_Neutral>
0.0126232

> <r_epik_State_Penalty>
0.00976577

> <r_epik_Charging_Adjusted_Penalty>
0.00976577

> <i_epik_Tot_Q>
0

> <i_epik_Tot_abs_Q>
0

> <r_epik_Metal_State_Penalty>
9.84661e-06

> <b_epik_Metal_Only>
0

> <s_lp_Force_Field>
OPLS_2005

> <r_lp_Energy>
23.4385

> <b_lp_Chiralities_Consistent>
1

> <s_lp_Variant>
AV-unprocessed.smi:992-1

> <Gold.Version>
5.8.1

> <Gold.Id.Protein>
6NUR|6NUR_protein|mol2

> <Gold.PLP.Fitness>
34.1755

> <Gold.PLP.PLP>
-32.1116

> <Gold.PLP.part.hbond>
-1.5657

> <Gold.PLP.part.metal>
0.0000

> <Gold.PLP.part.buried>
-1.3564

> <Gold.PLP.part.nonpolar>
-28.6247

> <Gold.PLP.part.repulsive>
0.2047

> <Gold.PLP.ligand.clash>
0.0000

> <Gold.PLP.ligand.torsion>
0.1202

> <Gold.PLP.Chemscore.Hbond>
0.7360

> <Gold.PLP.Chemscore.CHOScore>
0.0000

> <Gold.PLP.Chemscore.Metal>
0.0000

> <Gold.Chemscore.Hbonds>
donor molecule, donor type, donor heavy atom, donor atom, acceptor molecule, acceptor atom, score
      L1  H     9    25       P1  7957  0.77

> <Gold.PLP.Chemscore.Internal.Correction>
0.0964

> <Gold.Rescore>
     Score         DG    S(hbond)    S(metal)    S(lipo)     H(rot)  DE(clash)    DE(int)     intcor
     14.71     -16.04       0.87        0.00      87.21       1.00       1.06       0.27       ----

> <Gold.Chemscore.Fitness>
14.7071

> <Gold.Chemscore.DG>
-16.0378

> <Gold.Chemscore.ZeroCoef>
-5.4800

> <Gold.Chemscore.Hbond>
0.8725

> <Gold.Chemscore.Metal>
0.0000

> <Gold.Chemscore.Lipo>
87.2111

> <Gold.Chemscore.Internal_Hbond>
0.0000

> <Gold.Chemscore.DEClash>
1.0644

> <Gold.Chemscore.DEInternal>
0.2663

> <Gold.Chemscore.Rot>
1.0000

> <Gold.Chemscore.Internal.Correction>
   9.000000E+99

> <Gold.Chemscore.Hbonds>
donor molecule, donor type, donor heavy atom, donor atom, acceptor molecule, acceptor atom, score
      L1  H     9    25       P1  7957  0.75

> <Gold.Chemscore.Hbond.Weighted>
-2.9141

> <Gold.Chemscore.Metal.Weighted>
-0.0000

> <Gold.Chemscore.Lipo.Weighted>
-10.2037

> <Gold.Chemscore.Internal_Hbond.Weighted>
0.0000

> <Gold.Chemscore.DEClash.Weighted>
1.0644

> <Gold.Chemscore.DEInternal.Weighted>
0.2663

> <Gold.Chemscore.Rot.Weighted>
2.5600

> <Gold.Chemscore.Internal.Correction.Weighted>
   9.000000E+99

> <Gold.Protein.RotatedTorsions>
[ 6907 6896 6895 6894 ] final   -1.25 input  -60.11 | X-H torsion
[ 7974 7965 7964 7962 ] final    5.11 input  175.53 | X-H torsion
[ 8008 7997 7996 7995 ] final   73.45 input   59.86 | X-H torsion
[ 10167 10162 10161 10158 ] final -169.04 input  -65.29 | X-H torsion
[ 10718 10713 10712 10709 ] final  179.60 input   66.30 | X-H torsion
[ 10763 10752 10751 10750 ] final  130.71 input  -60.55 | X-H torsion
[ 11005 11000 10999 10996 ] final  134.83 input  -57.11 | X-H torsion

> <Gold.Protein.ActiveResidues>
 VAL166  LYS551  ARG553  GLY616  TRP617  ASP618  TYR619  PRO620  LYS621  CYS622 
 ASP623  PHE694  ASN695  SER759  ASP760  ASP761  ALA762  ILE779  LEU786  VAL792 
 PHE793  MET794  SER795  GLU796  ALA797  LYS798  CYS799  TRP800  GLU811  SER814 

> <Gold.Protein.RotatedAtoms>
  151.5491  135.1067  159.9944 H   0  0  0  0  0  0  0  0  0  0  0  0  # atno 6907 bound_to 6896
  152.4500  133.7606  159.6755 H   0  0  0  0  0  0  0  0  0  0  0  0  # atno 6908 bound_to 6896
  150.8426  133.7845  159.3079 H   0  0  0  0  0  0  0  0  0  0  0  0  # atno 6909 bound_to 6896
  146.2442  140.0433  142.8380 H   0  0  0  0  0  0  0  0  0  0  0  0  # atno 7974 bound_to 7965
  155.7838  140.3481  155.5312 H   0  0  0  0  0  0  0  0  0  0  0  0  # atno 8008 bound_to 7997
  155.8702  140.0985  157.1576 H   0  0  0  0  0  0  0  0  0  0  0  0  # atno 8009 bound_to 7997
  154.4017  140.1342  156.4056 H   0  0  0  0  0  0  0  0  0  0  0  0  # atno 8010 bound_to 7997
  139.5947  144.1138  152.1675 H   0  0  0  0  0  0  0  0  0  0  0  0  # atno 10167 bound_to 10162
  156.8733  130.9791  151.3071 H   0  0  0  0  0  0  0  0  0  0  0  0  # atno 10718 bound_to 10713
  153.7625  135.3194  155.3339 H   0  0  0  0  0  0  0  0  0  0  0  0  # atno 10763 bound_to 10752
  154.8225  135.4593  154.0823 H   0  0  0  0  0  0  0  0  0  0  0  0  # atno 10764 bound_to 10752
  153.2059  135.6929  153.8257 H   0  0  0  0  0  0  0  0  0  0  0  0  # atno 10765 bound_to 10752
  139.9940  134.9504  156.9922 H   0  0  0  0  0  0  0  0  0  0  0  0  # atno 11005 bound_to 11000
  145.1049  140.9369  143.4690 LP  0  0  0  0  0  0  0  0  0  0  0  0  # atno 17320 bound_to 7965
  145.0634  139.3087  143.5868 LP  0  0  0  0  0  0  0  0  0  0  0  0  # atno 17321 bound_to 7965
  140.0720  144.5771  150.7185 LP  0  0  0  0  0  0  0  0  0  0  0  0  # atno 17342 bound_to 10162
  140.7202  143.2582  151.4303 LP  0  0  0  0  0  0  0  0  0  0  0  0  # atno 17343 bound_to 10162
  157.6183  130.8635  149.9065 LP  0  0  0  0  0  0  0  0  0  0  0  0  # atno 17370 bound_to 10713
  156.0715  130.3684  150.0766 LP  0  0  0  0  0  0  0  0  0  0  0  0  # atno 17371 bound_to 10713
  140.4854  134.1247  155.7223 LP  0  0  0  0  0  0  0  0  0  0  0  0  # atno 17394 bound_to 11000
  141.1589  133.8830  157.1902 LP  0  0  0  0  0  0  0  0  0  0  0  0  # atno 17395 bound_to 11000

$$$$
