AV-unprocessed.smi:598|AV-procd|sdf|3023|dock4
  -GOLD-   2262023533D 1   1.00000     0.00000
 Structure written by MMmdl.
 43 44  0  0  0  0  0  0  0  0  3 V2000
  152.5594  143.2202  162.6992 C   0  0  0  0  0  0  0  0  0  0  0  0
  152.6710  143.6121  161.2141 C   0  0  2  0  0  0  0  0  0  0  0  0
  151.8763  144.9091  160.9628 C   0  0  0  0  0  0  0  0  0  0  0  0
  151.9812  145.3675  159.5047 C   0  0  0  0  0  0  0  0  0  0  0  0
  151.4926  144.2673  158.5585 C   0  0  0  0  0  0  0  0  0  0  0  0
  152.2739  142.9557  158.7695 C   0  0  2  0  0  0  0  0  0  0  0  0
  151.7379  141.9281  157.8778 N   0  0  0  0  0  0  0  0  0  0  0  0
  150.4496  141.5624  157.7964 C   0  0  0  0  0  0  0  0  0  0  0  0
  149.5575  142.0747  158.4738 O   0  0  0  0  0  0  0  0  0  0  0  0
  150.1280  140.4586  156.7788 C   0  0  0  0  0  0  0  0  0  0  0  0
  149.2247  140.9057  155.7052 N   0  0  0  0  0  0  0  0  0  0  0  0
  148.1084  141.6766  156.0860 C   0  0  0  0  0  0  0  0  0  0  0  0
  147.2132  142.1325  155.1880 C   0  0  0  0  0  0  0  0  0  0  0  0
  146.0694  142.9175  155.5974 N   0  3  0  0  0  0  0  0  0  0  0  0
  145.2965  143.3247  154.7360 O   0  0  0  0  0  0  0  0  0  0  0  0
  145.9059  143.1542  156.7907 O   0  5  0  0  0  0  0  0  0  0  0  0
  147.4321  141.8056  153.7923 C   0  0  0  0  0  0  0  0  0  0  0  0
  148.4956  141.0652  153.4221 C   0  0  0  0  0  0  0  0  0  0  0  0
  149.4659  140.5661  154.4017 C   0  0  0  0  0  0  0  0  0  0  0  0
  150.4363  139.8845  154.0707 O   0  0  0  0  0  0  0  0  0  0  0  0
  152.2191  142.4804  160.2471 C   0  0  1  0  0  0  0  0  0  0  0  0
  153.0438  141.1893  160.4449 C   0  0  0  0  0  0  0  0  0  0  0  0
  151.5479  142.8990  162.9507 H   0  0  0  0  0  0  0  0  0  0  0  0
  152.8088  144.0622  163.3455 H   0  0  0  0  0  0  0  0  0  0  0  0
  153.2442  142.4140  162.9597 H   0  0  0  0  0  0  0  0  0  0  0  0
  153.7216  143.8281  161.0123 H   0  0  0  0  0  0  0  0  0  0  0  0
  150.8276  144.7556  161.2215 H   0  0  0  0  0  0  0  0  0  0  0  0
  152.2408  145.7034  161.6154 H   0  0  0  0  0  0  0  0  0  0  0  0
  151.3937  146.2737  159.3562 H   0  0  0  0  0  0  0  0  0  0  0  0
  153.0146  145.6251  159.2707 H   0  0  0  0  0  0  0  0  0  0  0  0
  150.4278  144.0951  158.7223 H   0  0  0  0  0  0  0  0  0  0  0  0
  151.5946  144.6063  157.5267 H   0  0  0  0  0  0  0  0  0  0  0  0
  153.3209  143.1336  158.5152 H   0  0  0  0  0  0  0  0  0  0  0  0
  152.4014  141.4573  157.2797 H   0  0  0  0  0  0  0  0  0  0  0  0
  151.0694  140.0968  156.3630 H   0  0  0  0  0  0  0  0  0  0  0  0
  149.6982  139.5995  157.2976 H   0  0  0  0  0  0  0  0  0  0  0  0
  148.0309  141.8587  157.1482 H   0  0  0  0  0  0  0  0  0  0  0  0
  146.7449  142.1508  153.0340 H   0  0  0  0  0  0  0  0  0  0  0  0
  148.6384  140.8327  152.3769 H   0  0  0  0  0  0  0  0  0  0  0  0
  151.1795  142.2429  160.4795 H   0  0  0  0  0  0  0  0  0  0  0  0
  154.1063  141.3717  160.2819 H   0  0  0  0  0  0  0  0  0  0  0  0
  152.7370  140.4001  159.7588 H   0  0  0  0  0  0  0  0  0  0  0  0
  152.9239  140.7814  161.4475 H   0  0  0  0  0  0  0  0  0  0  0  0
  1  2  1  0  0  0  0
  1 23  1  0  0  0  0
  1 24  1  0  0  0  0
  1 25  1  0  0  0  0
  2 21  1  0  0  0  0
  2  3  1  0  0  0  0
  2 26  1  0  0  0  0
  3  4  1  0  0  0  0
  3 27  1  0  0  0  0
  3 28  1  0  0  0  0
  4  5  1  0  0  0  0
  4 29  1  0  0  0  0
  4 30  1  0  0  0  0
  5  6  1  0  0  0  0
  5 31  1  0  0  0  0
  5 32  1  0  0  0  0
  6  7  1  0  0  0  0
  6 21  1  0  0  0  0
  6 33  1  0  0  0  0
  7  8  1  0  0  0  0
  7 34  1  0  0  0  0
  8  9  2  0  0  0  0
  8 10  1  0  0  0  0
 10 11  1  0  0  0  0
 10 35  1  0  0  0  0
 10 36  1  0  0  0  0
 11 19  1  0  0  0  0
 11 12  1  0  0  0  0
 12 13  2  0  0  0  0
 12 37  1  0  0  0  0
 13 14  1  0  0  0  0
 13 17  1  0  0  0  0
 14 15  2  0  0  0  0
 14 16  1  0  0  0  0
 17 18  2  0  0  0  0
 17 38  1  0  0  0  0
 18 19  1  0  0  0  0
 18 39  1  0  0  0  0
 19 20  2  0  0  0  0
 21 22  1  0  0  0  0
 21 40  1  0  0  0  0
 22 41  1  0  0  0  0
 22 42  1  0  0  0  0
 22 43  1  0  0  0  0
M  CHG  1  14   1
M  CHG  1  16  -1
M  END
> <s_m_source_file>
AV-unprocessed.smi

> <i_m_source_file_index>
598

> <i_lp_mmshare_version>
43012

> <i_f3d_flags>
0

> <s_epik_input>
W0NIM11bQ0BASF0xW0NIMl1bQ0gyXVtDSDJdW0NASF0oW0NASF0xW0NIM10pW05IXUMoPU8pW0NIMl1uMltjSF1jKFtOK10oPU8pW08tXSlbY0hdW2NIXWMyPU8=

> <s_epik_cmdline>
J2VwaWtfcHl0aG9uJywgJy1waCcsICc3LjAnLCAnLXRuJywgJzgnLCAnLW1hJywgJzIwMCcsICctbWV0YWxfYmluZGluZycsICctaW1hZScsICc8aW5maWxlLm1hZT4nLCAnLW9tYWUnLCAnPG91dGZpbGUubWFlPic=

> <r_lp_tautomer_probability>
1

> <r_epik_Ionization_Penalty>
1.91291e-08

> <r_epik_Ionization_Penalty_Charging>
8.21931e-11

> <r_epik_Ionization_Penalty_Neutral>
1.90469e-08

> <r_epik_State_Penalty>
-0

> <r_epik_Charging_Adjusted_Penalty>
8.21931e-11

> <i_epik_Tot_Q>
0

> <i_epik_Tot_abs_Q>
2

> <r_epik_Metal_State_Penalty>
-0

> <b_epik_Metal_Only>
0

> <s_lp_Force_Field>
OPLS_2005

> <r_lp_Energy>
24.1223

> <b_lp_Chiralities_Consistent>
1

> <s_lp_Variant>
AV-unprocessed.smi:598-3

> <Gold.Version>
5.8.1

> <Gold.Id.Protein>
6NUR|6NUR_protein|mol2

> <Gold.PLP.Fitness>
48.3219

> <Gold.PLP.PLP>
-45.8641

> <Gold.PLP.part.hbond>
-1.4824

> <Gold.PLP.part.metal>
0.0000

> <Gold.PLP.part.buried>
-2.5608

> <Gold.PLP.part.nonpolar>
-42.5768

> <Gold.PLP.part.repulsive>
1.5575

> <Gold.PLP.ligand.clash>
0.0000

> <Gold.PLP.ligand.torsion>
0.2762

> <Gold.PLP.Chemscore.Hbond>
1.0000

> <Gold.PLP.Chemscore.CHOScore>
0.0000

> <Gold.PLP.Chemscore.Metal>
0.0000

> <Gold.Chemscore.Hbonds>
donor molecule, donor type, donor heavy atom, donor atom, acceptor molecule, acceptor atom, score
      P1  H  7989  7998       L1    20  1.00

> <Gold.PLP.Chemscore.Internal.Correction>
0.0101

> <Gold.Rescore>
     Score         DG    S(hbond)    S(metal)    S(lipo)     H(rot)  DE(clash)    DE(int)     intcor
     15.43     -18.54       0.87        0.00     120.49       1.54       0.52       2.59       ----

> <Gold.Chemscore.Fitness>
15.4330

> <Gold.Chemscore.DG>
-18.5445

> <Gold.Chemscore.ZeroCoef>
-5.4800

> <Gold.Chemscore.Hbond>
0.8708

> <Gold.Chemscore.Metal>
0.0000

> <Gold.Chemscore.Lipo>
120.4853

> <Gold.Chemscore.Internal_Hbond>
0.0000

> <Gold.Chemscore.DEClash>
0.5173

> <Gold.Chemscore.DEInternal>
2.5942

> <Gold.Chemscore.Rot>
1.5393

> <Gold.Chemscore.Internal.Correction>
   9.000000E+99

> <Gold.Chemscore.Hbonds>
donor molecule, donor type, donor heavy atom, donor atom, acceptor molecule, acceptor atom, score
      P1  H  7989  7998       L1    20  0.69

> <Gold.Chemscore.Hbond.Weighted>
-2.9085

> <Gold.Chemscore.Metal.Weighted>
-0.0000

> <Gold.Chemscore.Lipo.Weighted>
-14.0968

> <Gold.Chemscore.Internal_Hbond.Weighted>
0.0000

> <Gold.Chemscore.DEClash.Weighted>
0.5173

> <Gold.Chemscore.DEInternal.Weighted>
2.5942

> <Gold.Chemscore.Rot.Weighted>
3.9407

> <Gold.Chemscore.Internal.Correction.Weighted>
   9.000000E+99

> <Gold.Protein.RotatedTorsions>
[ 6907 6896 6895 6894 ] final   43.45 input  -60.11 | X-H torsion
[ 7974 7965 7964 7962 ] final -110.71 input  175.53 | X-H torsion
[ 8008 7997 7996 7995 ] final  126.54 input   59.86 | X-H torsion
[ 10167 10162 10161 10158 ] final  -57.96 input  -65.29 | X-H torsion
[ 10718 10713 10712 10709 ] final  145.72 input   66.30 | X-H torsion
[ 10763 10752 10751 10750 ] final -128.43 input  -60.55 | X-H torsion
[ 11005 11000 10999 10996 ] final  -94.40 input  -57.11 | X-H torsion

> <Gold.Protein.ActiveResidues>
 VAL166  LYS551  ARG553  GLY616  TRP617  ASP618  TYR619  PRO620  LYS621  CYS622 
 ASP623  PHE694  ASN695  SER759  ASP760  ASP761  ALA762  ILE779  LEU786  VAL792 
 PHE793  MET794  SER795  GLU796  ALA797  LYS798  CYS799  TRP800  GLU811  SER814 

> <Gold.Protein.RotatedAtoms>
  152.2204  134.8418  160.0486 H   0  0  0  0  0  0  0  0  0  0  0  0  # atno 6907 bound_to 6896
  151.9203  133.3579  159.3903 H   0  0  0  0  0  0  0  0  0  0  0  0  # atno 6908 bound_to 6896
  150.6998  134.4566  159.5405 H   0  0  0  0  0  0  0  0  0  0  0  0  # atno 6909 bound_to 6896
  145.1649  140.8897  143.3569 H   0  0  0  0  0  0  0  0  0  0  0  0  # atno 7974 bound_to 7965
  156.2867  140.2690  156.2128 H   0  0  0  0  0  0  0  0  0  0  0  0  # atno 8008 bound_to 7997
  155.0247  140.0386  157.2469 H   0  0  0  0  0  0  0  0  0  0  0  0  # atno 8009 bound_to 7997
  154.7405  140.2724  155.6382 H   0  0  0  0  0  0  0  0  0  0  0  0  # atno 8010 bound_to 7997
  140.6226  143.2425  151.5442 H   0  0  0  0  0  0  0  0  0  0  0  0  # atno 10167 bound_to 10162
  157.3419  131.0937  151.1075 H   0  0  0  0  0  0  0  0  0  0  0  0  # atno 10718 bound_to 10713
  154.8756  135.3929  154.3755 H   0  0  0  0  0  0  0  0  0  0  0  0  # atno 10763 bound_to 10752
  153.4509  135.7028  153.6114 H   0  0  0  0  0  0  0  0  0  0  0  0  # atno 10764 bound_to 10752
  153.4655  135.3802  155.2331 H   0  0  0  0  0  0  0  0  0  0  0  0  # atno 10765 bound_to 10752
  141.1471  133.7954  157.0293 H   0  0  0  0  0  0  0  0  0  0  0  0  # atno 11005 bound_to 11000
  145.0292  139.3356  143.6033 LP  0  0  0  0  0  0  0  0  0  0  0  0  # atno 17320 bound_to 7965
  146.3477  139.9623  142.8716 LP  0  0  0  0  0  0  0  0  0  0  0  0  # atno 17321 bound_to 7965
  139.5452  144.2540  152.1428 LP  0  0  0  0  0  0  0  0  0  0  0  0  # atno 17342 bound_to 10162
  140.1764  144.4886  150.6551 LP  0  0  0  0  0  0  0  0  0  0  0  0  # atno 17343 bound_to 10162
  157.2284  130.6513  149.5839 LP  0  0  0  0  0  0  0  0  0  0  0  0  # atno 17370 bound_to 10713
  155.9709  130.4606  150.6081 LP  0  0  0  0  0  0  0  0  0  0  0  0  # atno 17371 bound_to 10713
  140.0764  134.9673  157.1553 LP  0  0  0  0  0  0  0  0  0  0  0  0  # atno 17394 bound_to 11000
  140.3638  134.2465  155.7184 LP  0  0  0  0  0  0  0  0  0  0  0  0  # atno 17395 bound_to 11000

$$$$
