AV-unprocessed.smi:1849|AV-procd|sdf|7521|dock8
  -GOLD-   22720 9233D 1   1.00000     0.00000
 Structure written by MMmdl.
 40 41  0  0  0  0  0  0  0  0  1 V2000
  147.0712  142.2487  154.3756 C   0  0  0  0  0  0  0  0  0  0  0  0
  148.1301  141.2717  154.5433 N   0  0  0  0  0  0  0  0  0  0  0  0
  149.3067  141.4570  155.2571 C   0  0  0  0  0  0  0  0  0  0  0  0
  150.0220  140.2891  155.1474 C   0  0  0  0  0  0  0  0  0  0  0  0
  149.3063  139.3801  154.3756 N   0  0  0  0  0  0  0  0  0  0  0  0
  148.1856  140.0185  154.0523 C   0  0  0  0  0  0  0  0  0  0  0  0
  147.1085  139.4270  153.1981 C   0  0  0  0  0  0  0  0  0  0  0  0
  146.4454  138.2055  153.8551 C   0  0  0  0  0  0  0  0  0  0  0  0
  146.7548  136.9756  153.1360 N   0  0  0  0  0  0  0  0  0  0  0  0
  145.8861  135.9783  152.9185 C   0  0  0  0  0  0  0  0  0  0  0  0
  144.7165  135.9867  153.3037 O   0  0  0  0  0  0  0  0  0  0  0  0
  146.4469  134.9705  152.2357 N   0  0  0  0  0  0  0  0  0  0  0  0
  145.7690  133.7386  151.8432 C   0  0  0  0  0  0  0  0  0  0  0  0
  146.5585  133.0112  150.7345 C   0  0  0  0  0  0  0  0  0  0  0  0
  145.8189  131.7542  150.2487 C   0  0  0  0  0  0  0  0  0  0  0  0
  144.3939  132.0898  149.7815 C   0  0  0  0  0  0  0  0  0  0  0  0
  143.6032  132.8054  150.8880 C   0  0  0  0  0  0  0  0  0  0  0  0
  144.3391  134.0653  151.3715 C   0  0  0  0  0  0  0  0  0  0  0  0
  147.3807  143.2124  154.7811 H   0  0  0  0  0  0  0  0  0  0  0  0
  146.1760  141.9152  154.9008 H   0  0  0  0  0  0  0  0  0  0  0  0
  146.8416  142.3708  153.3168 H   0  0  0  0  0  0  0  0  0  0  0  0
  149.5332  142.3812  155.7677 H   0  0  0  0  0  0  0  0  0  0  0  0
  150.9878  140.0354  155.5589 H   0  0  0  0  0  0  0  0  0  0  0  0
  146.3583  140.1958  153.0084 H   0  0  0  0  0  0  0  0  0  0  0  0
  147.5236  139.1636  152.2250 H   0  0  0  0  0  0  0  0  0  0  0  0
  146.7565  138.1141  154.8970 H   0  0  0  0  0  0  0  0  0  0  0  0
  145.3625  138.3316  153.8653 H   0  0  0  0  0  0  0  0  0  0  0  0
  147.6952  136.8775  152.7824 H   0  0  0  0  0  0  0  0  0  0  0  0
  147.4155  135.0606  151.9664 H   0  0  0  0  0  0  0  0  0  0  0  0
  145.6963  133.0818  152.7124 H   0  0  0  0  0  0  0  0  0  0  0  0
  146.7178  133.6850  149.8915 H   0  0  0  0  0  0  0  0  0  0  0  0
  147.5485  132.7322  151.0968 H   0  0  0  0  0  0  0  0  0  0  0  0
  146.3758  131.2856  149.4367 H   0  0  0  0  0  0  0  0  0  0  0  0
  145.7751  131.0223  151.0561 H   0  0  0  0  0  0  0  0  0  0  0  0
  144.4392  132.7242  148.8953 H   0  0  0  0  0  0  0  0  0  0  0  0
  143.8761  131.1777  149.4833 H   0  0  0  0  0  0  0  0  0  0  0  0
  142.6107  133.0719  150.5232 H   0  0  0  0  0  0  0  0  0  0  0  0
  143.4518  132.1255  151.7274 H   0  0  0  0  0  0  0  0  0  0  0  0
  143.7752  134.5310  152.1807 H   0  0  0  0  0  0  0  0  0  0  0  0
  144.3744  134.7941  150.5602 H   0  0  0  0  0  0  0  0  0  0  0  0
  1  2  1  0  0  0  0
  1 19  1  0  0  0  0
  1 20  1  0  0  0  0
  1 21  1  0  0  0  0
  2  6  1  0  0  0  0
  2  3  1  0  0  0  0
  3  4  2  0  0  0  0
  3 22  1  0  0  0  0
  4  5  1  0  0  0  0
  4 23  1  0  0  0  0
  5  6  2  0  0  0  0
  6  7  1  0  0  0  0
  7  8  1  0  0  0  0
  7 24  1  0  0  0  0
  7 25  1  0  0  0  0
  8  9  1  0  0  0  0
  8 26  1  0  0  0  0
  8 27  1  0  0  0  0
  9 10  1  0  0  0  0
  9 28  1  0  0  0  0
 10 11  2  0  0  0  0
 10 12  1  0  0  0  0
 12 13  1  0  0  0  0
 12 29  1  0  0  0  0
 13 18  1  0  0  0  0
 13 14  1  0  0  0  0
 13 30  1  0  0  0  0
 14 15  1  0  0  0  0
 14 31  1  0  0  0  0
 14 32  1  0  0  0  0
 15 16  1  0  0  0  0
 15 33  1  0  0  0  0
 15 34  1  0  0  0  0
 16 17  1  0  0  0  0
 16 35  1  0  0  0  0
 16 36  1  0  0  0  0
 17 18  1  0  0  0  0
 17 37  1  0  0  0  0
 17 38  1  0  0  0  0
 18 39  1  0  0  0  0
 18 40  1  0  0  0  0
M  END
> <s_m_source_file>
AV-unprocessed.smi

> <i_m_source_file_index>
1849

> <i_lp_mmshare_version>
43012

> <i_f3d_flags>
0

> <s_epik_input>
W0NIM11uMVtjSF1bY0hdbmMxW0NIMl1bQ0gyXVtOSF1DKD1PKVtOSF1bQ0hdMltDSDJdW0NIMl1bQ0gyXVtDSDJdW0NIMl0y

> <s_epik_cmdline>
J2VwaWtfcHl0aG9uJywgJy1waCcsICc3LjAnLCAnLXRuJywgJzgnLCAnLW1hJywgJzIwMCcsICctbWV0YWxfYmluZGluZycsICctaW1hZScsICc8aW5maWxlLm1hZT4nLCAnLW9tYWUnLCAnPG91dGZpbGUubWFlPic=

> <r_lp_tautomer_probability>
1

> <r_epik_Ionization_Penalty>
1.48237

> <r_epik_Ionization_Penalty_Charging>
1.48231

> <r_epik_Ionization_Penalty_Neutral>
5.84917e-05

> <r_epik_State_Penalty>
1.57104

> <r_epik_Charging_Adjusted_Penalty>
3.05335

> <i_epik_Tot_Q>
0

> <i_epik_Tot_abs_Q>
0

> <r_epik_Metal_State_Penalty>
0.437242

> <b_epik_Metal_Only>
0

> <s_lp_Force_Field>
OPLS_2005

> <r_lp_Energy>
3.77176

> <b_lp_Chiralities_Consistent>
1

> <s_lp_Variant>
AV-unprocessed.smi:1849-2

> <Gold.Version>
5.8.1

> <Gold.Id.Protein>
6NUR|6NUR_protein|mol2

> <Gold.PLP.Fitness>
43.1811

> <Gold.PLP.PLP>
-35.8252

> <Gold.PLP.part.hbond>
-2.0000

> <Gold.PLP.part.metal>
0.0000

> <Gold.PLP.part.buried>
-1.6681

> <Gold.PLP.part.nonpolar>
-32.7618

> <Gold.PLP.part.repulsive>
0.2797

> <Gold.PLP.ligand.clash>
0.0000

> <Gold.PLP.ligand.torsion>
0.7671

> <Gold.PLP.Chemscore.Hbond>
1.9600

> <Gold.PLP.Chemscore.CHOScore>
1.0000

> <Gold.PLP.Chemscore.Metal>
0.0000

> <Gold.Chemscore.Hbonds>
donor molecule, donor type, donor heavy atom, donor atom, acceptor molecule, acceptor atom, score
      L1  H     9    28       P1  7948  1.00
      L1  H    12    29       P1  7948  0.96
      L1  C     3    22       P1  8028  1.00

> <Gold.PLP.Chemscore.Internal.Correction>
0.0101

> <Gold.Rescore>
     Score         DG    S(hbond)    S(metal)    S(lipo)     H(rot)  DE(clash)    DE(int)     intcor
     14.72     -16.62       1.90        0.00      77.27       1.66       0.34       1.56       ----

> <Gold.Chemscore.Fitness>
14.7151

> <Gold.Chemscore.DG>
-16.6178

> <Gold.Chemscore.ZeroCoef>
-5.4800

> <Gold.Chemscore.Hbond>
1.8984

> <Gold.Chemscore.Metal>
0.0000

> <Gold.Chemscore.Lipo>
77.2675

> <Gold.Chemscore.Internal_Hbond>
0.0000

> <Gold.Chemscore.DEClash>
0.3393

> <Gold.Chemscore.DEInternal>
1.5635

> <Gold.Chemscore.Rot>
1.6575

> <Gold.Chemscore.Internal.Correction>
   9.000000E+99

> <Gold.Chemscore.Hbonds>
donor molecule, donor type, donor heavy atom, donor atom, acceptor molecule, acceptor atom, score
      L1  H     9    28       P1  7948  0.99
      L1  H    12    29       P1  7948  0.87

> <Gold.Chemscore.Hbond.Weighted>
-6.3407

> <Gold.Chemscore.Metal.Weighted>
-0.0000

> <Gold.Chemscore.Lipo.Weighted>
-9.0403

> <Gold.Chemscore.Internal_Hbond.Weighted>
0.0000

> <Gold.Chemscore.DEClash.Weighted>
0.3393

> <Gold.Chemscore.DEInternal.Weighted>
1.5635

> <Gold.Chemscore.Rot.Weighted>
4.2432

> <Gold.Chemscore.Internal.Correction.Weighted>
   9.000000E+99

> <Gold.Protein.RotatedTorsions>
[ 6907 6896 6895 6894 ] final  -50.83 input  -60.11 | X-H torsion
[ 7974 7965 7964 7962 ] final -116.74 input  175.53 | X-H torsion
[ 8008 7997 7996 7995 ] final  175.16 input   59.86 | X-H torsion
[ 10167 10162 10161 10158 ] final   71.60 input  -65.29 | X-H torsion
[ 10718 10713 10712 10709 ] final  140.86 input   66.30 | X-H torsion
[ 10763 10752 10751 10750 ] final  142.93 input  -60.55 | X-H torsion
[ 11005 11000 10999 10996 ] final  110.97 input  -57.11 | X-H torsion

> <Gold.Protein.ActiveResidues>
 VAL166  LYS551  ARG553  GLY616  TRP617  ASP618  TYR619  PRO620  LYS621  CYS622 
 ASP623  PHE694  ASN695  SER759  ASP760  ASP761  ALA762  ILE779  LEU786  VAL792 
 PHE793  MET794  SER795  GLU796  ALA797  LYS798  CYS799  TRP800  GLU811  SER814 

> <Gold.Protein.RotatedAtoms>
  150.8669  134.8034  159.7125 H   0  0  0  0  0  0  0  0  0  0  0  0  # atno 6907 bound_to 6896
  152.4687  134.5009  159.9734 H   0  0  0  0  0  0  0  0  0  0  0  0  # atno 6908 bound_to 6896
  151.5104  133.3448  159.2919 H   0  0  0  0  0  0  0  0  0  0  0  0  # atno 6909 bound_to 6896
  145.0933  140.8504  143.3970 H   0  0  0  0  0  0  0  0  0  0  0  0  # atno 7974 bound_to 7965
  156.0899  140.1416  156.9605 H   0  0  0  0  0  0  0  0  0  0  0  0  # atno 8008 bound_to 7997
  154.4635  140.0934  156.7006 H   0  0  0  0  0  0  0  0  0  0  0  0  # atno 8009 bound_to 7997
  155.4937  140.3449  155.4361 H   0  0  0  0  0  0  0  0  0  0  0  0  # atno 8010 bound_to 7997
  140.0443  144.5364  150.7410 H   0  0  0  0  0  0  0  0  0  0  0  0  # atno 10167 bound_to 10162
  157.3985  131.1013  151.0576 H   0  0  0  0  0  0  0  0  0  0  0  0  # atno 10718 bound_to 10713
  153.9639  135.2957  155.3432 H   0  0  0  0  0  0  0  0  0  0  0  0  # atno 10763 bound_to 10752
  154.7359  135.5046  153.9044 H   0  0  0  0  0  0  0  0  0  0  0  0  # atno 10764 bound_to 10752
  153.0933  135.6714  153.9923 H   0  0  0  0  0  0  0  0  0  0  0  0  # atno 10765 bound_to 10752
  139.8893  134.9497  156.6361 H   0  0  0  0  0  0  0  0  0  0  0  0  # atno 11005 bound_to 11000
  145.1041  139.2802  143.5671 LP  0  0  0  0  0  0  0  0  0  0  0  0  # atno 17320 bound_to 7965
  146.3531  140.0617  142.8629 LP  0  0  0  0  0  0  0  0  0  0  0  0  # atno 17321 bound_to 7965
  140.7246  143.2623  151.4164 LP  0  0  0  0  0  0  0  0  0  0  0  0  # atno 17342 bound_to 10162
  139.5993  144.1329  152.2180 LP  0  0  0  0  0  0  0  0  0  0  0  0  # atno 17343 bound_to 10162
  157.1583  130.6214  149.5603 LP  0  0  0  0  0  0  0  0  0  0  0  0  # atno 17370 bound_to 10713
  155.9817  130.4825  150.6840 LP  0  0  0  0  0  0  0  0  0  0  0  0  # atno 17371 bound_to 10713
  140.7630  133.8802  155.8432 LP  0  0  0  0  0  0  0  0  0  0  0  0  # atno 17394 bound_to 11000
  140.9906  134.1283  157.4411 LP  0  0  0  0  0  0  0  0  0  0  0  0  # atno 17395 bound_to 11000

$$$$
