AV-unprocessed.smi:1294|AV-procd|sdf|5400|dock7
  -GOLD-   22720 4563D 1   1.00000     0.00000
 Structure written by MMmdl.
 45 46  0  0  0  0  0  0  0  0  1 V2000
  152.8557  138.3683  155.3793 C   0  0  0  0  0  0  0  0  0  0  0  0
  151.4158  138.6842  155.0919 C   0  0  0  0  0  0  0  0  0  0  0  0
  151.0526  139.9412  154.8967 N   0  0  0  0  0  0  0  0  0  0  0  0
  149.7261  139.8836  154.6629 N   0  0  0  0  0  0  0  0  0  0  0  0
  148.9966  141.1085  154.3989 C   0  0  0  0  0  0  0  0  0  0  0  0
  149.2503  138.5877  154.7118 C   0  0  0  0  0  0  0  0  0  0  0  0
  147.8111  138.2576  154.4812 C   0  0  0  0  0  0  0  0  0  0  0  0
  150.3191  137.7786  154.9918 C   0  0  0  0  0  0  0  0  0  0  0  0
  150.3504  136.2798  155.1552 C   0  0  0  0  0  0  0  0  0  0  0  0
  149.0102  135.7843  155.7026 C   0  0  0  0  0  0  0  0  0  0  0  0
  148.7488  135.9079  156.8995 O   0  0  0  0  0  0  0  0  0  0  0  0
  148.1742  135.2226  154.8153 N   0  0  0  0  0  0  0  0  0  0  0  0
  146.8579  134.6685  155.1174 C   0  0  0  0  0  0  0  0  0  0  0  0
  146.1175  134.2181  153.8478 C   0  0  0  0  0  0  0  0  0  0  0  0
  147.0433  132.9717  152.9052 S   0  0  0  0  0  0  0  0  0  0  0  0
  146.1334  133.0026  151.3345 C   0  0  0  0  0  0  0  0  0  0  0  0
  144.9190  133.9284  151.3835 C   0  0  0  0  0  0  0  0  0  0  0  0
  144.0311  133.4556  150.2300 C   0  0  0  0  0  0  0  0  0  0  0  0
  144.3512  131.9661  150.0301 C   0  0  0  0  0  0  0  0  0  0  0  0
  145.5333  131.6460  150.9554 C   0  0  0  0  0  0  0  0  0  0  0  0
  153.2120  137.5605  154.7397 H   0  0  0  0  0  0  0  0  0  0  0  0
  152.9854  138.0536  156.4147 H   0  0  0  0  0  0  0  0  0  0  0  0
  153.5013  139.2309  155.2106 H   0  0  0  0  0  0  0  0  0  0  0  0
  148.1389  141.1777  155.0684 H   0  0  0  0  0  0  0  0  0  0  0  0
  148.6450  141.1084  153.3670 H   0  0  0  0  0  0  0  0  0  0  0  0
  149.6352  141.9790  154.5546 H   0  0  0  0  0  0  0  0  0  0  0  0
  147.6603  137.1813  154.3999 H   0  0  0  0  0  0  0  0  0  0  0  0
  147.4504  138.7129  153.5587 H   0  0  0  0  0  0  0  0  0  0  0  0
  147.1950  138.6218  155.3032 H   0  0  0  0  0  0  0  0  0  0  0  0
  150.5366  135.7797  154.2044 H   0  0  0  0  0  0  0  0  0  0  0  0
  151.1617  135.9747  155.8177 H   0  0  0  0  0  0  0  0  0  0  0  0
  148.4775  135.1694  153.8536 H   0  0  0  0  0  0  0  0  0  0  0  0
  147.0145  133.8047  155.7635 H   0  0  0  0  0  0  0  0  0  0  0  0
  146.2477  135.3681  155.6914 H   0  0  0  0  0  0  0  0  0  0  0  0
  145.1325  133.8237  154.1001 H   0  0  0  0  0  0  0  0  0  0  0  0
  145.9562  135.0804  153.2010 H   0  0  0  0  0  0  0  0  0  0  0  0
  146.8032  133.3397  150.5422 H   0  0  0  0  0  0  0  0  0  0  0  0
  144.3876  133.7969  152.3275 H   0  0  0  0  0  0  0  0  0  0  0  0
  145.1893  134.9815  151.2988 H   0  0  0  0  0  0  0  0  0  0  0  0
  142.9742  133.6276  150.4353 H   0  0  0  0  0  0  0  0  0  0  0  0
  144.2818  134.0076  149.3233 H   0  0  0  0  0  0  0  0  0  0  0  0
  143.4927  131.3366  150.2672 H   0  0  0  0  0  0  0  0  0  0  0  0
  144.6154  131.7771  148.9889 H   0  0  0  0  0  0  0  0  0  0  0  0
  146.2604  130.9862  150.4814 H   0  0  0  0  0  0  0  0  0  0  0  0
  145.1640  131.1405  151.8489 H   0  0  0  0  0  0  0  0  0  0  0  0
  1  2  1  0  0  0  0
  1 21  1  0  0  0  0
  1 22  1  0  0  0  0
  1 23  1  0  0  0  0
  2  8  1  0  0  0  0
  2  3  2  0  0  0  0
  3  4  1  0  0  0  0
  4  5  1  0  0  0  0
  4  6  1  0  0  0  0
  5 24  1  0  0  0  0
  5 25  1  0  0  0  0
  5 26  1  0  0  0  0
  6  7  1  0  0  0  0
  6  8  2  0  0  0  0
  7 27  1  0  0  0  0
  7 28  1  0  0  0  0
  7 29  1  0  0  0  0
  8  9  1  0  0  0  0
  9 10  1  0  0  0  0
  9 30  1  0  0  0  0
  9 31  1  0  0  0  0
 10 11  2  0  0  0  0
 10 12  1  0  0  0  0
 12 13  1  0  0  0  0
 12 32  1  0  0  0  0
 13 14  1  0  0  0  0
 13 33  1  0  0  0  0
 13 34  1  0  0  0  0
 14 15  1  0  0  0  0
 14 35  1  0  0  0  0
 14 36  1  0  0  0  0
 15 16  1  0  0  0  0
 16 20  1  0  0  0  0
 16 17  1  0  0  0  0
 16 37  1  0  0  0  0
 17 18  1  0  0  0  0
 17 38  1  0  0  0  0
 17 39  1  0  0  0  0
 18 19  1  0  0  0  0
 18 40  1  0  0  0  0
 18 41  1  0  0  0  0
 19 20  1  0  0  0  0
 19 42  1  0  0  0  0
 19 43  1  0  0  0  0
 20 44  1  0  0  0  0
 20 45  1  0  0  0  0
M  END
> <s_m_source_file>
AV-unprocessed.smi

> <i_m_source_file_index>
1294

> <i_lp_mmshare_version>
43012

> <i_f3d_flags>
0

> <s_epik_input>
W0NIM11jMW5uKFtDSDNdKWMoW0NIM10pYzFbQ0gyXUMoPU8pW05IXVtDSDJdW0NIMl1TW0NIXTJbQ0gyXVtDSDJdW0NIMl1bQ0gyXTI=

> <s_epik_cmdline>
J2VwaWtfcHl0aG9uJywgJy1waCcsICc3LjAnLCAnLXRuJywgJzgnLCAnLW1hJywgJzIwMCcsICctbWV0YWxfYmluZGluZycsICctaW1hZScsICc8aW5maWxlLm1hZT4nLCAnLW9tYWUnLCAnPG91dGZpbGUubWFlPic=

> <r_lp_tautomer_probability>
1

> <r_epik_Ionization_Penalty>
0.00302432

> <r_epik_Ionization_Penalty_Charging>
0

> <r_epik_Ionization_Penalty_Neutral>
0.00302432

> <r_epik_State_Penalty>
0.0021246

> <r_epik_Charging_Adjusted_Penalty>
0.0021246

> <i_epik_Tot_Q>
0

> <i_epik_Tot_abs_Q>
0

> <r_epik_Metal_State_Penalty>
-0

> <b_epik_Metal_Only>
0

> <s_lp_Force_Field>
OPLS_2005

> <r_lp_Energy>
15.1488

> <b_lp_Chiralities_Consistent>
1

> <s_lp_Variant>
AV-unprocessed.smi:1294-1

> <Gold.Version>
5.8.1

> <Gold.Id.Protein>
6NUR|6NUR_protein|mol2

> <Gold.PLP.Fitness>
42.7351

> <Gold.PLP.PLP>
-39.5335

> <Gold.PLP.part.hbond>
-1.9735

> <Gold.PLP.part.metal>
0.0000

> <Gold.PLP.part.buried>
-4.3728

> <Gold.PLP.part.nonpolar>
-34.5161

> <Gold.PLP.part.repulsive>
0.0852

> <Gold.PLP.ligand.clash>
0.0000

> <Gold.PLP.ligand.torsion>
1.4219

> <Gold.PLP.Chemscore.Hbond>
2.0000

> <Gold.PLP.Chemscore.CHOScore>
0.0000

> <Gold.PLP.Chemscore.Metal>
0.0000

> <Gold.Chemscore.Hbonds>
donor molecule, donor type, donor heavy atom, donor atom, acceptor molecule, acceptor atom, score
      L1  H    12    32       P1  7948  0.36
      P1  H  7989  7998       L1     3  1.00

> <Gold.PLP.Chemscore.Internal.Correction>
0.0454

> <Gold.Rescore>
     Score         DG    S(hbond)    S(metal)    S(lipo)     H(rot)  DE(clash)    DE(int)     intcor
     14.67     -16.10       0.90        0.00      99.59       1.58       0.15       1.27       ----

> <Gold.Chemscore.Fitness>
14.6698

> <Gold.Chemscore.DG>
-16.0950

> <Gold.Chemscore.ZeroCoef>
-5.4800

> <Gold.Chemscore.Hbond>
0.8986

> <Gold.Chemscore.Metal>
0.0000

> <Gold.Chemscore.Lipo>
99.5929

> <Gold.Chemscore.Internal_Hbond>
0.0000

> <Gold.Chemscore.DEClash>
0.1538

> <Gold.Chemscore.DEInternal>
1.2715

> <Gold.Chemscore.Rot>
1.5776

> <Gold.Chemscore.Internal.Correction>
   9.000000E+99

> <Gold.Chemscore.Hbonds>
donor molecule, donor type, donor heavy atom, donor atom, acceptor molecule, acceptor atom, score
      L1  H    12    32       P1  7948  0.33
      P1  H  7989  7998       L1     3  0.34

> <Gold.Chemscore.Hbond.Weighted>
-3.0014

> <Gold.Chemscore.Metal.Weighted>
-0.0000

> <Gold.Chemscore.Lipo.Weighted>
-11.6524

> <Gold.Chemscore.Internal_Hbond.Weighted>
0.0000

> <Gold.Chemscore.DEClash.Weighted>
0.1538

> <Gold.Chemscore.DEInternal.Weighted>
1.2715

> <Gold.Chemscore.Rot.Weighted>
4.0387

> <Gold.Chemscore.Internal.Correction.Weighted>
   9.000000E+99

> <Gold.Protein.RotatedTorsions>
[ 6907 6896 6895 6894 ] final -148.86 input  -60.11 | X-H torsion
[ 7974 7965 7964 7962 ] final -153.01 input  175.53 | X-H torsion
[ 8008 7997 7996 7995 ] final -154.70 input   59.86 | X-H torsion
[ 10167 10162 10161 10158 ] final   61.63 input  -65.29 | X-H torsion
[ 10718 10713 10712 10709 ] final  161.95 input   66.30 | X-H torsion
[ 10763 10752 10751 10750 ] final   -4.49 input  -60.55 | X-H torsion
[ 11005 11000 10999 10996 ] final  156.44 input  -57.11 | X-H torsion

> <Gold.Protein.ActiveResidues>
 VAL166  LYS551  ARG553  GLY616  TRP617  ASP618  TYR619  PRO620  LYS621  CYS622 
 ASP623  PHE694  ASN695  SER759  ASP760  ASP761  ALA762  ILE779  LEU786  VAL792 
 PHE793  MET794  SER795  GLU796  ALA797  LYS798  CYS799  TRP800  GLU811  SER814 

> <Gold.Protein.RotatedAtoms>
  151.1759  133.4755  159.2593 H   0  0  0  0  0  0  0  0  0  0  0  0  # atno 6907 bound_to 6896
  151.1309  135.0129  159.8592 H   0  0  0  0  0  0  0  0  0  0  0  0  # atno 6908 bound_to 6896
  152.5460  134.1661  159.8631 H   0  0  0  0  0  0  0  0  0  0  0  0  # atno 6909 bound_to 6896
  144.7763  140.4584  143.5871 H   0  0  0  0  0  0  0  0  0  0  0  0  # atno 7974 bound_to 7965
  155.6904  140.0755  157.2450 H   0  0  0  0  0  0  0  0  0  0  0  0  # atno 8008 bound_to 7997
  154.4089  140.1665  156.2133 H   0  0  0  0  0  0  0  0  0  0  0  0  # atno 8009 bound_to 7997
  155.9457  140.3381  155.6367 H   0  0  0  0  0  0  0  0  0  0  0  0  # atno 8010 bound_to 7997
  140.1527  144.4447  150.6751 H   0  0  0  0  0  0  0  0  0  0  0  0  # atno 10167 bound_to 10162
  157.1293  131.0512  151.2379 H   0  0  0  0  0  0  0  0  0  0  0  0  # atno 10718 bound_to 10713
  153.3856  135.7000  153.6532 H   0  0  0  0  0  0  0  0  0  0  0  0  # atno 10763 bound_to 10752
  153.5126  135.3629  155.2594 H   0  0  0  0  0  0  0  0  0  0  0  0  # atno 10764 bound_to 10752
  154.8697  135.4138  154.3163 H   0  0  0  0  0  0  0  0  0  0  0  0  # atno 10765 bound_to 10752
  140.1675  134.8566  157.2650 H   0  0  0  0  0  0  0  0  0  0  0  0  # atno 11005 bound_to 11000
  145.6176  139.1520  143.3041 LP  0  0  0  0  0  0  0  0  0  0  0  0  # atno 17320 bound_to 7965
  146.1945  140.6288  142.9130 LP  0  0  0  0  0  0  0  0  0  0  0  0  # atno 17321 bound_to 7965
  140.6692  143.2279  151.5666 LP  0  0  0  0  0  0  0  0  0  0  0  0  # atno 17342 bound_to 10162
  139.5418  144.2627  152.1366 LP  0  0  0  0  0  0  0  0  0  0  0  0  # atno 17343 bound_to 10162
  157.4406  130.7542  149.7066 LP  0  0  0  0  0  0  0  0  0  0  0  0  # atno 17370 bound_to 10713
  155.9811  130.4022  150.3489 LP  0  0  0  0  0  0  0  0  0  0  0  0  # atno 17371 bound_to 10713
  140.2417  134.3788  155.7478 LP  0  0  0  0  0  0  0  0  0  0  0  0  # atno 17394 bound_to 11000
  141.2215  133.7268  156.8799 LP  0  0  0  0  0  0  0  0  0  0  0  0  # atno 17395 bound_to 11000

$$$$
