AV-unprocessed.smi:775|AV-procd|sdf|3695|dock3
  -GOLD-   22720 1113D 1   1.00000     0.00000
 Structure written by MMmdl.
 39 40  0  0  0  0  0  0  0  0  2 V2000
  146.9627  132.2612  153.8953 C   0  0  0  0  0  0  0  0  0  0  0  0
  147.2131  133.6096  153.2016 C   0  0  2  0  0  0  0  0  0  0  0  0
  147.1905  133.5006  151.6571 C   0  0  0  0  0  0  0  0  0  0  0  0
  145.9469  132.9653  151.1267 N   0  0  0  0  0  0  0  0  0  0  0  0
  145.7721  131.9284  150.2329 C   0  0  0  0  0  0  0  0  0  0  0  0
  144.4293  131.7884  150.0298 C   0  0  0  0  0  0  0  0  0  0  0  0
  143.8561  132.8024  150.8468 C   0  0  0  0  0  0  0  0  0  0  0  0
  144.7670  133.5056  151.5000 N   0  0  0  0  0  0  0  0  0  0  0  0
  148.4781  134.1929  153.7039 N   0  3  0  0  0  0  0  0  0  0  0  0
  148.4427  134.7024  155.0932 C   0  0  0  0  0  0  0  0  0  0  0  0
  149.6705  135.5619  155.4327 C   0  0  0  0  0  0  0  0  0  0  0  0
  150.7639  135.0055  155.5493 O   0  0  0  0  0  0  0  0  0  0  0  0
  149.5164  136.9002  155.5918 N   0  0  0  0  0  0  0  0  0  0  0  0
  148.2481  137.6185  155.4287 C   0  0  0  0  0  0  0  0  0  0  0  0
  148.3425  138.4832  154.1595 C   0  0  0  0  0  0  0  0  0  0  0  0
  149.5990  139.2318  154.0943 N   0  0  0  0  0  0  0  0  0  0  0  0
  150.6971  138.9728  154.8286 C   0  0  0  0  0  0  0  0  0  0  0  0
  151.7168  139.6501  154.7252 O   0  0  0  0  0  0  0  0  0  0  0  0
  150.6640  137.7936  155.8203 C   0  0  0  0  0  0  0  0  0  0  0  0
  146.0401  131.8018  153.5395 H   0  0  0  0  0  0  0  0  0  0  0  0
  146.8697  132.3884  154.9745 H   0  0  0  0  0  0  0  0  0  0  0  0
  147.7757  131.5566  153.7182 H   0  0  0  0  0  0  0  0  0  0  0  0
  146.4028  134.2757  153.5012 H   0  0  0  0  0  0  0  0  0  0  0  0
  147.3560  134.4858  151.2182 H   0  0  0  0  0  0  0  0  0  0  0  0
  148.0113  132.8806  151.2967 H   0  0  0  0  0  0  0  0  0  0  0  0
  146.6071  131.3812  149.8205 H   0  0  0  0  0  0  0  0  0  0  0  0
  143.9317  131.0734  149.3913 H   0  0  0  0  0  0  0  0  0  0  0  0
  142.8129  133.0475  150.9830 H   0  0  0  0  0  0  0  0  0  0  0  0
  149.1862  133.4734  153.6684 H   0  0  0  0  0  0  0  0  0  0  0  0
  147.5456  135.3047  155.2339 H   0  0  0  0  0  0  0  0  0  0  0  0
  148.3965  133.8557  155.7793 H   0  0  0  0  0  0  0  0  0  0  0  0
  147.3638  136.9845  155.3896 H   0  0  0  0  0  0  0  0  0  0  0  0
  148.1049  138.2605  156.2994 H   0  0  0  0  0  0  0  0  0  0  0  0
  148.2780  137.8512  153.2729 H   0  0  0  0  0  0  0  0  0  0  0  0
  147.5057  139.1805  154.1131 H   0  0  0  0  0  0  0  0  0  0  0  0
  149.6360  140.0084  153.4494 H   0  0  0  0  0  0  0  0  0  0  0  0
  150.5954  138.1956  156.8316 H   0  0  0  0  0  0  0  0  0  0  0  0
  151.6251  137.2808  155.7604 H   0  0  0  0  0  0  0  0  0  0  0  0
  148.7601  134.9413  153.0864 H   0  0  0  0  0  0  0  0  0  0  0  0
  1  2  1  0  0  0  0
  1 20  1  0  0  0  0
  1 21  1  0  0  0  0
  1 22  1  0  0  0  0
  2  3  1  0  0  0  0
  2  9  1  0  0  0  0
  2 23  1  0  0  0  0
  3  4  1  0  0  0  0
  3 24  1  0  0  0  0
  3 25  1  0  0  0  0
  4  8  1  0  0  0  0
  4  5  1  0  0  0  0
  5  6  2  0  0  0  0
  5 26  1  0  0  0  0
  6  7  1  0  0  0  0
  6 27  1  0  0  0  0
  7  8  2  0  0  0  0
  7 28  1  0  0  0  0
  9 10  1  0  0  0  0
  9 29  1  0  0  0  0
  9 39  1  0  0  0  0
 10 11  1  0  0  0  0
 10 30  1  0  0  0  0
 10 31  1  0  0  0  0
 11 12  2  0  0  0  0
 11 13  1  0  0  0  0
 13 19  1  0  0  0  0
 13 14  1  0  0  0  0
 14 15  1  0  0  0  0
 14 32  1  0  0  0  0
 14 33  1  0  0  0  0
 15 16  1  0  0  0  0
 15 34  1  0  0  0  0
 15 35  1  0  0  0  0
 16 17  1  0  0  0  0
 16 36  1  0  0  0  0
 17 18  2  0  0  0  0
 17 19  1  0  0  0  0
 19 37  1  0  0  0  0
 19 38  1  0  0  0  0
M  CHG  1   9   1
M  END
> <s_m_source_file>
AV-unprocessed.smi

> <i_m_source_file_index>
775

> <i_lp_mmshare_version>
43012

> <i_f3d_flags>
0

> <s_epik_input>
bjFbY0hdW2NIXVtjSF1uMVtDSDJdW0NAQEhdKFtDSDNdKVtOSF1bQ0gyXUMoPU8pTjJbQ0gyXVtDSDJdW05IXUMoPU8pW0NIMl0y

> <s_epik_cmdline>
J2VwaWtfcHl0aG9uJywgJy1waCcsICc3LjAnLCAnLXRuJywgJzgnLCAnLW1hJywgJzIwMCcsICctbWV0YWxfYmluZGluZycsICctaW1hZScsICc8aW5maWxlLm1hZT4nLCAnLW9tYWUnLCAnPG91dGZpbGUubWFlPic=

> <r_lp_tautomer_probability>
1

> <r_epik_Ionization_Penalty>
0.165651

> <r_epik_Ionization_Penalty_Charging>
0.165647

> <r_epik_Ionization_Penalty_Neutral>
3.4358e-06

> <r_epik_State_Penalty>
0.15499

> <r_epik_Charging_Adjusted_Penalty>
0.320637

> <i_epik_Tot_Q>
1

> <i_epik_Tot_abs_Q>
1

> <r_epik_Metal_State_Penalty>
0.155003

> <b_epik_Metal_Only>
0

> <s_lp_Force_Field>
OPLS_2005

> <r_lp_Energy>
21.6432

> <b_lp_Chiralities_Consistent>
1

> <s_lp_Variant>
AV-unprocessed.smi:775-1

> <Gold.Version>
5.8.1

> <Gold.Id.Protein>
6NUR|6NUR_protein|mol2

> <Gold.PLP.Fitness>
43.7052

> <Gold.PLP.PLP>
-27.3973

> <Gold.PLP.part.hbond>
-3.0000

> <Gold.PLP.part.metal>
0.0000

> <Gold.PLP.part.buried>
-4.4902

> <Gold.PLP.part.nonpolar>
-20.5716

> <Gold.PLP.part.repulsive>
0.3701

> <Gold.PLP.ligand.clash>
0.0000

> <Gold.PLP.ligand.torsion>
0.3308

> <Gold.PLP.Chemscore.Hbond>
3.6400

> <Gold.PLP.Chemscore.CHOScore>
2.0000

> <Gold.PLP.Chemscore.Metal>
0.0000

> <Gold.Chemscore.Hbonds>
donor molecule, donor type, donor heavy atom, donor atom, acceptor molecule, acceptor atom, score
      L1  H     9    39       P1  7948  2.00
      L1  H    16    36       P1  7957  0.22
      P1  H  7989  7998       L1    18  1.00
      L1  C     5    26       P1 10747  1.00
      L1  C     7    28       P1 10186  0.63

> <Gold.PLP.Chemscore.Internal.Correction>
0.0494

> <Gold.Rescore>
     Score         DG    S(hbond)    S(metal)    S(lipo)     H(rot)  DE(clash)    DE(int)     intcor
     14.05     -14.57       2.44        0.00      55.74       2.18       0.07       0.46       ----

> <Gold.Chemscore.Fitness>
14.0488

> <Gold.Chemscore.DG>
-14.5730

> <Gold.Chemscore.ZeroCoef>
-5.4800

> <Gold.Chemscore.Hbond>
2.4431

> <Gold.Chemscore.Metal>
0.0000

> <Gold.Chemscore.Lipo>
55.7356

> <Gold.Chemscore.Internal_Hbond>
0.0000

> <Gold.Chemscore.DEClash>
0.0681

> <Gold.Chemscore.DEInternal>
0.4561

> <Gold.Chemscore.Rot>
2.1828

> <Gold.Chemscore.Internal.Correction>
   9.000000E+99

> <Gold.Chemscore.Hbonds>
donor molecule, donor type, donor heavy atom, donor atom, acceptor molecule, acceptor atom, score
      L1  H     9    39       P1  7948  0.35
      L1  H    16    36       P1  7957  0.21
      P1  H  7989  7998       L1    18  0.88

> <Gold.Chemscore.Hbond.Weighted>
-8.1599

> <Gold.Chemscore.Metal.Weighted>
-0.0000

> <Gold.Chemscore.Lipo.Weighted>
-6.5211

> <Gold.Chemscore.Internal_Hbond.Weighted>
0.0000

> <Gold.Chemscore.DEClash.Weighted>
0.0681

> <Gold.Chemscore.DEInternal.Weighted>
0.4561

> <Gold.Chemscore.Rot.Weighted>
5.5880

> <Gold.Chemscore.Internal.Correction.Weighted>
   9.000000E+99

> <Gold.Protein.RotatedTorsions>
[ 6907 6896 6895 6894 ] final -171.37 input  -60.11 | X-H torsion
[ 7974 7965 7964 7962 ] final   40.03 input  175.53 | X-H torsion
[ 8008 7997 7996 7995 ] final  148.84 input   59.86 | X-H torsion
[ 10167 10162 10161 10158 ] final  142.71 input  -65.29 | X-H torsion
[ 10718 10713 10712 10709 ] final -179.27 input   66.30 | X-H torsion
[ 10763 10752 10751 10750 ] final  155.54 input  -60.55 | X-H torsion
[ 11005 11000 10999 10996 ] final   86.78 input  -57.11 | X-H torsion

> <Gold.Protein.ActiveResidues>
 VAL166  LYS551  ARG553  GLY616  TRP617  ASP618  TYR619  PRO620  LYS621  CYS622 
 ASP623  PHE694  ASN695  SER759  ASP760  ASP761  ALA762  ILE779  LEU786  VAL792 
 PHE793  MET794  SER795  GLU796  ALA797  LYS798  CYS799  TRP800  GLU811  SER814 

> <Gold.Protein.RotatedAtoms>
  151.5227  133.3463  159.2903 H   0  0  0  0  0  0  0  0  0  0  0  0  # atno 6907 bound_to 6896
  150.8642  134.8004  159.7117 H   0  0  0  0  0  0  0  0  0  0  0  0  # atno 6908 bound_to 6896
  152.4652  134.5101  159.9803 H   0  0  0  0  0  0  0  0  0  0  0  0  # atno 6909 bound_to 6896
  146.0938  139.5582  142.9459 H   0  0  0  0  0  0  0  0  0  0  0  0  # atno 7974 bound_to 7965
  156.2777  140.2118  156.5763 H   0  0  0  0  0  0  0  0  0  0  0  0  # atno 8008 bound_to 7997
  154.7095  140.0513  157.0559 H   0  0  0  0  0  0  0  0  0  0  0  0  # atno 8009 bound_to 7997
  155.0625  140.3168  155.4659 H   0  0  0  0  0  0  0  0  0  0  0  0  # atno 8010 bound_to 7997
  139.4987  144.6089  151.6316 H   0  0  0  0  0  0  0  0  0  0  0  0  # atno 10167 bound_to 10162
  156.8566  130.9737  151.3087 H   0  0  0  0  0  0  0  0  0  0  0  0  # atno 10718 bound_to 10713
  154.1700  135.2805  155.3084 H   0  0  0  0  0  0  0  0  0  0  0  0  # atno 10763 bound_to 10752
  154.6082  135.5507  153.7449 H   0  0  0  0  0  0  0  0  0  0  0  0  # atno 10764 bound_to 10752
  153.0167  135.6409  154.1840 H   0  0  0  0  0  0  0  0  0  0  0  0  # atno 10765 bound_to 10752
  139.8936  134.8378  156.2768 H   0  0  0  0  0  0  0  0  0  0  0  0  # atno 11005 bound_to 11000
  145.5989  141.0358  143.2029 LP  0  0  0  0  0  0  0  0  0  0  0  0  # atno 17320 bound_to 7965
  144.7379  139.7531  143.7322 LP  0  0  0  0  0  0  0  0  0  0  0  0  # atno 17321 bound_to 7965
  140.5758  144.0030  150.6241 LP  0  0  0  0  0  0  0  0  0  0  0  0  # atno 17342 bound_to 10162
  140.3163  143.3165  152.0829 LP  0  0  0  0  0  0  0  0  0  0  0  0  # atno 17343 bound_to 10162
  157.6273  130.8702  149.9212 LP  0  0  0  0  0  0  0  0  0  0  0  0  # atno 17370 bound_to 10713
  156.0799  130.3674  150.0601 LP  0  0  0  0  0  0  0  0  0  0  0  0  # atno 17371 bound_to 10713
  141.0064  133.7121  156.1042 LP  0  0  0  0  0  0  0  0  0  0  0  0  # atno 17394 bound_to 11000
  140.7427  134.4132  157.5552 LP  0  0  0  0  0  0  0  0  0  0  0  0  # atno 17395 bound_to 11000

$$$$
