AV-unprocessed.smi:3285|AV-procd|sdf|12584|dock1
  -GOLD-   2272018503D 1   1.00000     0.00000
 Structure written by MMmdl.
 45 46  0  0  0  0  0  0  0  0  2 V2000
  146.4757  142.6706  154.2029 C   0  0  0  0  0  0  0  0  0  0  0  0
  147.2328  141.3744  154.1578 C   0  0  0  0  0  0  0  0  0  0  0  0
  146.9176  140.4753  153.2415 N   0  0  0  0  0  0  0  0  0  0  0  0
  147.7791  139.3948  153.4512 O   0  0  0  0  0  0  0  0  0  0  0  0
  148.5898  139.6883  154.4985 C   0  0  0  0  0  0  0  0  0  0  0  0
  149.5904  138.6464  154.8713 C   0  0  0  0  0  0  0  0  0  0  0  0
  148.2999  140.9317  154.9924 C   0  0  0  0  0  0  0  0  0  0  0  0
  148.9471  141.6686  156.1382 C   0  0  0  0  0  0  0  0  0  0  0  0
  150.4626  141.8264  155.9418 C   0  0  0  0  0  0  0  0  0  0  0  0
  150.9482  143.0999  156.5154 N   0  3  0  0  0  0  0  0  0  0  0  0
  151.0357  143.1432  157.9910 C   0  0  2  0  0  0  0  0  0  0  0  0
  151.3165  144.5830  158.4474 C   0  0  0  0  0  0  0  0  0  0  0  0
  151.4294  144.6693  159.9752 C   0  0  0  0  0  0  0  0  0  0  0  0
  152.5173  143.7269  160.5279 C   0  0  1  0  0  0  0  0  0  0  0  0
  152.5947  143.8613  162.0591 C   0  0  0  0  0  0  0  0  0  0  0  0
  152.2656  142.2687  160.0605 C   0  0  2  0  0  0  0  0  0  0  0  0
  153.3571  141.2918  160.5330 C   0  0  0  0  0  0  0  0  0  0  0  0
  152.1318  142.2000  158.5243 C   0  0  0  0  0  0  0  0  0  0  0  0
  146.9950  143.4167  154.8039 H   0  0  0  0  0  0  0  0  0  0  0  0
  145.4849  142.5287  154.6347 H   0  0  0  0  0  0  0  0  0  0  0  0
  146.3460  143.0875  153.2037 H   0  0  0  0  0  0  0  0  0  0  0  0
  150.1890  138.9599  155.7263 H   0  0  0  0  0  0  0  0  0  0  0  0
  150.2684  138.4488  154.0411 H   0  0  0  0  0  0  0  0  0  0  0  0
  149.0949  137.7113  155.1326 H   0  0  0  0  0  0  0  0  0  0  0  0
  148.5030  142.6580  156.2514 H   0  0  0  0  0  0  0  0  0  0  0  0
  148.7571  141.1606  157.0841 H   0  0  0  0  0  0  0  0  0  0  0  0
  150.9843  140.9915  156.4118 H   0  0  0  0  0  0  0  0  0  0  0  0
  150.6959  141.7917  154.8778 H   0  0  0  0  0  0  0  0  0  0  0  0
  151.8523  143.3211  156.1235 H   0  0  0  0  0  0  0  0  0  0  0  0
  150.0703  142.8404  158.3999 H   0  0  0  0  0  0  0  0  0  0  0  0
  152.2404  144.9455  157.9939 H   0  0  0  0  0  0  0  0  0  0  0  0
  150.5220  145.2464  158.1030 H   0  0  0  0  0  0  0  0  0  0  0  0
  151.6487  145.6986  160.2614 H   0  0  0  0  0  0  0  0  0  0  0  0
  150.4657  144.4251  160.4250 H   0  0  0  0  0  0  0  0  0  0  0  0
  153.4759  144.0538  160.1216 H   0  0  0  0  0  0  0  0  0  0  0  0
  151.6936  143.4763  162.5373 H   0  0  0  0  0  0  0  0  0  0  0  0
  152.7056  144.9050  162.3548 H   0  0  0  0  0  0  0  0  0  0  0  0
  153.4494  143.3250  162.4703 H   0  0  0  0  0  0  0  0  0  0  0  0
  151.3196  141.9343  160.4893 H   0  0  0  0  0  0  0  0  0  0  0  0
  154.3461  141.6103  160.2019 H   0  0  0  0  0  0  0  0  0  0  0  0
  153.1832  140.2900  160.1391 H   0  0  0  0  0  0  0  0  0  0  0  0
  153.3789  141.2032  161.6189 H   0  0  0  0  0  0  0  0  0  0  0  0
  151.9132  141.1725  158.2335 H   0  0  0  0  0  0  0  0  0  0  0  0
  153.0884  142.4521  158.0635 H   0  0  0  0  0  0  0  0  0  0  0  0
  150.2947  143.8161  156.2315 H   0  0  0  0  0  0  0  0  0  0  0  0
  1  2  1  0  0  0  0
  1 19  1  0  0  0  0
  1 20  1  0  0  0  0
  1 21  1  0  0  0  0
  2  7  1  0  0  0  0
  2  3  2  0  0  0  0
  3  4  1  0  0  0  0
  4  5  1  0  0  0  0
  5  6  1  0  0  0  0
  5  7  2  0  0  0  0
  6 22  1  0  0  0  0
  6 23  1  0  0  0  0
  6 24  1  0  0  0  0
  7  8  1  0  0  0  0
  8  9  1  0  0  0  0
  8 25  1  0  0  0  0
  8 26  1  0  0  0  0
  9 10  1  0  0  0  0
  9 27  1  0  0  0  0
  9 28  1  0  0  0  0
 10 11  1  0  0  0  0
 10 29  1  0  0  0  0
 10 45  1  0  0  0  0
 11 18  1  0  0  0  0
 11 12  1  0  0  0  0
 11 30  1  0  0  0  0
 12 13  1  0  0  0  0
 12 31  1  0  0  0  0
 12 32  1  0  0  0  0
 13 14  1  0  0  0  0
 13 33  1  0  0  0  0
 13 34  1  0  0  0  0
 14 15  1  0  0  0  0
 14 16  1  0  0  0  0
 14 35  1  0  0  0  0
 15 36  1  0  0  0  0
 15 37  1  0  0  0  0
 15 38  1  0  0  0  0
 16 17  1  0  0  0  0
 16 18  1  0  0  0  0
 16 39  1  0  0  0  0
 17 40  1  0  0  0  0
 17 41  1  0  0  0  0
 17 42  1  0  0  0  0
 18 43  1  0  0  0  0
 18 44  1  0  0  0  0
M  CHG  1  10   1
M  END
> <s_m_source_file>
AV-unprocessed.smi

> <i_m_source_file_index>
3285

> <i_lp_mmshare_version>
43012

> <i_f3d_flags>
0

> <s_epik_input>
W0NIM11jMW5vYyhbQ0gzXSljMVtDSDJdW0NIMl1bTkhdW0NAQEhdMltDSDJdW0NIMl1bQ0BASF0oW0NIM10pW0NAQEhdKFtDSDNdKVtDSDJdMg==

> <s_epik_cmdline>
J2VwaWtfcHl0aG9uJywgJy1waCcsICc3LjAnLCAnLXRuJywgJzgnLCAnLW1hJywgJzIwMCcsICctbWV0YWxfYmluZGluZycsICctaW1hZScsICc8aW5maWxlLm1hZT4nLCAnLW9tYWUnLCAnPG91dGZpbGUubWFlPic=

> <r_lp_tautomer_probability>
1

> <r_epik_Ionization_Penalty>
0.000204615

> <r_epik_Ionization_Penalty_Charging>
0.000204615

> <r_epik_Ionization_Penalty_Neutral>
9.28663e-11

> <r_epik_State_Penalty>
-0

> <r_epik_Charging_Adjusted_Penalty>
0.000204615

> <i_epik_Tot_Q>
1

> <i_epik_Tot_abs_Q>
1

> <r_epik_Metal_State_Penalty>
-0

> <b_epik_Metal_Only>
0

> <s_lp_Force_Field>
OPLS_2005

> <r_lp_Energy>
12.3139

> <b_lp_Chiralities_Consistent>
1

> <s_lp_Variant>
AV-unprocessed.smi:3285-5

> <Gold.Version>
5.8.1

> <Gold.Id.Protein>
6NUR|6NUR_protein|mol2

> <Gold.PLP.Fitness>
48.0202

> <Gold.PLP.PLP>
-42.6155

> <Gold.PLP.part.hbond>
-1.0000

> <Gold.PLP.part.metal>
0.0000

> <Gold.PLP.part.buried>
-6.4852

> <Gold.PLP.part.nonpolar>
-37.5461

> <Gold.PLP.part.repulsive>
2.5851

> <Gold.PLP.ligand.clash>
0.0000

> <Gold.PLP.ligand.torsion>
0.3230

> <Gold.PLP.Chemscore.Hbond>
2.0000

> <Gold.PLP.Chemscore.CHOScore>
0.0000

> <Gold.PLP.Chemscore.Metal>
0.0000

> <Gold.Chemscore.Hbonds>
donor molecule, donor type, donor heavy atom, donor atom, acceptor molecule, acceptor atom, score
      L1  H    10    45       P1  8028  2.00

> <Gold.PLP.Chemscore.Internal.Correction>
0.0506

> <Gold.Rescore>
     Score         DG    S(hbond)    S(metal)    S(lipo)     H(rot)  DE(clash)    DE(int)     intcor
     19.50     -20.17       1.00        0.00     126.48       1.35       0.22       0.45       ----

> <Gold.Chemscore.Fitness>
19.4961

> <Gold.Chemscore.DG>
-20.1709

> <Gold.Chemscore.ZeroCoef>
-5.4800

> <Gold.Chemscore.Hbond>
1.0000

> <Gold.Chemscore.Metal>
0.0000

> <Gold.Chemscore.Lipo>
126.4781

> <Gold.Chemscore.Internal_Hbond>
0.0000

> <Gold.Chemscore.DEClash>
0.2230

> <Gold.Chemscore.DEInternal>
0.4519

> <Gold.Chemscore.Rot>
1.3465

> <Gold.Chemscore.Internal.Correction>
   9.000000E+99

> <Gold.Chemscore.Hbonds>
donor molecule, donor type, donor heavy atom, donor atom, acceptor molecule, acceptor atom, score
      L1  H    10    45       P1  8028  1.00

> <Gold.Chemscore.Hbond.Weighted>
-3.3400

> <Gold.Chemscore.Metal.Weighted>
-0.0000

> <Gold.Chemscore.Lipo.Weighted>
-14.7979

> <Gold.Chemscore.Internal_Hbond.Weighted>
0.0000

> <Gold.Chemscore.DEClash.Weighted>
0.2230

> <Gold.Chemscore.DEInternal.Weighted>
0.4519

> <Gold.Chemscore.Rot.Weighted>
3.4470

> <Gold.Chemscore.Internal.Correction.Weighted>
   9.000000E+99

> <Gold.Protein.RotatedTorsions>
[ 6907 6896 6895 6894 ] final   79.91 input  -60.11 | X-H torsion
[ 7974 7965 7964 7962 ] final  157.32 input  175.53 | X-H torsion
[ 8008 7997 7996 7995 ] final   18.01 input   59.86 | X-H torsion
[ 10167 10162 10161 10158 ] final  133.88 input  -65.29 | X-H torsion
[ 10718 10713 10712 10709 ] final   35.73 input   66.30 | X-H torsion
[ 10763 10752 10751 10750 ] final  -55.40 input  -60.55 | X-H torsion
[ 11005 11000 10999 10996 ] final  -57.51 input  -57.11 | X-H torsion

> <Gold.Protein.ActiveResidues>
 VAL166  LYS551  ARG553  GLY616  TRP617  ASP618  TYR619  PRO620  LYS621  CYS622 
 ASP623  PHE694  ASN695  SER759  ASP760  ASP761  ALA762  ILE779  LEU786  VAL792 
 PHE793  MET794  SER795  GLU796  ALA797  LYS798  CYS799  TRP800  GLU811  SER814 

> <Gold.Protein.RotatedAtoms>
  152.5216  134.3438  159.9226 H   0  0  0  0  0  0  0  0  0  0  0  0  # atno 6907 bound_to 6896
  151.3388  133.3964  159.2677 H   0  0  0  0  0  0  0  0  0  0  0  0  # atno 6908 bound_to 6896
  150.9820  134.9191  159.7907 H   0  0  0  0  0  0  0  0  0  0  0  0  # atno 6909 bound_to 6896
  144.7910  139.7324  143.6221 H   0  0  0  0  0  0  0  0  0  0  0  0  # atno 7974 bound_to 7965
  154.8998  140.2999  155.5324 H   0  0  0  0  0  0  0  0  0  0  0  0  # atno 8008 bound_to 7997
  156.3019  140.2409  156.3959 H   0  0  0  0  0  0  0  0  0  0  0  0  # atno 8009 bound_to 7997
  154.8533  140.0408  157.1607 H   0  0  0  0  0  0  0  0  0  0  0  0  # atno 8010 bound_to 7997
  139.5279  144.6594  151.5060 H   0  0  0  0  0  0  0  0  0  0  0  0  # atno 10167 bound_to 10162
  157.3263  130.7474  149.6818 H   0  0  0  0  0  0  0  0  0  0  0  0  # atno 10718 bound_to 10713
  154.1902  135.6428  153.5058 H   0  0  0  0  0  0  0  0  0  0  0  0  # atno 10763 bound_to 10752
  153.0037  135.5427  154.6423 H   0  0  0  0  0  0  0  0  0  0  0  0  # atno 10764 bound_to 10752
  154.5809  135.2925  155.0706 H   0  0  0  0  0  0  0  0  0  0  0  0  # atno 10765 bound_to 10752
  141.1168  133.6610  156.4780 H   0  0  0  0  0  0  0  0  0  0  0  0  # atno 11005 bound_to 11000
  146.2162  139.5554  142.9648 LP  0  0  0  0  0  0  0  0  0  0  0  0  # atno 17320 bound_to 7965
  145.5794  141.0384  143.2131 LP  0  0  0  0  0  0  0  0  0  0  0  0  # atno 17321 bound_to 7965
  140.6435  143.8841  150.6715 LP  0  0  0  0  0  0  0  0  0  0  0  0  # atno 17342 bound_to 10162
  140.2183  143.3829  152.1663 LP  0  0  0  0  0  0  0  0  0  0  0  0  # atno 17343 bound_to 10162
  155.9691  130.4208  150.4441 LP  0  0  0  0  0  0  0  0  0  0  0  0  # atno 17370 bound_to 10713
  157.2465  131.0537  151.2405 LP  0  0  0  0  0  0  0  0  0  0  0  0  # atno 17371 bound_to 10713
  140.4624  134.6829  157.5091 LP  0  0  0  0  0  0  0  0  0  0  0  0  # atno 17394 bound_to 11000
  140.0095  134.6712  155.9402 LP  0  0  0  0  0  0  0  0  0  0  0  0  # atno 17395 bound_to 11000

$$$$
