AV-unprocessed.smi:1591|AV-procd|sdf|6398|dock6
  -GOLD-   22720 7 33D 1   1.00000     0.00000
 Structure written by MMmdl.
 52 55  0  0  0  0  0  0  0  0  1 V2000
  148.0011  131.0881  160.2739 C   0  0  0  0  0  0  0  0  0  0  0  0
  147.6266  132.0127  159.1053 C   0  0  0  0  0  0  0  0  0  0  0  0
  148.1756  133.4555  159.2396 C   0  0  1  0  0  0  0  0  0  0  0  0
  148.0883  134.1284  157.9436 N   0  0  0  0  0  0  0  0  0  0  0  0
  148.8026  135.1848  157.5205 C   0  0  0  0  0  0  0  0  0  0  0  0
  149.7166  135.6858  158.1737 O   0  0  0  0  0  0  0  0  0  0  0  0
  148.4240  135.7909  156.1578 C   0  0  0  0  0  0  0  0  0  0  0  0
  149.2656  136.9318  155.7560 N   0  0  0  0  0  0  0  0  0  0  0  0
  148.6961  138.1776  155.5337 C   0  0  0  0  0  0  0  0  0  0  0  0
  149.4152  139.2801  155.2155 C   0  0  0  0  0  0  0  0  0  0  0  0
  150.8670  139.2043  155.0896 C   0  0  0  0  0  0  0  0  0  0  0  0
  151.6050  140.1466  154.8110 O   0  0  0  0  0  0  0  0  0  0  0  0
  151.4023  137.9337  155.3166 N   0  0  0  0  0  0  0  0  0  0  0  0
  150.6671  136.7932  155.6419 C   0  0  0  0  0  0  0  0  0  0  0  0
  151.2415  135.7218  155.8302 O   0  0  0  0  0  0  0  0  0  0  0  0
  147.4842  134.3375  160.3328 C   0  0  0  0  0  0  0  0  0  0  0  0
  147.7168  133.7009  161.7368 C   0  0  0  0  0  0  0  0  0  0  0  0
  147.0473  134.5365  162.8462 C   0  0  1  0  0  0  0  0  0  0  0  0
  147.6396  135.9605  162.8444 C   0  0  0  0  0  0  0  0  0  0  0  0
  147.3742  136.6169  161.4745 C   0  0  2  0  0  0  0  0  0  0  0  0
  145.8546  136.6851  161.2174 C   0  0  0  0  0  0  0  0  0  0  0  0
  145.2740  135.2558  161.2238 C   0  0  2  0  0  0  0  0  0  0  0  0
  145.5286  134.5997  162.5949 C   0  0  0  0  0  0  0  0  0  0  0  0
  145.9463  134.4220  160.1113 C   0  0  0  0  0  0  0  0  0  0  0  0
  148.0525  135.7882  160.3629 C   0  0  0  0  0  0  0  0  0  0  0  0
  152.4040  137.8324  155.2404 H   0  0  0  0  0  0  0  0  0  0  0  0
  147.5206  130.1157  160.1652 H   0  0  0  0  0  0  0  0  0  0  0  0
  147.6822  131.5107  161.2268 H   0  0  0  0  0  0  0  0  0  0  0  0
  149.0762  130.9153  160.3251 H   0  0  0  0  0  0  0  0  0  0  0  0
  147.9730  131.5588  158.1770 H   0  0  0  0  0  0  0  0  0  0  0  0
  146.5394  132.0319  159.0501 H   0  0  0  0  0  0  0  0  0  0  0  0
  149.2256  133.3636  159.5232 H   0  0  0  0  0  0  0  0  0  0  0  0
  147.3647  133.7932  157.3241 H   0  0  0  0  0  0  0  0  0  0  0  0
  148.4575  135.0071  155.3987 H   0  0  0  0  0  0  0  0  0  0  0  0
  147.3783  136.0975  156.2056 H   0  0  0  0  0  0  0  0  0  0  0  0
  147.6244  138.2826  155.6262 H   0  0  0  0  0  0  0  0  0  0  0  0
  148.9142  140.2243  155.0580 H   0  0  0  0  0  0  0  0  0  0  0  0
  147.3269  132.6822  161.7570 H   0  0  0  0  0  0  0  0  0  0  0  0
  148.7801  133.6189  161.9597 H   0  0  0  0  0  0  0  0  0  0  0  0
  147.2341  134.0690  163.8134 H   0  0  0  0  0  0  0  0  0  0  0  0
  147.1945  136.5562  163.6423 H   0  0  0  0  0  0  0  0  0  0  0  0
  148.7114  135.9253  163.0454 H   0  0  0  0  0  0  0  0  0  0  0  0
  147.7862  137.6265  161.4732 H   0  0  0  0  0  0  0  0  0  0  0  0
  145.3689  137.2943  161.9807 H   0  0  0  0  0  0  0  0  0  0  0  0
  145.6547  137.1707  160.2615 H   0  0  0  0  0  0  0  0  0  0  0  0
  144.2001  135.3018  161.0407 H   0  0  0  0  0  0  0  0  0  0  0  0
  145.0981  133.5979  162.6214 H   0  0  0  0  0  0  0  0  0  0  0  0
  145.0373  135.1690  163.3850 H   0  0  0  0  0  0  0  0  0  0  0  0
  145.7154  134.8878  159.1541 H   0  0  0  0  0  0  0  0  0  0  0  0
  145.5123  133.4217  160.0798 H   0  0  0  0  0  0  0  0  0  0  0  0
  149.1300  135.7836  160.5308 H   0  0  0  0  0  0  0  0  0  0  0  0
  147.8963  136.2821  159.4039 H   0  0  0  0  0  0  0  0  0  0  0  0
  1  2  1  0  0  0  0
  1 27  1  0  0  0  0
  1 28  1  0  0  0  0
  1 29  1  0  0  0  0
  2  3  1  0  0  0  0
  2 30  1  0  0  0  0
  2 31  1  0  0  0  0
  3  4  1  0  0  0  0
  3 16  1  0  0  0  0
  3 32  1  0  0  0  0
  4  5  1  0  0  0  0
  4 33  1  0  0  0  0
  5  6  2  0  0  0  0
  5  7  1  0  0  0  0
  7  8  1  0  0  0  0
  7 34  1  0  0  0  0
  7 35  1  0  0  0  0
  8 14  1  0  0  0  0
  8  9  1  0  0  0  0
  9 10  2  0  0  0  0
  9 36  1  0  0  0  0
 10 11  1  0  0  0  0
 10 37  1  0  0  0  0
 11 12  2  0  0  0  0
 11 13  1  0  0  0  0
 13 26  1  0  0  0  0
 13 14  1  0  0  0  0
 14 15  2  0  0  0  0
 16 24  1  0  0  0  0
 16 25  1  0  0  0  0
 16 17  1  0  0  0  0
 17 18  1  0  0  0  0
 17 38  1  0  0  0  0
 17 39  1  0  0  0  0
 18 23  1  0  0  0  0
 18 19  1  0  0  0  0
 18 40  1  0  0  0  0
 19 20  1  0  0  0  0
 19 41  1  0  0  0  0
 19 42  1  0  0  0  0
 20 21  1  0  0  0  0
 20 25  1  0  0  0  0
 20 43  1  0  0  0  0
 21 22  1  0  0  0  0
 21 44  1  0  0  0  0
 21 45  1  0  0  0  0
 22 23  1  0  0  0  0
 22 24  1  0  0  0  0
 22 46  1  0  0  0  0
 23 47  1  0  0  0  0
 23 48  1  0  0  0  0
 24 49  1  0  0  0  0
 24 50  1  0  0  0  0
 25 51  1  0  0  0  0
 25 52  1  0  0  0  0
M  END
> <s_m_source_file>
AV-unprocessed.smi

> <i_m_source_file_index>
1591

> <i_lp_mmshare_version>
43012

> <i_f3d_flags>
0

> <s_epik_input>
W0NIMl0xW0NASF0oW0NIMl0yKVtDSDJdW0NASF0oW0NIMl0zKVtDSDJdW0NAQEhdMVtDSDJdQzIzW0NASF0oW0NIMl1bQ0gzXSlbTkhdQyg9TylbQ0gyXW40W2NIXVtjSF1jKD1PKVtuSF1jND1P

> <s_epik_cmdline>
J2VwaWtfcHl0aG9uJywgJy1waCcsICc3LjAnLCAnLXRuJywgJzgnLCAnLW1hJywgJzIwMCcsICctbWV0YWxfYmluZGluZycsICctaW1hZScsICc8aW5maWxlLm1hZT4nLCAnLW9tYWUnLCAnPG91dGZpbGUubWFlPic=

> <r_lp_tautomer_probability>
0.999537

> <r_epik_Ionization_Penalty>
0.00297067

> <r_epik_Ionization_Penalty_Charging>
0.00297065

> <r_epik_Ionization_Penalty_Neutral>
1.95363e-08

> <r_epik_State_Penalty>
0.00208437

> <r_epik_Charging_Adjusted_Penalty>
0.00505502

> <i_epik_Tot_Q>
0

> <i_epik_Tot_abs_Q>
0

> <r_epik_Metal_State_Penalty>
0.36072

> <b_epik_Metal_Only>
0

> <s_lp_Force_Field>
OPLS_2005

> <r_lp_Energy>
36.0514

> <b_lp_Chiralities_Consistent>
1

> <s_lp_Variant>
AV-unprocessed.smi:1591-2

> <Gold.Version>
5.8.1

> <Gold.Id.Protein>
6NUR|6NUR_protein|mol2

> <Gold.PLP.Fitness>
44.3937

> <Gold.PLP.PLP>
-36.0549

> <Gold.PLP.part.hbond>
-2.9127

> <Gold.PLP.part.metal>
0.0000

> <Gold.PLP.part.buried>
-5.4945

> <Gold.PLP.part.nonpolar>
-28.5047

> <Gold.PLP.part.repulsive>
0.2789

> <Gold.PLP.ligand.clash>
0.0000

> <Gold.PLP.ligand.torsion>
0.3913

> <Gold.PLP.Chemscore.Hbond>
3.0000

> <Gold.PLP.Chemscore.CHOScore>
0.0000

> <Gold.PLP.Chemscore.Metal>
0.0000

> <Gold.Chemscore.Hbonds>
donor molecule, donor type, donor heavy atom, donor atom, acceptor molecule, acceptor atom, score
      P1  H  6896  6908       L1     6  1.00
      P1  H  7989  7998       L1    12  0.91
      P1  H 10752 10765       L1    15  0.99

> <Gold.PLP.Chemscore.Internal.Correction>
0.1213

> <Gold.Rescore>
     Score         DG    S(hbond)    S(metal)    S(lipo)     H(rot)  DE(clash)    DE(int)     intcor
     18.81     -19.85       2.85        0.00      86.13       2.04       0.07       0.97       ----

> <Gold.Chemscore.Fitness>
18.8087

> <Gold.Chemscore.DG>
-19.8462

> <Gold.Chemscore.ZeroCoef>
-5.4800

> <Gold.Chemscore.Hbond>
2.8484

> <Gold.Chemscore.Metal>
0.0000

> <Gold.Chemscore.Lipo>
86.1294

> <Gold.Chemscore.Internal_Hbond>
0.0000

> <Gold.Chemscore.DEClash>
0.0659

> <Gold.Chemscore.DEInternal>
0.9716

> <Gold.Chemscore.Rot>
2.0409

> <Gold.Chemscore.Internal.Correction>
   9.000000E+99

> <Gold.Chemscore.Hbonds>
donor molecule, donor type, donor heavy atom, donor atom, acceptor molecule, acceptor atom, score
      P1  H  6896  6908       L1     6  0.90
      P1  H  7989  7998       L1    12  0.84
      P1  H 10752 10765       L1    15  0.85

> <Gold.Chemscore.Hbond.Weighted>
-9.5136

> <Gold.Chemscore.Metal.Weighted>
-0.0000

> <Gold.Chemscore.Lipo.Weighted>
-10.0771

> <Gold.Chemscore.Internal_Hbond.Weighted>
0.0000

> <Gold.Chemscore.DEClash.Weighted>
0.0659

> <Gold.Chemscore.DEInternal.Weighted>
0.9716

> <Gold.Chemscore.Rot.Weighted>
5.2246

> <Gold.Chemscore.Internal.Correction.Weighted>
   9.000000E+99

> <Gold.Protein.RotatedTorsions>
[ 6907 6896 6895 6894 ] final  166.83 input  -60.11 | X-H torsion
[ 7974 7965 7964 7962 ] final  168.93 input  175.53 | X-H torsion
[ 8008 7997 7996 7995 ] final  155.54 input   59.86 | X-H torsion
[ 10167 10162 10161 10158 ] final   14.13 input  -65.29 | X-H torsion
[ 10718 10713 10712 10709 ] final  -64.84 input   66.30 | X-H torsion
[ 10763 10752 10751 10750 ] final -164.73 input  -60.55 | X-H torsion
[ 11005 11000 10999 10996 ] final -174.10 input  -57.11 | X-H torsion

> <Gold.Protein.ActiveResidues>
 VAL166  LYS551  ARG553  GLY616  TRP617  ASP618  TYR619  PRO620  LYS621  CYS622 
 ASP623  PHE694  ASN695  SER759  ASP760  ASP761  ALA762  ILE779  LEU786  VAL792 
 PHE793  MET794  SER795  GLU796  ALA797  LYS798  CYS799  TRP800  GLU811  SER814 

> <Gold.Protein.RotatedAtoms>
  151.8728  133.3479  159.3740 H   0  0  0  0  0  0  0  0  0  0  0  0  # atno 6907 bound_to 6896
  150.7148  134.5095  159.5610 H   0  0  0  0  0  0  0  0  0  0  0  0  # atno 6908 bound_to 6896
  152.2632  134.8013  160.0478 H   0  0  0  0  0  0  0  0  0  0  0  0  # atno 6909 bound_to 6896
  144.7372  139.8979  143.6407 H   0  0  0  0  0  0  0  0  0  0  0  0  # atno 7974 bound_to 7965
  156.2472  140.1937  156.6817 H   0  0  0  0  0  0  0  0  0  0  0  0  # atno 8008 bound_to 7997
  154.6317  140.0595  156.9766 H   0  0  0  0  0  0  0  0  0  0  0  0  # atno 8009 bound_to 7997
  155.1700  140.3267  155.4397 H   0  0  0  0  0  0  0  0  0  0  0  0  # atno 8010 bound_to 7997
  140.5956  143.8707  150.6915 H   0  0  0  0  0  0  0  0  0  0  0  0  # atno 10167 bound_to 10162
  156.0705  130.4239  150.1477 H   0  0  0  0  0  0  0  0  0  0  0  0  # atno 10718 bound_to 10713
  154.7000  135.2986  154.9355 H   0  0  0  0  0  0  0  0  0  0  0  0  # atno 10763 bound_to 10752
  154.0290  135.6672  153.4783 H   0  0  0  0  0  0  0  0  0  0  0  0  # atno 10764 bound_to 10752
  153.0674  135.5080  154.8139 H   0  0  0  0  0  0  0  0  0  0  0  0  # atno 10765 bound_to 10752
  140.4783  134.6100  157.4909 H   0  0  0  0  0  0  0  0  0  0  0  0  # atno 11005 bound_to 11000
  146.1093  139.4096  143.0298 LP  0  0  0  0  0  0  0  0  0  0  0  0  # atno 17320 bound_to 7965
  145.7466  140.9988  143.1273 LP  0  0  0  0  0  0  0  0  0  0  0  0  # atno 17321 bound_to 7965
  140.2241  143.3786  152.1619 LP  0  0  0  0  0  0  0  0  0  0  0  0  # atno 17342 bound_to 10162
  139.5256  144.7098  151.5242 LP  0  0  0  0  0  0  0  0  0  0  0  0  # atno 17343 bound_to 10162
  156.9529  130.9780  151.3494 LP  0  0  0  0  0  0  0  0  0  0  0  0  # atno 17370 bound_to 10713
  157.5773  130.8352  149.8473 LP  0  0  0  0  0  0  0  0  0  0  0  0  # atno 17371 bound_to 10713
  139.9842  134.7088  155.9804 LP  0  0  0  0  0  0  0  0  0  0  0  0  # atno 17394 bound_to 11000
  141.1544  133.6544  156.4113 LP  0  0  0  0  0  0  0  0  0  0  0  0  # atno 17395 bound_to 11000

$$$$
