AV-unprocessed.smi:403|AV-procd|sdf|2496|dock10
  -GOLD-   2262022443D 1   1.00000     0.00000
 Structure written by MMmdl.
 46 47  0  0  0  0  0  0  0  0  1 V2000
  154.9346  137.6232  164.7535 C   0  0  0  0  0  0  0  0  0  0  0  0
  154.0267  136.5416  164.1436 C   0  0  0  0  0  0  0  0  0  0  0  0
  154.3433  135.1701  164.7595 C   0  0  0  0  0  0  0  0  0  0  0  0
  154.1263  136.4845  162.6052 C   0  0  0  0  0  0  0  0  0  0  0  0
  154.0920  137.8676  161.9223 C   0  0  0  0  0  0  0  0  0  0  0  0
  153.5495  137.8363  160.4890 C   0  0  0  0  0  0  0  0  0  0  0  0
  153.0563  136.8111  160.0170 O   0  0  0  0  0  0  0  0  0  0  0  0
  153.6480  138.9853  159.8028 N   0  0  0  0  0  0  0  0  0  0  0  0
  153.1890  139.1822  158.4307 C   0  0  0  0  0  0  0  0  0  0  0  0
  152.2509  140.3746  158.2243 C   0  0  0  0  0  0  0  0  0  0  0  0
  152.3623  141.5367  159.0240 C   0  0  0  0  0  0  0  0  0  0  0  0
  151.5025  142.6243  158.7885 C   0  0  0  0  0  0  0  0  0  0  0  0
  150.5598  142.5162  157.7514 C   0  0  0  0  0  0  0  0  0  0  0  0
  150.4438  141.4216  156.9730 N   0  0  0  0  0  0  0  0  0  0  0  0
  151.2695  140.3700  157.1967 C   0  0  0  0  0  0  0  0  0  0  0  0
  151.1050  139.2394  156.3773 N   0  0  0  0  0  0  0  0  0  0  0  0
  152.1754  139.0927  155.3990 C   0  0  0  0  0  0  0  0  0  0  0  0
  151.8281  137.9691  154.4074 C   0  0  0  0  0  0  0  0  0  0  0  0
  151.5731  136.7619  155.1210 O   0  0  0  0  0  0  0  0  0  0  0  0
  150.4802  136.8934  156.0265 C   0  0  0  0  0  0  0  0  0  0  0  0
  150.7960  137.9879  157.0603 C   0  0  0  0  0  0  0  0  0  0  0  0
  155.9795  137.4599  164.4876 H   0  0  0  0  0  0  0  0  0  0  0  0
  154.8661  137.6226  165.8417 H   0  0  0  0  0  0  0  0  0  0  0  0
  154.6563  138.6213  164.4169 H   0  0  0  0  0  0  0  0  0  0  0  0
  152.9959  136.7822  164.4068 H   0  0  0  0  0  0  0  0  0  0  0  0
  155.3675  134.8657  164.5414 H   0  0  0  0  0  0  0  0  0  0  0  0
  153.6770  134.3991  164.3715 H   0  0  0  0  0  0  0  0  0  0  0  0
  154.2253  135.1880  165.8432 H   0  0  0  0  0  0  0  0  0  0  0  0
  155.0341  135.9508  162.3187 H   0  0  0  0  0  0  0  0  0  0  0  0
  153.2935  135.8893  162.2269 H   0  0  0  0  0  0  0  0  0  0  0  0
  153.4722  138.5489  162.5067 H   0  0  0  0  0  0  0  0  0  0  0  0
  155.0927  138.2985  161.8927 H   0  0  0  0  0  0  0  0  0  0  0  0
  154.0673  139.7804  160.2628 H   0  0  0  0  0  0  0  0  0  0  0  0
  154.0666  139.3330  157.8022 H   0  0  0  0  0  0  0  0  0  0  0  0
  152.7236  138.2597  158.0820 H   0  0  0  0  0  0  0  0  0  0  0  0
  153.0983  141.6098  159.8104 H   0  0  0  0  0  0  0  0  0  0  0  0
  151.5662  143.5211  159.3867 H   0  0  0  0  0  0  0  0  0  0  0  0
  149.8825  143.3304  157.5394 H   0  0  0  0  0  0  0  0  0  0  0  0
  152.3337  140.0297  154.8637 H   0  0  0  0  0  0  0  0  0  0  0  0
  153.1071  138.8590  155.9163 H   0  0  0  0  0  0  0  0  0  0  0  0
  150.9589  138.2384  153.8050 H   0  0  0  0  0  0  0  0  0  0  0  0
  152.6564  137.8065  153.7178 H   0  0  0  0  0  0  0  0  0  0  0  0
  149.5664  137.1272  155.4780 H   0  0  0  0  0  0  0  0  0  0  0  0
  150.3167  135.9391  156.5272 H   0  0  0  0  0  0  0  0  0  0  0  0
  151.6434  137.6779  157.6734 H   0  0  0  0  0  0  0  0  0  0  0  0
  149.9461  138.1318  157.7282 H   0  0  0  0  0  0  0  0  0  0  0  0
  1  2  1  0  0  0  0
  1 22  1  0  0  0  0
  1 23  1  0  0  0  0
  1 24  1  0  0  0  0
  2  3  1  0  0  0  0
  2  4  1  0  0  0  0
  2 25  1  0  0  0  0
  3 26  1  0  0  0  0
  3 27  1  0  0  0  0
  3 28  1  0  0  0  0
  4  5  1  0  0  0  0
  4 29  1  0  0  0  0
  4 30  1  0  0  0  0
  5  6  1  0  0  0  0
  5 31  1  0  0  0  0
  5 32  1  0  0  0  0
  6  7  2  0  0  0  0
  6  8  1  0  0  0  0
  8  9  1  0  0  0  0
  8 33  1  0  0  0  0
  9 10  1  0  0  0  0
  9 34  1  0  0  0  0
  9 35  1  0  0  0  0
 10 15  1  0  0  0  0
 10 11  2  0  0  0  0
 11 12  1  0  0  0  0
 11 36  1  0  0  0  0
 12 13  2  0  0  0  0
 12 37  1  0  0  0  0
 13 14  1  0  0  0  0
 13 38  1  0  0  0  0
 14 15  2  0  0  0  0
 15 16  1  0  0  0  0
 16 21  1  0  0  0  0
 16 17  1  0  0  0  0
 17 18  1  0  0  0  0
 17 39  1  0  0  0  0
 17 40  1  0  0  0  0
 18 19  1  0  0  0  0
 18 41  1  0  0  0  0
 18 42  1  0  0  0  0
 19 20  1  0  0  0  0
 20 21  1  0  0  0  0
 20 43  1  0  0  0  0
 20 44  1  0  0  0  0
 21 45  1  0  0  0  0
 21 46  1  0  0  0  0
M  END
> <s_m_source_file>
AV-unprocessed.smi

> <i_m_source_file_index>
403

> <i_lp_mmshare_version>
43012

> <i_f3d_flags>
0

> <s_epik_input>
W0NIM11bQ0hdKFtDSDNdKVtDSDJdW0NIMl1DKD1PKVtOSF1bQ0gyXWMxW2NIXVtjSF1bY0hdbmMxTjJbQ0gyXVtDSDJdT1tDSDJdW0NIMl0y

> <s_epik_cmdline>
J2VwaWtfcHl0aG9uJywgJy1waCcsICc3LjAnLCAnLXRuJywgJzgnLCAnLW1hJywgJzIwMCcsICctbWV0YWxfYmluZGluZycsICctaW1hZScsICc8aW5maWxlLm1hZT4nLCAnLW9tYWUnLCAnPG91dGZpbGUubWFlPic=

> <r_lp_tautomer_probability>
1

> <r_epik_Ionization_Penalty>
0.00581842

> <r_epik_Ionization_Penalty_Charging>
0

> <r_epik_Ionization_Penalty_Neutral>
0.00581842

> <r_epik_State_Penalty>
0.00427389

> <r_epik_Charging_Adjusted_Penalty>
0.00427389

> <i_epik_Tot_Q>
0

> <i_epik_Tot_abs_Q>
0

> <r_epik_Metal_State_Penalty>
-0

> <b_epik_Metal_Only>
0

> <s_lp_Force_Field>
OPLS_2005

> <r_lp_Energy>
20.7725

> <b_lp_Chiralities_Consistent>
1

> <s_lp_Variant>
AV-unprocessed.smi:403-1

> <Gold.Version>
5.8.1

> <Gold.Id.Protein>
6NUR|6NUR_protein|mol2

> <Gold.PLP.Fitness>
44.5421

> <Gold.PLP.PLP>
-37.0891

> <Gold.PLP.part.hbond>
-2.0000

> <Gold.PLP.part.metal>
0.0000

> <Gold.PLP.part.buried>
-4.2708

> <Gold.PLP.part.nonpolar>
-30.4939

> <Gold.PLP.part.repulsive>
0.2510

> <Gold.PLP.ligand.clash>
0.0000

> <Gold.PLP.ligand.torsion>
0.8662

> <Gold.PLP.Chemscore.Hbond>
2.0000

> <Gold.PLP.Chemscore.CHOScore>
1.0000

> <Gold.PLP.Chemscore.Metal>
0.0000

> <Gold.Chemscore.Hbonds>
donor molecule, donor type, donor heavy atom, donor atom, acceptor molecule, acceptor atom, score
      P1  H  6896  6909       L1     7  0.96
      P1  H 10752 10763       L1    19  1.00
      L1  C    13    38       P1  8028  1.00

> <Gold.PLP.Chemscore.Internal.Correction>
0.1855

> <Gold.Rescore>
     Score         DG    S(hbond)    S(metal)    S(lipo)     H(rot)  DE(clash)    DE(int)     intcor
     17.00     -19.15       1.74        0.00     105.13       1.73       0.20       1.95       ----

> <Gold.Chemscore.Fitness>
17.0030

> <Gold.Chemscore.DG>
-19.1503

> <Gold.Chemscore.ZeroCoef>
-5.4800

> <Gold.Chemscore.Hbond>
1.7397

> <Gold.Chemscore.Metal>
0.0000

> <Gold.Chemscore.Lipo>
105.1330

> <Gold.Chemscore.Internal_Hbond>
0.0000

> <Gold.Chemscore.DEClash>
0.2012

> <Gold.Chemscore.DEInternal>
1.9460

> <Gold.Chemscore.Rot>
1.7347

> <Gold.Chemscore.Internal.Correction>
   9.000000E+99

> <Gold.Chemscore.Hbonds>
donor molecule, donor type, donor heavy atom, donor atom, acceptor molecule, acceptor atom, score
      P1  H  6896  6909       L1     7  0.91
      P1  H 10752 10763       L1    19  0.45

> <Gold.Chemscore.Hbond.Weighted>
-5.8106

> <Gold.Chemscore.Metal.Weighted>
-0.0000

> <Gold.Chemscore.Lipo.Weighted>
-12.3006

> <Gold.Chemscore.Internal_Hbond.Weighted>
0.0000

> <Gold.Chemscore.DEClash.Weighted>
0.2012

> <Gold.Chemscore.DEInternal.Weighted>
1.9460

> <Gold.Chemscore.Rot.Weighted>
4.4409

> <Gold.Chemscore.Internal.Correction.Weighted>
   9.000000E+99

> <Gold.Protein.RotatedTorsions>
[ 6907 6896 6895 6894 ] final  140.80 input  -60.11 | X-H torsion
[ 7974 7965 7964 7962 ] final -141.59 input  175.53 | X-H torsion
[ 8008 7997 7996 7995 ] final  176.51 input   59.86 | X-H torsion
[ 10167 10162 10161 10158 ] final  -81.05 input  -65.29 | X-H torsion
[ 10718 10713 10712 10709 ] final  178.23 input   66.30 | X-H torsion
[ 10763 10752 10751 10750 ] final   56.84 input  -60.55 | X-H torsion
[ 11005 11000 10999 10996 ] final  -11.92 input  -57.11 | X-H torsion

> <Gold.Protein.ActiveResidues>
 VAL166  LYS551  ARG553  GLY616  TRP617  ASP618  TYR619  PRO620  LYS621  CYS622 
 ASP623  PHE694  ASN695  SER759  ASP760  ASP761  ALA762  ILE779  LEU786  VAL792 
 PHE793  MET794  SER795  GLU796  ALA797  LYS798  CYS799  TRP800  GLU811  SER814 

> <Gold.Protein.RotatedAtoms>
  152.2387  133.5117  159.5256 H   0  0  0  0  0  0  0  0  0  0  0  0  # atno 6907 bound_to 6896
  150.7058  134.1119  159.4012 H   0  0  0  0  0  0  0  0  0  0  0  0  # atno 6908 bound_to 6896
  151.9040  135.0366  160.0559 H   0  0  0  0  0  0  0  0  0  0  0  0  # atno 6909 bound_to 6896
  144.8507  140.6061  143.5392 H   0  0  0  0  0  0  0  0  0  0  0  0  # atno 7974 bound_to 7965
  156.0757  140.1382  156.9775 H   0  0  0  0  0  0  0  0  0  0  0  0  # atno 8008 bound_to 7997
  154.4556  140.0962  156.6798 H   0  0  0  0  0  0  0  0  0  0  0  0  # atno 8009 bound_to 7997
  155.5157  140.3455  155.4399 H   0  0  0  0  0  0  0  0  0  0  0  0  # atno 8010 bound_to 7997
  140.4447  143.2503  151.8575 H   0  0  0  0  0  0  0  0  0  0  0  0  # atno 10167 bound_to 10162
  156.8937  130.9856  151.3046 H   0  0  0  0  0  0  0  0  0  0  0  0  # atno 10718 bound_to 10713
  152.9839  135.5662  154.5295 H   0  0  0  0  0  0  0  0  0  0  0  0  # atno 10763 bound_to 10752
  154.4769  135.2787  155.1603 H   0  0  0  0  0  0  0  0  0  0  0  0  # atno 10764 bound_to 10752
  154.3127  135.6285  153.5526 H   0  0  0  0  0  0  0  0  0  0  0  0  # atno 10765 bound_to 10752
  140.7603  133.8520  155.9119 H   0  0  0  0  0  0  0  0  0  0  0  0  # atno 11005 bound_to 11000
  145.4505  139.1524  143.3921 LP  0  0  0  0  0  0  0  0  0  0  0  0  # atno 17320 bound_to 7965
  146.2783  140.4631  142.8787 LP  0  0  0  0  0  0  0  0  0  0  0  0  # atno 17321 bound_to 7965
  139.4792  144.5189  151.8829 LP  0  0  0  0  0  0  0  0  0  0  0  0  # atno 17342 bound_to 10162
  140.4277  144.2157  150.5887 LP  0  0  0  0  0  0  0  0  0  0  0  0  # atno 17343 bound_to 10162
  157.6068  130.8553  149.8888 LP  0  0  0  0  0  0  0  0  0  0  0  0  # atno 17370 bound_to 10713
  156.0616  130.3699  150.0969 LP  0  0  0  0  0  0  0  0  0  0  0  0  # atno 17371 bound_to 10713
  140.9669  134.1582  157.4608 LP  0  0  0  0  0  0  0  0  0  0  0  0  # atno 17394 bound_to 11000
  139.8772  134.9965  156.5797 LP  0  0  0  0  0  0  0  0  0  0  0  0  # atno 17395 bound_to 11000

$$$$
