AV-unprocessed.smi:2736|AV-procd|sdf|10545|dock5
  -GOLD-   2272014593D 1   1.00000     0.00000
 Structure written by MMmdl.
 38 40  0  0  0  0  0  0  0  0  1 V2000
  146.5949  135.2577  162.7937 C   0  0  0  0  0  0  0  0  0  0  0  0
  147.0802  135.0619  161.4148 N   0  0  0  0  0  0  0  0  0  0  0  0
  147.7947  136.0742  160.8298 C   0  0  0  0  0  0  0  0  0  0  0  0
  148.0690  137.1470  161.3678 O   0  0  0  0  0  0  0  0  0  0  0  0
  148.2290  135.7796  159.4623 C   0  0  0  0  0  0  0  0  0  0  0  0
  147.9523  134.6109  158.8357 C   0  0  0  0  0  0  0  0  0  0  0  0
  148.4813  134.5876  157.5502 N   0  0  0  0  0  0  0  0  0  0  0  0
  149.0646  135.7846  157.4690 C   0  0  0  0  0  0  0  0  0  0  0  0
  148.9575  136.5604  158.5676 N   0  0  0  0  0  0  0  0  0  0  0  0
  149.4963  137.9023  158.7344 C   0  0  0  0  0  0  0  0  0  0  0  0
  151.0109  137.9808  158.4513 C   0  0  2  0  0  0  0  0  0  0  0  0
  151.6677  136.8896  159.0697 O   0  0  0  0  0  0  0  0  0  0  0  0
  151.5838  139.3248  158.8953 C   0  0  0  0  0  0  0  0  0  0  0  0
  151.0158  140.5177  158.3907 C   0  0  0  0  0  0  0  0  0  0  0  0
  151.5229  141.7740  158.7719 C   0  0  0  0  0  0  0  0  0  0  0  0
  152.6087  141.8520  159.6618 C   0  0  0  0  0  0  0  0  0  0  0  0
  153.1878  140.6724  160.1641 C   0  0  0  0  0  0  0  0  0  0  0  0
  152.6855  139.4110  159.7850 C   0  0  0  0  0  0  0  0  0  0  0  0
  153.4529  138.0013  160.4274 Cl  0  0  0  0  0  0  0  0  0  0  0  0
  147.2047  133.6279  159.5305 N   0  0  0  0  0  0  0  0  0  0  0  0
  146.9200  132.3780  158.8196 C   0  0  0  0  0  0  0  0  0  0  0  0
  146.7689  133.8532  160.8142 C   0  0  0  0  0  0  0  0  0  0  0  0
  146.1151  132.9973  161.4166 O   0  0  0  0  0  0  0  0  0  0  0  0
  146.8685  136.2115  163.2463 H   0  0  0  0  0  0  0  0  0  0  0  0
  146.9897  134.4809  163.4505 H   0  0  0  0  0  0  0  0  0  0  0  0
  145.5057  135.2012  162.8243 H   0  0  0  0  0  0  0  0  0  0  0  0
  149.5828  136.1098  156.5787 H   0  0  0  0  0  0  0  0  0  0  0  0
  148.9481  138.5829  158.0828 H   0  0  0  0  0  0  0  0  0  0  0  0
  149.2885  138.2289  159.7544 H   0  0  0  0  0  0  0  0  0  0  0  0
  151.1782  137.8451  157.3839 H   0  0  0  0  0  0  0  0  0  0  0  0
  152.5621  137.1396  159.2455 H   0  0  0  0  0  0  0  0  0  0  0  0
  150.1851  140.4747  157.7013 H   0  0  0  0  0  0  0  0  0  0  0  0
  151.0794  142.6775  158.3796 H   0  0  0  0  0  0  0  0  0  0  0  0
  152.9997  142.8148  159.9559 H   0  0  0  0  0  0  0  0  0  0  0  0
  154.0252  140.7364  160.8432 H   0  0  0  0  0  0  0  0  0  0  0  0
  146.3554  131.6471  159.3991 H   0  0  0  0  0  0  0  0  0  0  0  0
  147.8537  131.9010  158.5204 H   0  0  0  0  0  0  0  0  0  0  0  0
  146.3472  132.5871  157.9156 H   0  0  0  0  0  0  0  0  0  0  0  0
  1  2  1  0  0  0  0
  1 24  1  0  0  0  0
  1 25  1  0  0  0  0
  1 26  1  0  0  0  0
  2 22  1  0  0  0  0
  2  3  1  0  0  0  0
  3  4  2  0  0  0  0
  3  5  1  0  0  0  0
  5  9  1  0  0  0  0
  5  6  2  0  0  0  0
  6  7  1  0  0  0  0
  6 20  1  0  0  0  0
  7  8  2  0  0  0  0
  8  9  1  0  0  0  0
  8 27  1  0  0  0  0
  9 10  1  0  0  0  0
 10 11  1  0  0  0  0
 10 28  1  0  0  0  0
 10 29  1  0  0  0  0
 11 12  1  0  0  0  0
 11 13  1  0  0  0  0
 11 30  1  0  0  0  0
 12 31  1  0  0  0  0
 13 18  1  0  0  0  0
 13 14  2  0  0  0  0
 14 15  1  0  0  0  0
 14 32  1  0  0  0  0
 15 16  2  0  0  0  0
 15 33  1  0  0  0  0
 16 17  1  0  0  0  0
 16 34  1  0  0  0  0
 17 18  2  0  0  0  0
 17 35  1  0  0  0  0
 18 19  1  0  0  0  0
 20 21  1  0  0  0  0
 20 22  1  0  0  0  0
 21 36  1  0  0  0  0
 21 37  1  0  0  0  0
 21 38  1  0  0  0  0
 22 23  2  0  0  0  0
M  END
> <s_m_source_file>
AV-unprocessed.smi

> <i_m_source_file_index>
2736

> <i_lp_mmshare_version>
43012

> <i_f3d_flags>
0

> <s_epik_input>
Tz1jMW4oW0NIM10pYyg9TyluKFtDSDNdKWMoYzEyKW5bY0hdbjJbQ0gyXVtDQEhdKFtPSF0pYzNbY0hdW2NIXVtjSF1bY0hdYzNDbA==

> <s_epik_cmdline>
J2VwaWtfcHl0aG9uJywgJy1waCcsICc3LjAnLCAnLXRuJywgJzgnLCAnLW1hJywgJzIwMCcsICctbWV0YWxfYmluZGluZycsICctaW1hZScsICc8aW5maWxlLm1hZT4nLCAnLW9tYWUnLCAnPG91dGZpbGUubWFlPic=

> <r_lp_tautomer_probability>
1

> <r_epik_Ionization_Penalty>
1.63404e-06

> <r_epik_Ionization_Penalty_Charging>
3.74189e-09

> <r_epik_Ionization_Penalty_Neutral>
1.63029e-06

> <r_epik_State_Penalty>
-0

> <r_epik_Charging_Adjusted_Penalty>
3.74189e-09

> <i_epik_Tot_Q>
0

> <i_epik_Tot_abs_Q>
0

> <r_epik_Metal_State_Penalty>
-0

> <b_epik_Metal_Only>
0

> <s_lp_Force_Field>
OPLS_2005

> <r_lp_Energy>
36.4155

> <b_lp_Chiralities_Consistent>
1

> <s_lp_Variant>
AV-unprocessed.smi:2736-1

> <Gold.Version>
5.8.1

> <Gold.Id.Protein>
6NUR|6NUR_protein|mol2

> <Gold.PLP.Fitness>
43.5503

> <Gold.PLP.PLP>
-36.0181

> <Gold.PLP.part.hbond>
-2.8012

> <Gold.PLP.part.metal>
0.0000

> <Gold.PLP.part.buried>
-4.6924

> <Gold.PLP.part.nonpolar>
-28.6640

> <Gold.PLP.part.repulsive>
0.0179

> <Gold.PLP.ligand.clash>
0.0000

> <Gold.PLP.ligand.torsion>
0.1470

> <Gold.PLP.Chemscore.Hbond>
2.6032

> <Gold.PLP.Chemscore.CHOScore>
0.0000

> <Gold.PLP.Chemscore.Metal>
0.0000

> <Gold.Chemscore.Hbonds>
donor molecule, donor type, donor heavy atom, donor atom, acceptor molecule, acceptor atom, score
      P1  H  6896  6907       L1    12  1.00
      P1  H  6931  6943       L1     4  1.00
      P1  H  6934  6947       L1     4  0.52

> <Gold.PLP.Chemscore.Internal.Correction>
0.0166

> <Gold.Rescore>
     Score         DG    S(hbond)    S(metal)    S(lipo)     H(rot)  DE(clash)    DE(int)     intcor
     15.00     -16.95       2.64        0.00      69.70       2.15       0.09       1.86       ----

> <Gold.Chemscore.Fitness>
15.0001

> <Gold.Chemscore.DG>
-16.9473

> <Gold.Chemscore.ZeroCoef>
-5.4800

> <Gold.Chemscore.Hbond>
2.6378

> <Gold.Chemscore.Metal>
0.0000

> <Gold.Chemscore.Lipo>
69.6959

> <Gold.Chemscore.Internal_Hbond>
0.0000

> <Gold.Chemscore.DEClash>
0.0906

> <Gold.Chemscore.DEInternal>
1.8566

> <Gold.Chemscore.Rot>
2.1474

> <Gold.Chemscore.Internal.Correction>
   9.000000E+99

> <Gold.Chemscore.Hbonds>
donor molecule, donor type, donor heavy atom, donor atom, acceptor molecule, acceptor atom, score
      P1  H  6896  6907       L1    12  0.38
      P1  H  6931  6943       L1     4  0.95
      P1  H  6934  6947       L1     4  0.52

> <Gold.Chemscore.Hbond.Weighted>
-8.8102

> <Gold.Chemscore.Metal.Weighted>
-0.0000

> <Gold.Chemscore.Lipo.Weighted>
-8.1544

> <Gold.Chemscore.Internal_Hbond.Weighted>
0.0000

> <Gold.Chemscore.DEClash.Weighted>
0.0906

> <Gold.Chemscore.DEInternal.Weighted>
1.8566

> <Gold.Chemscore.Rot.Weighted>
5.4974

> <Gold.Chemscore.Internal.Correction.Weighted>
   9.000000E+99

> <Gold.Protein.RotatedTorsions>
[ 6907 6896 6895 6894 ] final   -4.47 input  -60.11 | X-H torsion
[ 7974 7965 7964 7962 ] final   94.55 input  175.53 | X-H torsion
[ 8008 7997 7996 7995 ] final  148.16 input   59.86 | X-H torsion
[ 10167 10162 10161 10158 ] final   73.72 input  -65.29 | X-H torsion
[ 10718 10713 10712 10709 ] final -145.90 input   66.30 | X-H torsion
[ 10763 10752 10751 10750 ] final  175.88 input  -60.55 | X-H torsion
[ 11005 11000 10999 10996 ] final -171.63 input  -57.11 | X-H torsion

> <Gold.Protein.ActiveResidues>
 VAL166  LYS551  ARG553  GLY616  TRP617  ASP618  TYR619  PRO620  LYS621  CYS622 
 ASP623  PHE694  ASN695  SER759  ASP760  ASP761  ALA762  ILE779  LEU786  VAL792 
 PHE793  MET794  SER795  GLU796  ALA797  LYS798  CYS799  TRP800  GLU811  SER814 

> <Gold.Protein.RotatedAtoms>
  151.4971  135.1060  159.9818 H   0  0  0  0  0  0  0  0  0  0  0  0  # atno 6907 bound_to 6896
  152.4717  133.8041  159.6979 H   0  0  0  0  0  0  0  0  0  0  0  0  # atno 6908 bound_to 6896
  150.8730  133.7415  159.2981 H   0  0  0  0  0  0  0  0  0  0  0  0  # atno 6909 bound_to 6896
  145.4640  139.2285  143.2972 H   0  0  0  0  0  0  0  0  0  0  0  0  # atno 7974 bound_to 7965
  156.2801  140.2136  156.5653 H   0  0  0  0  0  0  0  0  0  0  0  0  # atno 8008 bound_to 7997
  154.7179  140.0506  157.0635 H   0  0  0  0  0  0  0  0  0  0  0  0  # atno 8009 bound_to 7997
  155.0517  140.3157  155.4693 H   0  0  0  0  0  0  0  0  0  0  0  0  # atno 8010 bound_to 7997
  140.0214  144.5537  150.7578 H   0  0  0  0  0  0  0  0  0  0  0  0  # atno 10167 bound_to 10162
  156.3883  130.7872  151.2072 H   0  0  0  0  0  0  0  0  0  0  0  0  # atno 10718 bound_to 10713
  154.4736  135.2772  155.1624 H   0  0  0  0  0  0  0  0  0  0  0  0  # atno 10763 bound_to 10752
  154.3362  135.6179  153.5578 H   0  0  0  0  0  0  0  0  0  0  0  0  # atno 10764 bound_to 10752
  152.9867  135.5777  154.5123 H   0  0  0  0  0  0  0  0  0  0  0  0  # atno 10765 bound_to 10752
  140.5061  134.5847  157.5004 H   0  0  0  0  0  0  0  0  0  0  0  0  # atno 11005 bound_to 11000
  146.2435  140.5412  142.8924 LP  0  0  0  0  0  0  0  0  0  0  0  0  # atno 17320 bound_to 7965
  144.7985  140.6169  143.6494 LP  0  0  0  0  0  0  0  0  0  0  0  0  # atno 17321 bound_to 7965
  140.7341  143.2724  151.3846 LP  0  0  0  0  0  0  0  0  0  0  0  0  # atno 17342 bound_to 10162
  139.6137  144.1046  152.2324 LP  0  0  0  0  0  0  0  0  0  0  0  0  # atno 17343 bound_to 10162
  157.7497  131.0323  150.4222 LP  0  0  0  0  0  0  0  0  0  0  0  0  # atno 17370 bound_to 10713
  156.4478  130.4005  149.6655 LP  0  0  0  0  0  0  0  0  0  0  0  0  # atno 17371 bound_to 10713
  139.9685  134.7332  156.0089 LP  0  0  0  0  0  0  0  0  0  0  0  0  # atno 17394 bound_to 11000
  141.1410  133.6565  156.3730 LP  0  0  0  0  0  0  0  0  0  0  0  0  # atno 17395 bound_to 11000

$$$$
