AV-unprocessed.smi:1971|AV-procd|sdf|7967|dock8
  -GOLD-   2272010143D 1   1.00000     0.00000
 Structure written by MMmdl.
 43 44  0  0  0  0  0  0  0  0  1 V2000
  152.3273  142.7854  159.5582 C   0  0  0  0  0  0  0  0  0  0  0  0
  151.6399  143.1130  158.2252 C   0  0  0  0  0  0  0  0  0  0  0  0
  151.0675  141.9631  157.5272 N   0  0  0  0  0  0  0  0  0  0  0  0
  150.7144  142.3121  156.1532 C   0  0  0  0  0  0  0  0  0  0  0  0
  150.0983  141.1192  155.4002 C   0  0  0  0  0  0  0  0  0  0  0  0
  151.0123  139.9707  155.3454 N   0  0  0  0  0  0  0  0  0  0  0  0
  150.4439  138.8243  154.6042 C   0  0  1  0  0  0  0  0  0  0  0  0
  151.2987  137.5411  154.7091 C   0  0  0  0  0  0  0  0  0  0  0  0
  148.9941  138.4683  155.0166 C   0  0  0  0  0  0  0  0  0  0  0  0
  148.3381  137.6399  154.0112 N   0  0  0  0  0  0  0  0  0  0  0  0
  147.0822  137.1857  154.1027 C   0  0  0  0  0  0  0  0  0  0  0  0
  146.3347  137.4456  155.0461 O   0  0  0  0  0  0  0  0  0  0  0  0
  146.7655  136.4182  153.0454 N   0  0  0  0  0  0  0  0  0  0  0  0
  145.5408  135.7521  152.7789 C   0  0  0  0  0  0  0  0  0  0  0  0
  144.7425  135.2344  153.7198 N   0  0  0  0  0  0  0  0  0  0  0  0
  143.6033  134.6395  153.1715 C   0  0  0  0  0  0  0  0  0  0  0  0
  143.5508  134.7130  151.8018 C   0  0  0  0  0  0  0  0  0  0  0  0
  144.9363  135.5407  151.1423 S   0  0  0  0  0  0  0  0  0  0  0  0
  151.3696  139.6287  156.7292 C   0  0  0  0  0  0  0  0  0  0  0  0
  151.9838  140.8233  157.4819 C   0  0  0  0  0  0  0  0  0  0  0  0
  152.6399  143.7001  160.0619 H   0  0  0  0  0  0  0  0  0  0  0  0
  153.2182  142.1734  159.4188 H   0  0  0  0  0  0  0  0  0  0  0  0
  151.6522  142.2534  160.2287 H   0  0  0  0  0  0  0  0  0  0  0  0
  150.8436  143.8281  158.4359 H   0  0  0  0  0  0  0  0  0  0  0  0
  152.3425  143.6321  157.5715 H   0  0  0  0  0  0  0  0  0  0  0  0
  150.0022  143.1378  156.1552 H   0  0  0  0  0  0  0  0  0  0  0  0
  151.5974  142.6645  155.6175 H   0  0  0  0  0  0  0  0  0  0  0  0
  149.1583  140.8288  155.8725 H   0  0  0  0  0  0  0  0  0  0  0  0
  149.8541  141.4614  154.3961 H   0  0  0  0  0  0  0  0  0  0  0  0
  150.4086  139.0901  153.5465 H   0  0  0  0  0  0  0  0  0  0  0  0
  150.7967  136.6927  154.2433 H   0  0  0  0  0  0  0  0  0  0  0  0
  151.4969  137.2755  155.7481 H   0  0  0  0  0  0  0  0  0  0  0  0
  152.2557  137.6422  154.1984 H   0  0  0  0  0  0  0  0  0  0  0  0
  148.9734  137.9572  155.9794 H   0  0  0  0  0  0  0  0  0  0  0  0
  148.4131  139.3803  155.1635 H   0  0  0  0  0  0  0  0  0  0  0  0
  148.8898  137.3789  153.2070 H   0  0  0  0  0  0  0  0  0  0  0  0
  147.4892  136.2870  152.3542 H   0  0  0  0  0  0  0  0  0  0  0  0
  142.8789  134.1858  153.8314 H   0  0  0  0  0  0  0  0  0  0  0  0
  142.7838  134.3330  151.1436 H   0  0  0  0  0  0  0  0  0  0  0  0
  150.4905  139.2668  157.2649 H   0  0  0  0  0  0  0  0  0  0  0  0
  152.1020  138.8234  156.7473 H   0  0  0  0  0  0  0  0  0  0  0  0
  152.9212  141.1136  157.0048 H   0  0  0  0  0  0  0  0  0  0  0  0
  152.2341  140.5019  158.4924 H   0  0  0  0  0  0  0  0  0  0  0  0
  1  2  1  0  0  0  0
  1 21  1  0  0  0  0
  1 22  1  0  0  0  0
  1 23  1  0  0  0  0
  2  3  1  0  0  0  0
  2 24  1  0  0  0  0
  2 25  1  0  0  0  0
  3 20  1  0  0  0  0
  3  4  1  0  0  0  0
  4  5  1  0  0  0  0
  4 26  1  0  0  0  0
  4 27  1  0  0  0  0
  5  6  1  0  0  0  0
  5 28  1  0  0  0  0
  5 29  1  0  0  0  0
  6  7  1  0  0  0  0
  6 19  1  0  0  0  0
  7  8  1  0  0  0  0
  7  9  1  0  0  0  0
  7 30  1  0  0  0  0
  8 31  1  0  0  0  0
  8 32  1  0  0  0  0
  8 33  1  0  0  0  0
  9 10  1  0  0  0  0
  9 34  1  0  0  0  0
  9 35  1  0  0  0  0
 10 11  1  0  0  0  0
 10 36  1  0  0  0  0
 11 12  2  0  0  0  0
 11 13  1  0  0  0  0
 13 14  1  0  0  0  0
 13 37  1  0  0  0  0
 14 18  1  0  0  0  0
 14 15  2  0  0  0  0
 15 16  1  0  0  0  0
 16 17  2  0  0  0  0
 16 38  1  0  0  0  0
 17 18  1  0  0  0  0
 17 39  1  0  0  0  0
 19 20  1  0  0  0  0
 19 40  1  0  0  0  0
 19 41  1  0  0  0  0
 20 42  1  0  0  0  0
 20 43  1  0  0  0  0
M  END
> <s_m_source_file>
AV-unprocessed.smi

> <i_m_source_file_index>
1971

> <i_lp_mmshare_version>
43012

> <i_f3d_flags>
0

> <s_epik_input>
W0NIM11bQ0gyXU4xW0NIMl1bQ0gyXU4oW0NIMl1bQ0gyXTEpW0NASF0oW0NIM10pW0NIMl1bTkhdQyg9TylbTkhdYzJuW2NIXVtjSF1zMg==

> <s_epik_cmdline>
J2VwaWtfcHl0aG9uJywgJy1waCcsICc3LjAnLCAnLXRuJywgJzgnLCAnLW1hJywgJzIwMCcsICctbWV0YWxfYmluZGluZycsICctaW1hZScsICc8aW5maWxlLm1hZT4nLCAnLW9tYWUnLCAnPG91dGZpbGUubWFlPic=

> <r_lp_tautomer_probability>
0.999

> <r_epik_Ionization_Penalty>
2.43994

> <r_epik_Ionization_Penalty_Charging>
0

> <r_epik_Ionization_Penalty_Neutral>
2.43994

> <r_epik_State_Penalty>
1.7682

> <r_epik_Charging_Adjusted_Penalty>
1.7682

> <i_epik_Tot_Q>
0

> <i_epik_Tot_abs_Q>
0

> <r_epik_Metal_State_Penalty>
1.80147

> <b_epik_Metal_Only>
0

> <s_lp_Force_Field>
OPLS_2005

> <r_lp_Energy>
42.8393

> <b_lp_Chiralities_Consistent>
1

> <s_lp_Variant>
AV-unprocessed.smi:1971-6

> <Gold.Version>
5.8.1

> <Gold.Id.Protein>
6NUR|6NUR_protein|mol2

> <Gold.PLP.Fitness>
40.1488

> <Gold.PLP.PLP>
-29.5630

> <Gold.PLP.part.hbond>
-2.6355

> <Gold.PLP.part.metal>
0.0000

> <Gold.PLP.part.buried>
-2.9774

> <Gold.PLP.part.nonpolar>
-25.3622

> <Gold.PLP.part.repulsive>
0.1907

> <Gold.PLP.ligand.clash>
0.0000

> <Gold.PLP.ligand.torsion>
0.5556

> <Gold.PLP.Chemscore.Hbond>
1.9786

> <Gold.PLP.Chemscore.CHOScore>
1.9025

> <Gold.PLP.Chemscore.Metal>
0.0000

> <Gold.Chemscore.Hbonds>
donor molecule, donor type, donor heavy atom, donor atom, acceptor molecule, acceptor atom, score
      L1  H    10    36       P1  7948  0.88
      L1  H    13    37       P1  7948  1.00
      P1  H  7989  7998       L1     6  0.06
      L1  C    16    38       P1 10957  0.81
      L1  C    17    39       P1 10186  0.92

> <Gold.PLP.Chemscore.Internal.Correction>
0.0537

> <Gold.Rescore>
     Score         DG    S(hbond)    S(metal)    S(lipo)     H(rot)  DE(clash)    DE(int)     intcor
     15.63     -17.06       1.94        0.00      81.91       1.75       0.04       1.38       ----

> <Gold.Chemscore.Fitness>
15.6322

> <Gold.Chemscore.DG>
-17.0562

> <Gold.Chemscore.ZeroCoef>
-5.4800

> <Gold.Chemscore.Hbond>
1.9357

> <Gold.Chemscore.Metal>
0.0000

> <Gold.Chemscore.Lipo>
81.9147

> <Gold.Chemscore.Internal_Hbond>
0.0000

> <Gold.Chemscore.DEClash>
0.0440

> <Gold.Chemscore.DEInternal>
1.3800

> <Gold.Chemscore.Rot>
1.7473

> <Gold.Chemscore.Internal.Correction>
   9.000000E+99

> <Gold.Chemscore.Hbonds>
donor molecule, donor type, donor heavy atom, donor atom, acceptor molecule, acceptor atom, score
      L1  H    10    36       P1  7948  0.87
      L1  H    13    37       P1  7948  0.92

> <Gold.Chemscore.Hbond.Weighted>
-6.4653

> <Gold.Chemscore.Metal.Weighted>
-0.0000

> <Gold.Chemscore.Lipo.Weighted>
-9.5840

> <Gold.Chemscore.Internal_Hbond.Weighted>
0.0000

> <Gold.Chemscore.DEClash.Weighted>
0.0440

> <Gold.Chemscore.DEInternal.Weighted>
1.3800

> <Gold.Chemscore.Rot.Weighted>
4.4731

> <Gold.Chemscore.Internal.Correction.Weighted>
   9.000000E+99

> <Gold.Protein.RotatedTorsions>
[ 6907 6896 6895 6894 ] final  -92.93 input  -60.11 | X-H torsion
[ 7974 7965 7964 7962 ] final   46.29 input  175.53 | X-H torsion
[ 8008 7997 7996 7995 ] final  -89.80 input   59.86 | X-H torsion
[ 10167 10162 10161 10158 ] final  136.59 input  -65.29 | X-H torsion
[ 10718 10713 10712 10709 ] final  148.48 input   66.30 | X-H torsion
[ 10763 10752 10751 10750 ] final   72.61 input  -60.55 | X-H torsion
[ 11005 11000 10999 10996 ] final  -30.86 input  -57.11 | X-H torsion

> <Gold.Protein.ActiveResidues>
 VAL166  LYS551  ARG553  GLY616  TRP617  ASP618  TYR619  PRO620  LYS621  CYS622 
 ASP623  PHE694  ASN695  SER759  ASP760  ASP761  ALA762  ILE779  LEU786  VAL792 
 PHE793  MET794  SER795  GLU796  ALA797  LYS798  CYS799  TRP800  GLU811  SER814 

> <Gold.Protein.RotatedAtoms>
  150.6914  134.2046  159.4335 H   0  0  0  0  0  0  0  0  0  0  0  0  # atno 6907 bound_to 6896
  152.0011  134.9925  160.0574 H   0  0  0  0  0  0  0  0  0  0  0  0  # atno 6908 bound_to 6896
  152.1578  133.4527  159.4882 H   0  0  0  0  0  0  0  0  0  0  0  0  # atno 6909 bound_to 6896
  146.0403  139.4871  142.9782 H   0  0  0  0  0  0  0  0  0  0  0  0  # atno 7974 bound_to 7965
  154.6909  140.0537  157.0362 H   0  0  0  0  0  0  0  0  0  0  0  0  # atno 8008 bound_to 7997
  155.0819  140.3210  155.4580 H   0  0  0  0  0  0  0  0  0  0  0  0  # atno 8009 bound_to 7997
  156.2728  140.2063  156.5946 H   0  0  0  0  0  0  0  0  0  0  0  0  # atno 8010 bound_to 7997
  139.5174  144.6456  151.5449 H   0  0  0  0  0  0  0  0  0  0  0  0  # atno 10167 bound_to 10162
  157.3081  131.0883  151.1338 H   0  0  0  0  0  0  0  0  0  0  0  0  # atno 10718 bound_to 10713
  153.0469  135.5093  154.7769 H   0  0  0  0  0  0  0  0  0  0  0  0  # atno 10763 bound_to 10752
  154.6662  135.2946  154.9804 H   0  0  0  0  0  0  0  0  0  0  0  0  # atno 10764 bound_to 10752
  154.0638  135.6687  153.4868 H   0  0  0  0  0  0  0  0  0  0  0  0  # atno 10765 bound_to 10752
  140.9419  133.7274  156.1088 H   0  0  0  0  0  0  0  0  0  0  0  0  # atno 11005 bound_to 11000
  145.6896  141.0168  143.1562 LP  0  0  0  0  0  0  0  0  0  0  0  0  # atno 17320 bound_to 7965
  144.7071  139.8517  143.7426 LP  0  0  0  0  0  0  0  0  0  0  0  0  # atno 17321 bound_to 7965
  140.6240  143.9205  150.6549 LP  0  0  0  0  0  0  0  0  0  0  0  0  # atno 17342 bound_to 10162
  140.2487  143.3609  152.1424 LP  0  0  0  0  0  0  0  0  0  0  0  0  # atno 17343 bound_to 10162
  157.2671  130.6686  149.6002 LP  0  0  0  0  0  0  0  0  0  0  0  0  # atno 17370 bound_to 10713
  155.9676  130.4490  150.5643 LP  0  0  0  0  0  0  0  0  0  0  0  0  # atno 17371 bound_to 10713
  140.7723  134.3819  157.5505 LP  0  0  0  0  0  0  0  0  0  0  0  0  # atno 17394 bound_to 11000
  139.8822  134.9030  156.2844 LP  0  0  0  0  0  0  0  0  0  0  0  0  # atno 17395 bound_to 11000

$$$$
