AV-unprocessed.smi:528|AV-procd|sdf|2838|dock10
  -GOLD-   2262023333D 1   1.00000     0.00000
 Structure written by MMmdl.
 45 47  0  0  0  0  0  0  0  0  1 V2000
  150.4493  139.0157  158.2747 C   0  0  0  0  0  0  0  0  0  0  0  0
  149.5521  138.2619  157.2778 C   0  0  1  0  0  0  0  0  0  0  0  0
  148.3835  137.7313  157.9760 N   0  0  0  0  0  0  0  0  0  0  0  0
  148.1767  136.4420  158.2838 C   0  0  0  0  0  0  0  0  0  0  0  0
  148.9846  135.5478  158.0280 O   0  0  0  0  0  0  0  0  0  0  0  0
  146.8567  136.1326  159.0047 C   0  0  0  0  0  0  0  0  0  0  0  0
  147.0344  135.3992  160.2692 N   0  0  0  0  0  0  0  0  0  0  0  0
  146.8026  134.0099  160.2425 C   0  0  0  0  0  0  0  0  0  0  0  0
  146.9436  133.2219  161.3255 C   0  0  0  0  0  0  0  0  0  0  0  0
  146.6302  131.7345  161.2767 C   0  0  0  0  0  0  0  0  0  0  0  0
  145.5673  131.4414  162.0261 F   0  0  0  0  0  0  0  0  0  0  0  0
  146.3856  131.3352  160.0282 F   0  0  0  0  0  0  0  0  0  0  0  0
  147.6682  131.0385  161.7383 F   0  0  0  0  0  0  0  0  0  0  0  0
  147.3221  133.8829  162.5593 C   0  0  0  0  0  0  0  0  0  0  0  0
  147.5362  135.2125  162.6049 C   0  0  0  0  0  0  0  0  0  0  0  0
  147.3968  136.0532  161.4136 C   0  0  0  0  0  0  0  0  0  0  0  0
  147.5924  137.2688  161.4421 O   0  0  0  0  0  0  0  0  0  0  0  0
  149.0950  139.1665  156.1092 C   0  0  1  0  0  0  0  0  0  0  0  0
  148.6692  140.5943  156.5197 C   0  0  0  0  0  0  0  0  0  0  0  0
  149.4559  141.4860  155.5408 C   0  0  1  0  0  0  0  0  0  0  0  0
  150.9377  141.5039  155.9577 C   0  0  0  0  0  0  0  0  0  0  0  0
  151.4171  140.0963  155.5596 C   0  0  0  0  0  0  0  0  0  0  0  0
  150.1371  139.4452  154.9958 C   0  0  2  0  0  0  0  0  0  0  0  0
  149.4946  140.6295  154.2804 C   0  0  0  0  0  0  0  0  0  0  0  0
  151.3448  139.4030  157.7889 H   0  0  0  0  0  0  0  0  0  0  0  0
  150.7775  138.3610  159.0824 H   0  0  0  0  0  0  0  0  0  0  0  0
  149.9239  139.8592  158.7237 H   0  0  0  0  0  0  0  0  0  0  0  0
  150.1326  137.4332  156.8701 H   0  0  0  0  0  0  0  0  0  0  0  0
  147.6675  138.3968  158.2294 H   0  0  0  0  0  0  0  0  0  0  0  0
  146.3365  137.0756  159.1794 H   0  0  0  0  0  0  0  0  0  0  0  0
  146.2051  135.5683  158.3349 H   0  0  0  0  0  0  0  0  0  0  0  0
  146.4923  133.6246  159.2820 H   0  0  0  0  0  0  0  0  0  0  0  0
  147.4396  133.3021  163.4623 H   0  0  0  0  0  0  0  0  0  0  0  0
  147.8186  135.6710  163.5413 H   0  0  0  0  0  0  0  0  0  0  0  0
  148.2392  138.6838  155.6334 H   0  0  0  0  0  0  0  0  0  0  0  0
  147.5939  140.7237  156.3910 H   0  0  0  0  0  0  0  0  0  0  0  0
  148.9076  140.8305  157.5576 H   0  0  0  0  0  0  0  0  0  0  0  0
  149.0261  142.4797  155.4122 H   0  0  0  0  0  0  0  0  0  0  0  0
  151.4890  142.2664  155.4060 H   0  0  0  0  0  0  0  0  0  0  0  0
  151.0665  141.7022  157.0224 H   0  0  0  0  0  0  0  0  0  0  0  0
  152.1813  140.1643  154.7842 H   0  0  0  0  0  0  0  0  0  0  0  0
  151.8534  139.5458  156.3924 H   0  0  0  0  0  0  0  0  0  0  0  0
  150.3333  138.5852  154.3548 H   0  0  0  0  0  0  0  0  0  0  0  0
  148.5051  140.4098  153.8755 H   0  0  0  0  0  0  0  0  0  0  0  0
  150.1191  141.0501  153.4902 H   0  0  0  0  0  0  0  0  0  0  0  0
  1  2  1  0  0  0  0
  1 25  1  0  0  0  0
  1 26  1  0  0  0  0
  1 27  1  0  0  0  0
  2  3  1  0  0  0  0
  2 18  1  0  0  0  0
  2 28  1  0  0  0  0
  3  4  1  0  0  0  0
  3 29  1  0  0  0  0
  4  5  2  0  0  0  0
  4  6  1  0  0  0  0
  6  7  1  0  0  0  0
  6 30  1  0  0  0  0
  6 31  1  0  0  0  0
  7 16  1  0  0  0  0
  7  8  1  0  0  0  0
  8  9  2  0  0  0  0
  8 32  1  0  0  0  0
  9 10  1  0  0  0  0
  9 14  1  0  0  0  0
 10 11  1  0  0  0  0
 10 12  1  0  0  0  0
 10 13  1  0  0  0  0
 14 15  2  0  0  0  0
 14 33  1  0  0  0  0
 15 16  1  0  0  0  0
 15 34  1  0  0  0  0
 16 17  2  0  0  0  0
 18 23  1  0  0  0  0
 18 19  1  0  0  0  0
 18 35  1  0  0  0  0
 19 20  1  0  0  0  0
 19 36  1  0  0  0  0
 19 37  1  0  0  0  0
 20 24  1  0  0  0  0
 20 21  1  0  0  0  0
 20 38  1  0  0  0  0
 21 22  1  0  0  0  0
 21 39  1  0  0  0  0
 21 40  1  0  0  0  0
 22 23  1  0  0  0  0
 22 41  1  0  0  0  0
 22 42  1  0  0  0  0
 23 24  1  0  0  0  0
 23 43  1  0  0  0  0
 24 44  1  0  0  0  0
 24 45  1  0  0  0  0
M  END
> <s_m_source_file>
AV-unprocessed.smi

> <i_m_source_file_index>
528

> <i_lp_mmshare_version>
43012

> <i_f3d_flags>
0

> <s_epik_input>
W0NIMl0xW0NIMl1bQ0BASF0oW0NIMl0yKVtDQEBIXShbQ0gyXVtDQEhdMTIpW0NASF0oW0NIM10pW05IXUMoPU8pW0NIMl1uM1tjSF1jKEMoRikoRilGKVtjSF1bY0hdYzM9Tw==

> <s_epik_cmdline>
J2VwaWtfcHl0aG9uJywgJy1waCcsICc3LjAnLCAnLXRuJywgJzgnLCAnLW1hJywgJzIwMCcsICctbWV0YWxfYmluZGluZycsICctaW1hZScsICc8aW5maWxlLm1hZT4nLCAnLW9tYWUnLCAnPG91dGZpbGUubWFlPic=

> <r_lp_tautomer_probability>
1

> <r_epik_Ionization_Penalty>
4.09479e-08

> <r_epik_Ionization_Penalty_Charging>
1.9321e-08

> <r_epik_Ionization_Penalty_Neutral>
2.16269e-08

> <r_epik_State_Penalty>
-0

> <r_epik_Charging_Adjusted_Penalty>
1.9321e-08

> <i_epik_Tot_Q>
0

> <i_epik_Tot_abs_Q>
0

> <r_epik_Metal_State_Penalty>
-0

> <b_epik_Metal_Only>
0

> <s_lp_Force_Field>
OPLS_2005

> <r_lp_Energy>
62.533

> <b_lp_Chiralities_Consistent>
1

> <s_lp_Variant>
AV-unprocessed.smi:528-8

> <Gold.Version>
5.8.1

> <Gold.Id.Protein>
6NUR|6NUR_protein|mol2

> <Gold.PLP.Fitness>
43.1852

> <Gold.PLP.PLP>
-37.5322

> <Gold.PLP.part.hbond>
-3.0000

> <Gold.PLP.part.metal>
0.0000

> <Gold.PLP.part.buried>
-1.4428

> <Gold.PLP.part.nonpolar>
-33.4176

> <Gold.PLP.part.repulsive>
0.0888

> <Gold.PLP.ligand.clash>
1.2492

> <Gold.PLP.ligand.torsion>
0.8635

> <Gold.PLP.Chemscore.Hbond>
2.8560

> <Gold.PLP.Chemscore.CHOScore>
0.0000

> <Gold.PLP.Chemscore.Metal>
0.0000

> <Gold.Chemscore.Hbonds>
donor molecule, donor type, donor heavy atom, donor atom, acceptor molecule, acceptor atom, score
      P1  H  6931  6943       L1    17  0.93
      P1  H  6934  6947       L1    17  0.82

> <Gold.PLP.Chemscore.Internal.Correction>
0.0611

> <Gold.Rescore>
     Score         DG    S(hbond)    S(metal)    S(lipo)     H(rot)  DE(clash)    DE(int)     intcor
     18.72     -20.11       2.76        0.00      83.57       1.71       0.25       1.13       ----

> <Gold.Chemscore.Fitness>
18.7235

> <Gold.Chemscore.DG>
-20.1057

> <Gold.Chemscore.ZeroCoef>
-5.4800

> <Gold.Chemscore.Hbond>
2.7639

> <Gold.Chemscore.Metal>
0.0000

> <Gold.Chemscore.Lipo>
83.5750

> <Gold.Chemscore.Internal_Hbond>
0.0000

> <Gold.Chemscore.DEClash>
0.2531

> <Gold.Chemscore.DEInternal>
1.1291

> <Gold.Chemscore.Rot>
1.7125

> <Gold.Chemscore.Internal.Correction>
   9.000000E+99

> <Gold.Chemscore.Hbonds>
donor molecule, donor type, donor heavy atom, donor atom, acceptor molecule, acceptor atom, score
      P1  H  6896  6908       L1     5  0.03
      P1  H  6931  6943       L1    17  0.90
      P1  H  6934  6947       L1    17  0.81

> <Gold.Chemscore.Hbond.Weighted>
-9.2314

> <Gold.Chemscore.Metal.Weighted>
-0.0000

> <Gold.Chemscore.Lipo.Weighted>
-9.7783

> <Gold.Chemscore.Internal_Hbond.Weighted>
0.0000

> <Gold.Chemscore.DEClash.Weighted>
0.2531

> <Gold.Chemscore.DEInternal.Weighted>
1.1291

> <Gold.Chemscore.Rot.Weighted>
4.3840

> <Gold.Chemscore.Internal.Correction.Weighted>
   9.000000E+99

> <Gold.Protein.RotatedTorsions>
[ 6907 6896 6895 6894 ] final  168.27 input  -60.11 | X-H torsion
[ 7974 7965 7964 7962 ] final  123.76 input  175.53 | X-H torsion
[ 8008 7997 7996 7995 ] final   96.19 input   59.86 | X-H torsion
[ 10167 10162 10161 10158 ] final -176.45 input  -65.29 | X-H torsion
[ 10718 10713 10712 10709 ] final -103.11 input   66.30 | X-H torsion
[ 10763 10752 10751 10750 ] final -174.65 input  -60.55 | X-H torsion
[ 11005 11000 10999 10996 ] final   95.86 input  -57.11 | X-H torsion

> <Gold.Protein.ActiveResidues>
 VAL166  LYS551  ARG553  GLY616  TRP617  ASP618  TYR619  PRO620  LYS621  CYS622 
 ASP623  PHE694  ASN695  SER759  ASP760  ASP761  ALA762  ILE779  LEU786  VAL792 
 PHE793  MET794  SER795  GLU796  ALA797  LYS798  CYS799  TRP800  GLU811  SER814 

> <Gold.Protein.RotatedAtoms>
  151.8502  133.3438  159.3670 H   0  0  0  0  0  0  0  0  0  0  0  0  # atno 6907 bound_to 6896
  150.7208  134.5306  159.5708 H   0  0  0  0  0  0  0  0  0  0  0  0  # atno 6908 bound_to 6896
  152.2798  134.7841  160.0450 H   0  0  0  0  0  0  0  0  0  0  0  0  # atno 6909 bound_to 6896
  145.0922  139.3579  143.4855 H   0  0  0  0  0  0  0  0  0  0  0  0  # atno 7974 bound_to 7965
  156.0770  140.3276  155.7646 H   0  0  0  0  0  0  0  0  0  0  0  0  # atno 8008 bound_to 7997
  155.5215  140.0585  157.2923 H   0  0  0  0  0  0  0  0  0  0  0  0  # atno 8009 bound_to 7997
  154.4561  140.1943  156.0394 H   0  0  0  0  0  0  0  0  0  0  0  0  # atno 8010 bound_to 7997
  139.5529  144.2063  152.1109 H   0  0  0  0  0  0  0  0  0  0  0  0  # atno 10167 bound_to 10162
  156.0253  130.5452  150.7205 H   0  0  0  0  0  0  0  0  0  0  0  0  # atno 10718 bound_to 10713
  154.5938  135.2847  155.0608 H   0  0  0  0  0  0  0  0  0  0  0  0  # atno 10763 bound_to 10752
  154.1898  135.6442  153.5061 H   0  0  0  0  0  0  0  0  0  0  0  0  # atno 10764 bound_to 10752
  153.0131  135.5443  154.6632 H   0  0  0  0  0  0  0  0  0  0  0  0  # atno 10765 bound_to 10752
  139.8786  134.8921  156.4074 H   0  0  0  0  0  0  0  0  0  0  0  0  # atno 11005 bound_to 11000
  146.3531  140.0761  142.8620 LP  0  0  0  0  0  0  0  0  0  0  0  0  # atno 17320 bound_to 7965
  145.1053  140.9371  143.4688 LP  0  0  0  0  0  0  0  0  0  0  0  0  # atno 17321 bound_to 7965
  140.1561  144.5069  150.6659 LP  0  0  0  0  0  0  0  0  0  0  0  0  # atno 17342 bound_to 10162
  140.6796  143.2320  151.5419 LP  0  0  0  0  0  0  0  0  0  0  0  0  # atno 17343 bound_to 10162
  157.4822  131.0903  151.0523 LP  0  0  0  0  0  0  0  0  0  0  0  0  # atno 17370 bound_to 10713
  157.0953  130.5959  149.5448 LP  0  0  0  0  0  0  0  0  0  0  0  0  # atno 17371 bound_to 10713
  140.9224  133.7635  155.9923 LP  0  0  0  0  0  0  0  0  0  0  0  0  # atno 17394 bound_to 11000
  140.8424  134.3051  157.5308 LP  0  0  0  0  0  0  0  0  0  0  0  0  # atno 17395 bound_to 11000

$$$$
