AV-unprocessed.smi:3331|AV-procd|sdf|12819|dock2
  -GOLD-   2272019193D 1   1.00000     0.00000
 Structure written by MMmdl.
 47 48  0  0  0  0  0  0  0  0  2 V2000
  146.9656  141.5100  154.8855 C   0  0  0  0  0  0  0  0  0  0  0  0
  148.2682  141.5125  154.0659 C   0  0  1  0  0  0  0  0  0  0  0  0
  149.5128  141.7549  154.9485 C   0  0  0  0  0  0  0  0  0  0  0  0
  149.9328  140.5036  155.7523 C   0  0  2  0  0  0  0  0  0  0  0  0
  151.2454  140.7396  156.5121 C   0  0  0  0  0  0  0  0  0  0  0  0
  150.0278  139.2770  154.8212 C   0  0  0  0  0  0  0  0  0  0  0  0
  148.7430  139.0919  154.1319 N   0  0  0  0  0  0  0  0  0  0  0  0
  147.9285  138.0339  154.3800 C   0  0  0  0  0  0  0  0  0  0  0  0
  148.2526  137.1328  155.1550 O   0  0  0  0  0  0  0  0  0  0  0  0
  146.5673  137.9286  153.6626 C   0  0  2  0  0  0  0  0  0  0  0  0
  145.3880  137.9238  154.6586 C   0  0  0  0  0  0  0  0  0  0  0  0
  146.5511  136.7165  152.8134 N   0  3  0  0  0  0  0  0  0  0  0  0
  145.4069  136.6064  151.8860 C   0  0  0  0  0  0  0  0  0  0  0  0
  144.5463  135.3816  152.2277 C   0  0  0  0  0  0  0  0  0  0  0  0
  144.8994  134.2295  151.4210 N   0  0  0  0  0  0  0  0  0  0  0  0
  144.0823  133.4637  150.6163 C   0  0  0  0  0  0  0  0  0  0  0  0
  144.8585  132.4860  150.0633 C   0  0  0  0  0  0  0  0  0  0  0  0
  146.1516  132.7352  150.6020 C   0  0  0  0  0  0  0  0  0  0  0  0
  146.1722  133.7784  151.4164 N   0  0  0  0  0  0  0  0  0  0  0  0
  148.4531  140.2229  153.2366 C   0  0  0  0  0  0  0  0  0  0  0  0
  146.9424  140.7015  155.6161 H   0  0  0  0  0  0  0  0  0  0  0  0
  146.0968  141.3951  154.2370 H   0  0  0  0  0  0  0  0  0  0  0  0
  146.8450  142.4476  155.4291 H   0  0  0  0  0  0  0  0  0  0  0  0
  148.1941  142.3473  153.3679 H   0  0  0  0  0  0  0  0  0  0  0  0
  150.3411  142.0500  154.3026 H   0  0  0  0  0  0  0  0  0  0  0  0
  149.3426  142.5974  155.6199 H   0  0  0  0  0  0  0  0  0  0  0  0
  149.1608  140.3013  156.4960 H   0  0  0  0  0  0  0  0  0  0  0  0
  152.0713  140.9360  155.8278 H   0  0  0  0  0  0  0  0  0  0  0  0
  151.5116  139.8708  157.1149 H   0  0  0  0  0  0  0  0  0  0  0  0
  151.1603  141.5932  157.1852 H   0  0  0  0  0  0  0  0  0  0  0  0
  150.8158  139.4244  154.0810 H   0  0  0  0  0  0  0  0  0  0  0  0
  150.3291  138.4004  155.3964 H   0  0  0  0  0  0  0  0  0  0  0  0
  146.4442  138.8119  153.0362 H   0  0  0  0  0  0  0  0  0  0  0  0
  145.4411  138.7759  155.3377 H   0  0  0  0  0  0  0  0  0  0  0  0
  145.3732  137.0161  155.2632 H   0  0  0  0  0  0  0  0  0  0  0  0
  144.4297  137.9930  154.1442 H   0  0  0  0  0  0  0  0  0  0  0  0
  147.3913  136.7312  152.2529 H   0  0  0  0  0  0  0  0  0  0  0  0
  144.7996  137.5100  151.9413 H   0  0  0  0  0  0  0  0  0  0  0  0
  145.7793  136.5271  150.8634 H   0  0  0  0  0  0  0  0  0  0  0  0
  144.6596  135.1153  153.2797 H   0  0  0  0  0  0  0  0  0  0  0  0
  143.4904  135.6041  152.0683 H   0  0  0  0  0  0  0  0  0  0  0  0
  143.0291  133.6753  150.5037 H   0  0  0  0  0  0  0  0  0  0  0  0
  144.5488  131.7090  149.3799 H   0  0  0  0  0  0  0  0  0  0  0  0
  147.0689  132.1926  150.4271 H   0  0  0  0  0  0  0  0  0  0  0  0
  147.5946  140.0693  152.5859 H   0  0  0  0  0  0  0  0  0  0  0  0
  149.2959  140.3488  152.5552 H   0  0  0  0  0  0  0  0  0  0  0  0
  146.5802  135.9010  153.4086 H   0  0  0  0  0  0  0  0  0  0  0  0
  1  2  1  0  0  0  0
  1 21  1  0  0  0  0
  1 22  1  0  0  0  0
  1 23  1  0  0  0  0
  2 20  1  0  0  0  0
  2  3  1  0  0  0  0
  2 24  1  0  0  0  0
  3  4  1  0  0  0  0
  3 25  1  0  0  0  0
  3 26  1  0  0  0  0
  4  5  1  0  0  0  0
  4  6  1  0  0  0  0
  4 27  1  0  0  0  0
  5 28  1  0  0  0  0
  5 29  1  0  0  0  0
  5 30  1  0  0  0  0
  6  7  1  0  0  0  0
  6 31  1  0  0  0  0
  6 32  1  0  0  0  0
  7  8  1  0  0  0  0
  7 20  1  0  0  0  0
  8  9  2  0  0  0  0
  8 10  1  0  0  0  0
 10 11  1  0  0  0  0
 10 12  1  0  0  0  0
 10 33  1  0  0  0  0
 11 34  1  0  0  0  0
 11 35  1  0  0  0  0
 11 36  1  0  0  0  0
 12 13  1  0  0  0  0
 12 37  1  0  0  0  0
 12 47  1  0  0  0  0
 13 14  1  0  0  0  0
 13 38  1  0  0  0  0
 13 39  1  0  0  0  0
 14 15  1  0  0  0  0
 14 40  1  0  0  0  0
 14 41  1  0  0  0  0
 15 19  1  0  0  0  0
 15 16  1  0  0  0  0
 16 17  2  0  0  0  0
 16 42  1  0  0  0  0
 17 18  1  0  0  0  0
 17 43  1  0  0  0  0
 18 19  2  0  0  0  0
 18 44  1  0  0  0  0
 20 45  1  0  0  0  0
 20 46  1  0  0  0  0
M  CHG  1  12   1
M  END
> <s_m_source_file>
AV-unprocessed.smi

> <i_m_source_file_index>
3331

> <i_lp_mmshare_version>
43012

> <i_f3d_flags>
0

> <s_epik_input>
W0NIM11bQ0BASF0xW0NIMl1bQ0BASF0oW0NIM10pW0NIMl1OKFtDSDJdMSlDKD1PKVtDQEhdKFtDSDNdKVtOSF1bQ0gyXVtDSDJdbjJbY0hdW2NIXVtjSF1uMg==

> <s_epik_cmdline>
J2VwaWtfcHl0aG9uJywgJy1waCcsICc3LjAnLCAnLXRuJywgJzgnLCAnLW1hJywgJzIwMCcsICctbWV0YWxfYmluZGluZycsICctaW1hZScsICc8aW5maWxlLm1hZT4nLCAnLW9tYWUnLCAnPG91dGZpbGUubWFlPic=

> <r_lp_tautomer_probability>
1

> <r_epik_Ionization_Penalty>
0.189706

> <r_epik_Ionization_Penalty_Charging>
0.189703

> <r_epik_Ionization_Penalty_Neutral>
2.45875e-06

> <r_epik_State_Penalty>
0.179341

> <r_epik_Charging_Adjusted_Penalty>
0.369044

> <i_epik_Tot_Q>
1

> <i_epik_Tot_abs_Q>
1

> <r_epik_Metal_State_Penalty>
0.179578

> <b_epik_Metal_Only>
0

> <s_lp_Force_Field>
OPLS_2005

> <r_lp_Energy>
29.8768

> <b_lp_Chiralities_Consistent>
1

> <s_lp_Variant>
AV-unprocessed.smi:3331-3

> <Gold.Version>
5.8.1

> <Gold.Id.Protein>
6NUR|6NUR_protein|mol2

> <Gold.PLP.Fitness>
42.3561

> <Gold.PLP.PLP>
-31.6456

> <Gold.PLP.part.hbond>
-1.0000

> <Gold.PLP.part.metal>
0.0000

> <Gold.PLP.part.buried>
1.5947

> <Gold.PLP.part.nonpolar>
-32.8048

> <Gold.PLP.part.repulsive>
0.3011

> <Gold.PLP.ligand.clash>
0.0000

> <Gold.PLP.ligand.torsion>
0.6809

> <Gold.PLP.Chemscore.Hbond>
2.0000

> <Gold.PLP.Chemscore.CHOScore>
2.0000

> <Gold.PLP.Chemscore.Metal>
0.0000

> <Gold.Chemscore.Hbonds>
donor molecule, donor type, donor heavy atom, donor atom, acceptor molecule, acceptor atom, score
      L1  H    12    37       P1  7948  2.00
      L1  C    16    42       P1 10186  1.00
      L1  C    18    44       P1 10747  1.00

> <Gold.PLP.Chemscore.Internal.Correction>
0.0724

> <Gold.Rescore>
     Score         DG    S(hbond)    S(metal)    S(lipo)     H(rot)  DE(clash)    DE(int)     intcor
     12.28     -14.72       0.97        0.00      88.98       1.73       1.75       0.69       ----

> <Gold.Chemscore.Fitness>
12.2808

> <Gold.Chemscore.DG>
-14.7179

> <Gold.Chemscore.ZeroCoef>
-5.4800

> <Gold.Chemscore.Hbond>
0.9713

> <Gold.Chemscore.Metal>
0.0000

> <Gold.Chemscore.Lipo>
88.9817

> <Gold.Chemscore.Internal_Hbond>
0.0000

> <Gold.Chemscore.DEClash>
1.7516

> <Gold.Chemscore.DEInternal>
0.6855

> <Gold.Chemscore.Rot>
1.7254

> <Gold.Chemscore.Internal.Correction>
   9.000000E+99

> <Gold.Chemscore.Hbonds>
donor molecule, donor type, donor heavy atom, donor atom, acceptor molecule, acceptor atom, score
      L1  H    12    37       P1  7948  0.98

> <Gold.Chemscore.Hbond.Weighted>
-3.2440

> <Gold.Chemscore.Metal.Weighted>
-0.0000

> <Gold.Chemscore.Lipo.Weighted>
-10.4109

> <Gold.Chemscore.Internal_Hbond.Weighted>
0.0000

> <Gold.Chemscore.DEClash.Weighted>
1.7516

> <Gold.Chemscore.DEInternal.Weighted>
0.6855

> <Gold.Chemscore.Rot.Weighted>
4.4170

> <Gold.Chemscore.Internal.Correction.Weighted>
   9.000000E+99

> <Gold.Protein.RotatedTorsions>
[ 6907 6896 6895 6894 ] final  -20.03 input  -60.11 | X-H torsion
[ 7974 7965 7964 7962 ] final -144.33 input  175.53 | X-H torsion
[ 8008 7997 7996 7995 ] final   -6.05 input   59.86 | X-H torsion
[ 10167 10162 10161 10158 ] final -147.43 input  -65.29 | X-H torsion
[ 10718 10713 10712 10709 ] final  134.31 input   66.30 | X-H torsion
[ 10763 10752 10751 10750 ] final  -80.53 input  -60.55 | X-H torsion
[ 11005 11000 10999 10996 ] final  115.16 input  -57.11 | X-H torsion

> <Gold.Protein.ActiveResidues>
 VAL166  LYS551  ARG553  GLY616  TRP617  ASP618  TYR619  PRO620  LYS621  CYS622 
 ASP623  PHE694  ASN695  SER759  ASP760  ASP761  ALA762  ILE779  LEU786  VAL792 
 PHE793  MET794  SER795  GLU796  ALA797  LYS798  CYS799  TRP800  GLU811  SER814 

> <Gold.Protein.RotatedAtoms>
  151.2543  135.0632  159.9073 H   0  0  0  0  0  0  0  0  0  0  0  0  # atno 6907 bound_to 6896
  152.5375  134.0299  159.8030 H   0  0  0  0  0  0  0  0  0  0  0  0  # atno 6908 bound_to 6896
  151.0512  133.5573  159.2673 H   0  0  0  0  0  0  0  0  0  0  0  0  # atno 6909 bound_to 6896
  144.8305  140.5723  143.5518 H   0  0  0  0  0  0  0  0  0  0  0  0  # atno 7974 bound_to 7965
  154.5977  140.2443  155.7835 H   0  0  0  0  0  0  0  0  0  0  0  0  # atno 8008 bound_to 7997
  156.2290  140.2973  156.0092 H   0  0  0  0  0  0  0  0  0  0  0  0  # atno 8009 bound_to 7997
  155.2265  140.0402  157.2946 H   0  0  0  0  0  0  0  0  0  0  0  0  # atno 8010 bound_to 7997
  139.7622  143.8360  152.2609 H   0  0  0  0  0  0  0  0  0  0  0  0  # atno 10167 bound_to 10162
  157.4685  131.1078  150.9832 H   0  0  0  0  0  0  0  0  0  0  0  0  # atno 10718 bound_to 10713
  154.5523  135.5658  153.6933 H   0  0  0  0  0  0  0  0  0  0  0  0  # atno 10763 bound_to 10752
  152.9993  135.6254  154.2357 H   0  0  0  0  0  0  0  0  0  0  0  0  # atno 10764 bound_to 10752
  154.2292  135.2866  155.2876 H   0  0  0  0  0  0  0  0  0  0  0  0  # atno 10765 bound_to 10752
  139.9001  134.9579  156.7002 H   0  0  0  0  0  0  0  0  0  0  0  0  # atno 11005 bound_to 11000
  145.4906  139.1489  143.3711 LP  0  0  0  0  0  0  0  0  0  0  0  0  # atno 17320 bound_to 7965
  146.2608  140.5044  142.8854 LP  0  0  0  0  0  0  0  0  0  0  0  0  # atno 17321 bound_to 7965
  139.8369  144.7228  150.9379 LP  0  0  0  0  0  0  0  0  0  0  0  0  # atno 17342 bound_to 10162
  140.7808  143.4018  151.1136 LP  0  0  0  0  0  0  0  0  0  0  0  0  # atno 17343 bound_to 10162
  157.0604  130.5823  149.5385 LP  0  0  0  0  0  0  0  0  0  0  0  0  # atno 17370 bound_to 10713
  156.0062  130.5149  150.7837 LP  0  0  0  0  0  0  0  0  0  0  0  0  # atno 17371 bound_to 10713
  140.7156  133.9185  155.8113 LP  0  0  0  0  0  0  0  0  0  0  0  0  # atno 17394 bound_to 11000
  141.0267  134.0814  157.4061 LP  0  0  0  0  0  0  0  0  0  0  0  0  # atno 17395 bound_to 11000

$$$$
