AV-unprocessed.smi:986|AV-procd|sdf|4320|dock5
  -GOLD-   22720 2223D 1   1.00000     0.00000
 Structure written by MMmdl.
 31 31  0  0  0  0  0  0  0  0  1 V2000
  153.2366  141.9006  160.6618 C   0  0  0  0  0  0  0  0  0  0  0  0
  152.4824  141.8755  159.3228 C   0  0  0  0  0  0  0  0  0  0  0  0
  151.3390  142.8984  159.3015 C   0  0  0  0  0  0  0  0  0  0  0  0
  151.9399  140.5462  159.0658 N   0  0  0  0  0  0  0  0  0  0  0  0
  152.6523  139.4434  158.7735 C   0  0  0  0  0  0  0  0  0  0  0  0
  153.8797  139.4462  158.6866 O   0  0  0  0  0  0  0  0  0  0  0  0
  151.8897  138.1289  158.5351 C   0  0  0  0  0  0  0  0  0  0  0  0
  150.4593  138.2021  158.8317 N   0  0  0  0  0  0  0  0  0  0  0  0
  149.6012  137.1701  158.7815 C   0  0  0  0  0  0  0  0  0  0  0  0
  149.9157  136.0430  158.4014 O   0  0  0  0  0  0  0  0  0  0  0  0
  148.1779  137.4471  159.2642 C   0  0  0  0  0  0  0  0  0  0  0  0
  147.8661  136.6354  160.4275 N   0  0  0  0  0  0  0  0  0  0  0  0
  147.7863  135.3105  160.5661 C   0  0  0  0  0  0  0  0  0  0  0  0
  147.4511  134.9185  161.7872 N   0  0  0  0  0  0  0  0  0  0  0  0
  147.3340  136.1373  162.3937 C   0  0  0  0  0  0  0  0  0  0  0  0
  147.5688  137.1988  161.6223 N   0  0  0  0  0  0  0  0  0  0  0  0
  153.6438  142.8918  160.8624 H   0  0  0  0  0  0  0  0  0  0  0  0
  154.0715  141.1992  160.6613 H   0  0  0  0  0  0  0  0  0  0  0  0
  152.5802  141.6364  161.4916 H   0  0  0  0  0  0  0  0  0  0  0  0
  153.1788  142.1333  158.5228 H   0  0  0  0  0  0  0  0  0  0  0  0
  151.7152  143.9102  159.4546 H   0  0  0  0  0  0  0  0  0  0  0  0
  150.6093  142.6934  160.0856 H   0  0  0  0  0  0  0  0  0  0  0  0
  150.8138  142.8834  158.3459 H   0  0  0  0  0  0  0  0  0  0  0  0
  150.9365  140.4509  159.1244 H   0  0  0  0  0  0  0  0  0  0  0  0
  152.0033  137.8511  157.4870 H   0  0  0  0  0  0  0  0  0  0  0  0
  152.3582  137.3338  159.1173 H   0  0  0  0  0  0  0  0  0  0  0  0
  150.1092  139.0941  159.1493 H   0  0  0  0  0  0  0  0  0  0  0  0
  148.0671  138.5002  159.5261 H   0  0  0  0  0  0  0  0  0  0  0  0
  147.4607  137.2330  158.4702 H   0  0  0  0  0  0  0  0  0  0  0  0
  147.9691  134.6195  159.7561 H   0  0  0  0  0  0  0  0  0  0  0  0
  147.0642  136.2455  163.4340 H   0  0  0  0  0  0  0  0  0  0  0  0
  1  2  1  0  0  0  0
  1 17  1  0  0  0  0
  1 18  1  0  0  0  0
  1 19  1  0  0  0  0
  2  3  1  0  0  0  0
  2  4  1  0  0  0  0
  2 20  1  0  0  0  0
  3 21  1  0  0  0  0
  3 22  1  0  0  0  0
  3 23  1  0  0  0  0
  4  5  1  0  0  0  0
  4 24  1  0  0  0  0
  5  6  2  0  0  0  0
  5  7  1  0  0  0  0
  7  8  1  0  0  0  0
  7 25  1  0  0  0  0
  7 26  1  0  0  0  0
  8  9  1  0  0  0  0
  8 27  1  0  0  0  0
  9 10  2  0  0  0  0
  9 11  1  0  0  0  0
 11 12  1  0  0  0  0
 11 28  1  0  0  0  0
 11 29  1  0  0  0  0
 12 16  1  0  0  0  0
 12 13  1  0  0  0  0
 13 14  2  0  0  0  0
 13 30  1  0  0  0  0
 14 15  1  0  0  0  0
 15 16  2  0  0  0  0
 15 31  1  0  0  0  0
M  END
> <s_m_source_file>
AV-unprocessed.smi

> <i_m_source_file_index>
986

> <i_lp_mmshare_version>
43012

> <i_f3d_flags>
0

> <s_epik_input>
W0NIM11bQ0hdKFtDSDNdKVtOSF1DKD1PKVtDSDJdW05IXUMoPU8pW0NIMl1uMVtjSF1uW2NIXW4x

> <s_epik_cmdline>
J2VwaWtfcHl0aG9uJywgJy1waCcsICc3LjAnLCAnLXRuJywgJzgnLCAnLW1hJywgJzIwMCcsICctbWV0YWxfYmluZGluZycsICctaW1hZScsICc8aW5maWxlLm1hZT4nLCAnLW9tYWUnLCAnPG91dGZpbGUubWFlPic=

> <r_lp_tautomer_probability>
1

> <r_epik_Ionization_Penalty>
7.25916e-06

> <r_epik_Ionization_Penalty_Charging>
0

> <r_epik_Ionization_Penalty_Neutral>
7.25916e-06

> <r_epik_State_Penalty>
-0

> <r_epik_Charging_Adjusted_Penalty>
0

> <i_epik_Tot_Q>
0

> <i_epik_Tot_abs_Q>
0

> <r_epik_Metal_State_Penalty>
-0

> <b_epik_Metal_Only>
0

> <s_lp_Force_Field>
OPLS_2005

> <r_lp_Energy>
0.116245

> <b_lp_Chiralities_Consistent>
1

> <s_lp_Variant>
AV-unprocessed.smi:986-1

> <Gold.Version>
5.8.1

> <Gold.Id.Protein>
6NUR|6NUR_protein|mol2

> <Gold.PLP.Fitness>
39.1875

> <Gold.PLP.PLP>
-28.2153

> <Gold.PLP.part.hbond>
-4.0000

> <Gold.PLP.part.metal>
0.0000

> <Gold.PLP.part.buried>
-4.1319

> <Gold.PLP.part.nonpolar>
-20.2364

> <Gold.PLP.part.repulsive>
0.3198

> <Gold.PLP.ligand.clash>
0.0000

> <Gold.PLP.ligand.torsion>
0.1909

> <Gold.PLP.Chemscore.Hbond>
3.7760

> <Gold.PLP.Chemscore.CHOScore>
0.0000

> <Gold.PLP.Chemscore.Metal>
0.0000

> <Gold.Chemscore.Hbonds>
donor molecule, donor type, donor heavy atom, donor atom, acceptor molecule, acceptor atom, score
      P1  H  6896  6907       L1    10  1.00
      P1  H  6931  6943       L1    16  0.98
      P1  H  6934  6947       L1    16  0.67
      P1  H  7997  8008       L1     6  1.00

> <Gold.PLP.Chemscore.Internal.Correction>
0.0260

> <Gold.Rescore>
     Score         DG    S(hbond)    S(metal)    S(lipo)     H(rot)  DE(clash)    DE(int)     intcor
     13.10     -13.51       3.45        0.00      36.48       3.03       0.00       0.41       ----

> <Gold.Chemscore.Fitness>
13.0974

> <Gold.Chemscore.DG>
-13.5130

> <Gold.Chemscore.ZeroCoef>
-5.4800

> <Gold.Chemscore.Hbond>
3.4517

> <Gold.Chemscore.Metal>
0.0000

> <Gold.Chemscore.Lipo>
36.4843

> <Gold.Chemscore.Internal_Hbond>
0.0000

> <Gold.Chemscore.DEClash>
0.0009

> <Gold.Chemscore.DEInternal>
0.4147

> <Gold.Chemscore.Rot>
3.0329

> <Gold.Chemscore.Internal.Correction>
   9.000000E+99

> <Gold.Chemscore.Hbonds>
donor molecule, donor type, donor heavy atom, donor atom, acceptor molecule, acceptor atom, score
      P1  H  6896  6907       L1    10  0.93
      P1  H  6931  6943       L1    16  0.31
      P1  H  6934  6947       L1    16  0.11
      P1  H  7997  8008       L1     6  0.98

> <Gold.Chemscore.Hbond.Weighted>
-11.5287

> <Gold.Chemscore.Metal.Weighted>
-0.0000

> <Gold.Chemscore.Lipo.Weighted>
-4.2687

> <Gold.Chemscore.Internal_Hbond.Weighted>
0.0000

> <Gold.Chemscore.DEClash.Weighted>
0.0009

> <Gold.Chemscore.DEInternal.Weighted>
0.4147

> <Gold.Chemscore.Rot.Weighted>
7.7643

> <Gold.Chemscore.Internal.Correction.Weighted>
   9.000000E+99

> <Gold.Protein.RotatedTorsions>
[ 6907 6896 6895 6894 ] final  -52.82 input  -60.11 | X-H torsion
[ 7974 7965 7964 7962 ] final  -90.04 input  175.53 | X-H torsion
[ 8008 7997 7996 7995 ] final  -92.76 input   59.86 | X-H torsion
[ 10167 10162 10161 10158 ] final   89.96 input  -65.29 | X-H torsion
[ 10718 10713 10712 10709 ] final  -64.86 input   66.30 | X-H torsion
[ 10763 10752 10751 10750 ] final  -60.33 input  -60.55 | X-H torsion
[ 11005 11000 10999 10996 ] final  -89.37 input  -57.11 | X-H torsion

> <Gold.Protein.ActiveResidues>
 VAL166  LYS551  ARG553  GLY616  TRP617  ASP618  TYR619  PRO620  LYS621  CYS622 
 ASP623  PHE694  ASN695  SER759  ASP760  ASP761  ALA762  ILE779  LEU786  VAL792 
 PHE793  MET794  SER795  GLU796  ALA797  LYS798  CYS799  TRP800  GLU811  SER814 

> <Gold.Protein.RotatedAtoms>
  150.8483  134.7800  159.6988 H   0  0  0  0  0  0  0  0  0  0  0  0  # atno 6907 bound_to 6896
  152.4554  134.5299  159.9817 H   0  0  0  0  0  0  0  0  0  0  0  0  # atno 6908 bound_to 6896
  151.5425  133.3392  159.2973 H   0  0  0  0  0  0  0  0  0  0  0  0  # atno 6909 bound_to 6896
  145.4318  140.9556  143.2123 H   0  0  0  0  0  0  0  0  0  0  0  0  # atno 7974 bound_to 7965
  154.7272  140.0505  157.0693 H   0  0  0  0  0  0  0  0  0  0  0  0  # atno 8008 bound_to 7997
  155.0349  140.3162  155.4726 H   0  0  0  0  0  0  0  0  0  0  0  0  # atno 8009 bound_to 7997
  156.2832  140.2143  156.5471 H   0  0  0  0  0  0  0  0  0  0  0  0  # atno 8010 bound_to 7997
  139.8521  144.6588  150.9157 H   0  0  0  0  0  0  0  0  0  0  0  0  # atno 10167 bound_to 10162
  156.0703  130.4239  150.1481 H   0  0  0  0  0  0  0  0  0  0  0  0  # atno 10718 bound_to 10713
  154.2675  135.6296  153.5298 H   0  0  0  0  0  0  0  0  0  0  0  0  # atno 10763 bound_to 10752
  152.9885  135.5602  154.5636 H   0  0  0  0  0  0  0  0  0  0  0  0  # atno 10764 bound_to 10752
  154.5199  135.2882  155.1247 H   0  0  0  0  0  0  0  0  0  0  0  0  # atno 10765 bound_to 10752
  141.1586  133.7626  156.9586 H   0  0  0  0  0  0  0  0  0  0  0  0  # atno 11005 bound_to 11000
  144.8178  139.5846  143.7001 LP  0  0  0  0  0  0  0  0  0  0  0  0  # atno 17320 bound_to 7965
  146.2603  139.6395  142.9367 LP  0  0  0  0  0  0  0  0  0  0  0  0  # atno 17321 bound_to 7965
  140.7786  143.3818  151.1463 LP  0  0  0  0  0  0  0  0  0  0  0  0  # atno 17342 bound_to 10162
  139.7455  143.8858  152.3062 LP  0  0  0  0  0  0  0  0  0  0  0  0  # atno 17343 bound_to 10162
  156.9533  130.9782  151.3494 LP  0  0  0  0  0  0  0  0  0  0  0  0  # atno 17370 bound_to 10713
  157.5771  130.8350  149.8470 LP  0  0  0  0  0  0  0  0  0  0  0  0  # atno 17371 bound_to 10713
  140.1208  134.9418  157.2201 LP  0  0  0  0  0  0  0  0  0  0  0  0  # atno 17394 bound_to 11000
  140.3074  134.3063  155.7275 LP  0  0  0  0  0  0  0  0  0  0  0  0  # atno 17395 bound_to 11000

$$$$
