AV-unprocessed.smi:1244|AV-procd|sdf|5234|dock7
  -GOLD-   22720 4343D 1   1.00000     0.00000
 Structure written by MMmdl.
 56 58  0  0  0  0  0  0  0  0  3 V2000
  152.6197  141.4496  158.3020 C   0  0  0  0  0  0  0  0  0  0  0  0
  151.4736  141.1160  157.3407 C   0  0  1  0  0  0  0  0  0  0  0  0
  151.8444  139.9769  156.3743 C   0  0  0  0  0  0  0  0  0  0  0  0
  150.6870  139.6224  155.5202 N   0  3  1  0  0  0  0  0  0  0  0  0
  151.0292  138.5986  154.5012 C   0  0  0  0  0  0  0  0  0  0  0  0
  151.1552  137.1865  155.1046 C   0  0  0  0  0  0  0  0  0  0  0  0
  150.3015  136.2282  154.4120 N   0  0  0  0  0  0  0  0  0  0  0  0
  150.2274  134.9203  154.6966 C   0  0  0  0  0  0  0  0  0  0  0  0
  150.8715  134.3855  155.5987 O   0  0  0  0  0  0  0  0  0  0  0  0
  149.3825  134.2876  153.8649 N   0  0  0  0  0  0  0  0  0  0  0  0
  149.0768  132.8973  153.8059 C   0  0  0  0  0  0  0  0  0  0  0  0
  149.7976  131.9480  154.5762 C   0  0  0  0  0  0  0  0  0  0  0  0
  149.4867  130.5790  154.4768 C   0  0  0  0  0  0  0  0  0  0  0  0
  148.4558  130.1770  153.6111 C   0  0  0  0  0  0  0  0  0  0  0  0
  147.7742  131.1045  152.9080 N   0  3  0  0  0  0  0  0  0  0  0  0
  148.0151  132.4381  152.9720 C   0  0  0  0  0  0  0  0  0  0  0  0
  147.2061  133.2919  152.1873 N   0  0  0  0  0  0  0  0  0  0  0  0
  146.3219  132.7411  151.1664 C   0  0  0  0  0  0  0  0  0  0  0  0
  145.3801  133.8848  150.7989 C   0  0  0  0  0  0  0  0  0  0  0  0
  145.2032  134.6062  152.1315 C   0  0  0  0  0  0  0  0  0  0  0  0
  146.5633  134.4405  152.8180 C   0  0  0  0  0  0  0  0  0  0  0  0
  149.5209  139.2573  156.3625 C   0  0  0  0  0  0  0  0  0  0  0  0
  149.1861  140.3784  157.3662 C   0  0  2  0  0  0  0  0  0  0  0  0
  148.5194  141.6055  156.7185 C   0  0  0  0  0  0  0  0  0  0  0  0
  150.3461  140.7278  158.1212 O   0  0  0  0  0  0  0  0  0  0  0  0
  153.5098  141.7661  157.7576 H   0  0  0  0  0  0  0  0  0  0  0  0
  152.8887  140.5864  158.9115 H   0  0  0  0  0  0  0  0  0  0  0  0
  152.3389  142.2590  158.9765 H   0  0  0  0  0  0  0  0  0  0  0  0
  151.2376  142.0166  156.7734 H   0  0  0  0  0  0  0  0  0  0  0  0
  152.6825  140.2894  155.7498 H   0  0  0  0  0  0  0  0  0  0  0  0
  152.1698  139.0959  156.9305 H   0  0  0  0  0  0  0  0  0  0  0  0
  150.2423  138.5809  153.7456 H   0  0  0  0  0  0  0  0  0  0  0  0
  151.9468  138.8829  153.9836 H   0  0  0  0  0  0  0  0  0  0  0  0
  152.1774  136.8193  155.0241 H   0  0  0  0  0  0  0  0  0  0  0  0
  150.9140  137.2024  156.1689 H   0  0  0  0  0  0  0  0  0  0  0  0
  149.7411  136.5850  153.6514 H   0  0  0  0  0  0  0  0  0  0  0  0
  148.9963  134.8472  153.1188 H   0  0  0  0  0  0  0  0  0  0  0  0
  150.5849  132.2481  155.2506 H   0  0  0  0  0  0  0  0  0  0  0  0
  150.0332  129.8486  155.0558 H   0  0  0  0  0  0  0  0  0  0  0  0
  148.1505  129.1508  153.4668 H   0  0  0  0  0  0  0  0  0  0  0  0
  146.8841  132.3869  150.3017 H   0  0  0  0  0  0  0  0  0  0  0  0
  145.7453  131.9069  151.5684 H   0  0  0  0  0  0  0  0  0  0  0  0
  145.8603  134.5479  150.0778 H   0  0  0  0  0  0  0  0  0  0  0  0
  144.4389  133.5401  150.3697 H   0  0  0  0  0  0  0  0  0  0  0  0
  144.9109  135.6502  152.0161 H   0  0  0  0  0  0  0  0  0  0  0  0
  144.4320  134.1051  152.7182 H   0  0  0  0  0  0  0  0  0  0  0  0
  146.4497  134.3099  153.8951 H   0  0  0  0  0  0  0  0  0  0  0  0
  147.1774  135.3245  152.6437 H   0  0  0  0  0  0  0  0  0  0  0  0
  148.6454  139.0485  155.7489 H   0  0  0  0  0  0  0  0  0  0  0  0
  149.7494  138.3385  156.9055 H   0  0  0  0  0  0  0  0  0  0  0  0
  148.4706  139.9762  158.0838 H   0  0  0  0  0  0  0  0  0  0  0  0
  147.5677  141.3319  156.2622 H   0  0  0  0  0  0  0  0  0  0  0  0
  149.1354  142.0499  155.9371 H   0  0  0  0  0  0  0  0  0  0  0  0
  148.3164  142.3754  157.4633 H   0  0  0  0  0  0  0  0  0  0  0  0
  150.4397  140.4619  155.0156 H   0  0  0  0  0  0  0  0  0  0  0  0
  147.0241  130.7821  152.2964 H   0  0  0  0  0  0  0  0  0  0  0  0
  1  2  1  0  0  0  0
  1 26  1  0  0  0  0
  1 27  1  0  0  0  0
  1 28  1  0  0  0  0
  2 25  1  0  0  0  0
  2  3  1  0  0  0  0
  2 29  1  0  0  0  0
  3  4  1  0  0  0  0
  3 30  1  0  0  0  0
  3 31  1  0  0  0  0
  4  5  1  0  0  0  0
  4 22  1  0  0  0  0
  4 55  1  0  0  0  0
  5  6  1  0  0  0  0
  5 32  1  0  0  0  0
  5 33  1  0  0  0  0
  6  7  1  0  0  0  0
  6 34  1  0  0  0  0
  6 35  1  0  0  0  0
  7  8  1  0  0  0  0
  7 36  1  0  0  0  0
  8  9  2  0  0  0  0
  8 10  1  0  0  0  0
 10 11  1  0  0  0  0
 10 37  1  0  0  0  0
 11 16  1  0  0  0  0
 11 12  2  0  0  0  0
 12 13  1  0  0  0  0
 12 38  1  0  0  0  0
 13 14  2  0  0  0  0
 13 39  1  0  0  0  0
 14 15  1  0  0  0  0
 14 40  1  0  0  0  0
 15 16  2  0  0  0  0
 15 56  1  0  0  0  0
 16 17  1  0  0  0  0
 17 21  1  0  0  0  0
 17 18  1  0  0  0  0
 18 19  1  0  0  0  0
 18 41  1  0  0  0  0
 18 42  1  0  0  0  0
 19 20  1  0  0  0  0
 19 43  1  0  0  0  0
 19 44  1  0  0  0  0
 20 21  1  0  0  0  0
 20 45  1  0  0  0  0
 20 46  1  0  0  0  0
 21 47  1  0  0  0  0
 21 48  1  0  0  0  0
 22 23  1  0  0  0  0
 22 49  1  0  0  0  0
 22 50  1  0  0  0  0
 23 24  1  0  0  0  0
 23 25  1  0  0  0  0
 23 51  1  0  0  0  0
 24 52  1  0  0  0  0
 24 53  1  0  0  0  0
 24 54  1  0  0  0  0
M  CHG  1   4   1
M  CHG  1  15   1
M  END
> <s_m_source_file>
AV-unprocessed.smi

> <i_m_source_file_index>
1244

> <i_lp_mmshare_version>
43012

> <i_f3d_flags>
0

> <s_epik_input>
W0NIM11bQ0BASF0xW0NIMl1OKFtDSDJdW0NASF0oTzEpW0NIM10pW0NIMl1bQ0gyXVtOSF1DKD1PKVtOSF1jMltjSF1bY0hdW2NIXW5jMk4zW0NIMl1bQ0gyXVtDSDJdW0NIMl0z

> <s_epik_cmdline>
J2VwaWtfcHl0aG9uJywgJy1waCcsICc3LjAnLCAnLXRuJywgJzgnLCAnLW1hJywgJzIwMCcsICctbWV0YWxfYmluZGluZycsICctaW1hZScsICc8aW5maWxlLm1hZT4nLCAnLW9tYWUnLCAnPG91dGZpbGUubWFlPic=

> <r_lp_tautomer_probability>
0.999994

> <r_epik_Ionization_Penalty>
1.81601

> <r_epik_Ionization_Penalty_Charging>
1.81599

> <r_epik_Ionization_Penalty_Neutral>
2.01972e-05

> <r_epik_State_Penalty>
1.85672

> <r_epik_Charging_Adjusted_Penalty>
3.6727

> <i_epik_Tot_Q>
2

> <i_epik_Tot_abs_Q>
2

> <r_epik_Metal_State_Penalty>
1.93796

> <b_epik_Metal_Only>
0

> <s_lp_Force_Field>
OPLS_2005

> <r_lp_Energy>
54.6365

> <b_lp_Chiralities_Consistent>
1

> <s_lp_Variant>
AV-unprocessed.smi:1244-14

> <Gold.Version>
5.8.1

> <Gold.Id.Protein>
6NUR|6NUR_protein|mol2

> <Gold.PLP.Fitness>
42.9955

> <Gold.PLP.PLP>
-38.4410

> <Gold.PLP.part.hbond>
-3.6708

> <Gold.PLP.part.metal>
0.0000

> <Gold.PLP.part.buried>
-3.9388

> <Gold.PLP.part.nonpolar>
-30.7764

> <Gold.PLP.part.repulsive>
0.3935

> <Gold.PLP.ligand.clash>
0.0000

> <Gold.PLP.ligand.torsion>
0.6596

> <Gold.PLP.Chemscore.Hbond>
1.8160

> <Gold.PLP.Chemscore.CHOScore>
0.0000

> <Gold.PLP.Chemscore.Metal>
0.0000

> <Gold.Chemscore.Hbonds>
donor molecule, donor type, donor heavy atom, donor atom, acceptor molecule, acceptor atom, score
      L1  H     7    36       P1  7948  0.91
      L1  H    10    37       P1  7948  0.75

> <Gold.PLP.Chemscore.Internal.Correction>
0.4258

> <Gold.Rescore>
     Score         DG    S(hbond)    S(metal)    S(lipo)     H(rot)  DE(clash)    DE(int)     intcor
     13.06     -15.12       1.28        0.00      81.59       1.63       0.11       1.95       ----

> <Gold.Chemscore.Fitness>
13.0553

> <Gold.Chemscore.DG>
-15.1207

> <Gold.Chemscore.ZeroCoef>
-5.4800

> <Gold.Chemscore.Hbond>
1.2772

> <Gold.Chemscore.Metal>
0.0000

> <Gold.Chemscore.Lipo>
81.5862

> <Gold.Chemscore.Internal_Hbond>
0.0000

> <Gold.Chemscore.DEClash>
0.1124

> <Gold.Chemscore.DEInternal>
1.9530

> <Gold.Chemscore.Rot>
1.6293

> <Gold.Chemscore.Internal.Correction>
   9.000000E+99

> <Gold.Chemscore.Hbonds>
donor molecule, donor type, donor heavy atom, donor atom, acceptor molecule, acceptor atom, score
      L1  H     7    36       P1  7948  0.44
      L1  H    10    37       P1  7948  0.09

> <Gold.Chemscore.Hbond.Weighted>
-4.2660

> <Gold.Chemscore.Metal.Weighted>
-0.0000

> <Gold.Chemscore.Lipo.Weighted>
-9.5456

> <Gold.Chemscore.Internal_Hbond.Weighted>
0.0000

> <Gold.Chemscore.DEClash.Weighted>
0.1124

> <Gold.Chemscore.DEInternal.Weighted>
1.9530

> <Gold.Chemscore.Rot.Weighted>
4.1709

> <Gold.Chemscore.Internal.Correction.Weighted>
   9.000000E+99

> <Gold.Protein.RotatedTorsions>
[ 6907 6896 6895 6894 ] final  -18.94 input  -60.11 | X-H torsion
[ 7974 7965 7964 7962 ] final  118.16 input  175.53 | X-H torsion
[ 8008 7997 7996 7995 ] final  110.63 input   59.86 | X-H torsion
[ 10167 10162 10161 10158 ] final  122.17 input  -65.29 | X-H torsion
[ 10718 10713 10712 10709 ] final  -95.33 input   66.30 | X-H torsion
[ 10763 10752 10751 10750 ] final   15.49 input  -60.55 | X-H torsion
[ 11005 11000 10999 10996 ] final   60.05 input  -57.11 | X-H torsion

> <Gold.Protein.ActiveResidues>
 VAL166  LYS551  ARG553  GLY616  TRP617  ASP618  TYR619  PRO620  LYS621  CYS622 
 ASP623  PHE694  ASN695  SER759  ASP760  ASP761  ALA762  ILE779  LEU786  VAL792 
 PHE793  MET794  SER795  GLU796  ALA797  LYS798  CYS799  TRP800  GLU811  SER814 

> <Gold.Protein.RotatedAtoms>
  151.2706  135.0683  159.9132 H   0  0  0  0  0  0  0  0  0  0  0  0  # atno 6907 bound_to 6896
  152.5351  134.0134  159.7959 H   0  0  0  0  0  0  0  0  0  0  0  0  # atno 6908 bound_to 6896
  151.0372  133.5688  159.2685 H   0  0  0  0  0  0  0  0  0  0  0  0  # atno 6909 bound_to 6896
  145.1586  139.3168  143.4529 H   0  0  0  0  0  0  0  0  0  0  0  0  # atno 7974 bound_to 7965
  156.2066  140.3035  155.9641 H   0  0  0  0  0  0  0  0  0  0  0  0  # atno 8008 bound_to 7997
  155.2825  140.0438  157.3034 H   0  0  0  0  0  0  0  0  0  0  0  0  # atno 8009 bound_to 7997
  154.5642  140.2329  155.8298 H   0  0  0  0  0  0  0  0  0  0  0  0  # atno 8010 bound_to 7997
  139.5875  144.7012  151.3373 H   0  0  0  0  0  0  0  0  0  0  0  0  # atno 10167 bound_to 10162
  156.0041  130.5104  150.6060 H   0  0  0  0  0  0  0  0  0  0  0  0  # atno 10718 bound_to 10713
  153.1520  135.6780  153.8868 H   0  0  0  0  0  0  0  0  0  0  0  0  # atno 10763 bound_to 10752
  153.8291  135.3120  155.3418 H   0  0  0  0  0  0  0  0  0  0  0  0  # atno 10764 bound_to 10752
  154.7869  135.4857  154.0053 H   0  0  0  0  0  0  0  0  0  0  0  0  # atno 10765 bound_to 10752
  140.0259  134.6083  155.9573 H   0  0  0  0  0  0  0  0  0  0  0  0  # atno 11005 bound_to 11000
  146.3485  140.1688  142.8590 LP  0  0  0  0  0  0  0  0  0  0  0  0  # atno 17320 bound_to 7965
  145.0355  140.8904  143.5084 LP  0  0  0  0  0  0  0  0  0  0  0  0  # atno 17321 bound_to 7965
  140.7144  143.7306  150.7627 LP  0  0  0  0  0  0  0  0  0  0  0  0  # atno 17342 bound_to 10162
  140.0854  143.4929  152.2508 LP  0  0  0  0  0  0  0  0  0  0  0  0  # atno 17343 bound_to 10162
  157.3900  131.0794  151.1402 LP  0  0  0  0  0  0  0  0  0  0  0  0  # atno 17370 bound_to 10713
  157.2096  130.6432  149.5769 LP  0  0  0  0  0  0  0  0  0  0  0  0  # atno 17371 bound_to 10713
  141.1803  133.6545  156.4991 LP  0  0  0  0  0  0  0  0  0  0  0  0  # atno 17394 bound_to 11000
  140.4307  134.7105  157.4940 LP  0  0  0  0  0  0  0  0  0  0  0  0  # atno 17395 bound_to 11000

$$$$
