AV-unprocessed.smi:2732|AV-procd|sdf|10534|dock2
  -GOLD-   2272014583D 1   1.00000     0.00000
 Structure written by MMmdl.
 35 36  0  0  0  0  0  0  0  0  2 V2000
  152.4459  139.7763  158.0649 C   0  0  0  0  0  0  0  0  0  0  0  0
  151.9063  140.9344  157.2133 C   0  0  2  0  0  0  0  0  0  0  0  0
  150.9904  141.6667  158.0221 O   0  0  0  0  0  0  0  0  0  0  0  0
  151.5796  142.5043  159.0120 C   0  0  0  0  0  0  0  0  0  0  0  0
  151.4000  143.9707  158.6642 C   0  0  0  0  0  0  0  0  0  0  0  0
  152.4990  144.7543  157.9759 C   0  0  0  0  0  0  0  0  0  0  0  0
  152.1616  145.0443  159.4135 C   0  0  0  0  0  0  0  0  0  0  0  0
  151.2005  140.4146  155.9507 C   0  0  0  0  0  0  0  0  0  0  0  0
  151.8545  139.8409  155.0801 O   0  0  0  0  0  0  0  0  0  0  0  0
  149.8745  140.6365  155.8871 N   0  0  0  0  0  0  0  0  0  0  0  0
  148.9619  140.2503  154.8688 C   0  0  0  0  0  0  0  0  0  0  0  0
  147.7599  140.9813  154.7477 C   0  0  0  0  0  0  0  0  0  0  0  0
  146.8160  140.6185  153.7647 C   0  0  0  0  0  0  0  0  0  0  0  0
  147.0875  139.5200  152.9240 C   0  0  0  0  0  0  0  0  0  0  0  0
  146.1974  139.1075  151.9345 N   0  0  0  0  0  0  0  0  0  0  0  0
  148.2404  138.8331  153.0747 N   0  3  0  0  0  0  0  0  0  0  0  0
  149.1714  139.1493  154.0017 C   0  0  0  0  0  0  0  0  0  0  0  0
  153.1533  139.1661  157.5022 H   0  0  0  0  0  0  0  0  0  0  0  0
  151.6435  139.1246  158.4134 H   0  0  0  0  0  0  0  0  0  0  0  0
  152.9661  140.1547  158.9449 H   0  0  0  0  0  0  0  0  0  0  0  0
  152.7435  141.5788  156.9380 H   0  0  0  0  0  0  0  0  0  0  0  0
  151.1164  142.3175  159.9818 H   0  0  0  0  0  0  0  0  0  0  0  0
  152.6470  142.3060  159.1120 H   0  0  0  0  0  0  0  0  0  0  0  0
  150.3826  144.2274  158.3756 H   0  0  0  0  0  0  0  0  0  0  0  0
  153.4416  144.2497  157.7743 H   0  0  0  0  0  0  0  0  0  0  0  0
  152.1989  145.4893  157.2318 H   0  0  0  0  0  0  0  0  0  0  0  0
  151.6364  145.9724  159.6293 H   0  0  0  0  0  0  0  0  0  0  0  0
  152.8782  144.7307  160.1701 H   0  0  0  0  0  0  0  0  0  0  0  0
  149.4846  141.1925  156.6347 H   0  0  0  0  0  0  0  0  0  0  0  0
  147.5607  141.8192  155.4001 H   0  0  0  0  0  0  0  0  0  0  0  0
  145.8970  141.1775  153.6629 H   0  0  0  0  0  0  0  0  0  0  0  0
  145.3194  139.5835  151.7823 H   0  0  0  0  0  0  0  0  0  0  0  0
  146.3992  138.3206  151.3344 H   0  0  0  0  0  0  0  0  0  0  0  0
  150.0338  138.5001  154.0187 H   0  0  0  0  0  0  0  0  0  0  0  0
  148.4184  138.0352  152.4642 H   0  0  0  0  0  0  0  0  0  0  0  0
  1  2  1  0  0  0  0
  1 18  1  0  0  0  0
  1 19  1  0  0  0  0
  1 20  1  0  0  0  0
  2  3  1  0  0  0  0
  2  8  1  0  0  0  0
  2 21  1  0  0  0  0
  3  4  1  0  0  0  0
  4  5  1  0  0  0  0
  4 22  1  0  0  0  0
  4 23  1  0  0  0  0
  5  7  1  0  0  0  0
  5  6  1  0  0  0  0
  5 24  1  0  0  0  0
  6  7  1  0  0  0  0
  6 25  1  0  0  0  0
  6 26  1  0  0  0  0
  7 27  1  0  0  0  0
  7 28  1  0  0  0  0
  8  9  2  0  0  0  0
  8 10  1  0  0  0  0
 10 11  1  0  0  0  0
 10 29  1  0  0  0  0
 11 17  1  0  0  0  0
 11 12  2  0  0  0  0
 12 13  1  0  0  0  0
 12 30  1  0  0  0  0
 13 14  2  0  0  0  0
 13 31  1  0  0  0  0
 14 15  1  0  0  0  0
 14 16  1  0  0  0  0
 15 32  1  0  0  0  0
 15 33  1  0  0  0  0
 16 17  2  0  0  0  0
 16 35  1  0  0  0  0
 17 34  1  0  0  0  0
M  CHG  1  16   1
M  END
> <s_m_source_file>
AV-unprocessed.smi

> <i_m_source_file_index>
2732

> <i_lp_mmshare_version>
43012

> <i_f3d_flags>
0

> <s_epik_input>
W0NIMl0xW0NIMl1bQ0hdMVtDSDJdT1tDQEBIXShbQ0gzXSlDKD1PKVtOSF1jMltjSF1bY0hdYyhbTkgyXSluW2NIXTI=

> <s_epik_cmdline>
J2VwaWtfcHl0aG9uJywgJy1waCcsICc3LjAnLCAnLXRuJywgJzgnLCAnLW1hJywgJzIwMCcsICctbWV0YWxfYmluZGluZycsICctaW1hZScsICc8aW5maWxlLm1hZT4nLCAnLW9tYWUnLCAnPG91dGZpbGUubWFlPic=

> <r_lp_tautomer_probability>
0.999994

> <r_epik_Ionization_Penalty>
1.25173

> <r_epik_Ionization_Penalty_Charging>
1.25172

> <r_epik_Ionization_Penalty_Neutral>
2.35798e-06

> <r_epik_State_Penalty>
1.32157

> <r_epik_Charging_Adjusted_Penalty>
2.5733

> <i_epik_Tot_Q>
1

> <i_epik_Tot_abs_Q>
1

> <r_epik_Metal_State_Penalty>
1.39188

> <b_epik_Metal_Only>
0

> <s_lp_Force_Field>
OPLS_2005

> <r_lp_Energy>
25.4145

> <b_lp_Chiralities_Consistent>
1

> <s_lp_Variant>
AV-unprocessed.smi:2732-3

> <Gold.Version>
5.8.1

> <Gold.Id.Protein>
6NUR|6NUR_protein|mol2

> <Gold.PLP.Fitness>
50.5397

> <Gold.PLP.PLP>
-36.9859

> <Gold.PLP.part.hbond>
-4.5214

> <Gold.PLP.part.metal>
0.0000

> <Gold.PLP.part.buried>
-4.7230

> <Gold.PLP.part.nonpolar>
-28.0929

> <Gold.PLP.part.repulsive>
0.2390

> <Gold.PLP.ligand.clash>
0.0000

> <Gold.PLP.ligand.torsion>
0.9589

> <Gold.PLP.Chemscore.Hbond>
4.9600

> <Gold.PLP.Chemscore.CHOScore>
0.0000

> <Gold.PLP.Chemscore.Metal>
0.0000

> <Gold.Chemscore.Hbonds>
donor molecule, donor type, donor heavy atom, donor atom, acceptor molecule, acceptor atom, score
      L1  H    15    32       P1 10175  2.00
      L1  H    16    35       P1  7948  2.00
      P1  H  7989  7998       L1     9  0.96

> <Gold.PLP.Chemscore.Internal.Correction>
0.5917

> <Gold.Rescore>
     Score         DG    S(hbond)    S(metal)    S(lipo)     H(rot)  DE(clash)    DE(int)     intcor
     17.70     -19.90       2.78        0.00      82.41       1.76       0.02       2.18       ----

> <Gold.Chemscore.Fitness>
17.7014

> <Gold.Chemscore.DG>
-19.9023

> <Gold.Chemscore.ZeroCoef>
-5.4800

> <Gold.Chemscore.Hbond>
2.7804

> <Gold.Chemscore.Metal>
0.0000

> <Gold.Chemscore.Lipo>
82.4121

> <Gold.Chemscore.Internal_Hbond>
0.0000

> <Gold.Chemscore.DEClash>
0.0174

> <Gold.Chemscore.DEInternal>
2.1835

> <Gold.Chemscore.Rot>
1.7604

> <Gold.Chemscore.Internal.Correction>
   9.000000E+99

> <Gold.Chemscore.Hbonds>
donor molecule, donor type, donor heavy atom, donor atom, acceptor molecule, acceptor atom, score
      L1  H    15    32       P1 10175  0.74
      L1  H    16    35       P1  7948  0.99
      P1  H  7989  7998       L1     9  0.56

> <Gold.Chemscore.Hbond.Weighted>
-9.2867

> <Gold.Chemscore.Metal.Weighted>
-0.0000

> <Gold.Chemscore.Lipo.Weighted>
-9.6422

> <Gold.Chemscore.Internal_Hbond.Weighted>
0.0000

> <Gold.Chemscore.DEClash.Weighted>
0.0174

> <Gold.Chemscore.DEInternal.Weighted>
2.1835

> <Gold.Chemscore.Rot.Weighted>
4.5065

> <Gold.Chemscore.Internal.Correction.Weighted>
   9.000000E+99

> <Gold.Protein.RotatedTorsions>
[ 6907 6896 6895 6894 ] final   58.98 input  -60.11 | X-H torsion
[ 7974 7965 7964 7962 ] final  -11.55 input  175.53 | X-H torsion
[ 8008 7997 7996 7995 ] final  -59.12 input   59.86 | X-H torsion
[ 10167 10162 10161 10158 ] final  -87.08 input  -65.29 | X-H torsion
[ 10718 10713 10712 10709 ] final  101.83 input   66.30 | X-H torsion
[ 10763 10752 10751 10750 ] final -119.17 input  -60.55 | X-H torsion
[ 11005 11000 10999 10996 ] final  151.17 input  -57.11 | X-H torsion

> <Gold.Protein.ActiveResidues>
 VAL166  LYS551  ARG553  GLY616  TRP617  ASP618  TYR619  PRO620  LYS621  CYS622 
 ASP623  PHE694  ASN695  SER759  ASP760  ASP761  ALA762  ILE779  LEU786  VAL792 
 PHE793  MET794  SER795  GLU796  ALA797  LYS798  CYS799  TRP800  GLU811  SER814 

> <Gold.Protein.RotatedAtoms>
  152.3873  134.6497  160.0120 H   0  0  0  0  0  0  0  0  0  0  0  0  # atno 6907 bound_to 6896
  151.6741  133.3307  159.3211 H   0  0  0  0  0  0  0  0  0  0  0  0  # atno 6908 bound_to 6896
  150.7796  134.6773  159.6469 H   0  0  0  0  0  0  0  0  0  0  0  0  # atno 6909 bound_to 6896
  146.2183  140.2928  142.8369 H   0  0  0  0  0  0  0  0  0  0  0  0  # atno 7974 bound_to 7965
  154.4338  140.1069  156.6065 H   0  0  0  0  0  0  0  0  0  0  0  0  # atno 8008 bound_to 7997
  155.5855  140.3491  155.4533 H   0  0  0  0  0  0  0  0  0  0  0  0  # atno 8009 bound_to 7997
  156.0286  140.1255  157.0272 H   0  0  0  0  0  0  0  0  0  0  0  0  # atno 8010 bound_to 7997
  140.3879  143.2718  151.9301 H   0  0  0  0  0  0  0  0  0  0  0  0  # atno 10167 bound_to 10162
  157.6819  131.0737  150.5312 H   0  0  0  0  0  0  0  0  0  0  0  0  # atno 10718 bound_to 10713
  154.8609  135.4248  154.2255 H   0  0  0  0  0  0  0  0  0  0  0  0  # atno 10763 bound_to 10752
  153.3251  135.6984  153.7002 H   0  0  0  0  0  0  0  0  0  0  0  0  # atno 10764 bound_to 10752
  153.6041  135.3531  155.2929 H   0  0  0  0  0  0  0  0  0  0  0  0  # atno 10765 bound_to 10752
  140.1195  134.8873  157.2052 H   0  0  0  0  0  0  0  0  0  0  0  0  # atno 11005 bound_to 11000
  144.9114  140.7762  143.5805 LP  0  0  0  0  0  0  0  0  0  0  0  0  # atno 17320 bound_to 7965
  145.2859  139.1901  143.4766 LP  0  0  0  0  0  0  0  0  0  0  0  0  # atno 17321 bound_to 7965
  139.4791  144.5755  151.8018 LP  0  0  0  0  0  0  0  0  0  0  0  0  # atno 17342 bound_to 10162
  140.4870  144.1367  150.5943 LP  0  0  0  0  0  0  0  0  0  0  0  0  # atno 17343 bound_to 10162
  156.5622  130.4258  149.6058 LP  0  0  0  0  0  0  0  0  0  0  0  0  # atno 17370 bound_to 10713
  156.2812  130.7071  151.1896 LP  0  0  0  0  0  0  0  0  0  0  0  0  # atno 17371 bound_to 10713
  140.2984  134.3160  155.7296 LP  0  0  0  0  0  0  0  0  0  0  0  0  # atno 17394 bound_to 11000
  141.2148  133.7577  156.9605 LP  0  0  0  0  0  0  0  0  0  0  0  0  # atno 17395 bound_to 11000

$$$$
