AV-unprocessed.smi:1293|AV-procd|sdf|5399|dock5
  -GOLD-   22720 4553D 1   1.00000     0.00000
 Structure written by MMmdl.
 39 40  0  0  0  0  0  0  0  0  1 V2000
  154.6231  134.6672  163.6120 C   0  0  0  0  0  0  0  0  0  0  0  0
  154.3578  135.8211  164.3896 O   0  0  0  0  0  0  0  0  0  0  0  0
  153.8541  136.8965  163.6139 C   0  0  0  0  0  0  0  0  0  0  0  0
  154.8646  137.2495  162.5103 C   0  0  0  0  0  0  0  0  0  0  0  0
  154.2119  137.8806  161.3538 N   0  0  0  0  0  0  0  0  0  0  0  0
  154.1607  139.2885  161.3391 C   0  0  0  0  0  0  0  0  0  0  0  0
  153.5922  139.9833  160.3290 C   0  0  0  0  0  0  0  0  0  0  0  0
  153.5183  141.3817  160.2387 N   0  0  0  0  0  0  0  0  0  0  0  0
  152.9276  142.1541  159.3044 C   0  0  0  0  0  0  0  0  0  0  0  0
  152.3438  141.7371  158.3041 O   0  0  0  0  0  0  0  0  0  0  0  0
  153.0231  143.6703  159.5482 C   0  0  0  0  0  0  0  0  0  0  0  0
  152.2202  144.0980  160.7917 C   0  0  0  0  0  0  0  0  0  0  0  0
  150.8841  144.6129  160.2589 C   0  0  0  0  0  0  0  0  0  0  0  0
  151.2559  145.2997  158.9478 C   0  0  0  0  0  0  0  0  0  0  0  0
  152.4253  144.4860  158.3775 C   0  0  0  0  0  0  0  0  0  0  0  0
  153.0308  139.2108  159.2415 C   0  0  0  0  0  0  0  0  0  0  0  0
  153.0824  137.8648  159.2410 C   0  0  0  0  0  0  0  0  0  0  0  0
  153.7051  137.1208  160.3381 C   0  0  0  0  0  0  0  0  0  0  0  0
  153.7682  135.8911  160.3411 O   0  0  0  0  0  0  0  0  0  0  0  0
  155.0042  133.8729  164.2541 H   0  0  0  0  0  0  0  0  0  0  0  0
  155.3738  134.8714  162.8473 H   0  0  0  0  0  0  0  0  0  0  0  0
  153.7174  134.3022  163.1263 H   0  0  0  0  0  0  0  0  0  0  0  0
  152.8863  136.6370  163.1816 H   0  0  0  0  0  0  0  0  0  0  0  0
  153.6990  137.7648  164.2557 H   0  0  0  0  0  0  0  0  0  0  0  0
  155.6311  137.9121  162.9158 H   0  0  0  0  0  0  0  0  0  0  0  0
  155.4054  136.3521  162.2059 H   0  0  0  0  0  0  0  0  0  0  0  0
  154.6311  139.7373  162.1991 H   0  0  0  0  0  0  0  0  0  0  0  0
  153.9790  141.8756  160.9891 H   0  0  0  0  0  0  0  0  0  0  0  0
  154.0709  143.9417  159.6905 H   0  0  0  0  0  0  0  0  0  0  0  0
  152.0850  143.2967  161.5200 H   0  0  0  0  0  0  0  0  0  0  0  0
  152.7458  144.9063  161.3018 H   0  0  0  0  0  0  0  0  0  0  0  0
  150.2139  143.7751  160.0620 H   0  0  0  0  0  0  0  0  0  0  0  0
  150.3834  145.2835  160.9575 H   0  0  0  0  0  0  0  0  0  0  0  0
  150.4144  145.3628  158.2575 H   0  0  0  0  0  0  0  0  0  0  0  0
  151.5886  146.3177  159.1546 H   0  0  0  0  0  0  0  0  0  0  0  0
  153.1727  145.1462  157.9360 H   0  0  0  0  0  0  0  0  0  0  0  0
  152.0677  143.8416  157.5724 H   0  0  0  0  0  0  0  0  0  0  0  0
  152.5612  139.7182  158.4112 H   0  0  0  0  0  0  0  0  0  0  0  0
  152.6546  137.3190  158.4129 H   0  0  0  0  0  0  0  0  0  0  0  0
  1  2  1  0  0  0  0
  1 20  1  0  0  0  0
  1 21  1  0  0  0  0
  1 22  1  0  0  0  0
  2  3  1  0  0  0  0
  3  4  1  0  0  0  0
  3 23  1  0  0  0  0
  3 24  1  0  0  0  0
  4  5  1  0  0  0  0
  4 25  1  0  0  0  0
  4 26  1  0  0  0  0
  5 18  1  0  0  0  0
  5  6  1  0  0  0  0
  6  7  2  0  0  0  0
  6 27  1  0  0  0  0
  7  8  1  0  0  0  0
  7 16  1  0  0  0  0
  8  9  1  0  0  0  0
  8 28  1  0  0  0  0
  9 10  2  0  0  0  0
  9 11  1  0  0  0  0
 11 15  1  0  0  0  0
 11 12  1  0  0  0  0
 11 29  1  0  0  0  0
 12 13  1  0  0  0  0
 12 30  1  0  0  0  0
 12 31  1  0  0  0  0
 13 14  1  0  0  0  0
 13 32  1  0  0  0  0
 13 33  1  0  0  0  0
 14 15  1  0  0  0  0
 14 34  1  0  0  0  0
 14 35  1  0  0  0  0
 15 36  1  0  0  0  0
 15 37  1  0  0  0  0
 16 17  2  0  0  0  0
 16 38  1  0  0  0  0
 17 18  1  0  0  0  0
 17 39  1  0  0  0  0
 18 19  2  0  0  0  0
M  END
> <s_m_source_file>
AV-unprocessed.smi

> <i_m_source_file_index>
1293

> <i_lp_mmshare_version>
43012

> <i_f3d_flags>
0

> <s_epik_input>
W0NIM11PW0NIMl1bQ0gyXW4xW2NIXWMoW2NIXVtjSF1jMT1PKVtOSF1DKD1PKVtDSF0yW0NIMl1bQ0gyXVtDSDJdW0NIMl0y

> <s_epik_cmdline>
J2VwaWtfcHl0aG9uJywgJy1waCcsICc3LjAnLCAnLXRuJywgJzgnLCAnLW1hJywgJzIwMCcsICctbWV0YWxfYmluZGluZycsICctaW1hZScsICc8aW5maWxlLm1hZT4nLCAnLW9tYWUnLCAnPG91dGZpbGUubWFlPic=

> <r_lp_tautomer_probability>
1

> <r_epik_Ionization_Penalty>
2.42474e-06

> <r_epik_Ionization_Penalty_Charging>
2.30353e-06

> <r_epik_Ionization_Penalty_Neutral>
1.21208e-07

> <r_epik_State_Penalty>
-0

> <r_epik_Charging_Adjusted_Penalty>
2.30353e-06

> <i_epik_Tot_Q>
0

> <i_epik_Tot_abs_Q>
0

> <r_epik_Metal_State_Penalty>
-0

> <b_epik_Metal_Only>
0

> <s_lp_Force_Field>
OPLS_2005

> <r_lp_Energy>
36.4395

> <b_lp_Chiralities_Consistent>
1

> <s_lp_Variant>
AV-unprocessed.smi:1293-1

> <Gold.Version>
5.8.1

> <Gold.Id.Protein>
6NUR|6NUR_protein|mol2

> <Gold.PLP.Fitness>
44.1967

> <Gold.PLP.PLP>
-42.3388

> <Gold.PLP.part.hbond>
-1.0000

> <Gold.PLP.part.metal>
0.0000

> <Gold.PLP.part.buried>
-5.2122

> <Gold.PLP.part.nonpolar>
-35.8217

> <Gold.PLP.part.repulsive>
0.1498

> <Gold.PLP.ligand.clash>
0.0000

> <Gold.PLP.ligand.torsion>
0.5826

> <Gold.PLP.Chemscore.Hbond>
1.0000

> <Gold.PLP.Chemscore.CHOScore>
0.0000

> <Gold.PLP.Chemscore.Metal>
0.0000

> <Gold.Chemscore.Hbonds>
donor molecule, donor type, donor heavy atom, donor atom, acceptor molecule, acceptor atom, score
      P1  H  6896  6908       L1    19  1.00

> <Gold.PLP.Chemscore.Internal.Correction>
0.0231

> <Gold.Rescore>
     Score         DG    S(hbond)    S(metal)    S(lipo)     H(rot)  DE(clash)    DE(int)     intcor
     16.16     -18.11       0.99        0.00     113.08       1.53       0.05       1.89       ----

> <Gold.Chemscore.Fitness>
16.1650

> <Gold.Chemscore.DG>
-18.1111

> <Gold.Chemscore.ZeroCoef>
-5.4800

> <Gold.Chemscore.Hbond>
0.9943

> <Gold.Chemscore.Metal>
0.0000

> <Gold.Chemscore.Lipo>
113.0850

> <Gold.Chemscore.Internal_Hbond>
0.0000

> <Gold.Chemscore.DEClash>
0.0530

> <Gold.Chemscore.DEInternal>
1.8931

> <Gold.Chemscore.Rot>
1.5316

> <Gold.Chemscore.Internal.Correction>
   9.000000E+99

> <Gold.Chemscore.Hbonds>
donor molecule, donor type, donor heavy atom, donor atom, acceptor molecule, acceptor atom, score
      P1  H  6896  6908       L1    19  1.00

> <Gold.Chemscore.Hbond.Weighted>
-3.3210

> <Gold.Chemscore.Metal.Weighted>
-0.0000

> <Gold.Chemscore.Lipo.Weighted>
-13.2309

> <Gold.Chemscore.Internal_Hbond.Weighted>
0.0000

> <Gold.Chemscore.DEClash.Weighted>
0.0530

> <Gold.Chemscore.DEInternal.Weighted>
1.8931

> <Gold.Chemscore.Rot.Weighted>
3.9209

> <Gold.Chemscore.Internal.Correction.Weighted>
   9.000000E+99

> <Gold.Protein.RotatedTorsions>
[ 6907 6896 6895 6894 ] final  -63.34 input  -60.11 | X-H torsion
[ 7974 7965 7964 7962 ] final   60.01 input  175.53 | X-H torsion
[ 8008 7997 7996 7995 ] final  124.86 input   59.86 | X-H torsion
[ 10167 10162 10161 10158 ] final -179.12 input  -65.29 | X-H torsion
[ 10718 10713 10712 10709 ] final   73.66 input   66.30 | X-H torsion
[ 10763 10752 10751 10750 ] final -156.06 input  -60.55 | X-H torsion
[ 11005 11000 10999 10996 ] final   82.72 input  -57.11 | X-H torsion

> <Gold.Protein.ActiveResidues>
 VAL166  LYS551  ARG553  GLY616  TRP617  ASP618  TYR619  PRO620  LYS621  CYS622 
 ASP623  PHE694  ASN695  SER759  ASP760  ASP761  ALA762  ILE779  LEU786  VAL792 
 PHE793  MET794  SER795  GLU796  ALA797  LYS798  CYS799  TRP800  GLU811  SER814 

> <Gold.Protein.RotatedAtoms>
  150.7656  134.6449  159.6256 H   0  0  0  0  0  0  0  0  0  0  0  0  # atno 6907 bound_to 6896
  152.3685  134.6765  160.0193 H   0  0  0  0  0  0  0  0  0  0  0  0  # atno 6908 bound_to 6896
  151.7133  133.3276  159.3332 H   0  0  0  0  0  0  0  0  0  0  0  0  # atno 6909 bound_to 6896
  145.9008  139.3580  143.0593 H   0  0  0  0  0  0  0  0  0  0  0  0  # atno 7974 bound_to 7965
  156.2815  140.2730  156.1856 H   0  0  0  0  0  0  0  0  0  0  0  0  # atno 8008 bound_to 7997
  155.0511  140.0386  157.2562 H   0  0  0  0  0  0  0  0  0  0  0  0  # atno 8009 bound_to 7997
  154.7194  140.2685  155.6561 H   0  0  0  0  0  0  0  0  0  0  0  0  # atno 8010 bound_to 7997
  139.5401  144.2387  152.0877 H   0  0  0  0  0  0  0  0  0  0  0  0  # atno 10167 bound_to 10162
  157.6558  130.9639  150.1101 H   0  0  0  0  0  0  0  0  0  0  0  0  # atno 10718 bound_to 10713
  154.7741  135.3154  154.8129 H   0  0  0  0  0  0  0  0  0  0  0  0  # atno 10763 bound_to 10752
  153.8857  135.6830  153.4768 H   0  0  0  0  0  0  0  0  0  0  0  0  # atno 10764 bound_to 10752
  153.1361  135.4759  154.9359 H   0  0  0  0  0  0  0  0  0  0  0  0  # atno 10765 bound_to 10752
  139.9054  134.8092  156.2213 H   0  0  0  0  0  0  0  0  0  0  0  0  # atno 11005 bound_to 11000
  145.8793  140.9372  143.0610 LP  0  0  0  0  0  0  0  0  0  0  0  0  # atno 17320 bound_to 7965
  144.6736  140.0758  143.7471 LP  0  0  0  0  0  0  0  0  0  0  0  0  # atno 17321 bound_to 7965
  140.1864  144.4794  150.6501 LP  0  0  0  0  0  0  0  0  0  0  0  0  # atno 17342 bound_to 10162
  140.6627  143.2257  151.5818 LP  0  0  0  0  0  0  0  0  0  0  0  0  # atno 17343 bound_to 10162
  156.2000  130.3659  149.8800 LP  0  0  0  0  0  0  0  0  0  0  0  0  # atno 17370 bound_to 10713
  156.6707  130.8819  151.3561 LP  0  0  0  0  0  0  0  0  0  0  0  0  # atno 17371 bound_to 10713
  141.0404  133.6941  156.1587 LP  0  0  0  0  0  0  0  0  0  0  0  0  # atno 17394 bound_to 11000
  140.6964  134.4611  157.5587 LP  0  0  0  0  0  0  0  0  0  0  0  0  # atno 17395 bound_to 11000

$$$$
