AV-unprocessed.smi:442|AV-procd|sdf|2584|dock5
  -GOLD-   2262022573D 1   1.00000     0.00000
 Structure written by MMmdl.
 37 37  0  0  0  0  0  0  0  0  3 V2000
  150.0808  145.5491  160.0562 C   0  0  0  0  0  0  0  0  0  0  0  0
  150.5768  144.1607  160.4849 C   0  0  0  0  0  0  0  0  0  0  0  0
  151.8558  143.6988  159.7584 C   0  0  1  0  0  0  0  0  0  0  0  0
  152.3767  142.3708  160.3248 C   0  0  0  0  0  0  0  0  0  0  0  0
  151.6093  143.5351  158.3279 N   0  0  0  0  0  0  0  0  0  0  0  0
  151.0510  142.4674  157.7306 C   0  0  0  0  0  0  0  0  0  0  0  0
  150.6912  141.4667  158.3491 O   0  0  0  0  0  0  0  0  0  0  0  0
  150.8651  142.5050  156.2034 C   0  0  0  0  0  0  0  0  0  0  0  0
  150.4968  141.2138  155.5891 N   0  0  0  0  0  0  0  0  0  0  0  0
  149.2713  141.1775  154.9000 C   0  0  0  0  0  0  0  0  0  0  0  0
  148.8165  140.0618  154.3034 C   0  0  0  0  0  0  0  0  0  0  0  0
  147.5459  140.0473  153.6104 N   0  3  0  0  0  0  0  0  0  0  0  0
  147.0915  138.9716  153.2343 O   0  0  0  0  0  0  0  0  0  0  0  0
  146.9594  141.1084  153.4194 O   0  5  0  0  0  0  0  0  0  0  0  0
  149.6348  138.8696  154.3841 C   0  0  0  0  0  0  0  0  0  0  0  0
  150.8180  138.8789  155.0498 C   0  0  0  0  0  0  0  0  0  0  0  0
  151.6842  137.6837  155.1610 C   0  0  0  0  0  0  0  0  0  0  0  0
  151.4426  136.7399  154.2427 N   0  0  0  0  0  0  0  0  0  0  0  0
  152.5718  137.4881  155.9909 O   0  0  0  0  0  0  0  0  0  0  0  0
  151.3085  140.1173  155.7141 C   0  0  0  0  0  0  0  0  0  0  0  0
  152.3609  140.2049  156.3519 O   0  0  0  0  0  0  0  0  0  0  0  0
  149.2127  145.8473  160.6440 H   0  0  0  0  0  0  0  0  0  0  0  0
  149.7866  145.5646  159.0068 H   0  0  0  0  0  0  0  0  0  0  0  0
  150.8541  146.3042  160.1994 H   0  0  0  0  0  0  0  0  0  0  0  0
  150.7653  144.1804  161.5589 H   0  0  0  0  0  0  0  0  0  0  0  0
  149.7806  143.4311  160.3317 H   0  0  0  0  0  0  0  0  0  0  0  0
  152.6332  144.4472  159.9217 H   0  0  0  0  0  0  0  0  0  0  0  0
  152.5955  142.4564  161.3895 H   0  0  0  0  0  0  0  0  0  0  0  0
  153.2959  142.0647  159.8242 H   0  0  0  0  0  0  0  0  0  0  0  0
  151.6466  141.5705  160.1983 H   0  0  0  0  0  0  0  0  0  0  0  0
  151.8765  144.3097  157.7383 H   0  0  0  0  0  0  0  0  0  0  0  0
  150.1068  143.2563  155.9783 H   0  0  0  0  0  0  0  0  0  0  0  0
  151.7790  142.8968  155.7537 H   0  0  0  0  0  0  0  0  0  0  0  0
  148.7295  142.1125  154.9019 H   0  0  0  0  0  0  0  0  0  0  0  0
  149.2737  137.9749  153.8998 H   0  0  0  0  0  0  0  0  0  0  0  0
  151.9822  135.8869  154.2367 H   0  0  0  0  0  0  0  0  0  0  0  0
  150.7169  136.8870  153.5559 H   0  0  0  0  0  0  0  0  0  0  0  0
  1  2  1  0  0  0  0
  1 22  1  0  0  0  0
  1 23  1  0  0  0  0
  1 24  1  0  0  0  0
  2  3  1  0  0  0  0
  2 25  1  0  0  0  0
  2 26  1  0  0  0  0
  3  4  1  0  0  0  0
  3  5  1  0  0  0  0
  3 27  1  0  0  0  0
  4 28  1  0  0  0  0
  4 29  1  0  0  0  0
  4 30  1  0  0  0  0
  5  6  1  0  0  0  0
  5 31  1  0  0  0  0
  6  7  2  0  0  0  0
  6  8  1  0  0  0  0
  8  9  1  0  0  0  0
  8 32  1  0  0  0  0
  8 33  1  0  0  0  0
  9 20  1  0  0  0  0
  9 10  1  0  0  0  0
 10 11  2  0  0  0  0
 10 34  1  0  0  0  0
 11 12  1  0  0  0  0
 11 15  1  0  0  0  0
 12 13  2  0  0  0  0
 12 14  1  0  0  0  0
 15 16  2  0  0  0  0
 15 35  1  0  0  0  0
 16 17  1  0  0  0  0
 16 20  1  0  0  0  0
 17 18  1  0  0  0  0
 17 19  2  0  0  0  0
 18 36  1  0  0  0  0
 18 37  1  0  0  0  0
 20 21  2  0  0  0  0
M  CHG  1  12   1
M  CHG  1  14  -1
M  END
> <s_m_source_file>
AV-unprocessed.smi

> <i_m_source_file_index>
442

> <i_lp_mmshare_version>
43012

> <i_f3d_flags>
0

> <s_epik_input>
W0NIM11bQ0gyXVtDQEhdKFtDSDNdKVtOSF1DKD1PKVtDSDJdbjFbY0hdYyhbTitdKD1PKVtPLV0pW2NIXWMoYzE9TylDKD1PKVtOSDJd

> <s_epik_cmdline>
J2VwaWtfcHl0aG9uJywgJy1waCcsICc3LjAnLCAnLXRuJywgJzgnLCAnLW1hJywgJzIwMCcsICctbWV0YWxfYmluZGluZycsICctaW1hZScsICc8aW5maWxlLm1hZT4nLCAnLW9tYWUnLCAnPG91dGZpbGUubWFlPic=

> <r_lp_tautomer_probability>
1

> <r_epik_Ionization_Penalty>
2.86914e-06

> <r_epik_Ionization_Penalty_Charging>
2.2828e-12

> <r_epik_Ionization_Penalty_Neutral>
2.86914e-06

> <r_epik_State_Penalty>
-0

> <r_epik_Charging_Adjusted_Penalty>
2.2828e-12

> <i_epik_Tot_Q>
0

> <i_epik_Tot_abs_Q>
2

> <r_epik_Metal_State_Penalty>
-0

> <b_epik_Metal_Only>
0

> <s_lp_Force_Field>
OPLS_2005

> <r_lp_Energy>
22.4314

> <b_lp_Chiralities_Consistent>
1

> <s_lp_Variant>
AV-unprocessed.smi:442-2

> <Gold.Version>
5.8.1

> <Gold.Id.Protein>
6NUR|6NUR_protein|mol2

> <Gold.PLP.Fitness>
49.9668

> <Gold.PLP.PLP>
-40.2786

> <Gold.PLP.part.hbond>
-4.0000

> <Gold.PLP.part.metal>
0.0000

> <Gold.PLP.part.buried>
-5.1133

> <Gold.PLP.part.nonpolar>
-31.0764

> <Gold.PLP.part.repulsive>
0.5212

> <Gold.PLP.ligand.clash>
0.0045

> <Gold.PLP.ligand.torsion>
0.6169

> <Gold.PLP.Chemscore.Hbond>
2.6279

> <Gold.PLP.Chemscore.CHOScore>
1.0000

> <Gold.PLP.Chemscore.Metal>
0.0000

> <Gold.Chemscore.Hbonds>
donor molecule, donor type, donor heavy atom, donor atom, acceptor molecule, acceptor atom, score
      L1  H    18    37       P1  7949  0.07
      P1  H  7997  8008       L1    21  1.00
      P1  H 10752 10764       L1    19  0.05
      L1  C    10    34       P1  8028  0.56

> <Gold.PLP.Chemscore.Internal.Correction>
0.0429

> <Gold.Rescore>
     Score         DG    S(hbond)    S(metal)    S(lipo)     H(rot)  DE(clash)    DE(int)     intcor
     11.71     -15.49       1.94        0.00      74.68       2.03       0.45       3.32       ----

> <Gold.Chemscore.Fitness>
11.7139

> <Gold.Chemscore.DG>
-15.4888

> <Gold.Chemscore.ZeroCoef>
-5.4800

> <Gold.Chemscore.Hbond>
1.9395

> <Gold.Chemscore.Metal>
0.0000

> <Gold.Chemscore.Lipo>
74.6827

> <Gold.Chemscore.Internal_Hbond>
0.0000

> <Gold.Chemscore.DEClash>
0.4541

> <Gold.Chemscore.DEInternal>
3.3208

> <Gold.Chemscore.Rot>
2.0340

> <Gold.Chemscore.Internal.Correction>
   9.000000E+99

> <Gold.Chemscore.Hbonds>
donor molecule, donor type, donor heavy atom, donor atom, acceptor molecule, acceptor atom, score
      L1  H    18    37       P1  7949  0.01
      P1  H  7997  8008       L1    21  0.95

> <Gold.Chemscore.Hbond.Weighted>
-6.4780

> <Gold.Chemscore.Metal.Weighted>
-0.0000

> <Gold.Chemscore.Lipo.Weighted>
-8.7379

> <Gold.Chemscore.Internal_Hbond.Weighted>
0.0000

> <Gold.Chemscore.DEClash.Weighted>
0.4541

> <Gold.Chemscore.DEInternal.Weighted>
3.3208

> <Gold.Chemscore.Rot.Weighted>
5.2071

> <Gold.Chemscore.Internal.Correction.Weighted>
   9.000000E+99

> <Gold.Protein.RotatedTorsions>
[ 6907 6896 6895 6894 ] final    0.76 input  -60.11 | X-H torsion
[ 7974 7965 7964 7962 ] final   34.67 input  175.53 | X-H torsion
[ 8008 7997 7996 7995 ] final  -37.60 input   59.86 | X-H torsion
[ 10167 10162 10161 10158 ] final  -42.15 input  -65.29 | X-H torsion
[ 10718 10713 10712 10709 ] final  -68.21 input   66.30 | X-H torsion
[ 10763 10752 10751 10750 ] final  -49.23 input  -60.55 | X-H torsion
[ 11005 11000 10999 10996 ] final   36.42 input  -57.11 | X-H torsion

> <Gold.Protein.ActiveResidues>
 VAL166  LYS551  ARG553  GLY616  TRP617  ASP618  TYR619  PRO620  LYS621  CYS622 
 ASP623  PHE694  ASN695  SER759  ASP760  ASP761  ALA762  ILE779  LEU786  VAL792 
 PHE793  MET794  SER795  GLU796  ALA797  LYS798  CYS799  TRP800  GLU811  SER814 

> <Gold.Protein.RotatedAtoms>
  151.5816  135.1058  160.0018 H   0  0  0  0  0  0  0  0  0  0  0  0  # atno 6907 bound_to 6896
  152.4351  133.7342  159.6615 H   0  0  0  0  0  0  0  0  0  0  0  0  # atno 6908 bound_to 6896
  150.8248  133.8121  159.3146 H   0  0  0  0  0  0  0  0  0  0  0  0  # atno 6909 bound_to 6896
  146.1337  139.6239  142.9210 H   0  0  0  0  0  0  0  0  0  0  0  0  # atno 7974 bound_to 7965
  154.4051  140.1600  156.2563 H   0  0  0  0  0  0  0  0  0  0  0  0  # atno 8008 bound_to 7997
  155.9075  140.3429  155.6051 H   0  0  0  0  0  0  0  0  0  0  0  0  # atno 8009 bound_to 7997
  155.7375  140.0788  157.2251 H   0  0  0  0  0  0  0  0  0  0  0  0  # atno 8010 bound_to 7997
  140.6979  143.3054  151.3168 H   0  0  0  0  0  0  0  0  0  0  0  0  # atno 10167 bound_to 10162
  156.0517  130.4291  150.1967 H   0  0  0  0  0  0  0  0  0  0  0  0  # atno 10718 bound_to 10713
  154.0907  135.6578  153.4852 H   0  0  0  0  0  0  0  0  0  0  0  0  # atno 10763 bound_to 10752
  153.0323  135.5202  154.7383 H   0  0  0  0  0  0  0  0  0  0  0  0  # atno 10764 bound_to 10752
  154.6506  135.3001  154.9960 H   0  0  0  0  0  0  0  0  0  0  0  0  # atno 10765 bound_to 10752
  140.2328  134.3507  155.7957 H   0  0  0  0  0  0  0  0  0  0  0  0  # atno 11005 bound_to 11000
  145.5205  141.0432  143.2438 LP  0  0  0  0  0  0  0  0  0  0  0  0  # atno 17320 bound_to 7965
  144.7717  139.6721  143.7192 LP  0  0  0  0  0  0  0  0  0  0  0  0  # atno 17321 bound_to 7965
  139.6457  144.0455  152.2589 LP  0  0  0  0  0  0  0  0  0  0  0  0  # atno 17342 bound_to 10162
  139.9975  144.6317  150.7759 LP  0  0  0  0  0  0  0  0  0  0  0  0  # atno 17343 bound_to 10162
  157.0049  130.9933  151.3381 LP  0  0  0  0  0  0  0  0  0  0  0  0  # atno 17370 bound_to 10713
  157.5450  130.8144  149.8074 LP  0  0  0  0  0  0  0  0  0  0  0  0  # atno 17371 bound_to 10713
  141.2216  133.7255  156.8759 LP  0  0  0  0  0  0  0  0  0  0  0  0  # atno 17394 bound_to 11000
  140.1733  134.9085  157.2860 LP  0  0  0  0  0  0  0  0  0  0  0  0  # atno 17395 bound_to 11000

$$$$
