AV-unprocessed.smi:3273|AV-procd|sdf|12521|dock6
  -GOLD-   2272018433D 1   1.00000     0.00000
 Structure written by MMmdl.
 41 42  0  0  0  0  0  0  0  0  1 V2000
  148.0762  142.0076  154.0616 C   0  0  0  0  0  0  0  0  0  0  0  0
  148.5016  140.5267  153.9974 C   0  0  0  0  0  0  0  0  0  0  0  0
  147.2709  139.6418  154.2727 C   0  0  0  0  0  0  0  0  0  0  0  0
  149.6995  140.2209  154.9471 C   0  0  1  0  0  0  0  0  0  0  0  0
  149.4946  140.7482  156.3915 C   0  0  0  0  0  0  0  0  0  0  0  0
  150.0147  142.1013  156.5761 N   0  0  0  0  0  0  0  0  0  0  0  0
  151.1191  142.4216  157.2680 C   0  0  0  0  0  0  0  0  0  0  0  0
  151.8653  141.5870  157.7800 O   0  0  0  0  0  0  0  0  0  0  0  0
  151.4175  143.9127  157.4219 C   0  0  0  0  0  0  0  0  0  0  0  0
  151.1815  144.3912  158.8438 C   0  0  0  0  0  0  0  0  0  0  0  0
  151.8304  145.6562  159.3566 C   0  0  0  0  0  0  0  0  0  0  0  0
  152.2728  144.3155  159.8890 C   0  0  0  0  0  0  0  0  0  0  0  0
  150.0856  138.7618  154.9576 C   0  0  0  0  0  0  0  0  0  0  0  0
  149.3250  137.6395  155.1521 C   0  0  0  0  0  0  0  0  0  0  0  0
  150.2563  136.5680  155.0973 C   0  0  0  0  0  0  0  0  0  0  0  0
  151.4924  136.9832  154.8897 N   0  0  0  0  0  0  0  0  0  0  0  0
  151.3929  138.3273  154.8105 N   0  0  0  0  0  0  0  0  0  0  0  0
  152.5970  139.1073  154.5928 C   0  0  0  0  0  0  0  0  0  0  0  0
  147.7752  142.2873  155.0716 H   0  0  0  0  0  0  0  0  0  0  0  0
  147.2314  142.2020  153.4004 H   0  0  0  0  0  0  0  0  0  0  0  0
  148.8749  142.6827  153.7564 H   0  0  0  0  0  0  0  0  0  0  0  0
  148.8150  140.3265  152.9720 H   0  0  0  0  0  0  0  0  0  0  0  0
  146.9518  139.7172  155.3126 H   0  0  0  0  0  0  0  0  0  0  0  0
  147.4663  138.5926  154.0533 H   0  0  0  0  0  0  0  0  0  0  0  0
  146.4282  139.9366  153.6466 H   0  0  0  0  0  0  0  0  0  0  0  0
  150.5449  140.7788  154.5431 H   0  0  0  0  0  0  0  0  0  0  0  0
  148.4372  140.7091  156.6557 H   0  0  0  0  0  0  0  0  0  0  0  0
  149.9826  140.0969  157.1151 H   0  0  0  0  0  0  0  0  0  0  0  0
  149.4676  142.8549  156.1859 H   0  0  0  0  0  0  0  0  0  0  0  0
  152.4579  144.0879  157.1455 H   0  0  0  0  0  0  0  0  0  0  0  0
  150.8040  144.5038  156.7406 H   0  0  0  0  0  0  0  0  0  0  0  0
  150.1733  144.1950  159.2049 H   0  0  0  0  0  0  0  0  0  0  0  0
  152.5154  146.1822  158.6946 H   0  0  0  0  0  0  0  0  0  0  0  0
  151.2410  146.2899  160.0159 H   0  0  0  0  0  0  0  0  0  0  0  0
  151.9770  144.0507  160.9022 H   0  0  0  0  0  0  0  0  0  0  0  0
  153.2503  143.9512  159.5788 H   0  0  0  0  0  0  0  0  0  0  0  0
  148.2593  137.5917  155.3199 H   0  0  0  0  0  0  0  0  0  0  0  0
  150.0726  135.5095  155.2062 H   0  0  0  0  0  0  0  0  0  0  0  0
  152.7646  139.7723  155.4395 H   0  0  0  0  0  0  0  0  0  0  0  0
  152.4922  139.7011  153.6847 H   0  0  0  0  0  0  0  0  0  0  0  0
  153.4643  138.4547  154.4847 H   0  0  0  0  0  0  0  0  0  0  0  0
  1  2  1  0  0  0  0
  1 19  1  0  0  0  0
  1 20  1  0  0  0  0
  1 21  1  0  0  0  0
  2  3  1  0  0  0  0
  2  4  1  0  0  0  0
  2 22  1  0  0  0  0
  3 23  1  0  0  0  0
  3 24  1  0  0  0  0
  3 25  1  0  0  0  0
  4  5  1  0  0  0  0
  4 13  1  0  0  0  0
  4 26  1  0  0  0  0
  5  6  1  0  0  0  0
  5 27  1  0  0  0  0
  5 28  1  0  0  0  0
  6  7  1  0  0  0  0
  6 29  1  0  0  0  0
  7  8  2  0  0  0  0
  7  9  1  0  0  0  0
  9 10  1  0  0  0  0
  9 30  1  0  0  0  0
  9 31  1  0  0  0  0
 10 12  1  0  0  0  0
 10 11  1  0  0  0  0
 10 32  1  0  0  0  0
 11 12  1  0  0  0  0
 11 33  1  0  0  0  0
 11 34  1  0  0  0  0
 12 35  1  0  0  0  0
 12 36  1  0  0  0  0
 13 17  1  0  0  0  0
 13 14  2  0  0  0  0
 14 15  1  0  0  0  0
 14 37  1  0  0  0  0
 15 16  2  0  0  0  0
 15 38  1  0  0  0  0
 16 17  1  0  0  0  0
 17 18  1  0  0  0  0
 18 39  1  0  0  0  0
 18 40  1  0  0  0  0
 18 41  1  0  0  0  0
M  END
> <s_m_source_file>
AV-unprocessed.smi

> <i_m_source_file_index>
3273

> <i_lp_mmshare_version>
43012

> <i_f3d_flags>
0

> <s_epik_input>
W0NIM11uMW5bY0hdW2NIXWMxW0NASF0oW0NIXShbQ0gzXSlbQ0gzXSlbQ0gyXVtOSF1DKD1PKVtDSDJdW0NIXTJbQ0gyXVtDSDJdMg==

> <s_epik_cmdline>
J2VwaWtfcHl0aG9uJywgJy1waCcsICc3LjAnLCAnLXRuJywgJzgnLCAnLW1hJywgJzIwMCcsICctbWV0YWxfYmluZGluZycsICctaW1hZScsICc8aW5maWxlLm1hZT4nLCAnLW9tYWUnLCAnPG91dGZpbGUubWFlPic=

> <r_lp_tautomer_probability>
1

> <r_epik_Ionization_Penalty>
0.00116261

> <r_epik_Ionization_Penalty_Charging>
0

> <r_epik_Ionization_Penalty_Neutral>
0.00116261

> <r_epik_State_Penalty>
-0

> <r_epik_Charging_Adjusted_Penalty>
0

> <i_epik_Tot_Q>
0

> <i_epik_Tot_abs_Q>
0

> <r_epik_Metal_State_Penalty>
-0

> <b_epik_Metal_Only>
0

> <s_lp_Force_Field>
OPLS_2005

> <r_lp_Energy>
15.0656

> <b_lp_Chiralities_Consistent>
1

> <s_lp_Variant>
AV-unprocessed.smi:3273-2

> <Gold.Version>
5.8.1

> <Gold.Id.Protein>
6NUR|6NUR_protein|mol2

> <Gold.PLP.Fitness>
42.0183

> <Gold.PLP.PLP>
-38.3261

> <Gold.PLP.part.hbond>
-1.9126

> <Gold.PLP.part.metal>
0.0000

> <Gold.PLP.part.buried>
-0.7739

> <Gold.PLP.part.nonpolar>
-35.0720

> <Gold.PLP.part.repulsive>
0.1731

> <Gold.PLP.ligand.clash>
0.0000

> <Gold.PLP.ligand.torsion>
1.3539

> <Gold.PLP.Chemscore.Hbond>
1.8938

> <Gold.PLP.Chemscore.CHOScore>
0.0000

> <Gold.PLP.Chemscore.Metal>
0.0000

> <Gold.Chemscore.Hbonds>
donor molecule, donor type, donor heavy atom, donor atom, acceptor molecule, acceptor atom, score
      L1  H     6    29       P1  8028  1.00
      P1  H 10752 10765       L1    16  1.00

> <Gold.PLP.Chemscore.Internal.Correction>
0.7187

> <Gold.Rescore>
     Score         DG    S(hbond)    S(metal)    S(lipo)     H(rot)  DE(clash)    DE(int)     intcor
     16.23     -18.44       1.65        0.00      99.58       1.64       0.17       2.04       ----

> <Gold.Chemscore.Fitness>
16.2320

> <Gold.Chemscore.DG>
-18.4406

> <Gold.Chemscore.ZeroCoef>
-5.4800

> <Gold.Chemscore.Hbond>
1.6515

> <Gold.Chemscore.Metal>
0.0000

> <Gold.Chemscore.Lipo>
99.5788

> <Gold.Chemscore.Internal_Hbond>
0.0000

> <Gold.Chemscore.DEClash>
0.1692

> <Gold.Chemscore.DEInternal>
2.0394

> <Gold.Chemscore.Rot>
1.6430

> <Gold.Chemscore.Internal.Correction>
   9.000000E+99

> <Gold.Chemscore.Hbonds>
donor molecule, donor type, donor heavy atom, donor atom, acceptor molecule, acceptor atom, score
      L1  H     6    29       P1  8028  0.93
      P1  H 10752 10765       L1    16  0.91

> <Gold.Chemscore.Hbond.Weighted>
-5.5160

> <Gold.Chemscore.Metal.Weighted>
-0.0000

> <Gold.Chemscore.Lipo.Weighted>
-11.6507

> <Gold.Chemscore.Internal_Hbond.Weighted>
0.0000

> <Gold.Chemscore.DEClash.Weighted>
0.1692

> <Gold.Chemscore.DEInternal.Weighted>
2.0394

> <Gold.Chemscore.Rot.Weighted>
4.2062

> <Gold.Chemscore.Internal.Correction.Weighted>
   9.000000E+99

> <Gold.Protein.RotatedTorsions>
[ 6907 6896 6895 6894 ] final  -30.89 input  -60.11 | X-H torsion
[ 7974 7965 7964 7962 ] final -146.55 input  175.53 | X-H torsion
[ 8008 7997 7996 7995 ] final  133.42 input   59.86 | X-H torsion
[ 10167 10162 10161 10158 ] final   11.68 input  -65.29 | X-H torsion
[ 10718 10713 10712 10709 ] final   13.55 input   66.30 | X-H torsion
[ 10763 10752 10751 10750 ] final  173.12 input  -60.55 | X-H torsion
[ 11005 11000 10999 10996 ] final  178.76 input  -57.11 | X-H torsion

> <Gold.Protein.ActiveResidues>
 VAL166  LYS551  ARG553  GLY616  TRP617  ASP618  TYR619  PRO620  LYS621  CYS622 
 ASP623  PHE694  ASN695  SER759  ASP760  ASP761  ALA762  ILE779  LEU786  VAL792 
 PHE793  MET794  SER795  GLU796  ALA797  LYS798  CYS799  TRP800  GLU811  SER814 

> <Gold.Protein.RotatedAtoms>
  151.0994  134.9963  159.8441 H   0  0  0  0  0  0  0  0  0  0  0  0  # atno 6907 bound_to 6896
  152.5436  134.1968  159.8706 H   0  0  0  0  0  0  0  0  0  0  0  0  # atno 6908 bound_to 6896
  151.2010  133.4567  159.2629 H   0  0  0  0  0  0  0  0  0  0  0  0  # atno 6909 bound_to 6896
  144.8152  140.5442  143.5615 H   0  0  0  0  0  0  0  0  0  0  0  0  # atno 7974 bound_to 7965
  156.2992  140.2522  156.3250 H   0  0  0  0  0  0  0  0  0  0  0  0  # atno 8008 bound_to 7997
  154.9199  140.0401  157.2011 H   0  0  0  0  0  0  0  0  0  0  0  0  # atno 8009 bound_to 7997
  154.8321  140.2877  155.5719 H   0  0  0  0  0  0  0  0  0  0  0  0  # atno 8010 bound_to 7997
  140.6117  143.8395  150.7072 H   0  0  0  0  0  0  0  0  0  0  0  0  # atno 10167 bound_to 10162
  157.0263  130.6175  149.5728 H   0  0  0  0  0  0  0  0  0  0  0  0  # atno 10718 bound_to 10713
  154.4356  135.2761  155.1883 H   0  0  0  0  0  0  0  0  0  0  0  0  # atno 10763 bound_to 10752
  154.3770  135.6096  153.5774 H   0  0  0  0  0  0  0  0  0  0  0  0  # atno 10764 bound_to 10752
  152.9838  135.5871  154.4675 H   0  0  0  0  0  0  0  0  0  0  0  0  # atno 10765 bound_to 10752
  140.3986  134.6798  157.4549 H   0  0  0  0  0  0  0  0  0  0  0  0  # atno 11005 bound_to 11000
  145.5231  139.1476  143.3541 LP  0  0  0  0  0  0  0  0  0  0  0  0  # atno 17320 bound_to 7965
  146.2455  140.5372  142.8916 LP  0  0  0  0  0  0  0  0  0  0  0  0  # atno 17321 bound_to 7965
  140.1964  143.3994  152.1824 LP  0  0  0  0  0  0  0  0  0  0  0  0  # atno 17342 bound_to 10162
  139.5366  144.7215  151.4873 LP  0  0  0  0  0  0  0  0  0  0  0  0  # atno 17343 bound_to 10162
  156.0085  130.5174  150.7910 LP  0  0  0  0  0  0  0  0  0  0  0  0  # atno 17370 bound_to 10713
  157.5212  131.0931  151.0076 LP  0  0  0  0  0  0  0  0  0  0  0  0  # atno 17371 bound_to 10713
  140.0353  134.6346  155.9052 LP  0  0  0  0  0  0  0  0  0  0  0  0  # atno 17394 bound_to 11000
  141.1865  133.6557  156.5241 LP  0  0  0  0  0  0  0  0  0  0  0  0  # atno 17395 bound_to 11000

$$$$
