AV-unprocessed.smi:1236|AV-procd|sdf|5181|dock3
  -GOLD-   22720 4263D 1   1.00000     0.00000
 Structure written by MMmdl.
 40 41  0  0  0  0  0  0  0  0  2 V2000
  146.8743  139.5171  151.9892 C   0  0  0  0  0  0  0  0  0  0  0  0
  146.5485  138.4848  153.0771 C   0  0  2  0  0  0  0  0  0  0  0  0
  147.4354  138.6906  154.3276 C   0  0  0  0  0  0  0  0  0  0  0  0
  148.7287  137.9649  154.2514 N   0  3  0  0  0  0  0  0  0  0  0  0
  149.9057  138.8632  154.2908 C   0  0  0  0  0  0  0  0  0  0  0  0
  151.2000  138.0493  154.1197 C   0  0  0  0  0  0  0  0  0  0  0  0
  151.2742  137.0479  155.1274 O   0  0  0  0  0  0  0  0  0  0  0  0
  150.1877  136.1326  155.0515 C   0  0  0  0  0  0  0  0  0  0  0  0
  148.8656  136.8883  155.2618 C   0  0  0  0  0  0  0  0  0  0  0  0
  146.7094  137.1402  152.5204 N   0  0  0  0  0  0  0  0  0  0  0  0
  145.7195  136.2743  152.2530 C   0  0  0  0  0  0  0  0  0  0  0  0
  144.5323  136.5142  152.4745 O   0  0  0  0  0  0  0  0  0  0  0  0
  146.1975  135.1301  151.7337 N   0  0  0  0  0  0  0  0  0  0  0  0
  145.4743  133.9590  151.3824 C   0  0  0  0  0  0  0  0  0  0  0  0
  146.2490  132.7806  151.2927 C   0  0  0  0  0  0  0  0  0  0  0  0
  145.6241  131.5643  150.9557 C   0  0  0  0  0  0  0  0  0  0  0  0
  144.2384  131.5581  150.7169 C   0  0  0  0  0  0  0  0  0  0  0  0
  143.5406  132.7749  150.8279 C   0  0  0  0  0  0  0  0  0  0  0  0
  144.1374  133.9413  151.1528 N   0  0  0  0  0  0  0  0  0  0  0  0
  146.7212  140.5329  152.3551 H   0  0  0  0  0  0  0  0  0  0  0  0
  146.2344  139.3840  151.1161 H   0  0  0  0  0  0  0  0  0  0  0  0
  147.9104  139.4354  151.6585 H   0  0  0  0  0  0  0  0  0  0  0  0
  145.5026  138.6347  153.3487 H   0  0  0  0  0  0  0  0  0  0  0  0
  147.6314  139.7592  154.4305 H   0  0  0  0  0  0  0  0  0  0  0  0
  146.9032  138.3931  155.2324 H   0  0  0  0  0  0  0  0  0  0  0  0
  149.8341  139.6060  153.4953 H   0  0  0  0  0  0  0  0  0  0  0  0
  149.9226  139.4050  155.2378 H   0  0  0  0  0  0  0  0  0  0  0  0
  151.2424  137.5900  153.1307 H   0  0  0  0  0  0  0  0  0  0  0  0
  152.0686  138.7021  154.2058 H   0  0  0  0  0  0  0  0  0  0  0  0
  150.1938  135.6184  154.0888 H   0  0  0  0  0  0  0  0  0  0  0  0
  150.3121  135.3708  155.8209 H   0  0  0  0  0  0  0  0  0  0  0  0
  148.8353  137.3171  156.2647 H   0  0  0  0  0  0  0  0  0  0  0  0
  148.0333  136.1888  155.1887 H   0  0  0  0  0  0  0  0  0  0  0  0
  147.6535  136.8552  152.3034 H   0  0  0  0  0  0  0  0  0  0  0  0
  147.1951  135.0833  151.5872 H   0  0  0  0  0  0  0  0  0  0  0  0
  147.3131  132.8027  151.4790 H   0  0  0  0  0  0  0  0  0  0  0  0
  146.1987  130.6528  150.8821 H   0  0  0  0  0  0  0  0  0  0  0  0
  143.7240  130.6452  150.4555 H   0  0  0  0  0  0  0  0  0  0  0  0
  142.4759  132.8134  150.6528 H   0  0  0  0  0  0  0  0  0  0  0  0
  148.7476  137.5169  153.3461 H   0  0  0  0  0  0  0  0  0  0  0  0
  1  2  1  0  0  0  0
  1 20  1  0  0  0  0
  1 21  1  0  0  0  0
  1 22  1  0  0  0  0
  2  3  1  0  0  0  0
  2 10  1  0  0  0  0
  2 23  1  0  0  0  0
  3  4  1  0  0  0  0
  3 24  1  0  0  0  0
  3 25  1  0  0  0  0
  4  9  1  0  0  0  0
  4  5  1  0  0  0  0
  4 40  1  0  0  0  0
  5  6  1  0  0  0  0
  5 26  1  0  0  0  0
  5 27  1  0  0  0  0
  6  7  1  0  0  0  0
  6 28  1  0  0  0  0
  6 29  1  0  0  0  0
  7  8  1  0  0  0  0
  8  9  1  0  0  0  0
  8 30  1  0  0  0  0
  8 31  1  0  0  0  0
  9 32  1  0  0  0  0
  9 33  1  0  0  0  0
 10 11  1  0  0  0  0
 10 34  1  0  0  0  0
 11 12  2  0  0  0  0
 11 13  1  0  0  0  0
 13 14  1  0  0  0  0
 13 35  1  0  0  0  0
 14 19  1  0  0  0  0
 14 15  2  0  0  0  0
 15 16  1  0  0  0  0
 15 36  1  0  0  0  0
 16 17  2  0  0  0  0
 16 37  1  0  0  0  0
 17 18  1  0  0  0  0
 17 38  1  0  0  0  0
 18 19  2  0  0  0  0
 18 39  1  0  0  0  0
M  CHG  1   4   1
M  END
> <s_m_source_file>
AV-unprocessed.smi

> <i_m_source_file_index>
1236

> <i_lp_mmshare_version>
43012

> <i_f3d_flags>
0

> <s_epik_input>
W0NIMl0xW0NIMl1PW0NIMl1bQ0gyXU4xW0NIMl1bQ0BASF0oW0NIM10pW05IXUMoPU8pW05IXWMyW2NIXVtjSF1bY0hdW2NIXW4y

> <s_epik_cmdline>
J2VwaWtfcHl0aG9uJywgJy1waCcsICc3LjAnLCAnLXRuJywgJzgnLCAnLW1hJywgJzIwMCcsICctbWV0YWxfYmluZGluZycsICctaW1hZScsICc8aW5maWxlLm1hZT4nLCAnLW9tYWUnLCAnPG91dGZpbGUubWFlPic=

> <r_epik_Ionization_Penalty>
0.602564

> <r_epik_Ionization_Penalty_Charging>
0.602531

> <r_epik_Ionization_Penalty_Neutral>
3.36306e-05

> <r_epik_State_Penalty>
0.617039

> <r_epik_Charging_Adjusted_Penalty>
1.21957

> <i_epik_Tot_Q>
1

> <i_epik_Tot_abs_Q>
1

> <r_epik_Metal_State_Penalty>
0.617041

> <b_epik_Metal_Only>
0

> <s_lp_Force_Field>
OPLS_2005

> <r_lp_Energy>
24.2739

> <b_lp_Chiralities_Consistent>
1

> <s_lp_Variant>
AV-unprocessed.smi:1236-3

> <Gold.Version>
5.8.1

> <Gold.Id.Protein>
6NUR|6NUR_protein|mol2

> <Gold.PLP.Fitness>
45.9175

> <Gold.PLP.PLP>
-31.2479

> <Gold.PLP.part.hbond>
-3.9323

> <Gold.PLP.part.metal>
0.0000

> <Gold.PLP.part.buried>
-4.7071

> <Gold.PLP.part.nonpolar>
-24.7082

> <Gold.PLP.part.repulsive>
0.4701

> <Gold.PLP.ligand.clash>
0.0000

> <Gold.PLP.ligand.torsion>
1.2172

> <Gold.PLP.Chemscore.Hbond>
4.6950

> <Gold.PLP.Chemscore.CHOScore>
1.0000

> <Gold.PLP.Chemscore.Metal>
0.0000

> <Gold.Chemscore.Hbonds>
donor molecule, donor type, donor heavy atom, donor atom, acceptor molecule, acceptor atom, score
      L1  H     4    40       P1  7948  2.00
      L1  H    10    34       P1  7948  0.91
      L1  H    13    35       P1  7948  0.77
      P1  H 10752 10764       L1     7  0.34
      L1  C    18    39       P1 10186  1.00

> <Gold.PLP.Chemscore.Internal.Correction>
0.0191

> <Gold.Rescore>
     Score         DG    S(hbond)    S(metal)    S(lipo)     H(rot)  DE(clash)    DE(int)     intcor
     17.71     -20.36       2.98        0.00      76.30       1.56       0.18       2.47       ----

> <Gold.Chemscore.Fitness>
17.7134

> <Gold.Chemscore.DG>
-20.3608

> <Gold.Chemscore.ZeroCoef>
-5.4800

> <Gold.Chemscore.Hbond>
2.9769

> <Gold.Chemscore.Metal>
0.0000

> <Gold.Chemscore.Lipo>
76.3046

> <Gold.Chemscore.Internal_Hbond>
0.0000

> <Gold.Chemscore.DEClash>
0.1799

> <Gold.Chemscore.DEInternal>
2.4675

> <Gold.Chemscore.Rot>
1.5584

> <Gold.Chemscore.Internal.Correction>
   9.000000E+99

> <Gold.Chemscore.Hbonds>
donor molecule, donor type, donor heavy atom, donor atom, acceptor molecule, acceptor atom, score
      L1  H     4    40       P1  7948  0.99
      L1  H    10    34       P1  7948  0.89
      L1  H    13    35       P1  7948  0.64
      P1  H 10752 10764       L1     7  0.04

> <Gold.Chemscore.Hbond.Weighted>
-9.9427

> <Gold.Chemscore.Metal.Weighted>
-0.0000

> <Gold.Chemscore.Lipo.Weighted>
-8.9276

> <Gold.Chemscore.Internal_Hbond.Weighted>
0.0000

> <Gold.Chemscore.DEClash.Weighted>
0.1799

> <Gold.Chemscore.DEInternal.Weighted>
2.4675

> <Gold.Chemscore.Rot.Weighted>
3.9896

> <Gold.Chemscore.Internal.Correction.Weighted>
   9.000000E+99

> <Gold.Protein.RotatedTorsions>
[ 6907 6896 6895 6894 ] final  -73.13 input  -60.11 | X-H torsion
[ 7974 7965 7964 7962 ] final   90.28 input  175.53 | X-H torsion
[ 8008 7997 7996 7995 ] final  -53.67 input   59.86 | X-H torsion
[ 10167 10162 10161 10158 ] final  179.83 input  -65.29 | X-H torsion
[ 10718 10713 10712 10709 ] final  110.62 input   66.30 | X-H torsion
[ 10763 10752 10751 10750 ] final  -67.83 input  -60.55 | X-H torsion
[ 11005 11000 10999 10996 ] final -103.12 input  -57.11 | X-H torsion

> <Gold.Protein.ActiveResidues>
 VAL166  LYS551  ARG553  GLY616  TRP617  ASP618  TYR619  PRO620  LYS621  CYS622 
 ASP623  PHE694  ASN695  SER759  ASP760  ASP761  ALA762  ILE779  LEU786  VAL792 
 PHE793  MET794  SER795  GLU796  ALA797  LYS798  CYS799  TRP800  GLU811  SER814 

> <Gold.Protein.RotatedAtoms>
  150.7142  134.5061  159.5584 H   0  0  0  0  0  0  0  0  0  0  0  0  # atno 6907 bound_to 6896
  152.2648  134.7993  160.0433 H   0  0  0  0  0  0  0  0  0  0  0  0  # atno 6908 bound_to 6896
  151.8694  133.3437  159.3766 H   0  0  0  0  0  0  0  0  0  0  0  0  # atno 6909 bound_to 6896
  145.5211  139.2279  143.2671 H   0  0  0  0  0  0  0  0  0  0  0  0  # atno 7974 bound_to 7965
  154.4140  140.1194  156.5191 H   0  0  0  0  0  0  0  0  0  0  0  0  # atno 8008 bound_to 7997
  155.6721  140.3496  155.4803 H   0  0  0  0  0  0  0  0  0  0  0  0  # atno 8009 bound_to 7997
  155.9624  140.1125  157.0874 H   0  0  0  0  0  0  0  0  0  0  0  0  # atno 8010 bound_to 7997
  139.5353  144.2514  152.0781 H   0  0  0  0  0  0  0  0  0  0  0  0  # atno 10167 bound_to 10162
  157.6485  131.0936  150.6628 H   0  0  0  0  0  0  0  0  0  0  0  0  # atno 10718 bound_to 10713
  154.3802  135.6076  153.5786 H   0  0  0  0  0  0  0  0  0  0  0  0  # atno 10763 bound_to 10752
  152.9788  135.5859  154.4420 H   0  0  0  0  0  0  0  0  0  0  0  0  # atno 10764 bound_to 10752
  154.4187  135.2845  155.1967 H   0  0  0  0  0  0  0  0  0  0  0  0  # atno 10765 bound_to 10752
  141.1159  133.8614  157.1446 H   0  0  0  0  0  0  0  0  0  0  0  0  # atno 11005 bound_to 11000
  146.2105  140.6023  142.9062 LP  0  0  0  0  0  0  0  0  0  0  0  0  # atno 17320 bound_to 7965
  144.7675  140.5564  143.6693 LP  0  0  0  0  0  0  0  0  0  0  0  0  # atno 17321 bound_to 7965
  140.1984  144.4683  150.6444 LP  0  0  0  0  0  0  0  0  0  0  0  0  # atno 17342 bound_to 10162
  140.6556  143.2237  151.5975 LP  0  0  0  0  0  0  0  0  0  0  0  0  # atno 17343 bound_to 10162
  156.6942  130.4604  149.5591 LP  0  0  0  0  0  0  0  0  0  0  0  0  # atno 17370 bound_to 10713
  156.1840  130.6517  151.0985 LP  0  0  0  0  0  0  0  0  0  0  0  0  # atno 17371 bound_to 10713
  140.0082  134.9999  157.0338 LP  0  0  0  0  0  0  0  0  0  0  0  0  # atno 17394 bound_to 11000
  140.4645  134.1449  155.7195 LP  0  0  0  0  0  0  0  0  0  0  0  0  # atno 17395 bound_to 11000

$$$$
