AV-unprocessed.smi:1507|AV-procd|sdf|6085|dock2
  -GOLD-   22720 6203D 1   1.00000     0.00000
 Structure written by MMmdl.
 33 34  0  0  0  0  0  0  0  0  4 V2000
  151.8102  137.0432  154.3027 N   0  5  0  0  0  0  0  0  0  0  0  0
  152.0323  138.4456  155.0811 S   0  0  0  0  0  0  0  0  0  0  0  0
  151.6691  138.2873  156.4970 O   0  0  0  0  0  0  0  0  0  0  0  0
  153.3807  138.9861  154.8327 O   0  0  0  0  0  0  0  0  0  0  0  0
  150.8574  139.2647  154.2952 N   0  5  0  0  0  0  0  0  0  0  0  0
  149.4813  138.7808  154.1989 C   0  0  0  0  0  0  0  0  0  0  0  0
  148.4612  139.9113  154.1772 C   0  0  0  0  0  0  0  0  0  0  0  0
  148.7264  141.1401  154.8226 C   0  0  0  0  0  0  0  0  0  0  0  0
  147.7463  142.1542  154.8159 C   0  0  0  0  0  0  0  0  0  0  0  0
  146.5076  141.9367  154.1652 C   0  0  0  0  0  0  0  0  0  0  0  0
  145.4861  142.9114  154.1361 N   0  0  0  0  0  0  0  0  0  0  0  0
  145.7079  144.1086  153.3271 C   0  0  0  0  0  0  0  0  0  0  0  0
  144.4010  144.9039  153.1738 C   0  0  0  0  0  0  0  0  0  0  0  0
  143.8661  145.1963  154.4598 O   0  0  0  0  0  0  0  0  0  0  0  0
  143.5435  144.0116  155.1795 C   0  0  0  0  0  0  0  0  0  0  0  0
  144.8157  143.1770  155.4067 C   0  0  0  0  0  0  0  0  0  0  0  0
  146.3026  140.7402  153.5605 N   0  3  0  0  0  0  0  0  0  0  0  0
  147.2121  139.7415  153.5415 C   0  0  0  0  0  0  0  0  0  0  0  0
  151.6641  137.2475  153.3071 H   0  0  0  0  0  0  0  0  0  0  0  0
  149.3349  138.1972  153.2893 H   0  0  0  0  0  0  0  0  0  0  0  0
  149.2323  138.1000  155.0136 H   0  0  0  0  0  0  0  0  0  0  0  0
  149.6610  141.3123  155.3388 H   0  0  0  0  0  0  0  0  0  0  0  0
  147.9529  143.0775  155.3349 H   0  0  0  0  0  0  0  0  0  0  0  0
  146.4697  144.7284  153.8021 H   0  0  0  0  0  0  0  0  0  0  0  0
  146.0775  143.8356  152.3379 H   0  0  0  0  0  0  0  0  0  0  0  0
  144.5903  145.8386  152.6461 H   0  0  0  0  0  0  0  0  0  0  0  0
  143.6729  144.3465  152.5822 H   0  0  0  0  0  0  0  0  0  0  0  0
  143.1009  144.2878  156.1365 H   0  0  0  0  0  0  0  0  0  0  0  0
  142.7924  143.4357  154.6365 H   0  0  0  0  0  0  0  0  0  0  0  0
  144.5423  142.2572  155.9208 H   0  0  0  0  0  0  0  0  0  0  0  0
  145.5031  143.7153  156.0605 H   0  0  0  0  0  0  0  0  0  0  0  0
  146.8982  138.8382  153.0360 H   0  0  0  0  0  0  0  0  0  0  0  0
  145.4071  140.5776  153.1006 H   0  0  0  0  0  0  0  0  0  0  0  0
  1  2  1  0  0  0  0
  1 19  1  0  0  0  0
  2  3  2  0  0  0  0
  2  4  2  0  0  0  0
  2  5  1  0  0  0  0
  5  6  1  0  0  0  0
  6  7  1  0  0  0  0
  6 20  1  0  0  0  0
  6 21  1  0  0  0  0
  7 18  1  0  0  0  0
  7  8  2  0  0  0  0
  8  9  1  0  0  0  0
  8 22  1  0  0  0  0
  9 10  2  0  0  0  0
  9 23  1  0  0  0  0
 10 11  1  0  0  0  0
 10 17  1  0  0  0  0
 11 16  1  0  0  0  0
 11 12  1  0  0  0  0
 12 13  1  0  0  0  0
 12 24  1  0  0  0  0
 12 25  1  0  0  0  0
 13 14  1  0  0  0  0
 13 26  1  0  0  0  0
 13 27  1  0  0  0  0
 14 15  1  0  0  0  0
 15 16  1  0  0  0  0
 15 28  1  0  0  0  0
 15 29  1  0  0  0  0
 16 30  1  0  0  0  0
 16 31  1  0  0  0  0
 17 18  2  0  0  0  0
 17 33  1  0  0  0  0
 18 32  1  0  0  0  0
M  CHG  1   1  -1
M  CHG  1   5  -1
M  CHG  1  17   1
M  END
> <s_m_source_file>
AV-unprocessed.smi

> <i_m_source_file_index>
1507

> <i_lp_mmshare_version>
43012

> <i_f3d_flags>
0

> <s_epik_input>
W05IMl1TKD1PKSg9TylbTkhdW0NIMl1jMVtjSF1bY0hdYyhuW2NIXTEpTjJbQ0gyXVtDSDJdT1tDSDJdW0NIMl0y

> <s_epik_cmdline>
J2VwaWtfcHl0aG9uJywgJy1waCcsICc3LjAnLCAnLXRuJywgJzgnLCAnLW1hJywgJzIwMCcsICctbWV0YWxfYmluZGluZycsICctaW1hZScsICc8aW5maWxlLm1hZT4nLCAnLW9tYWUnLCAnPG91dGZpbGUubWFlPic=

> <r_epik_Ionization_Penalty>
8.77184

> <r_epik_Ionization_Penalty_Charging>
8.77184

> <r_epik_Ionization_Penalty_Neutral>
3.18726e-12

> <r_epik_State_Penalty>
5.60098

> <r_epik_Charging_Adjusted_Penalty>
14.3728

> <i_epik_Tot_Q>
-1

> <i_epik_Tot_abs_Q>
3

> <r_epik_Metal_State_Penalty>
2.46454

> <b_epik_Metal_Only>
1

> <s_lp_Force_Field>
OPLS_2005

> <r_lp_Energy>
15.9769

> <b_lp_Chiralities_Consistent>
1

> <s_lp_Variant>
AV-unprocessed.smi:1507-6

> <Gold.Version>
5.8.1

> <Gold.Id.Protein>
6NUR|6NUR_protein|mol2

> <Gold.PLP.Fitness>
48.9315

> <Gold.PLP.PLP>
-30.9623

> <Gold.PLP.part.hbond>
-5.0000

> <Gold.PLP.part.metal>
0.0000

> <Gold.PLP.part.buried>
-0.7591

> <Gold.PLP.part.nonpolar>
-25.4633

> <Gold.PLP.part.repulsive>
0.4751

> <Gold.PLP.ligand.clash>
0.0000

> <Gold.PLP.ligand.torsion>
1.2753

> <Gold.PLP.Chemscore.Hbond>
6.3752

> <Gold.PLP.Chemscore.CHOScore>
0.0000

> <Gold.PLP.Chemscore.Metal>
0.0000

> <Gold.Chemscore.Hbonds>
donor molecule, donor type, donor heavy atom, donor atom, acceptor molecule, acceptor atom, score
      L1  H     1    19       P1  7949  0.29
      L1  H    17    33       P1 10175  2.00
      P1  H  7989  7998       L1     5  1.00
      P1  H  7997  8009       L1     4  1.00
      P1  H 10752 10764       L1     1  2.00

> <Gold.PLP.Chemscore.Internal.Correction>
1.3942

> <Gold.Rescore>
     Score         DG    S(hbond)    S(metal)    S(lipo)     H(rot)  DE(clash)    DE(int)     intcor
     18.31     -19.88       3.86        0.00      54.35       1.89       0.24       1.33       ----

> <Gold.Chemscore.Fitness>
18.3130

> <Gold.Chemscore.DG>
-19.8791

> <Gold.Chemscore.ZeroCoef>
-5.4800

> <Gold.Chemscore.Hbond>
3.8577

> <Gold.Chemscore.Metal>
0.0000

> <Gold.Chemscore.Lipo>
54.3452

> <Gold.Chemscore.Internal_Hbond>
0.0000

> <Gold.Chemscore.DEClash>
0.2375

> <Gold.Chemscore.DEInternal>
1.3286

> <Gold.Chemscore.Rot>
1.8922

> <Gold.Chemscore.Internal.Correction>
   9.000000E+99

> <Gold.Chemscore.Hbonds>
donor molecule, donor type, donor heavy atom, donor atom, acceptor molecule, acceptor atom, score
      L1  H     1    19       P1  7949  0.27
      L1  H    17    33       P1 10175  0.85
      P1  H  7989  7998       L1     5  0.69
      P1  H  7997  8009       L1     4  0.97
      P1  H 10752 10764       L1     1  0.54

> <Gold.Chemscore.Hbond.Weighted>
-12.8849

> <Gold.Chemscore.Metal.Weighted>
-0.0000

> <Gold.Chemscore.Lipo.Weighted>
-6.3584

> <Gold.Chemscore.Internal_Hbond.Weighted>
0.0000

> <Gold.Chemscore.DEClash.Weighted>
0.2375

> <Gold.Chemscore.DEInternal.Weighted>
1.3286

> <Gold.Chemscore.Rot.Weighted>
4.8441

> <Gold.Chemscore.Internal.Correction.Weighted>
   9.000000E+99

> <Gold.Protein.RotatedTorsions>
[ 6907 6896 6895 6894 ] final    7.08 input  -60.11 | X-H torsion
[ 7974 7965 7964 7962 ] final  -18.43 input  175.53 | X-H torsion
[ 8008 7997 7996 7995 ] final -120.83 input   59.86 | X-H torsion
[ 10167 10162 10161 10158 ] final  149.49 input  -65.29 | X-H torsion
[ 10718 10713 10712 10709 ] final  140.29 input   66.30 | X-H torsion
[ 10763 10752 10751 10750 ] final  -72.82 input  -60.55 | X-H torsion
[ 11005 11000 10999 10996 ] final   48.47 input  -57.11 | X-H torsion

> <Gold.Protein.ActiveResidues>
 VAL166  LYS551  ARG553  GLY616  TRP617  ASP618  TYR619  PRO620  LYS621  CYS622 
 ASP623  PHE694  ASN695  SER759  ASP760  ASP761  ALA762  ILE779  LEU786  VAL792 
 PHE793  MET794  SER795  GLU796  ALA797  LYS798  CYS799  TRP800  GLU811  SER814 

> <Gold.Protein.RotatedAtoms>
  151.6841  135.0957  160.0221 H   0  0  0  0  0  0  0  0  0  0  0  0  # atno 6907 bound_to 6896
  152.3818  133.6552  159.6175 H   0  0  0  0  0  0  0  0  0  0  0  0  # atno 6908 bound_to 6896
  150.7753  133.9018  159.3385 H   0  0  0  0  0  0  0  0  0  0  0  0  # atno 6909 bound_to 6896
  146.1893  140.3919  142.8464 H   0  0  0  0  0  0  0  0  0  0  0  0  # atno 7974 bound_to 7965
  155.1382  140.0401  157.2792 H   0  0  0  0  0  0  0  0  0  0  0  0  # atno 8008 bound_to 7997
  154.6492  140.2565  155.7206 H   0  0  0  0  0  0  0  0  0  0  0  0  # atno 8009 bound_to 7997
  156.2569  140.2839  156.0919 H   0  0  0  0  0  0  0  0  0  0  0  0  # atno 8010 bound_to 7997
  139.4861  144.5597  151.7253 H   0  0  0  0  0  0  0  0  0  0  0  0  # atno 10167 bound_to 10162
  157.4050  131.1021  151.0513 H   0  0  0  0  0  0  0  0  0  0  0  0  # atno 10718 bound_to 10713
  154.4510  135.5917  153.6192 H   0  0  0  0  0  0  0  0  0  0  0  0  # atno 10763 bound_to 10752
  152.9813  135.6021  154.3604 H   0  0  0  0  0  0  0  0  0  0  0  0  # atno 10764 bound_to 10752
  154.3466  135.2841  155.2373 H   0  0  0  0  0  0  0  0  0  0  0  0  # atno 10765 bound_to 10752
  140.1188  134.4857  155.8615 H   0  0  0  0  0  0  0  0  0  0  0  0  # atno 11005 bound_to 11000
  144.8455  140.6923  143.6202 LP  0  0  0  0  0  0  0  0  0  0  0  0  # atno 17320 bound_to 7965
  145.3843  139.1630  143.4263 LP  0  0  0  0  0  0  0  0  0  0  0  0  # atno 17321 bound_to 7965
  140.5165  144.0945  150.6010 LP  0  0  0  0  0  0  0  0  0  0  0  0  # atno 17342 bound_to 10162
  140.3888  143.2763  152.0084 LP  0  0  0  0  0  0  0  0  0  0  0  0  # atno 17343 bound_to 10162
  157.1498  130.6179  149.5579 LP  0  0  0  0  0  0  0  0  0  0  0  0  # atno 17370 bound_to 10713
  155.9834  130.4853  150.6929 LP  0  0  0  0  0  0  0  0  0  0  0  0  # atno 17371 bound_to 10713
  141.2147  133.6753  156.6847 LP  0  0  0  0  0  0  0  0  0  0  0  0  # atno 17394 bound_to 11000
  140.2993  134.8177  157.4084 LP  0  0  0  0  0  0  0  0  0  0  0  0  # atno 17395 bound_to 11000

$$$$
