AV-unprocessed.smi:102|AV-procd|sdf|968|dock1
  -GOLD-   2262017513D 1   1.00000     0.00000
 Structure written by MMmdl.
 43 44  0  0  0  0  0  0  0  0  2 V2000
  152.9620  137.7681  159.3514 C   0  0  0  0  0  0  0  0  0  0  0  0
  152.9190  138.5290  158.0323 C   0  0  0  0  0  0  0  0  0  0  0  0
  153.2530  139.7120  157.9640 O   0  0  0  0  0  0  0  0  0  0  0  0
  152.4894  137.7702  157.0122 O   0  0  0  0  0  0  0  0  0  0  0  0
  152.4599  138.3110  155.7018 C   0  0  0  0  0  0  0  0  0  0  0  0
  151.3362  137.6326  154.8938 C   0  0  1  0  0  0  0  0  0  0  0  0
  151.5728  136.2311  154.8643 O   0  0  0  0  0  0  0  0  0  0  0  0
  151.0251  135.6382  156.0043 C   0  0  2  0  0  0  0  0  0  0  0  0
  150.4680  134.2834  155.6230 N   0  0  0  0  0  0  0  0  0  0  0  0
  149.5656  134.1661  154.5799 C   0  0  0  0  0  0  0  0  0  0  0  0
  149.0378  132.9713  154.2445 C   0  0  0  0  0  0  0  0  0  0  0  0
  148.1617  132.8885  153.2285 F   0  0  0  0  0  0  0  0  0  0  0  0
  149.4189  131.7762  154.9952 C   0  0  0  0  0  0  0  0  0  0  0  0
  148.9415  130.6875  154.6790 O   0  0  0  0  0  0  0  0  0  0  0  0
  150.2966  131.9253  156.0297 N   0  5  0  0  0  0  0  0  0  0  0  0
  150.8257  133.1345  156.3796 C   0  0  0  0  0  0  0  0  0  0  0  0
  151.5923  133.2836  157.3313 O   0  0  0  0  0  0  0  0  0  0  0  0
  149.9510  136.5961  156.5654 C   0  0  2  0  0  0  0  0  0  0  0  0
  148.6667  135.9853  156.6474 O   0  0  0  0  0  0  0  0  0  0  0  0
  148.3581  135.1855  157.6796 C   0  0  0  0  0  0  0  0  0  0  0  0
  147.1788  134.2740  157.3696 C   0  0  0  0  0  0  0  0  0  0  0  0
  148.9259  135.1564  158.7717 O   0  0  0  0  0  0  0  0  0  0  0  0
  149.9470  137.7202  155.5391 C   0  0  1  0  0  0  0  0  0  0  0  0
  149.6976  138.9696  156.1714 O   0  0  0  0  0  0  0  0  0  0  0  0
  149.9637  140.1182  155.5283 C   0  0  0  0  0  0  0  0  0  0  0  0
  149.6076  141.3428  156.3600 C   0  0  0  0  0  0  0  0  0  0  0  0
  150.4449  140.2233  154.4001 O   0  0  0  0  0  0  0  0  0  0  0  0
  152.9085  136.6921  159.1824 H   0  0  0  0  0  0  0  0  0  0  0  0
  152.1231  138.0616  159.9823 H   0  0  0  0  0  0  0  0  0  0  0  0
  153.8879  137.9871  159.8833 H   0  0  0  0  0  0  0  0  0  0  0  0
  152.3235  139.3926  155.7374 H   0  0  0  0  0  0  0  0  0  0  0  0
  153.4253  138.1203  155.2311 H   0  0  0  0  0  0  0  0  0  0  0  0
  151.3121  138.0387  153.8819 H   0  0  0  0  0  0  0  0  0  0  0  0
  151.8378  135.4569  156.7091 H   0  0  0  0  0  0  0  0  0  0  0  0
  149.2669  135.0434  154.0259 H   0  0  0  0  0  0  0  0  0  0  0  0
  150.3032  136.9457  157.5375 H   0  0  0  0  0  0  0  0  0  0  0  0
  147.3443  133.7473  156.4294 H   0  0  0  0  0  0  0  0  0  0  0  0
  146.2627  134.8581  157.2833 H   0  0  0  0  0  0  0  0  0  0  0  0
  147.0465  133.5354  158.1604 H   0  0  0  0  0  0  0  0  0  0  0  0
  149.1897  137.4994  154.7844 H   0  0  0  0  0  0  0  0  0  0  0  0
  148.5558  141.3136  156.6450 H   0  0  0  0  0  0  0  0  0  0  0  0
  149.7869  142.2567  155.7934 H   0  0  0  0  0  0  0  0  0  0  0  0
  150.2121  141.3733  157.2664 H   0  0  0  0  0  0  0  0  0  0  0  0
  1  2  1  0  0  0  0
  1 28  1  0  0  0  0
  1 29  1  0  0  0  0
  1 30  1  0  0  0  0
  2  3  2  0  0  0  0
  2  4  1  0  0  0  0
  4  5  1  0  0  0  0
  5  6  1  0  0  0  0
  5 31  1  0  0  0  0
  5 32  1  0  0  0  0
  6 23  1  0  0  0  0
  6  7  1  0  0  0  0
  6 33  1  0  0  0  0
  7  8  1  0  0  0  0
  8  9  1  0  0  0  0
  8 18  1  0  0  0  0
  8 34  1  0  0  0  0
  9 16  1  0  0  0  0
  9 10  1  0  0  0  0
 10 11  2  0  0  0  0
 10 35  1  0  0  0  0
 11 12  1  0  0  0  0
 11 13  1  0  0  0  0
 13 14  2  0  0  0  0
 13 15  1  0  0  0  0
 15 16  1  0  0  0  0
 16 17  2  0  0  0  0
 18 19  1  0  0  0  0
 18 23  1  0  0  0  0
 18 36  1  0  0  0  0
 19 20  1  0  0  0  0
 20 21  1  0  0  0  0
 20 22  2  0  0  0  0
 21 37  1  0  0  0  0
 21 38  1  0  0  0  0
 21 39  1  0  0  0  0
 23 24  1  0  0  0  0
 23 40  1  0  0  0  0
 24 25  1  0  0  0  0
 25 26  1  0  0  0  0
 25 27  2  0  0  0  0
 26 41  1  0  0  0  0
 26 42  1  0  0  0  0
 26 43  1  0  0  0  0
M  CHG  1  15  -1
M  END
> <s_m_source_file>
AV-unprocessed.smi

> <i_m_source_file_index>
102

> <i_lp_mmshare_version>
43012

> <i_f3d_flags>
0

> <s_epik_input>
W0NIM11DKD1PKU9bQ0gyXVtDQEBIXTFPW0NASF0oW0NAQEhdKE9DKD1PKVtDSDNdKVtDQEhdMU9DKD1PKVtDSDNdKW4yW2NIXWMoRiljKD1PKVtuSF1jMj1P

> <s_epik_cmdline>
J2VwaWtfcHl0aG9uJywgJy1waCcsICc3LjAnLCAnLXRuJywgJzgnLCAnLW1hJywgJzIwMCcsICctbWV0YWxfYmluZGluZycsICctaW1hZScsICc8aW5maWxlLm1hZT4nLCAnLW9tYWUnLCAnPG91dGZpbGUubWFlPic=

> <r_epik_Ionization_Penalty>
1.40304

> <r_epik_Ionization_Penalty_Charging>
1.43915e-08

> <r_epik_Ionization_Penalty_Neutral>
1.40304

> <r_epik_State_Penalty>
1.48536

> <r_epik_Charging_Adjusted_Penalty>
1.48536

> <i_epik_Tot_Q>
-1

> <i_epik_Tot_abs_Q>
1

> <r_epik_Metal_State_Penalty>
0.00663881

> <b_epik_Metal_Only>
0

> <s_epik_Chemistry_Notes>
This compound has an ester and may undergo hydrolysis at high or low pH. This compound contains an acetal/aminal-like group ( X-CH(R)-Y where X, Y are N, S, or O) that may be acid/base labile, releasing an aldehyde.

> <s_lp_Force_Field>
OPLS_2005

> <r_lp_Energy>
24.6661

> <b_lp_Chiralities_Consistent>
1

> <s_lp_Variant>
AV-unprocessed.smi:102-24

> <Gold.Version>
5.8.1

> <Gold.Id.Protein>
6NUR|6NUR_protein|mol2

> <Gold.PLP.Fitness>
48.8324

> <Gold.PLP.PLP>
-33.7725

> <Gold.PLP.part.hbond>
-4.9256

> <Gold.PLP.part.metal>
0.0000

> <Gold.PLP.part.buried>
-6.3509

> <Gold.PLP.part.nonpolar>
-24.3406

> <Gold.PLP.part.repulsive>
0.2908

> <Gold.PLP.ligand.clash>
0.0000

> <Gold.PLP.ligand.torsion>
0.8409

> <Gold.PLP.Chemscore.Hbond>
4.5120

> <Gold.PLP.Chemscore.CHOScore>
1.0000

> <Gold.PLP.Chemscore.Metal>
0.0000

> <Gold.Chemscore.Hbonds>
donor molecule, donor type, donor heavy atom, donor atom, acceptor molecule, acceptor atom, score
      P1  H  6896  6907       L1    17  0.48
      P1  H  6896  6908       L1    22  1.00
      P1  H  7989  7998       L1    27  1.00
      P1  H  7997  8009       L1     3  1.00
      P1  H 10752 10765       L1     7  1.00
      L1  C    10    35       P1  7948  1.00

> <Gold.PLP.Chemscore.Internal.Correction>
0.2057

> <Gold.Rescore>
     Score         DG    S(hbond)    S(metal)    S(lipo)     H(rot)  DE(clash)    DE(int)     intcor
      9.26     -15.09       4.56        0.00      39.39       4.00       0.00       5.83       ----

> <Gold.Chemscore.Fitness>
9.2634

> <Gold.Chemscore.DG>
-15.0913

> <Gold.Chemscore.ZeroCoef>
-5.4800

> <Gold.Chemscore.Hbond>
4.5598

> <Gold.Chemscore.Metal>
0.0000

> <Gold.Chemscore.Lipo>
39.3922

> <Gold.Chemscore.Internal_Hbond>
0.0000

> <Gold.Chemscore.DEClash>
0.0000

> <Gold.Chemscore.DEInternal>
5.8279

> <Gold.Chemscore.Rot>
3.9951

> <Gold.Chemscore.Internal.Correction>
   9.000000E+99

> <Gold.Chemscore.Hbonds>
donor molecule, donor type, donor heavy atom, donor atom, acceptor molecule, acceptor atom, score
      P1  H  6896  6907       L1    17  0.46
      P1  H  6896  6908       L1    22  0.97
      P1  H  7989  7998       L1    27  0.98
      P1  H  7997  8009       L1     3  0.87
      P1  H 10752 10765       L1     7  0.28

> <Gold.Chemscore.Hbond.Weighted>
-15.2298

> <Gold.Chemscore.Metal.Weighted>
-0.0000

> <Gold.Chemscore.Lipo.Weighted>
-4.6089

> <Gold.Chemscore.Internal_Hbond.Weighted>
0.0000

> <Gold.Chemscore.DEClash.Weighted>
0.0000

> <Gold.Chemscore.DEInternal.Weighted>
5.8279

> <Gold.Chemscore.Rot.Weighted>
10.2274

> <Gold.Chemscore.Internal.Correction.Weighted>
   9.000000E+99

> <Gold.Protein.RotatedTorsions>
[ 6907 6896 6895 6894 ] final  167.13 input  -60.11 | X-H torsion
[ 7974 7965 7964 7962 ] final -156.63 input  175.53 | X-H torsion
[ 8008 7997 7996 7995 ] final  173.83 input   59.86 | X-H torsion
[ 10167 10162 10161 10158 ] final  -86.89 input  -65.29 | X-H torsion
[ 10718 10713 10712 10709 ] final    5.63 input   66.30 | X-H torsion
[ 10763 10752 10751 10750 ] final -163.37 input  -60.55 | X-H torsion
[ 11005 11000 10999 10996 ] final -128.06 input  -57.11 | X-H torsion

> <Gold.Protein.ActiveResidues>
 VAL166  LYS551  ARG553  GLY616  TRP617  ASP618  TYR619  PRO620  LYS621  CYS622 
 ASP623  PHE694  ASN695  SER759  ASP760  ASP761  ALA762  ILE779  LEU786  VAL792 
 PHE793  MET794  SER795  GLU796  ALA797  LYS798  CYS799  TRP800  GLU811  SER814 

> <Gold.Protein.RotatedAtoms>
  151.8682  133.3470  159.3725 H   0  0  0  0  0  0  0  0  0  0  0  0  # atno 6907 bound_to 6896
  150.7160  134.5139  159.5630 H   0  0  0  0  0  0  0  0  0  0  0  0  # atno 6908 bound_to 6896
  152.2666  134.7978  160.0472 H   0  0  0  0  0  0  0  0  0  0  0  0  # atno 6909 bound_to 6896
  144.7584  140.4082  143.5995 H   0  0  0  0  0  0  0  0  0  0  0  0  # atno 7974 bound_to 7965
  156.1036  140.1450  156.9435 H   0  0  0  0  0  0  0  0  0  0  0  0  # atno 8008 bound_to 7997
  154.4718  140.0907  156.7209 H   0  0  0  0  0  0  0  0  0  0  0  0  # atno 8009 bound_to 7997
  155.4718  140.3442  155.4329 H   0  0  0  0  0  0  0  0  0  0  0  0  # atno 8010 bound_to 7997
  140.3898  143.2710  151.9279 H   0  0  0  0  0  0  0  0  0  0  0  0  # atno 10167 bound_to 10162
  156.9102  130.5753  149.5647 H   0  0  0  0  0  0  0  0  0  0  0  0  # atno 10718 bound_to 10713
  154.7128  135.3010  154.9170 H   0  0  0  0  0  0  0  0  0  0  0  0  # atno 10763 bound_to 10752
  154.0066  135.6700  153.4766 H   0  0  0  0  0  0  0  0  0  0  0  0  # atno 10764 bound_to 10752
  153.0769  135.5030  154.8337 H   0  0  0  0  0  0  0  0  0  0  0  0  # atno 10765 bound_to 10752
  140.9547  134.1017  157.4028 H   0  0  0  0  0  0  0  0  0  0  0  0  # atno 11005 bound_to 11000
  145.6700  139.1597  143.2760 LP  0  0  0  0  0  0  0  0  0  0  0  0  # atno 17320 bound_to 7965
  146.1621  140.6773  142.9273 LP  0  0  0  0  0  0  0  0  0  0  0  0  # atno 17321 bound_to 7965
  139.4790  144.5739  151.8044 LP  0  0  0  0  0  0  0  0  0  0  0  0  # atno 17342 bound_to 10162
  140.4852  144.1392  150.5939 LP  0  0  0  0  0  0  0  0  0  0  0  0  # atno 17343 bound_to 10162
  156.0540  130.5604  150.9050 LP  0  0  0  0  0  0  0  0  0  0  0  0  # atno 17370 bound_to 10713
  157.5972  131.0942  150.9021 LP  0  0  0  0  0  0  0  0  0  0  0  0  # atno 17371 bound_to 10713
  139.8858  135.0076  156.6461 LP  0  0  0  0  0  0  0  0  0  0  0  0  # atno 17394 bound_to 11000
  140.7552  133.8863  155.8377 LP  0  0  0  0  0  0  0  0  0  0  0  0  # atno 17395 bound_to 11000

$$$$
