AV-unprocessed.smi:1641|AV-procd|sdf|6561|dock6
  -GOLD-   22720 7243D 1   1.00000     0.00000
 Structure written by MMmdl.
 42 43  0  0  0  0  0  0  0  0  2 V2000
  137.4691  137.2904  154.1738 C   0  0  0  0  0  0  0  0  0  0  0  0
  138.9499  137.2364  154.0130 C   0  0  0  0  0  0  0  0  0  0  0  0
  139.6798  136.1706  154.3640 N   0  0  0  0  0  0  0  0  0  0  0  0
  141.0340  136.3593  154.1265 N   0  0  0  0  0  0  0  0  0  0  0  0
  141.2858  137.5663  153.6014 C   0  0  0  0  0  0  0  0  0  0  0  0
  142.5878  138.0253  153.2689 N   0  0  0  0  0  0  0  0  0  0  0  0
  143.7193  137.3074  153.1591 C   0  0  0  0  0  0  0  0  0  0  0  0
  143.8089  136.0885  153.3096 O   0  0  0  0  0  0  0  0  0  0  0  0
  144.7676  138.0895  152.8635 N   0  0  0  0  0  0  0  0  0  0  0  0
  146.1337  137.6120  152.6837 C   0  0  0  0  0  0  0  0  0  0  0  0
  147.1578  138.5706  153.3223 C   0  0  0  0  0  0  0  0  0  0  0  0
  148.3159  137.8517  153.9077 N   0  3  1  0  0  0  0  0  0  0  0  0
  149.4263  138.7647  154.2633 C   0  0  0  0  0  0  0  0  0  0  0  0
  150.6423  137.9645  154.7630 C   0  0  1  0  0  0  0  0  0  0  0  0
  151.7809  138.8802  155.2251 C   0  0  0  0  0  0  0  0  0  0  0  0
  150.2550  137.1543  155.8698 O   0  0  0  0  0  0  0  0  0  0  0  0
  149.1886  136.2431  155.6040 C   0  0  2  0  0  0  0  0  0  0  0  0
  149.6284  135.0771  154.7007 C   0  0  0  0  0  0  0  0  0  0  0  0
  147.9582  137.0032  155.0714 C   0  0  0  0  0  0  0  0  0  0  0  0
  139.8737  138.5775  153.3469 S   0  0  0  0  0  0  0  0  0  0  0  0
  137.0944  136.3633  154.6089 H   0  0  0  0  0  0  0  0  0  0  0  0
  136.9943  137.4382  153.2039 H   0  0  0  0  0  0  0  0  0  0  0  0
  137.1965  138.1182  154.8285 H   0  0  0  0  0  0  0  0  0  0  0  0
  142.6679  139.0189  153.1112 H   0  0  0  0  0  0  0  0  0  0  0  0
  144.6090  139.0805  152.7504 H   0  0  0  0  0  0  0  0  0  0  0  0
  146.2139  136.6057  153.0958 H   0  0  0  0  0  0  0  0  0  0  0  0
  146.3243  137.5249  151.6138 H   0  0  0  0  0  0  0  0  0  0  0  0
  147.5135  139.2495  152.5456 H   0  0  0  0  0  0  0  0  0  0  0  0
  146.6939  139.1952  154.0874 H   0  0  0  0  0  0  0  0  0  0  0  0
  149.7123  139.3549  153.3916 H   0  0  0  0  0  0  0  0  0  0  0  0
  149.0904  139.4661  155.0292 H   0  0  0  0  0  0  0  0  0  0  0  0
  151.0213  137.3338  153.9588 H   0  0  0  0  0  0  0  0  0  0  0  0
  152.1285  139.5172  154.4112 H   0  0  0  0  0  0  0  0  0  0  0  0
  152.6320  138.2963  155.5765 H   0  0  0  0  0  0  0  0  0  0  0  0
  151.4611  139.5268  156.0428 H   0  0  0  0  0  0  0  0  0  0  0  0
  148.9178  135.8090  156.5670 H   0  0  0  0  0  0  0  0  0  0  0  0
  148.8389  134.3290  154.6244 H   0  0  0  0  0  0  0  0  0  0  0  0
  150.5110  134.5823  155.1068 H   0  0  0  0  0  0  0  0  0  0  0  0
  149.8633  135.4022  153.6875 H   0  0  0  0  0  0  0  0  0  0  0  0
  147.5516  137.6372  155.8612 H   0  0  0  0  0  0  0  0  0  0  0  0
  147.1763  136.2910  154.8103 H   0  0  0  0  0  0  0  0  0  0  0  0
  148.6708  137.2381  153.1882 H   0  0  0  0  0  0  0  0  0  0  0  0
  1  2  1  0  0  0  0
  1 21  1  0  0  0  0
  1 22  1  0  0  0  0
  1 23  1  0  0  0  0
  2 20  1  0  0  0  0
  2  3  2  0  0  0  0
  3  4  1  0  0  0  0
  4  5  2  0  0  0  0
  5  6  1  0  0  0  0
  5 20  1  0  0  0  0
  6  7  1  0  0  0  0
  6 24  1  0  0  0  0
  7  8  2  0  0  0  0
  7  9  1  0  0  0  0
  9 10  1  0  0  0  0
  9 25  1  0  0  0  0
 10 11  1  0  0  0  0
 10 26  1  0  0  0  0
 10 27  1  0  0  0  0
 11 12  1  0  0  0  0
 11 28  1  0  0  0  0
 11 29  1  0  0  0  0
 12 19  1  0  0  0  0
 12 13  1  0  0  0  0
 12 42  1  0  0  0  0
 13 14  1  0  0  0  0
 13 30  1  0  0  0  0
 13 31  1  0  0  0  0
 14 15  1  0  0  0  0
 14 16  1  0  0  0  0
 14 32  1  0  0  0  0
 15 33  1  0  0  0  0
 15 34  1  0  0  0  0
 15 35  1  0  0  0  0
 16 17  1  0  0  0  0
 17 18  1  0  0  0  0
 17 19  1  0  0  0  0
 17 36  1  0  0  0  0
 18 37  1  0  0  0  0
 18 38  1  0  0  0  0
 18 39  1  0  0  0  0
 19 40  1  0  0  0  0
 19 41  1  0  0  0  0
M  CHG  1  12   1
M  END
> <s_m_source_file>
AV-unprocessed.smi

> <i_m_source_file_index>
1641

> <i_lp_mmshare_version>
43012

> <i_f3d_flags>
0

> <s_epik_input>
W0NIM11jMW5uYyhzMSlbTkhdQyg9TylbTkhdW0NIMl1bQ0gyXU4yW0NIMl1bQ0BASF0oW0NIM10pT1tDQEBIXShbQ0gzXSlbQ0gyXTI=

> <s_epik_cmdline>
J2VwaWtfcHl0aG9uJywgJy1waCcsICc3LjAnLCAnLXRuJywgJzgnLCAnLW1hJywgJzIwMCcsICctbWV0YWxfYmluZGluZycsICctaW1hZScsICc8aW5maWxlLm1hZT4nLCAnLW9tYWUnLCAnPG91dGZpbGUubWFlPic=

> <r_lp_tautomer_probability>
1

> <r_epik_Ionization_Penalty>
0.700114

> <r_epik_Ionization_Penalty_Charging>
0.695697

> <r_epik_Ionization_Penalty_Neutral>
0.00441638

> <r_epik_State_Penalty>
0.717972

> <r_epik_Charging_Adjusted_Penalty>
1.41367

> <i_epik_Tot_Q>
1

> <i_epik_Tot_abs_Q>
1

> <r_epik_Metal_State_Penalty>
1.06958

> <b_epik_Metal_Only>
0

> <s_lp_Force_Field>
OPLS_2005

> <r_lp_Energy>
15.7554

> <b_lp_Chiralities_Consistent>
1

> <s_lp_Variant>
AV-unprocessed.smi:1641-6

> <Gold.Version>
5.8.1

> <Gold.Id.Protein>
6NUR|6NUR_protein|mol2

> <Gold.PLP.Fitness>
45.6421

> <Gold.PLP.PLP>
-31.5506

> <Gold.PLP.part.hbond>
-4.4214

> <Gold.PLP.part.metal>
0.0000

> <Gold.PLP.part.buried>
-1.8871

> <Gold.PLP.part.nonpolar>
-25.1064

> <Gold.PLP.part.repulsive>
0.2974

> <Gold.PLP.ligand.clash>
0.0000

> <Gold.PLP.ligand.torsion>
0.4661

> <Gold.PLP.Chemscore.Hbond>
5.0000

> <Gold.PLP.Chemscore.CHOScore>
0.0000

> <Gold.PLP.Chemscore.Metal>
0.0000

> <Gold.Chemscore.Hbonds>
donor molecule, donor type, donor heavy atom, donor atom, acceptor molecule, acceptor atom, score
      L1  H     6    24       P1 10175  1.00
      L1  H     9    25       P1 10175  1.00
      L1  H    12    42       P1  7948  2.00
      P1  H 11000 11005       L1     3  0.45

> <Gold.PLP.Chemscore.Internal.Correction>
0.0237

> <Gold.Rescore>
     Score         DG    S(hbond)    S(metal)    S(lipo)     H(rot)  DE(clash)    DE(int)     intcor
     19.06     -21.40       3.71        0.00      65.99       1.64       0.50       1.83       ----

> <Gold.Chemscore.Fitness>
19.0645

> <Gold.Chemscore.DG>
-21.3973

> <Gold.Chemscore.ZeroCoef>
-5.4800

> <Gold.Chemscore.Hbond>
3.7079

> <Gold.Chemscore.Metal>
0.0000

> <Gold.Chemscore.Lipo>
65.9870

> <Gold.Chemscore.Internal_Hbond>
0.0000

> <Gold.Chemscore.DEClash>
0.4991

> <Gold.Chemscore.DEInternal>
1.8336

> <Gold.Chemscore.Rot>
1.6358

> <Gold.Chemscore.Internal.Correction>
   9.000000E+99

> <Gold.Chemscore.Hbonds>
donor molecule, donor type, donor heavy atom, donor atom, acceptor molecule, acceptor atom, score
      L1  H     6    24       P1 10175  0.94
      L1  H     9    25       P1 10175  0.98
      L1  H    12    42       P1  7948  1.00
      P1  H 11000 11005       L1     3  0.06

> <Gold.Chemscore.Hbond.Weighted>
-12.3845

> <Gold.Chemscore.Metal.Weighted>
-0.0000

> <Gold.Chemscore.Lipo.Weighted>
-7.7205

> <Gold.Chemscore.Internal_Hbond.Weighted>
0.0000

> <Gold.Chemscore.DEClash.Weighted>
0.4991

> <Gold.Chemscore.DEInternal.Weighted>
1.8336

> <Gold.Chemscore.Rot.Weighted>
4.1878

> <Gold.Chemscore.Internal.Correction.Weighted>
   9.000000E+99

> <Gold.Protein.RotatedTorsions>
[ 6907 6896 6895 6894 ] final   34.43 input  -60.11 | X-H torsion
[ 7974 7965 7964 7962 ] final  -88.81 input  175.53 | X-H torsion
[ 8008 7997 7996 7995 ] final  -49.82 input   59.86 | X-H torsion
[ 10167 10162 10161 10158 ] final  -76.62 input  -65.29 | X-H torsion
[ 10718 10713 10712 10709 ] final  -98.98 input   66.30 | X-H torsion
[ 10763 10752 10751 10750 ] final -113.60 input  -60.55 | X-H torsion
[ 11005 11000 10999 10996 ] final   68.87 input  -57.11 | X-H torsion

> <Gold.Protein.ActiveResidues>
 VAL166  LYS551  ARG553  GLY616  TRP617  ASP618  TYR619  PRO620  LYS621  CYS622 
 ASP623  PHE694  ASN695  SER759  ASP760  ASP761  ALA762  ILE779  LEU786  VAL792 
 PHE793  MET794  SER795  GLU796  ALA797  LYS798  CYS799  TRP800  GLU811  SER814 

> <Gold.Protein.RotatedAtoms>
  152.1022  134.9333  160.0569 H   0  0  0  0  0  0  0  0  0  0  0  0  # atno 6907 bound_to 6896
  152.0543  133.4028  159.4399 H   0  0  0  0  0  0  0  0  0  0  0  0  # atno 6908 bound_to 6896
  150.6840  134.3193  159.4823 H   0  0  0  0  0  0  0  0  0  0  0  0  # atno 6909 bound_to 6896
  145.4482  140.9560  143.2037 H   0  0  0  0  0  0  0  0  0  0  0  0  # atno 7974 bound_to 7965
  154.4051  140.1287  156.4565 H   0  0  0  0  0  0  0  0  0  0  0  0  # atno 8008 bound_to 7997
  155.7315  140.3491  155.5042 H   0  0  0  0  0  0  0  0  0  0  0  0  # atno 8009 bound_to 7997
  155.9123  140.1038  157.1260 H   0  0  0  0  0  0  0  0  0  0  0  0  # atno 8010 bound_to 7997
  140.4841  143.2395  151.8011 H   0  0  0  0  0  0  0  0  0  0  0  0  # atno 10167 bound_to 10162
  156.0122  130.5262  150.6603 H   0  0  0  0  0  0  0  0  0  0  0  0  # atno 10718 bound_to 10713
  154.8403  135.4448  154.1374 H   0  0  0  0  0  0  0  0  0  0  0  0  # atno 10763 bound_to 10752
  153.2568  135.6932  153.7626 H   0  0  0  0  0  0  0  0  0  0  0  0  # atno 10764 bound_to 10752
  153.6918  135.3386  155.3179 H   0  0  0  0  0  0  0  0  0  0  0  0  # atno 10765 bound_to 10752
  139.9686  134.6938  156.0494 H   0  0  0  0  0  0  0  0  0  0  0  0  # atno 11005 bound_to 11000
  144.8078  139.6018  143.7043 LP  0  0  0  0  0  0  0  0  0  0  0  0  # atno 17320 bound_to 7965
  146.2519  139.6218  142.9421 LP  0  0  0  0  0  0  0  0  0  0  0  0  # atno 17321 bound_to 7965
  139.4839  144.4734  151.9396 LP  0  0  0  0  0  0  0  0  0  0  0  0  # atno 17342 bound_to 10162
  140.3820  144.2724  150.5907 LP  0  0  0  0  0  0  0  0  0  0  0  0  # atno 17343 bound_to 10162
  157.4347  131.0853  151.1004 LP  0  0  0  0  0  0  0  0  0  0  0  0  # atno 17370 bound_to 10713
  157.1566  130.6207  149.5598 LP  0  0  0  0  0  0  0  0  0  0  0  0  # atno 17371 bound_to 10713
  141.1366  133.6574  156.3610 LP  0  0  0  0  0  0  0  0  0  0  0  0  # atno 17394 bound_to 11000
  140.5342  134.6183  157.5360 LP  0  0  0  0  0  0  0  0  0  0  0  0  # atno 17395 bound_to 11000

$$$$
