AV-unprocessed.smi:3311|AV-procd|sdf|12723|dock5
  -GOLD-   2272019 63D 1   1.00000     0.00000
 Structure written by MMmdl.
 43 44  0  0  0  0  0  0  0  0  1 V2000
  146.7084  141.6487  155.8591 C   0  0  0  0  0  0  0  0  0  0  0  0
  148.1779  141.2316  156.0416 C   0  0  2  0  0  0  0  0  0  0  0  0
  148.7977  142.1703  156.9831 N   0  0  0  0  0  0  0  0  0  0  0  0
  150.1749  141.8461  157.3631 C   0  0  0  0  0  0  0  0  0  0  0  0
  150.8839  143.0144  158.0836 C   0  0  0  0  0  0  0  0  0  0  0  0
  151.2174  143.9684  157.0913 O   0  0  0  0  0  0  0  0  0  0  0  0
  150.0004  143.6757  159.1717 C   0  0  0  0  0  0  0  0  0  0  0  0
  150.7512  144.7451  159.9850 C   0  0  0  0  0  0  0  0  0  0  0  0
  152.0390  144.1819  160.6011 C   0  0  0  0  0  0  0  0  0  0  0  0
  152.9470  143.5802  159.5198 C   0  0  0  0  0  0  0  0  0  0  0  0
  152.2073  142.5055  158.7027 C   0  0  0  0  0  0  0  0  0  0  0  0
  148.9474  141.1950  154.6884 C   0  0  2  0  0  0  0  0  0  0  0  0
  148.0212  141.1442  153.4586 C   0  0  0  0  0  0  0  0  0  0  0  0
  149.8947  140.0879  154.6247 N   0  0  0  0  0  0  0  0  0  0  0  0
  149.6453  138.7440  154.4234 C   0  0  0  0  0  0  0  0  0  0  0  0
  150.8448  138.0936  154.4745 C   0  0  0  0  0  0  0  0  0  0  0  0
  151.7830  139.1344  154.7191 C   0  0  0  0  0  0  0  0  0  0  0  0
  151.2130  140.3247  154.8060 N   0  0  0  0  0  0  0  0  0  0  0  0
  146.1469  140.9139  155.2827 H   0  0  0  0  0  0  0  0  0  0  0  0
  146.6266  142.6100  155.3508 H   0  0  0  0  0  0  0  0  0  0  0  0
  146.2065  141.7405  156.8231 H   0  0  0  0  0  0  0  0  0  0  0  0
  148.1739  140.2303  156.4755 H   0  0  0  0  0  0  0  0  0  0  0  0
  148.7847  143.1022  156.5796 H   0  0  0  0  0  0  0  0  0  0  0  0
  150.1642  140.9714  158.0144 H   0  0  0  0  0  0  0  0  0  0  0  0
  150.7617  141.5611  156.4918 H   0  0  0  0  0  0  0  0  0  0  0  0
  150.4401  144.1617  156.5901 H   0  0  0  0  0  0  0  0  0  0  0  0
  149.1139  144.1281  158.7257 H   0  0  0  0  0  0  0  0  0  0  0  0
  149.6368  142.9057  159.8536 H   0  0  0  0  0  0  0  0  0  0  0  0
  150.9924  145.5940  159.3440 H   0  0  0  0  0  0  0  0  0  0  0  0
  150.1031  145.1316  160.7719 H   0  0  0  0  0  0  0  0  0  0  0  0
  152.5700  144.9685  161.1380 H   0  0  0  0  0  0  0  0  0  0  0  0
  151.7892  143.4174  161.3378 H   0  0  0  0  0  0  0  0  0  0  0  0
  153.3035  144.3701  158.8580 H   0  0  0  0  0  0  0  0  0  0  0  0
  153.8338  143.1463  159.9823 H   0  0  0  0  0  0  0  0  0  0  0  0
  151.9935  141.6604  159.3586 H   0  0  0  0  0  0  0  0  0  0  0  0
  152.8660  142.1203  157.9229 H   0  0  0  0  0  0  0  0  0  0  0  0
  149.5235  142.1194  154.6085 H   0  0  0  0  0  0  0  0  0  0  0  0
  147.4378  142.0586  153.3553 H   0  0  0  0  0  0  0  0  0  0  0  0
  147.3251  140.3071  153.5159 H   0  0  0  0  0  0  0  0  0  0  0  0
  148.5983  141.0345  152.5399 H   0  0  0  0  0  0  0  0  0  0  0  0
  148.6457  138.3658  154.2686 H   0  0  0  0  0  0  0  0  0  0  0  0
  151.0243  137.0349  154.3601 H   0  0  0  0  0  0  0  0  0  0  0  0
  152.8541  139.0614  154.8366 H   0  0  0  0  0  0  0  0  0  0  0  0
  1  2  1  0  0  0  0
  1 19  1  0  0  0  0
  1 20  1  0  0  0  0
  1 21  1  0  0  0  0
  2  3  1  0  0  0  0
  2 12  1  0  0  0  0
  2 22  1  0  0  0  0
  3  4  1  0  0  0  0
  3 23  1  0  0  0  0
  4  5  1  0  0  0  0
  4 24  1  0  0  0  0
  4 25  1  0  0  0  0
  5 11  1  0  0  0  0
  5  6  1  0  0  0  0
  5  7  1  0  0  0  0
  6 26  1  0  0  0  0
  7  8  1  0  0  0  0
  7 27  1  0  0  0  0
  7 28  1  0  0  0  0
  8  9  1  0  0  0  0
  8 29  1  0  0  0  0
  8 30  1  0  0  0  0
  9 10  1  0  0  0  0
  9 31  1  0  0  0  0
  9 32  1  0  0  0  0
 10 11  1  0  0  0  0
 10 33  1  0  0  0  0
 10 34  1  0  0  0  0
 11 35  1  0  0  0  0
 11 36  1  0  0  0  0
 12 13  1  0  0  0  0
 12 14  1  0  0  0  0
 12 37  1  0  0  0  0
 13 38  1  0  0  0  0
 13 39  1  0  0  0  0
 13 40  1  0  0  0  0
 14 18  1  0  0  0  0
 14 15  1  0  0  0  0
 15 16  2  0  0  0  0
 15 41  1  0  0  0  0
 16 17  1  0  0  0  0
 16 42  1  0  0  0  0
 17 18  2  0  0  0  0
 17 43  1  0  0  0  0
M  END
> <s_m_source_file>
AV-unprocessed.smi

> <i_m_source_file_index>
3311

> <i_lp_mmshare_version>
43012

> <i_f3d_flags>
0

> <s_epik_input>
bjFbY0hdW2NIXVtjSF1uMVtDQEBIXShbQ0gzXSlbQ0BIXShbQ0gzXSlbTkhdW0NIMl1DMihbT0hdKVtDSDJdW0NIMl1bQ0gyXVtDSDJdW0NIMl0y

> <s_epik_cmdline>
J2VwaWtfcHl0aG9uJywgJy1waCcsICc3LjAnLCAnLXRuJywgJzgnLCAnLW1hJywgJzIwMCcsICctbWV0YWxfYmluZGluZycsICctaW1hZScsICc8aW5maWxlLm1hZT4nLCAnLW9tYWUnLCAnPG91dGZpbGUubWFlPic=

> <r_lp_tautomer_probability>
1

> <r_epik_Ionization_Penalty>
2.222

> <r_epik_Ionization_Penalty_Charging>
0

> <r_epik_Ionization_Penalty_Neutral>
2.222

> <r_epik_State_Penalty>
2.36562

> <r_epik_Charging_Adjusted_Penalty>
2.36562

> <i_epik_Tot_Q>
0

> <i_epik_Tot_abs_Q>
0

> <r_epik_Metal_State_Penalty>
2.36435

> <b_epik_Metal_Only>
0

> <s_lp_Force_Field>
OPLS_2005

> <r_lp_Energy>
30.3398

> <b_lp_Chiralities_Consistent>
1

> <s_lp_Variant>
AV-unprocessed.smi:3311-5

> <Gold.Version>
5.8.1

> <Gold.Id.Protein>
6NUR|6NUR_protein|mol2

> <Gold.PLP.Fitness>
47.3235

> <Gold.PLP.PLP>
-41.4639

> <Gold.PLP.part.hbond>
-3.0000

> <Gold.PLP.part.metal>
0.0000

> <Gold.PLP.part.buried>
-5.2495

> <Gold.PLP.part.nonpolar>
-33.4864

> <Gold.PLP.part.repulsive>
0.0700

> <Gold.PLP.ligand.clash>
0.0000

> <Gold.PLP.ligand.torsion>
1.6074

> <Gold.PLP.Chemscore.Hbond>
3.0000

> <Gold.PLP.Chemscore.CHOScore>
0.0000

> <Gold.PLP.Chemscore.Metal>
0.0000

> <Gold.Chemscore.Hbonds>
donor molecule, donor type, donor heavy atom, donor atom, acceptor molecule, acceptor atom, score
      L1  H     3    23       P1  8028  1.00
      L1  H     6    26       P1  8028  1.00
      P1  H  7989  7998       L1    18  0.82

> <Gold.PLP.Chemscore.Internal.Correction>
0.0743

> <Gold.Rescore>
     Score         DG    S(hbond)    S(metal)    S(lipo)     H(rot)  DE(clash)    DE(int)     intcor
     21.40     -22.84       2.89        0.00     111.04       2.07       0.34       1.11       ----

> <Gold.Chemscore.Fitness>
21.3982

> <Gold.Chemscore.DG>
-22.8449

> <Gold.Chemscore.ZeroCoef>
-5.4800

> <Gold.Chemscore.Hbond>
2.8949

> <Gold.Chemscore.Metal>
0.0000

> <Gold.Chemscore.Lipo>
111.0392

> <Gold.Chemscore.Internal_Hbond>
0.0000

> <Gold.Chemscore.DEClash>
0.3352

> <Gold.Chemscore.DEInternal>
1.1115

> <Gold.Chemscore.Rot>
2.0686

> <Gold.Chemscore.Internal.Correction>
   9.000000E+99

> <Gold.Chemscore.Hbonds>
donor molecule, donor type, donor heavy atom, donor atom, acceptor molecule, acceptor atom, score
      L1  H     3    23       P1  8028  0.93
      L1  H     6    26       P1  8028  1.00
      P1  H  7989  7998       L1    18  0.07

> <Gold.Chemscore.Hbond.Weighted>
-9.6690

> <Gold.Chemscore.Metal.Weighted>
-0.0000

> <Gold.Chemscore.Lipo.Weighted>
-12.9916

> <Gold.Chemscore.Internal_Hbond.Weighted>
0.0000

> <Gold.Chemscore.DEClash.Weighted>
0.3352

> <Gold.Chemscore.DEInternal.Weighted>
1.1115

> <Gold.Chemscore.Rot.Weighted>
5.2957

> <Gold.Chemscore.Internal.Correction.Weighted>
   9.000000E+99

> <Gold.Protein.RotatedTorsions>
[ 6907 6896 6895 6894 ] final  -94.01 input  -60.11 | X-H torsion
[ 7974 7965 7964 7962 ] final -167.51 input  175.53 | X-H torsion
[ 8008 7997 7996 7995 ] final  177.20 input   59.86 | X-H torsion
[ 10167 10162 10161 10158 ] final  160.54 input  -65.29 | X-H torsion
[ 10718 10713 10712 10709 ] final  -12.64 input   66.30 | X-H torsion
[ 10763 10752 10751 10750 ] final   21.83 input  -60.55 | X-H torsion
[ 11005 11000 10999 10996 ] final  -48.23 input  -57.11 | X-H torsion

> <Gold.Protein.ActiveResidues>
 VAL166  LYS551  ARG553  GLY616  TRP617  ASP618  TYR619  PRO620  LYS621  CYS622 
 ASP623  PHE694  ASN695  SER759  ASP760  ASP761  ALA762  ILE779  LEU786  VAL792 
 PHE793  MET794  SER795  GLU796  ALA797  LYS798  CYS799  TRP800  GLU811  SER814 

> <Gold.Protein.RotatedAtoms>
  150.6933  134.1878  159.4273 H   0  0  0  0  0  0  0  0  0  0  0  0  # atno 6907 bound_to 6896
  151.9850  135.0006  160.0568 H   0  0  0  0  0  0  0  0  0  0  0  0  # atno 6908 bound_to 6896
  152.1720  133.4615  159.4951 H   0  0  0  0  0  0  0  0  0  0  0  0  # atno 6909 bound_to 6896
  144.7221  140.2508  143.6279 H   0  0  0  0  0  0  0  0  0  0  0  0  # atno 7974 bound_to 7965
  156.0683  140.1364  156.9859 H   0  0  0  0  0  0  0  0  0  0  0  0  # atno 8008 bound_to 7997
  154.4518  140.0977  156.6692 H   0  0  0  0  0  0  0  0  0  0  0  0  # atno 8009 bound_to 7997
  155.5269  140.3457  155.4420 H   0  0  0  0  0  0  0  0  0  0  0  0  # atno 8010 bound_to 7997
  139.4841  144.4624  151.8687 H   0  0  0  0  0  0  0  0  0  0  0  0  # atno 10167 bound_to 10162
  156.6417  130.4930  149.6093 H   0  0  0  0  0  0  0  0  0  0  0  0  # atno 10718 bound_to 10713
  153.0964  135.6661  153.9756 H   0  0  0  0  0  0  0  0  0  0  0  0  # atno 10763 bound_to 10752
  153.9339  135.3001  155.3446 H   0  0  0  0  0  0  0  0  0  0  0  0  # atno 10764 bound_to 10752
  154.7382  135.5092  153.9152 H   0  0  0  0  0  0  0  0  0  0  0  0  # atno 10765 bound_to 10752
  141.0688  133.6685  156.3412 H   0  0  0  0  0  0  0  0  0  0  0  0  # atno 11005 bound_to 11000
  145.8230  139.2052  143.1927 LP  0  0  0  0  0  0  0  0  0  0  0  0  # atno 17320 bound_to 7965
  146.0497  140.8081  142.9787 LP  0  0  0  0  0  0  0  0  0  0  0  0  # atno 17321 bound_to 7965
  140.4087  144.2397  150.5889 LP  0  0  0  0  0  0  0  0  0  0  0  0  # atno 17342 bound_to 10162
  140.4987  143.2324  151.8711 LP  0  0  0  0  0  0  0  0  0  0  0  0  # atno 17343 bound_to 10162
  156.2154  130.6704  151.1313 LP  0  0  0  0  0  0  0  0  0  0  0  0  # atno 17370 bound_to 10713
  157.7169  131.0704  150.6292 LP  0  0  0  0  0  0  0  0  0  0  0  0  # atno 17371 bound_to 10713
  140.5716  134.5834  157.5459 LP  0  0  0  0  0  0  0  0  0  0  0  0  # atno 17394 bound_to 11000
  139.9503  134.7629  156.0464 LP  0  0  0  0  0  0  0  0  0  0  0  0  # atno 17395 bound_to 11000

$$$$
