AV-unprocessed.smi:3145|AV-procd|sdf|11981|dock6
  -GOLD-   2272017383D 1   1.00000     0.00000
 Structure written by MMmdl.
 34 34  0  0  0  0  0  0  0  0  1 V2000
  151.7539  144.9055  157.9323 C   0  0  0  0  0  0  0  0  0  0  0  0
  151.2965  143.4421  158.0074 C   0  0  2  0  0  0  0  0  0  0  0  0
  152.4092  142.5421  158.5910 C   0  0  0  0  0  0  0  0  0  0  0  0
  152.7959  142.9100  159.9424 N   0  0  0  0  0  0  0  0  0  0  0  0
  153.6465  142.2446  160.7997 C   0  0  0  0  0  0  0  0  0  0  0  0
  153.7137  142.9736  161.9524 C   0  0  0  0  0  0  0  0  0  0  0  0
  152.8550  144.0805  161.7034 C   0  0  0  0  0  0  0  0  0  0  0  0
  152.3050  144.0387  160.5009 N   0  0  0  0  0  0  0  0  0  0  0  0
  150.9629  143.0157  156.6520 N   0  0  0  0  0  0  0  0  0  0  0  0
  150.8753  141.5551  156.5311 C   0  0  0  0  0  0  0  0  0  0  0  0
  149.9779  141.1473  155.3667 C   0  0  0  0  0  0  0  0  0  0  0  0
  150.2574  140.1646  154.6808 O   0  0  0  0  0  0  0  0  0  0  0  0
  148.9033  141.9201  155.1536 N   0  0  0  0  0  0  0  0  0  0  0  0
  147.9292  141.7117  154.0934 C   0  0  0  0  0  0  0  0  0  0  0  0
  146.5061  141.7814  154.6567 C   0  0  0  0  0  0  0  0  0  0  0  0
  145.7457  142.9258  154.1329 C   0  0  0  0  0  0  0  0  0  0  0  0
  145.1472  143.8261  153.7208 N   0  0  0  0  0  0  0  0  0  0  0  0
  152.0040  145.2872  158.9226 H   0  0  0  0  0  0  0  0  0  0  0  0
  150.9695  145.5446  157.5252 H   0  0  0  0  0  0  0  0  0  0  0  0
  152.6370  145.0180  157.3019 H   0  0  0  0  0  0  0  0  0  0  0  0
  150.4164  143.4067  158.6527 H   0  0  0  0  0  0  0  0  0  0  0  0
  152.1020  141.4947  158.5799 H   0  0  0  0  0  0  0  0  0  0  0  0
  153.3006  142.6052  157.9659 H   0  0  0  0  0  0  0  0  0  0  0  0
  154.1311  141.3210  160.5185 H   0  0  0  0  0  0  0  0  0  0  0  0
  154.2889  142.7503  162.8384 H   0  0  0  0  0  0  0  0  0  0  0  0
  152.6169  144.9076  162.3558 H   0  0  0  0  0  0  0  0  0  0  0  0
  150.1016  143.4549  156.3598 H   0  0  0  0  0  0  0  0  0  0  0  0
  151.8614  141.1215  156.3637 H   0  0  0  0  0  0  0  0  0  0  0  0
  150.4961  141.1334  157.4629 H   0  0  0  0  0  0  0  0  0  0  0  0
  148.7519  142.7025  155.7747 H   0  0  0  0  0  0  0  0  0  0  0  0
  148.0637  142.4716  153.3221 H   0  0  0  0  0  0  0  0  0  0  0  0
  148.1000  140.7403  153.6262 H   0  0  0  0  0  0  0  0  0  0  0  0
  145.9537  140.8734  154.4132 H   0  0  0  0  0  0  0  0  0  0  0  0
  146.5292  141.8660  155.7436 H   0  0  0  0  0  0  0  0  0  0  0  0
  1  2  1  0  0  0  0
  1 18  1  0  0  0  0
  1 19  1  0  0  0  0
  1 20  1  0  0  0  0
  2  3  1  0  0  0  0
  2  9  1  0  0  0  0
  2 21  1  0  0  0  0
  3  4  1  0  0  0  0
  3 22  1  0  0  0  0
  3 23  1  0  0  0  0
  4  8  1  0  0  0  0
  4  5  1  0  0  0  0
  5  6  2  0  0  0  0
  5 24  1  0  0  0  0
  6  7  1  0  0  0  0
  6 25  1  0  0  0  0
  7  8  2  0  0  0  0
  7 26  1  0  0  0  0
  9 10  1  0  0  0  0
  9 27  1  0  0  0  0
 10 11  1  0  0  0  0
 10 28  1  0  0  0  0
 10 29  1  0  0  0  0
 11 12  2  0  0  0  0
 11 13  1  0  0  0  0
 13 14  1  0  0  0  0
 13 30  1  0  0  0  0
 14 15  1  0  0  0  0
 14 31  1  0  0  0  0
 14 32  1  0  0  0  0
 15 16  1  0  0  0  0
 15 33  1  0  0  0  0
 15 34  1  0  0  0  0
 16 17  3  0  0  0  0
M  END
> <s_m_source_file>
AV-unprocessed.smi

> <i_m_source_file_index>
3145

> <i_lp_mmshare_version>
43012

> <i_f3d_flags>
0

> <s_epik_input>
bjFbY0hdW2NIXVtjSF1uMVtDSDJdW0NAQEhdKFtDSDNdKVtOSF1bQ0gyXUMoPU8pW05IXVtDSDJdW0NIMl1DI04=

> <s_epik_cmdline>
J2VwaWtfcHl0aG9uJywgJy1waCcsICc3LjAnLCAnLXRuJywgJzgnLCAnLW1hJywgJzIwMCcsICctbWV0YWxfYmluZGluZycsICctaW1hZScsICc8aW5maWxlLm1hZT4nLCAnLW9tYWUnLCAnPG91dGZpbGUubWFlPic=

> <r_lp_tautomer_probability>
1

> <r_epik_Ionization_Penalty>
0.765991

> <r_epik_Ionization_Penalty_Charging>
0

> <r_epik_Ionization_Penalty_Neutral>
0.765991

> <r_epik_State_Penalty>
0.794192

> <r_epik_Charging_Adjusted_Penalty>
0.794192

> <i_epik_Tot_Q>
0

> <i_epik_Tot_abs_Q>
0

> <r_epik_Metal_State_Penalty>
0.806127

> <b_epik_Metal_Only>
0

> <s_lp_Force_Field>
OPLS_2005

> <r_lp_Energy>
5.26669

> <b_lp_Chiralities_Consistent>
1

> <s_lp_Variant>
AV-unprocessed.smi:3145-3

> <Gold.Version>
5.8.1

> <Gold.Id.Protein>
6NUR|6NUR_protein|mol2

> <Gold.PLP.Fitness>
52.7916

> <Gold.PLP.PLP>
-46.5327

> <Gold.PLP.part.hbond>
-3.0000

> <Gold.PLP.part.metal>
0.0000

> <Gold.PLP.part.buried>
-6.5558

> <Gold.PLP.part.nonpolar>
-36.0091

> <Gold.PLP.part.repulsive>
0.5688

> <Gold.PLP.ligand.clash>
0.0000

> <Gold.PLP.ligand.torsion>
1.0825

> <Gold.PLP.Chemscore.Hbond>
2.7840

> <Gold.PLP.Chemscore.CHOScore>
0.0000

> <Gold.PLP.Chemscore.Metal>
0.0000

> <Gold.Chemscore.Hbonds>
donor molecule, donor type, donor heavy atom, donor atom, acceptor molecule, acceptor atom, score
      L1  H     9    27       P1  8028  1.00
      L1  H    13    30       P1  8028  0.74
      P1  H  7989  7998       L1    12  1.00

> <Gold.PLP.Chemscore.Internal.Correction>
0.0720

> <Gold.Rescore>
     Score         DG    S(hbond)    S(metal)    S(lipo)     H(rot)  DE(clash)    DE(int)     intcor
     14.50     -16.48       2.31        0.00      89.46       2.80       0.05       1.93       ----

> <Gold.Chemscore.Fitness>
14.5026

> <Gold.Chemscore.DG>
-16.4846

> <Gold.Chemscore.ZeroCoef>
-5.4800

> <Gold.Chemscore.Hbond>
2.3077

> <Gold.Chemscore.Metal>
0.0000

> <Gold.Chemscore.Lipo>
89.4577

> <Gold.Chemscore.Internal_Hbond>
0.0000

> <Gold.Chemscore.DEClash>
0.0491

> <Gold.Chemscore.DEInternal>
1.9328

> <Gold.Chemscore.Rot>
2.8006

> <Gold.Chemscore.Internal.Correction>
   9.000000E+99

> <Gold.Chemscore.Hbonds>
donor molecule, donor type, donor heavy atom, donor atom, acceptor molecule, acceptor atom, score
      L1  H     9    27       P1  8028  1.00
      L1  H    13    30       P1  8028  0.68
      P1  H  7989  7998       L1    12  0.34

> <Gold.Chemscore.Hbond.Weighted>
-7.7077

> <Gold.Chemscore.Metal.Weighted>
-0.0000

> <Gold.Chemscore.Lipo.Weighted>
-10.4666

> <Gold.Chemscore.Internal_Hbond.Weighted>
0.0000

> <Gold.Chemscore.DEClash.Weighted>
0.0491

> <Gold.Chemscore.DEInternal.Weighted>
1.9328

> <Gold.Chemscore.Rot.Weighted>
7.1696

> <Gold.Chemscore.Internal.Correction.Weighted>
   9.000000E+99

> <Gold.Protein.RotatedTorsions>
[ 6907 6896 6895 6894 ] final   82.01 input  -60.11 | X-H torsion
[ 7974 7965 7964 7962 ] final -140.66 input  175.53 | X-H torsion
[ 8008 7997 7996 7995 ] final  147.47 input   59.86 | X-H torsion
[ 10167 10162 10161 10158 ] final  140.23 input  -65.29 | X-H torsion
[ 10718 10713 10712 10709 ] final -170.90 input   66.30 | X-H torsion
[ 10763 10752 10751 10750 ] final  -48.05 input  -60.55 | X-H torsion
[ 11005 11000 10999 10996 ] final   35.02 input  -57.11 | X-H torsion

> <Gold.Protein.ActiveResidues>
 VAL166  LYS551  ARG553  GLY616  TRP617  ASP618  TYR619  PRO620  LYS621  CYS622 
 ASP623  PHE694  ASN695  SER759  ASP760  ASP761  ALA762  ILE779  LEU786  VAL792 
 PHE793  MET794  SER795  GLU796  ALA797  LYS798  CYS799  TRP800  GLU811  SER814 

> <Gold.Protein.RotatedAtoms>
  152.5286  134.3116  159.9115 H   0  0  0  0  0  0  0  0  0  0  0  0  # atno 6907 bound_to 6896
  151.3066  133.4092  159.2651 H   0  0  0  0  0  0  0  0  0  0  0  0  # atno 6908 bound_to 6896
  151.0074  134.9386  159.8045 H   0  0  0  0  0  0  0  0  0  0  0  0  # atno 6909 bound_to 6896
  144.8580  140.6173  143.5347 H   0  0  0  0  0  0  0  0  0  0  0  0  # atno 7974 bound_to 7965
  156.2823  140.2154  156.5543 H   0  0  0  0  0  0  0  0  0  0  0  0  # atno 8008 bound_to 7997
  154.7265  140.0499  157.0710 H   0  0  0  0  0  0  0  0  0  0  0  0  # atno 8009 bound_to 7997
  155.0409  140.3145  155.4728 H   0  0  0  0  0  0  0  0  0  0  0  0  # atno 8010 bound_to 7997
  139.5055  144.6246  151.5967 H   0  0  0  0  0  0  0  0  0  0  0  0  # atno 10167 bound_to 10162
  156.7329  130.9313  151.3105 H   0  0  0  0  0  0  0  0  0  0  0  0  # atno 10718 bound_to 10713
  154.0714  135.6604  153.4825 H   0  0  0  0  0  0  0  0  0  0  0  0  # atno 10763 bound_to 10752
  153.0389  135.5158  154.7562 H   0  0  0  0  0  0  0  0  0  0  0  0  # atno 10764 bound_to 10752
  154.6630  135.3018  154.9810 H   0  0  0  0  0  0  0  0  0  0  0  0  # atno 10765 bound_to 10752
  140.2469  134.3348  155.7904 H   0  0  0  0  0  0  0  0  0  0  0  0  # atno 11005 bound_to 11000
  145.4369  139.1541  143.3992 LP  0  0  0  0  0  0  0  0  0  0  0  0  # atno 17320 bound_to 7965
  146.2838  140.4488  142.8766 LP  0  0  0  0  0  0  0  0  0  0  0  0  # atno 17321 bound_to 7965
  140.5959  143.9696  150.6354 LP  0  0  0  0  0  0  0  0  0  0  0  0  # atno 17342 bound_to 10162
  140.2892  143.3336  152.1078 LP  0  0  0  0  0  0  0  0  0  0  0  0  # atno 17343 bound_to 10162
  157.6851  130.9177  150.0366 LP  0  0  0  0  0  0  0  0  0  0  0  0  # atno 17370 bound_to 10713
  156.1516  130.3642  149.9429 LP  0  0  0  0  0  0  0  0  0  0  0  0  # atno 17371 bound_to 10713
  141.2205  133.7331  156.8975 LP  0  0  0  0  0  0  0  0  0  0  0  0  # atno 17394 bound_to 11000
  140.1596  134.9174  157.2698 LP  0  0  0  0  0  0  0  0  0  0  0  0  # atno 17395 bound_to 11000

$$$$
