AV-unprocessed.smi:1725|AV-procd|sdf|6956|dock10
  -GOLD-   22720 8173D 1   1.00000     0.00000
 Structure written by MMmdl.
 35 36  0  0  0  0  0  0  0  0  2 V2000
  150.8827  137.0096  155.6551 C   0  0  0  0  0  0  0  0  0  0  0  0
  150.9744  138.4505  155.1333 C   0  0  1  0  0  0  0  0  0  0  0  0
  149.6442  138.9469  155.0127 O   0  0  0  0  0  0  0  0  0  0  0  0
  149.5142  140.1838  154.3185 C   0  0  0  0  0  0  0  0  0  0  0  0
  148.0902  140.7040  154.3896 C   0  0  0  0  0  0  0  0  0  0  0  0
  147.2940  140.9518  153.1249 C   0  0  0  0  0  0  0  0  0  0  0  0
  147.7460  142.1168  153.9635 C   0  0  0  0  0  0  0  0  0  0  0  0
  151.7881  139.3375  156.0891 C   0  0  0  0  0  0  0  0  0  0  0  0
  152.9833  139.5302  155.8649 O   0  0  0  0  0  0  0  0  0  0  0  0
  151.1009  139.8486  157.1292 N   0  0  0  0  0  0  0  0  0  0  0  0
  151.5612  140.6346  158.1988 C   0  0  0  0  0  0  0  0  0  0  0  0
  151.2951  141.9612  158.3539 C   0  0  0  0  0  0  0  0  0  0  0  0
  151.8169  142.7338  159.4747 C   0  0  0  0  0  0  0  0  0  0  0  0
  151.5519  144.2121  159.6935 C   0  0  0  0  0  0  0  0  0  0  0  0
  152.1482  144.9327  158.7442 F   0  0  0  0  0  0  0  0  0  0  0  0
  150.2433  144.4591  159.6375 F   0  0  0  0  0  0  0  0  0  0  0  0
  152.0064  144.6190  160.8789 F   0  0  0  0  0  0  0  0  0  0  0  0
  152.5966  141.9710  160.3208 C   0  0  0  0  0  0  0  0  0  0  0  0
  152.9150  140.6607  160.2349 N   0  5  0  0  0  0  0  0  0  0  0  0
  152.4236  139.9475  159.1824 C   0  0  0  0  0  0  0  0  0  0  0  0
  152.6821  138.7521  159.0366 O   0  0  0  0  0  0  0  0  0  0  0  0
  151.8733  136.5695  155.7746 H   0  0  0  0  0  0  0  0  0  0  0  0
  150.3260  136.3822  154.9591 H   0  0  0  0  0  0  0  0  0  0  0  0
  150.3755  136.9621  156.6194 H   0  0  0  0  0  0  0  0  0  0  0  0
  151.4438  138.4307  154.1476 H   0  0  0  0  0  0  0  0  0  0  0  0
  150.1743  140.9437  154.7375 H   0  0  0  0  0  0  0  0  0  0  0  0
  149.7865  140.0518  153.2707 H   0  0  0  0  0  0  0  0  0  0  0  0
  147.5269  140.3124  155.2344 H   0  0  0  0  0  0  0  0  0  0  0  0
  147.7912  140.7982  152.1690 H   0  0  0  0  0  0  0  0  0  0  0  0
  146.2355  140.7009  153.1424 H   0  0  0  0  0  0  0  0  0  0  0  0
  146.9871  142.6432  154.5386 H   0  0  0  0  0  0  0  0  0  0  0  0
  148.5424  142.7426  153.5655 H   0  0  0  0  0  0  0  0  0  0  0  0
  150.1055  139.6785  157.1359 H   0  0  0  0  0  0  0  0  0  0  0  0
  150.6997  142.4899  157.6277 H   0  0  0  0  0  0  0  0  0  0  0  0
  153.0319  142.4965  161.1977 H   0  0  0  0  0  0  0  0  0  0  0  0
  1  2  1  0  0  0  0
  1 22  1  0  0  0  0
  1 23  1  0  0  0  0
  1 24  1  0  0  0  0
  2  3  1  0  0  0  0
  2  8  1  0  0  0  0
  2 25  1  0  0  0  0
  3  4  1  0  0  0  0
  4  5  1  0  0  0  0
  4 26  1  0  0  0  0
  4 27  1  0  0  0  0
  5  7  1  0  0  0  0
  5  6  1  0  0  0  0
  5 28  1  0  0  0  0
  6  7  1  0  0  0  0
  6 29  1  0  0  0  0
  6 30  1  0  0  0  0
  7 31  1  0  0  0  0
  7 32  1  0  0  0  0
  8  9  2  0  0  0  0
  8 10  1  0  0  0  0
 10 11  1  0  0  0  0
 10 33  1  0  0  0  0
 11 20  1  0  0  0  0
 11 12  2  0  0  0  0
 12 13  1  0  0  0  0
 12 34  1  0  0  0  0
 13 14  1  0  0  0  0
 13 18  2  0  0  0  0
 14 15  1  0  0  0  0
 14 16  1  0  0  0  0
 14 17  1  0  0  0  0
 18 19  1  0  0  0  0
 18 35  1  0  0  0  0
 19 20  1  0  0  0  0
 20 21  2  0  0  0  0
M  CHG  1  19  -1
M  END
> <s_m_source_file>
AV-unprocessed.smi

> <i_m_source_file_index>
1725

> <i_lp_mmshare_version>
43012

> <i_f3d_flags>
0

> <s_epik_input>
W0NIMl0xW0NIMl1bQ0hdMVtDSDJdT1tDQEBIXShbQ0gzXSlDKD1PKVtOSF1jMltjSF1jKEMoRikoRilGKVtjSF1bbkhdYzI9Tw==

> <s_epik_cmdline>
J2VwaWtfcHl0aG9uJywgJy1waCcsICc3LjAnLCAnLXRuJywgJzgnLCAnLW1hJywgJzIwMCcsICctbWV0YWxfYmluZGluZycsICctaW1hZScsICc8aW5maWxlLm1hZT4nLCAnLW9tYWUnLCAnPG91dGZpbGUubWFlPic=

> <r_lp_tautomer_probability>
0.999

> <r_epik_Ionization_Penalty>
2.64397

> <r_epik_Ionization_Penalty_Charging>
0.0618254

> <r_epik_Ionization_Penalty_Neutral>
2.58215

> <r_epik_State_Penalty>
2.58023

> <r_epik_Charging_Adjusted_Penalty>
2.64205

> <i_epik_Tot_Q>
-1

> <i_epik_Tot_abs_Q>
1

> <r_epik_Metal_State_Penalty>
0.429101

> <b_epik_Metal_Only>
1

> <s_lp_Force_Field>
OPLS_2005

> <r_lp_Energy>
29.0368

> <b_lp_Chiralities_Consistent>
1

> <s_lp_Variant>
AV-unprocessed.smi:1725-4

> <Gold.Version>
5.8.1

> <Gold.Id.Protein>
6NUR|6NUR_protein|mol2

> <Gold.PLP.Fitness>
45.7736

> <Gold.PLP.PLP>
-46.2106

> <Gold.PLP.part.hbond>
-1.0000

> <Gold.PLP.part.metal>
0.0000

> <Gold.PLP.part.buried>
-7.7045

> <Gold.PLP.part.nonpolar>
-38.4283

> <Gold.PLP.part.repulsive>
0.1477

> <Gold.PLP.ligand.clash>
0.0000

> <Gold.PLP.ligand.torsion>
2.0205

> <Gold.PLP.Chemscore.Hbond>
0.9920

> <Gold.PLP.Chemscore.CHOScore>
0.0000

> <Gold.PLP.Chemscore.Metal>
0.0000

> <Gold.Chemscore.Hbonds>
donor molecule, donor type, donor heavy atom, donor atom, acceptor molecule, acceptor atom, score
      P1  H  7997  8010       L1     9  1.00

> <Gold.PLP.Chemscore.Internal.Correction>
0.6281

> <Gold.Rescore>
     Score         DG    S(hbond)    S(metal)    S(lipo)     H(rot)  DE(clash)    DE(int)     intcor
     11.70     -13.79       0.92        0.00      83.24       1.76       0.27       1.83       ----

> <Gold.Chemscore.Fitness>
11.6950

> <Gold.Chemscore.DG>
-13.7880

> <Gold.Chemscore.ZeroCoef>
-5.4800

> <Gold.Chemscore.Hbond>
0.9207

> <Gold.Chemscore.Metal>
0.0000

> <Gold.Chemscore.Lipo>
83.2428

> <Gold.Chemscore.Internal_Hbond>
0.0000

> <Gold.Chemscore.DEClash>
0.2662

> <Gold.Chemscore.DEInternal>
1.8267

> <Gold.Chemscore.Rot>
1.7604

> <Gold.Chemscore.Internal.Correction>
   9.000000E+99

> <Gold.Chemscore.Hbonds>
donor molecule, donor type, donor heavy atom, donor atom, acceptor molecule, acceptor atom, score
      P1  H  7997  8010       L1     9  0.96

> <Gold.Chemscore.Hbond.Weighted>
-3.0751

> <Gold.Chemscore.Metal.Weighted>
-0.0000

> <Gold.Chemscore.Lipo.Weighted>
-9.7394

> <Gold.Chemscore.Internal_Hbond.Weighted>
0.0000

> <Gold.Chemscore.DEClash.Weighted>
0.2662

> <Gold.Chemscore.DEInternal.Weighted>
1.8267

> <Gold.Chemscore.Rot.Weighted>
4.5065

> <Gold.Chemscore.Internal.Correction.Weighted>
   9.000000E+99

> <Gold.Protein.RotatedTorsions>
[ 6907 6896 6895 6894 ] final -105.19 input  -60.11 | X-H torsion
[ 7974 7965 7964 7962 ] final  -65.07 input  175.53 | X-H torsion
[ 8008 7997 7996 7995 ] final   68.91 input   59.86 | X-H torsion
[ 10167 10162 10161 10158 ] final  112.09 input  -65.29 | X-H torsion
[ 10718 10713 10712 10709 ] final  111.05 input   66.30 | X-H torsion
[ 10763 10752 10751 10750 ] final  145.59 input  -60.55 | X-H torsion
[ 11005 11000 10999 10996 ] final  131.29 input  -57.11 | X-H torsion

> <Gold.Protein.ActiveResidues>
 VAL166  LYS551  ARG553  GLY616  TRP617  ASP618  TYR619  PRO620  LYS621  CYS622 
 ASP623  PHE694  ASN695  SER759  ASP760  ASP761  ALA762  ILE779  LEU786  VAL792 
 PHE793  MET794  SER795  GLU796  ALA797  LYS798  CYS799  TRP800  GLU811  SER814 

> <Gold.Protein.RotatedAtoms>
  150.7324  134.0164  159.3686 H   0  0  0  0  0  0  0  0  0  0  0  0  # atno 6907 bound_to 6896
  151.8126  135.0674  160.0424 H   0  0  0  0  0  0  0  0  0  0  0  0  # atno 6908 bound_to 6896
  152.3062  133.5669  159.5687 H   0  0  0  0  0  0  0  0  0  0  0  0  # atno 6909 bound_to 6896
  145.7589  140.8871  143.0440 H   0  0  0  0  0  0  0  0  0  0  0  0  # atno 7974 bound_to 7965
  155.7155  140.3494  155.4993 H   0  0  0  0  0  0  0  0  0  0  0  0  # atno 8008 bound_to 7997
  155.9317  140.1085  157.1149 H   0  0  0  0  0  0  0  0  0  0  0  0  # atno 8009 bound_to 7997
  154.4086  140.1230  156.4797 H   0  0  0  0  0  0  0  0  0  0  0  0  # atno 8010 bound_to 7997
  139.6562  144.7129  151.1952 H   0  0  0  0  0  0  0  0  0  0  0  0  # atno 10167 bound_to 10162
  157.6464  131.0944  150.6692 H   0  0  0  0  0  0  0  0  0  0  0  0  # atno 10718 bound_to 10713
  154.0079  135.2917  155.3395 H   0  0  0  0  0  0  0  0  0  0  0  0  # atno 10763 bound_to 10752
  154.7121  135.5145  153.8685 H   0  0  0  0  0  0  0  0  0  0  0  0  # atno 10764 bound_to 10752
  153.0736  135.6656  154.0313 H   0  0  0  0  0  0  0  0  0  0  0  0  # atno 10765 bound_to 10752
  139.9722  134.9574  156.9417 H   0  0  0  0  0  0  0  0  0  0  0  0  # atno 11005 bound_to 11000
  144.6834  139.9695  143.7482 LP  0  0  0  0  0  0  0  0  0  0  0  0  # atno 17320 bound_to 7965
  146.0284  139.3313  143.0770 LP  0  0  0  0  0  0  0  0  0  0  0  0  # atno 17321 bound_to 7965
  140.7560  143.6068  150.8644 LP  0  0  0  0  0  0  0  0  0  0  0  0  # atno 17342 bound_to 10162
  139.9721  143.6045  152.2970 LP  0  0  0  0  0  0  0  0  0  0  0  0  # atno 17343 bound_to 10162
  156.7009  130.4623  149.5573 LP  0  0  0  0  0  0  0  0  0  0  0  0  # atno 17370 bound_to 10713
  156.1796  130.6490  151.0935 LP  0  0  0  0  0  0  0  0  0  0  0  0  # atno 17371 bound_to 10713
  140.5270  134.0851  155.7306 LP  0  0  0  0  0  0  0  0  0  0  0  0  # atno 17394 bound_to 11000
  141.1401  133.9153  157.2346 LP  0  0  0  0  0  0  0  0  0  0  0  0  # atno 17395 bound_to 11000

$$$$
