AV-unprocessed.smi:1747|AV-procd|sdf|7035|dock9
  -GOLD-   22720 8253D 1   1.00000     0.00000
 Structure written by MMmdl.
 40 41  0  0  0  0  0  0  0  0  1 V2000
  153.4574  131.9543  164.0595 C   0  0  0  0  0  0  0  0  0  0  0  0
  153.9093  132.6683  162.7834 C   0  0  0  0  0  0  0  0  0  0  0  0
  153.8736  132.0379  161.7266 O   0  0  0  0  0  0  0  0  0  0  0  0
  154.3317  133.9536  162.8561 N   0  0  0  0  0  0  0  0  0  0  0  0
  154.7674  134.7747  161.7153 C   0  0  0  0  0  0  0  0  0  0  0  0
  153.8065  135.9703  161.5616 C   0  0  0  0  0  0  0  0  0  0  0  0
  153.8099  136.7499  162.8149 N   0  0  0  0  0  0  0  0  0  0  0  0
  154.2536  138.0228  162.9749 C   0  0  0  0  0  0  0  0  0  0  0  0
  154.5501  138.5047  164.0691 O   0  0  0  0  0  0  0  0  0  0  0  0
  154.3357  138.7352  161.8410 N   0  0  0  0  0  0  0  0  0  0  0  0
  154.7341  140.1348  161.7566 C   0  0  0  0  0  0  0  0  0  0  0  0
  154.3957  140.7437  160.3837 C   0  0  0  0  0  0  0  0  0  0  0  0
  153.6595  142.0503  160.4713 C   0  0  0  0  0  0  0  0  0  0  0  0
  153.0218  142.5619  161.5737 C   0  0  0  0  0  0  0  0  0  0  0  0
  152.2650  144.0943  161.2349 S   0  0  0  0  0  0  0  0  0  0  0  0
  152.8518  143.9835  159.5805 C   0  0  0  0  0  0  0  0  0  0  0  0
  152.5832  145.0236  158.5479 C   0  0  0  0  0  0  0  0  0  0  0  0
  153.5557  142.8739  159.3448 N   0  0  0  0  0  0  0  0  0  0  0  0
  153.3659  135.9275  163.9508 C   0  0  0  0  0  0  0  0  0  0  0  0
  154.3193  134.7257  164.1079 C   0  0  0  0  0  0  0  0  0  0  0  0
  154.2673  131.9167  164.7884 H   0  0  0  0  0  0  0  0  0  0  0  0
  153.1605  130.9281  163.8406 H   0  0  0  0  0  0  0  0  0  0  0  0
  152.6002  132.4606  164.5045 H   0  0  0  0  0  0  0  0  0  0  0  0
  155.7822  135.1307  161.9004 H   0  0  0  0  0  0  0  0  0  0  0  0
  154.8149  134.2283  160.7750 H   0  0  0  0  0  0  0  0  0  0  0  0
  154.0854  136.5435  160.6778 H   0  0  0  0  0  0  0  0  0  0  0  0
  152.7935  135.6142  161.3675 H   0  0  0  0  0  0  0  0  0  0  0  0
  154.0757  138.2831  160.9760 H   0  0  0  0  0  0  0  0  0  0  0  0
  154.2188  140.6933  162.5397 H   0  0  0  0  0  0  0  0  0  0  0  0
  155.8035  140.2253  161.9513 H   0  0  0  0  0  0  0  0  0  0  0  0
  155.3181  140.8751  159.8173 H   0  0  0  0  0  0  0  0  0  0  0  0
  153.8038  140.0266  159.8134 H   0  0  0  0  0  0  0  0  0  0  0  0
  152.9458  142.1282  162.5599 H   0  0  0  0  0  0  0  0  0  0  0  0
  153.1097  144.7908  157.6218 H   0  0  0  0  0  0  0  0  0  0  0  0
  152.9171  145.9981  158.9043 H   0  0  0  0  0  0  0  0  0  0  0  0
  151.5146  145.0728  158.3393 H   0  0  0  0  0  0  0  0  0  0  0  0
  153.3275  136.4846  164.8878 H   0  0  0  0  0  0  0  0  0  0  0  0
  152.3476  135.5808  163.7680 H   0  0  0  0  0  0  0  0  0  0  0  0
  154.0124  134.1309  164.9692 H   0  0  0  0  0  0  0  0  0  0  0  0
  155.3307  135.0713  164.3268 H   0  0  0  0  0  0  0  0  0  0  0  0
  1  2  1  0  0  0  0
  1 21  1  0  0  0  0
  1 22  1  0  0  0  0
  1 23  1  0  0  0  0
  2  3  2  0  0  0  0
  2  4  1  0  0  0  0
  4 20  1  0  0  0  0
  4  5  1  0  0  0  0
  5  6  1  0  0  0  0
  5 24  1  0  0  0  0
  5 25  1  0  0  0  0
  6  7  1  0  0  0  0
  6 26  1  0  0  0  0
  6 27  1  0  0  0  0
  7  8  1  0  0  0  0
  7 19  1  0  0  0  0
  8  9  2  0  0  0  0
  8 10  1  0  0  0  0
 10 11  1  0  0  0  0
 10 28  1  0  0  0  0
 11 12  1  0  0  0  0
 11 29  1  0  0  0  0
 11 30  1  0  0  0  0
 12 13  1  0  0  0  0
 12 31  1  0  0  0  0
 12 32  1  0  0  0  0
 13 18  1  0  0  0  0
 13 14  2  0  0  0  0
 14 15  1  0  0  0  0
 14 33  1  0  0  0  0
 15 16  1  0  0  0  0
 16 17  1  0  0  0  0
 16 18  2  0  0  0  0
 17 34  1  0  0  0  0
 17 35  1  0  0  0  0
 17 36  1  0  0  0  0
 19 20  1  0  0  0  0
 19 37  1  0  0  0  0
 19 38  1  0  0  0  0
 20 39  1  0  0  0  0
 20 40  1  0  0  0  0
M  END
> <s_m_source_file>
AV-unprocessed.smi

> <i_m_source_file_index>
1747

> <i_lp_mmshare_version>
43012

> <i_f3d_flags>
0

> <s_epik_input>
W0NIM11DKD1PKU4xW0NIMl1bQ0gyXU4oW0NIMl1bQ0gyXTEpQyg9TylbTkhdW0NIMl1bQ0gyXWMyW2NIXXNjKG4yKVtDSDNd

> <s_epik_cmdline>
J2VwaWtfcHl0aG9uJywgJy1waCcsICc3LjAnLCAnLXRuJywgJzgnLCAnLW1hJywgJzIwMCcsICctbWV0YWxfYmluZGluZycsICctaW1hZScsICc8aW5maWxlLm1hZT4nLCAnLW9tYWUnLCAnPG91dGZpbGUubWFlPic=

> <r_epik_Ionization_Penalty>
0.00199956

> <r_epik_Ionization_Penalty_Charging>
0

> <r_epik_Ionization_Penalty_Neutral>
0.00199956

> <r_epik_State_Penalty>
0.00133382

> <r_epik_Charging_Adjusted_Penalty>
0.00133382

> <i_epik_Tot_Q>
0

> <i_epik_Tot_abs_Q>
0

> <r_epik_Metal_State_Penalty>
-0

> <b_epik_Metal_Only>
0

> <s_lp_Force_Field>
OPLS_2005

> <r_lp_Energy>
44.3218

> <b_lp_Chiralities_Consistent>
1

> <s_lp_Variant>
AV-unprocessed.smi:1747-1

> <Gold.Version>
5.8.1

> <Gold.Id.Protein>
6NUR|6NUR_protein|mol2

> <Gold.PLP.Fitness>
44.2594

> <Gold.PLP.PLP>
-45.7548

> <Gold.PLP.part.hbond>
0.0000

> <Gold.PLP.part.metal>
0.0000

> <Gold.PLP.part.buried>
-4.9609

> <Gold.PLP.part.nonpolar>
-41.0255

> <Gold.PLP.part.repulsive>
0.0116

> <Gold.PLP.ligand.clash>
0.0000

> <Gold.PLP.ligand.torsion>
0.7577

> <Gold.PLP.Chemscore.Hbond>
0.0000

> <Gold.PLP.Chemscore.CHOScore>
0.0000

> <Gold.PLP.Chemscore.Metal>
0.0000

> <Gold.PLP.Chemscore.Internal.Correction>
0.0199

> <Gold.Rescore>
     Score         DG    S(hbond)    S(metal)    S(lipo)     H(rot)  DE(clash)    DE(int)     intcor
     14.97     -15.71       0.00        0.00     117.63       1.38       0.15       0.60       ----

> <Gold.Chemscore.Fitness>
14.9687

> <Gold.Chemscore.DG>
-15.7132

> <Gold.Chemscore.ZeroCoef>
-5.4800

> <Gold.Chemscore.Hbond>
0.0000

> <Gold.Chemscore.Metal>
0.0000

> <Gold.Chemscore.Lipo>
117.6265

> <Gold.Chemscore.Internal_Hbond>
0.0000

> <Gold.Chemscore.DEClash>
0.1454

> <Gold.Chemscore.DEInternal>
0.5990

> <Gold.Chemscore.Rot>
1.3786

> <Gold.Chemscore.Internal.Correction>
   9.000000E+99

> <Gold.Chemscore.Hbond.Weighted>
-0.0000

> <Gold.Chemscore.Metal.Weighted>
-0.0000

> <Gold.Chemscore.Lipo.Weighted>
-13.7623

> <Gold.Chemscore.Internal_Hbond.Weighted>
0.0000

> <Gold.Chemscore.DEClash.Weighted>
0.1454

> <Gold.Chemscore.DEInternal.Weighted>
0.5990

> <Gold.Chemscore.Rot.Weighted>
3.5291

> <Gold.Chemscore.Internal.Correction.Weighted>
   9.000000E+99

> <Gold.Protein.RotatedTorsions>
[ 6907 6896 6895 6894 ] final    0.95 input  -60.11 | X-H torsion
[ 7974 7965 7964 7962 ] final -158.54 input  175.53 | X-H torsion
[ 8008 7997 7996 7995 ] final  -96.06 input   59.86 | X-H torsion
[ 10167 10162 10161 10158 ] final  -56.00 input  -65.29 | X-H torsion
[ 10718 10713 10712 10709 ] final  -29.91 input   66.30 | X-H torsion
[ 10763 10752 10751 10750 ] final  105.06 input  -60.55 | X-H torsion
[ 11005 11000 10999 10996 ] final   19.96 input  -57.11 | X-H torsion

> <Gold.Protein.ActiveResidues>
 VAL166  LYS551  ARG553  GLY616  TRP617  ASP618  TYR619  PRO620  LYS621  CYS622 
 ASP623  PHE694  ASN695  SER759  ASP760  ASP761  ALA762  ILE779  LEU786  VAL792 
 PHE793  MET794  SER795  GLU796  ALA797  LYS798  CYS799  TRP800  GLU811  SER814 

> <Gold.Protein.RotatedAtoms>
  151.5847  135.1056  160.0025 H   0  0  0  0  0  0  0  0  0  0  0  0  # atno 6907 bound_to 6896
  152.4336  133.7317  159.6602 H   0  0  0  0  0  0  0  0  0  0  0  0  # atno 6908 bound_to 6896
  150.8231  133.8147  159.3153 H   0  0  0  0  0  0  0  0  0  0  0  0  # atno 6909 bound_to 6896
  144.7501  140.3812  143.6054 H   0  0  0  0  0  0  0  0  0  0  0  0  # atno 7974 bound_to 7965
  154.7695  140.0474  157.1039 H   0  0  0  0  0  0  0  0  0  0  0  0  # atno 8008 bound_to 7997
  154.9838  140.3105  155.4915 H   0  0  0  0  0  0  0  0  0  0  0  0  # atno 8009 bound_to 7997
  156.2918  140.2231  156.4939 H   0  0  0  0  0  0  0  0  0  0  0  0  # atno 8010 bound_to 7997
  140.6342  143.2474  151.5161 H   0  0  0  0  0  0  0  0  0  0  0  0  # atno 10167 bound_to 10162
  156.4065  130.4400  149.7283 H   0  0  0  0  0  0  0  0  0  0  0  0  # atno 10718 bound_to 10713
  153.3743  135.3922  155.1811 H   0  0  0  0  0  0  0  0  0  0  0  0  # atno 10763 bound_to 10752
  154.8699  135.3710  154.4938 H   0  0  0  0  0  0  0  0  0  0  0  0  # atno 10764 bound_to 10752
  153.5409  135.7084  153.5698 H   0  0  0  0  0  0  0  0  0  0  0  0  # atno 10765 bound_to 10752
  140.4079  134.1649  155.7666 H   0  0  0  0  0  0  0  0  0  0  0  0  # atno 11005 bound_to 11000
  145.6975  139.1653  143.2611 LP  0  0  0  0  0  0  0  0  0  0  0  0  # atno 17320 bound_to 7965
  146.1439  140.7019  142.9354 LP  0  0  0  0  0  0  0  0  0  0  0  0  # atno 17321 bound_to 7965
  139.5554  144.2289  152.1603 LP  0  0  0  0  0  0  0  0  0  0  0  0  # atno 17342 bound_to 10162
  140.1541  144.5087  150.6670 LP  0  0  0  0  0  0  0  0  0  0  0  0  # atno 17343 bound_to 10162
  156.4279  130.7800  151.2820 LP  0  0  0  0  0  0  0  0  0  0  0  0  # atno 17370 bound_to 10713
  157.7506  131.0163  150.3539 LP  0  0  0  0  0  0  0  0  0  0  0  0  # atno 17371 bound_to 10713
  141.1832  133.8369  157.1182 LP  0  0  0  0  0  0  0  0  0  0  0  0  # atno 17394 bound_to 11000
  140.0289  134.9911  157.0741 LP  0  0  0  0  0  0  0  0  0  0  0  0  # atno 17395 bound_to 11000

$$$$
