AV-unprocessed.smi:218|AV-procd|sdf|1665|dock10
  -GOLD-   2262020 73D 1   1.00000     0.00000
 Structure written by MMmdl.
 54 57  0  0  0  0  0  0  0  0  1 V2000
  151.0000  143.0384  158.3340 C   0  0  0  0  0  0  0  0  0  0  0  0
  150.9935  141.5597  157.9276 C   0  0  0  0  0  0  0  0  0  0  0  0
  152.0419  140.7601  158.7205 C   0  0  0  0  0  0  0  0  0  0  0  0
  151.2850  141.5118  156.5296 O   0  0  0  0  0  0  0  0  0  0  0  0
  151.3545  140.2965  155.8757 C   0  0  0  0  0  0  0  0  0  0  0  0
  150.1659  139.5554  155.7155 C   0  0  0  0  0  0  0  0  0  0  0  0
  150.2233  138.3099  155.0587 C   0  0  0  0  0  0  0  0  0  0  0  0
  148.9694  137.4868  154.8585 C   0  0  0  0  0  0  0  0  0  0  0  0
  149.0306  136.2011  155.5383 N   0  0  0  0  0  0  0  0  0  0  0  0
  148.6248  135.0805  154.9040 C   0  0  0  0  0  0  0  0  0  0  0  0
  149.3445  133.9309  154.9849 N   0  0  0  0  0  0  0  0  0  0  0  0
  148.9230  132.8349  154.3473 C   0  0  0  0  0  0  0  0  0  0  0  0
  147.8357  132.6776  153.5902 N   0  0  0  0  0  0  0  0  0  0  0  0
  147.1068  133.8283  153.5050 C   0  0  0  0  0  0  0  0  0  0  0  0
  147.4348  135.0638  154.1312 C   0  0  0  0  0  0  0  0  0  0  0  0
  146.4717  136.0167  153.8284 N   0  0  0  0  0  0  0  0  0  0  0  0
  145.6248  135.3773  153.0677 C   0  0  0  0  0  0  0  0  0  0  0  0
  145.9285  134.0571  152.8197 N   0  0  0  0  0  0  0  0  0  0  0  0
  145.1358  133.0940  151.9896 C   0  0  1  0  0  0  0  0  0  0  0  0
  143.9586  133.6967  151.5390 O   0  0  0  0  0  0  0  0  0  0  0  0
  143.6697  133.3251  150.1864 C   0  0  1  0  0  0  0  0  0  0  0  0
  143.7468  134.5934  149.3112 C   0  0  0  0  0  0  0  0  0  0  0  0
  143.5687  134.2479  147.9547 O   0  0  0  0  0  0  0  0  0  0  0  0
  144.7178  132.2450  149.8609 C   0  0  1  0  0  0  0  0  0  0  0  0
  145.0663  132.1075  148.4956 O   0  0  0  0  0  0  0  0  0  0  0  0
  145.8938  132.5955  150.7558 C   0  0  1  0  0  0  0  0  0  0  0  0
  146.7537  133.5716  150.1909 O   0  0  0  0  0  0  0  0  0  0  0  0
  151.4673  137.8548  154.5784 C   0  0  0  0  0  0  0  0  0  0  0  0
  152.6003  138.6651  154.7852 C   0  0  0  0  0  0  0  0  0  0  0  0
  152.5535  139.8560  155.4191 N   0  0  0  0  0  0  0  0  0  0  0  0
  144.8767  132.2847  152.6737 H   0  0  0  0  0  0  0  0  0  0  0  0
  142.6701  132.8932  150.1200 H   0  0  0  0  0  0  0  0  0  0  0  0
  144.3206  131.2837  150.1910 H   0  0  0  0  0  0  0  0  0  0  0  0
  146.4879  131.7187  151.0153 H   0  0  0  0  0  0  0  0  0  0  0  0
  150.7681  143.1559  159.3929 H   0  0  0  0  0  0  0  0  0  0  0  0
  150.2571  143.6014  157.7684 H   0  0  0  0  0  0  0  0  0  0  0  0
  151.9733  143.4952  158.1520 H   0  0  0  0  0  0  0  0  0  0  0  0
  149.9944  141.1735  158.1346 H   0  0  0  0  0  0  0  0  0  0  0  0
  151.8515  140.8232  159.7921 H   0  0  0  0  0  0  0  0  0  0  0  0
  153.0468  141.1412  158.5380 H   0  0  0  0  0  0  0  0  0  0  0  0
  152.0355  139.7044  158.4507 H   0  0  0  0  0  0  0  0  0  0  0  0
  149.2279  139.9379  156.0910 H   0  0  0  0  0  0  0  0  0  0  0  0
  148.1099  138.0514  155.2225 H   0  0  0  0  0  0  0  0  0  0  0  0
  148.8206  137.3281  153.7895 H   0  0  0  0  0  0  0  0  0  0  0  0
  149.3680  136.2144  156.4900 H   0  0  0  0  0  0  0  0  0  0  0  0
  149.5456  131.9592  154.4577 H   0  0  0  0  0  0  0  0  0  0  0  0
  144.7446  135.8550  152.6628 H   0  0  0  0  0  0  0  0  0  0  0  0
  143.0155  135.3432  149.6092 H   0  0  0  0  0  0  0  0  0  0  0  0
  144.7295  135.0578  149.3891 H   0  0  0  0  0  0  0  0  0  0  0  0
  144.3984  134.3475  147.5124 H   0  0  0  0  0  0  0  0  0  0  0  0
  145.1870  132.9701  148.1281 H   0  0  0  0  0  0  0  0  0  0  0  0
  146.2635  134.0626  149.5492 H   0  0  0  0  0  0  0  0  0  0  0  0
  151.5536  136.9093  154.0633 H   0  0  0  0  0  0  0  0  0  0  0  0
  153.5705  138.3486  154.4318 H   0  0  0  0  0  0  0  0  0  0  0  0
  1  2  1  0  0  0  0
  1 35  1  0  0  0  0
  1 36  1  0  0  0  0
  1 37  1  0  0  0  0
  2  3  1  0  0  0  0
  2  4  1  0  0  0  0
  2 38  1  0  0  0  0
  3 39  1  0  0  0  0
  3 40  1  0  0  0  0
  3 41  1  0  0  0  0
  4  5  1  0  0  0  0
  5 30  1  0  0  0  0
  5  6  2  0  0  0  0
  6  7  1  0  0  0  0
  6 42  1  0  0  0  0
  7  8  1  0  0  0  0
  7 28  2  0  0  0  0
  8  9  1  0  0  0  0
  8 43  1  0  0  0  0
  8 44  1  0  0  0  0
  9 10  1  0  0  0  0
  9 45  1  0  0  0  0
 10 15  1  0  0  0  0
 10 11  2  0  0  0  0
 11 12  1  0  0  0  0
 12 13  2  0  0  0  0
 12 46  1  0  0  0  0
 13 14  1  0  0  0  0
 14 18  1  0  0  0  0
 14 15  2  0  0  0  0
 15 16  1  0  0  0  0
 16 17  2  0  0  0  0
 17 18  1  0  0  0  0
 17 47  1  0  0  0  0
 18 19  1  0  0  0  0
 19 31  1  0  0  0  0
 19 26  1  0  0  0  0
 19 20  1  0  0  0  0
 20 21  1  0  0  0  0
 21 32  1  0  0  0  0
 21 22  1  0  0  0  0
 21 24  1  0  0  0  0
 22 23  1  0  0  0  0
 22 48  1  0  0  0  0
 22 49  1  0  0  0  0
 23 50  1  0  0  0  0
 24 33  1  0  0  0  0
 24 25  1  0  0  0  0
 24 26  1  0  0  0  0
 25 51  1  0  0  0  0
 26 34  1  0  0  0  0
 26 27  1  0  0  0  0
 27 52  1  0  0  0  0
 28 29  1  0  0  0  0
 28 53  1  0  0  0  0
 29 30  2  0  0  0  0
 29 54  1  0  0  0  0
M  END
> <s_m_source_file>
AV-unprocessed.smi

> <i_m_source_file_index>
218

> <i_lp_mmshare_version>
43012

> <i_f3d_flags>
0

> <s_epik_input>
W0NIM11bQ0hdKFtDSDNdKU9jMVtjSF1jKFtjSF1bY0hdbjEpW0NIMl1bTkhdYyhuW2NIXW4yKWMoYzIzKW5bY0hdbjNbQ0BASF00T1tDQEhdKFtDSDJdW09IXSlbQ0BASF0oW09IXSlbQ0BIXTRbT0hd

> <s_epik_cmdline>
J2VwaWtfcHl0aG9uJywgJy1waCcsICc3LjAnLCAnLXRuJywgJzgnLCAnLW1hJywgJzIwMCcsICctbWV0YWxfYmluZGluZycsICctaW1hZScsICc8aW5maWxlLm1hZT4nLCAnLW9tYWUnLCAnPG91dGZpbGUubWFlPic=

> <r_lp_tautomer_probability>
1

> <r_epik_Ionization_Penalty>
0.00457014

> <r_epik_Ionization_Penalty_Charging>
0

> <r_epik_Ionization_Penalty_Neutral>
0.00457014

> <r_epik_State_Penalty>
-0

> <r_epik_Charging_Adjusted_Penalty>
0

> <i_epik_Tot_Q>
0

> <i_epik_Tot_abs_Q>
0

> <r_epik_Metal_State_Penalty>
-0

> <b_epik_Metal_Only>
0

> <s_epik_Chemistry_Notes>
This compound contains an acetal/aminal-like group ( X-CH(R)-Y where X, Y are N, S, or O) that may be acid/base labile, releasing an aldehyde.

> <s_lp_Force_Field>
OPLS_2005

> <r_lp_Energy>
50.2222

> <b_lp_Chiralities_Consistent>
1

> <s_lp_Variant>
AV-unprocessed.smi:218-4

> <Gold.Version>
5.8.1

> <Gold.Id.Protein>
6NUR|6NUR_protein|mol2

> <Gold.PLP.Fitness>
51.2230

> <Gold.PLP.PLP>
-39.3934

> <Gold.PLP.part.hbond>
-10.2738

> <Gold.PLP.part.metal>
0.0000

> <Gold.PLP.part.buried>
8.0820

> <Gold.PLP.part.nonpolar>
-36.1176

> <Gold.PLP.part.repulsive>
0.4923

> <Gold.PLP.ligand.clash>
0.0000

> <Gold.PLP.ligand.torsion>
0.5621

> <Gold.PLP.Chemscore.Hbond>
4.2660

> <Gold.PLP.Chemscore.CHOScore>
0.0000

> <Gold.PLP.Chemscore.Metal>
0.0000

> <Gold.Chemscore.Hbonds>
donor molecule, donor type, donor heavy atom, donor atom, acceptor molecule, acceptor atom, score
      L1  H    23    50       P1  7921  0.98
      L1  H    25    51       P1  7921  0.66
      L1  H    27    52       P1  7921  0.59
      P1  H  7997  8009       L1    30  1.00
      P1  H 10192 10197       L1    23  1.00

> <Gold.PLP.Chemscore.Internal.Correction>
0.1555

> <Gold.Rescore>
     Score         DG    S(hbond)    S(metal)    S(lipo)     H(rot)  DE(clash)    DE(int)     intcor
     10.69     -14.62       3.46        0.00      86.54       4.90       3.31       0.62       ----

> <Gold.Chemscore.Fitness>
10.6918

> <Gold.Chemscore.DG>
-14.6188

> <Gold.Chemscore.ZeroCoef>
-5.4800

> <Gold.Chemscore.Hbond>
3.4627

> <Gold.Chemscore.Metal>
0.0000

> <Gold.Chemscore.Lipo>
86.5375

> <Gold.Chemscore.Internal_Hbond>
0.0000

> <Gold.Chemscore.DEClash>
3.3061

> <Gold.Chemscore.DEInternal>
0.6209

> <Gold.Chemscore.Rot>
4.9029

> <Gold.Chemscore.Internal.Correction>
   9.000000E+99

> <Gold.Chemscore.Hbonds>
donor molecule, donor type, donor heavy atom, donor atom, acceptor molecule, acceptor atom, score
      L1  H    23    50       P1  7921  0.93
      L1  H    25    51       P1  7921  0.09
      L1  H    27    52       P1  7921  0.05
      P1  H  7997  8009       L1    30  0.58
      P1  H 10192 10197       L1    23  0.75

> <Gold.Chemscore.Hbond.Weighted>
-11.5655

> <Gold.Chemscore.Metal.Weighted>
-0.0000

> <Gold.Chemscore.Lipo.Weighted>
-10.1249

> <Gold.Chemscore.Internal_Hbond.Weighted>
0.0000

> <Gold.Chemscore.DEClash.Weighted>
3.3061

> <Gold.Chemscore.DEInternal.Weighted>
0.6209

> <Gold.Chemscore.Rot.Weighted>
12.5515

> <Gold.Chemscore.Internal.Correction.Weighted>
   9.000000E+99

> <Gold.Protein.RotatedTorsions>
[ 6907 6896 6895 6894 ] final  -82.93 input  -60.11 | X-H torsion
[ 7974 7965 7964 7962 ] final    7.41 input  175.53 | X-H torsion
[ 8008 7997 7996 7995 ] final -157.80 input   59.86 | X-H torsion
[ 10167 10162 10161 10158 ] final  116.73 input  -65.29 | X-H torsion
[ 10718 10713 10712 10709 ] final  -45.63 input   66.30 | X-H torsion
[ 10763 10752 10751 10750 ] final  -70.02 input  -60.55 | X-H torsion
[ 11005 11000 10999 10996 ] final  -37.39 input  -57.11 | X-H torsion

> <Gold.Protein.ActiveResidues>
 VAL166  LYS551  ARG553  GLY616  TRP617  ASP618  TYR619  PRO620  LYS621  CYS622 
 ASP623  PHE694  ASN695  SER759  ASP760  ASP761  ALA762  ILE779  LEU786  VAL792 
 PHE793  MET794  SER795  GLU796  ALA797  LYS798  CYS799  TRP800  GLU811  SER814 

> <Gold.Protein.RotatedAtoms>
  150.6891  134.3589  159.4941 H   0  0  0  0  0  0  0  0  0  0  0  0  # atno 6907 bound_to 6896
  152.1421  134.9052  160.0562 H   0  0  0  0  0  0  0  0  0  0  0  0  # atno 6908 bound_to 6896
  152.0181  133.3853  159.4284 H   0  0  0  0  0  0  0  0  0  0  0  0  # atno 6909 bound_to 6896
  146.2427  140.0087  142.8409 H   0  0  0  0  0  0  0  0  0  0  0  0  # atno 7974 bound_to 7965
  155.7379  140.0810  157.2259 H   0  0  0  0  0  0  0  0  0  0  0  0  # atno 8008 bound_to 7997
  154.4025  140.1583  156.2638 H   0  0  0  0  0  0  0  0  0  0  0  0  # atno 8009 bound_to 7997
  155.9048  140.3407  155.6056 H   0  0  0  0  0  0  0  0  0  0  0  0  # atno 8010 bound_to 7997
  139.6227  144.7103  151.2599 H   0  0  0  0  0  0  0  0  0  0  0  0  # atno 10167 bound_to 10162
  156.2264  130.4169  149.8929 H   0  0  0  0  0  0  0  0  0  0  0  0  # atno 10718 bound_to 10713
  154.4117  135.6007  153.5957 H   0  0  0  0  0  0  0  0  0  0  0  0  # atno 10763 bound_to 10752
  152.9790  135.5931  154.4062 H   0  0  0  0  0  0  0  0  0  0  0  0  # atno 10764 bound_to 10752
  154.3875  135.2841  155.2153 H   0  0  0  0  0  0  0  0  0  0  0  0  # atno 10765 bound_to 10752
  140.9948  133.6986  156.1914 H   0  0  0  0  0  0  0  0  0  0  0  0  # atno 11005 bound_to 11000
  145.1348  140.9538  143.4523 LP  0  0  0  0  0  0  0  0  0  0  0  0  # atno 17320 bound_to 7965
  145.0353  139.3306  143.6004 LP  0  0  0  0  0  0  0  0  0  0  0  0  # atno 17321 bound_to 7965
  140.7392  143.6625  150.8152 LP  0  0  0  0  0  0  0  0  0  0  0  0  # atno 17342 bound_to 10162
  140.0238  143.5514  152.2789 LP  0  0  0  0  0  0  0  0  0  0  0  0  # atno 17343 bound_to 10162
  156.6558  130.8762  151.3539 LP  0  0  0  0  0  0  0  0  0  0  0  0  # atno 17370 bound_to 10713
  157.7112  130.9443  150.1097 LP  0  0  0  0  0  0  0  0  0  0  0  0  # atno 17371 bound_to 10713
  140.6983  134.4591  157.5587 LP  0  0  0  0  0  0  0  0  0  0  0  0  # atno 17394 bound_to 11000
  139.9009  134.8558  156.1899 LP  0  0  0  0  0  0  0  0  0  0  0  0  # atno 17395 bound_to 11000

$$$$
