AV-unprocessed.smi:1809|AV-procd|sdf|7326|dock7
  -GOLD-   22720 8583D 1   1.00000     0.00000
 Structure written by MMmdl.
 39 41  0  0  0  0  0  0  0  0  3 V2000
  148.8564  141.2365  154.8452 C   0  0  0  0  0  0  0  0  0  0  0  0
  149.7238  140.0249  154.8185 C   0  0  0  0  0  0  0  0  0  0  0  0
  151.0519  140.0847  154.9407 N   0  0  0  0  0  0  0  0  0  0  0  0
  151.6392  138.8291  154.8824 N   0  0  0  0  0  0  0  0  0  0  0  0
  150.7511  137.8402  154.7085 C   0  0  0  0  0  0  0  0  0  0  0  0
  151.1183  136.5503  154.6315 N   0  5  0  0  0  0  0  0  0  0  0  0
  150.4288  135.6078  155.3120 C   0  0  0  0  0  0  0  0  0  0  0  0
  150.6117  135.2707  156.4842 O   0  0  0  0  0  0  0  0  0  0  0  0
  149.4711  135.0125  154.5874 N   0  0  0  0  0  0  0  0  0  0  0  0
  148.5927  133.9446  155.0520 C   0  0  0  0  0  0  0  0  0  0  0  0
  147.6021  133.5141  153.9570 C   0  0  1  0  0  0  0  0  0  0  0  0
  148.3192  132.9061  152.7371 C   0  0  0  0  0  0  0  0  0  0  0  0
  147.3587  132.3760  151.7412 N   0  3  2  0  0  0  0  0  0  0  0  0
  146.7419  133.3651  150.8295 C   0  0  0  0  0  0  0  0  0  0  0  0
  145.3359  132.8357  150.5047 C   0  0  0  0  0  0  0  0  0  0  0  0
  145.2483  131.4670  151.1869 C   0  0  0  0  0  0  0  0  0  0  0  0
  146.2776  131.5476  152.3151 C   0  0  2  0  0  0  0  0  0  0  0  0
  145.6924  132.1877  153.5949 C   0  0  0  0  0  0  0  0  0  0  0  0
  146.7351  132.5235  154.4980 O   0  0  0  0  0  0  0  0  0  0  0  0
  149.0816  138.4028  154.6216 S   0  0  0  0  0  0  0  0  0  0  0  0
  148.8353  141.7003  153.8591 H   0  0  0  0  0  0  0  0  0  0  0  0
  149.2383  141.9598  155.5661 H   0  0  0  0  0  0  0  0  0  0  0  0
  147.8388  140.9668  155.1285 H   0  0  0  0  0  0  0  0  0  0  0  0
  149.3532  135.3202  153.6332 H   0  0  0  0  0  0  0  0  0  0  0  0
  149.1926  133.0939  155.3795 H   0  0  0  0  0  0  0  0  0  0  0  0
  148.0535  134.2984  155.9310 H   0  0  0  0  0  0  0  0  0  0  0  0
  147.0198  134.3821  153.6433 H   0  0  0  0  0  0  0  0  0  0  0  0
  148.9782  133.6359  152.2649 H   0  0  0  0  0  0  0  0  0  0  0  0
  148.9510  132.0794  153.0646 H   0  0  0  0  0  0  0  0  0  0  0  0
  146.6734  134.3480  151.2974 H   0  0  0  0  0  0  0  0  0  0  0  0
  147.3539  133.4677  149.9329 H   0  0  0  0  0  0  0  0  0  0  0  0
  144.5846  133.5084  150.9203 H   0  0  0  0  0  0  0  0  0  0  0  0
  145.1562  132.7676  149.4313 H   0  0  0  0  0  0  0  0  0  0  0  0
  144.2431  131.2294  151.5368 H   0  0  0  0  0  0  0  0  0  0  0  0
  145.5436  130.6898  150.4804 H   0  0  0  0  0  0  0  0  0  0  0  0
  146.6713  130.5599  152.5582 H   0  0  0  0  0  0  0  0  0  0  0  0
  145.1059  133.0792  153.3673 H   0  0  0  0  0  0  0  0  0  0  0  0
  145.0147  131.4880  154.0843 H   0  0  0  0  0  0  0  0  0  0  0  0
  147.8824  131.7602  151.1357 H   0  0  0  0  0  0  0  0  0  0  0  0
  1  2  1  0  0  0  0
  1 21  1  0  0  0  0
  1 22  1  0  0  0  0
  1 23  1  0  0  0  0
  2 20  1  0  0  0  0
  2  3  2  0  0  0  0
  3  4  1  0  0  0  0
  4  5  2  0  0  0  0
  5  6  1  0  0  0  0
  5 20  1  0  0  0  0
  6  7  1  0  0  0  0
  7  8  2  0  0  0  0
  7  9  1  0  0  0  0
  9 10  1  0  0  0  0
  9 24  1  0  0  0  0
 10 11  1  0  0  0  0
 10 25  1  0  0  0  0
 10 26  1  0  0  0  0
 11 19  1  0  0  0  0
 11 12  1  0  0  0  0
 11 27  1  0  0  0  0
 12 13  1  0  0  0  0
 12 28  1  0  0  0  0
 12 29  1  0  0  0  0
 13 17  1  0  0  0  0
 13 14  1  0  0  0  0
 13 39  1  0  0  0  0
 14 15  1  0  0  0  0
 14 30  1  0  0  0  0
 14 31  1  0  0  0  0
 15 16  1  0  0  0  0
 15 32  1  0  0  0  0
 15 33  1  0  0  0  0
 16 17  1  0  0  0  0
 16 34  1  0  0  0  0
 16 35  1  0  0  0  0
 17 18  1  0  0  0  0
 17 36  1  0  0  0  0
 18 19  1  0  0  0  0
 18 37  1  0  0  0  0
 18 38  1  0  0  0  0
M  CHG  1   6  -1
M  CHG  1  13   1
M  END
> <s_m_source_file>
AV-unprocessed.smi

> <i_m_source_file_index>
1809

> <i_lp_mmshare_version>
43012

> <i_f3d_flags>
0

> <s_epik_input>
W0NIM11jMW5uYyhzMSlbTkhdQyg9TylbTkhdW0NIMl1bQ0BIXShbQ0gyXTIpT1tDSDJdW0NAQEhdKE4yMylbQ0gyXVtDSDJdW0NIMl0z

> <s_epik_cmdline>
J2VwaWtfcHl0aG9uJywgJy1waCcsICc3LjAnLCAnLXRuJywgJzgnLCAnLW1hJywgJzIwMCcsICctbWV0YWxfYmluZGluZycsICctaW1hZScsICc8aW5maWxlLm1hZT4nLCAnLW9tYWUnLCAnPG91dGZpbGUubWFlPic=

> <r_lp_tautomer_probability>
1

> <r_epik_Ionization_Penalty>
3.2601

> <r_epik_Ionization_Penalty_Charging>
3.1406

> <r_epik_Ionization_Penalty_Neutral>
0.119497

> <r_epik_State_Penalty>
3.08894

> <r_epik_Charging_Adjusted_Penalty>
6.22954

> <i_epik_Tot_Q>
0

> <i_epik_Tot_abs_Q>
2

> <r_epik_Metal_State_Penalty>
0.510807

> <b_epik_Metal_Only>
1

> <s_lp_Force_Field>
OPLS_2005

> <r_lp_Energy>
28.762

> <b_lp_Chiralities_Consistent>
1

> <s_lp_Variant>
AV-unprocessed.smi:1809-18

> <Gold.Version>
5.8.1

> <Gold.Id.Protein>
6NUR|6NUR_protein|mol2

> <Gold.PLP.Fitness>
44.7465

> <Gold.PLP.PLP>
-32.2694

> <Gold.PLP.part.hbond>
-4.0001

> <Gold.PLP.part.metal>
0.0000

> <Gold.PLP.part.buried>
-5.7355

> <Gold.PLP.part.nonpolar>
-24.9531

> <Gold.PLP.part.repulsive>
0.7092

> <Gold.PLP.ligand.clash>
0.0000

> <Gold.PLP.ligand.torsion>
1.1167

> <Gold.PLP.Chemscore.Hbond>
4.9000

> <Gold.PLP.Chemscore.CHOScore>
0.0000

> <Gold.PLP.Chemscore.Metal>
0.0000

> <Gold.Chemscore.Hbonds>
donor molecule, donor type, donor heavy atom, donor atom, acceptor molecule, acceptor atom, score
      L1  H     9    24       P1  7948  1.00
      L1  H    13    39       P1 10747  1.00
      P1  H  7989  7998       L1     3  1.00
      P1  H 10752 10764       L1     6  1.73

> <Gold.PLP.Chemscore.Internal.Correction>
0.0105

> <Gold.Rescore>
     Score         DG    S(hbond)    S(metal)    S(lipo)     H(rot)  DE(clash)    DE(int)     intcor
     15.83     -17.14       2.11        0.00      68.44       1.32       0.08       1.23       ----

> <Gold.Chemscore.Fitness>
15.8339

> <Gold.Chemscore.DG>
-17.1390

> <Gold.Chemscore.ZeroCoef>
-5.4800

> <Gold.Chemscore.Hbond>
2.1084

> <Gold.Chemscore.Metal>
0.0000

> <Gold.Chemscore.Lipo>
68.4449

> <Gold.Chemscore.Internal_Hbond>
0.0000

> <Gold.Chemscore.DEClash>
0.0761

> <Gold.Chemscore.DEInternal>
1.2290

> <Gold.Chemscore.Rot>
1.3246

> <Gold.Chemscore.Internal.Correction>
   9.000000E+99

> <Gold.Chemscore.Hbonds>
donor molecule, donor type, donor heavy atom, donor atom, acceptor molecule, acceptor atom, score
      L1  H     9    24       P1  7948  0.25
      L1  H    13    39       P1 10747  1.00
      P1  H  7989  7998       L1     3  0.22
      P1  H 10752 10764       L1     6  0.16

> <Gold.Chemscore.Hbond.Weighted>
-7.0419

> <Gold.Chemscore.Metal.Weighted>
-0.0000

> <Gold.Chemscore.Lipo.Weighted>
-8.0081

> <Gold.Chemscore.Internal_Hbond.Weighted>
0.0000

> <Gold.Chemscore.DEClash.Weighted>
0.0761

> <Gold.Chemscore.DEInternal.Weighted>
1.2290

> <Gold.Chemscore.Rot.Weighted>
3.3910

> <Gold.Chemscore.Internal.Correction.Weighted>
   9.000000E+99

> <Gold.Protein.RotatedTorsions>
[ 6907 6896 6895 6894 ] final   84.20 input  -60.11 | X-H torsion
[ 7974 7965 7964 7962 ] final    7.00 input  175.53 | X-H torsion
[ 8008 7997 7996 7995 ] final   57.59 input   59.86 | X-H torsion
[ 10167 10162 10161 10158 ] final  116.86 input  -65.29 | X-H torsion
[ 10718 10713 10712 10709 ] final   46.99 input   66.30 | X-H torsion
[ 10763 10752 10751 10750 ] final  -60.86 input  -60.55 | X-H torsion
[ 11005 11000 10999 10996 ] final  -63.77 input  -57.11 | X-H torsion

> <Gold.Protein.ActiveResidues>
 VAL166  LYS551  ARG553  GLY616  TRP617  ASP618  TYR619  PRO620  LYS621  CYS622 
 ASP623  PHE694  ASN695  SER759  ASP760  ASP761  ALA762  ILE779  LEU786  VAL792 
 PHE793  MET794  SER795  GLU796  ALA797  LYS798  CYS799  TRP800  GLU811  SER814 

> <Gold.Protein.RotatedAtoms>
  152.5346  134.2777  159.8995 H   0  0  0  0  0  0  0  0  0  0  0  0  # atno 6907 bound_to 6896
  151.2732  133.4238  159.2630 H   0  0  0  0  0  0  0  0  0  0  0  0  # atno 6908 bound_to 6896
  151.0349  134.9581  159.8187 H   0  0  0  0  0  0  0  0  0  0  0  0  # atno 6909 bound_to 6896
  146.2430  140.0148  142.8403 H   0  0  0  0  0  0  0  0  0  0  0  0  # atno 7974 bound_to 7965
  155.5362  140.3483  155.4437 H   0  0  0  0  0  0  0  0  0  0  0  0  # atno 8008 bound_to 7997
  156.0684  140.1357  156.9885 H   0  0  0  0  0  0  0  0  0  0  0  0  # atno 8009 bound_to 7997
  154.4515  140.0971  156.6606 H   0  0  0  0  0  0  0  0  0  0  0  0  # atno 8010 bound_to 7997
  139.6218  144.7102  151.2618 H   0  0  0  0  0  0  0  0  0  0  0  0  # atno 10167 bound_to 10162
  157.4539  130.8155  149.7816 H   0  0  0  0  0  0  0  0  0  0  0  0  # atno 10718 bound_to 10713
  154.2758  135.6281  153.5327 H   0  0  0  0  0  0  0  0  0  0  0  0  # atno 10763 bound_to 10752
  152.9873  135.5621  154.5550 H   0  0  0  0  0  0  0  0  0  0  0  0  # atno 10764 bound_to 10752
  154.5130  135.2878  155.1302 H   0  0  0  0  0  0  0  0  0  0  0  0  # atno 10765 bound_to 10752
  141.1404  133.6656  156.5731 H   0  0  0  0  0  0  0  0  0  0  0  0  # atno 11005 bound_to 11000
  145.1294  140.9509  143.4553 LP  0  0  0  0  0  0  0  0  0  0  0  0  # atno 17320 bound_to 7965
  145.0402  139.3266  143.5980 LP  0  0  0  0  0  0  0  0  0  0  0  0  # atno 17321 bound_to 7965
  140.7387  143.6641  150.8138 LP  0  0  0  0  0  0  0  0  0  0  0  0  # atno 17342 bound_to 10162
  140.0253  143.5500  152.2783 LP  0  0  0  0  0  0  0  0  0  0  0  0  # atno 17343 bound_to 10162
  155.9999  130.3886  150.2648 LP  0  0  0  0  0  0  0  0  0  0  0  0  # atno 17370 bound_to 10713
  157.0821  131.0146  151.3152 LP  0  0  0  0  0  0  0  0  0  0  0  0  # atno 17371 bound_to 10713
  140.3897  134.7451  157.4714 LP  0  0  0  0  0  0  0  0  0  0  0  0  # atno 17394 bound_to 11000
  140.0575  134.6042  155.8787 LP  0  0  0  0  0  0  0  0  0  0  0  0  # atno 17395 bound_to 11000

$$$$
