AV-unprocessed.smi:3089|AV-procd|sdf|11772|dock8
  -GOLD-   2272017153D 1   1.00000     0.00000
 Structure written by MMmdl.
 24 24  0  0  0  0  0  0  0  0  1 V2000
  151.7360  142.6453  158.3057 C   0  0  0  0  0  0  0  0  0  0  0  0
  151.1041  141.6740  157.4389 N   0  0  0  0  0  0  0  0  0  0  0  0
  150.3761  141.8917  156.2897 C   0  0  0  0  0  0  0  0  0  0  0  0
  149.9828  140.6725  155.8098 C   0  0  0  0  0  0  0  0  0  0  0  0
  149.1661  140.3646  154.5723 C   0  0  1  0  0  0  0  0  0  0  0  0
  147.7913  141.0485  154.6730 C   0  0  0  0  0  0  0  0  0  0  0  0
  149.7567  140.8825  153.3952 O   0  0  0  0  0  0  0  0  0  0  0  0
  148.9860  138.8449  154.3604 C   0  0  0  0  0  0  0  0  0  0  0  0
  148.2981  138.4998  153.1045 N   0  0  0  0  0  0  0  0  0  0  0  0
  150.5286  139.7607  156.7609 C   0  0  0  0  0  0  0  0  0  0  0  0
  151.1984  140.3615  157.7311 N   0  0  0  0  0  0  0  0  0  0  0  0
  151.5739  143.6520  157.9200 H   0  0  0  0  0  0  0  0  0  0  0  0
  152.8084  142.4536  158.3546 H   0  0  0  0  0  0  0  0  0  0  0  0
  151.3124  142.5772  159.3080 H   0  0  0  0  0  0  0  0  0  0  0  0
  150.1994  142.8866  155.9084 H   0  0  0  0  0  0  0  0  0  0  0  0
  147.2300  140.6883  155.5359 H   0  0  0  0  0  0  0  0  0  0  0  0
  147.1834  140.8575  153.7877 H   0  0  0  0  0  0  0  0  0  0  0  0
  147.8922  142.1299  154.7767 H   0  0  0  0  0  0  0  0  0  0  0  0
  149.6389  140.2543  152.6994 H   0  0  0  0  0  0  0  0  0  0  0  0
  149.9677  138.3700  154.3554 H   0  0  0  0  0  0  0  0  0  0  0  0
  148.4519  138.4128  155.2075 H   0  0  0  0  0  0  0  0  0  0  0  0
  148.7194  138.9934  152.3190 H   0  0  0  0  0  0  0  0  0  0  0  0
  148.3876  137.5024  152.9150 H   0  0  0  0  0  0  0  0  0  0  0  0
  150.4584  138.6829  156.7736 H   0  0  0  0  0  0  0  0  0  0  0  0
  1  2  1  0  0  0  0
  1 12  1  0  0  0  0
  1 13  1  0  0  0  0
  1 14  1  0  0  0  0
  2 11  1  0  0  0  0
  2  3  1  0  0  0  0
  3  4  2  0  0  0  0
  3 15  1  0  0  0  0
  4  5  1  0  0  0  0
  4 10  1  0  0  0  0
  5  6  1  0  0  0  0
  5  7  1  0  0  0  0
  5  8  1  0  0  0  0
  6 16  1  0  0  0  0
  6 17  1  0  0  0  0
  6 18  1  0  0  0  0
  7 19  1  0  0  0  0
  8  9  1  0  0  0  0
  8 20  1  0  0  0  0
  8 21  1  0  0  0  0
  9 22  1  0  0  0  0
  9 23  1  0  0  0  0
 10 11  2  0  0  0  0
 10 24  1  0  0  0  0
M  END
> <s_m_source_file>
AV-unprocessed.smi

> <i_m_source_file_index>
3089

> <i_lp_mmshare_version>
43012

> <i_f3d_flags>
0

> <s_epik_input>
W0NIM11uMVtjSF1jKFtjSF1uMSlbQ0BAXShbQ0gzXSkoW09IXSlbQ0gyXVtOSDJd

> <s_epik_cmdline>
J2VwaWtfcHl0aG9uJywgJy1waCcsICc3LjAnLCAnLXRuJywgJzgnLCAnLW1hJywgJzIwMCcsICctbWV0YWxfYmluZGluZycsICctaW1hZScsICc8aW5maWxlLm1hZT4nLCAnLW9tYWUnLCAnPG91dGZpbGUubWFlPic=

> <r_lp_tautomer_probability>
1

> <r_epik_Ionization_Penalty>
2.22427

> <r_epik_Ionization_Penalty_Charging>
0

> <r_epik_Ionization_Penalty_Neutral>
2.22427

> <r_epik_State_Penalty>
2.36938

> <r_epik_Charging_Adjusted_Penalty>
2.36938

> <i_epik_Tot_Q>
0

> <i_epik_Tot_abs_Q>
0

> <r_epik_Metal_State_Penalty>
2.36933

> <b_epik_Metal_Only>
0

> <s_lp_Force_Field>
OPLS_2005

> <r_lp_Energy>
8.30458

> <b_lp_Chiralities_Consistent>
1

> <s_lp_Variant>
AV-unprocessed.smi:3089-3

> <Gold.Version>
5.8.1

> <Gold.Id.Protein>
6NUR|6NUR_protein|mol2

> <Gold.PLP.Fitness>
35.7090

> <Gold.PLP.PLP>
-20.6827

> <Gold.PLP.part.hbond>
-3.9807

> <Gold.PLP.part.metal>
0.0000

> <Gold.PLP.part.buried>
-2.0872

> <Gold.PLP.part.nonpolar>
-14.8160

> <Gold.PLP.part.repulsive>
0.0000

> <Gold.PLP.ligand.clash>
0.0000

> <Gold.PLP.ligand.torsion>
0.0393

> <Gold.PLP.Chemscore.Hbond>
4.0280

> <Gold.PLP.Chemscore.CHOScore>
1.0000

> <Gold.PLP.Chemscore.Metal>
0.0000

> <Gold.Chemscore.Hbonds>
donor molecule, donor type, donor heavy atom, donor atom, acceptor molecule, acceptor atom, score
      L1  H     7    19       P1  7957  0.90
      L1  H     9    22       P1  7957  1.00
      L1  H     9    23       P1  7948  0.94
      P1  H  7989  7998       L1     7  0.26
      P1  H  8011  8017       L1     7  0.85
      L1  C     3    15       P1  8028  1.00

> <Gold.PLP.Chemscore.Internal.Correction>
0.0209

> <Gold.Rescore>
     Score         DG    S(hbond)    S(metal)    S(lipo)     H(rot)  DE(clash)    DE(int)     intcor
     16.09     -16.16       3.03        0.00      44.84       1.84       0.05       0.02       ----

> <Gold.Chemscore.Fitness>
16.0885

> <Gold.Chemscore.DG>
-16.1552

> <Gold.Chemscore.ZeroCoef>
-5.4800

> <Gold.Chemscore.Hbond>
3.0348

> <Gold.Chemscore.Metal>
0.0000

> <Gold.Chemscore.Lipo>
44.8365

> <Gold.Chemscore.Internal_Hbond>
0.0000

> <Gold.Chemscore.DEClash>
0.0456

> <Gold.Chemscore.DEInternal>
0.0210

> <Gold.Chemscore.Rot>
1.8386

> <Gold.Chemscore.Internal.Correction>
   9.000000E+99

> <Gold.Chemscore.Hbonds>
donor molecule, donor type, donor heavy atom, donor atom, acceptor molecule, acceptor atom, score
      L1  H     7    19       P1  7957  0.84
      L1  H     9    22       P1  7957  0.99
      L1  H     9    23       P1  7948  0.91
      P1  H  7989  7998       L1     7  0.05
      P1  H  8011  8017       L1     7  0.14

> <Gold.Chemscore.Hbond.Weighted>
-10.1362

> <Gold.Chemscore.Metal.Weighted>
-0.0000

> <Gold.Chemscore.Lipo.Weighted>
-5.2459

> <Gold.Chemscore.Internal_Hbond.Weighted>
0.0000

> <Gold.Chemscore.DEClash.Weighted>
0.0456

> <Gold.Chemscore.DEInternal.Weighted>
0.0210

> <Gold.Chemscore.Rot.Weighted>
4.7069

> <Gold.Chemscore.Internal.Correction.Weighted>
   9.000000E+99

> <Gold.Protein.RotatedTorsions>
[ 6907 6896 6895 6894 ] final   22.91 input  -60.11 | X-H torsion
[ 7974 7965 7964 7962 ] final  -58.58 input  175.53 | X-H torsion
[ 8008 7997 7996 7995 ] final   54.10 input   59.86 | X-H torsion
[ 10167 10162 10161 10158 ] final  -90.19 input  -65.29 | X-H torsion
[ 10718 10713 10712 10709 ] final   46.18 input   66.30 | X-H torsion
[ 10763 10752 10751 10750 ] final  -56.54 input  -60.55 | X-H torsion
[ 11005 11000 10999 10996 ] final  -93.21 input  -57.11 | X-H torsion

> <Gold.Protein.ActiveResidues>
 VAL166  LYS551  ARG553  GLY616  TRP617  ASP618  TYR619  PRO620  LYS621  CYS622 
 ASP623  PHE694  ASN695  SER759  ASP760  ASP761  ALA762  ILE779  LEU786  VAL792 
 PHE793  MET794  SER795  GLU796  ALA797  LYS798  CYS799  TRP800  GLU811  SER814 

> <Gold.Protein.RotatedAtoms>
  151.9343  135.0242  160.0531 H   0  0  0  0  0  0  0  0  0  0  0  0  # atno 6907 bound_to 6896
  152.2091  133.4893  159.5108 H   0  0  0  0  0  0  0  0  0  0  0  0  # atno 6908 bound_to 6896
  150.6972  134.1407  159.4147 H   0  0  0  0  0  0  0  0  0  0  0  0  # atno 6909 bound_to 6896
  145.8376  140.8438  143.0051 H   0  0  0  0  0  0  0  0  0  0  0  0  # atno 7974 bound_to 7965
  155.4791  140.3468  155.4337 H   0  0  0  0  0  0  0  0  0  0  0  0  # atno 8008 bound_to 7997
  156.1051  140.1446  156.9444 H   0  0  0  0  0  0  0  0  0  0  0  0  # atno 8009 bound_to 7997
  154.4719  140.0898  156.7144 H   0  0  0  0  0  0  0  0  0  0  0  0  # atno 8010 bound_to 7997
  140.3573  143.2860  151.9656 H   0  0  0  0  0  0  0  0  0  0  0  0  # atno 10167 bound_to 10162
  157.4454  130.8106  149.7735 H   0  0  0  0  0  0  0  0  0  0  0  0  # atno 10718 bound_to 10713
  154.2083  135.6399  153.5107 H   0  0  0  0  0  0  0  0  0  0  0  0  # atno 10763 bound_to 10752
  152.9995  135.5468  154.6242 H   0  0  0  0  0  0  0  0  0  0  0  0  # atno 10764 bound_to 10752
  154.5672  135.2914  155.0836 H   0  0  0  0  0  0  0  0  0  0  0  0  # atno 10765 bound_to 10752
  141.1503  133.7873  157.0128 H   0  0  0  0  0  0  0  0  0  0  0  0  # atno 11005 bound_to 11000
  144.6735  140.0765  143.7471 LP  0  0  0  0  0  0  0  0  0  0  0  0  # atno 17320 bound_to 7965
  145.9501  139.2727  143.1217 LP  0  0  0  0  0  0  0  0  0  0  0  0  # atno 17321 bound_to 7965
  139.4818  144.6023  151.7583 LP  0  0  0  0  0  0  0  0  0  0  0  0  # atno 17342 bound_to 10162
  140.5161  144.0951  150.6009 LP  0  0  0  0  0  0  0  0  0  0  0  0  # atno 17343 bound_to 10162
  155.9965  130.3905  150.2776 LP  0  0  0  0  0  0  0  0  0  0  0  0  # atno 17370 bound_to 10713
  157.0944  131.0178  151.3109 LP  0  0  0  0  0  0  0  0  0  0  0  0  # atno 17371 bound_to 10713
  140.0866  134.9617  157.1710 LP  0  0  0  0  0  0  0  0  0  0  0  0  # atno 17394 bound_to 11000
  140.3503  134.2606  155.7199 LP  0  0  0  0  0  0  0  0  0  0  0  0  # atno 17395 bound_to 11000

$$$$
