AV-unprocessed.smi:1363|AV-procd|sdf|5565|dock8
  -GOLD-   22720 5163D 1   1.00000     0.00000
 Structure written by MMmdl.
 44 45  0  0  0  0  0  0  0  0  1 V2000
  147.4861  132.4558  161.9856 C   0  0  0  0  0  0  0  0  0  0  0  0
  147.7282  133.7942  161.3224 C   0  0  0  0  0  0  0  0  0  0  0  0
  147.9902  133.7035  159.9654 N   0  0  0  0  0  0  0  0  0  0  0  0
  148.2131  134.8782  159.2689 C   0  0  0  0  0  0  0  0  0  0  0  0
  148.4867  134.6908  157.7868 C   0  0  0  0  0  0  0  0  0  0  0  0
  148.1829  136.0823  159.8945 C   0  0  0  0  0  0  0  0  0  0  0  0
  148.4216  137.4006  159.1596 C   0  0  0  0  0  0  0  0  0  0  0  0
  149.8729  137.6998  158.7757 C   0  0  0  0  0  0  0  0  0  0  0  0
  150.7537  136.8604  158.9639 O   0  0  0  0  0  0  0  0  0  0  0  0
  150.1054  138.9026  158.2296 N   0  0  0  0  0  0  0  0  0  0  0  0
  151.4042  139.3778  157.7683 C   0  0  0  0  0  0  0  0  0  0  0  0
  151.3050  140.8001  157.1818 C   0  0  0  0  0  0  0  0  0  0  0  0
  151.7679  141.9295  158.0968 C   0  0  0  0  0  0  0  0  0  0  0  0
  152.4147  141.7443  159.2677 C   0  0  0  0  0  0  0  0  0  0  0  0
  152.9021  142.8708  160.1621 C   0  0  0  0  0  0  0  0  0  0  0  0
  152.9108  144.2295  159.4439 C   0  0  0  0  0  0  0  0  0  0  0  0
  151.6268  144.4283  158.6312 C   0  0  0  0  0  0  0  0  0  0  0  0
  151.4599  143.3263  157.5696 C   0  0  0  0  0  0  0  0  0  0  0  0
  147.9104  136.1146  161.3510 C   0  0  0  0  0  0  0  0  0  0  0  0
  147.8880  137.1721  161.9792 O   0  0  0  0  0  0  0  0  0  0  0  0
  147.6798  134.8953  162.0086 N   0  0  0  0  0  0  0  0  0  0  0  0
  148.0223  132.8292  159.4613 H   0  0  0  0  0  0  0  0  0  0  0  0
  147.3993  132.5665  163.0673 H   0  0  0  0  0  0  0  0  0  0  0  0
  148.3102  131.7724  161.7791 H   0  0  0  0  0  0  0  0  0  0  0  0
  146.5636  132.0098  161.6128 H   0  0  0  0  0  0  0  0  0  0  0  0
  147.7281  135.1989  157.1911 H   0  0  0  0  0  0  0  0  0  0  0  0
  148.4799  133.6365  157.5073 H   0  0  0  0  0  0  0  0  0  0  0  0
  149.4631  135.0989  157.5241 H   0  0  0  0  0  0  0  0  0  0  0  0
  148.0425  138.2419  159.7402 H   0  0  0  0  0  0  0  0  0  0  0  0
  147.8167  137.3967  158.2521 H   0  0  0  0  0  0  0  0  0  0  0  0
  149.3232  139.5305  158.1142 H   0  0  0  0  0  0  0  0  0  0  0  0
  152.0785  139.3702  158.6252 H   0  0  0  0  0  0  0  0  0  0  0  0
  151.8147  138.6822  157.0341 H   0  0  0  0  0  0  0  0  0  0  0  0
  151.8919  140.8568  156.2641 H   0  0  0  0  0  0  0  0  0  0  0  0
  150.2705  140.9994  156.8990 H   0  0  0  0  0  0  0  0  0  0  0  0
  152.6166  140.7510  159.6381 H   0  0  0  0  0  0  0  0  0  0  0  0
  152.2523  142.9109  161.0369 H   0  0  0  0  0  0  0  0  0  0  0  0
  153.9044  142.6358  160.5214 H   0  0  0  0  0  0  0  0  0  0  0  0
  153.0321  145.0350  160.1687 H   0  0  0  0  0  0  0  0  0  0  0  0
  153.7704  144.2833  158.7744 H   0  0  0  0  0  0  0  0  0  0  0  0
  150.7705  144.4154  159.3068 H   0  0  0  0  0  0  0  0  0  0  0  0
  151.6274  145.4084  158.1532 H   0  0  0  0  0  0  0  0  0  0  0  0
  152.1237  143.5200  156.7264 H   0  0  0  0  0  0  0  0  0  0  0  0
  150.4419  143.3540  157.1797 H   0  0  0  0  0  0  0  0  0  0  0  0
  1 23  1  0  0  0  0
  1 24  1  0  0  0  0
  1 25  1  0  0  0  0
  1  2  1  0  0  0  0
  2  3  1  0  0  0  0
  2 21  2  0  0  0  0
  3  4  1  0  0  0  0
  3 22  1  0  0  0  0
  4  6  2  0  0  0  0
  4  5  1  0  0  0  0
  5 26  1  0  0  0  0
  5 27  1  0  0  0  0
  5 28  1  0  0  0  0
  6 19  1  0  0  0  0
  6  7  1  0  0  0  0
  7  8  1  0  0  0  0
  7 29  1  0  0  0  0
  7 30  1  0  0  0  0
  8  9  2  0  0  0  0
  8 10  1  0  0  0  0
 10 11  1  0  0  0  0
 10 31  1  0  0  0  0
 11 12  1  0  0  0  0
 11 32  1  0  0  0  0
 11 33  1  0  0  0  0
 12 13  1  0  0  0  0
 12 34  1  0  0  0  0
 12 35  1  0  0  0  0
 13 18  1  0  0  0  0
 13 14  2  0  0  0  0
 14 15  1  0  0  0  0
 14 36  1  0  0  0  0
 15 16  1  0  0  0  0
 15 37  1  0  0  0  0
 15 38  1  0  0  0  0
 16 17  1  0  0  0  0
 16 39  1  0  0  0  0
 16 40  1  0  0  0  0
 17 18  1  0  0  0  0
 17 41  1  0  0  0  0
 17 42  1  0  0  0  0
 18 43  1  0  0  0  0
 18 44  1  0  0  0  0
 19 20  2  0  0  0  0
 19 21  1  0  0  0  0
M  END
> <s_m_source_file>
AV-unprocessed.smi

> <i_m_source_file_index>
1363

> <i_lp_mmshare_version>
43012

> <i_f3d_flags>
0

> <s_epik_input>
W0NIM11jMW5jKFtDSDNdKWMoYyg9TylbbkhdMSlbQ0gyXUMoPU8pW05IXVtDSDJdW0NIMl1DMj1bQ0hdW0NIMl1bQ0gyXVtDSDJdW0NIMl0y

> <s_epik_cmdline>
J2VwaWtfcHl0aG9uJywgJy1waCcsICc3LjAnLCAnLXRuJywgJzgnLCAnLW1hJywgJzIwMCcsICctbWV0YWxfYmluZGluZycsICctaW1hZScsICc8aW5maWxlLm1hZT4nLCAnLW9tYWUnLCAnPG91dGZpbGUubWFlPic=

> <r_lp_tautomer_probability>
0.156392

> <r_epik_Ionization_Penalty>
0.0140998

> <r_epik_Ionization_Penalty_Charging>
0.0139776

> <r_epik_Ionization_Penalty_Neutral>
0.000122158

> <r_epik_State_Penalty>
1.53009

> <r_epik_Charging_Adjusted_Penalty>
1.54407

> <i_epik_Tot_Q>
0

> <i_epik_Tot_abs_Q>
0

> <r_epik_Metal_State_Penalty>
1.7066

> <b_epik_Metal_Only>
0

> <s_lp_Force_Field>
OPLS_2005

> <r_lp_Energy>
12.7953

> <b_lp_Chiralities_Consistent>
1

> <s_lp_Variant>
AV-unprocessed.smi:1363-2

> <Gold.Version>
5.8.1

> <Gold.Id.Protein>
6NUR|6NUR_protein|mol2

> <Gold.PLP.Fitness>
46.7317

> <Gold.PLP.PLP>
-39.6320

> <Gold.PLP.part.hbond>
-3.0000

> <Gold.PLP.part.metal>
0.0000

> <Gold.PLP.part.buried>
-5.5622

> <Gold.PLP.part.nonpolar>
-31.5697

> <Gold.PLP.part.repulsive>
0.2091

> <Gold.PLP.ligand.clash>
0.0000

> <Gold.PLP.ligand.torsion>
0.5854

> <Gold.PLP.Chemscore.Hbond>
2.7440

> <Gold.PLP.Chemscore.CHOScore>
0.0000

> <Gold.PLP.Chemscore.Metal>
0.0000

> <Gold.Chemscore.Hbonds>
donor molecule, donor type, donor heavy atom, donor atom, acceptor molecule, acceptor atom, score
      P1  H  6896  6909       L1     9  1.00
      P1  H  6931  6943       L1    20  1.00
      P1  H  6934  6947       L1    20  0.29

> <Gold.PLP.Chemscore.Internal.Correction>
0.0385

> <Gold.Rescore>
     Score         DG    S(hbond)    S(metal)    S(lipo)     H(rot)  DE(clash)    DE(int)     intcor
     19.99     -20.62       2.60        0.00      95.80       1.86       0.03       0.60       ----

> <Gold.Chemscore.Fitness>
19.9931

> <Gold.Chemscore.DG>
-20.6158

> <Gold.Chemscore.ZeroCoef>
-5.4800

> <Gold.Chemscore.Hbond>
2.6040

> <Gold.Chemscore.Metal>
0.0000

> <Gold.Chemscore.Lipo>
95.7950

> <Gold.Chemscore.Internal_Hbond>
0.0000

> <Gold.Chemscore.DEClash>
0.0263

> <Gold.Chemscore.DEInternal>
0.5964

> <Gold.Chemscore.Rot>
1.8631

> <Gold.Chemscore.Internal.Correction>
   9.000000E+99

> <Gold.Chemscore.Hbonds>
donor molecule, donor type, donor heavy atom, donor atom, acceptor molecule, acceptor atom, score
      P1  H  6896  6909       L1     9  0.93
      P1  H  6931  6943       L1    20  0.94
      P1  H  6934  6947       L1    20  0.27

> <Gold.Chemscore.Hbond.Weighted>
-8.6975

> <Gold.Chemscore.Metal.Weighted>
-0.0000

> <Gold.Chemscore.Lipo.Weighted>
-11.2080

> <Gold.Chemscore.Internal_Hbond.Weighted>
0.0000

> <Gold.Chemscore.DEClash.Weighted>
0.0263

> <Gold.Chemscore.DEInternal.Weighted>
0.5964

> <Gold.Chemscore.Rot.Weighted>
4.7697

> <Gold.Chemscore.Internal.Correction.Weighted>
   9.000000E+99

> <Gold.Protein.RotatedTorsions>
[ 6907 6896 6895 6894 ] final   88.86 input  -60.11 | X-H torsion
[ 7974 7965 7964 7962 ] final  155.19 input  175.53 | X-H torsion
[ 8008 7997 7996 7995 ] final   21.67 input   59.86 | X-H torsion
[ 10167 10162 10161 10158 ] final   -6.67 input  -65.29 | X-H torsion
[ 10718 10713 10712 10709 ] final  137.25 input   66.30 | X-H torsion
[ 10763 10752 10751 10750 ] final -114.15 input  -60.55 | X-H torsion
[ 11005 11000 10999 10996 ] final -108.09 input  -57.11 | X-H torsion

> <Gold.Protein.ActiveResidues>
 VAL166  LYS551  ARG553  GLY616  TRP617  ASP618  TYR619  PRO620  LYS621  CYS622 
 ASP623  PHE694  ASN695  SER759  ASP760  ASP761  ALA762  ILE779  LEU786  VAL792 
 PHE793  MET794  SER795  GLU796  ALA797  LYS798  CYS799  TRP800  GLU811  SER814 

> <Gold.Protein.RotatedAtoms>
  152.5430  134.2055  159.8728 H   0  0  0  0  0  0  0  0  0  0  0  0  # atno 6907 bound_to 6896
  151.2041  133.4587  159.2604 H   0  0  0  0  0  0  0  0  0  0  0  0  # atno 6908 bound_to 6896
  151.0960  134.9957  159.8481 H   0  0  0  0  0  0  0  0  0  0  0  0  # atno 6909 bound_to 6896
  144.8040  139.7035  143.6169 H   0  0  0  0  0  0  0  0  0  0  0  0  # atno 7974 bound_to 7965
  154.9541  140.3069  155.5061 H   0  0  0  0  0  0  0  0  0  0  0  0  # atno 8008 bound_to 7997
  156.2984  140.2313  156.4559 H   0  0  0  0  0  0  0  0  0  0  0  0  # atno 8009 bound_to 7997
  154.8027  140.0433  157.1273 H   0  0  0  0  0  0  0  0  0  0  0  0  # atno 8010 bound_to 7997
  140.7004  143.6167  150.8651 H   0  0  0  0  0  0  0  0  0  0  0  0  # atno 10167 bound_to 10162
  157.4381  131.1055  151.0175 H   0  0  0  0  0  0  0  0  0  0  0  0  # atno 10718 bound_to 10713
  154.8427  135.4428  154.1461 H   0  0  0  0  0  0  0  0  0  0  0  0  # atno 10763 bound_to 10752
  153.2633  135.6938  153.7561 H   0  0  0  0  0  0  0  0  0  0  0  0  # atno 10764 bound_to 10752
  153.6829  135.3400  155.3158 H   0  0  0  0  0  0  0  0  0  0  0  0  # atno 10765 bound_to 10752
  141.0920  133.9038  157.2053 H   0  0  0  0  0  0  0  0  0  0  0  0  # atno 11005 bound_to 11000
  146.2328  139.5847  142.9544 LP  0  0  0  0  0  0  0  0  0  0  0  0  # atno 17320 bound_to 7965
  145.5482  141.0415  143.2293 LP  0  0  0  0  0  0  0  0  0  0  0  0  # atno 17321 bound_to 7965
  139.9889  143.5869  152.2917 LP  0  0  0  0  0  0  0  0  0  0  0  0  # atno 17342 bound_to 10162
  139.6517  144.7661  151.2136 LP  0  0  0  0  0  0  0  0  0  0  0  0  # atno 17343 bound_to 10162
  157.1047  130.5996  149.5468 LP  0  0  0  0  0  0  0  0  0  0  0  0  # atno 17370 bound_to 10713
  155.9938  130.5000  150.7395 LP  0  0  0  0  0  0  0  0  0  0  0  0  # atno 17371 bound_to 10713
  139.9748  135.0117  156.9603 LP  0  0  0  0  0  0  0  0  0  0  0  0  # atno 17394 bound_to 11000
  140.5229  134.0889  155.7296 LP  0  0  0  0  0  0  0  0  0  0  0  0  # atno 17395 bound_to 11000

$$$$
