AV-unprocessed.smi:2226|AV-procd|sdf|9008|dock4
  -GOLD-   2272012213D 1   1.00000     0.00000
 Structure written by MMmdl.
 41 43  0  0  0  0  0  0  0  0  3 V2000
  146.6781  139.0773  153.0523 C   0  0  0  0  0  0  0  0  0  0  0  0
  146.3368  140.3290  153.7699 N   0  3  2  0  0  0  0  0  0  0  0  0
  147.0709  141.5314  153.3086 C   0  0  1  0  0  0  0  0  0  0  0  0
  146.3384  142.7957  153.8132 C   0  0  0  0  0  0  0  0  0  0  0  0
  146.0864  142.8036  155.3328 C   0  0  0  0  0  0  0  0  0  0  0  0
  145.6262  141.4308  155.8602 C   0  0  0  0  0  0  0  0  0  0  0  0
  146.3926  140.2349  155.2484 C   0  0  2  0  0  0  0  0  0  0  0  0
  147.8478  140.0578  155.7511 C   0  0  0  0  0  0  0  0  0  0  0  0
  148.9015  141.0054  155.1250 C   0  0  2  0  0  0  0  0  0  0  0  0
  149.2222  142.1185  156.0178 N   0  0  0  0  0  0  0  0  0  0  0  0
  150.1530  142.1028  156.9849 C   0  0  0  0  0  0  0  0  0  0  0  0
  150.8720  141.1322  157.2233 O   0  0  0  0  0  0  0  0  0  0  0  0
  150.1988  143.2679  157.6490 N   0  0  0  0  0  0  0  0  0  0  0  0
  151.0786  143.5760  158.7122 C   0  0  0  0  0  0  0  0  0  0  0  0
  152.3998  143.4169  158.6563 N   0  3  0  0  0  0  0  0  0  0  0  0
  152.9416  143.8064  159.8562 C   0  0  0  0  0  0  0  0  0  0  0  0
  151.8805  144.2063  160.6326 C   0  0  0  0  0  0  0  0  0  0  0  0
  150.7022  144.0676  159.9269 O   0  0  0  0  0  0  0  0  0  0  0  0
  148.5744  141.4551  153.6746 C   0  0  0  0  0  0  0  0  0  0  0  0
  147.7144  138.7792  153.2093 H   0  0  0  0  0  0  0  0  0  0  0  0
  146.5215  139.2000  151.9804 H   0  0  0  0  0  0  0  0  0  0  0  0
  146.0377  138.2610  153.3869 H   0  0  0  0  0  0  0  0  0  0  0  0
  147.0071  141.5591  152.2198 H   0  0  0  0  0  0  0  0  0  0  0  0
  146.8807  143.6949  153.5187 H   0  0  0  0  0  0  0  0  0  0  0  0
  145.3726  142.8528  153.3089 H   0  0  0  0  0  0  0  0  0  0  0  0
  146.9750  143.1334  155.8597 H   0  0  0  0  0  0  0  0  0  0  0  0
  145.3335  143.5553  155.5719 H   0  0  0  0  0  0  0  0  0  0  0  0
  145.6867  141.4078  156.9487 H   0  0  0  0  0  0  0  0  0  0  0  0
  144.5685  141.3139  155.6199 H   0  0  0  0  0  0  0  0  0  0  0  0
  145.8415  139.3406  155.5428 H   0  0  0  0  0  0  0  0  0  0  0  0
  147.8796  140.1085  156.8403 H   0  0  0  0  0  0  0  0  0  0  0  0
  148.1501  139.0361  155.5178 H   0  0  0  0  0  0  0  0  0  0  0  0
  149.8249  140.4247  155.0712 H   0  0  0  0  0  0  0  0  0  0  0  0
  148.6784  142.9609  155.8981 H   0  0  0  0  0  0  0  0  0  0  0  0
  152.9513  143.0713  157.8809 H   0  0  0  0  0  0  0  0  0  0  0  0
  154.0064  143.7608  160.0350 H   0  0  0  0  0  0  0  0  0  0  0  0
  151.7945  144.5892  161.6392 H   0  0  0  0  0  0  0  0  0  0  0  0
  149.0356  140.7311  153.0020 H   0  0  0  0  0  0  0  0  0  0  0  0
  149.0647  142.3985  153.4316 H   0  0  0  0  0  0  0  0  0  0  0  0
  145.3669  140.4977  153.5434 H   0  0  0  0  0  0  0  0  0  0  0  0
  149.5560  143.9946  157.3710 H   0  0  0  0  0  0  0  0  0  0  0  0
  1  2  1  0  0  0  0
  1 20  1  0  0  0  0
  1 21  1  0  0  0  0
  1 22  1  0  0  0  0
  2  7  1  0  0  0  0
  2  3  1  0  0  0  0
  2 40  1  0  0  0  0
  3 19  1  0  0  0  0
  3  4  1  0  0  0  0
  3 23  1  0  0  0  0
  4  5  1  0  0  0  0
  4 24  1  0  0  0  0
  4 25  1  0  0  0  0
  5  6  1  0  0  0  0
  5 26  1  0  0  0  0
  5 27  1  0  0  0  0
  6  7  1  0  0  0  0
  6 28  1  0  0  0  0
  6 29  1  0  0  0  0
  7  8  1  0  0  0  0
  7 30  1  0  0  0  0
  8  9  1  0  0  0  0
  8 31  1  0  0  0  0
  8 32  1  0  0  0  0
  9 10  1  0  0  0  0
  9 19  1  0  0  0  0
  9 33  1  0  0  0  0
 10 34  1  0  0  0  0
 10 11  1  0  0  0  0
 11 13  1  0  0  0  0
 11 12  2  0  0  0  0
 13 14  1  0  0  0  0
 13 41  1  0  0  0  0
 14 18  1  0  0  0  0
 14 15  2  0  0  0  0
 15 35  1  0  0  0  0
 15 16  1  0  0  0  0
 16 36  1  0  0  0  0
 16 17  2  0  0  0  0
 17 37  1  0  0  0  0
 17 18  1  0  0  0  0
 19 38  1  0  0  0  0
 19 39  1  0  0  0  0
M  CHG  1   2   1
M  CHG  1  15   1
M  END
> <s_m_source_file>
AV-unprocessed.smi

> <i_m_source_file_index>
2226

> <i_lp_mmshare_version>
43012

> <i_f3d_flags>
0

> <s_epik_input>
W0NIMl0xW0NIMl1bQ0gyXVtDQEhdKE4oW0NIM10pW0NIXTEyKVtDSDJdW0NASF0oW0NIMl0yKVtOSF1DKD1PKVtOSF1jM25bY0hdW2NIXW8z

> <s_epik_cmdline>
J2VwaWtfcHl0aG9uJywgJy1waCcsICc3LjAnLCAnLXRuJywgJzgnLCAnLW1hJywgJzIwMCcsICctbWV0YWxfYmluZGluZycsICctaW1hZScsICc8aW5maWxlLm1hZT4nLCAnLW9tYWUnLCAnPG91dGZpbGUubWFlPic=

> <r_epik_Ionization_Penalty>
6.92532

> <r_epik_Ionization_Penalty_Charging>
6.82059

> <r_epik_Ionization_Penalty_Neutral>
0.104727

> <r_epik_State_Penalty>
2.17671

> <r_epik_Charging_Adjusted_Penalty>
8.99731

> <i_epik_Tot_Q>
2

> <i_epik_Tot_abs_Q>
2

> <r_epik_Metal_State_Penalty>
2.20618

> <b_epik_Metal_Only>
0

> <s_lp_Force_Field>
OPLS_2005

> <r_lp_Energy>
48.5107

> <b_lp_Chiralities_Consistent>
1

> <s_lp_Variant>
AV-unprocessed.smi:2226-8

> <Gold.Version>
5.8.1

> <Gold.Id.Protein>
6NUR|6NUR_protein|mol2

> <Gold.PLP.Fitness>
40.7963

> <Gold.PLP.PLP>
-31.0712

> <Gold.PLP.part.hbond>
-3.0000

> <Gold.PLP.part.metal>
0.0000

> <Gold.PLP.part.buried>
-5.2453

> <Gold.PLP.part.nonpolar>
-22.5892

> <Gold.PLP.part.repulsive>
0.2778

> <Gold.PLP.ligand.clash>
0.0000

> <Gold.PLP.ligand.torsion>
0.8062

> <Gold.PLP.Chemscore.Hbond>
3.7600

> <Gold.PLP.Chemscore.CHOScore>
0.0000

> <Gold.PLP.Chemscore.Metal>
0.0000

> <Gold.Chemscore.Hbonds>
donor molecule, donor type, donor heavy atom, donor atom, acceptor molecule, acceptor atom, score
      L1  H     2    40       P1 10175  2.00
      L1  H    10    34       P1  8028  0.83
      L1  H    13    41       P1  8028  0.75

> <Gold.PLP.Chemscore.Internal.Correction>
0.0575

> <Gold.Rescore>
     Score         DG    S(hbond)    S(metal)    S(lipo)     H(rot)  DE(clash)    DE(int)     intcor
     18.97     -19.86       2.69        0.00      67.88       1.00       0.11       0.78       ----

> <Gold.Chemscore.Fitness>
18.9659

> <Gold.Chemscore.DG>
-19.8612

> <Gold.Chemscore.ZeroCoef>
-5.4800

> <Gold.Chemscore.Hbond>
2.6945

> <Gold.Chemscore.Metal>
0.0000

> <Gold.Chemscore.Lipo>
67.8774

> <Gold.Chemscore.Internal_Hbond>
0.0000

> <Gold.Chemscore.DEClash>
0.1107

> <Gold.Chemscore.DEInternal>
0.7845

> <Gold.Chemscore.Rot>
1.0000

> <Gold.Chemscore.Internal.Correction>
   9.000000E+99

> <Gold.Chemscore.Hbonds>
donor molecule, donor type, donor heavy atom, donor atom, acceptor molecule, acceptor atom, score
      L1  H     2    40       P1 10175  0.95
      L1  H    10    34       P1  8028  0.83
      L1  H    13    41       P1  8028  0.29

> <Gold.Chemscore.Hbond.Weighted>
-8.9995

> <Gold.Chemscore.Metal.Weighted>
-0.0000

> <Gold.Chemscore.Lipo.Weighted>
-7.9417

> <Gold.Chemscore.Internal_Hbond.Weighted>
0.0000

> <Gold.Chemscore.DEClash.Weighted>
0.1107

> <Gold.Chemscore.DEInternal.Weighted>
0.7845

> <Gold.Chemscore.Rot.Weighted>
2.5600

> <Gold.Chemscore.Internal.Correction.Weighted>
   9.000000E+99

> <Gold.Protein.RotatedTorsions>
[ 6907 6896 6895 6894 ] final   66.66 input  -60.11 | X-H torsion
[ 7974 7965 7964 7962 ] final   36.55 input  175.53 | X-H torsion
[ 8008 7997 7996 7995 ] final  167.04 input   59.86 | X-H torsion
[ 10167 10162 10161 10158 ] final   17.92 input  -65.29 | X-H torsion
[ 10718 10713 10712 10709 ] final  -26.00 input   66.30 | X-H torsion
[ 10763 10752 10751 10750 ] final   84.63 input  -60.55 | X-H torsion
[ 11005 11000 10999 10996 ] final  150.02 input  -57.11 | X-H torsion

> <Gold.Protein.ActiveResidues>
 VAL166  LYS551  ARG553  GLY616  TRP617  ASP618  TYR619  PRO620  LYS621  CYS622 
 ASP623  PHE694  ASN695  SER759  ASP760  ASP761  ALA762  ILE779  LEU786  VAL792 
 PHE793  MET794  SER795  GLU796  ALA797  LYS798  CYS799  TRP800  GLU811  SER814 

> <Gold.Protein.RotatedAtoms>
  152.4497  134.5420  159.9841 H   0  0  0  0  0  0  0  0  0  0  0  0  # atno 6907 bound_to 6896
  151.5496  133.3414  159.2958 H   0  0  0  0  0  0  0  0  0  0  0  0  # atno 6908 bound_to 6896
  150.8422  134.7751  159.7005 H   0  0  0  0  0  0  0  0  0  0  0  0  # atno 6909 bound_to 6896
  146.1203  139.6004  142.9294 H   0  0  0  0  0  0  0  0  0  0  0  0  # atno 7974 bound_to 7965
  156.1667  140.1627  156.8518 H   0  0  0  0  0  0  0  0  0  0  0  0  # atno 8008 bound_to 7997
  154.5215  140.0777  156.8215 H   0  0  0  0  0  0  0  0  0  0  0  0  # atno 8009 bound_to 7997
  155.3596  140.3394  155.4243 H   0  0  0  0  0  0  0  0  0  0  0  0  # atno 8010 bound_to 7997
  140.5691  143.9196  150.6699 H   0  0  0  0  0  0  0  0  0  0  0  0  # atno 10167 bound_to 10162
  156.4570  130.4496  149.6953 H   0  0  0  0  0  0  0  0  0  0  0  0  # atno 10718 bound_to 10713
  153.1399  135.4647  154.9480 H   0  0  0  0  0  0  0  0  0  0  0  0  # atno 10763 bound_to 10752
  154.7738  135.3167  154.8136 H   0  0  0  0  0  0  0  0  0  0  0  0  # atno 10764 bound_to 10752
  153.8661  135.6908  153.4832 H   0  0  0  0  0  0  0  0  0  0  0  0  # atno 10765 bound_to 10752
  140.1095  134.8933  157.1915 H   0  0  0  0  0  0  0  0  0  0  0  0  # atno 11005 bound_to 11000
  145.5480  141.0415  143.2294 LP  0  0  0  0  0  0  0  0  0  0  0  0  # atno 17320 bound_to 7965
  144.7591  139.7001  143.7242 LP  0  0  0  0  0  0  0  0  0  0  0  0  # atno 17321 bound_to 7965
  140.2666  143.3486  152.1275 LP  0  0  0  0  0  0  0  0  0  0  0  0  # atno 17342 bound_to 10162
  139.5108  144.6890  151.5811 LP  0  0  0  0  0  0  0  0  0  0  0  0  # atno 17343 bound_to 10162
  156.3757  130.7553  151.2541 LP  0  0  0  0  0  0  0  0  0  0  0  0  # atno 17370 bound_to 10713
  157.7500  131.0310  150.4163 LP  0  0  0  0  0  0  0  0  0  0  0  0  # atno 17371 bound_to 10713
  140.3111  134.3023  155.7267 LP  0  0  0  0  0  0  0  0  0  0  0  0  # atno 17394 bound_to 11000
  141.2126  133.7651  156.9777 LP  0  0  0  0  0  0  0  0  0  0  0  0  # atno 17395 bound_to 11000

$$$$
