AV-unprocessed.smi:1674|AV-procd|sdf|6714|dock7
  -GOLD-   22720 7463D 1   1.00000     0.00000
 Structure written by MMmdl.
 47 48  0  0  0  0  0  0  0  0  1 V2000
  148.8599  132.6614  153.1224 C   0  0  0  0  0  0  0  0  0  0  0  0
  149.6120  133.2362  154.2919 C   0  0  0  0  0  0  0  0  0  0  0  0
  149.6565  134.5248  154.3764 N   0  0  0  0  0  0  0  0  0  0  0  0
  150.3066  135.1555  155.4195 N   0  0  0  0  0  0  0  0  0  0  0  0
  150.2037  136.6216  155.3957 C   0  0  0  0  0  0  0  0  0  0  0  0
  151.5816  137.3179  155.2991 C   0  0  1  0  0  0  0  0  0  0  0  0
  151.9622  137.3706  153.9394 O   0  0  0  0  0  0  0  0  0  0  0  0
  151.5965  138.6929  155.9556 C   0  0  0  0  0  0  0  0  0  0  0  0
  152.1661  138.8572  157.2361 C   0  0  0  0  0  0  0  0  0  0  0  0
  152.1523  140.1173  157.8636 C   0  0  0  0  0  0  0  0  0  0  0  0
  151.5714  141.2264  157.2145 C   0  0  0  0  0  0  0  0  0  0  0  0
  151.5557  142.5878  157.8884 C   0  0  0  0  0  0  0  0  0  0  0  0
  152.0223  142.5520  159.3583 C   0  0  0  0  0  0  0  0  0  0  0  0
  151.5276  143.7674  160.1610 C   0  0  0  0  0  0  0  0  0  0  0  0
  153.5508  142.4277  159.4428 C   0  0  0  0  0  0  0  0  0  0  0  0
  151.0012  141.0647  155.9350 C   0  0  0  0  0  0  0  0  0  0  0  0
  151.0129  139.8038  155.3086 C   0  0  0  0  0  0  0  0  0  0  0  0
  150.9695  134.5135  156.4228 C   0  0  0  0  0  0  0  0  0  0  0  0
  151.5398  135.1179  157.3321 O   0  0  0  0  0  0  0  0  0  0  0  0
  150.9220  133.0534  156.3168 C   0  0  0  0  0  0  0  0  0  0  0  0
  151.5979  132.3409  157.3527 C   0  0  0  0  0  0  0  0  0  0  0  0
  152.1323  131.7477  158.1911 N   0  0  0  0  0  0  0  0  0  0  0  0
  150.2741  132.4221  155.3060 C   0  0  0  0  0  0  0  0  0  0  0  0
  150.1890  130.9098  155.1533 C   0  0  0  0  0  0  0  0  0  0  0  0
  149.5153  132.0470  152.5052 H   0  0  0  0  0  0  0  0  0  0  0  0
  148.4424  133.4415  152.4837 H   0  0  0  0  0  0  0  0  0  0  0  0
  148.0327  132.0389  153.4637 H   0  0  0  0  0  0  0  0  0  0  0  0
  149.5612  136.9398  154.5727 H   0  0  0  0  0  0  0  0  0  0  0  0
  149.6954  136.9584  156.3018 H   0  0  0  0  0  0  0  0  0  0  0  0
  152.3243  136.6961  155.8003 H   0  0  0  0  0  0  0  0  0  0  0  0
  151.2530  137.0270  153.4176 H   0  0  0  0  0  0  0  0  0  0  0  0
  152.6067  138.0137  157.7473 H   0  0  0  0  0  0  0  0  0  0  0  0
  152.5907  140.2294  158.8445 H   0  0  0  0  0  0  0  0  0  0  0  0
  152.2014  143.2527  157.3131 H   0  0  0  0  0  0  0  0  0  0  0  0
  150.5533  143.0137  157.8248 H   0  0  0  0  0  0  0  0  0  0  0  0
  151.6040  141.6577  159.8222 H   0  0  0  0  0  0  0  0  0  0  0  0
  151.8873  144.7010  159.7269 H   0  0  0  0  0  0  0  0  0  0  0  0
  151.8770  143.7242  161.1929 H   0  0  0  0  0  0  0  0  0  0  0  0
  150.4388  143.8117  160.1916 H   0  0  0  0  0  0  0  0  0  0  0  0
  154.0440  143.2892  158.9915 H   0  0  0  0  0  0  0  0  0  0  0  0
  153.9024  141.5342  158.9259 H   0  0  0  0  0  0  0  0  0  0  0  0
  153.8838  142.3584  160.4788 H   0  0  0  0  0  0  0  0  0  0  0  0
  150.5514  141.9079  155.4311 H   0  0  0  0  0  0  0  0  0  0  0  0
  150.5643  139.6901  154.3326 H   0  0  0  0  0  0  0  0  0  0  0  0
  150.7160  130.3836  155.9485 H   0  0  0  0  0  0  0  0  0  0  0  0
  150.6280  130.5954  154.2061 H   0  0  0  0  0  0  0  0  0  0  0  0
  149.1493  130.5813  155.1768 H   0  0  0  0  0  0  0  0  0  0  0  0
  1  2  1  0  0  0  0
  1 25  1  0  0  0  0
  1 26  1  0  0  0  0
  1 27  1  0  0  0  0
  2 23  1  0  0  0  0
  2  3  2  0  0  0  0
  3  4  1  0  0  0  0
  4  5  1  0  0  0  0
  4 18  1  0  0  0  0
  5  6  1  0  0  0  0
  5 28  1  0  0  0  0
  5 29  1  0  0  0  0
  6  7  1  0  0  0  0
  6  8  1  0  0  0  0
  6 30  1  0  0  0  0
  7 31  1  0  0  0  0
  8 17  1  0  0  0  0
  8  9  2  0  0  0  0
  9 10  1  0  0  0  0
  9 32  1  0  0  0  0
 10 11  2  0  0  0  0
 10 33  1  0  0  0  0
 11 12  1  0  0  0  0
 11 16  1  0  0  0  0
 12 13  1  0  0  0  0
 12 34  1  0  0  0  0
 12 35  1  0  0  0  0
 13 14  1  0  0  0  0
 13 15  1  0  0  0  0
 13 36  1  0  0  0  0
 14 37  1  0  0  0  0
 14 38  1  0  0  0  0
 14 39  1  0  0  0  0
 15 40  1  0  0  0  0
 15 41  1  0  0  0  0
 15 42  1  0  0  0  0
 16 17  2  0  0  0  0
 16 43  1  0  0  0  0
 17 44  1  0  0  0  0
 18 19  2  0  0  0  0
 18 20  1  0  0  0  0
 20 21  1  0  0  0  0
 20 23  2  0  0  0  0
 21 22  3  0  0  0  0
 23 24  1  0  0  0  0
 24 45  1  0  0  0  0
 24 46  1  0  0  0  0
 24 47  1  0  0  0  0
M  END
> <s_m_source_file>
AV-unprocessed.smi

> <i_m_source_file_index>
1674

> <i_lp_mmshare_version>
43012

> <i_f3d_flags>
0

> <s_epik_input>
TiNDYyhjMVtDSDNdKWMoPU8pbihuYzFbQ0gzXSlbQ0gyXVtDQEhdKFtPSF0pYzJbY0hdW2NIXWMoW2NIXVtjSF0yKVtDSDJdW0NIXShbQ0gzXSlbQ0gzXQ==

> <s_epik_cmdline>
J2VwaWtfcHl0aG9uJywgJy1waCcsICc3LjAnLCAnLXRuJywgJzgnLCAnLW1hJywgJzIwMCcsICctbWV0YWxfYmluZGluZycsICctaW1hZScsICc8aW5maWxlLm1hZT4nLCAnLW9tYWUnLCAnPG91dGZpbGUubWFlPic=

> <r_lp_tautomer_probability>
1

> <r_epik_Ionization_Penalty>
4.60566e-08

> <r_epik_Ionization_Penalty_Charging>
1.40848e-10

> <r_epik_Ionization_Penalty_Neutral>
4.59158e-08

> <r_epik_State_Penalty>
-0

> <r_epik_Charging_Adjusted_Penalty>
1.40848e-10

> <i_epik_Tot_Q>
0

> <i_epik_Tot_abs_Q>
0

> <r_epik_Metal_State_Penalty>
-0

> <b_epik_Metal_Only>
0

> <s_lp_Force_Field>
OPLS_2005

> <r_lp_Energy>
26.1271

> <b_lp_Chiralities_Consistent>
1

> <s_lp_Variant>
AV-unprocessed.smi:1674-2

> <Gold.Version>
5.8.1

> <Gold.Id.Protein>
6NUR|6NUR_protein|mol2

> <Gold.PLP.Fitness>
49.0861

> <Gold.PLP.PLP>
-44.5326

> <Gold.PLP.part.hbond>
-4.0000

> <Gold.PLP.part.metal>
0.0000

> <Gold.PLP.part.buried>
-3.5289

> <Gold.PLP.part.nonpolar>
-37.8929

> <Gold.PLP.part.repulsive>
1.7149

> <Gold.PLP.ligand.clash>
0.0000

> <Gold.PLP.ligand.torsion>
0.9688

> <Gold.PLP.Chemscore.Hbond>
2.1248

> <Gold.PLP.Chemscore.CHOScore>
0.0000

> <Gold.PLP.Chemscore.Metal>
0.0000

> <Gold.Chemscore.Hbonds>
donor molecule, donor type, donor heavy atom, donor atom, acceptor molecule, acceptor atom, score
      L1  H     7    31       P1  7949  0.40
      P1  H  6896  6907       L1    22  0.40
      P1  H 10752 10765       L1     7  0.72

> <Gold.PLP.Chemscore.Internal.Correction>
0.1167

> <Gold.Rescore>
     Score         DG    S(hbond)    S(metal)    S(lipo)     H(rot)  DE(clash)    DE(int)     intcor
     13.44     -15.59       0.63        0.00     114.96       2.13       0.10       2.05       ----

> <Gold.Chemscore.Fitness>
13.4418

> <Gold.Chemscore.DG>
-15.5947

> <Gold.Chemscore.ZeroCoef>
-5.4800

> <Gold.Chemscore.Hbond>
0.6337

> <Gold.Chemscore.Metal>
0.0000

> <Gold.Chemscore.Lipo>
114.9644

> <Gold.Chemscore.Internal_Hbond>
0.0000

> <Gold.Chemscore.DEClash>
0.0989

> <Gold.Chemscore.DEInternal>
2.0540

> <Gold.Chemscore.Rot>
2.1299

> <Gold.Chemscore.Internal.Correction>
   9.000000E+99

> <Gold.Chemscore.Hbonds>
donor molecule, donor type, donor heavy atom, donor atom, acceptor molecule, acceptor atom, score
      L1  H     7    31       P1  7949  0.24
      P1  H  6896  6907       L1    22  0.01
      P1  H  6896  6908       L1    19  0.01
      P1  H 10752 10765       L1     7  0.03

> <Gold.Chemscore.Hbond.Weighted>
-2.1165

> <Gold.Chemscore.Metal.Weighted>
-0.0000

> <Gold.Chemscore.Lipo.Weighted>
-13.4508

> <Gold.Chemscore.Internal_Hbond.Weighted>
0.0000

> <Gold.Chemscore.DEClash.Weighted>
0.0989

> <Gold.Chemscore.DEInternal.Weighted>
2.0540

> <Gold.Chemscore.Rot.Weighted>
5.4526

> <Gold.Chemscore.Internal.Correction.Weighted>
   9.000000E+99

> <Gold.Protein.RotatedTorsions>
[ 6907 6896 6895 6894 ] final  165.65 input  -60.11 | X-H torsion
[ 7974 7965 7964 7962 ] final   22.93 input  175.53 | X-H torsion
[ 8008 7997 7996 7995 ] final -107.35 input   59.86 | X-H torsion
[ 10167 10162 10161 10158 ] final -115.80 input  -65.29 | X-H torsion
[ 10718 10713 10712 10709 ] final    6.95 input   66.30 | X-H torsion
[ 10763 10752 10751 10750 ] final  133.54 input  -60.55 | X-H torsion
[ 11005 11000 10999 10996 ] final   46.63 input  -57.11 | X-H torsion

> <Gold.Protein.ActiveResidues>
 VAL166  LYS551  ARG553  GLY616  TRP617  ASP618  TYR619  PRO620  LYS621  CYS622 
 ASP623  PHE694  ASN695  SER759  ASP760  ASP761  ALA762  ILE779  LEU786  VAL792 
 PHE793  MET794  SER795  GLU796  ALA797  LYS798  CYS799  TRP800  GLU811  SER814 

> <Gold.Protein.RotatedAtoms>
  151.8911  133.3516  159.3798 H   0  0  0  0  0  0  0  0  0  0  0  0  # atno 6907 bound_to 6896
  150.7103  134.4923  159.5531 H   0  0  0  0  0  0  0  0  0  0  0  0  # atno 6908 bound_to 6896
  152.2493  134.8149  160.0499 H   0  0  0  0  0  0  0  0  0  0  0  0  # atno 6909 bound_to 6896
  146.2007  139.7816  142.8763 H   0  0  0  0  0  0  0  0  0  0  0  0  # atno 7974 bound_to 7965
  154.9281  140.0405  157.2033 H   0  0  0  0  0  0  0  0  0  0  0  0  # atno 8008 bound_to 7997
  154.8188  140.2880  155.5780 H   0  0  0  0  0  0  0  0  0  0  0  0  # atno 8009 bound_to 7997
  156.2978  140.2523  156.3090 H   0  0  0  0  0  0  0  0  0  0  0  0  # atno 8010 bound_to 7997
  140.0861  143.4743  152.1897 H   0  0  0  0  0  0  0  0  0  0  0  0  # atno 10167 bound_to 10162
  156.9297  130.5821  149.5649 H   0  0  0  0  0  0  0  0  0  0  0  0  # atno 10718 bound_to 10713
  153.8087  135.3132  155.3398 H   0  0  0  0  0  0  0  0  0  0  0  0  # atno 10763 bound_to 10752
  154.8060  135.4697  154.0396 H   0  0  0  0  0  0  0  0  0  0  0  0  # atno 10764 bound_to 10752
  153.1767  135.6887  153.8621 H   0  0  0  0  0  0  0  0  0  0  0  0  # atno 10765 bound_to 10752
  140.1351  134.4655  155.8491 H   0  0  0  0  0  0  0  0  0  0  0  0  # atno 11005 bound_to 11000
  145.3493  141.0304  143.3348 LP  0  0  0  0  0  0  0  0  0  0  0  0  # atno 17320 bound_to 7965
  144.8677  139.5083  143.6782 LP  0  0  0  0  0  0  0  0  0  0  0  0  # atno 17321 bound_to 7965
  139.5751  144.7483  151.3786 LP  0  0  0  0  0  0  0  0  0  0  0  0  # atno 17342 bound_to 10162
  140.7053  143.7530  150.7471 LP  0  0  0  0  0  0  0  0  0  0  0  0  # atno 17343 bound_to 10162
  156.0453  130.5530  150.8865 LP  0  0  0  0  0  0  0  0  0  0  0  0  # atno 17370 bound_to 10713
  157.5855  131.0945  150.9204 LP  0  0  0  0  0  0  0  0  0  0  0  0  # atno 17371 bound_to 10713
  141.2177  133.6811  156.7142 LP  0  0  0  0  0  0  0  0  0  0  0  0  # atno 17394 bound_to 11000
  140.2793  134.8330  157.3918 LP  0  0  0  0  0  0  0  0  0  0  0  0  # atno 17395 bound_to 11000

$$$$
