AV-unprocessed.smi:1934|AV-procd|sdf|7825|dock2
  -GOLD-   22720 9573D 1   1.00000     0.00000
 Structure written by MMmdl.
 46 47  0  0  0  0  0  0  0  0  2 V2000
  150.9545  142.0539  156.2633 C   0  0  0  0  0  0  0  0  0  0  0  0
  150.5202  140.8389  155.4975 C   0  0  0  0  0  0  0  0  0  0  0  0
  149.2116  140.5125  155.0374 C   0  0  0  0  0  0  0  0  0  0  0  0
  149.4026  139.3113  154.4104 C   0  0  0  0  0  0  0  0  0  0  0  0
  148.4917  138.5283  153.7729 N   0  0  0  0  0  0  0  0  0  0  0  0
  147.1494  138.5854  153.8248 C   0  0  0  0  0  0  0  0  0  0  0  0
  146.4912  139.3596  154.5201 O   0  0  0  0  0  0  0  0  0  0  0  0
  146.5937  137.6724  153.0153 N   0  0  0  0  0  0  0  0  0  0  0  0
  145.1592  137.4844  152.8323 C   0  0  0  0  0  0  0  0  0  0  0  0
  144.4010  137.5960  154.1686 C   0  0  0  0  0  0  0  0  0  0  0  0
  143.0211  138.1125  153.9892 N   0  3  1  0  0  0  0  0  0  0  0  0
  142.1696  137.1867  153.1987 C   0  0  0  0  0  0  0  0  0  0  0  0
  140.8021  137.8180  152.8924 C   0  0  0  0  0  0  0  0  0  0  0  0
  140.0929  138.2501  154.1835 C   0  0  0  0  0  0  0  0  0  0  0  0
  140.9951  139.1568  155.0415 C   0  0  2  0  0  0  0  0  0  0  0  0
  141.1246  140.5806  154.4728 C   0  0  0  0  0  0  0  0  0  0  0  0
  142.3690  138.4934  155.2719 C   0  0  0  0  0  0  0  0  0  0  0  0
  150.7349  138.9693  154.5016 N   0  0  0  0  0  0  0  0  0  0  0  0
  151.4367  137.8016  154.0037 C   0  0  0  0  0  0  0  0  0  0  0  0
  151.4200  139.9160  155.1780 N   0  0  0  0  0  0  0  0  0  0  0  0
  150.1502  142.7869  156.3291 H   0  0  0  0  0  0  0  0  0  0  0  0
  151.8051  142.5386  155.7836 H   0  0  0  0  0  0  0  0  0  0  0  0
  151.2489  141.7917  157.2795 H   0  0  0  0  0  0  0  0  0  0  0  0
  148.3018  141.0809  155.1566 H   0  0  0  0  0  0  0  0  0  0  0  0
  148.8839  137.8198  153.1704 H   0  0  0  0  0  0  0  0  0  0  0  0
  147.2056  137.0736  152.4800 H   0  0  0  0  0  0  0  0  0  0  0  0
  144.7924  138.2050  152.1007 H   0  0  0  0  0  0  0  0  0  0  0  0
  145.0012  136.4970  152.3979 H   0  0  0  0  0  0  0  0  0  0  0  0
  144.3607  136.6005  154.6132 H   0  0  0  0  0  0  0  0  0  0  0  0
  144.9387  138.2269  154.8784 H   0  0  0  0  0  0  0  0  0  0  0  0
  142.6636  136.9394  152.2583 H   0  0  0  0  0  0  0  0  0  0  0  0
  142.0414  136.2510  153.7458 H   0  0  0  0  0  0  0  0  0  0  0  0
  140.9319  138.6766  152.2329 H   0  0  0  0  0  0  0  0  0  0  0  0
  140.1790  137.1075  152.3484 H   0  0  0  0  0  0  0  0  0  0  0  0
  139.1536  138.7529  153.9506 H   0  0  0  0  0  0  0  0  0  0  0  0
  139.8284  137.3608  154.7572 H   0  0  0  0  0  0  0  0  0  0  0  0
  140.5159  139.2598  156.0159 H   0  0  0  0  0  0  0  0  0  0  0  0
  141.6174  140.5890  153.5008 H   0  0  0  0  0  0  0  0  0  0  0  0
  141.7056  141.2163  155.1415 H   0  0  0  0  0  0  0  0  0  0  0  0
  140.1453  141.0444  154.3521 H   0  0  0  0  0  0  0  0  0  0  0  0
  142.2465  137.5999  155.8863 H   0  0  0  0  0  0  0  0  0  0  0  0
  143.0047  139.1714  155.8405 H   0  0  0  0  0  0  0  0  0  0  0  0
  150.8298  137.2739  153.2681 H   0  0  0  0  0  0  0  0  0  0  0  0
  151.6578  137.1274  154.8313 H   0  0  0  0  0  0  0  0  0  0  0  0
  152.3719  138.1039  153.5309 H   0  0  0  0  0  0  0  0  0  0  0  0
  143.1029  138.9552  153.4386 H   0  0  0  0  0  0  0  0  0  0  0  0
  1  2  1  0  0  0  0
  1 21  1  0  0  0  0
  1 22  1  0  0  0  0
  1 23  1  0  0  0  0
  2 20  2  0  0  0  0
  2  3  1  0  0  0  0
  3  4  2  0  0  0  0
  3 24  1  0  0  0  0
  4  5  1  0  0  0  0
  4 18  1  0  0  0  0
  5  6  1  0  0  0  0
  5 25  1  0  0  0  0
  6  7  2  0  0  0  0
  6  8  1  0  0  0  0
  8  9  1  0  0  0  0
  8 26  1  0  0  0  0
  9 10  1  0  0  0  0
  9 27  1  0  0  0  0
  9 28  1  0  0  0  0
 10 11  1  0  0  0  0
 10 29  1  0  0  0  0
 10 30  1  0  0  0  0
 11 17  1  0  0  0  0
 11 12  1  0  0  0  0
 11 46  1  0  0  0  0
 12 13  1  0  0  0  0
 12 31  1  0  0  0  0
 12 32  1  0  0  0  0
 13 14  1  0  0  0  0
 13 33  1  0  0  0  0
 13 34  1  0  0  0  0
 14 15  1  0  0  0  0
 14 35  1  0  0  0  0
 14 36  1  0  0  0  0
 15 16  1  0  0  0  0
 15 17  1  0  0  0  0
 15 37  1  0  0  0  0
 16 38  1  0  0  0  0
 16 39  1  0  0  0  0
 16 40  1  0  0  0  0
 17 41  1  0  0  0  0
 17 42  1  0  0  0  0
 18 19  1  0  0  0  0
 18 20  1  0  0  0  0
 19 43  1  0  0  0  0
 19 44  1  0  0  0  0
 19 45  1  0  0  0  0
M  CHG  1  11   1
M  END
> <s_m_source_file>
AV-unprocessed.smi

> <i_m_source_file_index>
1934

> <i_lp_mmshare_version>
43012

> <i_f3d_flags>
0

> <s_epik_input>
W0NIM11jMVtjSF1jKG4objEpW0NIM10pW05IXUMoPU8pW05IXVtDSDJdW0NIMl1OMltDSDJdW0NIMl1bQ0gyXVtDQEBIXShbQ0gzXSlbQ0gyXTI=

> <s_epik_cmdline>
J2VwaWtfcHl0aG9uJywgJy1waCcsICc3LjAnLCAnLXRuJywgJzgnLCAnLW1hJywgJzIwMCcsICctbWV0YWxfYmluZGluZycsICctaW1hZScsICc8aW5maWxlLm1hZT4nLCAnLW9tYWUnLCAnPG91dGZpbGUubWFlPic=

> <r_lp_tautomer_probability>
1

> <r_epik_Ionization_Penalty>
0.00202955

> <r_epik_Ionization_Penalty_Charging>
0.00195276

> <r_epik_Ionization_Penalty_Neutral>
7.67968e-05

> <r_epik_State_Penalty>
0.00133177

> <r_epik_Charging_Adjusted_Penalty>
0.00328452

> <i_epik_Tot_Q>
1

> <i_epik_Tot_abs_Q>
1

> <r_epik_Metal_State_Penalty>
-0

> <b_epik_Metal_Only>
0

> <s_lp_Force_Field>
OPLS_2005

> <r_lp_Energy>
20.4325

> <b_lp_Chiralities_Consistent>
1

> <s_lp_Variant>
AV-unprocessed.smi:1934-3

> <Gold.Version>
5.8.1

> <Gold.Id.Protein>
6NUR|6NUR_protein|mol2

> <Gold.PLP.Fitness>
40.0773

> <Gold.PLP.PLP>
-28.3153

> <Gold.PLP.part.hbond>
-4.3537

> <Gold.PLP.part.metal>
0.0000

> <Gold.PLP.part.buried>
-4.0374

> <Gold.PLP.part.nonpolar>
-20.3410

> <Gold.PLP.part.repulsive>
0.1710

> <Gold.PLP.ligand.clash>
0.0000

> <Gold.PLP.ligand.torsion>
0.4097

> <Gold.PLP.Chemscore.Hbond>
4.1713

> <Gold.PLP.Chemscore.CHOScore>
0.0000

> <Gold.PLP.Chemscore.Metal>
0.0000

> <Gold.Chemscore.Hbonds>
donor molecule, donor type, donor heavy atom, donor atom, acceptor molecule, acceptor atom, score
      L1  H     5    25       P1  7948  0.99
      L1  H     8    26       P1  7948  1.00
      L1  H    11    46       P1 10175  2.00
      P1  H  7989  7998       L1    20  0.16

> <Gold.PLP.Chemscore.Internal.Correction>
0.0677

> <Gold.Rescore>
     Score         DG    S(hbond)    S(metal)    S(lipo)     H(rot)  DE(clash)    DE(int)     intcor
     15.35     -18.44       2.90        0.00      60.44       1.48       0.20       2.89       ----

> <Gold.Chemscore.Fitness>
15.3471

> <Gold.Chemscore.DG>
-18.4423

> <Gold.Chemscore.ZeroCoef>
-5.4800

> <Gold.Chemscore.Hbond>
2.9010

> <Gold.Chemscore.Metal>
0.0000

> <Gold.Chemscore.Lipo>
60.4385

> <Gold.Chemscore.Internal_Hbond>
0.0000

> <Gold.Chemscore.DEClash>
0.2014

> <Gold.Chemscore.DEInternal>
2.8937

> <Gold.Chemscore.Rot>
1.4838

> <Gold.Chemscore.Internal.Correction>
   9.000000E+99

> <Gold.Chemscore.Hbonds>
donor molecule, donor type, donor heavy atom, donor atom, acceptor molecule, acceptor atom, score
      L1  H     5    25       P1  7948  0.92
      L1  H     8    26       P1  7948  0.93
      L1  H    11    46       P1 10175  1.00

> <Gold.Chemscore.Hbond.Weighted>
-9.6894

> <Gold.Chemscore.Metal.Weighted>
-0.0000

> <Gold.Chemscore.Lipo.Weighted>
-7.0713

> <Gold.Chemscore.Internal_Hbond.Weighted>
0.0000

> <Gold.Chemscore.DEClash.Weighted>
0.2014

> <Gold.Chemscore.DEInternal.Weighted>
2.8937

> <Gold.Chemscore.Rot.Weighted>
3.7985

> <Gold.Chemscore.Internal.Correction.Weighted>
   9.000000E+99

> <Gold.Protein.RotatedTorsions>
[ 6907 6896 6895 6894 ] final  -50.92 input  -60.11 | X-H torsion
[ 7974 7965 7964 7962 ] final -148.84 input  175.53 | X-H torsion
[ 8008 7997 7996 7995 ] final   -7.35 input   59.86 | X-H torsion
[ 10167 10162 10161 10158 ] final -126.79 input  -65.29 | X-H torsion
[ 10718 10713 10712 10709 ] final -123.84 input   66.30 | X-H torsion
[ 10763 10752 10751 10750 ] final  168.66 input  -60.55 | X-H torsion
[ 11005 11000 10999 10996 ] final  -41.69 input  -57.11 | X-H torsion

> <Gold.Protein.ActiveResidues>
 VAL166  LYS551  ARG553  GLY616  TRP617  ASP618  TYR619  PRO620  LYS621  CYS622 
 ASP623  PHE694  ASN695  SER759  ASP760  ASP761  ALA762  ILE779  LEU786  VAL792 
 PHE793  MET794  SER795  GLU796  ALA797  LYS798  CYS799  TRP800  GLU811  SER814 

> <Gold.Protein.RotatedAtoms>
  150.8660  134.8024  159.7118 H   0  0  0  0  0  0  0  0  0  0  0  0  # atno 6907 bound_to 6896
  152.4681  134.5023  159.9738 H   0  0  0  0  0  0  0  0  0  0  0  0  # atno 6908 bound_to 6896
  151.5119  133.3445  159.2922 H   0  0  0  0  0  0  0  0  0  0  0  0  # atno 6909 bound_to 6896
  144.8004  140.5143  143.5711 H   0  0  0  0  0  0  0  0  0  0  0  0  # atno 7974 bound_to 7965
  154.5846  140.2409  155.8005 H   0  0  0  0  0  0  0  0  0  0  0  0  # atno 8008 bound_to 7997
  156.2204  140.2999  155.9895 H   0  0  0  0  0  0  0  0  0  0  0  0  # atno 8009 bound_to 7997
  155.2480  140.0409  157.2973 H   0  0  0  0  0  0  0  0  0  0  0  0  # atno 8010 bound_to 7997
  139.9678  143.5879  152.2423 H   0  0  0  0  0  0  0  0  0  0  0  0  # atno 10167 bound_to 10162
  156.1536  130.6552  150.9950 H   0  0  0  0  0  0  0  0  0  0  0  0  # atno 10718 bound_to 10713
  154.3719  135.2753  155.2261 H   0  0  0  0  0  0  0  0  0  0  0  0  # atno 10763 bound_to 10752
  154.4405  135.5955  153.6130 H   0  0  0  0  0  0  0  0  0  0  0  0  # atno 10764 bound_to 10752
  152.9838  135.6017  154.3951 H   0  0  0  0  0  0  0  0  0  0  0  0  # atno 10765 bound_to 10752
  141.0264  133.6839  156.2492 H   0  0  0  0  0  0  0  0  0  0  0  0  # atno 11005 bound_to 11000
  145.5567  139.1478  143.3364 LP  0  0  0  0  0  0  0  0  0  0  0  0  # atno 17320 bound_to 7965
  146.2284  140.5704  142.8986 LP  0  0  0  0  0  0  0  0  0  0  0  0  # atno 17321 bound_to 7965
  139.6504  144.7660  151.2158 LP  0  0  0  0  0  0  0  0  0  0  0  0  # atno 17342 bound_to 10162
  140.7532  143.6169  150.8550 LP  0  0  0  0  0  0  0  0  0  0  0  0  # atno 17343 bound_to 10162
  157.6677  131.0868  150.7688 LP  0  0  0  0  0  0  0  0  0  0  0  0  # atno 17370 bound_to 10713
  156.7754  130.4842  149.5410 LP  0  0  0  0  0  0  0  0  0  0  0  0  # atno 17371 bound_to 10713
  140.6484  134.5092  157.5575 LP  0  0  0  0  0  0  0  0  0  0  0  0  # atno 17394 bound_to 11000
  139.9178  134.8209  156.1307 LP  0  0  0  0  0  0  0  0  0  0  0  0  # atno 17395 bound_to 11000

$$$$
