AV-unprocessed.smi:3314|AV-procd|sdf|12740|dock6
  -GOLD-   2272019 83D 1   1.00000     0.00000
 Structure written by MMmdl.
 38 39  0  0  0  0  0  0  0  0  2 V2000
  151.0898  144.6915  159.3753 C   0  0  0  0  0  0  0  0  0  0  0  0
  151.5793  143.3264  158.9368 C   0  0  0  0  0  0  0  0  0  0  0  0
  152.4524  142.5469  159.7977 C   0  0  0  0  0  0  0  0  0  0  0  0
  152.8749  141.3379  159.3905 C   0  0  0  0  0  0  0  0  0  0  0  0
  153.7853  140.4455  160.2078 C   0  0  0  0  0  0  0  0  0  0  0  0
  152.4872  140.8243  158.1594 N   0  0  0  0  0  0  0  0  0  0  0  0
  151.6465  141.5159  157.2695 C   0  0  0  0  0  0  0  0  0  0  0  0
  151.2555  141.0809  156.1068 N   0  0  0  0  0  0  0  0  0  0  0  0
  151.6320  139.8383  155.6039 C   0  0  0  0  0  0  0  0  0  0  0  0
  152.7032  139.2368  155.7244 O   0  0  0  0  0  0  0  0  0  0  0  0
  150.5080  139.1867  154.7894 C   0  0  1  0  0  0  0  0  0  0  0  0
  150.1110  137.8202  155.3878 C   0  0  0  0  0  0  0  0  0  0  0  0
  148.9598  137.2478  154.6525 N   0  3  1  0  0  0  0  0  0  0  0  0
  148.5628  135.9174  155.1606 C   0  0  0  0  0  0  0  0  0  0  0  0
  147.8308  138.2044  154.6098 C   0  0  0  0  0  0  0  0  0  0  0  0
  148.2956  139.5502  154.0308 C   0  0  0  0  0  0  0  0  0  0  0  0
  149.3759  140.0530  154.8069 O   0  0  0  0  0  0  0  0  0  0  0  0
  151.2063  142.8217  157.7370 C   0  0  0  0  0  0  0  0  0  0  0  0
  151.4802  144.9538  160.3591 H   0  0  0  0  0  0  0  0  0  0  0  0
  150.0008  144.7054  159.4266 H   0  0  0  0  0  0  0  0  0  0  0  0
  151.4117  145.4553  158.6669 H   0  0  0  0  0  0  0  0  0  0  0  0
  152.7593  142.9368  160.7573 H   0  0  0  0  0  0  0  0  0  0  0  0
  154.0355  140.9065  161.1639 H   0  0  0  0  0  0  0  0  0  0  0  0
  154.7137  140.2554  159.6686 H   0  0  0  0  0  0  0  0  0  0  0  0
  153.3011  139.4893  160.4076 H   0  0  0  0  0  0  0  0  0  0  0  0
  150.8371  139.0603  153.7555 H   0  0  0  0  0  0  0  0  0  0  0  0
  150.9532  137.1284  155.3341 H   0  0  0  0  0  0  0  0  0  0  0  0
  149.8501  137.9260  156.4429 H   0  0  0  0  0  0  0  0  0  0  0  0
  148.2240  135.9777  156.1957 H   0  0  0  0  0  0  0  0  0  0  0  0
  149.4026  135.2231  155.1153 H   0  0  0  0  0  0  0  0  0  0  0  0
  147.7537  135.5015  154.5591 H   0  0  0  0  0  0  0  0  0  0  0  0
  147.0237  137.7963  154.0002 H   0  0  0  0  0  0  0  0  0  0  0  0
  147.4328  138.3489  155.6156 H   0  0  0  0  0  0  0  0  0  0  0  0
  148.5984  139.4441  152.9879 H   0  0  0  0  0  0  0  0  0  0  0  0
  147.4785  140.2716  154.0533 H   0  0  0  0  0  0  0  0  0  0  0  0
  150.5565  143.4304  157.1243 H   0  0  0  0  0  0  0  0  0  0  0  0
  152.8462  139.9088  157.9288 H   0  0  0  0  0  0  0  0  0  0  0  0
  149.2632  137.1150  153.6982 H   0  0  0  0  0  0  0  0  0  0  0  0
  1  2  1  0  0  0  0
  1 19  1  0  0  0  0
  1 20  1  0  0  0  0
  1 21  1  0  0  0  0
  2 18  2  0  0  0  0
  2  3  1  0  0  0  0
  3  4  2  0  0  0  0
  3 22  1  0  0  0  0
  4  5  1  0  0  0  0
  4  6  1  0  0  0  0
  5 23  1  0  0  0  0
  5 24  1  0  0  0  0
  5 25  1  0  0  0  0
  6  7  1  0  0  0  0
  6 37  1  0  0  0  0
  7  8  2  0  0  0  0
  7 18  1  0  0  0  0
  8  9  1  0  0  0  0
  9 10  2  0  0  0  0
  9 11  1  0  0  0  0
 11 17  1  0  0  0  0
 11 12  1  0  0  0  0
 11 26  1  0  0  0  0
 12 13  1  0  0  0  0
 12 27  1  0  0  0  0
 12 28  1  0  0  0  0
 13 14  1  0  0  0  0
 13 15  1  0  0  0  0
 13 38  1  0  0  0  0
 14 29  1  0  0  0  0
 14 30  1  0  0  0  0
 14 31  1  0  0  0  0
 15 16  1  0  0  0  0
 15 32  1  0  0  0  0
 15 33  1  0  0  0  0
 16 17  1  0  0  0  0
 16 34  1  0  0  0  0
 16 35  1  0  0  0  0
 18 36  1  0  0  0  0
M  CHG  1  13   1
M  END
> <s_m_source_file>
AV-unprocessed.smi

> <i_m_source_file_index>
3314

> <i_lp_mmshare_version>
43012

> <i_f3d_flags>
0

> <s_epik_input>
W0NIM11jMVtjSF1jKFtDSDNdKW5jKFtjSF0xKVtOSF1DKD1PKVtDQEBIXTJbQ0gyXU4oW0NIM10pW0NIMl1bQ0gyXU8y

> <s_epik_cmdline>
J2VwaWtfcHl0aG9uJywgJy1waCcsICc3LjAnLCAnLXRuJywgJzgnLCAnLW1hJywgJzIwMCcsICctbWV0YWxfYmluZGluZycsICctaW1hZScsICc8aW5maWxlLm1hZT4nLCAnLW9tYWUnLCAnPG91dGZpbGUubWFlPic=

> <r_epik_Ionization_Penalty>
0.519783

> <r_epik_Ionization_Penalty_Charging>
0.519783

> <r_epik_Ionization_Penalty_Neutral>
1.74183e-13

> <r_epik_State_Penalty>
2.39351

> <r_epik_Charging_Adjusted_Penalty>
2.91329

> <i_epik_Tot_Q>
1

> <i_epik_Tot_abs_Q>
1

> <r_epik_Metal_State_Penalty>
2.41924

> <b_epik_Metal_Only>
0

> <s_lp_Force_Field>
OPLS_2005

> <r_lp_Energy>
34.3137

> <b_lp_Chiralities_Consistent>
1

> <s_lp_Variant>
AV-unprocessed.smi:3314-10

> <Gold.Version>
5.8.1

> <Gold.Id.Protein>
6NUR|6NUR_protein|mol2

> <Gold.PLP.Fitness>
39.8251

> <Gold.PLP.PLP>
-31.3875

> <Gold.PLP.part.hbond>
-2.0000

> <Gold.PLP.part.metal>
0.0000

> <Gold.PLP.part.buried>
-4.0955

> <Gold.PLP.part.nonpolar>
-25.2678

> <Gold.PLP.part.repulsive>
0.2125

> <Gold.PLP.ligand.clash>
0.0000

> <Gold.PLP.ligand.torsion>
0.2573

> <Gold.PLP.Chemscore.Hbond>
2.9840

> <Gold.PLP.Chemscore.CHOScore>
0.0000

> <Gold.PLP.Chemscore.Metal>
0.0000

> <Gold.Chemscore.Hbonds>
donor molecule, donor type, donor heavy atom, donor atom, acceptor molecule, acceptor atom, score
      L1  H    13    38       P1  7948  1.93
      P1  H  7997  8010       L1    10  1.00

> <Gold.PLP.Chemscore.Internal.Correction>
0.0002

> <Gold.Rescore>
     Score         DG    S(hbond)    S(metal)    S(lipo)     H(rot)  DE(clash)    DE(int)     intcor
     16.95     -18.51       1.88        0.00      79.60       1.00       0.07       1.49       ----

> <Gold.Chemscore.Fitness>
16.9485

> <Gold.Chemscore.DG>
-18.5094

> <Gold.Chemscore.ZeroCoef>
-5.4800

> <Gold.Chemscore.Hbond>
1.8790

> <Gold.Chemscore.Metal>
0.0000

> <Gold.Chemscore.Lipo>
79.6019

> <Gold.Chemscore.Internal_Hbond>
0.0000

> <Gold.Chemscore.DEClash>
0.0710

> <Gold.Chemscore.DEInternal>
1.4899

> <Gold.Chemscore.Rot>
1.0000

> <Gold.Chemscore.Internal.Correction>
   9.000000E+99

> <Gold.Chemscore.Hbonds>
donor molecule, donor type, donor heavy atom, donor atom, acceptor molecule, acceptor atom, score
      L1  H    13    38       P1  7948  0.86
      P1  H  7997  8010       L1    10  0.97

> <Gold.Chemscore.Hbond.Weighted>
-6.2760

> <Gold.Chemscore.Metal.Weighted>
-0.0000

> <Gold.Chemscore.Lipo.Weighted>
-9.3134

> <Gold.Chemscore.Internal_Hbond.Weighted>
0.0000

> <Gold.Chemscore.DEClash.Weighted>
0.0710

> <Gold.Chemscore.DEInternal.Weighted>
1.4899

> <Gold.Chemscore.Rot.Weighted>
2.5600

> <Gold.Chemscore.Internal.Correction.Weighted>
   9.000000E+99

> <Gold.Protein.RotatedTorsions>
[ 6907 6896 6895 6894 ] final   81.15 input  -60.11 | X-H torsion
[ 7974 7965 7964 7962 ] final  152.99 input  175.53 | X-H torsion
[ 8008 7997 7996 7995 ] final   74.43 input   59.86 | X-H torsion
[ 10167 10162 10161 10158 ] final -136.11 input  -65.29 | X-H torsion
[ 10718 10713 10712 10709 ] final -118.26 input   66.30 | X-H torsion
[ 10763 10752 10751 10750 ] final   -1.32 input  -60.55 | X-H torsion
[ 11005 11000 10999 10996 ] final   35.96 input  -57.11 | X-H torsion

> <Gold.Protein.ActiveResidues>
 VAL166  LYS551  ARG553  GLY616  TRP617  ASP618  TYR619  PRO620  LYS621  CYS622 
 ASP623  PHE694  ASN695  SER759  ASP760  ASP761  ALA762  ILE779  LEU786  VAL792 
 PHE793  MET794  SER795  GLU796  ALA797  LYS798  CYS799  TRP800  GLU811  SER814 

> <Gold.Protein.RotatedAtoms>
  152.5259  134.3248  159.9161 H   0  0  0  0  0  0  0  0  0  0  0  0  # atno 6907 bound_to 6896
  151.3197  133.4039  159.2661 H   0  0  0  0  0  0  0  0  0  0  0  0  # atno 6908 bound_to 6896
  150.9969  134.9308  159.7989 H   0  0  0  0  0  0  0  0  0  0  0  0  # atno 6909 bound_to 6896
  144.8185  139.6741  143.6111 H   0  0  0  0  0  0  0  0  0  0  0  0  # atno 7974 bound_to 7965
  155.7982  140.3477  155.5387 H   0  0  0  0  0  0  0  0  0  0  0  0  # atno 8008 bound_to 7997
  155.8565  140.0964  157.1661 H   0  0  0  0  0  0  0  0  0  0  0  0  # atno 8009 bound_to 7997
  154.4010  140.1366  156.3895 H   0  0  0  0  0  0  0  0  0  0  0  0  # atno 8010 bound_to 7997
  139.8711  143.6956  152.2639 H   0  0  0  0  0  0  0  0  0  0  0  0  # atno 10167 bound_to 10162
  156.1094  130.6236  150.9269 H   0  0  0  0  0  0  0  0  0  0  0  0  # atno 10718 bound_to 10713
  153.3433  135.6982  153.6849 H   0  0  0  0  0  0  0  0  0  0  0  0  # atno 10763 bound_to 10752
  153.5605  135.3536  155.2797 H   0  0  0  0  0  0  0  0  0  0  0  0  # atno 10764 bound_to 10752
  154.8640  135.4248  154.2651 H   0  0  0  0  0  0  0  0  0  0  0  0  # atno 10765 bound_to 10752
  140.2374  134.3455  155.7939 H   0  0  0  0  0  0  0  0  0  0  0  0  # atno 11005 bound_to 11000
  146.2489  139.6157  142.9440 LP  0  0  0  0  0  0  0  0  0  0  0  0  # atno 17320 bound_to 7965
  145.5159  141.0434  143.2462 LP  0  0  0  0  0  0  0  0  0  0  0  0  # atno 17321 bound_to 7965
  139.7283  144.7588  151.0843 LP  0  0  0  0  0  0  0  0  0  0  0  0  # atno 17342 bound_to 10162
  140.7760  143.5120  150.9641 LP  0  0  0  0  0  0  0  0  0  0  0  0  # atno 17343 bound_to 10162
  157.6273  131.0924  150.8508 LP  0  0  0  0  0  0  0  0  0  0  0  0  # atno 17370 bound_to 10713
  156.8622  130.5117  149.5303 LP  0  0  0  0  0  0  0  0  0  0  0  0  # atno 17371 bound_to 10713
  141.2213  133.7279  156.8830 LP  0  0  0  0  0  0  0  0  0  0  0  0  # atno 17394 bound_to 11000
  140.1688  134.9114  157.2807 LP  0  0  0  0  0  0  0  0  0  0  0  0  # atno 17395 bound_to 11000

$$$$
