AV-unprocessed.smi:1852|AV-procd|sdf|7526|dock6
  -GOLD-   22720 9233D 1   1.00000     0.00000
 Structure written by MMmdl.
 46 48  0  0  0  0  0  0  0  0  2 V2000
  153.7820  138.4113  160.4727 C   0  0  0  0  0  0  0  0  0  0  0  0
  153.4188  139.8585  160.2105 C   0  0  0  0  0  0  0  0  0  0  0  0
  154.0408  140.8917  160.9379 C   0  0  0  0  0  0  0  0  0  0  0  0
  153.6988  142.2327  160.6867 C   0  0  0  0  0  0  0  0  0  0  0  0
  152.7344  142.5495  159.7077 C   0  0  0  0  0  0  0  0  0  0  0  0
  152.3809  144.0013  159.4431 C   0  0  0  0  0  0  0  0  0  0  0  0
  152.1022  141.5215  158.9712 C   0  0  0  0  0  0  0  0  0  0  0  0
  151.1654  141.8996  158.0331 O   0  0  0  0  0  0  0  0  0  0  0  0
  150.4799  140.8877  157.3082 C   0  0  0  0  0  0  0  0  0  0  0  0
  151.0977  140.7650  155.9084 C   0  0  0  0  0  0  0  0  0  0  0  0
  150.1879  140.1010  154.9611 N   0  0  0  0  0  0  0  0  0  0  0  0
  150.3046  138.9030  154.3181 C   0  0  0  0  0  0  0  0  0  0  0  0
  151.4309  137.9225  154.4280 C   0  0  0  0  0  0  0  0  0  0  0  0
  151.6424  137.4478  155.7902 N   0  0  0  0  0  0  0  0  0  0  0  0
  152.6565  137.8197  156.5845 C   0  0  0  0  0  0  0  0  0  0  0  0
  153.5304  138.6244  156.2659 O   0  0  0  0  0  0  0  0  0  0  0  0
  149.1956  138.7541  153.5395 N   0  3  0  0  0  0  0  0  0  0  0  0
  148.3670  139.8679  153.6772 C   0  0  0  0  0  0  0  0  0  0  0  0
  147.1445  140.1721  153.0861 C   0  0  0  0  0  0  0  0  0  0  0  0
  146.5613  141.4070  153.4378 C   0  0  0  0  0  0  0  0  0  0  0  0
  147.1916  142.2848  154.3431 C   0  0  0  0  0  0  0  0  0  0  0  0
  148.4291  141.9639  154.9381 C   0  0  0  0  0  0  0  0  0  0  0  0
  148.9989  140.7396  154.5873 C   0  0  0  0  0  0  0  0  0  0  0  0
  152.4540  140.1729  159.2323 C   0  0  0  0  0  0  0  0  0  0  0  0
  154.4341  138.3156  161.3414 H   0  0  0  0  0  0  0  0  0  0  0  0
  154.2986  137.9906  159.6097 H   0  0  0  0  0  0  0  0  0  0  0  0
  152.8837  137.8214  160.6568 H   0  0  0  0  0  0  0  0  0  0  0  0
  154.7811  140.6613  161.6900 H   0  0  0  0  0  0  0  0  0  0  0  0
  154.1826  143.0176  161.2495 H   0  0  0  0  0  0  0  0  0  0  0  0
  151.3318  144.1834  159.6770 H   0  0  0  0  0  0  0  0  0  0  0  0
  152.5467  144.2471  158.3938 H   0  0  0  0  0  0  0  0  0  0  0  0
  152.9863  144.6769  160.0478 H   0  0  0  0  0  0  0  0  0  0  0  0
  150.5662  139.9311  157.8260 H   0  0  0  0  0  0  0  0  0  0  0  0
  149.4204  141.1321  157.2217 H   0  0  0  0  0  0  0  0  0  0  0  0
  151.3355  141.7523  155.5136 H   0  0  0  0  0  0  0  0  0  0  0  0
  152.0411  140.2208  155.9446 H   0  0  0  0  0  0  0  0  0  0  0  0
  151.2073  137.0635  153.7949 H   0  0  0  0  0  0  0  0  0  0  0  0
  152.3519  138.3579  154.0391 H   0  0  0  0  0  0  0  0  0  0  0  0
  150.9797  136.7761  156.1497 H   0  0  0  0  0  0  0  0  0  0  0  0
  152.6005  137.3083  157.5579 H   0  0  0  0  0  0  0  0  0  0  0  0
  146.6612  139.5028  152.3898 H   0  0  0  0  0  0  0  0  0  0  0  0
  145.6127  141.6872  153.0032 H   0  0  0  0  0  0  0  0  0  0  0  0
  146.7175  143.2247  154.5861 H   0  0  0  0  0  0  0  0  0  0  0  0
  148.9044  142.6482  155.6250 H   0  0  0  0  0  0  0  0  0  0  0  0
  151.9917  139.3589  158.6948 H   0  0  0  0  0  0  0  0  0  0  0  0
  149.0222  137.9473  152.9542 H   0  0  0  0  0  0  0  0  0  0  0  0
  1  2  1  0  0  0  0
  1 25  1  0  0  0  0
  1 26  1  0  0  0  0
  1 27  1  0  0  0  0
  2 24  1  0  0  0  0
  2  3  2  0  0  0  0
  3  4  1  0  0  0  0
  3 28  1  0  0  0  0
  4  5  2  0  0  0  0
  4 29  1  0  0  0  0
  5  6  1  0  0  0  0
  5  7  1  0  0  0  0
  6 30  1  0  0  0  0
  6 31  1  0  0  0  0
  6 32  1  0  0  0  0
  7  8  1  0  0  0  0
  7 24  2  0  0  0  0
  8  9  1  0  0  0  0
  9 10  1  0  0  0  0
  9 33  1  0  0  0  0
  9 34  1  0  0  0  0
 10 11  1  0  0  0  0
 10 35  1  0  0  0  0
 10 36  1  0  0  0  0
 11 23  1  0  0  0  0
 11 12  1  0  0  0  0
 12 13  1  0  0  0  0
 12 17  2  0  0  0  0
 13 14  1  0  0  0  0
 13 37  1  0  0  0  0
 13 38  1  0  0  0  0
 14 15  1  0  0  0  0
 14 39  1  0  0  0  0
 15 16  2  0  0  0  0
 15 40  1  0  0  0  0
 17 18  1  0  0  0  0
 17 46  1  0  0  0  0
 18 23  2  0  0  0  0
 18 19  1  0  0  0  0
 19 20  2  0  0  0  0
 19 41  1  0  0  0  0
 20 21  1  0  0  0  0
 20 42  1  0  0  0  0
 21 22  2  0  0  0  0
 21 43  1  0  0  0  0
 22 23  1  0  0  0  0
 22 44  1  0  0  0  0
 24 45  1  0  0  0  0
M  CHG  1  17   1
M  END
> <s_m_source_file>
AV-unprocessed.smi

> <i_m_source_file_index>
1852

> <i_lp_mmshare_version>
43012

> <i_f3d_flags>
0

> <s_epik_input>
W0NIM11jMVtjSF1bY0hdYyhbQ0gzXSljKFtjSF0xKU9bQ0gyXVtDSDJdbihjKG4yKVtDSDJdW05IXVtDSF09TyljKGMyMylbY0hdW2NIXVtjSF1bY0hdMw==

> <s_epik_cmdline>
J2VwaWtfcHl0aG9uJywgJy1waCcsICc3LjAnLCAnLXRuJywgJzgnLCAnLW1hJywgJzIwMCcsICctbWV0YWxfYmluZGluZycsICctaW1hZScsICc8aW5maWxlLm1hZT4nLCAnLW9tYWUnLCAnPG91dGZpbGUubWFlPic=

> <r_lp_tautomer_probability>
1

> <r_epik_Ionization_Penalty>
1.39865

> <r_epik_Ionization_Penalty_Charging>
1.39865

> <r_epik_Ionization_Penalty_Neutral>
7.38905e-08

> <r_epik_State_Penalty>
1.48061

> <r_epik_Charging_Adjusted_Penalty>
2.87925

> <i_epik_Tot_Q>
1

> <i_epik_Tot_abs_Q>
1

> <r_epik_Metal_State_Penalty>
1.53473

> <b_epik_Metal_Only>
0

> <s_lp_Force_Field>
OPLS_2005

> <r_lp_Energy>
13.537

> <b_lp_Chiralities_Consistent>
1

> <s_lp_Variant>
AV-unprocessed.smi:1852-2

> <Gold.Version>
5.8.1

> <Gold.Id.Protein>
6NUR|6NUR_protein|mol2

> <Gold.PLP.Fitness>
59.2512

> <Gold.PLP.PLP>
-51.5719

> <Gold.PLP.part.hbond>
-2.7951

> <Gold.PLP.part.metal>
0.0000

> <Gold.PLP.part.buried>
0.7020

> <Gold.PLP.part.nonpolar>
-49.2006

> <Gold.PLP.part.repulsive>
0.2071

> <Gold.PLP.ligand.clash>
0.0000

> <Gold.PLP.ligand.torsion>
0.5136

> <Gold.PLP.Chemscore.Hbond>
2.8640

> <Gold.PLP.Chemscore.CHOScore>
0.0000

> <Gold.PLP.Chemscore.Metal>
0.0000

> <Gold.Chemscore.Hbonds>
donor molecule, donor type, donor heavy atom, donor atom, acceptor molecule, acceptor atom, score
      L1  H    17    46       P1  7948  2.00
      P1  H  7997  8010       L1    16  0.85

> <Gold.PLP.Chemscore.Internal.Correction>
0.1145

> <Gold.Rescore>
     Score         DG    S(hbond)    S(metal)    S(lipo)     H(rot)  DE(clash)    DE(int)     intcor
     19.88     -21.48       1.85        0.00     137.22       2.44       1.07       0.53       ----

> <Gold.Chemscore.Fitness>
19.8816

> <Gold.Chemscore.DG>
-21.4809

> <Gold.Chemscore.ZeroCoef>
-5.4800

> <Gold.Chemscore.Hbond>
1.8549

> <Gold.Chemscore.Metal>
0.0000

> <Gold.Chemscore.Lipo>
137.2197

> <Gold.Chemscore.Internal_Hbond>
0.0000

> <Gold.Chemscore.DEClash>
1.0681

> <Gold.Chemscore.DEInternal>
0.5312

> <Gold.Chemscore.Rot>
2.4411

> <Gold.Chemscore.Internal.Correction>
   9.000000E+99

> <Gold.Chemscore.Hbonds>
donor molecule, donor type, donor heavy atom, donor atom, acceptor molecule, acceptor atom, score
      L1  H    17    46       P1  7948  0.95
      P1  H  7997  8010       L1    16  0.85

> <Gold.Chemscore.Hbond.Weighted>
-6.1955

> <Gold.Chemscore.Metal.Weighted>
-0.0000

> <Gold.Chemscore.Lipo.Weighted>
-16.0547

> <Gold.Chemscore.Internal_Hbond.Weighted>
0.0000

> <Gold.Chemscore.DEClash.Weighted>
1.0681

> <Gold.Chemscore.DEInternal.Weighted>
0.5312

> <Gold.Chemscore.Rot.Weighted>
6.2493

> <Gold.Chemscore.Internal.Correction.Weighted>
   9.000000E+99

> <Gold.Protein.RotatedTorsions>
[ 6907 6896 6895 6894 ] final  140.19 input  -60.11 | X-H torsion
[ 7974 7965 7964 7962 ] final   20.63 input  175.53 | X-H torsion
[ 8008 7997 7996 7995 ] final   71.66 input   59.86 | X-H torsion
[ 10167 10162 10161 10158 ] final   73.79 input  -65.29 | X-H torsion
[ 10718 10713 10712 10709 ] final  132.96 input   66.30 | X-H torsion
[ 10763 10752 10751 10750 ] final  107.45 input  -60.55 | X-H torsion
[ 11005 11000 10999 10996 ] final  111.95 input  -57.11 | X-H torsion

> <Gold.Protein.ActiveResidues>
 VAL166  LYS551  ARG553  GLY616  TRP617  ASP618  TYR619  PRO620  LYS621  CYS622 
 ASP623  PHE694  ASN695  SER759  ASP760  ASP761  ALA762  ILE779  LEU786  VAL792 
 PHE793  MET794  SER795  GLU796  ALA797  LYS798  CYS799  TRP800  GLU811  SER814 

> <Gold.Protein.RotatedAtoms>
  152.2459  133.5174  159.5297 H   0  0  0  0  0  0  0  0  0  0  0  0  # atno 6907 bound_to 6896
  150.7078  134.1025  159.3980 H   0  0  0  0  0  0  0  0  0  0  0  0  # atno 6908 bound_to 6896
  151.8946  135.0403  160.0551 H   0  0  0  0  0  0  0  0  0  0  0  0  # atno 6909 bound_to 6896
  146.2103  139.8142  142.8693 H   0  0  0  0  0  0  0  0  0  0  0  0  # atno 7974 bound_to 7965
  155.7572  140.3487  155.5180 H   0  0  0  0  0  0  0  0  0  0  0  0  # atno 8008 bound_to 7997
  155.8948  140.1024  157.1414 H   0  0  0  0  0  0  0  0  0  0  0  0  # atno 8009 bound_to 7997
  154.4037  140.1297  156.4348 H   0  0  0  0  0  0  0  0  0  0  0  0  # atno 8010 bound_to 7997
  140.0206  144.5543  150.7584 H   0  0  0  0  0  0  0  0  0  0  0  0  # atno 10167 bound_to 10162
  157.4820  131.1086  150.9669 H   0  0  0  0  0  0  0  0  0  0  0  0  # atno 10718 bound_to 10713
  153.4069  135.3844  155.2024 H   0  0  0  0  0  0  0  0  0  0  0  0  # atno 10763 bound_to 10752
  154.8734  135.3785  154.4549 H   0  0  0  0  0  0  0  0  0  0  0  0  # atno 10764 bound_to 10752
  153.5053  135.7088  153.5872 H   0  0  0  0  0  0  0  0  0  0  0  0  # atno 10765 bound_to 10752
  139.8915  134.9519  156.6511 H   0  0  0  0  0  0  0  0  0  0  0  0  # atno 11005 bound_to 11000
  145.3164  141.0233  143.3525 LP  0  0  0  0  0  0  0  0  0  0  0  0  # atno 17320 bound_to 7965
  144.8898  139.4790  143.6683 LP  0  0  0  0  0  0  0  0  0  0  0  0  # atno 17321 bound_to 7965
  140.7344  143.2728  151.3835 LP  0  0  0  0  0  0  0  0  0  0  0  0  # atno 17342 bound_to 10162
  139.6142  144.1036  152.2329 LP  0  0  0  0  0  0  0  0  0  0  0  0  # atno 17343 bound_to 10162
  157.0399  130.5745  149.5354 LP  0  0  0  0  0  0  0  0  0  0  0  0  # atno 17370 bound_to 10713
  156.0127  130.5219  150.8038 LP  0  0  0  0  0  0  0  0  0  0  0  0  # atno 17371 bound_to 10713
  140.7520  133.8889  155.8354 LP  0  0  0  0  0  0  0  0  0  0  0  0  # atno 17394 bound_to 11000
  140.9993  134.1172  157.4333 LP  0  0  0  0  0  0  0  0  0  0  0  0  # atno 17395 bound_to 11000

$$$$
