AV-unprocessed.smi:652|AV-procd|sdf|3198|dock3
  -GOLD-   22720 0133D 1   1.00000     0.00000
 Structure written by MMmdl.
 49 50  0  0  0  0  0  0  0  0  3 V2000
  147.6959  133.2062  161.9251 C   0  0  0  0  0  0  0  0  0  0  0  0
  146.8375  134.4798  161.8617 C   0  0  0  0  0  0  0  0  0  0  0  0
  145.3424  134.1609  161.9933 C   0  0  0  0  0  0  0  0  0  0  0  0
  147.0722  135.1952  160.6103 N   0  0  0  0  0  0  0  0  0  0  0  0
  147.4715  136.4726  160.5067 C   0  0  0  0  0  0  0  0  0  0  0  0
  147.6913  137.1913  161.4821 O   0  0  0  0  0  0  0  0  0  0  0  0
  147.6454  137.0084  159.0810 C   0  0  0  0  0  0  0  0  0  0  0  0
  148.8927  137.9018  158.9099 C   0  0  0  0  0  0  0  0  0  0  0  0
  148.9994  138.4805  157.5466 N   0  3  1  0  0  0  0  0  0  0  0  0
  147.6972  138.9866  157.0512 C   0  0  0  0  0  0  0  0  0  0  0  0
  147.8389  139.5347  155.6230 C   0  0  0  0  0  0  0  0  0  0  0  0
  148.8323  140.5521  155.6030 O   0  0  0  0  0  0  0  0  0  0  0  0
  150.1158  140.0661  155.9778 C   0  0  1  0  0  0  0  0  0  0  0  0
  151.1088  141.2336  155.8248 C   0  0  0  0  0  0  0  0  0  0  0  0
  150.6198  142.4768  156.4068 N   0  0  0  0  0  0  0  0  0  0  0  0
  151.1536  143.0012  157.5933 C   0  0  0  0  0  0  0  0  0  0  0  0
  152.1985  142.4020  158.3359 C   0  0  0  0  0  0  0  0  0  0  0  0
  152.6362  143.0423  159.5079 C   0  0  0  0  0  0  0  0  0  0  0  0
  152.0037  144.2450  159.8685 C   0  0  0  0  0  0  0  0  0  0  0  0
  151.0059  144.8011  159.1463 N   0  0  0  0  0  0  0  0  0  0  0  0
  150.6103  144.1653  158.0296 N   0  3  0  0  0  0  0  0  0  0  0  0
  150.0417  139.5310  157.4246 C   0  0  0  0  0  0  0  0  0  0  0  0
  147.5283  132.6684  162.8587 H   0  0  0  0  0  0  0  0  0  0  0  0
  148.7596  133.4402  161.8708 H   0  0  0  0  0  0  0  0  0  0  0  0
  147.4616  132.5276  161.1045 H   0  0  0  0  0  0  0  0  0  0  0  0
  147.1130  135.1266  162.6968 H   0  0  0  0  0  0  0  0  0  0  0  0
  145.1319  133.6530  162.9349 H   0  0  0  0  0  0  0  0  0  0  0  0
  145.0004  133.5151  161.1837 H   0  0  0  0  0  0  0  0  0  0  0  0
  144.7421  135.0709  161.9706 H   0  0  0  0  0  0  0  0  0  0  0  0
  146.9145  134.6767  159.7582 H   0  0  0  0  0  0  0  0  0  0  0  0
  147.6909  136.1565  158.4022 H   0  0  0  0  0  0  0  0  0  0  0  0
  146.7482  137.5719  158.8217 H   0  0  0  0  0  0  0  0  0  0  0  0
  148.8323  138.7257  159.6234 H   0  0  0  0  0  0  0  0  0  0  0  0
  149.8027  137.3494  159.1508 H   0  0  0  0  0  0  0  0  0  0  0  0
  146.9574  138.1851  157.0623 H   0  0  0  0  0  0  0  0  0  0  0  0
  147.3315  139.7700  157.7170 H   0  0  0  0  0  0  0  0  0  0  0  0
  148.0975  138.7392  154.9221 H   0  0  0  0  0  0  0  0  0  0  0  0
  146.8922  139.9589  155.2878 H   0  0  0  0  0  0  0  0  0  0  0  0
  150.3951  139.2596  155.2975 H   0  0  0  0  0  0  0  0  0  0  0  0
  152.0697  140.9772  156.2712 H   0  0  0  0  0  0  0  0  0  0  0  0
  151.3119  141.4073  154.7676 H   0  0  0  0  0  0  0  0  0  0  0  0
  149.8628  142.9605  155.9443 H   0  0  0  0  0  0  0  0  0  0  0  0
  152.6641  141.4772  158.0305 H   0  0  0  0  0  0  0  0  0  0  0  0
  153.4311  142.6281  160.1104 H   0  0  0  0  0  0  0  0  0  0  0  0
  152.3043  144.7763  160.7598 H   0  0  0  0  0  0  0  0  0  0  0  0
  149.8178  140.3458  158.1152 H   0  0  0  0  0  0  0  0  0  0  0  0
  151.0130  139.1290  157.7102 H   0  0  0  0  0  0  0  0  0  0  0  0
  149.2619  137.7239  156.9309 H   0  0  0  0  0  0  0  0  0  0  0  0
  149.8604  144.5831  157.4783 H   0  0  0  0  0  0  0  0  0  0  0  0
  1  2  1  0  0  0  0
  1 23  1  0  0  0  0
  1 24  1  0  0  0  0
  1 25  1  0  0  0  0
  2  3  1  0  0  0  0
  2  4  1  0  0  0  0
  2 26  1  0  0  0  0
  3 27  1  0  0  0  0
  3 28  1  0  0  0  0
  3 29  1  0  0  0  0
  4  5  1  0  0  0  0
  4 30  1  0  0  0  0
  5  6  2  0  0  0  0
  5  7  1  0  0  0  0
  7  8  1  0  0  0  0
  7 31  1  0  0  0  0
  7 32  1  0  0  0  0
  8  9  1  0  0  0  0
  8 33  1  0  0  0  0
  8 34  1  0  0  0  0
  9 22  1  0  0  0  0
  9 10  1  0  0  0  0
  9 48  1  0  0  0  0
 10 11  1  0  0  0  0
 10 35  1  0  0  0  0
 10 36  1  0  0  0  0
 11 12  1  0  0  0  0
 11 37  1  0  0  0  0
 11 38  1  0  0  0  0
 12 13  1  0  0  0  0
 13 14  1  0  0  0  0
 13 22  1  0  0  0  0
 13 39  1  0  0  0  0
 14 15  1  0  0  0  0
 14 40  1  0  0  0  0
 14 41  1  0  0  0  0
 15 16  1  0  0  0  0
 15 42  1  0  0  0  0
 16 21  1  0  0  0  0
 16 17  2  0  0  0  0
 17 18  1  0  0  0  0
 17 43  1  0  0  0  0
 18 19  2  0  0  0  0
 18 44  1  0  0  0  0
 19 20  1  0  0  0  0
 19 45  1  0  0  0  0
 20 21  2  0  0  0  0
 21 49  1  0  0  0  0
 22 46  1  0  0  0  0
 22 47  1  0  0  0  0
M  CHG  1   9   1
M  CHG  1  21   1
M  END
> <s_m_source_file>
AV-unprocessed.smi

> <i_m_source_file_index>
652

> <i_lp_mmshare_version>
43012

> <i_f3d_flags>
0

> <s_epik_input>
W0NIM11bQ0hdKFtDSDNdKVtOSF1DKD1PKVtDSDJdW0NIMl1OMVtDSDJdW0NIMl1PW0NASF0oW0NIMl0xKVtDSDJdW05IXWMyW2NIXVtjSF1bY0hdbm4y

> <s_epik_cmdline>
J2VwaWtfcHl0aG9uJywgJy1waCcsICc3LjAnLCAnLXRuJywgJzgnLCAnLW1hJywgJzIwMCcsICctbWV0YWxfYmluZGluZycsICctaW1hZScsICc8aW5maWxlLm1hZT4nLCAnLW9tYWUnLCAnPG91dGZpbGUubWFlPic=

> <r_lp_tautomer_probability>
0.966961

> <r_epik_Ionization_Penalty>
2.79885

> <r_epik_Ionization_Penalty_Charging>
2.79884

> <r_epik_Ionization_Penalty_Neutral>
3.2567e-06

> <r_epik_State_Penalty>
2.43203

> <r_epik_Charging_Adjusted_Penalty>
5.23087

> <i_epik_Tot_Q>
2

> <i_epik_Tot_abs_Q>
2

> <r_epik_Metal_State_Penalty>
2.43963

> <b_epik_Metal_Only>
0

> <s_lp_Force_Field>
OPLS_2005

> <r_lp_Energy>
31.8116

> <b_lp_Chiralities_Consistent>
1

> <s_lp_Variant>
AV-unprocessed.smi:652-7

> <Gold.Version>
5.8.1

> <Gold.Id.Protein>
6NUR|6NUR_protein|mol2

> <Gold.PLP.Fitness>
48.9929

> <Gold.PLP.PLP>
-34.3981

> <Gold.PLP.part.hbond>
-4.0557

> <Gold.PLP.part.metal>
0.0000

> <Gold.PLP.part.buried>
-4.5091

> <Gold.PLP.part.nonpolar>
-24.7816

> <Gold.PLP.part.repulsive>
0.4405

> <Gold.PLP.ligand.clash>
0.1076

> <Gold.PLP.ligand.torsion>
0.5501

> <Gold.PLP.Chemscore.Hbond>
5.2427

> <Gold.PLP.Chemscore.CHOScore>
0.0000

> <Gold.PLP.Chemscore.Metal>
0.0000

> <Gold.Chemscore.Hbonds>
donor molecule, donor type, donor heavy atom, donor atom, acceptor molecule, acceptor atom, score
      L1  H    15    42       P1  8028  1.87
      L1  H    21    49       P1  8028  1.59
      P1  H  6931  6943       L1     6  1.00
      P1  H  6934  6947       L1     6  0.78

> <Gold.PLP.Chemscore.Internal.Correction>
0.0744

> <Gold.Rescore>
     Score         DG    S(hbond)    S(metal)    S(lipo)     H(rot)  DE(clash)    DE(int)     intcor
     17.43     -17.81       2.68        0.00      79.97       2.33       0.02       0.37       ----

> <Gold.Chemscore.Fitness>
17.4251

> <Gold.Chemscore.DG>
-17.8126

> <Gold.Chemscore.ZeroCoef>
-5.4800

> <Gold.Chemscore.Hbond>
2.6790

> <Gold.Chemscore.Metal>
0.0000

> <Gold.Chemscore.Lipo>
79.9665

> <Gold.Chemscore.Internal_Hbond>
0.0000

> <Gold.Chemscore.DEClash>
0.0185

> <Gold.Chemscore.DEInternal>
0.3690

> <Gold.Chemscore.Rot>
2.3326

> <Gold.Chemscore.Internal.Correction>
   9.000000E+99

> <Gold.Chemscore.Hbonds>
donor molecule, donor type, donor heavy atom, donor atom, acceptor molecule, acceptor atom, score
      L1  H    15    42       P1  8028  0.84
      L1  H    21    49       P1  8028  0.10
      P1  H  6931  6943       L1     6  0.94
      P1  H  6934  6947       L1     6  0.46

> <Gold.Chemscore.Hbond.Weighted>
-8.9479

> <Gold.Chemscore.Metal.Weighted>
-0.0000

> <Gold.Chemscore.Lipo.Weighted>
-9.3561

> <Gold.Chemscore.Internal_Hbond.Weighted>
0.0000

> <Gold.Chemscore.DEClash.Weighted>
0.0185

> <Gold.Chemscore.DEInternal.Weighted>
0.3690

> <Gold.Chemscore.Rot.Weighted>
5.9714

> <Gold.Chemscore.Internal.Correction.Weighted>
   9.000000E+99

> <Gold.Protein.RotatedTorsions>
[ 6907 6896 6895 6894 ] final   68.64 input  -60.11 | X-H torsion
[ 7974 7965 7964 7962 ] final -164.84 input  175.53 | X-H torsion
[ 8008 7997 7996 7995 ] final -155.74 input   59.86 | X-H torsion
[ 10167 10162 10161 10158 ] final  102.26 input  -65.29 | X-H torsion
[ 10718 10713 10712 10709 ] final -178.22 input   66.30 | X-H torsion
[ 10763 10752 10751 10750 ] final -110.23 input  -60.55 | X-H torsion
[ 11005 11000 10999 10996 ] final  -26.91 input  -57.11 | X-H torsion

> <Gold.Protein.ActiveResidues>
 VAL166  LYS551  ARG553  GLY616  TRP617  ASP618  TYR619  PRO620  LYS621  CYS622 
 ASP623  PHE694  ASN695  SER759  ASP760  ASP761  ALA762  ILE779  LEU786  VAL792 
 PHE793  MET794  SER795  GLU796  ALA797  LYS798  CYS799  TRP800  GLU811  SER814 

> <Gold.Protein.RotatedAtoms>
  152.4634  134.5132  159.9759 H   0  0  0  0  0  0  0  0  0  0  0  0  # atno 6907 bound_to 6896
  151.5176  133.3467  159.2903 H   0  0  0  0  0  0  0  0  0  0  0  0  # atno 6908 bound_to 6896
  150.8607  134.7987  159.7142 H   0  0  0  0  0  0  0  0  0  0  0  0  # atno 6909 bound_to 6896
  144.7286  140.2902  143.6222 H   0  0  0  0  0  0  0  0  0  0  0  0  # atno 7974 bound_to 7965
  155.7065  140.0773  157.2389 H   0  0  0  0  0  0  0  0  0  0  0  0  # atno 8008 bound_to 7997
  154.4065  140.1638  156.2302 H   0  0  0  0  0  0  0  0  0  0  0  0  # atno 8009 bound_to 7997
  155.9321  140.3390  155.6260 H   0  0  0  0  0  0  0  0  0  0  0  0  # atno 8010 bound_to 7997
  139.7366  144.7022  151.0640 H   0  0  0  0  0  0  0  0  0  0  0  0  # atno 10167 bound_to 10162
  156.8411  130.9687  151.3100 H   0  0  0  0  0  0  0  0  0  0  0  0  # atno 10718 bound_to 10713
  154.8236  135.4572  154.0853 H   0  0  0  0  0  0  0  0  0  0  0  0  # atno 10763 bound_to 10752
  153.2186  135.6891  153.8034 H   0  0  0  0  0  0  0  0  0  0  0  0  # atno 10764 bound_to 10752
  153.7459  135.3305  155.3289 H   0  0  0  0  0  0  0  0  0  0  0  0  # atno 10765 bound_to 10752
  140.9072  133.7485  156.0622 H   0  0  0  0  0  0  0  0  0  0  0  0  # atno 11005 bound_to 11000
  145.7863  139.1910  143.2129 LP  0  0  0  0  0  0  0  0  0  0  0  0  # atno 17320 bound_to 7965
  146.0793  140.7782  142.9649 LP  0  0  0  0  0  0  0  0  0  0  0  0  # atno 17321 bound_to 7965
  140.7779  143.4977  150.9812 LP  0  0  0  0  0  0  0  0  0  0  0  0  # atno 17342 bound_to 10162
  139.8665  143.7247  152.3170 LP  0  0  0  0  0  0  0  0  0  0  0  0  # atno 17343 bound_to 10162
  157.6355  130.8763  149.9351 LP  0  0  0  0  0  0  0  0  0  0  0  0  # atno 17370 bound_to 10713
  156.0880  130.3666  150.0450 LP  0  0  0  0  0  0  0  0  0  0  0  0  # atno 17371 bound_to 10713
  140.8156  134.3349  157.5398 LP  0  0  0  0  0  0  0  0  0  0  0  0  # atno 17394 bound_to 11000
  139.8751  134.9279  156.3438 LP  0  0  0  0  0  0  0  0  0  0  0  0  # atno 17395 bound_to 11000

$$$$
