AV-unprocessed.smi:102|AV-procd|sdf|966|dock5
  -GOLD-   2262017513D 1   1.00000     0.00000
 Structure written by MMmdl.
 43 44  0  0  0  0  0  0  0  0  2 V2000
  146.7006  135.3680  162.1482 C   0  0  0  0  0  0  0  0  0  0  0  0
  147.7745  135.7566  161.1407 C   0  0  0  0  0  0  0  0  0  0  0  0
  148.6979  136.5126  161.4431 O   0  0  0  0  0  0  0  0  0  0  0  0
  147.5788  135.1899  159.9433 O   0  0  0  0  0  0  0  0  0  0  0  0
  148.6040  135.2274  158.9623 C   0  0  0  0  0  0  0  0  0  0  0  0
  148.9547  136.6818  158.6082 C   0  0  1  0  0  0  0  0  0  0  0  0
  150.0104  137.1678  159.4181 O   0  0  0  0  0  0  0  0  0  0  0  0
  150.5548  138.2904  158.8017 C   0  0  1  0  0  0  0  0  0  0  0  0
  152.0202  138.3684  159.1615 N   0  0  0  0  0  0  0  0  0  0  0  0
  152.5378  137.4619  160.0690 C   0  0  0  0  0  0  0  0  0  0  0  0
  153.8468  137.4642  160.3934 C   0  0  0  0  0  0  0  0  0  0  0  0
  154.3178  136.5727  161.2825 F   0  0  0  0  0  0  0  0  0  0  0  0
  154.7438  138.4355  159.7703 C   0  0  0  0  0  0  0  0  0  0  0  0
  155.9343  138.4424  160.0793 O   0  0  0  0  0  0  0  0  0  0  0  0
  154.2127  139.3006  158.8589 N   0  5  0  0  0  0  0  0  0  0  0  0
  152.8905  139.2944  158.5180 C   0  0  0  0  0  0  0  0  0  0  0  0
  152.4166  140.0524  157.6727 O   0  0  0  0  0  0  0  0  0  0  0  0
  150.3122  138.1784  157.2837 C   0  0  2  0  0  0  0  0  0  0  0  0
  149.7120  139.3724  156.7983 O   0  0  0  0  0  0  0  0  0  0  0  0
  150.2058  139.9796  155.7048 C   0  0  0  0  0  0  0  0  0  0  0  0
  149.3566  141.1650  155.2660 C   0  0  0  0  0  0  0  0  0  0  0  0
  151.2172  139.6493  155.0855 O   0  0  0  0  0  0  0  0  0  0  0  0
  149.3588  136.9916  157.1560 C   0  0  1  0  0  0  0  0  0  0  0  0
  150.0475  135.9373  156.4924 O   0  0  0  0  0  0  0  0  0  0  0  0
  149.3909  134.8510  156.0508 C   0  0  0  0  0  0  0  0  0  0  0  0
  150.2974  133.9020  155.2789 C   0  0  0  0  0  0  0  0  0  0  0  0
  148.1999  134.5971  156.2307 O   0  0  0  0  0  0  0  0  0  0  0  0
  145.7439  135.2143  161.6481 H   0  0  0  0  0  0  0  0  0  0  0  0
  146.5769  136.1526  162.8946 H   0  0  0  0  0  0  0  0  0  0  0  0
  146.9776  134.4446  162.6570 H   0  0  0  0  0  0  0  0  0  0  0  0
  149.4961  134.7124  159.3214 H   0  0  0  0  0  0  0  0  0  0  0  0
  148.2597  134.6996  158.0724 H   0  0  0  0  0  0  0  0  0  0  0  0
  148.0855  137.3004  158.8369 H   0  0  0  0  0  0  0  0  0  0  0  0
  150.0886  139.1793  159.2298 H   0  0  0  0  0  0  0  0  0  0  0  0
  151.8864  136.7361  160.5330 H   0  0  0  0  0  0  0  0  0  0  0  0
  151.2559  137.9934  156.7686 H   0  0  0  0  0  0  0  0  0  0  0  0
  149.1342  141.8100  156.1163 H   0  0  0  0  0  0  0  0  0  0  0  0
  148.4161  140.8173  154.8380 H   0  0  0  0  0  0  0  0  0  0  0  0
  149.8818  141.7541  154.5141 H   0  0  0  0  0  0  0  0  0  0  0  0
  148.4750  137.2795  156.5845 H   0  0  0  0  0  0  0  0  0  0  0  0
  151.3110  133.9295  155.6800 H   0  0  0  0  0  0  0  0  0  0  0  0
  150.3327  134.1871  154.2275 H   0  0  0  0  0  0  0  0  0  0  0  0
  149.9267  132.8793  155.3496 H   0  0  0  0  0  0  0  0  0  0  0  0
  1  2  1  0  0  0  0
  1 28  1  0  0  0  0
  1 29  1  0  0  0  0
  1 30  1  0  0  0  0
  2  3  2  0  0  0  0
  2  4  1  0  0  0  0
  4  5  1  0  0  0  0
  5  6  1  0  0  0  0
  5 31  1  0  0  0  0
  5 32  1  0  0  0  0
  6 23  1  0  0  0  0
  6  7  1  0  0  0  0
  6 33  1  0  0  0  0
  7  8  1  0  0  0  0
  8  9  1  0  0  0  0
  8 18  1  0  0  0  0
  8 34  1  0  0  0  0
  9 16  1  0  0  0  0
  9 10  1  0  0  0  0
 10 11  2  0  0  0  0
 10 35  1  0  0  0  0
 11 12  1  0  0  0  0
 11 13  1  0  0  0  0
 13 14  2  0  0  0  0
 13 15  1  0  0  0  0
 15 16  1  0  0  0  0
 16 17  2  0  0  0  0
 18 19  1  0  0  0  0
 18 23  1  0  0  0  0
 18 36  1  0  0  0  0
 19 20  1  0  0  0  0
 20 21  1  0  0  0  0
 20 22  2  0  0  0  0
 21 37  1  0  0  0  0
 21 38  1  0  0  0  0
 21 39  1  0  0  0  0
 23 24  1  0  0  0  0
 23 40  1  0  0  0  0
 24 25  1  0  0  0  0
 25 26  1  0  0  0  0
 25 27  2  0  0  0  0
 26 41  1  0  0  0  0
 26 42  1  0  0  0  0
 26 43  1  0  0  0  0
M  CHG  1  15  -1
M  END
> <s_m_source_file>
AV-unprocessed.smi

> <i_m_source_file_index>
102

> <i_lp_mmshare_version>
43012

> <i_f3d_flags>
0

> <s_epik_input>
W0NIM11DKD1PKU9bQ0gyXVtDQEBIXTFPW0NASF0oW0NAQEhdKE9DKD1PKVtDSDNdKVtDQEhdMU9DKD1PKVtDSDNdKW4yW2NIXWMoRiljKD1PKVtuSF1jMj1P

> <s_epik_cmdline>
J2VwaWtfcHl0aG9uJywgJy1waCcsICc3LjAnLCAnLXRuJywgJzgnLCAnLW1hJywgJzIwMCcsICctbWV0YWxfYmluZGluZycsICctaW1hZScsICc8aW5maWxlLm1hZT4nLCAnLW9tYWUnLCAnPG91dGZpbGUubWFlPic=

> <r_epik_Ionization_Penalty>
1.40304

> <r_epik_Ionization_Penalty_Charging>
1.43915e-08

> <r_epik_Ionization_Penalty_Neutral>
1.40304

> <r_epik_State_Penalty>
1.48536

> <r_epik_Charging_Adjusted_Penalty>
1.48536

> <i_epik_Tot_Q>
-1

> <i_epik_Tot_abs_Q>
1

> <r_epik_Metal_State_Penalty>
0.00663881

> <b_epik_Metal_Only>
0

> <s_epik_Chemistry_Notes>
This compound has an ester and may undergo hydrolysis at high or low pH. This compound contains an acetal/aminal-like group ( X-CH(R)-Y where X, Y are N, S, or O) that may be acid/base labile, releasing an aldehyde.

> <s_lp_Force_Field>
OPLS_2005

> <r_lp_Energy>
16.3749

> <b_lp_Chiralities_Consistent>
1

> <s_lp_Variant>
AV-unprocessed.smi:102-22

> <Gold.Version>
5.8.1

> <Gold.Id.Protein>
6NUR|6NUR_protein|mol2

> <Gold.PLP.Fitness>
41.5981

> <Gold.PLP.PLP>
-32.4959

> <Gold.PLP.part.hbond>
-4.6394

> <Gold.PLP.part.metal>
0.0000

> <Gold.PLP.part.buried>
-6.5403

> <Gold.PLP.part.nonpolar>
-22.6715

> <Gold.PLP.part.repulsive>
0.0656

> <Gold.PLP.ligand.clash>
0.0000

> <Gold.PLP.ligand.torsion>
1.5325

> <Gold.PLP.Chemscore.Hbond>
3.9913

> <Gold.PLP.Chemscore.CHOScore>
0.0000

> <Gold.PLP.Chemscore.Metal>
0.0000

> <Gold.Chemscore.Hbonds>
donor molecule, donor type, donor heavy atom, donor atom, acceptor molecule, acceptor atom, score
      P1  H  6931  6943       L1     3  1.00
      P1  H  7989  7998       L1    22  0.98
      P1  H  7997  8009       L1    15  2.00

> <Gold.PLP.Chemscore.Internal.Correction>
0.1935

> <Gold.Rescore>
     Score         DG    S(hbond)    S(metal)    S(lipo)     H(rot)  DE(clash)    DE(int)     intcor
      3.20      -9.01       2.70        0.00      40.60       4.00       0.45       5.36       ----

> <Gold.Chemscore.Fitness>
3.2039

> <Gold.Chemscore.DG>
-9.0117

> <Gold.Chemscore.ZeroCoef>
-5.4800

> <Gold.Chemscore.Hbond>
2.6972

> <Gold.Chemscore.Metal>
0.0000

> <Gold.Chemscore.Lipo>
40.6023

> <Gold.Chemscore.Internal_Hbond>
0.0000

> <Gold.Chemscore.DEClash>
0.4482

> <Gold.Chemscore.DEInternal>
5.3596

> <Gold.Chemscore.Rot>
3.9951

> <Gold.Chemscore.Internal.Correction>
   9.000000E+99

> <Gold.Chemscore.Hbonds>
donor molecule, donor type, donor heavy atom, donor atom, acceptor molecule, acceptor atom, score
      P1  H  6931  6943       L1     3  1.00
      P1  H  7989  7998       L1    22  0.80
      P1  H  7997  8009       L1    15  0.59

> <Gold.Chemscore.Hbond.Weighted>
-9.0087

> <Gold.Chemscore.Metal.Weighted>
-0.0000

> <Gold.Chemscore.Lipo.Weighted>
-4.7505

> <Gold.Chemscore.Internal_Hbond.Weighted>
0.0000

> <Gold.Chemscore.DEClash.Weighted>
0.4482

> <Gold.Chemscore.DEInternal.Weighted>
5.3596

> <Gold.Chemscore.Rot.Weighted>
10.2274

> <Gold.Chemscore.Internal.Correction.Weighted>
   9.000000E+99

> <Gold.Protein.RotatedTorsions>
[ 6907 6896 6895 6894 ] final  137.44 input  -60.11 | X-H torsion
[ 7974 7965 7964 7962 ] final  -59.83 input  175.53 | X-H torsion
[ 8008 7997 7996 7995 ] final  114.74 input   59.86 | X-H torsion
[ 10167 10162 10161 10158 ] final  -29.30 input  -65.29 | X-H torsion
[ 10718 10713 10712 10709 ] final  -30.31 input   66.30 | X-H torsion
[ 10763 10752 10751 10750 ] final -171.33 input  -60.55 | X-H torsion
[ 11005 11000 10999 10996 ] final  -16.30 input  -57.11 | X-H torsion

> <Gold.Protein.ActiveResidues>
 VAL166  LYS551  ARG553  GLY616  TRP617  ASP618  TYR619  PRO620  LYS621  CYS622 
 ASP623  PHE694  ASN695  SER759  ASP760  ASP761  ALA762  ILE779  LEU786  VAL792 
 PHE793  MET794  SER795  GLU796  ALA797  LYS798  CYS799  TRP800  GLU811  SER814 

> <Gold.Protein.RotatedAtoms>
  152.2780  133.5444  159.5479 H   0  0  0  0  0  0  0  0  0  0  0  0  # atno 6907 bound_to 6896
  150.7185  134.0604  159.3838 H   0  0  0  0  0  0  0  0  0  0  0  0  # atno 6908 bound_to 6896
  151.8516  135.0556  160.0510 H   0  0  0  0  0  0  0  0  0  0  0  0  # atno 6909 bound_to 6896
  145.8228  140.8529  143.0124 H   0  0  0  0  0  0  0  0  0  0  0  0  # atno 7974 bound_to 7965
  156.2339  140.2953  156.0262 H   0  0  0  0  0  0  0  0  0  0  0  0  # atno 8008 bound_to 7997
  155.2146  140.0413  157.2956 H   0  0  0  0  0  0  0  0  0  0  0  0  # atno 8009 bound_to 7997
  154.6045  140.2435  155.7757 H   0  0  0  0  0  0  0  0  0  0  0  0  # atno 8010 bound_to 7997
  140.7262  143.3939  151.1381 H   0  0  0  0  0  0  0  0  0  0  0  0  # atno 10167 bound_to 10162
  156.4014  130.4391  149.7319 H   0  0  0  0  0  0  0  0  0  0  0  0  # atno 10718 bound_to 10713
  154.6317  135.2887  155.0209 H   0  0  0  0  0  0  0  0  0  0  0  0  # atno 10763 bound_to 10752
  154.1367  135.6525  153.4937 H   0  0  0  0  0  0  0  0  0  0  0  0  # atno 10764 bound_to 10752
  153.0283  135.5323  154.7147 H   0  0  0  0  0  0  0  0  0  0  0  0  # atno 10765 bound_to 10752
  140.8053  133.8182  155.9510 H   0  0  0  0  0  0  0  0  0  0  0  0  # atno 11005 bound_to 11000
  144.6746  140.0558  143.7477 LP  0  0  0  0  0  0  0  0  0  0  0  0  # atno 17320 bound_to 7965
  145.9656  139.2832  143.1129 LP  0  0  0  0  0  0  0  0  0  0  0  0  # atno 17321 bound_to 7965
  139.7549  143.8723  152.3086 LP  0  0  0  0  0  0  0  0  0  0  0  0  # atno 17342 bound_to 10162
  139.8589  144.7127  150.9124 LP  0  0  0  0  0  0  0  0  0  0  0  0  # atno 17343 bound_to 10162
  156.4334  130.7826  151.2846 LP  0  0  0  0  0  0  0  0  0  0  0  0  # atno 17370 bound_to 10713
  157.7504  131.0147  150.3474 LP  0  0  0  0  0  0  0  0  0  0  0  0  # atno 17371 bound_to 10713
  140.9253  134.2091  157.4900 LP  0  0  0  0  0  0  0  0  0  0  0  0  # atno 17394 bound_to 11000
  139.8718  134.9809  156.5097 LP  0  0  0  0  0  0  0  0  0  0  0  0  # atno 17395 bound_to 11000

$$$$
