AV-unprocessed.smi:1793|AV-procd|sdf|7227|dock3
  -GOLD-   22720 8473D 1   1.00000     0.00000
 Structure written by MMmdl.
 46 48  0  0  0  0  0  0  0  0  1 V2000
  144.3963  134.7232  152.9880 C   0  0  0  0  0  0  0  0  0  0  0  0
  145.4974  134.4578  151.9493 C   0  0  1  0  0  0  0  0  0  0  0  0
  146.8152  134.6393  152.5539 N   0  0  0  0  0  0  0  0  0  0  0  0
  147.3586  133.8570  153.4958 C   0  0  0  0  0  0  0  0  0  0  0  0
  146.8015  132.8662  153.9688 O   0  0  0  0  0  0  0  0  0  0  0  0
  148.5843  134.2899  153.8314 N   0  0  0  0  0  0  0  0  0  0  0  0
  149.5036  133.6877  154.7344 C   0  0  0  0  0  0  0  0  0  0  0  0
  149.6749  132.2829  154.7801 C   0  0  0  0  0  0  0  0  0  0  0  0
  150.5403  131.7251  155.7365 C   0  0  0  0  0  0  0  0  0  0  0  0
  151.1938  132.5931  156.6269 C   0  0  0  0  0  0  0  0  0  0  0  0
  151.0307  133.9311  156.6052 N   0  0  0  0  0  0  0  0  0  0  0  0
  150.2106  134.4862  155.6787 C   0  0  0  0  0  0  0  0  0  0  0  0
  150.0930  135.8955  155.6916 N   0  0  0  0  0  0  0  0  0  0  0  0
  150.8274  136.7103  154.7290 C   0  0  0  0  0  0  0  0  0  0  0  0
  150.1598  138.0817  154.7793 C   0  0  0  0  0  0  0  0  0  0  0  0
  148.6964  137.7219  155.0146 C   0  0  0  0  0  0  0  0  0  0  0  0
  148.7703  136.4768  155.9040 C   0  0  0  0  0  0  0  0  0  0  0  0
  145.3866  133.0509  151.3289 C   0  0  1  0  0  0  0  0  0  0  0  0
  144.0673  132.7807  150.5825 C   0  0  0  0  0  0  0  0  0  0  0  0
  144.5026  132.4207  149.1733 C   0  0  0  0  0  0  0  0  0  0  0  0
  145.9387  131.9597  149.3746 C   0  0  0  0  0  0  0  0  0  0  0  0
  146.4183  132.8536  150.3644 O   0  0  0  0  0  0  0  0  0  0  0  0
  143.4062  134.6027  152.5481 H   0  0  0  0  0  0  0  0  0  0  0  0
  144.4601  135.7395  153.3782 H   0  0  0  0  0  0  0  0  0  0  0  0
  144.4709  134.0375  153.8325 H   0  0  0  0  0  0  0  0  0  0  0  0
  145.3709  135.1788  151.1398 H   0  0  0  0  0  0  0  0  0  0  0  0
  147.3527  135.4283  152.2256 H   0  0  0  0  0  0  0  0  0  0  0  0
  148.9489  135.0605  153.2908 H   0  0  0  0  0  0  0  0  0  0  0  0
  149.1388  131.6257  154.1124 H   0  0  0  0  0  0  0  0  0  0  0  0
  150.6891  130.6570  155.7937 H   0  0  0  0  0  0  0  0  0  0  0  0
  151.8615  132.2031  157.3809 H   0  0  0  0  0  0  0  0  0  0  0  0
  151.8867  136.7652  154.9807 H   0  0  0  0  0  0  0  0  0  0  0  0
  150.7337  136.2996  153.7229 H   0  0  0  0  0  0  0  0  0  0  0  0
  150.5436  138.6544  155.6245 H   0  0  0  0  0  0  0  0  0  0  0  0
  150.3175  138.6652  153.8719 H   0  0  0  0  0  0  0  0  0  0  0  0
  148.1241  138.5323  155.4668 H   0  0  0  0  0  0  0  0  0  0  0  0
  148.2252  137.4663  154.0647 H   0  0  0  0  0  0  0  0  0  0  0  0
  147.9680  135.7742  155.6743 H   0  0  0  0  0  0  0  0  0  0  0  0
  148.6784  136.7648  156.9513 H   0  0  0  0  0  0  0  0  0  0  0  0
  145.5062  132.2964  152.1081 H   0  0  0  0  0  0  0  0  0  0  0  0
  143.5453  131.9424  151.0451 H   0  0  0  0  0  0  0  0  0  0  0  0
  143.3847  133.6314  150.5860 H   0  0  0  0  0  0  0  0  0  0  0  0
  143.8715  131.6618  148.7102 H   0  0  0  0  0  0  0  0  0  0  0  0
  144.4862  133.3102  148.5422 H   0  0  0  0  0  0  0  0  0  0  0  0
  145.9730  130.9373  149.7543 H   0  0  0  0  0  0  0  0  0  0  0  0
  146.5316  132.0124  148.4615 H   0  0  0  0  0  0  0  0  0  0  0  0
  1  2  1  0  0  0  0
  1 23  1  0  0  0  0
  1 24  1  0  0  0  0
  1 25  1  0  0  0  0
  2  3  1  0  0  0  0
  2 18  1  0  0  0  0
  2 26  1  0  0  0  0
  3  4  1  0  0  0  0
  3 27  1  0  0  0  0
  4  5  2  0  0  0  0
  4  6  1  0  0  0  0
  6  7  1  0  0  0  0
  6 28  1  0  0  0  0
  7 12  1  0  0  0  0
  7  8  2  0  0  0  0
  8  9  1  0  0  0  0
  8 29  1  0  0  0  0
  9 10  2  0  0  0  0
  9 30  1  0  0  0  0
 10 11  1  0  0  0  0
 10 31  1  0  0  0  0
 11 12  2  0  0  0  0
 12 13  1  0  0  0  0
 13 17  1  0  0  0  0
 13 14  1  0  0  0  0
 14 15  1  0  0  0  0
 14 32  1  0  0  0  0
 14 33  1  0  0  0  0
 15 16  1  0  0  0  0
 15 34  1  0  0  0  0
 15 35  1  0  0  0  0
 16 17  1  0  0  0  0
 16 36  1  0  0  0  0
 16 37  1  0  0  0  0
 17 38  1  0  0  0  0
 17 39  1  0  0  0  0
 18 22  1  0  0  0  0
 18 19  1  0  0  0  0
 18 40  1  0  0  0  0
 19 20  1  0  0  0  0
 19 41  1  0  0  0  0
 19 42  1  0  0  0  0
 20 21  1  0  0  0  0
 20 43  1  0  0  0  0
 20 44  1  0  0  0  0
 21 22  1  0  0  0  0
 21 45  1  0  0  0  0
 21 46  1  0  0  0  0
M  END
> <s_m_source_file>
AV-unprocessed.smi

> <i_m_source_file_index>
1793

> <i_lp_mmshare_version>
43012

> <i_f3d_flags>
0

> <s_epik_input>
TzFbQ0gyXVtDSDJdW0NIMl1bQ0BIXTFbQ0BIXShbQ0gzXSlbTkhdQyg9TylbTkhdYzJbY0hdW2NIXVtjSF1uYzJOM1tDSDJdW0NIMl1bQ0gyXVtDSDJdMw==

> <s_epik_cmdline>
J2VwaWtfcHl0aG9uJywgJy1waCcsICc3LjAnLCAnLXRuJywgJzgnLCAnLW1hJywgJzIwMCcsICctbWV0YWxfYmluZGluZycsICctaW1hZScsICc8aW5maWxlLm1hZT4nLCAnLW9tYWUnLCAnPG91dGZpbGUubWFlPic=

> <r_lp_tautomer_probability>
1

> <r_epik_Ionization_Penalty>
0.0992086

> <r_epik_Ionization_Penalty_Charging>
0

> <r_epik_Ionization_Penalty_Neutral>
0.0992086

> <r_epik_State_Penalty>
0.0887141

> <r_epik_Charging_Adjusted_Penalty>
0.0887141

> <i_epik_Tot_Q>
0

> <i_epik_Tot_abs_Q>
0

> <r_epik_Metal_State_Penalty>
0.075945

> <b_epik_Metal_Only>
0

> <s_lp_Force_Field>
OPLS_2005

> <r_lp_Energy>
46.9131

> <b_lp_Chiralities_Consistent>
1

> <s_lp_Variant>
AV-unprocessed.smi:1793-4

> <Gold.Version>
5.8.1

> <Gold.Id.Protein>
6NUR|6NUR_protein|mol2

> <Gold.PLP.Fitness>
40.6411

> <Gold.PLP.PLP>
-35.5689

> <Gold.PLP.part.hbond>
-2.0000

> <Gold.PLP.part.metal>
0.0000

> <Gold.PLP.part.buried>
-6.3909

> <Gold.PLP.part.nonpolar>
-28.1959

> <Gold.PLP.part.repulsive>
0.3716

> <Gold.PLP.ligand.clash>
0.0000

> <Gold.PLP.ligand.torsion>
0.6422

> <Gold.PLP.Chemscore.Hbond>
2.0000

> <Gold.PLP.Chemscore.CHOScore>
0.0000

> <Gold.PLP.Chemscore.Metal>
0.0000

> <Gold.Chemscore.Hbonds>
donor molecule, donor type, donor heavy atom, donor atom, acceptor molecule, acceptor atom, score
      L1  H     3    27       P1  7948  1.00
      L1  H     6    28       P1  7948  1.00

> <Gold.PLP.Chemscore.Internal.Correction>
0.3565

> <Gold.Rescore>
     Score         DG    S(hbond)    S(metal)    S(lipo)     H(rot)  DE(clash)    DE(int)     intcor
     14.54     -17.08       1.61        0.00      82.95       1.36       0.05       2.50       ----

> <Gold.Chemscore.Fitness>
14.5368

> <Gold.Chemscore.DG>
-17.0810

> <Gold.Chemscore.ZeroCoef>
-5.4800

> <Gold.Chemscore.Hbond>
1.6087

> <Gold.Chemscore.Metal>
0.0000

> <Gold.Chemscore.Lipo>
82.9496

> <Gold.Chemscore.Internal_Hbond>
0.0000

> <Gold.Chemscore.DEClash>
0.0491

> <Gold.Chemscore.DEInternal>
2.4950

> <Gold.Chemscore.Rot>
1.3582

> <Gold.Chemscore.Internal.Correction>
   9.000000E+99

> <Gold.Chemscore.Hbonds>
donor molecule, donor type, donor heavy atom, donor atom, acceptor molecule, acceptor atom, score
      L1  H     3    27       P1  7948  0.94
      L1  H     6    28       P1  7948  0.34

> <Gold.Chemscore.Hbond.Weighted>
-5.3729

> <Gold.Chemscore.Metal.Weighted>
-0.0000

> <Gold.Chemscore.Lipo.Weighted>
-9.7051

> <Gold.Chemscore.Internal_Hbond.Weighted>
0.0000

> <Gold.Chemscore.DEClash.Weighted>
0.0491

> <Gold.Chemscore.DEInternal.Weighted>
2.4950

> <Gold.Chemscore.Rot.Weighted>
3.4771

> <Gold.Chemscore.Internal.Correction.Weighted>
   9.000000E+99

> <Gold.Protein.RotatedTorsions>
[ 6907 6896 6895 6894 ] final   79.44 input  -60.11 | X-H torsion
[ 7974 7965 7964 7962 ] final   90.98 input  175.53 | X-H torsion
[ 8008 7997 7996 7995 ] final  120.80 input   59.86 | X-H torsion
[ 10167 10162 10161 10158 ] final   22.83 input  -65.29 | X-H torsion
[ 10718 10713 10712 10709 ] final   95.47 input   66.30 | X-H torsion
[ 10763 10752 10751 10750 ] final -103.85 input  -60.55 | X-H torsion
[ 11005 11000 10999 10996 ] final  165.61 input  -57.11 | X-H torsion

> <Gold.Protein.ActiveResidues>
 VAL166  LYS551  ARG553  GLY616  TRP617  ASP618  TYR619  PRO620  LYS621  CYS622 
 ASP623  PHE694  ASN695  SER759  ASP760  ASP761  ALA762  ILE779  LEU786  VAL792 
 PHE793  MET794  SER795  GLU796  ALA797  LYS798  CYS799  TRP800  GLU811  SER814 

> <Gold.Protein.RotatedAtoms>
  152.5198  134.3511  159.9251 H   0  0  0  0  0  0  0  0  0  0  0  0  # atno 6907 bound_to 6896
  151.3462  133.3937  159.2683 H   0  0  0  0  0  0  0  0  0  0  0  0  # atno 6908 bound_to 6896
  150.9764  134.9146  159.7876 H   0  0  0  0  0  0  0  0  0  0  0  0  # atno 6909 bound_to 6896
  145.5118  139.2277  143.2720 H   0  0  0  0  0  0  0  0  0  0  0  0  # atno 7974 bound_to 7965
  156.2659  140.2822  156.1207 H   0  0  0  0  0  0  0  0  0  0  0  0  # atno 8008 bound_to 7997
  155.1158  140.0391  157.2754 H   0  0  0  0  0  0  0  0  0  0  0  0  # atno 8009 bound_to 7997
  154.6707  140.2587  155.7016 H   0  0  0  0  0  0  0  0  0  0  0  0  # atno 8010 bound_to 7997
  140.5317  143.9830  150.6469 H   0  0  0  0  0  0  0  0  0  0  0  0  # atno 10167 bound_to 10162
  157.6938  131.0546  150.4343 H   0  0  0  0  0  0  0  0  0  0  0  0  # atno 10718 bound_to 10713
  154.7837  135.4808  153.9899 H   0  0  0  0  0  0  0  0  0  0  0  0  # atno 10763 bound_to 10752
  153.1529  135.6794  153.8862 H   0  0  0  0  0  0  0  0  0  0  0  0  # atno 10764 bound_to 10752
  153.8500  135.3168  155.3410 H   0  0  0  0  0  0  0  0  0  0  0  0  # atno 10765 bound_to 10752
  140.2579  134.7925  157.3563 H   0  0  0  0  0  0  0  0  0  0  0  0  # atno 11005 bound_to 11000
  146.2161  140.5925  142.9038 LP  0  0  0  0  0  0  0  0  0  0  0  0  # atno 17320 bound_to 7965
  144.7723  140.5664  143.6662 LP  0  0  0  0  0  0  0  0  0  0  0  0  # atno 17321 bound_to 7965
  140.3207  143.3139  152.0787 LP  0  0  0  0  0  0  0  0  0  0  0  0  # atno 17342 bound_to 10162
  139.4956  144.6576  151.6538 LP  0  0  0  0  0  0  0  0  0  0  0  0  # atno 17343 bound_to 10162
  156.4707  130.4052  149.6520 LP  0  0  0  0  0  0  0  0  0  0  0  0  # atno 17370 bound_to 10713
  156.3601  130.7477  151.2448 LP  0  0  0  0  0  0  0  0  0  0  0  0  # atno 17371 bound_to 10713
  140.1493  134.4870  155.7973 LP  0  0  0  0  0  0  0  0  0  0  0  0  # atno 17394 bound_to 11000
  141.2194  133.6856  156.7350 LP  0  0  0  0  0  0  0  0  0  0  0  0  # atno 17395 bound_to 11000

$$$$
