AV-unprocessed.smi:3263|AV-procd|sdf|12489|dock4
  -GOLD-   2272018393D 1   1.00000     0.00000
 Structure written by MMmdl.
 41 43  0  0  0  0  0  0  0  0  1 V2000
  151.3242  140.8484  155.4767 O   0  0  0  0  0  0  0  0  0  0  0  0
  150.5243  141.3666  156.2560 C   0  0  0  0  0  0  0  0  0  0  0  0
  150.9684  141.7655  157.6672 C   0  0  0  0  0  0  0  0  0  0  0  0
  151.0269  143.2971  157.8653 C   0  0  1  0  0  0  0  0  0  0  0  0
  150.1061  143.8537  158.9747 C   0  0  0  0  0  0  0  0  0  0  0  0
  151.0589  144.7416  159.7968 C   0  0  1  0  0  0  0  0  0  0  0  0
  151.9897  143.8419  160.6301 C   0  0  0  0  0  0  0  0  0  0  0  0
  152.9424  143.2657  159.5668 C   0  0  0  0  0  0  0  0  0  0  0  0
  152.4064  143.8785  158.2561 C   0  0  2  0  0  0  0  0  0  0  0  0
  152.0087  145.2740  158.7288 C   0  0  0  0  0  0  0  0  0  0  0  0
  149.2450  141.6179  155.9388 N   0  0  0  0  0  0  0  0  0  0  0  0
  148.6362  141.3502  154.6410 C   0  0  0  0  0  0  0  0  0  0  0  0
  147.2085  140.7985  154.7927 C   0  0  0  0  0  0  0  0  0  0  0  0
  146.1742  141.9021  154.9100 C   0  0  0  0  0  0  0  0  0  0  0  0
  145.9089  142.7602  153.8212 C   0  0  0  0  0  0  0  0  0  0  0  0
  144.9417  143.7712  153.9839 C   0  0  0  0  0  0  0  0  0  0  0  0
  144.2818  143.8854  155.2225 C   0  0  0  0  0  0  0  0  0  0  0  0
  144.6201  142.9802  156.2481 C   0  0  0  0  0  0  0  0  0  0  0  0
  145.5452  142.0070  156.1023 N   0  0  0  0  0  0  0  0  0  0  0  0
  150.2939  141.3103  158.3925 H   0  0  0  0  0  0  0  0  0  0  0  0
  151.9542  141.3348  157.8454 H   0  0  0  0  0  0  0  0  0  0  0  0
  150.7431  143.7697  156.9228 H   0  0  0  0  0  0  0  0  0  0  0  0
  149.2977  144.4426  158.5394 H   0  0  0  0  0  0  0  0  0  0  0  0
  149.6528  143.0727  159.5868 H   0  0  0  0  0  0  0  0  0  0  0  0
  150.5480  145.5050  160.3842 H   0  0  0  0  0  0  0  0  0  0  0  0
  152.5443  144.4273  161.3644 H   0  0  0  0  0  0  0  0  0  0  0  0
  151.4436  143.0639  161.1650 H   0  0  0  0  0  0  0  0  0  0  0  0
  153.9617  143.6070  159.7534 H   0  0  0  0  0  0  0  0  0  0  0  0
  152.9657  142.1770  159.5631 H   0  0  0  0  0  0  0  0  0  0  0  0
  153.1304  143.8648  157.4409 H   0  0  0  0  0  0  0  0  0  0  0  0
  151.5085  145.8683  157.9622 H   0  0  0  0  0  0  0  0  0  0  0  0
  152.8417  145.8484  159.1380 H   0  0  0  0  0  0  0  0  0  0  0  0
  148.6560  142.0419  156.6409 H   0  0  0  0  0  0  0  0  0  0  0  0
  148.6366  142.2558  154.0321 H   0  0  0  0  0  0  0  0  0  0  0  0
  149.2599  140.6245  154.1187 H   0  0  0  0  0  0  0  0  0  0  0  0
  146.9624  140.1657  153.9387 H   0  0  0  0  0  0  0  0  0  0  0  0
  147.1407  140.1599  155.6747 H   0  0  0  0  0  0  0  0  0  0  0  0
  146.4329  142.6486  152.8835 H   0  0  0  0  0  0  0  0  0  0  0  0
  144.7106  144.4470  153.1737 H   0  0  0  0  0  0  0  0  0  0  0  0
  143.5352  144.6487  155.3836 H   0  0  0  0  0  0  0  0  0  0  0  0
  144.1352  143.0398  157.2112 H   0  0  0  0  0  0  0  0  0  0  0  0
  1  2  2  0  0  0  0
  2  3  1  0  0  0  0
  2 11  1  0  0  0  0
  3  4  1  0  0  0  0
  3 20  1  0  0  0  0
  3 21  1  0  0  0  0
  4  9  1  0  0  0  0
  4  5  1  0  0  0  0
  4 22  1  0  0  0  0
  5  6  1  0  0  0  0
  5 23  1  0  0  0  0
  5 24  1  0  0  0  0
  6 10  1  0  0  0  0
  6  7  1  0  0  0  0
  6 25  1  0  0  0  0
  7  8  1  0  0  0  0
  7 26  1  0  0  0  0
  7 27  1  0  0  0  0
  8  9  1  0  0  0  0
  8 28  1  0  0  0  0
  8 29  1  0  0  0  0
  9 10  1  0  0  0  0
  9 30  1  0  0  0  0
 10 31  1  0  0  0  0
 10 32  1  0  0  0  0
 11 12  1  0  0  0  0
 11 33  1  0  0  0  0
 12 13  1  0  0  0  0
 12 34  1  0  0  0  0
 12 35  1  0  0  0  0
 13 14  1  0  0  0  0
 13 36  1  0  0  0  0
 13 37  1  0  0  0  0
 14 19  1  0  0  0  0
 14 15  2  0  0  0  0
 15 16  1  0  0  0  0
 15 38  1  0  0  0  0
 16 17  2  0  0  0  0
 16 39  1  0  0  0  0
 17 18  1  0  0  0  0
 17 40  1  0  0  0  0
 18 19  2  0  0  0  0
 18 41  1  0  0  0  0
M  END
> <s_m_source_file>
AV-unprocessed.smi

> <i_m_source_file_index>
3263

> <i_lp_mmshare_version>
43012

> <i_f3d_flags>
0

> <s_epik_input>
W0NIMl0xW0NIMl1bQ0BASF0oW0NIMl0yKVtDQEBIXShbQ0gyXVtDQEhdMTIpW0NIMl1DKD1PKVtOSF1bQ0gyXVtDSDJdYzNbY0hdW2NIXVtjSF1bY0hdbjM=

> <s_epik_cmdline>
J2VwaWtfcHl0aG9uJywgJy1waCcsICc3LjAnLCAnLXRuJywgJzgnLCAnLW1hJywgJzIwMCcsICctbWV0YWxfYmluZGluZycsICctaW1hZScsICc8aW5maWxlLm1hZT4nLCAnLW9tYWUnLCAnPG91dGZpbGUubWFlPic=

> <r_epik_Ionization_Penalty>
0.0273541

> <r_epik_Ionization_Penalty_Charging>
0

> <r_epik_Ionization_Penalty_Neutral>
0.0273541

> <r_epik_State_Penalty>
0.0223838

> <r_epik_Charging_Adjusted_Penalty>
0.0223838

> <i_epik_Tot_Q>
0

> <i_epik_Tot_abs_Q>
0

> <r_epik_Metal_State_Penalty>
0.0213927

> <b_epik_Metal_Only>
0

> <s_lp_Force_Field>
OPLS_2005

> <r_lp_Energy>
45.4659

> <b_lp_Chiralities_Consistent>
1

> <s_lp_Variant>
AV-unprocessed.smi:3263-4

> <Gold.Version>
5.8.1

> <Gold.Id.Protein>
6NUR|6NUR_protein|mol2

> <Gold.PLP.Fitness>
47.9257

> <Gold.PLP.PLP>
-48.0685

> <Gold.PLP.part.hbond>
-1.9640

> <Gold.PLP.part.metal>
0.0000

> <Gold.PLP.part.buried>
-7.6461

> <Gold.PLP.part.nonpolar>
-38.5085

> <Gold.PLP.part.repulsive>
0.2540

> <Gold.PLP.ligand.clash>
0.0000

> <Gold.PLP.ligand.torsion>
1.1727

> <Gold.PLP.Chemscore.Hbond>
0.7200

> <Gold.PLP.Chemscore.CHOScore>
0.0000

> <Gold.PLP.Chemscore.Metal>
0.0000

> <Gold.Chemscore.Hbonds>
donor molecule, donor type, donor heavy atom, donor atom, acceptor molecule, acceptor atom, score
      P1  H  7989  7998       L1     1  0.70

> <Gold.PLP.Chemscore.Internal.Correction>
0.0426

> <Gold.Rescore>
     Score         DG    S(hbond)    S(metal)    S(lipo)     H(rot)  DE(clash)    DE(int)     intcor
     17.54     -18.65       0.70        0.00     124.43       1.46       0.09       1.03       ----

> <Gold.Chemscore.Fitness>
17.5392

> <Gold.Chemscore.DG>
-18.6549

> <Gold.Chemscore.ZeroCoef>
-5.4800

> <Gold.Chemscore.Hbond>
0.7016

> <Gold.Chemscore.Metal>
0.0000

> <Gold.Chemscore.Lipo>
124.4251

> <Gold.Chemscore.Internal_Hbond>
0.0000

> <Gold.Chemscore.DEClash>
0.0872

> <Gold.Chemscore.DEInternal>
1.0285

> <Gold.Chemscore.Rot>
1.4555

> <Gold.Chemscore.Internal.Correction>
   9.000000E+99

> <Gold.Chemscore.Hbonds>
donor molecule, donor type, donor heavy atom, donor atom, acceptor molecule, acceptor atom, score
      P1  H  7989  7998       L1     1  0.68

> <Gold.Chemscore.Hbond.Weighted>
-2.3432

> <Gold.Chemscore.Metal.Weighted>
-0.0000

> <Gold.Chemscore.Lipo.Weighted>
-14.5577

> <Gold.Chemscore.Internal_Hbond.Weighted>
0.0000

> <Gold.Chemscore.DEClash.Weighted>
0.0872

> <Gold.Chemscore.DEInternal.Weighted>
1.0285

> <Gold.Chemscore.Rot.Weighted>
3.7260

> <Gold.Chemscore.Internal.Correction.Weighted>
   9.000000E+99

> <Gold.Protein.RotatedTorsions>
[ 6907 6896 6895 6894 ] final   52.92 input  -60.11 | X-H torsion
[ 7974 7965 7964 7962 ] final -168.88 input  175.53 | X-H torsion
[ 8008 7997 7996 7995 ] final  -45.78 input   59.86 | X-H torsion
[ 10167 10162 10161 10158 ] final  -53.42 input  -65.29 | X-H torsion
[ 10718 10713 10712 10709 ] final  150.27 input   66.30 | X-H torsion
[ 10763 10752 10751 10750 ] final -124.84 input  -60.55 | X-H torsion
[ 11005 11000 10999 10996 ] final   82.89 input  -57.11 | X-H torsion

> <Gold.Protein.ActiveResidues>
 VAL166  LYS551  ARG553  GLY616  TRP617  ASP618  TYR619  PRO620  LYS621  CYS622 
 ASP623  PHE694  ASN695  SER759  ASP760  ASP761  ALA762  ILE779  LEU786  VAL792 
 PHE793  MET794  SER795  GLU796  ALA797  LYS798  CYS799  TRP800  GLU811  SER814 

> <Gold.Protein.RotatedAtoms>
  152.3283  134.7292  160.0295 H   0  0  0  0  0  0  0  0  0  0  0  0  # atno 6907 bound_to 6896
  151.7717  133.3336  159.3454 H   0  0  0  0  0  0  0  0  0  0  0  0  # atno 6908 bound_to 6896
  150.7408  134.5944  159.6048 H   0  0  0  0  0  0  0  0  0  0  0  0  # atno 6909 bound_to 6896
  144.7195  140.2304  143.6305 H   0  0  0  0  0  0  0  0  0  0  0  0  # atno 7974 bound_to 7965
  154.4003  140.1388  156.3903 H   0  0  0  0  0  0  0  0  0  0  0  0  # atno 8008 bound_to 7997
  155.7920  140.3478  155.5334 H   0  0  0  0  0  0  0  0  0  0  0  0  # atno 8009 bound_to 7997
  155.8569  140.0950  157.1629 H   0  0  0  0  0  0  0  0  0  0  0  0  # atno 8010 bound_to 7997
  140.6485  143.2551  151.4790 H   0  0  0  0  0  0  0  0  0  0  0  0  # atno 10167 bound_to 10162
  157.2856  131.0844  151.1499 H   0  0  0  0  0  0  0  0  0  0  0  0  # atno 10718 bound_to 10713
  154.8728  135.4050  154.3170 H   0  0  0  0  0  0  0  0  0  0  0  0  # atno 10763 bound_to 10752
  153.4005  135.7018  153.6435 H   0  0  0  0  0  0  0  0  0  0  0  0  # atno 10764 bound_to 10752
  153.5180  135.3693  155.2589 H   0  0  0  0  0  0  0  0  0  0  0  0  # atno 10765 bound_to 10752
  139.9049  134.8104  156.2235 H   0  0  0  0  0  0  0  0  0  0  0  0  # atno 11005 bound_to 11000
  145.8416  139.2132  143.1824 LP  0  0  0  0  0  0  0  0  0  0  0  0  # atno 17320 bound_to 7965
  146.0341  140.8229  142.9861 LP  0  0  0  0  0  0  0  0  0  0  0  0  # atno 17321 bound_to 7965
  139.5698  144.1956  152.1819 LP  0  0  0  0  0  0  0  0  0  0  0  0  # atno 17342 bound_to 10162
  140.1248  144.5341  150.6839 LP  0  0  0  0  0  0  0  0  0  0  0  0  # atno 17343 bound_to 10162
  157.2916  130.6799  149.6117 LP  0  0  0  0  0  0  0  0  0  0  0  0  # atno 17370 bound_to 10713
  155.9665  130.4419  150.5359 LP  0  0  0  0  0  0  0  0  0  0  0  0  # atno 17371 bound_to 10713
  141.0391  133.6947  156.1565 LP  0  0  0  0  0  0  0  0  0  0  0  0  # atno 17394 bound_to 11000
  140.6983  134.4592  157.5587 LP  0  0  0  0  0  0  0  0  0  0  0  0  # atno 17395 bound_to 11000

$$$$
