AV-unprocessed.smi:667|AV-procd|sdf|3255|dock6
  -GOLD-   22720 0203D 1   1.00000     0.00000
 Structure written by MMmdl.
 48 49  0  0  0  0  0  0  0  0  1 V2000
  151.6997  138.1605  154.3136 C   0  0  0  0  0  0  0  0  0  0  0  0
  151.6516  139.1401  155.4513 C   0  0  0  0  0  0  0  0  0  0  0  0
  151.2088  140.3641  155.2190 N   0  0  0  0  0  0  0  0  0  0  0  0
  151.2705  140.9861  156.4129 N   0  0  0  0  0  0  0  0  0  0  0  0
  150.8387  142.3659  156.5200 C   0  0  0  0  0  0  0  0  0  0  0  0
  151.7581  140.1549  157.4017 C   0  0  0  0  0  0  0  0  0  0  0  0
  151.9128  140.6097  158.8172 C   0  0  0  0  0  0  0  0  0  0  0  0
  152.0142  138.9429  156.8175 C   0  0  0  0  0  0  0  0  0  0  0  0
  152.5263  137.6806  157.4662 C   0  0  0  0  0  0  0  0  0  0  0  0
  151.5779  137.3019  158.6019 C   0  0  0  0  0  0  0  0  0  0  0  0
  152.0207  137.0982  159.7318 O   0  0  0  0  0  0  0  0  0  0  0  0
  150.2720  137.2690  158.2944 N   0  0  0  0  0  0  0  0  0  0  0  0
  149.1770  137.1884  159.2562 C   0  0  0  0  0  0  0  0  0  0  0  0
  148.3978  135.8585  159.1465 C   0  0  2  0  0  0  0  0  0  0  0  0
  147.7481  135.6103  157.7966 C   0  0  0  0  0  0  0  0  0  0  0  0
  146.7123  134.5302  158.1142 C   0  0  0  0  0  0  0  0  0  0  0  0
  146.4644  134.6055  159.5163 O   0  0  0  0  0  0  0  0  0  0  0  0
  147.1801  135.7020  160.0717 C   0  0  1  0  0  0  0  0  0  0  0  0
  147.4740  135.4914  161.5731 C   0  0  0  0  0  0  0  0  0  0  0  0
  146.3934  134.6728  162.3007 C   0  0  0  0  0  0  0  0  0  0  0  0
  147.7034  136.8385  162.2753 C   0  0  0  0  0  0  0  0  0  0  0  0
  151.7977  137.1356  154.6703 H   0  0  0  0  0  0  0  0  0  0  0  0
  152.5464  138.3658  153.6587 H   0  0  0  0  0  0  0  0  0  0  0  0
  150.7914  138.2104  153.7119 H   0  0  0  0  0  0  0  0  0  0  0  0
  151.6576  142.9781  156.8982 H   0  0  0  0  0  0  0  0  0  0  0  0
  149.9957  142.4324  157.2081 H   0  0  0  0  0  0  0  0  0  0  0  0
  150.5305  142.7509  155.5469 H   0  0  0  0  0  0  0  0  0  0  0  0
  152.2736  139.8037  159.4559 H   0  0  0  0  0  0  0  0  0  0  0  0
  150.9597  140.9508  159.2213 H   0  0  0  0  0  0  0  0  0  0  0  0
  152.6235  141.4333  158.8839 H   0  0  0  0  0  0  0  0  0  0  0  0
  152.5923  136.8564  156.7553 H   0  0  0  0  0  0  0  0  0  0  0  0
  153.5316  137.8147  157.8668 H   0  0  0  0  0  0  0  0  0  0  0  0
  150.0148  137.4358  157.3323 H   0  0  0  0  0  0  0  0  0  0  0  0
  149.5967  137.2850  160.2577 H   0  0  0  0  0  0  0  0  0  0  0  0
  148.4880  138.0262  159.1392 H   0  0  0  0  0  0  0  0  0  0  0  0
  149.0959  135.0400  159.3220 H   0  0  0  0  0  0  0  0  0  0  0  0
  147.2420  136.5073  157.4390 H   0  0  0  0  0  0  0  0  0  0  0  0
  148.4602  135.2993  157.0319 H   0  0  0  0  0  0  0  0  0  0  0  0
  145.7920  134.6753  157.5474 H   0  0  0  0  0  0  0  0  0  0  0  0
  147.1000  133.5378  157.8828 H   0  0  0  0  0  0  0  0  0  0  0  0
  146.5318  136.5715  159.9603 H   0  0  0  0  0  0  0  0  0  0  0  0
  148.4097  134.9364  161.6496 H   0  0  0  0  0  0  0  0  0  0  0  0
  145.4159  135.1504  162.2292 H   0  0  0  0  0  0  0  0  0  0  0  0
  146.6322  134.5693  163.3594 H   0  0  0  0  0  0  0  0  0  0  0  0
  146.3056  133.6658  161.8953 H   0  0  0  0  0  0  0  0  0  0  0  0
  146.8070  137.4586  162.2480 H   0  0  0  0  0  0  0  0  0  0  0  0
  148.5080  137.3979  161.7984 H   0  0  0  0  0  0  0  0  0  0  0  0
  147.9791  136.6963  163.3205 H   0  0  0  0  0  0  0  0  0  0  0  0
  1  2  1  0  0  0  0
  1 22  1  0  0  0  0
  1 23  1  0  0  0  0
  1 24  1  0  0  0  0
  2  8  1  0  0  0  0
  2  3  2  0  0  0  0
  3  4  1  0  0  0  0
  4  5  1  0  0  0  0
  4  6  1  0  0  0  0
  5 25  1  0  0  0  0
  5 26  1  0  0  0  0
  5 27  1  0  0  0  0
  6  7  1  0  0  0  0
  6  8  2  0  0  0  0
  7 28  1  0  0  0  0
  7 29  1  0  0  0  0
  7 30  1  0  0  0  0
  8  9  1  0  0  0  0
  9 10  1  0  0  0  0
  9 31  1  0  0  0  0
  9 32  1  0  0  0  0
 10 11  2  0  0  0  0
 10 12  1  0  0  0  0
 12 13  1  0  0  0  0
 12 33  1  0  0  0  0
 13 14  1  0  0  0  0
 13 34  1  0  0  0  0
 13 35  1  0  0  0  0
 14 18  1  0  0  0  0
 14 15  1  0  0  0  0
 14 36  1  0  0  0  0
 15 16  1  0  0  0  0
 15 37  1  0  0  0  0
 15 38  1  0  0  0  0
 16 17  1  0  0  0  0
 16 39  1  0  0  0  0
 16 40  1  0  0  0  0
 17 18  1  0  0  0  0
 18 19  1  0  0  0  0
 18 41  1  0  0  0  0
 19 20  1  0  0  0  0
 19 21  1  0  0  0  0
 19 42  1  0  0  0  0
 20 43  1  0  0  0  0
 20 44  1  0  0  0  0
 20 45  1  0  0  0  0
 21 46  1  0  0  0  0
 21 47  1  0  0  0  0
 21 48  1  0  0  0  0
M  END
> <s_m_source_file>
AV-unprocessed.smi

> <i_m_source_file_index>
667

> <i_lp_mmshare_version>
43012

> <i_f3d_flags>
0

> <s_epik_input>
W0NIM11jMW5uKFtDSDNdKWMoW0NIM10pYzFbQ0gyXUMoPU8pW05IXVtDSDJdW0NAQEhdMltDSDJdW0NIMl1PW0NASF0yW0NIXShbQ0gzXSlbQ0gzXQ==

> <s_epik_cmdline>
J2VwaWtfcHl0aG9uJywgJy1waCcsICc3LjAnLCAnLXRuJywgJzgnLCAnLW1hJywgJzIwMCcsICctbWV0YWxfYmluZGluZycsICctaW1hZScsICc8aW5maWxlLm1hZT4nLCAnLW9tYWUnLCAnPG91dGZpbGUubWFlPic=

> <r_lp_tautomer_probability>
1

> <r_epik_Ionization_Penalty>
0.00315488

> <r_epik_Ionization_Penalty_Charging>
0

> <r_epik_Ionization_Penalty_Neutral>
0.00315488

> <r_epik_State_Penalty>
0.00222269

> <r_epik_Charging_Adjusted_Penalty>
0.00222269

> <i_epik_Tot_Q>
0

> <i_epik_Tot_abs_Q>
0

> <r_epik_Metal_State_Penalty>
-0

> <b_epik_Metal_Only>
0

> <s_lp_Force_Field>
OPLS_2005

> <r_lp_Energy>
14.51

> <b_lp_Chiralities_Consistent>
1

> <s_lp_Variant>
AV-unprocessed.smi:667-1

> <Gold.Version>
5.8.1

> <Gold.Id.Protein>
6NUR|6NUR_protein|mol2

> <Gold.PLP.Fitness>
39.2241

> <Gold.PLP.PLP>
-34.5651

> <Gold.PLP.part.hbond>
-2.0000

> <Gold.PLP.part.metal>
0.0000

> <Gold.PLP.part.buried>
-3.4761

> <Gold.PLP.part.nonpolar>
-29.7191

> <Gold.PLP.part.repulsive>
0.1504

> <Gold.PLP.ligand.clash>
0.0000

> <Gold.PLP.ligand.torsion>
0.6960

> <Gold.PLP.Chemscore.Hbond>
2.0000

> <Gold.PLP.Chemscore.CHOScore>
0.0000

> <Gold.PLP.Chemscore.Metal>
0.0000

> <Gold.Chemscore.Hbonds>
donor molecule, donor type, donor heavy atom, donor atom, acceptor molecule, acceptor atom, score
      P1  H  6896  6909       L1    11  1.00
      P1  H  7989  7998       L1     3  1.00

> <Gold.PLP.Chemscore.Internal.Correction>
0.0510

> <Gold.Rescore>
     Score         DG    S(hbond)    S(metal)    S(lipo)     H(rot)  DE(clash)    DE(int)     intcor
     17.09     -17.51       1.88        0.00      82.28       1.52       0.11       0.30       ----

> <Gold.Chemscore.Fitness>
17.0900

> <Gold.Chemscore.DG>
-17.5065

> <Gold.Chemscore.ZeroCoef>
-5.4800

> <Gold.Chemscore.Hbond>
1.8846

> <Gold.Chemscore.Metal>
0.0000

> <Gold.Chemscore.Lipo>
82.2788

> <Gold.Chemscore.Internal_Hbond>
0.0000

> <Gold.Chemscore.DEClash>
0.1117

> <Gold.Chemscore.DEInternal>
0.3048

> <Gold.Chemscore.Rot>
1.5213

> <Gold.Chemscore.Internal.Correction>
   9.000000E+99

> <Gold.Chemscore.Hbonds>
donor molecule, donor type, donor heavy atom, donor atom, acceptor molecule, acceptor atom, score
      P1  H  6896  6909       L1    11  0.49
      P1  H  7989  7998       L1     3  0.71

> <Gold.Chemscore.Hbond.Weighted>
-6.2944

> <Gold.Chemscore.Metal.Weighted>
-0.0000

> <Gold.Chemscore.Lipo.Weighted>
-9.6266

> <Gold.Chemscore.Internal_Hbond.Weighted>
0.0000

> <Gold.Chemscore.DEClash.Weighted>
0.1117

> <Gold.Chemscore.DEInternal.Weighted>
0.3048

> <Gold.Chemscore.Rot.Weighted>
3.8945

> <Gold.Chemscore.Internal.Correction.Weighted>
   9.000000E+99

> <Gold.Protein.RotatedTorsions>
[ 6907 6896 6895 6894 ] final  131.32 input  -60.11 | X-H torsion
[ 7974 7965 7964 7962 ] final   36.37 input  175.53 | X-H torsion
[ 8008 7997 7996 7995 ] final  -63.22 input   59.86 | X-H torsion
[ 10167 10162 10161 10158 ] final  -32.66 input  -65.29 | X-H torsion
[ 10718 10713 10712 10709 ] final -118.37 input   66.30 | X-H torsion
[ 10763 10752 10751 10750 ] final   39.65 input  -60.55 | X-H torsion
[ 11005 11000 10999 10996 ] final   95.10 input  -57.11 | X-H torsion

> <Gold.Protein.ActiveResidues>
 VAL166  LYS551  ARG553  GLY616  TRP617  ASP618  TYR619  PRO620  LYS621  CYS622 
 ASP623  PHE694  ASN695  SER759  ASP760  ASP761  ALA762  ILE779  LEU786  VAL792 
 PHE793  MET794  SER795  GLU796  ALA797  LYS798  CYS799  TRP800  GLU811  SER814 

> <Gold.Protein.RotatedAtoms>
  152.3438  133.6098  159.5894 H   0  0  0  0  0  0  0  0  0  0  0  0  # atno 6907 bound_to 6896
  150.7495  133.9681  159.3546 H   0  0  0  0  0  0  0  0  0  0  0  0  # atno 6908 bound_to 6896
  151.7542  135.0826  160.0386 H   0  0  0  0  0  0  0  0  0  0  0  0  # atno 6909 bound_to 6896
  146.1216  139.6026  142.9286 H   0  0  0  0  0  0  0  0  0  0  0  0  # atno 7974 bound_to 7965
  154.4542  140.0979  156.6709 H   0  0  0  0  0  0  0  0  0  0  0  0  # atno 8008 bound_to 7997
  155.5189  140.3478  155.4384 H   0  0  0  0  0  0  0  0  0  0  0  0  # atno 8009 bound_to 7997
  156.0744  140.1357  156.9778 H   0  0  0  0  0  0  0  0  0  0  0  0  # atno 8010 bound_to 7997
  140.7217  143.3678  151.1837 H   0  0  0  0  0  0  0  0  0  0  0  0  # atno 10167 bound_to 10162
  156.1101  130.6242  150.9282 H   0  0  0  0  0  0  0  0  0  0  0  0  # atno 10718 bound_to 10713
  152.9960  135.6214  154.2500 H   0  0  0  0  0  0  0  0  0  0  0  0  # atno 10763 bound_to 10752
  154.2239  135.2795  155.2916 H   0  0  0  0  0  0  0  0  0  0  0  0  # atno 10764 bound_to 10752
  154.5506  135.5734  153.6977 H   0  0  0  0  0  0  0  0  0  0  0  0  # atno 10765 bound_to 10752
  139.8792  134.8881  156.3961 H   0  0  0  0  0  0  0  0  0  0  0  0  # atno 11005 bound_to 11000
  145.5454  141.0417  143.2307 LP  0  0  0  0  0  0  0  0  0  0  0  0  # atno 17320 bound_to 7965
  144.7602  139.6975  143.7237 LP  0  0  0  0  0  0  0  0  0  0  0  0  # atno 17321 bound_to 7965
  139.7243  143.9174  152.2997 LP  0  0  0  0  0  0  0  0  0  0  0  0  # atno 17342 bound_to 10162
  139.8941  144.6949  150.8737 LP  0  0  0  0  0  0  0  0  0  0  0  0  # atno 17343 bound_to 10162
  157.6282  131.0923  150.8493 LP  0  0  0  0  0  0  0  0  0  0  0  0  # atno 17370 bound_to 10713
  156.8605  130.5111  149.5304 LP  0  0  0  0  0  0  0  0  0  0  0  0  # atno 17371 bound_to 10713
  140.9299  133.7586  156.0011 LP  0  0  0  0  0  0  0  0  0  0  0  0  # atno 17394 bound_to 11000
  140.8342  134.3142  157.5337 LP  0  0  0  0  0  0  0  0  0  0  0  0  # atno 17395 bound_to 11000

$$$$
