AV-unprocessed.smi:1788|AV-procd|sdf|7211|dock10
  -GOLD-   22720 8453D 1   1.00000     0.00000
 Structure written by MMmdl.
 55 57  0  0  0  0  0  0  0  0  2 V2000
  143.7409  132.7154  148.9571 C   0  0  0  0  0  0  0  0  0  0  0  0
  143.7560  133.0502  150.4590 C   0  0  1  0  0  0  0  0  0  0  0  0
  144.7601  132.1932  151.2522 C   0  0  0  0  0  0  0  0  0  0  0  0
  146.2047  132.6423  150.9909 C   0  0  0  0  0  0  0  0  0  0  0  0
  146.3691  134.1488  151.2463 C   0  0  0  0  0  0  0  0  0  0  0  0
  145.4099  134.9387  150.4317 N   0  3  2  0  0  0  0  0  0  0  0  0
  145.6468  136.3998  150.5445 C   0  0  0  0  0  0  0  0  0  0  0  0
  145.6111  136.8881  152.0059 C   0  0  0  0  0  0  0  0  0  0  0  0
  146.9300  137.3113  152.4622 N   0  0  0  0  0  0  0  0  0  0  0  0
  147.1562  138.0927  153.5279 C   0  0  0  0  0  0  0  0  0  0  0  0
  146.2579  138.5247  154.2499 O   0  0  0  0  0  0  0  0  0  0  0  0
  148.4708  138.3120  153.7019 N   0  0  0  0  0  0  0  0  0  0  0  0
  149.1149  139.0908  154.7014 C   0  0  0  0  0  0  0  0  0  0  0  0
  148.5108  139.4907  155.9160 C   0  0  0  0  0  0  0  0  0  0  0  0
  149.2498  140.2795  156.8182 C   0  0  0  0  0  0  0  0  0  0  0  0
  150.5715  140.6593  156.4860 C   0  0  0  0  0  0  0  0  0  0  0  0
  151.3279  141.4506  157.3775 N   0  0  0  0  0  0  0  0  0  0  0  0
  151.0845  142.8919  157.3901 C   0  0  0  0  0  0  0  0  0  0  0  0
  152.1812  143.6127  158.1921 C   0  0  0  0  0  0  0  0  0  0  0  0
  152.2592  143.0586  159.5014 O   0  0  0  0  0  0  0  0  0  0  0  0
  152.6055  141.6779  159.4716 C   0  0  0  0  0  0  0  0  0  0  0  0
  151.5289  140.8854  158.7096 C   0  0  0  0  0  0  0  0  0  0  0  0
  151.1448  140.2789  155.3179 N   0  0  0  0  0  0  0  0  0  0  0  0
  150.4324  139.5254  154.4548 C   0  0  0  0  0  0  0  0  0  0  0  0
  144.0016  134.5510  150.7189 C   0  0  0  0  0  0  0  0  0  0  0  0
  144.6925  132.9452  148.4779 H   0  0  0  0  0  0  0  0  0  0  0  0
  142.9670  133.2822  148.4385 H   0  0  0  0  0  0  0  0  0  0  0  0
  143.5343  131.6573  148.7941 H   0  0  0  0  0  0  0  0  0  0  0  0
  142.7600  132.8125  150.8351 H   0  0  0  0  0  0  0  0  0  0  0  0
  144.5470  132.2860  152.3180 H   0  0  0  0  0  0  0  0  0  0  0  0
  144.6406  131.1372  151.0086 H   0  0  0  0  0  0  0  0  0  0  0  0
  146.8871  132.0815  151.6302 H   0  0  0  0  0  0  0  0  0  0  0  0
  146.4883  132.4095  149.9640 H   0  0  0  0  0  0  0  0  0  0  0  0
  146.2201  134.3714  152.3042 H   0  0  0  0  0  0  0  0  0  0  0  0
  147.3912  134.4399  151.0015 H   0  0  0  0  0  0  0  0  0  0  0  0
  146.5935  136.6529  150.0644 H   0  0  0  0  0  0  0  0  0  0  0  0
  144.8719  136.9358  149.9940 H   0  0  0  0  0  0  0  0  0  0  0  0
  144.9333  137.7374  152.0963 H   0  0  0  0  0  0  0  0  0  0  0  0
  145.2328  136.1181  152.6789 H   0  0  0  0  0  0  0  0  0  0  0  0
  147.7244  136.9960  151.9242 H   0  0  0  0  0  0  0  0  0  0  0  0
  149.0902  137.8239  153.0714 H   0  0  0  0  0  0  0  0  0  0  0  0
  147.4980  139.2213  156.1712 H   0  0  0  0  0  0  0  0  0  0  0  0
  148.7989  140.5735  157.7541 H   0  0  0  0  0  0  0  0  0  0  0  0
  151.0672  143.2813  156.3712 H   0  0  0  0  0  0  0  0  0  0  0  0
  150.1073  143.0901  157.8327 H   0  0  0  0  0  0  0  0  0  0  0  0
  153.1475  143.5298  157.6915 H   0  0  0  0  0  0  0  0  0  0  0  0
  151.9526  144.6757  158.2689 H   0  0  0  0  0  0  0  0  0  0  0  0
  153.5852  141.5473  159.0088 H   0  0  0  0  0  0  0  0  0  0  0  0
  152.6862  141.3107  160.4948 H   0  0  0  0  0  0  0  0  0  0  0  0
  150.5840  140.9241  159.2533 H   0  0  0  0  0  0  0  0  0  0  0  0
  151.8256  139.8383  158.6646 H   0  0  0  0  0  0  0  0  0  0  0  0
  150.9362  139.2568  153.5376 H   0  0  0  0  0  0  0  0  0  0  0  0
  143.3088  135.1371  150.1160 H   0  0  0  0  0  0  0  0  0  0  0  0
  143.7748  134.7851  151.7605 H   0  0  0  0  0  0  0  0  0  0  0  0
  145.5934  134.6936  149.4693 H   0  0  0  0  0  0  0  0  0  0  0  0
  1  2  1  0  0  0  0
  1 26  1  0  0  0  0
  1 27  1  0  0  0  0
  1 28  1  0  0  0  0
  2 25  1  0  0  0  0
  2  3  1  0  0  0  0
  2 29  1  0  0  0  0
  3  4  1  0  0  0  0
  3 30  1  0  0  0  0
  3 31  1  0  0  0  0
  4  5  1  0  0  0  0
  4 32  1  0  0  0  0
  4 33  1  0  0  0  0
  5  6  1  0  0  0  0
  5 34  1  0  0  0  0
  5 35  1  0  0  0  0
  6  7  1  0  0  0  0
  6 25  1  0  0  0  0
  6 55  1  0  0  0  0
  7  8  1  0  0  0  0
  7 36  1  0  0  0  0
  7 37  1  0  0  0  0
  8  9  1  0  0  0  0
  8 38  1  0  0  0  0
  8 39  1  0  0  0  0
  9 10  1  0  0  0  0
  9 40  1  0  0  0  0
 10 11  2  0  0  0  0
 10 12  1  0  0  0  0
 12 13  1  0  0  0  0
 12 41  1  0  0  0  0
 13 24  1  0  0  0  0
 13 14  2  0  0  0  0
 14 15  1  0  0  0  0
 14 42  1  0  0  0  0
 15 16  2  0  0  0  0
 15 43  1  0  0  0  0
 16 17  1  0  0  0  0
 16 23  1  0  0  0  0
 17 22  1  0  0  0  0
 17 18  1  0  0  0  0
 18 19  1  0  0  0  0
 18 44  1  0  0  0  0
 18 45  1  0  0  0  0
 19 20  1  0  0  0  0
 19 46  1  0  0  0  0
 19 47  1  0  0  0  0
 20 21  1  0  0  0  0
 21 22  1  0  0  0  0
 21 48  1  0  0  0  0
 21 49  1  0  0  0  0
 22 50  1  0  0  0  0
 22 51  1  0  0  0  0
 23 24  2  0  0  0  0
 24 52  1  0  0  0  0
 25 53  1  0  0  0  0
 25 54  1  0  0  0  0
M  CHG  1   6   1
M  END
> <s_m_source_file>
AV-unprocessed.smi

> <i_m_source_file_index>
1788

> <i_lp_mmshare_version>
43012

> <i_f3d_flags>
0

> <s_epik_input>
W0NIM11bQ0BASF0xW0NIMl1bQ0gyXVtDSDJdTihbQ0gyXTEpW0NIMl1bQ0gyXVtOSF1DKD1PKVtOSF1jMltjSF1bY0hdYyhuW2NIXTIpTjNbQ0gyXVtDSDJdT1tDSDJdW0NIMl0z

> <s_epik_cmdline>
J2VwaWtfcHl0aG9uJywgJy1waCcsICc3LjAnLCAnLXRuJywgJzgnLCAnLW1hJywgJzIwMCcsICctbWV0YWxfYmluZGluZycsICctaW1hZScsICc8aW5maWxlLm1hZT4nLCAnLW9tYWUnLCAnPG91dGZpbGUubWFlPic=

> <r_lp_tautomer_probability>
1

> <r_epik_Ionization_Penalty>
0.00340126

> <r_epik_Ionization_Penalty_Charging>
0.00171832

> <r_epik_Ionization_Penalty_Neutral>
0.00168294

> <r_epik_State_Penalty>
-0

> <r_epik_Charging_Adjusted_Penalty>
0.00171832

> <i_epik_Tot_Q>
1

> <i_epik_Tot_abs_Q>
1

> <r_epik_Metal_State_Penalty>
-0

> <b_epik_Metal_Only>
0

> <s_lp_Force_Field>
OPLS_2005

> <r_lp_Energy>
36.4544

> <b_lp_Chiralities_Consistent>
1

> <s_lp_Variant>
AV-unprocessed.smi:1788-2

> <Gold.Version>
5.8.1

> <Gold.Id.Protein>
6NUR|6NUR_protein|mol2

> <Gold.PLP.Fitness>
51.5140

> <Gold.PLP.PLP>
-43.0955

> <Gold.PLP.part.hbond>
-3.8071

> <Gold.PLP.part.metal>
0.0000

> <Gold.PLP.part.buried>
-2.2121

> <Gold.PLP.part.nonpolar>
-37.2731

> <Gold.PLP.part.repulsive>
0.2996

> <Gold.PLP.ligand.clash>
0.0000

> <Gold.PLP.ligand.torsion>
0.8875

> <Gold.PLP.Chemscore.Hbond>
2.5001

> <Gold.PLP.Chemscore.CHOScore>
0.7703

> <Gold.PLP.Chemscore.Metal>
0.0000

> <Gold.Chemscore.Hbonds>
donor molecule, donor type, donor heavy atom, donor atom, acceptor molecule, acceptor atom, score
      L1  H     6    55       P1  7921  1.00
      L1  H     9    40       P1  7948  0.75
      L1  H    12    41       P1  7948  0.75
      L1  C    24    52       P1  7957  0.21

> <Gold.PLP.Chemscore.Internal.Correction>
0.3824

> <Gold.Rescore>
     Score         DG    S(hbond)    S(metal)    S(lipo)     H(rot)  DE(clash)    DE(int)     intcor
     19.96     -23.48       2.52        0.00     116.79       1.60       1.59       1.93       ----

> <Gold.Chemscore.Fitness>
19.9585

> <Gold.Chemscore.DG>
-23.4827

> <Gold.Chemscore.ZeroCoef>
-5.4800

> <Gold.Chemscore.Hbond>
2.5235

> <Gold.Chemscore.Metal>
0.0000

> <Gold.Chemscore.Lipo>
116.7873

> <Gold.Chemscore.Internal_Hbond>
0.0000

> <Gold.Chemscore.DEClash>
1.5925

> <Gold.Chemscore.DEInternal>
1.9316

> <Gold.Chemscore.Rot>
1.5976

> <Gold.Chemscore.Internal.Correction>
   9.000000E+99

> <Gold.Chemscore.Hbonds>
donor molecule, donor type, donor heavy atom, donor atom, acceptor molecule, acceptor atom, score
      L1  H     6    55       P1  7921  0.95
      L1  H     9    40       P1  7948  0.69
      L1  H    12    41       P1  7948  0.72

> <Gold.Chemscore.Hbond.Weighted>
-8.4285

> <Gold.Chemscore.Metal.Weighted>
-0.0000

> <Gold.Chemscore.Lipo.Weighted>
-13.6641

> <Gold.Chemscore.Internal_Hbond.Weighted>
0.0000

> <Gold.Chemscore.DEClash.Weighted>
1.5925

> <Gold.Chemscore.DEInternal.Weighted>
1.9316

> <Gold.Chemscore.Rot.Weighted>
4.0899

> <Gold.Chemscore.Internal.Correction.Weighted>
   9.000000E+99

> <Gold.Protein.RotatedTorsions>
[ 6907 6896 6895 6894 ] final  -38.43 input  -60.11 | X-H torsion
[ 7974 7965 7964 7962 ] final -123.43 input  175.53 | X-H torsion
[ 8008 7997 7996 7995 ] final  169.15 input   59.86 | X-H torsion
[ 10167 10162 10161 10158 ] final -155.73 input  -65.29 | X-H torsion
[ 10718 10713 10712 10709 ] final  156.18 input   66.30 | X-H torsion
[ 10763 10752 10751 10750 ] final  166.84 input  -60.55 | X-H torsion
[ 11005 11000 10999 10996 ] final   31.74 input  -57.11 | X-H torsion

> <Gold.Protein.ActiveResidues>
 VAL166  LYS551  ARG553  GLY616  TRP617  ASP618  TYR619  PRO620  LYS621  CYS622 
 ASP623  PHE694  ASN695  SER759  ASP760  ASP761  ALA762  ILE779  LEU786  VAL792 
 PHE793  MET794  SER795  GLU796  ALA797  LYS798  CYS799  TRP800  GLU811  SER814 

> <Gold.Protein.RotatedAtoms>
  151.0025  134.9333  159.7961 H   0  0  0  0  0  0  0  0  0  0  0  0  # atno 6907 bound_to 6896
  152.5281  134.3135  159.9132 H   0  0  0  0  0  0  0  0  0  0  0  0  # atno 6908 bound_to 6896
  151.3141  133.4026  159.2683 H   0  0  0  0  0  0  0  0  0  0  0  0  # atno 6909 bound_to 6896
  145.0187  140.7969  143.4394 H   0  0  0  0  0  0  0  0  0  0  0  0  # atno 7974 bound_to 7965
  156.1483  140.1572  156.8811 H   0  0  0  0  0  0  0  0  0  0  0  0  # atno 8008 bound_to 7997
  154.5048  140.0816  156.7909 H   0  0  0  0  0  0  0  0  0  0  0  0  # atno 8009 bound_to 7997
  155.3945  140.3411  155.4255 H   0  0  0  0  0  0  0  0  0  0  0  0  # atno 8010 bound_to 7997
  139.6908  143.9424  152.2384 H   0  0  0  0  0  0  0  0  0  0  0  0  # atno 10167 bound_to 10162
  157.2084  131.0692  151.1984 H   0  0  0  0  0  0  0  0  0  0  0  0  # atno 10718 bound_to 10713
  154.3450  135.2753  155.2402 H   0  0  0  0  0  0  0  0  0  0  0  0  # atno 10763 bound_to 10752
  154.4656  135.5896  153.6289 H   0  0  0  0  0  0  0  0  0  0  0  0  # atno 10764 bound_to 10752
  152.9854  135.6075  154.3655 H   0  0  0  0  0  0  0  0  0  0  0  0  # atno 10765 bound_to 10752
  140.2808  134.2975  155.7801 H   0  0  0  0  0  0  0  0  0  0  0  0  # atno 11005 bound_to 11000
  145.1924  139.2294  143.5235 LP  0  0  0  0  0  0  0  0  0  0  0  0  # atno 17320 bound_to 7965
  146.3482  140.1723  142.8589 LP  0  0  0  0  0  0  0  0  0  0  0  0  # atno 17321 bound_to 7965
  139.9240  144.6782  150.8432 LP  0  0  0  0  0  0  0  0  0  0  0  0  # atno 17342 bound_to 10162
  140.7682  143.3355  151.2318 LP  0  0  0  0  0  0  0  0  0  0  0  0  # atno 17343 bound_to 10162
  157.3697  130.7174  149.6556 LP  0  0  0  0  0  0  0  0  0  0  0  0  # atno 17370 bound_to 10713
  155.9693  130.4202  150.4412 LP  0  0  0  0  0  0  0  0  0  0  0  0  # atno 17371 bound_to 10713
  141.2163  133.7524  156.9477 LP  0  0  0  0  0  0  0  0  0  0  0  0  # atno 17394 bound_to 11000
  140.1285  134.9371  157.2304 LP  0  0  0  0  0  0  0  0  0  0  0  0  # atno 17395 bound_to 11000

$$$$
