AV-unprocessed.smi:1893|AV-procd|sdf|7676|dock3
  -GOLD-   22720 9413D 1   1.00000     0.00000
 Structure written by MMmdl.
 43 44  0  0  0  0  0  0  0  0  2 V2000
  146.3719  131.2109  154.2708 C   0  0  0  0  0  0  0  0  0  0  0  0
  147.0554  130.8516  152.9333 C   0  0  1  0  0  0  0  0  0  0  0  0
  146.1588  129.9761  152.0326 C   0  0  0  0  0  0  0  0  0  0  0  0
  145.0024  130.7773  151.4168 C   0  0  0  0  0  0  0  0  0  0  0  0
  145.5484  132.0055  150.6788 C   0  0  0  0  0  0  0  0  0  0  0  0
  146.4401  132.8572  151.5975 C   0  0  0  0  0  0  0  0  0  0  0  0
  147.5443  132.0440  152.1775 N   0  3  1  0  0  0  0  0  0  0  0  0
  148.5545  132.8446  152.9170 C   0  0  0  0  0  0  0  0  0  0  0  0
  147.9072  133.8727  153.8638 C   0  0  0  0  0  0  0  0  0  0  0  0
  148.7911  135.0063  154.1064 N   0  0  0  0  0  0  0  0  0  0  0  0
  149.5597  135.1619  155.1970 C   0  0  0  0  0  0  0  0  0  0  0  0
  149.5616  134.3569  156.1292 O   0  0  0  0  0  0  0  0  0  0  0  0
  150.4466  136.4194  155.2374 C   0  0  1  0  0  0  0  0  0  0  0  0
  149.6689  137.7170  154.9376 C   0  0  0  0  0  0  0  0  0  0  0  0
  151.1647  136.5060  156.5037 N   0  0  0  0  0  0  0  0  0  0  0  0
  150.7012  136.6513  157.7470 C   0  0  0  0  0  0  0  0  0  0  0  0
  151.6496  136.7286  158.6698 N   0  0  0  0  0  0  0  0  0  0  0  0
  152.7535  136.6203  157.8722 C   0  0  0  0  0  0  0  0  0  0  0  0
  152.5197  136.4925  156.5664 N   0  0  0  0  0  0  0  0  0  0  0  0
  146.0513  130.3090  154.7926 H   0  0  0  0  0  0  0  0  0  0  0  0
  145.4889  131.8341  154.1333 H   0  0  0  0  0  0  0  0  0  0  0  0
  147.0485  131.7396  154.9419 H   0  0  0  0  0  0  0  0  0  0  0  0
  147.9312  130.2488  153.1783 H   0  0  0  0  0  0  0  0  0  0  0  0
  146.7636  129.5526  151.2293 H   0  0  0  0  0  0  0  0  0  0  0  0
  145.7691  129.1270  152.5953 H   0  0  0  0  0  0  0  0  0  0  0  0
  144.4348  130.1488  150.7300 H   0  0  0  0  0  0  0  0  0  0  0  0
  144.3056  131.0905  152.1948 H   0  0  0  0  0  0  0  0  0  0  0  0
  146.1229  131.6833  149.8092 H   0  0  0  0  0  0  0  0  0  0  0  0
  144.7233  132.6074  150.2971 H   0  0  0  0  0  0  0  0  0  0  0  0
  146.8463  133.6830  151.0148 H   0  0  0  0  0  0  0  0  0  0  0  0
  145.8457  133.3071  152.3934 H   0  0  0  0  0  0  0  0  0  0  0  0
  149.2237  132.1826  153.4686 H   0  0  0  0  0  0  0  0  0  0  0  0
  149.1744  133.3828  152.1984 H   0  0  0  0  0  0  0  0  0  0  0  0
  146.9561  134.2216  153.4579 H   0  0  0  0  0  0  0  0  0  0  0  0
  147.6847  133.4256  154.8319 H   0  0  0  0  0  0  0  0  0  0  0  0
  148.8439  135.7099  153.3838 H   0  0  0  0  0  0  0  0  0  0  0  0
  151.1943  136.3007  154.4517 H   0  0  0  0  0  0  0  0  0  0  0  0
  149.1926  137.6751  153.9573 H   0  0  0  0  0  0  0  0  0  0  0  0
  150.3371  138.5788  154.9370 H   0  0  0  0  0  0  0  0  0  0  0  0
  148.8894  137.9050  155.6771 H   0  0  0  0  0  0  0  0  0  0  0  0
  149.6482  136.7059  157.9817 H   0  0  0  0  0  0  0  0  0  0  0  0
  153.7593  136.6418  158.2650 H   0  0  0  0  0  0  0  0  0  0  0  0
  148.0416  131.6586  151.3873 H   0  0  0  0  0  0  0  0  0  0  0  0
  1  2  1  0  0  0  0
  1 20  1  0  0  0  0
  1 21  1  0  0  0  0
  1 22  1  0  0  0  0
  2  7  1  0  0  0  0
  2  3  1  0  0  0  0
  2 23  1  0  0  0  0
  3  4  1  0  0  0  0
  3 24  1  0  0  0  0
  3 25  1  0  0  0  0
  4  5  1  0  0  0  0
  4 26  1  0  0  0  0
  4 27  1  0  0  0  0
  5  6  1  0  0  0  0
  5 28  1  0  0  0  0
  5 29  1  0  0  0  0
  6  7  1  0  0  0  0
  6 30  1  0  0  0  0
  6 31  1  0  0  0  0
  7  8  1  0  0  0  0
  7 43  1  0  0  0  0
  8  9  1  0  0  0  0
  8 32  1  0  0  0  0
  8 33  1  0  0  0  0
  9 10  1  0  0  0  0
  9 34  1  0  0  0  0
  9 35  1  0  0  0  0
 10 11  1  0  0  0  0
 10 36  1  0  0  0  0
 11 12  2  0  0  0  0
 11 13  1  0  0  0  0
 13 14  1  0  0  0  0
 13 15  1  0  0  0  0
 13 37  1  0  0  0  0
 14 38  1  0  0  0  0
 14 39  1  0  0  0  0
 14 40  1  0  0  0  0
 15 19  1  0  0  0  0
 15 16  1  0  0  0  0
 16 17  2  0  0  0  0
 16 41  1  0  0  0  0
 17 18  1  0  0  0  0
 18 19  2  0  0  0  0
 18 42  1  0  0  0  0
M  CHG  1   7   1
M  END
> <s_m_source_file>
AV-unprocessed.smi

> <i_m_source_file_index>
1893

> <i_lp_mmshare_version>
43012

> <i_f3d_flags>
0

> <s_epik_input>
W0NIM11bQ0BASF0xW0NIMl1bQ0gyXVtDSDJdW0NIMl1OMVtDSDJdW0NIMl1bTkhdQyg9TylbQ0BIXShbQ0gzXSluMltjSF1uW2NIXW4y

> <s_epik_cmdline>
J2VwaWtfcHl0aG9uJywgJy1waCcsICc3LjAnLCAnLXRuJywgJzgnLCAnLW1hJywgJzIwMCcsICctbWV0YWxfYmluZGluZycsICctaW1hZScsICc8aW5maWxlLm1hZT4nLCAnLW9tYWUnLCAnPG91dGZpbGUubWFlPic=

> <r_lp_tautomer_probability>
1

> <r_epik_Ionization_Penalty>
0.00266409

> <r_epik_Ionization_Penalty_Charging>
0.00265606

> <r_epik_Ionization_Penalty_Neutral>
8.02794e-06

> <r_epik_State_Penalty>
0.00184955

> <r_epik_Charging_Adjusted_Penalty>
0.00450561

> <i_epik_Tot_Q>
1

> <i_epik_Tot_abs_Q>
1

> <r_epik_Metal_State_Penalty>
-0

> <b_epik_Metal_Only>
0

> <s_lp_Force_Field>
OPLS_2005

> <r_lp_Energy>
24.9679

> <b_lp_Chiralities_Consistent>
1

> <s_lp_Variant>
AV-unprocessed.smi:1893-6

> <Gold.Version>
5.8.1

> <Gold.Id.Protein>
6NUR|6NUR_protein|mol2

> <Gold.PLP.Fitness>
39.2939

> <Gold.PLP.PLP>
-29.1448

> <Gold.PLP.part.hbond>
-3.9751

> <Gold.PLP.part.metal>
0.0000

> <Gold.PLP.part.buried>
-3.3749

> <Gold.PLP.part.nonpolar>
-21.3303

> <Gold.PLP.part.repulsive>
0.0177

> <Gold.PLP.ligand.clash>
0.0000

> <Gold.PLP.ligand.torsion>
0.6034

> <Gold.PLP.Chemscore.Hbond>
3.7296

> <Gold.PLP.Chemscore.CHOScore>
0.0000

> <Gold.PLP.Chemscore.Metal>
0.0000

> <Gold.Chemscore.Hbonds>
donor molecule, donor type, donor heavy atom, donor atom, acceptor molecule, acceptor atom, score
      L1  H     7    43       P1 10747  1.00
      L1  H    10    36       P1  7948  1.00
      P1  H  6896  6907       L1    17  0.80
      P1  H 10752 10763       L1    19  1.00

> <Gold.PLP.Chemscore.Internal.Correction>
0.1672

> <Gold.Rescore>
     Score         DG    S(hbond)    S(metal)    S(lipo)     H(rot)  DE(clash)    DE(int)     intcor
     17.07     -17.86       3.37        0.00      65.18       2.54       0.03       0.76       ----

> <Gold.Chemscore.Fitness>
17.0652

> <Gold.Chemscore.DG>
-17.8561

> <Gold.Chemscore.ZeroCoef>
-5.4800

> <Gold.Chemscore.Hbond>
3.3672

> <Gold.Chemscore.Metal>
0.0000

> <Gold.Chemscore.Lipo>
65.1828

> <Gold.Chemscore.Internal_Hbond>
0.0000

> <Gold.Chemscore.DEClash>
0.0266

> <Gold.Chemscore.DEInternal>
0.7644

> <Gold.Chemscore.Rot>
2.5377

> <Gold.Chemscore.Internal.Correction>
   9.000000E+99

> <Gold.Chemscore.Hbonds>
donor molecule, donor type, donor heavy atom, donor atom, acceptor molecule, acceptor atom, score
      L1  H     7    43       P1 10747  1.00
      L1  H    10    36       P1  7948  0.90
      P1  H  6896  6907       L1    17  0.43
      P1  H 10752 10763       L1    19  0.93

> <Gold.Chemscore.Hbond.Weighted>
-11.2463

> <Gold.Chemscore.Metal.Weighted>
-0.0000

> <Gold.Chemscore.Lipo.Weighted>
-7.6264

> <Gold.Chemscore.Internal_Hbond.Weighted>
0.0000

> <Gold.Chemscore.DEClash.Weighted>
0.0266

> <Gold.Chemscore.DEInternal.Weighted>
0.7644

> <Gold.Chemscore.Rot.Weighted>
6.4966

> <Gold.Chemscore.Internal.Correction.Weighted>
   9.000000E+99

> <Gold.Protein.RotatedTorsions>
[ 6907 6896 6895 6894 ] final   -6.86 input  -60.11 | X-H torsion
[ 7974 7965 7964 7962 ] final   81.85 input  175.53 | X-H torsion
[ 8008 7997 7996 7995 ] final  111.74 input   59.86 | X-H torsion
[ 10167 10162 10161 10158 ] final   16.01 input  -65.29 | X-H torsion
[ 10718 10713 10712 10709 ] final  124.15 input   66.30 | X-H torsion
[ 10763 10752 10751 10750 ] final  116.61 input  -60.55 | X-H torsion
[ 11005 11000 10999 10996 ] final -168.95 input  -57.11 | X-H torsion

> <Gold.Protein.ActiveResidues>
 VAL166  LYS551  ARG553  GLY616  TRP617  ASP618  TYR619  PRO620  LYS621  CYS622 
 ASP623  PHE694  ASN695  SER759  ASP760  ASP761  ALA762  ILE779  LEU786  VAL792 
 PHE793  MET794  SER795  GLU796  ALA797  LYS798  CYS799  TRP800  GLU811  SER814 

> <Gold.Protein.RotatedAtoms>
  151.4589  135.1036  159.9718 H   0  0  0  0  0  0  0  0  0  0  0  0  # atno 6907 bound_to 6896
  152.4860  133.8371  159.7144 H   0  0  0  0  0  0  0  0  0  0  0  0  # atno 6908 bound_to 6896
  150.8971  133.7107  159.2916 H   0  0  0  0  0  0  0  0  0  0  0  0  # atno 6909 bound_to 6896
  145.6327  139.2408  143.2075 H   0  0  0  0  0  0  0  0  0  0  0  0  # atno 7974 bound_to 7965
  156.2144  140.3013  155.9806 H   0  0  0  0  0  0  0  0  0  0  0  0  # atno 8008 bound_to 7997
  155.2642  140.0431  157.3017 H   0  0  0  0  0  0  0  0  0  0  0  0  # atno 8009 bound_to 7997
  154.5747  140.2358  155.8149 H   0  0  0  0  0  0  0  0  0  0  0  0  # atno 8010 bound_to 7997
  140.5828  143.8948  150.6804 H   0  0  0  0  0  0  0  0  0  0  0  0  # atno 10167 bound_to 10162
  157.5608  131.1089  150.8541 H   0  0  0  0  0  0  0  0  0  0  0  0  # atno 10718 bound_to 10713
  153.5398  135.3561  155.2713 H   0  0  0  0  0  0  0  0  0  0  0  0  # atno 10763 bound_to 10752
  154.8718  135.4088  154.3057 H   0  0  0  0  0  0  0  0  0  0  0  0  # atno 10764 bound_to 10752
  153.3762  135.7066  153.6668 H   0  0  0  0  0  0  0  0  0  0  0  0  # atno 10765 bound_to 10752
  140.5362  134.5567  157.5088 H   0  0  0  0  0  0  0  0  0  0  0  0  # atno 11005 bound_to 11000
  146.1344  140.7143  142.9397 LP  0  0  0  0  0  0  0  0  0  0  0  0  # atno 17320 bound_to 7965
  144.7187  140.4300  143.7024 LP  0  0  0  0  0  0  0  0  0  0  0  0  # atno 17321 bound_to 7965
  140.2452  143.3634  152.1453 LP  0  0  0  0  0  0  0  0  0  0  0  0  # atno 17342 bound_to 10162
  139.5179  144.6999  151.5524 LP  0  0  0  0  0  0  0  0  0  0  0  0  # atno 17343 bound_to 10162
  156.9039  130.5256  149.5282 LP  0  0  0  0  0  0  0  0  0  0  0  0  # atno 17370 bound_to 10713
  156.0661  130.5704  150.9291 LP  0  0  0  0  0  0  0  0  0  0  0  0  # atno 17371 bound_to 10713
  139.9528  134.7587  156.0410 LP  0  0  0  0  0  0  0  0  0  0  0  0  # atno 17394 bound_to 11000
  141.1253  133.6601  156.3321 LP  0  0  0  0  0  0  0  0  0  0  0  0  # atno 17395 bound_to 11000

$$$$
