AV-unprocessed.smi:2901|AV-procd|sdf|11149|dock7
  -GOLD-   2272016 23D 1   1.00000     0.00000
 Structure written by MMmdl.
 40 41  0  0  0  0  0  0  0  0  1 V2000
  149.3569  140.6991  154.4338 C   0  0  0  0  0  0  0  0  0  0  0  0
  148.1084  141.2493  155.0315 C   0  0  0  0  0  0  0  0  0  0  0  0
  147.6350  141.0333  156.2569 N   0  0  0  0  0  0  0  0  0  0  0  0
  146.4559  141.7633  156.3152 C   0  0  0  0  0  0  0  0  0  0  0  0
  145.6010  141.7963  157.5450 C   0  0  0  0  0  0  0  0  0  0  0  0
  145.1932  143.2286  157.9271 C   0  0  0  0  0  0  0  0  0  0  0  0
  146.3473  144.0314  158.3148 N   0  0  0  0  0  0  0  0  0  0  0  0
  147.1450  143.7718  159.3597 C   0  0  0  0  0  0  0  0  0  0  0  0
  147.0004  142.8121  160.1171 O   0  0  0  0  0  0  0  0  0  0  0  0
  148.1150  144.6873  159.4846 N   0  0  0  0  0  0  0  0  0  0  0  0
  149.1291  144.6915  160.5334 C   0  0  0  0  0  0  0  0  0  0  0  0
  150.5055  144.2442  160.0105 C   0  0  2  0  0  0  0  0  0  0  0  0
  151.5341  145.3665  159.8672 C   0  0  0  0  0  0  0  0  0  0  0  0
  152.4641  144.8633  158.7733 C   0  0  0  0  0  0  0  0  0  0  0  0
  151.7158  143.6767  158.1584 C   0  0  0  0  0  0  0  0  0  0  0  0
  150.3984  143.7568  158.6835 O   0  0  0  0  0  0  0  0  0  0  0  0
  146.2824  142.3915  155.1081 C   0  0  0  0  0  0  0  0  0  0  0  0
  145.2276  143.3011  154.5760 C   0  0  0  0  0  0  0  0  0  0  0  0
  147.3255  142.0708  154.2815 O   0  0  0  0  0  0  0  0  0  0  0  0
  149.9560  140.2022  155.1973 H   0  0  0  0  0  0  0  0  0  0  0  0
  149.9465  141.5038  153.9945 H   0  0  0  0  0  0  0  0  0  0  0  0
  149.1099  139.9772  153.6553 H   0  0  0  0  0  0  0  0  0  0  0  0
  144.7063  141.1919  157.3917 H   0  0  0  0  0  0  0  0  0  0  0  0
  146.1362  141.3318  158.3741 H   0  0  0  0  0  0  0  0  0  0  0  0
  144.6628  143.7095  157.1029 H   0  0  0  0  0  0  0  0  0  0  0  0
  144.5010  143.2046  158.7692 H   0  0  0  0  0  0  0  0  0  0  0  0
  146.5488  144.8437  157.7503 H   0  0  0  0  0  0  0  0  0  0  0  0
  148.1516  145.4397  158.8127 H   0  0  0  0  0  0  0  0  0  0  0  0
  149.1993  145.6846  160.9800 H   0  0  0  0  0  0  0  0  0  0  0  0
  148.7963  144.0206  161.3257 H   0  0  0  0  0  0  0  0  0  0  0  0
  150.9108  143.4481  160.6381 H   0  0  0  0  0  0  0  0  0  0  0  0
  151.0477  146.2854  159.5372 H   0  0  0  0  0  0  0  0  0  0  0  0
  152.0538  145.5784  160.8021 H   0  0  0  0  0  0  0  0  0  0  0  0
  152.6508  145.6450  158.0362 H   0  0  0  0  0  0  0  0  0  0  0  0
  153.4264  144.5456  159.1767 H   0  0  0  0  0  0  0  0  0  0  0  0
  151.7086  143.7039  157.0686 H   0  0  0  0  0  0  0  0  0  0  0  0
  152.1684  142.7349  158.4722 H   0  0  0  0  0  0  0  0  0  0  0  0
  144.8812  143.9873  155.3492 H   0  0  0  0  0  0  0  0  0  0  0  0
  144.3696  142.7300  154.2210 H   0  0  0  0  0  0  0  0  0  0  0  0
  145.6068  143.8955  153.7444 H   0  0  0  0  0  0  0  0  0  0  0  0
  1  2  1  0  0  0  0
  1 20  1  0  0  0  0
  1 21  1  0  0  0  0
  1 22  1  0  0  0  0
  2 19  1  0  0  0  0
  2  3  2  0  0  0  0
  3  4  1  0  0  0  0
  4  5  1  0  0  0  0
  4 17  2  0  0  0  0
  5  6  1  0  0  0  0
  5 23  1  0  0  0  0
  5 24  1  0  0  0  0
  6  7  1  0  0  0  0
  6 25  1  0  0  0  0
  6 26  1  0  0  0  0
  7  8  1  0  0  0  0
  7 27  1  0  0  0  0
  8  9  2  0  0  0  0
  8 10  1  0  0  0  0
 10 11  1  0  0  0  0
 10 28  1  0  0  0  0
 11 12  1  0  0  0  0
 11 29  1  0  0  0  0
 11 30  1  0  0  0  0
 12 16  1  0  0  0  0
 12 13  1  0  0  0  0
 12 31  1  0  0  0  0
 13 14  1  0  0  0  0
 13 32  1  0  0  0  0
 13 33  1  0  0  0  0
 14 15  1  0  0  0  0
 14 34  1  0  0  0  0
 14 35  1  0  0  0  0
 15 16  1  0  0  0  0
 15 36  1  0  0  0  0
 15 37  1  0  0  0  0
 17 18  1  0  0  0  0
 17 19  1  0  0  0  0
 18 38  1  0  0  0  0
 18 39  1  0  0  0  0
 18 40  1  0  0  0  0
M  END
> <s_m_source_file>
AV-unprocessed.smi

> <i_m_source_file_index>
2901

> <i_lp_mmshare_version>
43012

> <i_f3d_flags>
0

> <s_epik_input>
W0NIM11jMW5jKGMobzEpW0NIM10pW0NIMl1bQ0gyXVtOSF1DKD1PKVtOSF1bQ0gyXVtDQEBIXTJbQ0gyXVtDSDJdW0NIMl1PMg==

> <s_epik_cmdline>
J2VwaWtfcHl0aG9uJywgJy1waCcsICc3LjAnLCAnLXRuJywgJzgnLCAnLW1hJywgJzIwMCcsICctbWV0YWxfYmluZGluZycsICctaW1hZScsICc8aW5maWxlLm1hZT4nLCAnLW9tYWUnLCAnPG91dGZpbGUubWFlPic=

> <r_lp_tautomer_probability>
1

> <r_epik_Ionization_Penalty>
9.58254e-05

> <r_epik_Ionization_Penalty_Charging>
0

> <r_epik_Ionization_Penalty_Neutral>
9.58254e-05

> <r_epik_State_Penalty>
-0

> <r_epik_Charging_Adjusted_Penalty>
0

> <i_epik_Tot_Q>
0

> <i_epik_Tot_abs_Q>
0

> <r_epik_Metal_State_Penalty>
-0

> <b_epik_Metal_Only>
0

> <s_lp_Force_Field>
OPLS_2005

> <r_lp_Energy>
8.98545

> <b_lp_Chiralities_Consistent>
1

> <s_lp_Variant>
AV-unprocessed.smi:2901-1

> <Gold.Version>
5.8.1

> <Gold.Id.Protein>
6NUR|6NUR_protein|mol2

> <Gold.PLP.Fitness>
43.3357

> <Gold.PLP.PLP>
-34.7433

> <Gold.PLP.part.hbond>
-3.9610

> <Gold.PLP.part.metal>
0.0000

> <Gold.PLP.part.buried>
-4.0915

> <Gold.PLP.part.nonpolar>
-28.0038

> <Gold.PLP.part.repulsive>
0.5538

> <Gold.PLP.ligand.clash>
0.0000

> <Gold.PLP.ligand.torsion>
0.9245

> <Gold.PLP.Chemscore.Hbond>
3.4690

> <Gold.PLP.Chemscore.CHOScore>
0.0000

> <Gold.PLP.Chemscore.Metal>
0.0000

> <Gold.Chemscore.Hbonds>
donor molecule, donor type, donor heavy atom, donor atom, acceptor molecule, acceptor atom, score
      L1  H     7    27       P1  8029  0.88
      L1  H    10    28       P1  8029  0.98
      P1  H  6933  6944       L1     9  0.83
      P1  H  6934  6946       L1     9  0.86

> <Gold.PLP.Chemscore.Internal.Correction>
0.0342

> <Gold.Rescore>
     Score         DG    S(hbond)    S(metal)    S(lipo)     H(rot)  DE(clash)    DE(int)     intcor
     19.22     -20.21       3.21        0.00      76.26       1.92       0.03       0.96       ----

> <Gold.Chemscore.Fitness>
19.2160

> <Gold.Chemscore.DG>
-20.2093

> <Gold.Chemscore.ZeroCoef>
-5.4800

> <Gold.Chemscore.Hbond>
3.2076

> <Gold.Chemscore.Metal>
0.0000

> <Gold.Chemscore.Lipo>
76.2635

> <Gold.Chemscore.Internal_Hbond>
0.0000

> <Gold.Chemscore.DEClash>
0.0292

> <Gold.Chemscore.DEInternal>
0.9642

> <Gold.Chemscore.Rot>
1.9167

> <Gold.Chemscore.Internal.Correction>
   9.000000E+99

> <Gold.Chemscore.Hbonds>
donor molecule, donor type, donor heavy atom, donor atom, acceptor molecule, acceptor atom, score
      L1  H     7    27       P1  8029  0.34
      L1  H    10    28       P1  8029  0.93
      P1  H  6933  6944       L1     9  0.74
      P1  H  6934  6946       L1     9  0.80

> <Gold.Chemscore.Hbond.Weighted>
-10.7133

> <Gold.Chemscore.Metal.Weighted>
-0.0000

> <Gold.Chemscore.Lipo.Weighted>
-8.9228

> <Gold.Chemscore.Internal_Hbond.Weighted>
0.0000

> <Gold.Chemscore.DEClash.Weighted>
0.0292

> <Gold.Chemscore.DEInternal.Weighted>
0.9642

> <Gold.Chemscore.Rot.Weighted>
4.9069

> <Gold.Chemscore.Internal.Correction.Weighted>
   9.000000E+99

> <Gold.Protein.RotatedTorsions>
[ 6907 6896 6895 6894 ] final  -38.92 input  -60.11 | X-H torsion
[ 7974 7965 7964 7962 ] final -178.37 input  175.53 | X-H torsion
[ 8008 7997 7996 7995 ] final  144.90 input   59.86 | X-H torsion
[ 10167 10162 10161 10158 ] final  -10.28 input  -65.29 | X-H torsion
[ 10718 10713 10712 10709 ] final  -49.29 input   66.30 | X-H torsion
[ 10763 10752 10751 10750 ] final   62.43 input  -60.55 | X-H torsion
[ 11005 11000 10999 10996 ] final  118.51 input  -57.11 | X-H torsion

> <Gold.Protein.ActiveResidues>
 VAL166  LYS551  ARG553  GLY616  TRP617  ASP618  TYR619  PRO620  LYS621  CYS622 
 ASP623  PHE694  ASN695  SER759  ASP760  ASP761  ALA762  ILE779  LEU786  VAL792 
 PHE793  MET794  SER795  GLU796  ALA797  LYS798  CYS799  TRP800  GLU811  SER814 

> <Gold.Protein.RotatedAtoms>
  150.9966  134.9288  159.7929 H   0  0  0  0  0  0  0  0  0  0  0  0  # atno 6907 bound_to 6896
  152.5266  134.3210  159.9158 H   0  0  0  0  0  0  0  0  0  0  0  0  # atno 6908 bound_to 6896
  151.3216  133.3996  159.2689 H   0  0  0  0  0  0  0  0  0  0  0  0  # atno 6909 bound_to 6896
  144.7131  140.0878  143.6422 H   0  0  0  0  0  0  0  0  0  0  0  0  # atno 7974 bound_to 7965
  156.2897  140.2223  156.5128 H   0  0  0  0  0  0  0  0  0  0  0  0  # atno 8008 bound_to 7997
  154.7594  140.0474  157.0982 H   0  0  0  0  0  0  0  0  0  0  0  0  # atno 8009 bound_to 7997
  155.0010  140.3101  155.4870 H   0  0  0  0  0  0  0  0  0  0  0  0  # atno 8010 bound_to 7997
  140.7110  143.5765  150.9037 H   0  0  0  0  0  0  0  0  0  0  0  0  # atno 10167 bound_to 10162
  156.1907  130.4153  149.9376 H   0  0  0  0  0  0  0  0  0  0  0  0  # atno 10718 bound_to 10713
  152.9982  135.5465  154.6191 H   0  0  0  0  0  0  0  0  0  0  0  0  # atno 10763 bound_to 10752
  154.5495  135.2825  155.1024 H   0  0  0  0  0  0  0  0  0  0  0  0  # atno 10764 bound_to 10752
  154.2270  135.6440  153.5215 H   0  0  0  0  0  0  0  0  0  0  0  0  # atno 10765 bound_to 10752
  139.9112  134.9621  156.7514 H   0  0  0  0  0  0  0  0  0  0  0  0  # atno 11005 bound_to 11000
  145.9646  139.2825  143.1135 LP  0  0  0  0  0  0  0  0  0  0  0  0  # atno 17320 bound_to 7965
  145.9183  140.9133  143.0418 LP  0  0  0  0  0  0  0  0  0  0  0  0  # atno 17321 bound_to 7965
  139.9491  143.6293  152.3034 LP  0  0  0  0  0  0  0  0  0  0  0  0  # atno 17342 bound_to 10162
  139.6805  144.7656  151.1617 LP  0  0  0  0  0  0  0  0  0  0  0  0  # atno 17343 bound_to 10162
  156.7117  130.8972  151.3610 LP  0  0  0  0  0  0  0  0  0  0  0  0  # atno 17370 bound_to 10713
  157.6927  130.9250  150.0558 LP  0  0  0  0  0  0  0  0  0  0  0  0  # atno 17371 bound_to 10713
  140.6771  133.9508  155.7889 LP  0  0  0  0  0  0  0  0  0  0  0  0  # atno 17394 bound_to 11000
  141.0537  134.0448  157.3751 LP  0  0  0  0  0  0  0  0  0  0  0  0  # atno 17395 bound_to 11000

$$$$
