AV-unprocessed.smi:2538|AV-procd|sdf|9982|dock10
  -GOLD-   2272014 33D 1   1.00000     0.00000
 Structure written by MMmdl.
 48 49  0  0  0  0  0  0  0  0  1 V2000
  152.9455  142.6468  161.9355 C   0  0  0  0  0  0  0  0  0  0  0  0
  152.4326  142.3720  160.5327 C   0  0  0  0  0  0  0  0  0  0  0  0
  152.8420  141.1928  159.8704 C   0  0  0  0  0  0  0  0  0  0  0  0
  152.3874  140.8991  158.5665 C   0  0  0  0  0  0  0  0  0  0  0  0
  152.6535  139.8169  157.7448 N   0  0  0  0  0  0  0  0  0  0  0  0
  151.9410  140.1201  156.6639 C   0  0  0  0  0  0  0  0  0  0  0  0
  151.2423  141.2712  156.6892 N   0  0  0  0  0  0  0  0  0  0  0  0
  150.4023  141.7982  155.6299 C   0  0  0  0  0  0  0  0  0  0  0  0
  149.0363  141.0852  155.5622 C   0  0  1  0  0  0  0  0  0  0  0  0
  148.0349  142.0793  155.4607 O   0  0  0  0  0  0  0  0  0  0  0  0
  148.9230  140.1309  154.3505 C   0  0  0  0  0  0  0  0  0  0  0  0
  147.5190  139.9380  153.9481 N   0  0  0  0  0  0  0  0  0  0  0  0
  147.0359  140.8453  152.9021 C   0  0  0  0  0  0  0  0  0  0  0  0
  146.7673  138.3807  154.0949 S   0  0  0  0  0  0  0  0  0  0  0  0
  147.8449  137.3926  154.2612 O   0  0  0  0  0  0  0  0  0  0  0  0
  145.7035  138.4790  155.1058 O   0  0  0  0  0  0  0  0  0  0  0  0
  145.9793  138.1737  152.4255 C   0  0  0  0  0  0  0  0  0  0  0  0
  145.1798  136.8645  152.3576 C   0  0  0  0  0  0  0  0  0  0  0  0
  147.0351  138.2554  151.3141 C   0  0  0  0  0  0  0  0  0  0  0  0
  151.5062  141.8261  157.9365 C   0  0  0  0  0  0  0  0  0  0  0  0
  151.0903  143.0021  158.5855 C   0  0  0  0  0  0  0  0  0  0  0  0
  151.5523  143.2789  159.8894 C   0  0  0  0  0  0  0  0  0  0  0  0
  151.0931  144.5487  160.5841 C   0  0  0  0  0  0  0  0  0  0  0  0
  153.6422  141.8747  162.2629 H   0  0  0  0  0  0  0  0  0  0  0  0
  152.1180  142.6740  162.6448 H   0  0  0  0  0  0  0  0  0  0  0  0
  153.4669  143.6036  161.9733 H   0  0  0  0  0  0  0  0  0  0  0  0
  153.5104  140.5006  160.3607 H   0  0  0  0  0  0  0  0  0  0  0  0
  151.9221  139.4670  155.8031 H   0  0  0  0  0  0  0  0  0  0  0  0
  150.2716  142.8710  155.7783 H   0  0  0  0  0  0  0  0  0  0  0  0
  150.9452  141.6872  154.6918 H   0  0  0  0  0  0  0  0  0  0  0  0
  148.8670  140.5400  156.4921 H   0  0  0  0  0  0  0  0  0  0  0  0
  148.4501  142.9274  155.5015 H   0  0  0  0  0  0  0  0  0  0  0  0
  149.5060  140.5081  153.5082 H   0  0  0  0  0  0  0  0  0  0  0  0
  149.3485  139.1536  154.5814 H   0  0  0  0  0  0  0  0  0  0  0  0
  147.2664  141.8807  153.1546 H   0  0  0  0  0  0  0  0  0  0  0  0
  145.9553  140.7570  152.7906 H   0  0  0  0  0  0  0  0  0  0  0  0
  147.5024  140.6008  151.9474 H   0  0  0  0  0  0  0  0  0  0  0  0
  145.2824  139.0017  152.2946 H   0  0  0  0  0  0  0  0  0  0  0  0
  144.6857  136.7576  151.3915 H   0  0  0  0  0  0  0  0  0  0  0  0
  144.4063  136.8362  153.1257 H   0  0  0  0  0  0  0  0  0  0  0  0
  145.8261  135.9977  152.4989 H   0  0  0  0  0  0  0  0  0  0  0  0
  146.5778  138.1555  150.3296 H   0  0  0  0  0  0  0  0  0  0  0  0
  147.7796  137.4653  151.4173 H   0  0  0  0  0  0  0  0  0  0  0  0
  147.5568  139.2125  151.3368 H   0  0  0  0  0  0  0  0  0  0  0  0
  150.4191  143.6840  158.0842 H   0  0  0  0  0  0  0  0  0  0  0  0
  150.4107  145.1211  159.9552 H   0  0  0  0  0  0  0  0  0  0  0  0
  151.9459  145.1860  160.8195 H   0  0  0  0  0  0  0  0  0  0  0  0
  150.5719  144.3099  161.5114 H   0  0  0  0  0  0  0  0  0  0  0  0
  1  2  1  0  0  0  0
  1 24  1  0  0  0  0
  1 25  1  0  0  0  0
  1 26  1  0  0  0  0
  2 22  1  0  0  0  0
  2  3  2  0  0  0  0
  3  4  1  0  0  0  0
  3 27  1  0  0  0  0
  4 20  2  0  0  0  0
  4  5  1  0  0  0  0
  5  6  2  0  0  0  0
  6  7  1  0  0  0  0
  6 28  1  0  0  0  0
  7  8  1  0  0  0  0
  7 20  1  0  0  0  0
  8  9  1  0  0  0  0
  8 29  1  0  0  0  0
  8 30  1  0  0  0  0
  9 10  1  0  0  0  0
  9 11  1  0  0  0  0
  9 31  1  0  0  0  0
 10 32  1  0  0  0  0
 11 12  1  0  0  0  0
 11 33  1  0  0  0  0
 11 34  1  0  0  0  0
 12 13  1  0  0  0  0
 12 14  1  0  0  0  0
 13 35  1  0  0  0  0
 13 36  1  0  0  0  0
 13 37  1  0  0  0  0
 14 15  2  0  0  0  0
 14 16  2  0  0  0  0
 14 17  1  0  0  0  0
 17 18  1  0  0  0  0
 17 19  1  0  0  0  0
 17 38  1  0  0  0  0
 18 39  1  0  0  0  0
 18 40  1  0  0  0  0
 18 41  1  0  0  0  0
 19 42  1  0  0  0  0
 19 43  1  0  0  0  0
 19 44  1  0  0  0  0
 20 21  1  0  0  0  0
 21 22  2  0  0  0  0
 21 45  1  0  0  0  0
 22 23  1  0  0  0  0
 23 46  1  0  0  0  0
 23 47  1  0  0  0  0
 23 48  1  0  0  0  0
M  END
> <s_m_source_file>
AV-unprocessed.smi

> <i_m_source_file_index>
2538

> <i_lp_mmshare_version>
43012

> <i_f3d_flags>
0

> <s_epik_input>
W0NIM11jKFtjSF0xKWMoW0NIM10pW2NIXWMoYzEyKW4oW2NIXW4yKVtDSDJdW0NASF0oW09IXSlbQ0gyXU4oW0NIM10pUyg9TykoPU8pW0NIXShbQ0gzXSlbQ0gzXQ==

> <s_epik_cmdline>
J2VwaWtfcHl0aG9uJywgJy1waCcsICc3LjAnLCAnLXRuJywgJzgnLCAnLW1hJywgJzIwMCcsICctbWV0YWxfYmluZGluZycsICctaW1hZScsICc8aW5maWxlLm1hZT4nLCAnLW9tYWUnLCAnPG91dGZpbGUubWFlPic=

> <r_epik_Ionization_Penalty>
0.105018

> <r_epik_Ionization_Penalty_Charging>
0

> <r_epik_Ionization_Penalty_Neutral>
0.105018

> <r_epik_State_Penalty>
0.094904

> <r_epik_Charging_Adjusted_Penalty>
0.094904

> <i_epik_Tot_Q>
0

> <i_epik_Tot_abs_Q>
0

> <r_epik_Metal_State_Penalty>
0.000102919

> <b_epik_Metal_Only>
0

> <s_lp_Force_Field>
OPLS_2005

> <r_lp_Energy>
6.99225

> <b_lp_Chiralities_Consistent>
1

> <s_lp_Variant>
AV-unprocessed.smi:2538-2

> <Gold.Version>
5.8.1

> <Gold.Id.Protein>
6NUR|6NUR_protein|mol2

> <Gold.PLP.Fitness>
45.4884

> <Gold.PLP.PLP>
-42.1039

> <Gold.PLP.part.hbond>
-2.0000

> <Gold.PLP.part.metal>
0.0000

> <Gold.PLP.part.buried>
-1.2638

> <Gold.PLP.part.nonpolar>
-39.0759

> <Gold.PLP.part.repulsive>
0.1845

> <Gold.PLP.ligand.clash>
0.0000

> <Gold.PLP.ligand.torsion>
2.6262

> <Gold.PLP.Chemscore.Hbond>
2.0000

> <Gold.PLP.Chemscore.CHOScore>
0.0000

> <Gold.PLP.Chemscore.Metal>
0.0000

> <Gold.Chemscore.Hbonds>
donor molecule, donor type, donor heavy atom, donor atom, acceptor molecule, acceptor atom, score
      L1  H    10    32       P1  8028  1.00
      P1  H  7997  8010       L1     5  0.90

> <Gold.PLP.Chemscore.Internal.Correction>
2.6368

> <Gold.Rescore>
     Score         DG    S(hbond)    S(metal)    S(lipo)     H(rot)  DE(clash)    DE(int)     intcor
     13.83     -17.67       1.21        0.00     119.62       2.29       0.96       2.87       ----

> <Gold.Chemscore.Fitness>
13.8350

> <Gold.Chemscore.DG>
-17.6653

> <Gold.Chemscore.ZeroCoef>
-5.4800

> <Gold.Chemscore.Hbond>
1.2147

> <Gold.Chemscore.Metal>
0.0000

> <Gold.Chemscore.Lipo>
119.6169

> <Gold.Chemscore.Internal_Hbond>
0.0000

> <Gold.Chemscore.DEClash>
0.9571

> <Gold.Chemscore.DEInternal>
2.8733

> <Gold.Chemscore.Rot>
2.2917

> <Gold.Chemscore.Internal.Correction>
   9.000000E+99

> <Gold.Chemscore.Hbonds>
donor molecule, donor type, donor heavy atom, donor atom, acceptor molecule, acceptor atom, score
      L1  H    10    32       P1  8028  1.00
      P1  H  7997  8010       L1     5  0.12

> <Gold.Chemscore.Hbond.Weighted>
-4.0570

> <Gold.Chemscore.Metal.Weighted>
-0.0000

> <Gold.Chemscore.Lipo.Weighted>
-13.9952

> <Gold.Chemscore.Internal_Hbond.Weighted>
0.0000

> <Gold.Chemscore.DEClash.Weighted>
0.9571

> <Gold.Chemscore.DEInternal.Weighted>
2.8733

> <Gold.Chemscore.Rot.Weighted>
5.8669

> <Gold.Chemscore.Internal.Correction.Weighted>
   9.000000E+99

> <Gold.Protein.RotatedTorsions>
[ 6907 6896 6895 6894 ] final   26.32 input  -60.11 | X-H torsion
[ 7974 7965 7964 7962 ] final   51.10 input  175.53 | X-H torsion
[ 8008 7997 7996 7995 ] final   38.23 input   59.86 | X-H torsion
[ 10167 10162 10161 10158 ] final   79.47 input  -65.29 | X-H torsion
[ 10718 10713 10712 10709 ] final   -2.75 input   66.30 | X-H torsion
[ 10763 10752 10751 10750 ] final    3.24 input  -60.55 | X-H torsion
[ 11005 11000 10999 10996 ] final  -97.36 input  -57.11 | X-H torsion

> <Gold.Protein.ActiveResidues>
 VAL166  LYS551  ARG553  GLY616  TRP617  ASP618  TYR619  PRO620  LYS621  CYS622 
 ASP623  PHE694  ASN695  SER759  ASP760  ASP761  ALA762  ILE779  LEU786  VAL792 
 PHE793  MET794  SER795  GLU796  ALA797  LYS798  CYS799  TRP800  GLU811  SER814 

> <Gold.Protein.RotatedAtoms>
  151.9857  135.0005  160.0559 H   0  0  0  0  0  0  0  0  0  0  0  0  # atno 6907 bound_to 6896
  152.1655  133.4604  159.4890 H   0  0  0  0  0  0  0  0  0  0  0  0  # atno 6908 bound_to 6896
  150.6894  134.1936  159.4338 H   0  0  0  0  0  0  0  0  0  0  0  0  # atno 6909 bound_to 6896
  145.9947  139.4375  143.0052 H   0  0  0  0  0  0  0  0  0  0  0  0  # atno 7974 bound_to 7965
  155.2168  140.3328  155.4321 H   0  0  0  0  0  0  0  0  0  0  0  0  # atno 8008 bound_to 7997
  156.2349  140.1867  156.7194 H   0  0  0  0  0  0  0  0  0  0  0  0  # atno 8009 bound_to 7997
  154.6042  140.0618  156.9394 H   0  0  0  0  0  0  0  0  0  0  0  0  # atno 8010 bound_to 7997
  139.9600  144.5968  150.8081 H   0  0  0  0  0  0  0  0  0  0  0  0  # atno 10167 bound_to 10162
  156.7862  130.5346  149.5743 H   0  0  0  0  0  0  0  0  0  0  0  0  # atno 10718 bound_to 10713
  153.2857  135.6944  153.7342 H   0  0  0  0  0  0  0  0  0  0  0  0  # atno 10763 bound_to 10752
  153.6312  135.3410  155.3043 H   0  0  0  0  0  0  0  0  0  0  0  0  # atno 10764 bound_to 10752
  154.8509  135.4409  154.1924 H   0  0  0  0  0  0  0  0  0  0  0  0  # atno 10765 bound_to 10752
  141.1381  133.8165  157.0695 H   0  0  0  0  0  0  0  0  0  0  0  0  # atno 11005 bound_to 11000
  145.7578  140.9947  143.1216 LP  0  0  0  0  0  0  0  0  0  0  0  0  # atno 17320 bound_to 7965
  144.6900  139.9293  143.7471 LP  0  0  0  0  0  0  0  0  0  0  0  0  # atno 17321 bound_to 7965
  140.7556  143.3050  151.2986 LP  0  0  0  0  0  0  0  0  0  0  0  0  # atno 17342 bound_to 10162
  139.6562  144.0273  152.2661 LP  0  0  0  0  0  0  0  0  0  0  0  0  # atno 17343 bound_to 10162
  156.1187  130.6094  151.0161 LP  0  0  0  0  0  0  0  0  0  0  0  0  # atno 17370 bound_to 10713
  157.6623  131.0878  150.7810 LP  0  0  0  0  0  0  0  0  0  0  0  0  # atno 17371 bound_to 10713
  140.0520  134.9800  157.1153 LP  0  0  0  0  0  0  0  0  0  0  0  0  # atno 17394 bound_to 11000
  140.3975  134.2118  155.7164 LP  0  0  0  0  0  0  0  0  0  0  0  0  # atno 17395 bound_to 11000

$$$$
