AV-unprocessed.smi:1940|AV-procd|sdf|7841|dock4
  -GOLD-   22720 9583D 1   1.00000     0.00000
 Structure written by MMmdl.
 50 52  0  0  0  0  0  0  0  0  2 V2000
  144.6076  137.4774  152.9652 C   0  0  0  0  0  0  0  0  0  0  0  0
  145.6054  136.3103  153.0162 C   0  0  2  0  0  0  0  0  0  0  0  0
  146.9436  136.8507  153.2450 N   0  0  0  0  0  0  0  0  0  0  0  0
  147.2952  137.6895  154.2302 C   0  0  0  0  0  0  0  0  0  0  0  0
  146.5093  138.1285  155.0694 O   0  0  0  0  0  0  0  0  0  0  0  0
  148.6107  137.9604  154.1851 N   0  0  0  0  0  0  0  0  0  0  0  0
  149.3635  138.8342  155.0146 C   0  0  0  0  0  0  0  0  0  0  0  0
  150.7323  139.0056  154.7162 C   0  0  0  0  0  0  0  0  0  0  0  0
  151.5143  139.8827  155.4946 C   0  0  0  0  0  0  0  0  0  0  0  0
  150.9093  140.5884  156.5595 C   0  0  0  0  0  0  0  0  0  0  0  0
  151.6030  141.4883  157.3791 N   0  0  0  0  0  0  0  0  0  0  0  0
  151.0713  142.8463  157.2960 C   0  0  0  0  0  0  0  0  0  0  0  0
  151.9655  143.8334  158.0659 C   0  0  0  0  0  0  0  0  0  0  0  0
  152.1704  143.3713  159.5175 C   0  0  0  0  0  0  0  0  0  0  0  0
  152.7077  141.9315  159.5443 C   0  0  0  0  0  0  0  0  0  0  0  0
  151.7944  140.9910  158.7398 C   0  0  0  0  0  0  0  0  0  0  0  0
  149.5955  140.4026  156.8117 N   0  3  0  0  0  0  0  0  0  0  0  0
  148.8118  139.5703  156.0918 C   0  0  0  0  0  0  0  0  0  0  0  0
  145.6038  135.4766  151.7194 C   0  0  2  0  0  0  0  0  0  0  0  0
  144.2462  134.8809  151.3440 C   0  0  0  0  0  0  0  0  0  0  0  0
  144.6544  133.7149  150.4741 C   0  0  0  0  0  0  0  0  0  0  0  0
  145.8997  133.2103  151.1962 C   0  0  0  0  0  0  0  0  0  0  0  0
  146.4637  134.3453  151.8482 O   0  0  0  0  0  0  0  0  0  0  0  0
  143.5839  137.1220  152.8485 H   0  0  0  0  0  0  0  0  0  0  0  0
  144.8239  138.1490  152.1337 H   0  0  0  0  0  0  0  0  0  0  0  0
  144.6435  138.0626  153.8847 H   0  0  0  0  0  0  0  0  0  0  0  0
  145.3144  135.6615  153.8444 H   0  0  0  0  0  0  0  0  0  0  0  0
  147.6639  136.5434  152.6081 H   0  0  0  0  0  0  0  0  0  0  0  0
  149.1429  137.4522  153.4941 H   0  0  0  0  0  0  0  0  0  0  0  0
  151.1854  138.4671  153.8966 H   0  0  0  0  0  0  0  0  0  0  0  0
  152.5634  140.0103  155.2715 H   0  0  0  0  0  0  0  0  0  0  0  0
  150.9993  143.1502  156.2509 H   0  0  0  0  0  0  0  0  0  0  0  0
  150.0602  142.8675  157.7052 H   0  0  0  0  0  0  0  0  0  0  0  0
  152.9333  143.9138  157.5687 H   0  0  0  0  0  0  0  0  0  0  0  0
  151.5237  144.8301  158.0479 H   0  0  0  0  0  0  0  0  0  0  0  0
  152.8586  144.0409  160.0339 H   0  0  0  0  0  0  0  0  0  0  0  0
  151.2233  143.4202  160.0561 H   0  0  0  0  0  0  0  0  0  0  0  0
  153.7149  141.9096  159.1259 H   0  0  0  0  0  0  0  0  0  0  0  0
  152.7916  141.5811  160.5734 H   0  0  0  0  0  0  0  0  0  0  0  0
  150.8285  140.9029  159.2391 H   0  0  0  0  0  0  0  0  0  0  0  0
  152.2300  139.9913  158.7071 H   0  0  0  0  0  0  0  0  0  0  0  0
  147.7774  139.5436  156.3993 H   0  0  0  0  0  0  0  0  0  0  0  0
  145.9717  136.0761  150.8849 H   0  0  0  0  0  0  0  0  0  0  0  0
  143.7237  134.5189  152.2308 H   0  0  0  0  0  0  0  0  0  0  0  0
  143.5972  135.5891  150.8282 H   0  0  0  0  0  0  0  0  0  0  0  0
  143.8786  132.9548  150.3783 H   0  0  0  0  0  0  0  0  0  0  0  0
  144.9148  134.0671  149.4750 H   0  0  0  0  0  0  0  0  0  0  0  0
  145.6291  132.4758  151.9555 H   0  0  0  0  0  0  0  0  0  0  0  0
  146.6137  132.7466  150.5155 H   0  0  0  0  0  0  0  0  0  0  0  0
  149.1709  140.9220  157.5807 H   0  0  0  0  0  0  0  0  0  0  0  0
  1  2  1  0  0  0  0
  1 24  1  0  0  0  0
  1 25  1  0  0  0  0
  1 26  1  0  0  0  0
  2  3  1  0  0  0  0
  2 19  1  0  0  0  0
  2 27  1  0  0  0  0
  3  4  1  0  0  0  0
  3 28  1  0  0  0  0
  4  5  2  0  0  0  0
  4  6  1  0  0  0  0
  6  7  1  0  0  0  0
  6 29  1  0  0  0  0
  7 18  1  0  0  0  0
  7  8  2  0  0  0  0
  8  9  1  0  0  0  0
  8 30  1  0  0  0  0
  9 10  2  0  0  0  0
  9 31  1  0  0  0  0
 10 11  1  0  0  0  0
 10 17  1  0  0  0  0
 11 16  1  0  0  0  0
 11 12  1  0  0  0  0
 12 13  1  0  0  0  0
 12 32  1  0  0  0  0
 12 33  1  0  0  0  0
 13 14  1  0  0  0  0
 13 34  1  0  0  0  0
 13 35  1  0  0  0  0
 14 15  1  0  0  0  0
 14 36  1  0  0  0  0
 14 37  1  0  0  0  0
 15 16  1  0  0  0  0
 15 38  1  0  0  0  0
 15 39  1  0  0  0  0
 16 40  1  0  0  0  0
 16 41  1  0  0  0  0
 17 18  2  0  0  0  0
 17 50  1  0  0  0  0
 18 42  1  0  0  0  0
 19 23  1  0  0  0  0
 19 20  1  0  0  0  0
 19 43  1  0  0  0  0
 20 21  1  0  0  0  0
 20 44  1  0  0  0  0
 20 45  1  0  0  0  0
 21 22  1  0  0  0  0
 21 46  1  0  0  0  0
 21 47  1  0  0  0  0
 22 23  1  0  0  0  0
 22 48  1  0  0  0  0
 22 49  1  0  0  0  0
M  CHG  1  17   1
M  END
> <s_m_source_file>
AV-unprocessed.smi

> <i_m_source_file_index>
1940

> <i_lp_mmshare_version>
43012

> <i_f3d_flags>
0

> <s_epik_input>
TzFbQ0gyXVtDSDJdW0NIMl1bQ0BIXTFbQ0BIXShbQ0gzXSlbTkhdQyg9TylbTkhdYzJbY0hdW2NIXWMobltjSF0yKU4zW0NIMl1bQ0gyXVtDSDJdW0NIMl1bQ0gyXTM=

> <s_epik_cmdline>
J2VwaWtfcHl0aG9uJywgJy1waCcsICc3LjAnLCAnLXRuJywgJzgnLCAnLW1hJywgJzIwMCcsICctbWV0YWxfYmluZGluZycsICctaW1hZScsICc8aW5maWxlLm1hZT4nLCAnLW9tYWUnLCAnPG91dGZpbGUubWFlPic=

> <r_lp_tautomer_probability>
0.999994

> <r_epik_Ionization_Penalty>
1.10603

> <r_epik_Ionization_Penalty_Charging>
1.10601

> <r_epik_Ionization_Penalty_Neutral>
1.929e-05

> <r_epik_State_Penalty>
1.16358

> <r_epik_Charging_Adjusted_Penalty>
2.26959

> <i_epik_Tot_Q>
1

> <i_epik_Tot_abs_Q>
1

> <r_epik_Metal_State_Penalty>
1.25013

> <b_epik_Metal_Only>
0

> <s_lp_Force_Field>
OPLS_2005

> <r_lp_Energy>
41.0283

> <b_lp_Chiralities_Consistent>
1

> <s_lp_Variant>
AV-unprocessed.smi:1940-5

> <Gold.Version>
5.8.1

> <Gold.Id.Protein>
6NUR|6NUR_protein|mol2

> <Gold.PLP.Fitness>
43.3254

> <Gold.PLP.PLP>
-37.8119

> <Gold.PLP.part.hbond>
-1.9645

> <Gold.PLP.part.metal>
0.0000

> <Gold.PLP.part.buried>
-3.5571

> <Gold.PLP.part.nonpolar>
-33.5317

> <Gold.PLP.part.repulsive>
0.6641

> <Gold.PLP.ligand.clash>
0.0000

> <Gold.PLP.ligand.torsion>
0.1503

> <Gold.PLP.Chemscore.Hbond>
1.8873

> <Gold.PLP.Chemscore.CHOScore>
0.0000

> <Gold.PLP.Chemscore.Metal>
0.0000

> <Gold.Chemscore.Hbonds>
donor molecule, donor type, donor heavy atom, donor atom, acceptor molecule, acceptor atom, score
      L1  H     3    28       P1  7948  0.98
      L1  H     6    29       P1  7948  0.88

> <Gold.PLP.Chemscore.Internal.Correction>
0.1524

> <Gold.Rescore>
     Score         DG    S(hbond)    S(metal)    S(lipo)     H(rot)  DE(clash)    DE(int)     intcor
     17.58     -20.33       1.90        0.00     102.34       1.36       0.13       2.61       ----

> <Gold.Chemscore.Fitness>
17.5798

> <Gold.Chemscore.DG>
-20.3258

> <Gold.Chemscore.ZeroCoef>
-5.4800

> <Gold.Chemscore.Hbond>
1.8999

> <Gold.Chemscore.Metal>
0.0000

> <Gold.Chemscore.Lipo>
102.3430

> <Gold.Chemscore.Internal_Hbond>
0.0000

> <Gold.Chemscore.DEClash>
0.1339

> <Gold.Chemscore.DEInternal>
2.6122

> <Gold.Chemscore.Rot>
1.3571

> <Gold.Chemscore.Internal.Correction>
   9.000000E+99

> <Gold.Chemscore.Hbonds>
donor molecule, donor type, donor heavy atom, donor atom, acceptor molecule, acceptor atom, score
      L1  H     3    28       P1  7948  0.91
      L1  H     6    29       P1  7948  0.81

> <Gold.Chemscore.Hbond.Weighted>
-6.3457

> <Gold.Chemscore.Metal.Weighted>
-0.0000

> <Gold.Chemscore.Lipo.Weighted>
-11.9741

> <Gold.Chemscore.Internal_Hbond.Weighted>
0.0000

> <Gold.Chemscore.DEClash.Weighted>
0.1339

> <Gold.Chemscore.DEInternal.Weighted>
2.6122

> <Gold.Chemscore.Rot.Weighted>
3.4741

> <Gold.Chemscore.Internal.Correction.Weighted>
   9.000000E+99

> <Gold.Protein.RotatedTorsions>
[ 6907 6896 6895 6894 ] final -105.89 input  -60.11 | X-H torsion
[ 7974 7965 7964 7962 ] final  113.57 input  175.53 | X-H torsion
[ 8008 7997 7996 7995 ] final   74.93 input   59.86 | X-H torsion
[ 10167 10162 10161 10158 ] final   79.05 input  -65.29 | X-H torsion
[ 10718 10713 10712 10709 ] final  144.84 input   66.30 | X-H torsion
[ 10763 10752 10751 10750 ] final  100.38 input  -60.55 | X-H torsion
[ 11005 11000 10999 10996 ] final  -15.16 input  -57.11 | X-H torsion

> <Gold.Protein.ActiveResidues>
 VAL166  LYS551  ARG553  GLY616  TRP617  ASP618  TYR619  PRO620  LYS621  CYS622 
 ASP623  PHE694  ASN695  SER759  ASP760  ASP761  ALA762  ILE779  LEU786  VAL792 
 PHE793  MET794  SER795  GLU796  ALA797  LYS798  CYS799  TRP800  GLU811  SER814 

> <Gold.Protein.RotatedAtoms>
  150.7360  134.0058  159.3653 H   0  0  0  0  0  0  0  0  0  0  0  0  # atno 6907 bound_to 6896
  151.8015  135.0705  160.0410 H   0  0  0  0  0  0  0  0  0  0  0  0  # atno 6908 bound_to 6896
  152.3137  133.5743  159.5734 H   0  0  0  0  0  0  0  0  0  0  0  0  # atno 6909 bound_to 6896
  145.2153  139.2887  143.4246 H   0  0  0  0  0  0  0  0  0  0  0  0  # atno 7974 bound_to 7965
  155.8056  140.3475  155.5428 H   0  0  0  0  0  0  0  0  0  0  0  0  # atno 8008 bound_to 7997
  155.8493  140.0954  157.1705 H   0  0  0  0  0  0  0  0  0  0  0  0  # atno 8009 bound_to 7997
  154.4007  140.1379  156.3812 H   0  0  0  0  0  0  0  0  0  0  0  0  # atno 8010 bound_to 7997
  139.9644  144.5938  150.8042 H   0  0  0  0  0  0  0  0  0  0  0  0  # atno 10167 bound_to 10162
  157.3524  131.0953  151.0988 H   0  0  0  0  0  0  0  0  0  0  0  0  # atno 10718 bound_to 10713
  153.3132  135.4081  155.1353 H   0  0  0  0  0  0  0  0  0  0  0  0  # atno 10763 bound_to 10752
  154.8581  135.3569  154.5696 H   0  0  0  0  0  0  0  0  0  0  0  0  # atno 10764 bound_to 10752
  153.6126  135.7067  153.5400 H   0  0  0  0  0  0  0  0  0  0  0  0  # atno 10765 bound_to 10752
  140.7938  133.8267  155.9405 H   0  0  0  0  0  0  0  0  0  0  0  0  # atno 11005 bound_to 11000
  146.3388  140.2442  142.8596 LP  0  0  0  0  0  0  0  0  0  0  0  0  # atno 17320 bound_to 7965
  144.9816  140.8465  143.5393 LP  0  0  0  0  0  0  0  0  0  0  0  0  # atno 17321 bound_to 7965
  140.7543  143.3024  151.3047 LP  0  0  0  0  0  0  0  0  0  0  0  0  # atno 17342 bound_to 10162
  139.6529  144.0329  152.2639 LP  0  0  0  0  0  0  0  0  0  0  0  0  # atno 17343 bound_to 10162
  157.2159  130.6459  149.5792 LP  0  0  0  0  0  0  0  0  0  0  0  0  # atno 17370 bound_to 10713
  155.9723  130.4645  150.6219 LP  0  0  0  0  0  0  0  0  0  0  0  0  # atno 17371 bound_to 10713
  140.9363  134.1958  157.4829 LP  0  0  0  0  0  0  0  0  0  0  0  0  # atno 17394 bound_to 11000
  139.8728  134.9853  156.5278 LP  0  0  0  0  0  0  0  0  0  0  0  0  # atno 17395 bound_to 11000

$$$$
