AV-unprocessed.smi:171|AV-procd|sdf|1415|dock6
  -GOLD-   2262019183D 1   1.00000     0.00000
 Structure written by MMmdl.
 56 59  0  0  0  0  0  0  0  0  1 V2000
  151.4180  140.0765  158.1978 C   0  0  0  0  0  0  0  0  0  0  0  0
  150.7914  140.8316  157.0148 C   0  0  0  0  0  0  0  0  0  0  0  0
  151.1413  142.3258  157.0946 C   0  0  0  0  0  0  0  0  0  0  0  0
  149.2611  140.6394  156.8983 C   0  0  0  0  0  0  0  0  0  0  0  0
  148.6134  141.2161  155.6022 C   0  0  1  0  0  0  0  0  0  0  0  0
  149.1260  140.6024  154.2749 C   0  0  0  0  0  0  0  0  0  0  0  0
  150.2506  140.1126  154.1987 O   0  0  0  0  0  0  0  0  0  0  0  0
  148.3056  140.6268  153.2089 N   0  0  0  0  0  0  0  0  0  0  0  0
  146.9316  141.1352  153.1924 C   0  0  0  0  0  0  0  0  0  0  0  0
  146.5237  141.8621  154.4914 C   0  0  0  0  0  0  0  0  0  0  0  0
  147.1403  141.2345  155.6576 N   0  0  0  0  0  0  0  0  0  0  0  0
  146.4484  140.1453  156.0904 C   0  0  0  0  0  0  0  0  0  0  0  0
  145.7610  140.1802  157.2631 N   0  0  0  0  0  0  0  0  0  0  0  0
  145.0945  139.1030  157.6869 C   0  0  0  0  0  0  0  0  0  0  0  0
  144.9826  137.9090  157.1026 N   0  0  0  0  0  0  0  0  0  0  0  0
  145.6676  137.8671  155.9235 C   0  0  0  0  0  0  0  0  0  0  0  0
  146.4264  138.9282  155.3555 C   0  0  0  0  0  0  0  0  0  0  0  0
  146.9935  138.5163  154.1572 N   0  0  0  0  0  0  0  0  0  0  0  0
  146.5932  137.2812  154.0247 C   0  0  0  0  0  0  0  0  0  0  0  0
  145.7640  136.8172  155.0241 N   0  0  0  0  0  0  0  0  0  0  0  0
  145.1728  135.4891  155.1499 C   0  0  0  0  0  0  0  0  0  0  0  0
  143.6364  135.4041  154.9240 C   0  0  1  0  0  0  0  0  0  0  0  0
  143.1599  134.2254  155.5512 O   0  0  0  0  0  0  0  0  0  0  0  0
  142.9074  136.5757  155.5702 C   0  0  0  0  0  0  0  0  0  0  0  0
  141.6008  136.6298  154.7948 C   0  0  0  0  0  0  0  0  0  0  0  0
  142.0135  136.3634  153.4666 O   0  0  0  0  0  0  0  0  0  0  0  0
  143.0858  135.4206  153.4666 C   0  0  1  0  0  0  0  0  0  0  0  0
  144.0384  135.8814  152.3537 C   0  0  0  0  0  0  0  0  0  0  0  0
  150.9660  140.3763  159.1438 H   0  0  0  0  0  0  0  0  0  0  0  0
  152.4882  140.2729  158.2655 H   0  0  0  0  0  0  0  0  0  0  0  0
  151.2988  138.9987  158.0922 H   0  0  0  0  0  0  0  0  0  0  0  0
  151.2465  140.4477  156.1010 H   0  0  0  0  0  0  0  0  0  0  0  0
  150.7141  142.7848  157.9869 H   0  0  0  0  0  0  0  0  0  0  0  0
  150.7625  142.8680  156.2276 H   0  0  0  0  0  0  0  0  0  0  0  0
  152.2207  142.4773  157.1270 H   0  0  0  0  0  0  0  0  0  0  0  0
  149.0065  139.5856  157.0217 H   0  0  0  0  0  0  0  0  0  0  0  0
  148.8260  141.1360  157.7663 H   0  0  0  0  0  0  0  0  0  0  0  0
  148.8949  142.2688  155.5537 H   0  0  0  0  0  0  0  0  0  0  0  0
  148.6525  140.2336  152.3460 H   0  0  0  0  0  0  0  0  0  0  0  0
  146.7905  141.7866  152.3300 H   0  0  0  0  0  0  0  0  0  0  0  0
  146.2776  140.2756  153.0426 H   0  0  0  0  0  0  0  0  0  0  0  0
  146.8666  142.8970  154.4496 H   0  0  0  0  0  0  0  0  0  0  0  0
  145.4373  141.9147  154.5733 H   0  0  0  0  0  0  0  0  0  0  0  0
  144.5758  139.2147  158.6276 H   0  0  0  0  0  0  0  0  0  0  0  0
  146.8988  136.6780  153.1831 H   0  0  0  0  0  0  0  0  0  0  0  0
  145.6838  134.8356  154.4413 H   0  0  0  0  0  0  0  0  0  0  0  0
  145.4185  135.0972  156.1371 H   0  0  0  0  0  0  0  0  0  0  0  0
  143.2799  133.5011  154.9561 H   0  0  0  0  0  0  0  0  0  0  0  0
  142.7637  136.4660  156.6460 H   0  0  0  0  0  0  0  0  0  0  0  0
  143.4584  137.5023  155.4024 H   0  0  0  0  0  0  0  0  0  0  0  0
  140.9110  135.8527  155.1270 H   0  0  0  0  0  0  0  0  0  0  0  0
  141.1004  137.5951  154.8745 H   0  0  0  0  0  0  0  0  0  0  0  0
  142.6825  134.4436  153.1948 H   0  0  0  0  0  0  0  0  0  0  0  0
  144.7991  135.1329  152.1432 H   0  0  0  0  0  0  0  0  0  0  0  0
  144.5311  136.8205  152.6059 H   0  0  0  0  0  0  0  0  0  0  0  0
  143.4922  136.0370  151.4231 H   0  0  0  0  0  0  0  0  0  0  0  0
  1  2  1  0  0  0  0
  1 29  1  0  0  0  0
  1 30  1  0  0  0  0
  1 31  1  0  0  0  0
  2  3  1  0  0  0  0
  2  4  1  0  0  0  0
  2 32  1  0  0  0  0
  3 33  1  0  0  0  0
  3 34  1  0  0  0  0
  3 35  1  0  0  0  0
  4  5  1  0  0  0  0
  4 36  1  0  0  0  0
  4 37  1  0  0  0  0
  5 11  1  0  0  0  0
  5  6  1  0  0  0  0
  5 38  1  0  0  0  0
  6  7  2  0  0  0  0
  6  8  1  0  0  0  0
  8  9  1  0  0  0  0
  8 39  1  0  0  0  0
  9 10  1  0  0  0  0
  9 40  1  0  0  0  0
  9 41  1  0  0  0  0
 10 11  1  0  0  0  0
 10 42  1  0  0  0  0
 10 43  1  0  0  0  0
 11 12  1  0  0  0  0
 12 17  1  0  0  0  0
 12 13  2  0  0  0  0
 13 14  1  0  0  0  0
 14 15  2  0  0  0  0
 14 44  1  0  0  0  0
 15 16  1  0  0  0  0
 16 20  1  0  0  0  0
 16 17  2  0  0  0  0
 17 18  1  0  0  0  0
 18 19  2  0  0  0  0
 19 20  1  0  0  0  0
 19 45  1  0  0  0  0
 20 21  1  0  0  0  0
 21 22  1  0  0  0  0
 21 46  1  0  0  0  0
 21 47  1  0  0  0  0
 22 27  1  0  0  0  0
 22 23  1  0  0  0  0
 22 24  1  0  0  0  0
 23 48  1  0  0  0  0
 24 25  1  0  0  0  0
 24 49  1  0  0  0  0
 24 50  1  0  0  0  0
 25 26  1  0  0  0  0
 25 51  1  0  0  0  0
 25 52  1  0  0  0  0
 26 27  1  0  0  0  0
 27 28  1  0  0  0  0
 27 53  1  0  0  0  0
 28 54  1  0  0  0  0
 28 55  1  0  0  0  0
 28 56  1  0  0  0  0
M  END
> <s_m_source_file>
AV-unprocessed.smi

> <i_m_source_file_index>
171

> <i_lp_mmshare_version>
43012

> <i_f3d_flags>
0

> <s_epik_input>
W0NIM11bQ0hdKFtDSDNdKVtDSDJdW0NAQEhdMUMoPU8pW05IXVtDSDJdW0NIMl1OMWMobltjSF1uMiljKGMyMyluW2NIXW4zW0NIMl1bQ0BAXTQoW09IXSlbQ0gyXVtDSDJdT1tDQEhdNFtDSDNd

> <s_epik_cmdline>
J2VwaWtfcHl0aG9uJywgJy1waCcsICc3LjAnLCAnLXRuJywgJzgnLCAnLW1hJywgJzIwMCcsICctbWV0YWxfYmluZGluZycsICctaW1hZScsICc8aW5maWxlLm1hZT4nLCAnLW9tYWUnLCAnPG91dGZpbGUubWFlPic=

> <r_lp_tautomer_probability>
1

> <r_epik_Ionization_Penalty>
0.000670584

> <r_epik_Ionization_Penalty_Charging>
0

> <r_epik_Ionization_Penalty_Neutral>
0.000670584

> <r_epik_State_Penalty>
0.000304767

> <r_epik_Charging_Adjusted_Penalty>
0.000304767

> <i_epik_Tot_Q>
0

> <i_epik_Tot_abs_Q>
0

> <r_epik_Metal_State_Penalty>
-0

> <b_epik_Metal_Only>
0

> <s_lp_Force_Field>
OPLS_2005

> <r_lp_Energy>
47.4038

> <b_lp_Chiralities_Consistent>
1

> <s_lp_Variant>
AV-unprocessed.smi:171-2

> <Gold.Version>
5.8.1

> <Gold.Id.Protein>
6NUR|6NUR_protein|mol2

> <Gold.PLP.Fitness>
40.9146

> <Gold.PLP.PLP>
-29.4545

> <Gold.PLP.part.hbond>
-3.8819

> <Gold.PLP.part.metal>
0.0000

> <Gold.PLP.part.buried>
-8.6624

> <Gold.PLP.part.nonpolar>
-18.2634

> <Gold.PLP.part.repulsive>
0.6186

> <Gold.PLP.ligand.clash>
0.0000

> <Gold.PLP.ligand.torsion>
0.6162

> <Gold.PLP.Chemscore.Hbond>
3.1086

> <Gold.PLP.Chemscore.CHOScore>
1.0000

> <Gold.PLP.Chemscore.Metal>
0.0000

> <Gold.Chemscore.Hbonds>
donor molecule, donor type, donor heavy atom, donor atom, acceptor molecule, acceptor atom, score
      L1  H     8    39       P1  7957  0.99
      L1  H    23    48       P1 10957  0.74
      P1  H  7989  7998       L1     7  1.00
      P1  H 11000 11005       L1    23  0.36
      L1  C    19    45       P1  7948  1.00

> <Gold.PLP.Chemscore.Internal.Correction>
0.3667

> <Gold.Rescore>
     Score         DG    S(hbond)    S(metal)    S(lipo)     H(rot)  DE(clash)    DE(int)     intcor
      8.47     -14.97       2.92        0.00      54.83       2.61       0.00       6.50       ----

> <Gold.Chemscore.Fitness>
8.4744

> <Gold.Chemscore.DG>
-14.9727

> <Gold.Chemscore.ZeroCoef>
-5.4800

> <Gold.Chemscore.Hbond>
2.9200

> <Gold.Chemscore.Metal>
0.0000

> <Gold.Chemscore.Lipo>
54.8276

> <Gold.Chemscore.Internal_Hbond>
0.0000

> <Gold.Chemscore.DEClash>
0.0000

> <Gold.Chemscore.DEInternal>
6.4983

> <Gold.Chemscore.Rot>
2.6074

> <Gold.Chemscore.Internal.Correction>
   9.000000E+99

> <Gold.Chemscore.Hbonds>
donor molecule, donor type, donor heavy atom, donor atom, acceptor molecule, acceptor atom, score
      L1  H     8    39       P1  7957  0.92
      L1  H    23    48       P1 10957  0.74
      P1  H  7989  7998       L1     7  0.96
      P1  H 11000 11005       L1    23  0.08

> <Gold.Chemscore.Hbond.Weighted>
-9.7527

> <Gold.Chemscore.Metal.Weighted>
-0.0000

> <Gold.Chemscore.Lipo.Weighted>
-6.4148

> <Gold.Chemscore.Internal_Hbond.Weighted>
0.0000

> <Gold.Chemscore.DEClash.Weighted>
0.0000

> <Gold.Chemscore.DEInternal.Weighted>
6.4983

> <Gold.Chemscore.Rot.Weighted>
6.6748

> <Gold.Chemscore.Internal.Correction.Weighted>
   9.000000E+99

> <Gold.Protein.RotatedTorsions>
[ 6907 6896 6895 6894 ] final  -30.68 input  -60.11 | X-H torsion
[ 7974 7965 7964 7962 ] final  -33.62 input  175.53 | X-H torsion
[ 8008 7997 7996 7995 ] final -148.35 input   59.86 | X-H torsion
[ 10167 10162 10161 10158 ] final -142.68 input  -65.29 | X-H torsion
[ 10718 10713 10712 10709 ] final -103.48 input   66.30 | X-H torsion
[ 10763 10752 10751 10750 ] final   62.67 input  -60.55 | X-H torsion
[ 11005 11000 10999 10996 ] final  -52.55 input  -57.11 | X-H torsion

> <Gold.Protein.ActiveResidues>
 VAL166  LYS551  ARG553  GLY616  TRP617  ASP618  TYR619  PRO620  LYS621  CYS622 
 ASP623  PHE694  ASN695  SER759  ASP760  ASP761  ALA762  ILE779  LEU786  VAL792 
 PHE793  MET794  SER795  GLU796  ALA797  LYS798  CYS799  TRP800  GLU811  SER814 

> <Gold.Protein.RotatedAtoms>
  151.1023  134.9979  159.8454 H   0  0  0  0  0  0  0  0  0  0  0  0  # atno 6907 bound_to 6896
  152.5438  134.1935  159.8694 H   0  0  0  0  0  0  0  0  0  0  0  0  # atno 6908 bound_to 6896
  151.1979  133.4584  159.2629 H   0  0  0  0  0  0  0  0  0  0  0  0  # atno 6909 bound_to 6896
  146.0895  140.5939  142.8871 H   0  0  0  0  0  0  0  0  0  0  0  0  # atno 7974 bound_to 7965
  155.5903  140.0652  157.2760 H   0  0  0  0  0  0  0  0  0  0  0  0  # atno 8008 bound_to 7997
  154.4307  140.1836  156.1114 H   0  0  0  0  0  0  0  0  0  0  0  0  # atno 8009 bound_to 7997
  156.0238  140.3314  155.7070 H   0  0  0  0  0  0  0  0  0  0  0  0  # atno 8010 bound_to 7997
  139.8065  143.7761  152.2661 H   0  0  0  0  0  0  0  0  0  0  0  0  # atno 10167 bound_to 10162
  156.0267  130.5469  150.7259 H   0  0  0  0  0  0  0  0  0  0  0  0  # atno 10718 bound_to 10713
  152.9991  135.5457  154.6230 H   0  0  0  0  0  0  0  0  0  0  0  0  # atno 10763 bound_to 10752
  154.5525  135.2827  155.0997 H   0  0  0  0  0  0  0  0  0  0  0  0  # atno 10764 bound_to 10752
  154.2232  135.6447  153.5204 H   0  0  0  0  0  0  0  0  0  0  0  0  # atno 10765 bound_to 10752
  141.0930  133.6629  156.4040 H   0  0  0  0  0  0  0  0  0  0  0  0  # atno 11005 bound_to 11000
  144.7350  140.4782  143.6910 LP  0  0  0  0  0  0  0  0  0  0  0  0  # atno 17320 bound_to 7965
  145.6065  139.1509  143.3100 LP  0  0  0  0  0  0  0  0  0  0  0  0  # atno 17321 bound_to 7965
  139.7897  144.7415  150.9973 LP  0  0  0  0  0  0  0  0  0  0  0  0  # atno 17342 bound_to 10162
  140.7819  143.4455  151.0488 LP  0  0  0  0  0  0  0  0  0  0  0  0  # atno 17343 bound_to 10162
  157.4864  131.0907  151.0478 LP  0  0  0  0  0  0  0  0  0  0  0  0  # atno 17370 bound_to 10713
  157.0897  130.5937  149.5437 LP  0  0  0  0  0  0  0  0  0  0  0  0  # atno 17371 bound_to 10713
  140.5207  134.6307  157.5317 LP  0  0  0  0  0  0  0  0  0  0  0  0  # atno 17394 bound_to 11000
  139.9760  134.7215  155.9949 LP  0  0  0  0  0  0  0  0  0  0  0  0  # atno 17395 bound_to 11000

$$$$
