AV-unprocessed.smi:411|AV-procd|sdf|2509|dock4
  -GOLD-   2262022463D 1   1.00000     0.00000
 Structure written by MMmdl.
 35 36  0  0  0  0  0  0  0  0  1 V2000
  149.0339  140.6009  157.7417 O   0  0  0  0  0  0  0  0  0  0  0  0
  149.2361  141.5689  157.0073 C   0  0  0  0  0  0  0  0  0  0  0  0
  150.6577  141.9389  156.5588 C   0  0  0  0  0  0  0  0  0  0  0  0
  151.5103  142.4363  157.6527 N   0  0  0  0  0  0  0  0  0  0  0  0
  151.5170  143.8253  157.8716 C   0  0  0  0  0  0  0  0  0  0  0  0
  152.2554  144.3835  158.8403 C   0  0  0  0  0  0  0  0  0  0  0  0
  153.0569  143.5187  159.6710 C   0  0  0  0  0  0  0  0  0  0  0  0
  153.0759  142.1791  159.4809 C   0  0  0  0  0  0  0  0  0  0  0  0
  153.9152  141.2491  160.3539 C   0  0  0  0  0  0  0  0  0  0  0  0
  153.9969  141.7194  161.5992 F   0  0  0  0  0  0  0  0  0  0  0  0
  153.3680  140.0341  160.4024 F   0  0  0  0  0  0  0  0  0  0  0  0
  155.1576  141.1187  159.8861 F   0  0  0  0  0  0  0  0  0  0  0  0
  152.2611  141.5747  158.4069 C   0  0  0  0  0  0  0  0  0  0  0  0
  152.2492  140.3615  158.1909 O   0  0  0  0  0  0  0  0  0  0  0  0
  148.2521  142.3492  156.5352 N   0  0  0  0  0  0  0  0  0  0  0  0
  146.8306  142.1841  156.8278 C   0  0  1  0  0  0  0  0  0  0  0  0
  146.4015  140.6972  156.6901 C   0  0  0  0  0  0  0  0  0  0  0  0
  145.7800  140.1765  157.9951 C   0  0  0  0  0  0  0  0  0  0  0  0
  145.1416  141.6525  158.8496 S   0  0  0  0  0  0  0  0  0  0  0  0
  143.8785  142.0565  158.2138 O   0  0  0  0  0  0  0  0  0  0  0  0
  145.2467  141.4882  160.3073 O   0  0  0  0  0  0  0  0  0  0  0  0
  146.4788  142.7236  158.2297 C   0  0  0  0  0  0  0  0  0  0  0  0
  151.1064  141.0589  156.0960 H   0  0  0  0  0  0  0  0  0  0  0  0
  150.6010  142.6809  155.7602 H   0  0  0  0  0  0  0  0  0  0  0  0
  150.8953  144.4021  157.2024 H   0  0  0  0  0  0  0  0  0  0  0  0
  152.2530  145.4527  158.9931 H   0  0  0  0  0  0  0  0  0  0  0  0
  153.6483  143.9665  160.4557 H   0  0  0  0  0  0  0  0  0  0  0  0
  148.5068  143.1208  155.9357 H   0  0  0  0  0  0  0  0  0  0  0  0
  146.2576  142.7526  156.0925 H   0  0  0  0  0  0  0  0  0  0  0  0
  145.6567  140.6252  155.8966 H   0  0  0  0  0  0  0  0  0  0  0  0
  147.2283  140.0551  156.3834 H   0  0  0  0  0  0  0  0  0  0  0  0
  144.9807  139.4522  157.8370 H   0  0  0  0  0  0  0  0  0  0  0  0
  146.5422  139.7264  158.6316 H   0  0  0  0  0  0  0  0  0  0  0  0
  147.3205  142.6248  158.9164 H   0  0  0  0  0  0  0  0  0  0  0  0
  146.1563  143.7651  158.2214 H   0  0  0  0  0  0  0  0  0  0  0  0
  1  2  2  0  0  0  0
  2  3  1  0  0  0  0
  2 15  1  0  0  0  0
  3  4  1  0  0  0  0
  3 23  1  0  0  0  0
  3 24  1  0  0  0  0
  4 13  1  0  0  0  0
  4  5  1  0  0  0  0
  5  6  2  0  0  0  0
  5 25  1  0  0  0  0
  6  7  1  0  0  0  0
  6 26  1  0  0  0  0
  7  8  2  0  0  0  0
  7 27  1  0  0  0  0
  8  9  1  0  0  0  0
  8 13  1  0  0  0  0
  9 10  1  0  0  0  0
  9 11  1  0  0  0  0
  9 12  1  0  0  0  0
 13 14  2  0  0  0  0
 15 16  1  0  0  0  0
 15 28  1  0  0  0  0
 16 22  1  0  0  0  0
 16 17  1  0  0  0  0
 16 29  1  0  0  0  0
 17 18  1  0  0  0  0
 17 30  1  0  0  0  0
 17 31  1  0  0  0  0
 18 19  1  0  0  0  0
 18 32  1  0  0  0  0
 18 33  1  0  0  0  0
 19 20  2  0  0  0  0
 19 21  2  0  0  0  0
 19 22  1  0  0  0  0
 22 34  1  0  0  0  0
 22 35  1  0  0  0  0
M  END
> <s_m_source_file>
AV-unprocessed.smi

> <i_m_source_file_index>
411

> <i_lp_mmshare_version>
43012

> <i_f3d_flags>
0

> <s_epik_input>
Tz1TMSg9TylbQ0gyXVtDSDJdW0NASF0oW0NIMl0xKVtOSF1DKD1PKVtDSDJdbjJbY0hdW2NIXVtjSF1jKEMoRikoRilGKWMyPU8=

> <s_epik_cmdline>
J2VwaWtfcHl0aG9uJywgJy1waCcsICc3LjAnLCAnLXRuJywgJzgnLCAnLW1hJywgJzIwMCcsICctbWV0YWxfYmluZGluZycsICctaW1hZScsICc8aW5maWxlLm1hZT4nLCAnLW9tYWUnLCAnPG91dGZpbGUubWFlPic=

> <r_lp_tautomer_probability>
1

> <r_epik_Ionization_Penalty>
1.08759e-07

> <r_epik_Ionization_Penalty_Charging>
1.56656e-09

> <r_epik_Ionization_Penalty_Neutral>
1.07193e-07

> <r_epik_State_Penalty>
-0

> <r_epik_Charging_Adjusted_Penalty>
1.56656e-09

> <i_epik_Tot_Q>
0

> <i_epik_Tot_abs_Q>
0

> <r_epik_Metal_State_Penalty>
-0

> <b_epik_Metal_Only>
0

> <s_lp_Force_Field>
OPLS_2005

> <r_lp_Energy>
15.8783

> <b_lp_Chiralities_Consistent>
1

> <s_lp_Variant>
AV-unprocessed.smi:411-2

> <Gold.Version>
5.8.1

> <Gold.Id.Protein>
6NUR|6NUR_protein|mol2

> <Gold.PLP.Fitness>
45.5706

> <Gold.PLP.PLP>
-39.7374

> <Gold.PLP.part.hbond>
-2.0000

> <Gold.PLP.part.metal>
0.0000

> <Gold.PLP.part.buried>
-3.9931

> <Gold.PLP.part.nonpolar>
-33.1487

> <Gold.PLP.part.repulsive>
0.0303

> <Gold.PLP.ligand.clash>
0.0019

> <Gold.PLP.ligand.torsion>
1.7412

> <Gold.PLP.Chemscore.Hbond>
1.9920

> <Gold.PLP.Chemscore.CHOScore>
1.0000

> <Gold.PLP.Chemscore.Metal>
0.0000

> <Gold.Chemscore.Hbonds>
donor molecule, donor type, donor heavy atom, donor atom, acceptor molecule, acceptor atom, score
      L1  H    15    28       P1  8028  1.00
      P1  H  6934  6946       L1    21  0.99
      L1  C     5    25       P1  8028  1.00

> <Gold.PLP.Chemscore.Internal.Correction>
0.3416

> <Gold.Rescore>
     Score         DG    S(hbond)    S(metal)    S(lipo)     H(rot)  DE(clash)    DE(int)     intcor
     12.35     -17.05       2.33        0.00      70.25       1.73       0.16       4.54       ----

> <Gold.Chemscore.Fitness>
12.3453

> <Gold.Chemscore.DG>
-17.0476

> <Gold.Chemscore.ZeroCoef>
-5.4800

> <Gold.Chemscore.Hbond>
2.3297

> <Gold.Chemscore.Metal>
0.0000

> <Gold.Chemscore.Lipo>
70.2453

> <Gold.Chemscore.Internal_Hbond>
0.0000

> <Gold.Chemscore.DEClash>
0.1610

> <Gold.Chemscore.DEInternal>
4.5413

> <Gold.Chemscore.Rot>
1.7314

> <Gold.Chemscore.Internal.Correction>
   9.000000E+99

> <Gold.Chemscore.Hbonds>
donor molecule, donor type, donor heavy atom, donor atom, acceptor molecule, acceptor atom, score
      L1  H    15    28       P1  8028  0.94
      P1  H  6934  6946       L1    21  0.69

> <Gold.Chemscore.Hbond.Weighted>
-7.7812

> <Gold.Chemscore.Metal.Weighted>
-0.0000

> <Gold.Chemscore.Lipo.Weighted>
-8.2187

> <Gold.Chemscore.Internal_Hbond.Weighted>
0.0000

> <Gold.Chemscore.DEClash.Weighted>
0.1610

> <Gold.Chemscore.DEInternal.Weighted>
4.5413

> <Gold.Chemscore.Rot.Weighted>
4.4324

> <Gold.Chemscore.Internal.Correction.Weighted>
   9.000000E+99

> <Gold.Protein.RotatedTorsions>
[ 6907 6896 6895 6894 ] final  169.57 input  -60.11 | X-H torsion
[ 7974 7965 7964 7962 ] final    2.98 input  175.53 | X-H torsion
[ 8008 7997 7996 7995 ] final  -72.53 input   59.86 | X-H torsion
[ 10167 10162 10161 10158 ] final -119.12 input  -65.29 | X-H torsion
[ 10718 10713 10712 10709 ] final  -62.48 input   66.30 | X-H torsion
[ 10763 10752 10751 10750 ] final  -26.74 input  -60.55 | X-H torsion
[ 11005 11000 10999 10996 ] final   79.68 input  -57.11 | X-H torsion

> <Gold.Protein.ActiveResidues>
 VAL166  LYS551  ARG553  GLY616  TRP617  ASP618  TYR619  PRO620  LYS621  CYS622 
 ASP623  PHE694  ASN695  SER759  ASP760  ASP761  ALA762  ILE779  LEU786  VAL792 
 PHE793  MET794  SER795  GLU796  ALA797  LYS798  CYS799  TRP800  GLU811  SER814 

> <Gold.Protein.RotatedAtoms>
  151.8299  133.3407  159.3609 H   0  0  0  0  0  0  0  0  0  0  0  0  # atno 6907 bound_to 6896
  150.7267  134.5493  159.5796 H   0  0  0  0  0  0  0  0  0  0  0  0  # atno 6908 bound_to 6896
  152.2944  134.7685  160.0422 H   0  0  0  0  0  0  0  0  0  0  0  0  # atno 6909 bound_to 6896
  146.2445  140.0755  142.8360 H   0  0  0  0  0  0  0  0  0  0  0  0  # atno 7974 bound_to 7965
  154.5173  140.0795  156.8106 H   0  0  0  0  0  0  0  0  0  0  0  0  # atno 8008 bound_to 7997
  155.3651  140.3420  155.4223 H   0  0  0  0  0  0  0  0  0  0  0  0  # atno 8009 bound_to 7997
  156.1642  140.1598  156.8547 H   0  0  0  0  0  0  0  0  0  0  0  0  # atno 8010 bound_to 7997
  140.0500  143.5069  152.2086 H   0  0  0  0  0  0  0  0  0  0  0  0  # atno 10167 bound_to 10162
  156.0852  130.4209  150.1142 H   0  0  0  0  0  0  0  0  0  0  0  0  # atno 10718 bound_to 10713
  153.7208  135.6945  153.5013 H   0  0  0  0  0  0  0  0  0  0  0  0  # atno 10763 bound_to 10752
  153.2205  135.4371  155.0482 H   0  0  0  0  0  0  0  0  0  0  0  0  # atno 10764 bound_to 10752
  154.8285  135.3459  154.6742 H   0  0  0  0  0  0  0  0  0  0  0  0  # atno 10765 bound_to 10752
  139.9163  134.7861  156.1810 H   0  0  0  0  0  0  0  0  0  0  0  0  # atno 11005 bound_to 11000
  145.0779  140.9201  143.4843 LP  0  0  0  0  0  0  0  0  0  0  0  0  # atno 17320 bound_to 7965
  145.0902  139.2896  143.5739 LP  0  0  0  0  0  0  0  0  0  0  0  0  # atno 17321 bound_to 7965
  139.5959  144.7566  151.3288 LP  0  0  0  0  0  0  0  0  0  0  0  0  # atno 17342 bound_to 10162
  140.7221  143.7107  150.7772 LP  0  0  0  0  0  0  0  0  0  0  0  0  # atno 17343 bound_to 10162
  156.9164  130.9668  151.3555 LP  0  0  0  0  0  0  0  0  0  0  0  0  # atno 17370 bound_to 10713
  157.5984  130.8494  149.8764 LP  0  0  0  0  0  0  0  0  0  0  0  0  # atno 17371 bound_to 10713
  141.0642  133.6827  156.2012 LP  0  0  0  0  0  0  0  0  0  0  0  0  # atno 17394 bound_to 11000
  140.6612  134.4966  157.5583 LP  0  0  0  0  0  0  0  0  0  0  0  0  # atno 17395 bound_to 11000

$$$$
