AV-unprocessed.smi:741|AV-procd|sdf|3555|dock3
  -GOLD-   22720 0553D 1   1.00000     0.00000
 Structure written by MMmdl.
 42 43  0  0  0  0  0  0  0  0  2 V2000
  157.2599  139.8627  158.1649 C   0  0  0  0  0  0  0  0  0  0  0  0
  156.1724  138.7854  158.2876 C   0  0  0  0  0  0  0  0  0  0  0  0
  155.4084  138.8226  159.6252 C   0  0  1  0  0  0  0  0  0  0  0  0
  156.3167  138.3883  160.7971 C   0  0  0  0  0  0  0  0  0  0  0  0
  155.5730  138.2029  162.0671 N   0  3  0  0  0  0  0  0  0  0  0  0
  154.4578  137.2359  162.0055 C   0  0  0  0  0  0  0  0  0  0  0  0
  154.2041  136.8491  163.4579 C   0  0  0  0  0  0  0  0  0  0  0  0
  155.6081  136.8166  164.0553 C   0  0  0  0  0  0  0  0  0  0  0  0
  156.4146  137.8272  163.2268 C   0  0  0  0  0  0  0  0  0  0  0  0
  154.8753  140.1683  159.8513 N   0  0  0  0  0  0  0  0  0  0  0  0
  153.7902  140.6982  159.2678 C   0  0  0  0  0  0  0  0  0  0  0  0
  153.0737  140.0784  158.4830 O   0  0  0  0  0  0  0  0  0  0  0  0
  153.5871  141.9622  159.6777 N   0  0  0  0  0  0  0  0  0  0  0  0
  152.5541  142.8633  159.3018 C   0  0  0  0  0  0  0  0  0  0  0  0
  152.6280  144.1851  159.7882 C   0  0  0  0  0  0  0  0  0  0  0  0
  151.6247  145.1027  159.4175 C   0  0  0  0  0  0  0  0  0  0  0  0
  150.5920  144.7854  158.6086 N   0  0  0  0  0  0  0  0  0  0  0  0
  150.5305  143.5241  158.1318 C   0  0  0  0  0  0  0  0  0  0  0  0
  151.4804  142.5298  158.4410 C   0  0  0  0  0  0  0  0  0  0  0  0
  157.7338  139.8224  157.1841 H   0  0  0  0  0  0  0  0  0  0  0  0
  158.0425  139.7320  158.9125 H   0  0  0  0  0  0  0  0  0  0  0  0
  156.8404  140.8615  158.2891 H   0  0  0  0  0  0  0  0  0  0  0  0
  155.4652  138.9161  157.4676 H   0  0  0  0  0  0  0  0  0  0  0  0
  156.6220  137.8019  158.1443 H   0  0  0  0  0  0  0  0  0  0  0  0
  154.5830  138.1135  159.5407 H   0  0  0  0  0  0  0  0  0  0  0  0
  156.8512  137.4689  160.5533 H   0  0  0  0  0  0  0  0  0  0  0  0
  157.0798  139.1542  160.9461 H   0  0  0  0  0  0  0  0  0  0  0  0
  153.5729  137.6555  161.5273 H   0  0  0  0  0  0  0  0  0  0  0  0
  154.7607  136.3535  161.4392 H   0  0  0  0  0  0  0  0  0  0  0  0
  153.6089  137.6210  163.9480 H   0  0  0  0  0  0  0  0  0  0  0  0
  153.6762  135.9003  163.5595 H   0  0  0  0  0  0  0  0  0  0  0  0
  155.6111  137.0500  165.1205 H   0  0  0  0  0  0  0  0  0  0  0  0
  156.0349  135.8200  163.9342 H   0  0  0  0  0  0  0  0  0  0  0  0
  157.3595  137.3823  162.9110 H   0  0  0  0  0  0  0  0  0  0  0  0
  156.6458  138.7230  163.8038 H   0  0  0  0  0  0  0  0  0  0  0  0
  155.3979  140.7550  160.4860 H   0  0  0  0  0  0  0  0  0  0  0  0
  154.2197  142.3062  160.3852 H   0  0  0  0  0  0  0  0  0  0  0  0
  153.4338  144.4952  160.4375 H   0  0  0  0  0  0  0  0  0  0  0  0
  151.6540  146.1198  159.7799 H   0  0  0  0  0  0  0  0  0  0  0  0
  149.7005  143.2998  157.4783 H   0  0  0  0  0  0  0  0  0  0  0  0
  151.3724  141.5492  158.0045 H   0  0  0  0  0  0  0  0  0  0  0  0
  155.1612  139.0942  162.3049 H   0  0  0  0  0  0  0  0  0  0  0  0
  1  2  1  0  0  0  0
  1 20  1  0  0  0  0
  1 21  1  0  0  0  0
  1 22  1  0  0  0  0
  2  3  1  0  0  0  0
  2 23  1  0  0  0  0
  2 24  1  0  0  0  0
  3  4  1  0  0  0  0
  3 10  1  0  0  0  0
  3 25  1  0  0  0  0
  4  5  1  0  0  0  0
  4 26  1  0  0  0  0
  4 27  1  0  0  0  0
  5  9  1  0  0  0  0
  5  6  1  0  0  0  0
  5 42  1  0  0  0  0
  6  7  1  0  0  0  0
  6 28  1  0  0  0  0
  6 29  1  0  0  0  0
  7  8  1  0  0  0  0
  7 30  1  0  0  0  0
  7 31  1  0  0  0  0
  8  9  1  0  0  0  0
  8 32  1  0  0  0  0
  8 33  1  0  0  0  0
  9 34  1  0  0  0  0
  9 35  1  0  0  0  0
 10 11  1  0  0  0  0
 10 36  1  0  0  0  0
 11 12  2  0  0  0  0
 11 13  1  0  0  0  0
 13 14  1  0  0  0  0
 13 37  1  0  0  0  0
 14 19  1  0  0  0  0
 14 15  2  0  0  0  0
 15 16  1  0  0  0  0
 15 38  1  0  0  0  0
 16 17  2  0  0  0  0
 16 39  1  0  0  0  0
 17 18  1  0  0  0  0
 18 19  2  0  0  0  0
 18 40  1  0  0  0  0
 19 41  1  0  0  0  0
M  CHG  1   5   1
M  END
> <s_m_source_file>
AV-unprocessed.smi

> <i_m_source_file_index>
741

> <i_lp_mmshare_version>
43012

> <i_f3d_flags>
0

> <s_epik_input>
W0NIMl0xW0NIMl1bQ0gyXVtDSDJdTjFbQ0gyXVtDQEBIXShbQ0gyXVtDSDNdKVtOSF1DKD1PKVtOSF1jMltjSF1bY0hdbltjSF1bY0hdMg==

> <s_epik_cmdline>
J2VwaWtfcHl0aG9uJywgJy1waCcsICc3LjAnLCAnLXRuJywgJzgnLCAnLW1hJywgJzIwMCcsICctbWV0YWxfYmluZGluZycsICctaW1hZScsICc8aW5maWxlLm1hZT4nLCAnLW9tYWUnLCAnPG91dGZpbGUubWFlPic=

> <r_epik_Ionization_Penalty>
0.101421

> <r_epik_Ionization_Penalty_Charging>
0.00180027

> <r_epik_Ionization_Penalty_Neutral>
0.0996204

> <r_epik_State_Penalty>
0.0910414

> <r_epik_Charging_Adjusted_Penalty>
0.0928416

> <i_epik_Tot_Q>
1

> <i_epik_Tot_abs_Q>
1

> <r_epik_Metal_State_Penalty>
0.076772

> <b_epik_Metal_Only>
0

> <s_lp_Force_Field>
OPLS_2005

> <r_lp_Energy>
40.7955

> <b_lp_Chiralities_Consistent>
1

> <s_lp_Variant>
AV-unprocessed.smi:741-2

> <Gold.Version>
5.8.1

> <Gold.Id.Protein>
6NUR|6NUR_protein|mol2

> <Gold.PLP.Fitness>
40.5273

> <Gold.PLP.PLP>
-35.5320

> <Gold.PLP.part.hbond>
-1.0000

> <Gold.PLP.part.metal>
0.0000

> <Gold.PLP.part.buried>
-4.2477

> <Gold.PLP.part.nonpolar>
-29.8427

> <Gold.PLP.part.repulsive>
0.2836

> <Gold.PLP.ligand.clash>
0.0000

> <Gold.PLP.ligand.torsion>
0.3328

> <Gold.PLP.Chemscore.Hbond>
0.9600

> <Gold.PLP.Chemscore.CHOScore>
0.9152

> <Gold.PLP.Chemscore.Metal>
0.0000

> <Gold.Chemscore.Hbonds>
donor molecule, donor type, donor heavy atom, donor atom, acceptor molecule, acceptor atom, score
      P1  H  7997  8008       L1    12  0.21
      L1  C    18    40       P1  8028  0.91

> <Gold.PLP.Chemscore.Internal.Correction>
0.0353

> <Gold.Rescore>
     Score         DG    S(hbond)    S(metal)    S(lipo)     H(rot)  DE(clash)    DE(int)     intcor
     15.28     -17.00       0.93        0.00     106.69       1.59       0.01       1.71       ----

> <Gold.Chemscore.Fitness>
15.2806

> <Gold.Chemscore.DG>
-16.9959

> <Gold.Chemscore.ZeroCoef>
-5.4800

> <Gold.Chemscore.Hbond>
0.9259

> <Gold.Chemscore.Metal>
0.0000

> <Gold.Chemscore.Lipo>
106.6920

> <Gold.Chemscore.Internal_Hbond>
0.0000

> <Gold.Chemscore.DEClash>
0.0069

> <Gold.Chemscore.DEInternal>
1.7084

> <Gold.Chemscore.Rot>
1.5858

> <Gold.Chemscore.Internal.Correction>
   9.000000E+99

> <Gold.Chemscore.Hbond.Weighted>
-3.0925

> <Gold.Chemscore.Metal.Weighted>
-0.0000

> <Gold.Chemscore.Lipo.Weighted>
-12.4830

> <Gold.Chemscore.Internal_Hbond.Weighted>
0.0000

> <Gold.Chemscore.DEClash.Weighted>
0.0069

> <Gold.Chemscore.DEInternal.Weighted>
1.7084

> <Gold.Chemscore.Rot.Weighted>
4.0596

> <Gold.Chemscore.Internal.Correction.Weighted>
   9.000000E+99

> <Gold.Protein.RotatedTorsions>
[ 6907 6896 6895 6894 ] final  122.40 input  -60.11 | X-H torsion
[ 7974 7965 7964 7962 ] final  174.66 input  175.53 | X-H torsion
[ 8008 7997 7996 7995 ] final  -99.36 input   59.86 | X-H torsion
[ 10167 10162 10161 10158 ] final   54.57 input  -65.29 | X-H torsion
[ 10718 10713 10712 10709 ] final   -8.60 input   66.30 | X-H torsion
[ 10763 10752 10751 10750 ] final   75.41 input  -60.55 | X-H torsion
[ 11005 11000 10999 10996 ] final  -78.32 input  -57.11 | X-H torsion

> <Gold.Protein.ActiveResidues>
 VAL166  LYS551  ARG553  GLY616  TRP617  ASP618  TYR619  PRO620  LYS621  CYS622 
 ASP623  PHE694  ASN695  SER759  ASP760  ASP761  ALA762  ILE779  LEU786  VAL792 
 PHE793  MET794  SER795  GLU796  ALA797  LYS798  CYS799  TRP800  GLU811  SER814 

> <Gold.Protein.RotatedAtoms>
  152.4246  133.7173  159.6513 H   0  0  0  0  0  0  0  0  0  0  0  0  # atno 6907 bound_to 6896
  150.8122  133.8390  159.3183 H   0  0  0  0  0  0  0  0  0  0  0  0  # atno 6908 bound_to 6896
  151.6097  135.1043  160.0130 H   0  0  0  0  0  0  0  0  0  0  0  0  # atno 6909 bound_to 6896
  144.7217  139.9830  143.6439 H   0  0  0  0  0  0  0  0  0  0  0  0  # atno 7974 bound_to 7965
  154.8138  140.0448  157.1361 H   0  0  0  0  0  0  0  0  0  0  0  0  # atno 8008 bound_to 7997
  154.9338  140.3043  155.5134 H   0  0  0  0  0  0  0  0  0  0  0  0  # atno 8009 bound_to 7997
  156.2974  140.2318  156.4401 H   0  0  0  0  0  0  0  0  0  0  0  0  # atno 8010 bound_to 7997
  140.2287  144.3710  150.6422 H   0  0  0  0  0  0  0  0  0  0  0  0  # atno 10167 bound_to 10162
  156.7003  130.5091  149.5919 H   0  0  0  0  0  0  0  0  0  0  0  0  # atno 10718 bound_to 10713
  153.0653  135.4989  154.8185 H   0  0  0  0  0  0  0  0  0  0  0  0  # atno 10763 bound_to 10752
  154.6944  135.2990  154.9436 H   0  0  0  0  0  0  0  0  0  0  0  0  # atno 10764 bound_to 10752
  154.0180  135.6746  153.4823 H   0  0  0  0  0  0  0  0  0  0  0  0  # atno 10765 bound_to 10752
  141.1664  133.7058  156.7954 H   0  0  0  0  0  0  0  0  0  0  0  0  # atno 11005 bound_to 11000
  146.0473  139.3477  143.0661 LP  0  0  0  0  0  0  0  0  0  0  0  0  # atno 17320 bound_to 7965
  145.8260  140.9655  143.0874 LP  0  0  0  0  0  0  0  0  0  0  0  0  # atno 17321 bound_to 7965
  140.6201  143.2175  151.6712 LP  0  0  0  0  0  0  0  0  0  0  0  0  # atno 17342 bound_to 10162
  139.5117  144.3499  152.0662 LP  0  0  0  0  0  0  0  0  0  0  0  0  # atno 17343 bound_to 10162
  156.1734  130.6452  151.0865 LP  0  0  0  0  0  0  0  0  0  0  0  0  # atno 17370 bound_to 10713
  157.6976  131.0788  150.6922 LP  0  0  0  0  0  0  0  0  0  0  0  0  # atno 17371 bound_to 10713
  140.2295  134.8696  157.3461 LP  0  0  0  0  0  0  0  0  0  0  0  0  # atno 17394 bound_to 11000
  140.1906  134.4377  155.7718 LP  0  0  0  0  0  0  0  0  0  0  0  0  # atno 17395 bound_to 11000

$$$$
