AV-unprocessed.smi:2613|AV-procd|sdf|10213|dock5
  -GOLD-   2272014223D 1   1.00000     0.00000
 Structure written by MMmdl.
 28 29  0  0  0  0  0  0  0  0  3 V2000
  146.5077  139.3528  152.0538 C   0  0  0  0  0  0  0  0  0  0  0  0
  147.6961  139.4176  152.9527 C   0  0  0  0  0  0  0  0  0  0  0  0
  148.5752  138.4051  153.1970 N   0  3  0  0  0  0  0  0  0  0  0  0
  149.5539  138.8362  154.0939 C   0  0  0  0  0  0  0  0  0  0  0  0
  150.6467  138.1700  154.6368 C   0  0  0  0  0  0  0  0  0  0  0  0
  151.4648  138.8937  155.5381 C   0  0  0  0  0  0  0  0  0  0  0  0
  152.6601  138.2257  156.1622 C   0  0  0  0  0  0  0  0  0  0  0  0
  153.4276  138.9057  156.8785 O   0  0  0  0  0  0  0  0  0  0  0  0
  152.8490  137.0078  155.9463 O   0  5  0  0  0  0  0  0  0  0  0  0
  151.1592  140.2402  155.8536 C   0  0  0  0  0  0  0  0  0  0  0  0
  150.0482  140.9060  155.2955 C   0  0  0  0  0  0  0  0  0  0  0  0
  149.2576  140.1756  154.4120 C   0  0  0  0  0  0  0  0  0  0  0  0
  148.1060  140.4929  153.6838 N   0  0  0  0  0  0  0  0  0  0  0  0
  147.5302  141.8385  153.7988 C   0  0  0  0  0  0  0  0  0  0  0  0
  146.4173  141.8958  154.8542 C   0  0  0  0  0  0  0  0  0  0  0  0
  145.5534  140.7933  154.6891 O   0  0  0  0  0  0  0  0  0  0  0  0
  146.3798  138.3445  151.6591 H   0  0  0  0  0  0  0  0  0  0  0  0
  146.6319  140.0405  151.2172 H   0  0  0  0  0  0  0  0  0  0  0  0
  145.6063  139.6287  152.6014 H   0  0  0  0  0  0  0  0  0  0  0  0
  150.8599  137.1421  154.3812 H   0  0  0  0  0  0  0  0  0  0  0  0
  151.7872  140.7873  156.5422 H   0  0  0  0  0  0  0  0  0  0  0  0
  149.8322  141.9326  155.5513 H   0  0  0  0  0  0  0  0  0  0  0  0
  148.3291  142.5457  154.0252 H   0  0  0  0  0  0  0  0  0  0  0  0
  147.1381  142.1169  152.8199 H   0  0  0  0  0  0  0  0  0  0  0  0
  146.8387  141.8696  155.8597 H   0  0  0  0  0  0  0  0  0  0  0  0
  145.8400  142.8164  154.7641 H   0  0  0  0  0  0  0  0  0  0  0  0
  145.0907  140.8915  153.8708 H   0  0  0  0  0  0  0  0  0  0  0  0
  148.5091  137.4850  152.7811 H   0  0  0  0  0  0  0  0  0  0  0  0
  1  2  1  0  0  0  0
  1 17  1  0  0  0  0
  1 18  1  0  0  0  0
  1 19  1  0  0  0  0
  2 13  1  0  0  0  0
  2  3  2  0  0  0  0
  3  4  1  0  0  0  0
  3 28  1  0  0  0  0
  4 12  2  0  0  0  0
  4  5  1  0  0  0  0
  5  6  2  0  0  0  0
  5 20  1  0  0  0  0
  6  7  1  0  0  0  0
  6 10  1  0  0  0  0
  7  8  2  0  0  0  0
  7  9  1  0  0  0  0
 10 11  2  0  0  0  0
 10 21  1  0  0  0  0
 11 12  1  0  0  0  0
 11 22  1  0  0  0  0
 12 13  1  0  0  0  0
 13 14  1  0  0  0  0
 14 15  1  0  0  0  0
 14 23  1  0  0  0  0
 14 24  1  0  0  0  0
 15 16  1  0  0  0  0
 15 25  1  0  0  0  0
 15 26  1  0  0  0  0
 16 27  1  0  0  0  0
M  CHG  1   3   1
M  CHG  1   9  -1
M  END
> <s_m_source_file>
AV-unprocessed.smi

> <i_m_source_file_index>
2613

> <i_lp_mmshare_version>
43012

> <i_f3d_flags>
0

> <s_epik_input>
W09IXVtDSDJdW0NIMl1uKGMobjEpW0NIM10pYyhjMTIpW2NIXVtjSF1jKFtjSF0yKUMoPU8pW09IXQ==

> <s_epik_cmdline>
J2VwaWtfcHl0aG9uJywgJy1waCcsICc3LjAnLCAnLXRuJywgJzgnLCAnLW1hJywgJzIwMCcsICctbWV0YWxfYmluZGluZycsICctaW1hZScsICc8aW5maWxlLm1hZT4nLCAnLW9tYWUnLCAnPG91dGZpbGUubWFlPic=

> <r_epik_Ionization_Penalty>
0.929425

> <r_epik_Ionization_Penalty_Charging>
0.929425

> <r_epik_Ionization_Penalty_Neutral>
5.76694e-08

> <r_epik_State_Penalty>
0.971794

> <r_epik_Charging_Adjusted_Penalty>
1.90122

> <i_epik_Tot_Q>
0

> <i_epik_Tot_abs_Q>
2

> <r_epik_Metal_State_Penalty>
4.93694

> <b_epik_Metal_Only>
0

> <s_lp_Force_Field>
OPLS_2005

> <r_lp_Energy>
5.88702

> <b_lp_Chiralities_Consistent>
1

> <s_lp_Variant>
AV-unprocessed.smi:2613-2

> <Gold.Version>
5.8.1

> <Gold.Id.Protein>
6NUR|6NUR_protein|mol2

> <Gold.PLP.Fitness>
50.5467

> <Gold.PLP.PLP>
-32.0526

> <Gold.PLP.part.hbond>
-4.8700

> <Gold.PLP.part.metal>
0.0000

> <Gold.PLP.part.buried>
3.5213

> <Gold.PLP.part.nonpolar>
-30.5036

> <Gold.PLP.part.repulsive>
0.0627

> <Gold.PLP.ligand.clash>
0.0000

> <Gold.PLP.ligand.torsion>
0.4137

> <Gold.PLP.Chemscore.Hbond>
6.4400

> <Gold.PLP.Chemscore.CHOScore>
0.0000

> <Gold.PLP.Chemscore.Metal>
0.0000

> <Gold.Chemscore.Hbonds>
donor molecule, donor type, donor heavy atom, donor atom, acceptor molecule, acceptor atom, score
      L1  H     3    28       P1  7948  2.00
      L1  H    16    27       P1 10175  1.00
      P1  H  7997  8010       L1     8  1.95
      P1  H 10752 10765       L1     9  1.41

> <Gold.PLP.Chemscore.Internal.Correction>
0.0014

> <Gold.Rescore>
     Score         DG    S(hbond)    S(metal)    S(lipo)     H(rot)  DE(clash)    DE(int)     intcor
     18.16     -20.03       3.71        0.00      59.01       1.86       1.46       0.40       ----

> <Gold.Chemscore.Fitness>
18.1615

> <Gold.Chemscore.DG>
-20.0271

> <Gold.Chemscore.ZeroCoef>
-5.4800

> <Gold.Chemscore.Hbond>
3.7123

> <Gold.Chemscore.Metal>
0.0000

> <Gold.Chemscore.Lipo>
59.0091

> <Gold.Chemscore.Internal_Hbond>
0.0000

> <Gold.Chemscore.DEClash>
1.4609

> <Gold.Chemscore.DEInternal>
0.4047

> <Gold.Chemscore.Rot>
1.8579

> <Gold.Chemscore.Internal.Correction>
   9.000000E+99

> <Gold.Chemscore.Hbonds>
donor molecule, donor type, donor heavy atom, donor atom, acceptor molecule, acceptor atom, score
      L1  H     3    28       P1  7948  0.97
      L1  H    16    27       P1 10175  0.85
      P1  H  7997  8010       L1     8  0.90
      P1  H 10752 10765       L1     9  0.70

> <Gold.Chemscore.Hbond.Weighted>
-12.3992

> <Gold.Chemscore.Metal.Weighted>
-0.0000

> <Gold.Chemscore.Lipo.Weighted>
-6.9041

> <Gold.Chemscore.Internal_Hbond.Weighted>
0.0000

> <Gold.Chemscore.DEClash.Weighted>
1.4609

> <Gold.Chemscore.DEInternal.Weighted>
0.4047

> <Gold.Chemscore.Rot.Weighted>
4.7561

> <Gold.Chemscore.Internal.Correction.Weighted>
   9.000000E+99

> <Gold.Protein.RotatedTorsions>
[ 6907 6896 6895 6894 ] final  106.63 input  -60.11 | X-H torsion
[ 7974 7965 7964 7962 ] final -132.27 input  175.53 | X-H torsion
[ 8008 7997 7996 7995 ] final   60.88 input   59.86 | X-H torsion
[ 10167 10162 10161 10158 ] final  -37.19 input  -65.29 | X-H torsion
[ 10718 10713 10712 10709 ] final  -87.24 input   66.30 | X-H torsion
[ 10763 10752 10751 10750 ] final -141.87 input  -60.55 | X-H torsion
[ 11005 11000 10999 10996 ] final  170.35 input  -57.11 | X-H torsion

> <Gold.Protein.ActiveResidues>
 VAL166  LYS551  ARG553  GLY616  TRP617  ASP618  TYR619  PRO620  LYS621  CYS622 
 ASP623  PHE694  ASN695  SER759  ASP760  ASP761  ALA762  ILE779  LEU786  VAL792 
 PHE793  MET794  SER795  GLU796  ALA797  LYS798  CYS799  TRP800  GLU811  SER814 

> <Gold.Protein.RotatedAtoms>
  152.5186  133.9353  159.7600 H   0  0  0  0  0  0  0  0  0  0  0  0  # atno 6907 bound_to 6896
  150.9695  133.6351  159.2747 H   0  0  0  0  0  0  0  0  0  0  0  0  # atno 6908 bound_to 6896
  151.3567  135.0901  159.9474 H   0  0  0  0  0  0  0  0  0  0  0  0  # atno 6909 bound_to 6896
  144.9301  140.7118  143.4911 H   0  0  0  0  0  0  0  0  0  0  0  0  # atno 7974 bound_to 7965
  155.5894  140.3492  155.4562 H   0  0  0  0  0  0  0  0  0  0  0  0  # atno 8008 bound_to 7997
  156.0313  140.1275  157.0280 H   0  0  0  0  0  0  0  0  0  0  0  0  # atno 8009 bound_to 7997
  154.4353  140.1043  156.6089 H   0  0  0  0  0  0  0  0  0  0  0  0  # atno 8010 bound_to 7997
  140.7124  143.3358  151.2465 H   0  0  0  0  0  0  0  0  0  0  0  0  # atno 10167 bound_to 10162
  155.9986  130.4793  150.4837 H   0  0  0  0  0  0  0  0  0  0  0  0  # atno 10718 bound_to 10713
  154.8530  135.3512  154.5937 H   0  0  0  0  0  0  0  0  0  0  0  0  # atno 10763 bound_to 10752
  153.6546  135.6992  153.5202 H   0  0  0  0  0  0  0  0  0  0  0  0  # atno 10764 bound_to 10752
  153.2866  135.4247  155.1086 H   0  0  0  0  0  0  0  0  0  0  0  0  # atno 10765 bound_to 10752
  140.3074  134.7545  157.3964 H   0  0  0  0  0  0  0  0  0  0  0  0  # atno 11005 bound_to 11000
  145.3156  139.1804  143.4615 LP  0  0  0  0  0  0  0  0  0  0  0  0  # atno 17320 bound_to 7965
  146.3243  140.3166  142.8630 LP  0  0  0  0  0  0  0  0  0  0  0  0  # atno 17321 bound_to 7965
  139.6853  143.9784  152.2831 LP  0  0  0  0  0  0  0  0  0  0  0  0  # atno 17342 bound_to 10162
  139.9428  144.6671  150.8250 LP  0  0  0  0  0  0  0  0  0  0  0  0  # atno 17343 bound_to 10162
  157.2839  131.0612  151.2179 LP  0  0  0  0  0  0  0  0  0  0  0  0  # atno 17370 bound_to 10713
  157.3216  130.6940  149.6272 LP  0  0  0  0  0  0  0  0  0  0  0  0  # atno 17371 bound_to 10713
  140.1055  134.5415  155.8313 LP  0  0  0  0  0  0  0  0  0  0  0  0  # atno 17394 bound_to 11000
  141.2115  133.6708  156.6590 LP  0  0  0  0  0  0  0  0  0  0  0  0  # atno 17395 bound_to 11000

$$$$
