AV-unprocessed.smi:3241|AV-procd|sdf|12386|dock9
  -GOLD-   2272018253D 1   1.00000     0.00000
 Structure written by MMmdl.
 44 45  0  0  0  0  0  0  0  0  2 V2000
  153.1127  141.3785  160.1964 C   0  0  0  0  0  0  0  0  0  0  0  0
  152.3833  142.6818  159.8359 C   0  0  1  0  0  0  0  0  0  0  0  0
  153.2835  143.6284  159.0173 C   0  0  0  0  0  0  0  0  0  0  0  0
  152.5731  144.9559  158.7106 C   0  0  0  0  0  0  0  0  0  0  0  0
  151.2350  144.7203  157.9944 C   0  0  0  0  0  0  0  0  0  0  0  0
  150.3308  143.7676  158.7954 C   0  0  0  0  0  0  0  0  0  0  0  0
  151.0358  142.4361  159.1156 C   0  0  1  0  0  0  0  0  0  0  0  0
  151.2657  141.7570  157.8868 O   0  0  0  0  0  0  0  0  0  0  0  0
  150.1303  141.6550  157.0415 C   0  0  0  0  0  0  0  0  0  0  0  0
  150.6036  141.8475  155.5981 C   0  0  0  0  0  0  0  0  0  0  0  0
  149.4431  141.9462  154.6929 N   0  3  0  0  0  0  0  0  0  0  0  0
  148.4883  140.8249  154.7855 C   0  0  0  0  0  0  0  0  0  0  0  0
  147.3366  140.9889  153.7803 C   0  0  0  0  0  0  0  0  0  0  0  0
  146.7517  139.7133  153.4047 N   0  0  0  0  0  0  0  0  0  0  0  0
  146.7760  139.0882  152.1757 C   0  0  0  0  0  0  0  0  0  0  0  0
  146.1080  137.9047  152.3090 C   0  0  0  0  0  0  0  0  0  0  0  0
  145.7048  137.8947  153.6735 C   0  0  0  0  0  0  0  0  0  0  0  0
  146.0930  138.9777  154.3274 N   0  0  0  0  0  0  0  0  0  0  0  0
  153.4193  140.8310  159.3054 H   0  0  0  0  0  0  0  0  0  0  0  0
  152.4765  140.7231  160.7917 H   0  0  0  0  0  0  0  0  0  0  0  0
  154.0109  141.5828  160.7798 H   0  0  0  0  0  0  0  0  0  0  0  0
  152.1571  143.1835  160.7782 H   0  0  0  0  0  0  0  0  0  0  0  0
  154.2080  143.8275  159.5605 H   0  0  0  0  0  0  0  0  0  0  0  0
  153.5737  143.1475  158.0824 H   0  0  0  0  0  0  0  0  0  0  0  0
  152.3991  145.4998  159.6397 H   0  0  0  0  0  0  0  0  0  0  0  0
  153.2162  145.5888  158.0983 H   0  0  0  0  0  0  0  0  0  0  0  0
  150.7254  145.6717  157.8391 H   0  0  0  0  0  0  0  0  0  0  0  0
  151.4194  144.3053  157.0028 H   0  0  0  0  0  0  0  0  0  0  0  0
  150.0365  144.2519  159.7272 H   0  0  0  0  0  0  0  0  0  0  0  0
  149.4085  143.5795  158.2450 H   0  0  0  0  0  0  0  0  0  0  0  0
  150.3779  141.8547  159.7650 H   0  0  0  0  0  0  0  0  0  0  0  0
  149.6392  140.6865  157.1488 H   0  0  0  0  0  0  0  0  0  0  0  0
  149.4061  142.4239  157.3135 H   0  0  0  0  0  0  0  0  0  0  0  0
  151.1991  142.7574  155.5141 H   0  0  0  0  0  0  0  0  0  0  0  0
  151.2403  141.0133  155.3008 H   0  0  0  0  0  0  0  0  0  0  0  0
  148.9437  142.7949  154.9207 H   0  0  0  0  0  0  0  0  0  0  0  0
  149.0186  139.8916  154.5933 H   0  0  0  0  0  0  0  0  0  0  0  0
  148.0901  140.7652  155.7994 H   0  0  0  0  0  0  0  0  0  0  0  0
  146.5566  141.6339  154.1882 H   0  0  0  0  0  0  0  0  0  0  0  0
  147.7019  141.4757  152.8753 H   0  0  0  0  0  0  0  0  0  0  0  0
  147.2631  139.5308  151.3191 H   0  0  0  0  0  0  0  0  0  0  0  0
  145.9337  137.1594  151.5472 H   0  0  0  0  0  0  0  0  0  0  0  0
  145.1491  137.1362  154.2053 H   0  0  0  0  0  0  0  0  0  0  0  0
  149.7736  142.0181  153.7413 H   0  0  0  0  0  0  0  0  0  0  0  0
  1  2  1  0  0  0  0
  1 19  1  0  0  0  0
  1 20  1  0  0  0  0
  1 21  1  0  0  0  0
  2  7  1  0  0  0  0
  2  3  1  0  0  0  0
  2 22  1  0  0  0  0
  3  4  1  0  0  0  0
  3 23  1  0  0  0  0
  3 24  1  0  0  0  0
  4  5  1  0  0  0  0
  4 25  1  0  0  0  0
  4 26  1  0  0  0  0
  5  6  1  0  0  0  0
  5 27  1  0  0  0  0
  5 28  1  0  0  0  0
  6  7  1  0  0  0  0
  6 29  1  0  0  0  0
  6 30  1  0  0  0  0
  7  8  1  0  0  0  0
  7 31  1  0  0  0  0
  8  9  1  0  0  0  0
  9 10  1  0  0  0  0
  9 32  1  0  0  0  0
  9 33  1  0  0  0  0
 10 11  1  0  0  0  0
 10 34  1  0  0  0  0
 10 35  1  0  0  0  0
 11 12  1  0  0  0  0
 11 36  1  0  0  0  0
 11 44  1  0  0  0  0
 12 13  1  0  0  0  0
 12 37  1  0  0  0  0
 12 38  1  0  0  0  0
 13 14  1  0  0  0  0
 13 39  1  0  0  0  0
 13 40  1  0  0  0  0
 14 18  1  0  0  0  0
 14 15  1  0  0  0  0
 15 16  2  0  0  0  0
 15 41  1  0  0  0  0
 16 17  1  0  0  0  0
 16 42  1  0  0  0  0
 17 18  2  0  0  0  0
 17 43  1  0  0  0  0
M  CHG  1  11   1
M  END
> <s_m_source_file>
AV-unprocessed.smi

> <i_m_source_file_index>
3241

> <i_lp_mmshare_version>
43012

> <i_f3d_flags>
0

> <s_epik_input>
W0NIM11bQ0BASF0xW0NIMl1bQ0gyXVtDSDJdW0NIMl1bQ0BIXTFPW0NIMl1bQ0gyXVtOSF1bQ0gyXVtDSDJdbjJbY0hdW2NIXVtjSF1uMg==

> <s_epik_cmdline>
J2VwaWtfcHl0aG9uJywgJy1waCcsICc3LjAnLCAnLXRuJywgJzgnLCAnLW1hJywgJzIwMCcsICctbWV0YWxfYmluZGluZycsICctaW1hZScsICc8aW5maWxlLm1hZT4nLCAnLW9tYWUnLCAnPG91dGZpbGUubWFlPic=

> <r_lp_tautomer_probability>
1

> <r_epik_Ionization_Penalty>
0.00924946

> <r_epik_Ionization_Penalty_Charging>
0.00924645

> <r_epik_Ionization_Penalty_Neutral>
3.00629e-06

> <r_epik_State_Penalty>
0.0070118

> <r_epik_Charging_Adjusted_Penalty>
0.0162583

> <i_epik_Tot_Q>
1

> <i_epik_Tot_abs_Q>
1

> <r_epik_Metal_State_Penalty>
0.00702523

> <b_epik_Metal_Only>
0

> <s_lp_Force_Field>
OPLS_2005

> <r_lp_Energy>
14.1188

> <b_lp_Chiralities_Consistent>
1

> <s_lp_Variant>
AV-unprocessed.smi:3241-2

> <Gold.Version>
5.8.1

> <Gold.Id.Protein>
6NUR|6NUR_protein|mol2

> <Gold.PLP.Fitness>
45.6789

> <Gold.PLP.PLP>
-37.8878

> <Gold.PLP.part.hbond>
-1.0000

> <Gold.PLP.part.metal>
0.0000

> <Gold.PLP.part.buried>
-1.7320

> <Gold.PLP.part.nonpolar>
-36.0463

> <Gold.PLP.part.repulsive>
1.1954

> <Gold.PLP.ligand.clash>
0.0000

> <Gold.PLP.ligand.torsion>
0.5318

> <Gold.PLP.Chemscore.Hbond>
2.0000

> <Gold.PLP.Chemscore.CHOScore>
0.8896

> <Gold.PLP.Chemscore.Metal>
0.0000

> <Gold.Chemscore.Hbonds>
donor molecule, donor type, donor heavy atom, donor atom, acceptor molecule, acceptor atom, score
      L1  H    11    36       P1  8028  1.92
      L1  C    15    41       P1  7957  0.94

> <Gold.PLP.Chemscore.Internal.Correction>
0.1857

> <Gold.Rescore>
     Score         DG    S(hbond)    S(metal)    S(lipo)     H(rot)  DE(clash)    DE(int)     intcor
     16.92     -18.24       0.93        0.00     123.90       1.89       0.49       0.82       ----

> <Gold.Chemscore.Fitness>
16.9238

> <Gold.Chemscore.DG>
-18.2356

> <Gold.Chemscore.ZeroCoef>
-5.4800

> <Gold.Chemscore.Hbond>
0.9280

> <Gold.Chemscore.Metal>
0.0000

> <Gold.Chemscore.Lipo>
123.8988

> <Gold.Chemscore.Internal_Hbond>
0.0000

> <Gold.Chemscore.DEClash>
0.4874

> <Gold.Chemscore.DEInternal>
0.8244

> <Gold.Chemscore.Rot>
1.8906

> <Gold.Chemscore.Internal.Correction>
   9.000000E+99

> <Gold.Chemscore.Hbonds>
donor molecule, donor type, donor heavy atom, donor atom, acceptor molecule, acceptor atom, score
      L1  H    11    36       P1  8028  0.87

> <Gold.Chemscore.Hbond.Weighted>
-3.0995

> <Gold.Chemscore.Metal.Weighted>
-0.0000

> <Gold.Chemscore.Lipo.Weighted>
-14.4962

> <Gold.Chemscore.Internal_Hbond.Weighted>
0.0000

> <Gold.Chemscore.DEClash.Weighted>
0.4874

> <Gold.Chemscore.DEInternal.Weighted>
0.8244

> <Gold.Chemscore.Rot.Weighted>
4.8400

> <Gold.Chemscore.Internal.Correction.Weighted>
   9.000000E+99

> <Gold.Protein.RotatedTorsions>
[ 6907 6896 6895 6894 ] final   38.46 input  -60.11 | X-H torsion
[ 7974 7965 7964 7962 ] final -142.87 input  175.53 | X-H torsion
[ 8008 7997 7996 7995 ] final   15.53 input   59.86 | X-H torsion
[ 10167 10162 10161 10158 ] final  168.35 input  -65.29 | X-H torsion
[ 10718 10713 10712 10709 ] final  147.54 input   66.30 | X-H torsion
[ 10763 10752 10751 10750 ] final -169.99 input  -60.55 | X-H torsion
[ 11005 11000 10999 10996 ] final   -9.77 input  -57.11 | X-H torsion

> <Gold.Protein.ActiveResidues>
 VAL166  LYS551  ARG553  GLY616  TRP617  ASP618  TYR619  PRO620  LYS621  CYS622 
 ASP623  PHE694  ASN695  SER759  ASP760  ASP761  ALA762  ILE779  LEU786  VAL792 
 PHE793  MET794  SER795  GLU796  ALA797  LYS798  CYS799  TRP800  GLU811  SER814 

> <Gold.Protein.RotatedAtoms>
  152.1567  134.8945  160.0544 H   0  0  0  0  0  0  0  0  0  0  0  0  # atno 6907 bound_to 6896
  151.9956  133.3802  159.4170 H   0  0  0  0  0  0  0  0  0  0  0  0  # atno 6908 bound_to 6896
  150.6882  134.3811  159.5078 H   0  0  0  0  0  0  0  0  0  0  0  0  # atno 6909 bound_to 6896
  144.8411  140.5905  143.5451 H   0  0  0  0  0  0  0  0  0  0  0  0  # atno 7974 bound_to 7965
  154.8639  140.2948  155.5522 H   0  0  0  0  0  0  0  0  0  0  0  0  # atno 8008 bound_to 7997
  156.3020  140.2473  156.3550 H   0  0  0  0  0  0  0  0  0  0  0  0  # atno 8009 bound_to 7997
  154.8889  140.0395  157.1816 H   0  0  0  0  0  0  0  0  0  0  0  0  # atno 8010 bound_to 7997
  139.4966  144.3823  151.9608 H   0  0  0  0  0  0  0  0  0  0  0  0  # atno 10167 bound_to 10162
  157.3197  131.0902  151.1250 H   0  0  0  0  0  0  0  0  0  0  0  0  # atno 10718 bound_to 10713
  154.6463  135.2905  155.0042 H   0  0  0  0  0  0  0  0  0  0  0  0  # atno 10763 bound_to 10752
  154.1150  135.6556  153.4896 H   0  0  0  0  0  0  0  0  0  0  0  0  # atno 10764 bound_to 10752
  153.0353  135.5274  154.7352 H   0  0  0  0  0  0  0  0  0  0  0  0  # atno 10765 bound_to 10752
  140.7377  133.8696  155.8943 H   0  0  0  0  0  0  0  0  0  0  0  0  # atno 11005 bound_to 11000
  145.4692  139.1505  143.3824 LP  0  0  0  0  0  0  0  0  0  0  0  0  # atno 17320 bound_to 7965
  146.2703  140.4824  142.8817 LP  0  0  0  0  0  0  0  0  0  0  0  0  # atno 17321 bound_to 7965
  140.3260  144.3372  150.5998 LP  0  0  0  0  0  0  0  0  0  0  0  0  # atno 17342 bound_to 10162
  140.5684  143.2183  151.7643 LP  0  0  0  0  0  0  0  0  0  0  0  0  # atno 17343 bound_to 10162
  157.2540  130.6627  149.5944 LP  0  0  0  0  0  0  0  0  0  0  0  0  # atno 17370 bound_to 10713
  155.9685  130.4529  150.5793 LP  0  0  0  0  0  0  0  0  0  0  0  0  # atno 17371 bound_to 10713
  140.9865  134.1336  157.4448 LP  0  0  0  0  0  0  0  0  0  0  0  0  # atno 17394 bound_to 11000
  139.8812  135.0027  156.6142 LP  0  0  0  0  0  0  0  0  0  0  0  0  # atno 17395 bound_to 11000

$$$$
