AV-unprocessed.smi:2942|AV-procd|sdf|11266|dock8
  -GOLD-   2272016153D 1   1.00000     0.00000
 Structure written by MMmdl.
 45 48  0  0  0  0  0  0  0  0  1 V2000
  151.4407  140.0354  155.0006 O   0  0  0  0  0  0  0  0  0  0  0  0
  150.5810  140.3089  155.8392 C   0  0  0  0  0  0  0  0  0  0  0  0
  150.8784  140.4972  157.1351 N   0  0  0  0  0  0  0  0  0  0  0  0
  152.2192  140.4681  157.7100 C   0  0  0  0  0  0  0  0  0  0  0  0
  152.2882  141.0730  159.1284 C   0  0  0  0  0  0  0  0  0  0  0  0
  152.1034  142.5820  159.1645 C   0  0  0  0  0  0  0  0  0  0  0  0
  152.4312  143.3175  160.3232 C   0  0  0  0  0  0  0  0  0  0  0  0
  152.2129  144.7089  160.3192 C   0  0  0  0  0  0  0  0  0  0  0  0
  151.6779  145.3091  159.1631 C   0  0  0  0  0  0  0  0  0  0  0  0
  151.3841  144.4875  158.0568 C   0  0  0  0  0  0  0  0  0  0  0  0
  151.5886  143.1530  158.0513 N   0  0  0  0  0  0  0  0  0  0  0  0
  149.1017  140.4856  155.4240 C   0  0  0  0  0  0  0  0  0  0  0  0
  148.4139  141.4719  156.4051 C   0  0  0  0  0  0  0  0  0  0  0  0
  146.9361  141.6787  156.0089 C   0  0  1  0  0  0  0  0  0  0  0  0
  146.8595  142.2653  154.5843 C   0  0  0  0  0  0  0  0  0  0  0  0
  147.5207  141.2838  153.5943 C   0  0  2  0  0  0  0  0  0  0  0  0
  146.7804  139.9313  153.6292 C   0  0  0  0  0  0  0  0  0  0  0  0
  146.8557  139.3492  155.0552 C   0  0  2  0  0  0  0  0  0  0  0  0
  146.1944  140.3257  156.0512 C   0  0  0  0  0  0  0  0  0  0  0  0
  148.3320  139.1323  155.4501 C   0  0  0  0  0  0  0  0  0  0  0  0
  148.9987  141.0745  153.9867 C   0  0  0  0  0  0  0  0  0  0  0  0
  150.1198  140.7198  157.7633 H   0  0  0  0  0  0  0  0  0  0  0  0
  152.5240  139.4222  157.7532 H   0  0  0  0  0  0  0  0  0  0  0  0
  152.9275  140.9666  157.0469 H   0  0  0  0  0  0  0  0  0  0  0  0
  151.5311  140.6086  159.7610 H   0  0  0  0  0  0  0  0  0  0  0  0
  153.2483  140.8252  159.5838 H   0  0  0  0  0  0  0  0  0  0  0  0
  152.8335  142.8273  161.1973 H   0  0  0  0  0  0  0  0  0  0  0  0
  152.4488  145.3046  161.1886 H   0  0  0  0  0  0  0  0  0  0  0  0
  151.4964  146.3730  159.1250 H   0  0  0  0  0  0  0  0  0  0  0  0
  150.9709  144.9123  157.1540 H   0  0  0  0  0  0  0  0  0  0  0  0
  148.4644  141.0903  157.4260 H   0  0  0  0  0  0  0  0  0  0  0  0
  148.9338  142.4315  156.4123 H   0  0  0  0  0  0  0  0  0  0  0  0
  146.4682  142.3698  156.7107 H   0  0  0  0  0  0  0  0  0  0  0  0
  145.8204  142.4427  154.3042 H   0  0  0  0  0  0  0  0  0  0  0  0
  147.3590  143.2342  154.5474 H   0  0  0  0  0  0  0  0  0  0  0  0
  147.4693  141.6976  152.5868 H   0  0  0  0  0  0  0  0  0  0  0  0
  145.7402  140.0611  153.3279 H   0  0  0  0  0  0  0  0  0  0  0  0
  147.2252  139.2382  152.9139 H   0  0  0  0  0  0  0  0  0  0  0  0
  146.3309  138.3939  155.0831 H   0  0  0  0  0  0  0  0  0  0  0  0
  146.2196  139.9123  157.0602 H   0  0  0  0  0  0  0  0  0  0  0  0
  145.1418  140.4644  155.8015 H   0  0  0  0  0  0  0  0  0  0  0  0
  148.7971  138.4166  154.7703 H   0  0  0  0  0  0  0  0  0  0  0  0
  148.3640  138.6793  156.4420 H   0  0  0  0  0  0  0  0  0  0  0  0
  149.5223  142.0297  153.9201 H   0  0  0  0  0  0  0  0  0  0  0  0
  149.4804  140.4102  153.2675 H   0  0  0  0  0  0  0  0  0  0  0  0
  1  2  2  0  0  0  0
  2  3  1  0  0  0  0
  2 12  1  0  0  0  0
  3  4  1  0  0  0  0
  3 22  1  0  0  0  0
  4  5  1  0  0  0  0
  4 23  1  0  0  0  0
  4 24  1  0  0  0  0
  5  6  1  0  0  0  0
  5 25  1  0  0  0  0
  5 26  1  0  0  0  0
  6 11  1  0  0  0  0
  6  7  2  0  0  0  0
  7  8  1  0  0  0  0
  7 27  1  0  0  0  0
  8  9  2  0  0  0  0
  8 28  1  0  0  0  0
  9 10  1  0  0  0  0
  9 29  1  0  0  0  0
 10 11  2  0  0  0  0
 10 30  1  0  0  0  0
 12 20  1  0  0  0  0
 12 21  1  0  0  0  0
 12 13  1  0  0  0  0
 13 14  1  0  0  0  0
 13 31  1  0  0  0  0
 13 32  1  0  0  0  0
 14 19  1  0  0  0  0
 14 15  1  0  0  0  0
 14 33  1  0  0  0  0
 15 16  1  0  0  0  0
 15 34  1  0  0  0  0
 15 35  1  0  0  0  0
 16 17  1  0  0  0  0
 16 21  1  0  0  0  0
 16 36  1  0  0  0  0
 17 18  1  0  0  0  0
 17 37  1  0  0  0  0
 17 38  1  0  0  0  0
 18 19  1  0  0  0  0
 18 20  1  0  0  0  0
 18 39  1  0  0  0  0
 19 40  1  0  0  0  0
 19 41  1  0  0  0  0
 20 42  1  0  0  0  0
 20 43  1  0  0  0  0
 21 44  1  0  0  0  0
 21 45  1  0  0  0  0
M  END
> <s_m_source_file>
AV-unprocessed.smi

> <i_m_source_file_index>
2942

> <i_lp_mmshare_version>
43012

> <i_f3d_flags>
0

> <s_epik_input>
W0NIMl0xW0NASF0oW0NIMl0yKVtDSDJdW0NASF0oW0NIMl0zKVtDSDJdW0NAQEhdMVtDSDJdQzIzQyg9TylbTkhdW0NIMl1bQ0gyXWM0W2NIXVtjSF1bY0hdW2NIXW40

> <s_epik_cmdline>
J2VwaWtfcHl0aG9uJywgJy1waCcsICc3LjAnLCAnLXRuJywgJzgnLCAnLW1hJywgJzIwMCcsICctbWV0YWxfYmluZGluZycsICctaW1hZScsICc8aW5maWxlLm1hZT4nLCAnLW9tYWUnLCAnPG91dGZpbGUubWFlPic=

> <r_epik_Ionization_Penalty>
0.0283659

> <r_epik_Ionization_Penalty_Charging>
0

> <r_epik_Ionization_Penalty_Neutral>
0.0283659

> <r_epik_State_Penalty>
0.0232723

> <r_epik_Charging_Adjusted_Penalty>
0.0232723

> <i_epik_Tot_Q>
0

> <i_epik_Tot_abs_Q>
0

> <r_epik_Metal_State_Penalty>
0.0222054

> <b_epik_Metal_Only>
0

> <s_lp_Force_Field>
OPLS_2005

> <r_lp_Energy>
35.5919

> <b_lp_Chiralities_Consistent>
1

> <s_lp_Variant>
AV-unprocessed.smi:2942-1

> <Gold.Version>
5.8.1

> <Gold.Id.Protein>
6NUR|6NUR_protein|mol2

> <Gold.PLP.Fitness>
43.2214

> <Gold.PLP.PLP>
-40.0645

> <Gold.PLP.part.hbond>
-1.0000

> <Gold.PLP.part.metal>
0.0000

> <Gold.PLP.part.buried>
-4.8283

> <Gold.PLP.part.nonpolar>
-34.6438

> <Gold.PLP.part.repulsive>
0.1625

> <Gold.PLP.ligand.clash>
0.0382

> <Gold.PLP.ligand.torsion>
1.4090

> <Gold.PLP.Chemscore.Hbond>
1.0000

> <Gold.PLP.Chemscore.CHOScore>
1.0000

> <Gold.PLP.Chemscore.Metal>
0.0000

> <Gold.Chemscore.Hbonds>
donor molecule, donor type, donor heavy atom, donor atom, acceptor molecule, acceptor atom, score
      P1  H  7989  7998       L1     1  1.00
      L1  C    10    30       P1  8028  1.00

> <Gold.PLP.Chemscore.Internal.Correction>
0.0132

> <Gold.Rescore>
     Score         DG    S(hbond)    S(metal)    S(lipo)     H(rot)  DE(clash)    DE(int)     intcor
     16.66     -19.39       0.99        0.00     119.57       1.32       0.22       2.51       ----

> <Gold.Chemscore.Fitness>
16.6581

> <Gold.Chemscore.DG>
-19.3905

> <Gold.Chemscore.ZeroCoef>
-5.4800

> <Gold.Chemscore.Hbond>
0.9920

> <Gold.Chemscore.Metal>
0.0000

> <Gold.Chemscore.Lipo>
119.5669

> <Gold.Chemscore.Internal_Hbond>
0.0000

> <Gold.Chemscore.DEClash>
0.2219

> <Gold.Chemscore.DEInternal>
2.5106

> <Gold.Chemscore.Rot>
1.3250

> <Gold.Chemscore.Internal.Correction>
   9.000000E+99

> <Gold.Chemscore.Hbonds>
donor molecule, donor type, donor heavy atom, donor atom, acceptor molecule, acceptor atom, score
      P1  H  7989  7998       L1     1  0.99

> <Gold.Chemscore.Hbond.Weighted>
-3.3132

> <Gold.Chemscore.Metal.Weighted>
-0.0000

> <Gold.Chemscore.Lipo.Weighted>
-13.9893

> <Gold.Chemscore.Internal_Hbond.Weighted>
0.0000

> <Gold.Chemscore.DEClash.Weighted>
0.2219

> <Gold.Chemscore.DEInternal.Weighted>
2.5106

> <Gold.Chemscore.Rot.Weighted>
3.3920

> <Gold.Chemscore.Internal.Correction.Weighted>
   9.000000E+99

> <Gold.Protein.RotatedTorsions>
[ 6907 6896 6895 6894 ] final   81.50 input  -60.11 | X-H torsion
[ 7974 7965 7964 7962 ] final  -54.04 input  175.53 | X-H torsion
[ 8008 7997 7996 7995 ] final  146.72 input   59.86 | X-H torsion
[ 10167 10162 10161 10158 ] final -132.11 input  -65.29 | X-H torsion
[ 10718 10713 10712 10709 ] final   92.59 input   66.30 | X-H torsion
[ 10763 10752 10751 10750 ] final -102.06 input  -60.55 | X-H torsion
[ 11005 11000 10999 10996 ] final -145.29 input  -57.11 | X-H torsion

> <Gold.Protein.ActiveResidues>
 VAL166  LYS551  ARG553  GLY616  TRP617  ASP618  TYR619  PRO620  LYS621  CYS622 
 ASP623  PHE694  ASN695  SER759  ASP760  ASP761  ALA762  ILE779  LEU786  VAL792 
 PHE793  MET794  SER795  GLU796  ALA797  LYS798  CYS799  TRP800  GLU811  SER814 

> <Gold.Protein.RotatedAtoms>
  152.5270  134.3194  159.9142 H   0  0  0  0  0  0  0  0  0  0  0  0  # atno 6907 bound_to 6896
  151.3143  133.4061  159.2657 H   0  0  0  0  0  0  0  0  0  0  0  0  # atno 6908 bound_to 6896
  151.0012  134.9340  159.8012 H   0  0  0  0  0  0  0  0  0  0  0  0  # atno 6909 bound_to 6896
  145.8901  140.8077  142.9796 H   0  0  0  0  0  0  0  0  0  0  0  0  # atno 7974 bound_to 7965
  156.2847  140.2174  156.5423 H   0  0  0  0  0  0  0  0  0  0  0  0  # atno 8008 bound_to 7997
  154.7360  140.0491  157.0791 H   0  0  0  0  0  0  0  0  0  0  0  0  # atno 8009 bound_to 7997
  155.0292  140.3133  155.4767 H   0  0  0  0  0  0  0  0  0  0  0  0  # atno 8010 bound_to 7997
  139.9119  143.6484  152.2573 H   0  0  0  0  0  0  0  0  0  0  0  0  # atno 10167 bound_to 10162
  157.6958  131.0449  150.3905 H   0  0  0  0  0  0  0  0  0  0  0  0  # atno 10718 bound_to 10713
  154.7705  135.4874  153.9640 H   0  0  0  0  0  0  0  0  0  0  0  0  # atno 10763 bound_to 10752
  153.1362  135.6763  153.9106 H   0  0  0  0  0  0  0  0  0  0  0  0  # atno 10764 bound_to 10752
  153.8795  135.3134  155.3423 H   0  0  0  0  0  0  0  0  0  0  0  0  # atno 10765 bound_to 10752
  140.7938  134.2937  157.5004 H   0  0  0  0  0  0  0  0  0  0  0  0  # atno 11005 bound_to 11000
  144.6730  140.1516  143.7429 LP  0  0  0  0  0  0  0  0  0  0  0  0  # atno 17320 bound_to 7965
  145.8919  139.2380  143.1544 LP  0  0  0  0  0  0  0  0  0  0  0  0  # atno 17321 bound_to 7965
  139.6935  144.7644  151.1397 LP  0  0  0  0  0  0  0  0  0  0  0  0  # atno 17342 bound_to 10162
  140.7683  143.5556  150.9156 LP  0  0  0  0  0  0  0  0  0  0  0  0  # atno 17343 bound_to 10162
  156.4309  130.3972  149.6761 LP  0  0  0  0  0  0  0  0  0  0  0  0  # atno 17370 bound_to 10713
  156.3978  130.7660  151.2665 LP  0  0  0  0  0  0  0  0  0  0  0  0  # atno 17371 bound_to 10713
  139.8728  134.9390  156.3729 LP  0  0  0  0  0  0  0  0  0  0  0  0  # atno 17394 bound_to 11000
  140.9363  133.7545  156.0089 LP  0  0  0  0  0  0  0  0  0  0  0  0  # atno 17395 bound_to 11000

$$$$
