AV-unprocessed.smi:1202|AV-procd|sdf|5031|dock3
  -GOLD-   22720 4 53D 1   1.00000     0.00000
 Structure written by MMmdl.
 44 45  0  0  0  0  0  0  0  0  3 V2000
  146.7682  132.6822  152.6859 C   0  0  0  0  0  0  0  0  0  0  0  0
  146.3648  133.9303  152.0492 N   0  5  0  0  0  0  0  0  0  0  0  0
  145.0849  134.3899  152.0432 C   0  0  0  0  0  0  0  0  0  0  0  0
  144.0611  133.9322  152.5623 O   0  0  0  0  0  0  0  0  0  0  0  0
  144.9631  135.6755  151.2171 C   0  0  0  0  0  0  0  0  0  0  0  0
  145.8975  136.7051  151.7362 N   0  3  2  0  0  0  0  0  0  0  0  0
  145.6944  137.0092  153.1786 C   0  0  0  0  0  0  0  0  0  0  0  0
  146.7689  137.9778  153.6989 C   0  0  0  0  0  0  0  0  0  0  0  0
  146.7983  139.2744  152.8696 C   0  0  1  0  0  0  0  0  0  0  0  0
  147.8866  140.1450  153.3038 N   0  0  0  0  0  0  0  0  0  0  0  0
  147.9694  140.7405  154.5033 C   0  0  0  0  0  0  0  0  0  0  0  0
  147.1246  140.5952  155.3878 O   0  0  0  0  0  0  0  0  0  0  0  0
  149.2100  141.6146  154.7362 C   0  0  0  0  0  0  0  0  0  0  0  0
  150.0661  141.1297  155.8316 N   0  0  0  0  0  0  0  0  0  0  0  0
  150.0311  141.8508  157.0418 C   0  0  0  0  0  0  0  0  0  0  0  0
  150.7732  141.4945  158.1021 C   0  0  0  0  0  0  0  0  0  0  0  0
  151.6258  140.3358  157.9805 C   0  0  0  0  0  0  0  0  0  0  0  0
  151.6698  139.6409  156.8263 C   0  0  0  0  0  0  0  0  0  0  0  0
  150.8619  140.0282  155.6638 C   0  0  0  0  0  0  0  0  0  0  0  0
  150.8981  139.4017  154.6043 O   0  0  0  0  0  0  0  0  0  0  0  0
  146.9694  138.9288  151.3819 C   0  0  0  0  0  0  0  0  0  0  0  0
  145.8891  137.9403  150.9123 C   0  0  0  0  0  0  0  0  0  0  0  0
  147.8400  132.5077  152.5926 H   0  0  0  0  0  0  0  0  0  0  0  0
  146.2753  131.8143  152.2464 H   0  0  0  0  0  0  0  0  0  0  0  0
  146.5439  132.6667  153.7529 H   0  0  0  0  0  0  0  0  0  0  0  0
  145.2268  135.4157  150.1910 H   0  0  0  0  0  0  0  0  0  0  0  0
  143.9431  136.0657  151.1826 H   0  0  0  0  0  0  0  0  0  0  0  0
  144.7014  137.4368  153.3250 H   0  0  0  0  0  0  0  0  0  0  0  0
  145.7313  136.0928  153.7682 H   0  0  0  0  0  0  0  0  0  0  0  0
  146.5776  138.2048  154.7484 H   0  0  0  0  0  0  0  0  0  0  0  0
  147.7441  137.4897  153.6610 H   0  0  0  0  0  0  0  0  0  0  0  0
  145.8482  139.7985  152.9921 H   0  0  0  0  0  0  0  0  0  0  0  0
  148.6280  140.3158  152.6397 H   0  0  0  0  0  0  0  0  0  0  0  0
  149.7719  141.6614  153.8022 H   0  0  0  0  0  0  0  0  0  0  0  0
  148.8996  142.6427  154.9335 H   0  0  0  0  0  0  0  0  0  0  0  0
  149.3741  142.7084  157.0489 H   0  0  0  0  0  0  0  0  0  0  0  0
  150.7368  142.0620  159.0204 H   0  0  0  0  0  0  0  0  0  0  0  0
  152.2328  140.0257  158.8185 H   0  0  0  0  0  0  0  0  0  0  0  0
  152.3149  138.7777  156.7536 H   0  0  0  0  0  0  0  0  0  0  0  0
  146.9236  139.8369  150.7794 H   0  0  0  0  0  0  0  0  0  0  0  0
  147.9554  138.4933  151.2115 H   0  0  0  0  0  0  0  0  0  0  0  0
  146.0677  137.6874  149.8664 H   0  0  0  0  0  0  0  0  0  0  0  0
  144.9033  138.4055  150.9631 H   0  0  0  0  0  0  0  0  0  0  0  0
  146.8212  136.3062  151.6458 H   0  0  0  0  0  0  0  0  0  0  0  0
  1  2  1  0  0  0  0
  1 23  1  0  0  0  0
  1 24  1  0  0  0  0
  1 25  1  0  0  0  0
  2  3  1  0  0  0  0
  3  4  2  0  0  0  0
  3  5  1  0  0  0  0
  5  6  1  0  0  0  0
  5 26  1  0  0  0  0
  5 27  1  0  0  0  0
  6 22  1  0  0  0  0
  6  7  1  0  0  0  0
  6 44  1  0  0  0  0
  7  8  1  0  0  0  0
  7 28  1  0  0  0  0
  7 29  1  0  0  0  0
  8  9  1  0  0  0  0
  8 30  1  0  0  0  0
  8 31  1  0  0  0  0
  9 10  1  0  0  0  0
  9 21  1  0  0  0  0
  9 32  1  0  0  0  0
 10 11  1  0  0  0  0
 10 33  1  0  0  0  0
 11 12  2  0  0  0  0
 11 13  1  0  0  0  0
 13 14  1  0  0  0  0
 13 34  1  0  0  0  0
 13 35  1  0  0  0  0
 14 19  1  0  0  0  0
 14 15  1  0  0  0  0
 15 16  2  0  0  0  0
 15 36  1  0  0  0  0
 16 17  1  0  0  0  0
 16 37  1  0  0  0  0
 17 18  2  0  0  0  0
 17 38  1  0  0  0  0
 18 19  1  0  0  0  0
 18 39  1  0  0  0  0
 19 20  2  0  0  0  0
 21 22  1  0  0  0  0
 21 40  1  0  0  0  0
 21 41  1  0  0  0  0
 22 42  1  0  0  0  0
 22 43  1  0  0  0  0
M  CHG  1   2  -1
M  CHG  1   6   1
M  END
> <s_m_source_file>
AV-unprocessed.smi

> <i_m_source_file_index>
1202

> <i_lp_mmshare_version>
43012

> <i_f3d_flags>
0

> <s_epik_input>
W0NIM11bTkhdQyg9TylbQ0gyXU4xW0NIMl1bQ0gyXVtDSF0oW0NIMl1bQ0gyXTEpW05IXUMoPU8pW0NIMl1uMltjSF1bY0hdW2NIXVtjSF1jMj1P

> <s_epik_cmdline>
J2VwaWtfcHl0aG9uJywgJy1waCcsICc3LjAnLCAnLXRuJywgJzgnLCAnLW1hJywgJzIwMCcsICctbWV0YWxfYmluZGluZycsICctaW1hZScsICc8aW5maWxlLm1hZT4nLCAnLW9tYWUnLCAnPG91dGZpbGUubWFlPic=

> <r_lp_tautomer_probability>
1

> <r_epik_Ionization_Penalty>
6.12124

> <r_epik_Ionization_Penalty_Charging>
6.12124

> <r_epik_Ionization_Penalty_Neutral>
4.50226e-08

> <r_epik_State_Penalty>
7.08052

> <r_epik_Charging_Adjusted_Penalty>
13.2018

> <i_epik_Tot_Q>
0

> <i_epik_Tot_abs_Q>
2

> <r_epik_Metal_State_Penalty>
3.01282

> <b_epik_Metal_Only>
1

> <s_lp_Force_Field>
OPLS_2005

> <r_lp_Energy>
18.7723

> <b_lp_Chiralities_Consistent>
1

> <s_lp_Variant>
AV-unprocessed.smi:1202-4

> <Gold.Version>
5.8.1

> <Gold.Id.Protein>
6NUR|6NUR_protein|mol2

> <Gold.PLP.Fitness>
49.4478

> <Gold.PLP.PLP>
-34.8278

> <Gold.PLP.part.hbond>
-3.0000

> <Gold.PLP.part.metal>
0.0000

> <Gold.PLP.part.buried>
4.3977

> <Gold.PLP.part.nonpolar>
-37.1181

> <Gold.PLP.part.repulsive>
0.5658

> <Gold.PLP.ligand.clash>
0.0000

> <Gold.PLP.ligand.torsion>
0.2496

> <Gold.PLP.Chemscore.Hbond>
4.0000

> <Gold.PLP.Chemscore.CHOScore>
1.0000

> <Gold.PLP.Chemscore.Metal>
0.0000

> <Gold.Chemscore.Hbonds>
donor molecule, donor type, donor heavy atom, donor atom, acceptor molecule, acceptor atom, score
      L1  H     6    44       P1  7948  1.59
      L1  H    10    33       P1  7957  1.00
      P1  H  7989  7998       L1    20  0.85
      L1  C    15    36       P1  8028  1.00

> <Gold.PLP.Chemscore.Internal.Correction>
0.1191

> <Gold.Rescore>
     Score         DG    S(hbond)    S(metal)    S(lipo)     H(rot)  DE(clash)    DE(int)     intcor
     14.71     -18.85       2.85        0.00      79.89       2.15       3.52       0.63       ----

> <Gold.Chemscore.Fitness>
14.7069

> <Gold.Chemscore.DG>
-18.8547

> <Gold.Chemscore.ZeroCoef>
-5.4800

> <Gold.Chemscore.Hbond>
2.8546

> <Gold.Chemscore.Metal>
0.0000

> <Gold.Chemscore.Lipo>
79.8884

> <Gold.Chemscore.Internal_Hbond>
0.0000

> <Gold.Chemscore.DEClash>
3.5181

> <Gold.Chemscore.DEInternal>
0.6298

> <Gold.Chemscore.Rot>
2.1510

> <Gold.Chemscore.Internal.Correction>
   9.000000E+99

> <Gold.Chemscore.Hbonds>
donor molecule, donor type, donor heavy atom, donor atom, acceptor molecule, acceptor atom, score
      L1  H     6    44       P1  7948  0.78
      L1  H    10    33       P1  7957  0.99
      P1  H  7989  7998       L1    20  0.14

> <Gold.Chemscore.Hbond.Weighted>
-9.5343

> <Gold.Chemscore.Metal.Weighted>
-0.0000

> <Gold.Chemscore.Lipo.Weighted>
-9.3469

> <Gold.Chemscore.Internal_Hbond.Weighted>
0.0000

> <Gold.Chemscore.DEClash.Weighted>
3.5181

> <Gold.Chemscore.DEInternal.Weighted>
0.6298

> <Gold.Chemscore.Rot.Weighted>
5.5065

> <Gold.Chemscore.Internal.Correction.Weighted>
   9.000000E+99

> <Gold.Protein.RotatedTorsions>
[ 6907 6896 6895 6894 ] final    8.78 input  -60.11 | X-H torsion
[ 7974 7965 7964 7962 ] final  -28.26 input  175.53 | X-H torsion
[ 8008 7997 7996 7995 ] final   21.10 input   59.86 | X-H torsion
[ 10167 10162 10161 10158 ] final -151.11 input  -65.29 | X-H torsion
[ 10718 10713 10712 10709 ] final   64.29 input   66.30 | X-H torsion
[ 10763 10752 10751 10750 ] final  -33.37 input  -60.55 | X-H torsion
[ 11005 11000 10999 10996 ] final  133.01 input  -57.11 | X-H torsion

> <Gold.Protein.ActiveResidues>
 VAL166  LYS551  ARG553  GLY616  TRP617  ASP618  TYR619  PRO620  LYS621  CYS622 
 ASP623  PHE694  ASN695  SER759  ASP760  ASP761  ALA762  ILE779  LEU786  VAL792 
 PHE793  MET794  SER795  GLU796  ALA797  LYS798  CYS799  TRP800  GLU811  SER814 

> <Gold.Protein.RotatedAtoms>
  151.7116  135.0911  160.0268 H   0  0  0  0  0  0  0  0  0  0  0  0  # atno 6907 bound_to 6896
  152.3658  133.6350  159.6058 H   0  0  0  0  0  0  0  0  0  0  0  0  # atno 6908 bound_to 6896
  150.7637  133.9267  159.3456 H   0  0  0  0  0  0  0  0  0  0  0  0  # atno 6909 bound_to 6896
  146.1300  140.5260  142.8697 H   0  0  0  0  0  0  0  0  0  0  0  0  # atno 7974 bound_to 7965
  154.9456  140.3059  155.5100 H   0  0  0  0  0  0  0  0  0  0  0  0  # atno 8008 bound_to 7997
  156.2992  140.2328  156.4466 H   0  0  0  0  0  0  0  0  0  0  0  0  # atno 8009 bound_to 7997
  154.8104  140.0429  157.1327 H   0  0  0  0  0  0  0  0  0  0  0  0  # atno 8010 bound_to 7997
  139.7296  143.8829  152.2530 H   0  0  0  0  0  0  0  0  0  0  0  0  # atno 10167 bound_to 10162
  157.6030  130.9152  149.9827 H   0  0  0  0  0  0  0  0  0  0  0  0  # atno 10718 bound_to 10713
  153.8291  135.6867  153.4817 H   0  0  0  0  0  0  0  0  0  0  0  0  # atno 10763 bound_to 10752
  153.1522  135.4613  154.9650 H   0  0  0  0  0  0  0  0  0  0  0  0  # atno 10764 bound_to 10752
  154.7894  135.3296  154.7756 H   0  0  0  0  0  0  0  0  0  0  0  0  # atno 10765 bound_to 10752
  139.9825  134.9543  156.9663 H   0  0  0  0  0  0  0  0  0  0  0  0  # atno 11005 bound_to 11000
  144.7681  140.5576  143.6689 LP  0  0  0  0  0  0  0  0  0  0  0  0  # atno 17320 bound_to 7965
  145.5281  139.1475  143.3515 LP  0  0  0  0  0  0  0  0  0  0  0  0  # atno 17321 bound_to 7965
  139.8749  144.7049  150.8945 LP  0  0  0  0  0  0  0  0  0  0  0  0  # atno 17342 bound_to 10162
  140.7769  143.3708  151.1652 LP  0  0  0  0  0  0  0  0  0  0  0  0  # atno 17343 bound_to 10162
  156.1108  130.3650  150.0053 LP  0  0  0  0  0  0  0  0  0  0  0  0  # atno 17370 bound_to 10713
  156.8152  130.9339  151.3643 LP  0  0  0  0  0  0  0  0  0  0  0  0  # atno 17371 bound_to 10713
  140.5068  134.1042  155.7262 LP  0  0  0  0  0  0  0  0  0  0  0  0  # atno 17394 bound_to 11000
  141.1495  133.8995  157.2133 LP  0  0  0  0  0  0  0  0  0  0  0  0  # atno 17395 bound_to 11000

$$$$
