AV-unprocessed.smi:2418|AV-procd|sdf|9550|dock1
  -GOLD-   2272013183D 1   1.00000     0.00000
 Structure written by MMmdl.
 34 35  0  0  0  0  0  0  0  0  1 V2000
  146.9126  138.9497  152.9049 C   0  0  0  0  0  0  0  0  0  0  0  0
  147.9109  139.6423  153.8153 C   0  0  0  0  0  0  0  0  0  0  0  0
  147.9105  141.0390  153.7599 N   0  0  0  0  0  0  0  0  0  0  0  0
  148.7272  141.7135  154.5007 C   0  0  0  0  0  0  0  0  0  0  0  0
  149.6275  141.0802  155.3745 N   0  0  0  0  0  0  0  0  0  0  0  0
  150.5060  141.9646  156.1599 C   0  0  0  0  0  0  0  0  0  0  0  0
  150.1600  141.9502  157.6658 C   0  0  2  0  0  0  0  0  0  0  0  0
  149.1666  142.9249  157.9186 O   0  0  0  0  0  0  0  0  0  0  0  0
  151.4072  142.1899  158.5077 C   0  0  0  0  0  0  0  0  0  0  0  0
  152.0497  141.1135  159.1609 C   0  0  0  0  0  0  0  0  0  0  0  0
  153.1957  141.3393  159.9476 C   0  0  0  0  0  0  0  0  0  0  0  0
  153.8056  140.3020  160.5683 F   0  0  0  0  0  0  0  0  0  0  0  0
  153.7062  142.6431  160.0906 C   0  0  0  0  0  0  0  0  0  0  0  0
  153.0670  143.7214  159.4497 C   0  0  0  0  0  0  0  0  0  0  0  0
  151.9199  143.4981  158.6632 C   0  0  0  0  0  0  0  0  0  0  0  0
  151.3116  144.5496  158.0633 F   0  0  0  0  0  0  0  0  0  0  0  0
  149.6959  139.7223  155.4874 C   0  0  0  0  0  0  0  0  0  0  0  0
  150.4912  139.1741  156.2527 O   0  0  0  0  0  0  0  0  0  0  0  0
  148.7599  138.9676  154.6379 C   0  0  0  0  0  0  0  0  0  0  0  0
  148.8052  137.4479  154.7393 C   0  0  0  0  0  0  0  0  0  0  0  0
  147.4284  138.3043  152.1936 H   0  0  0  0  0  0  0  0  0  0  0  0
  146.3257  139.6721  152.3363 H   0  0  0  0  0  0  0  0  0  0  0  0
  146.2191  138.3437  153.4885 H   0  0  0  0  0  0  0  0  0  0  0  0
  148.7719  142.8041  154.4913 H   0  0  0  0  0  0  0  0  0  0  0  0
  151.5357  141.6250  156.0282 H   0  0  0  0  0  0  0  0  0  0  0  0
  150.5136  142.9867  155.7768 H   0  0  0  0  0  0  0  0  0  0  0  0
  149.7362  140.9847  157.9434 H   0  0  0  0  0  0  0  0  0  0  0  0
  149.0061  143.4046  157.1203 H   0  0  0  0  0  0  0  0  0  0  0  0
  151.6642  140.1090  159.0642 H   0  0  0  0  0  0  0  0  0  0  0  0
  154.5850  142.8167  160.6940 H   0  0  0  0  0  0  0  0  0  0  0  0
  153.4558  144.7226  159.5638 H   0  0  0  0  0  0  0  0  0  0  0  0
  148.5948  137.1334  155.7620 H   0  0  0  0  0  0  0  0  0  0  0  0
  149.7962  137.0818  154.4685 H   0  0  0  0  0  0  0  0  0  0  0  0
  148.0852  136.9522  154.0905 H   0  0  0  0  0  0  0  0  0  0  0  0
  1  2  1  0  0  0  0
  1 21  1  0  0  0  0
  1 22  1  0  0  0  0
  1 23  1  0  0  0  0
  2 19  2  0  0  0  0
  2  3  1  0  0  0  0
  3  4  2  0  0  0  0
  4  5  1  0  0  0  0
  4 24  1  0  0  0  0
  5  6  1  0  0  0  0
  5 17  1  0  0  0  0
  6  7  1  0  0  0  0
  6 25  1  0  0  0  0
  6 26  1  0  0  0  0
  7  8  1  0  0  0  0
  7  9  1  0  0  0  0
  7 27  1  0  0  0  0
  8 28  1  0  0  0  0
  9 15  1  0  0  0  0
  9 10  2  0  0  0  0
 10 11  1  0  0  0  0
 10 29  1  0  0  0  0
 11 12  1  0  0  0  0
 11 13  2  0  0  0  0
 13 14  1  0  0  0  0
 13 30  1  0  0  0  0
 14 15  2  0  0  0  0
 14 31  1  0  0  0  0
 15 16  1  0  0  0  0
 17 18  2  0  0  0  0
 17 19  1  0  0  0  0
 19 20  1  0  0  0  0
 20 32  1  0  0  0  0
 20 33  1  0  0  0  0
 20 34  1  0  0  0  0
M  END
> <s_m_source_file>
AV-unprocessed.smi

> <i_m_source_file_index>
2418

> <i_lp_mmshare_version>
43012

> <i_f3d_flags>
0

> <s_epik_input>
W0NIM11jMW5bY0hdbihjKD1PKWMxW0NIM10pW0NIMl1bQ0BIXShbT0hdKWMyW2NIXWMoRilbY0hdW2NIXWMyRg==

> <s_epik_cmdline>
J2VwaWtfcHl0aG9uJywgJy1waCcsICc3LjAnLCAnLXRuJywgJzgnLCAnLW1hJywgJzIwMCcsICctbWV0YWxfYmluZGluZycsICctaW1hZScsICc8aW5maWxlLm1hZT4nLCAnLW9tYWUnLCAnPG91dGZpbGUubWFlPic=

> <r_lp_tautomer_probability>
1

> <r_epik_Ionization_Penalty>
5.08222e-05

> <r_epik_Ionization_Penalty_Charging>
7.56727e-08

> <r_epik_Ionization_Penalty_Neutral>
5.07465e-05

> <r_epik_State_Penalty>
-0

> <r_epik_Charging_Adjusted_Penalty>
7.56727e-08

> <i_epik_Tot_Q>
0

> <i_epik_Tot_abs_Q>
0

> <r_epik_Metal_State_Penalty>
-0

> <b_epik_Metal_Only>
0

> <s_lp_Force_Field>
OPLS_2005

> <r_lp_Energy>
19.2488

> <b_lp_Chiralities_Consistent>
1

> <s_lp_Variant>
AV-unprocessed.smi:2418-1

> <Gold.Version>
5.8.1

> <Gold.Id.Protein>
6NUR|6NUR_protein|mol2

> <Gold.PLP.Fitness>
44.9824

> <Gold.PLP.PLP>
-40.7693

> <Gold.PLP.part.hbond>
-1.1183

> <Gold.PLP.part.metal>
0.0000

> <Gold.PLP.part.buried>
-1.1429

> <Gold.PLP.part.nonpolar>
-38.2305

> <Gold.PLP.part.repulsive>
0.3463

> <Gold.PLP.ligand.clash>
0.0000

> <Gold.PLP.ligand.torsion>
0.8994

> <Gold.PLP.Chemscore.Hbond>
1.0000

> <Gold.PLP.Chemscore.CHOScore>
1.0000

> <Gold.PLP.Chemscore.Metal>
0.0000

> <Gold.Chemscore.Hbonds>
donor molecule, donor type, donor heavy atom, donor atom, acceptor molecule, acceptor atom, score
      L1  H     8    28       P1  8028  1.00
      L1  C     4    24       P1  8028  1.00

> <Gold.PLP.Chemscore.Internal.Correction>
0.0120

> <Gold.Rescore>
     Score         DG    S(hbond)    S(metal)    S(lipo)     H(rot)  DE(clash)    DE(int)     intcor
     11.94     -14.71       0.90        0.00      99.45       2.11       0.35       2.42       ----

> <Gold.Chemscore.Fitness>
11.9415

> <Gold.Chemscore.DG>
-14.7141

> <Gold.Chemscore.ZeroCoef>
-5.4800

> <Gold.Chemscore.Hbond>
0.8981

> <Gold.Chemscore.Metal>
0.0000

> <Gold.Chemscore.Lipo>
99.4490

> <Gold.Chemscore.Internal_Hbond>
0.0000

> <Gold.Chemscore.DEClash>
0.3528

> <Gold.Chemscore.DEInternal>
2.4198

> <Gold.Chemscore.Rot>
2.1097

> <Gold.Chemscore.Internal.Correction>
   9.000000E+99

> <Gold.Chemscore.Hbonds>
donor molecule, donor type, donor heavy atom, donor atom, acceptor molecule, acceptor atom, score
      L1  H     8    28       P1  8028  0.60

> <Gold.Chemscore.Hbond.Weighted>
-2.9995

> <Gold.Chemscore.Metal.Weighted>
-0.0000

> <Gold.Chemscore.Lipo.Weighted>
-11.6355

> <Gold.Chemscore.Internal_Hbond.Weighted>
0.0000

> <Gold.Chemscore.DEClash.Weighted>
0.3528

> <Gold.Chemscore.DEInternal.Weighted>
2.4198

> <Gold.Chemscore.Rot.Weighted>
5.4009

> <Gold.Chemscore.Internal.Correction.Weighted>
   9.000000E+99

> <Gold.Protein.RotatedTorsions>
[ 6907 6896 6895 6894 ] final -154.29 input  -60.11 | X-H torsion
[ 7974 7965 7964 7962 ] final  115.76 input  175.53 | X-H torsion
[ 8008 7997 7996 7995 ] final -105.70 input   59.86 | X-H torsion
[ 10167 10162 10161 10158 ] final  -24.84 input  -65.29 | X-H torsion
[ 10718 10713 10712 10709 ] final  -33.42 input   66.30 | X-H torsion
[ 10763 10752 10751 10750 ] final  -94.72 input  -60.55 | X-H torsion
[ 11005 11000 10999 10996 ] final  -82.14 input  -57.11 | X-H torsion

> <Gold.Protein.ActiveResidues>
 VAL166  LYS551  ARG553  GLY616  TRP617  ASP618  TYR619  PRO620  LYS621  CYS622 
 ASP623  PHE694  ASN695  SER759  ASP760  ASP761  ALA762  ILE779  LEU786  VAL792 
 PHE793  MET794  SER795  GLU796  ALA797  LYS798  CYS799  TRP800  GLU811  SER814 

> <Gold.Protein.RotatedAtoms>
  151.2552  133.4329  159.2613 H   0  0  0  0  0  0  0  0  0  0  0  0  # atno 6907 bound_to 6896
  151.0581  134.9718  159.8256 H   0  0  0  0  0  0  0  0  0  0  0  0  # atno 6908 bound_to 6896
  152.5394  134.2504  159.8949 H   0  0  0  0  0  0  0  0  0  0  0  0  # atno 6909 bound_to 6896
  145.1880  139.3015  143.4383 H   0  0  0  0  0  0  0  0  0  0  0  0  # atno 7974 bound_to 7965
  154.9037  140.0412  157.1907 H   0  0  0  0  0  0  0  0  0  0  0  0  # atno 8008 bound_to 7997
  154.8418  140.2915  155.5633 H   0  0  0  0  0  0  0  0  0  0  0  0  # atno 8009 bound_to 7997
  156.2992  140.2481  156.3362 H   0  0  0  0  0  0  0  0  0  0  0  0  # atno 8010 bound_to 7997
  140.7287  143.4318  151.0791 H   0  0  0  0  0  0  0  0  0  0  0  0  # atno 10167 bound_to 10162
  156.3629  130.4326  149.7609 H   0  0  0  0  0  0  0  0  0  0  0  0  # atno 10718 bound_to 10713
  154.7081  135.5147  153.8626 H   0  0  0  0  0  0  0  0  0  0  0  0  # atno 10763 bound_to 10752
  153.0758  135.6616  154.0158 H   0  0  0  0  0  0  0  0  0  0  0  0  # atno 10764 bound_to 10752
  154.0005  135.3011  155.3382 H   0  0  0  0  0  0  0  0  0  0  0  0  # atno 10765 bound_to 10752
  141.1664  133.7230  156.8527 H   0  0  0  0  0  0  0  0  0  0  0  0  # atno 11005 bound_to 11000
  146.3441  140.2082  142.8590 LP  0  0  0  0  0  0  0  0  0  0  0  0  # atno 17320 bound_to 7965
  145.0070  140.8681  143.5247 LP  0  0  0  0  0  0  0  0  0  0  0  0  # atno 17321 bound_to 7965
  139.7975  143.8130  152.3159 LP  0  0  0  0  0  0  0  0  0  0  0  0  # atno 17342 bound_to 10162
  139.8136  144.7326  150.9665 LP  0  0  0  0  0  0  0  0  0  0  0  0  # atno 17343 bound_to 10162
  156.4766  130.8021  151.3037 LP  0  0  0  0  0  0  0  0  0  0  0  0  # atno 17370 bound_to 10713
  157.7475  131.0019  150.2980 LP  0  0  0  0  0  0  0  0  0  0  0  0  # atno 17371 bound_to 10713
  140.1904  134.8969  157.3054 LP  0  0  0  0  0  0  0  0  0  0  0  0  # atno 17394 bound_to 11000
  140.2296  134.3925  155.7528 LP  0  0  0  0  0  0  0  0  0  0  0  0  # atno 17395 bound_to 11000

$$$$
