AV-unprocessed.smi:1336|AV-procd|sdf|5497|dock1
  -GOLD-   22720 5 73D 1   1.00000     0.00000
 Structure written by MMmdl.
 43 43  0  0  0  0  0  0  0  0  1 V2000
  151.5015  144.4012  160.7287 C   0  0  0  0  0  0  0  0  0  0  0  0
  151.5740  145.4366  159.6014 C   0  0  0  0  0  0  0  0  0  0  0  0
  152.0965  144.8363  158.2861 C   0  0  0  0  0  0  0  0  0  0  0  0
  151.3430  143.6492  157.9001 N   0  0  0  0  0  0  0  0  0  0  0  0
  151.5501  142.4136  158.3805 C   0  0  0  0  0  0  0  0  0  0  0  0
  152.4262  142.1483  159.2056 O   0  0  0  0  0  0  0  0  0  0  0  0
  150.6355  141.3083  157.8270 C   0  0  1  0  0  0  0  0  0  0  0  0
  151.0438  141.0338  156.3702 C   0  0  0  0  0  0  0  0  0  0  0  0
  150.8023  140.0690  158.5853 N   0  0  0  0  0  0  0  0  0  0  0  0
  150.4623  138.8440  158.1524 C   0  0  0  0  0  0  0  0  0  0  0  0
  149.9717  138.6332  157.0426 O   0  0  0  0  0  0  0  0  0  0  0  0
  150.7083  137.6837  159.1207 C   0  0  0  0  0  0  0  0  0  0  0  0
  149.4365  136.9261  159.3704 C   0  0  0  0  0  0  0  0  0  0  0  0
  148.6620  136.2829  158.4365 C   0  0  0  0  0  0  0  0  0  0  0  0
  147.2658  135.5297  159.1569 S   0  0  0  0  0  0  0  0  0  0  0  0
  147.7951  136.1187  160.7292 C   0  0  0  0  0  0  0  0  0  0  0  0
  147.0431  135.8634  161.9976 C   0  0  0  0  0  0  0  0  0  0  0  0
  147.6188  136.6580  163.1788 C   0  0  0  0  0  0  0  0  0  0  0  0
  146.9023  134.3633  162.2937 C   0  0  0  0  0  0  0  0  0  0  0  0
  148.9329  136.8169  160.6706 N   0  0  0  0  0  0  0  0  0  0  0  0
  151.1248  144.8520  161.6469 H   0  0  0  0  0  0  0  0  0  0  0  0
  152.4857  143.9834  160.9425 H   0  0  0  0  0  0  0  0  0  0  0  0
  150.8374  143.5777  160.4651 H   0  0  0  0  0  0  0  0  0  0  0  0
  150.5833  145.8636  159.4417 H   0  0  0  0  0  0  0  0  0  0  0  0
  152.2173  146.2592  159.9156 H   0  0  0  0  0  0  0  0  0  0  0  0
  152.0632  145.5777  157.4861 H   0  0  0  0  0  0  0  0  0  0  0  0
  153.1423  144.5491  158.3986 H   0  0  0  0  0  0  0  0  0  0  0  0
  150.6035  143.7777  157.2246 H   0  0  0  0  0  0  0  0  0  0  0  0
  149.5916  141.6271  157.8607 H   0  0  0  0  0  0  0  0  0  0  0  0
  150.9280  141.9249  155.7519 H   0  0  0  0  0  0  0  0  0  0  0  0
  150.4211  140.2532  155.9319 H   0  0  0  0  0  0  0  0  0  0  0  0
  152.0825  140.7082  156.2930 H   0  0  0  0  0  0  0  0  0  0  0  0
  151.1893  140.1536  159.5138 H   0  0  0  0  0  0  0  0  0  0  0  0
  151.4741  137.0168  158.7220 H   0  0  0  0  0  0  0  0  0  0  0  0
  151.1084  138.0883  160.0510 H   0  0  0  0  0  0  0  0  0  0  0  0
  148.8256  136.2102  157.3717 H   0  0  0  0  0  0  0  0  0  0  0  0
  146.0326  136.2410  161.8364 H   0  0  0  0  0  0  0  0  0  0  0  0
  147.6281  137.7272  162.9648 H   0  0  0  0  0  0  0  0  0  0  0  0
  148.6423  136.3535  163.3999 H   0  0  0  0  0  0  0  0  0  0  0  0
  147.0251  136.5068  164.0805 H   0  0  0  0  0  0  0  0  0  0  0  0
  146.4120  133.8448  161.4693 H   0  0  0  0  0  0  0  0  0  0  0  0
  146.3064  134.1944  163.1911 H   0  0  0  0  0  0  0  0  0  0  0  0
  147.8755  133.8970  162.4496 H   0  0  0  0  0  0  0  0  0  0  0  0
  1  2  1  0  0  0  0
  1 21  1  0  0  0  0
  1 22  1  0  0  0  0
  1 23  1  0  0  0  0
  2  3  1  0  0  0  0
  2 24  1  0  0  0  0
  2 25  1  0  0  0  0
  3  4  1  0  0  0  0
  3 26  1  0  0  0  0
  3 27  1  0  0  0  0
  4  5  1  0  0  0  0
  4 28  1  0  0  0  0
  5  6  2  0  0  0  0
  5  7  1  0  0  0  0
  7  8  1  0  0  0  0
  7  9  1  0  0  0  0
  7 29  1  0  0  0  0
  8 30  1  0  0  0  0
  8 31  1  0  0  0  0
  8 32  1  0  0  0  0
  9 10  1  0  0  0  0
  9 33  1  0  0  0  0
 10 11  2  0  0  0  0
 10 12  1  0  0  0  0
 12 13  1  0  0  0  0
 12 34  1  0  0  0  0
 12 35  1  0  0  0  0
 13 20  1  0  0  0  0
 13 14  2  0  0  0  0
 14 15  1  0  0  0  0
 14 36  1  0  0  0  0
 15 16  1  0  0  0  0
 16 17  1  0  0  0  0
 16 20  2  0  0  0  0
 17 18  1  0  0  0  0
 17 19  1  0  0  0  0
 17 37  1  0  0  0  0
 18 38  1  0  0  0  0
 18 39  1  0  0  0  0
 18 40  1  0  0  0  0
 19 41  1  0  0  0  0
 19 42  1  0  0  0  0
 19 43  1  0  0  0  0
M  END
> <s_m_source_file>
AV-unprocessed.smi

> <i_m_source_file_index>
1336

> <i_lp_mmshare_version>
43012

> <i_f3d_flags>
0

> <s_epik_input>
W0NIM11bQ0gyXVtDSDJdW05IXUMoPU8pW0NASF0oW0NIM10pW05IXUMoPU8pW0NIMl1jMVtjSF1zYyhuMSlbQ0hdKFtDSDNdKVtDSDNd

> <s_epik_cmdline>
J2VwaWtfcHl0aG9uJywgJy1waCcsICc3LjAnLCAnLXRuJywgJzgnLCAnLW1hJywgJzIwMCcsICctbWV0YWxfYmluZGluZycsICctaW1hZScsICc8aW5maWxlLm1hZT4nLCAnLW9tYWUnLCAnPG91dGZpbGUubWFlPic=

> <r_lp_tautomer_probability>
1

> <r_epik_Ionization_Penalty>
3.10785e-05

> <r_epik_Ionization_Penalty_Charging>
0

> <r_epik_Ionization_Penalty_Neutral>
3.10785e-05

> <r_epik_State_Penalty>
-0

> <r_epik_Charging_Adjusted_Penalty>
0

> <i_epik_Tot_Q>
0

> <i_epik_Tot_abs_Q>
0

> <r_epik_Metal_State_Penalty>
-0

> <b_epik_Metal_Only>
0

> <s_lp_Force_Field>
OPLS_2005

> <r_lp_Energy>
-5.85781

> <b_lp_Chiralities_Consistent>
1

> <s_lp_Variant>
AV-unprocessed.smi:1336-2

> <Gold.Version>
5.8.1

> <Gold.Id.Protein>
6NUR|6NUR_protein|mol2

> <Gold.PLP.Fitness>
43.6316

> <Gold.PLP.PLP>
-43.4686

> <Gold.PLP.part.hbond>
-1.0000

> <Gold.PLP.part.metal>
0.0000

> <Gold.PLP.part.buried>
-6.5009

> <Gold.PLP.part.nonpolar>
-36.7683

> <Gold.PLP.part.repulsive>
0.1657

> <Gold.PLP.ligand.clash>
1.3078

> <Gold.PLP.ligand.torsion>
0.7389

> <Gold.PLP.Chemscore.Hbond>
0.8480

> <Gold.PLP.Chemscore.CHOScore>
0.0000

> <Gold.PLP.Chemscore.Metal>
0.0000

> <Gold.Chemscore.Hbonds>
donor molecule, donor type, donor heavy atom, donor atom, acceptor molecule, acceptor atom, score
      P1  H  6931  6943       L1    20  0.85

> <Gold.PLP.Chemscore.Internal.Correction>
0.4045

> <Gold.Rescore>
     Score         DG    S(hbond)    S(metal)    S(lipo)     H(rot)  DE(clash)    DE(int)     intcor
     11.56     -15.09       0.84        0.00     102.65       2.04       0.15       3.38       ----

> <Gold.Chemscore.Fitness>
11.5595

> <Gold.Chemscore.DG>
-15.0943

> <Gold.Chemscore.ZeroCoef>
-5.4800

> <Gold.Chemscore.Hbond>
0.8426

> <Gold.Chemscore.Metal>
0.0000

> <Gold.Chemscore.Lipo>
102.6531

> <Gold.Chemscore.Internal_Hbond>
0.0000

> <Gold.Chemscore.DEClash>
0.1546

> <Gold.Chemscore.DEInternal>
3.3801

> <Gold.Chemscore.Rot>
2.0353

> <Gold.Chemscore.Internal.Correction>
   9.000000E+99

> <Gold.Chemscore.Hbonds>
donor molecule, donor type, donor heavy atom, donor atom, acceptor molecule, acceptor atom, score
      L1  H     4    28       P1  8028  0.02
      P1  H  6931  6943       L1    20  0.76

> <Gold.Chemscore.Hbond.Weighted>
-2.8143

> <Gold.Chemscore.Metal.Weighted>
-0.0000

> <Gold.Chemscore.Lipo.Weighted>
-12.0104

> <Gold.Chemscore.Internal_Hbond.Weighted>
0.0000

> <Gold.Chemscore.DEClash.Weighted>
0.1546

> <Gold.Chemscore.DEInternal.Weighted>
3.3801

> <Gold.Chemscore.Rot.Weighted>
5.2104

> <Gold.Chemscore.Internal.Correction.Weighted>
   9.000000E+99

> <Gold.Protein.RotatedTorsions>
[ 6907 6896 6895 6894 ] final -147.39 input  -60.11 | X-H torsion
[ 7974 7965 7964 7962 ] final   98.80 input  175.53 | X-H torsion
[ 8008 7997 7996 7995 ] final   61.48 input   59.86 | X-H torsion
[ 10167 10162 10161 10158 ] final -116.62 input  -65.29 | X-H torsion
[ 10718 10713 10712 10709 ] final   64.04 input   66.30 | X-H torsion
[ 10763 10752 10751 10750 ] final   69.02 input  -60.55 | X-H torsion
[ 11005 11000 10999 10996 ] final  -91.46 input  -57.11 | X-H torsion

> <Gold.Protein.ActiveResidues>
 VAL166  LYS551  ARG553  GLY616  TRP617  ASP618  TYR619  PRO620  LYS621  CYS622 
 ASP623  PHE694  ASN695  SER759  ASP760  ASP761  ALA762  ILE779  LEU786  VAL792 
 PHE793  MET794  SER795  GLU796  ALA797  LYS798  CYS799  TRP800  GLU811  SER814 

> <Gold.Protein.RotatedAtoms>
  151.1550  133.4882  159.2594 H   0  0  0  0  0  0  0  0  0  0  0  0  # atno 6907 bound_to 6896
  151.1514  135.0229  159.8680 H   0  0  0  0  0  0  0  0  0  0  0  0  # atno 6908 bound_to 6896
  152.5463  134.1433  159.8541 H   0  0  0  0  0  0  0  0  0  0  0  0  # atno 6909 bound_to 6896
  145.4073  139.2339  143.3267 H   0  0  0  0  0  0  0  0  0  0  0  0  # atno 7974 bound_to 7965
  155.5990  140.3493  155.4588 H   0  0  0  0  0  0  0  0  0  0  0  0  # atno 8008 bound_to 7997
  156.0243  140.1260  157.0349 H   0  0  0  0  0  0  0  0  0  0  0  0  # atno 8009 bound_to 7997
  154.4327  140.1056  156.5994 H   0  0  0  0  0  0  0  0  0  0  0  0  # atno 8010 bound_to 7997
  140.0772  143.4821  152.1946 H   0  0  0  0  0  0  0  0  0  0  0  0  # atno 10167 bound_to 10162
  157.6012  130.9138  149.9793 H   0  0  0  0  0  0  0  0  0  0  0  0  # atno 10718 bound_to 10713
  153.0265  135.5226  154.7224 H   0  0  0  0  0  0  0  0  0  0  0  0  # atno 10763 bound_to 10752
  154.6276  135.2896  155.0257 H   0  0  0  0  0  0  0  0  0  0  0  0  # atno 10764 bound_to 10752
  154.1220  135.6606  153.4957 H   0  0  0  0  0  0  0  0  0  0  0  0  # atno 10765 bound_to 10752
  141.1544  133.7757  156.9882 H   0  0  0  0  0  0  0  0  0  0  0  0  # atno 11005 bound_to 11000
  146.2722  140.4779  142.8810 LP  0  0  0  0  0  0  0  0  0  0  0  0  # atno 17320 bound_to 7965
  144.8333  140.6742  143.6277 LP  0  0  0  0  0  0  0  0  0  0  0  0  # atno 17321 bound_to 7965
  139.5801  144.7506  151.3663 LP  0  0  0  0  0  0  0  0  0  0  0  0  # atno 17342 bound_to 10162
  140.7096  143.7425  150.7543 LP  0  0  0  0  0  0  0  0  0  0  0  0  # atno 17343 bound_to 10162
  156.1086  130.3651  150.0089 LP  0  0  0  0  0  0  0  0  0  0  0  0  # atno 17370 bound_to 10713
  156.8192  130.9352  151.3642 LP  0  0  0  0  0  0  0  0  0  0  0  0  # atno 17371 bound_to 10713
  140.1020  134.9529  157.1938 LP  0  0  0  0  0  0  0  0  0  0  0  0  # atno 17394 bound_to 11000
  140.3306  134.2814  155.7229 LP  0  0  0  0  0  0  0  0  0  0  0  0  # atno 17395 bound_to 11000

$$$$
