AV-unprocessed.smi:434|AV-procd|sdf|2553|dock2
  -GOLD-   2262022523D 1   1.00000     0.00000
 Structure written by MMmdl.
 39 41  0  0  0  0  0  0  0  0  1 V2000
  153.0641  139.0573  159.9008 C   0  0  0  0  0  0  0  0  0  0  0  0
  152.6826  140.4743  159.6107 C   0  0  0  0  0  0  0  0  0  0  0  0
  153.0961  141.4910  160.3671 N   0  0  0  0  0  0  0  0  0  0  0  0
  152.5273  142.5841  159.7421 C   0  0  0  0  0  0  0  0  0  0  0  0
  152.5894  143.9596  160.0611 C   0  0  0  0  0  0  0  0  0  0  0  0
  151.9163  144.9083  159.2636 C   0  0  0  0  0  0  0  0  0  0  0  0
  151.1719  144.4965  158.1393 C   0  0  0  0  0  0  0  0  0  0  0  0
  151.0965  143.1309  157.8038 C   0  0  0  0  0  0  0  0  0  0  0  0
  151.7708  142.1878  158.6025 C   0  0  0  0  0  0  0  0  0  0  0  0
  151.8962  140.8023  158.5562 N   0  0  0  0  0  0  0  0  0  0  0  0
  151.3023  139.9079  157.5710 C   0  0  0  0  0  0  0  0  0  0  0  0
  149.9724  139.2912  158.0500 C   0  0  1  0  0  0  0  0  0  0  0  0
  149.2829  138.7587  156.9359 O   0  0  0  0  0  0  0  0  0  0  0  0
  150.1968  138.1635  159.0696 C   0  0  0  0  0  0  0  0  0  0  0  0
  148.9389  137.6470  159.4720 O   0  0  0  0  0  0  0  0  0  0  0  0
  148.9560  136.2416  159.6505 C   0  0  0  0  0  0  0  0  0  0  0  0
  148.1721  135.9617  160.8876 C   0  0  0  0  0  0  0  0  0  0  0  0
  147.8054  134.8110  161.5298 C   0  0  0  0  0  0  0  0  0  0  0  0
  147.0607  135.2103  162.6740 C   0  0  0  0  0  0  0  0  0  0  0  0
  147.0297  136.5756  162.6452 C   0  0  0  0  0  0  0  0  0  0  0  0
  147.7036  137.0497  161.5620 O   0  0  0  0  0  0  0  0  0  0  0  0
  153.6406  138.9982  160.8246 H   0  0  0  0  0  0  0  0  0  0  0  0
  153.6741  138.6581  159.0902 H   0  0  0  0  0  0  0  0  0  0  0  0
  152.1747  138.4380  160.0135 H   0  0  0  0  0  0  0  0  0  0  0  0
  153.1558  144.2853  160.9211 H   0  0  0  0  0  0  0  0  0  0  0  0
  151.9711  145.9571  159.5167 H   0  0  0  0  0  0  0  0  0  0  0  0
  150.6578  145.2296  157.5349 H   0  0  0  0  0  0  0  0  0  0  0  0
  150.5247  142.8125  156.9448 H   0  0  0  0  0  0  0  0  0  0  0  0
  151.1505  140.4622  156.6438 H   0  0  0  0  0  0  0  0  0  0  0  0
  152.0209  139.1224  157.3361 H   0  0  0  0  0  0  0  0  0  0  0  0
  149.3585  140.0708  158.5021 H   0  0  0  0  0  0  0  0  0  0  0  0
  149.8557  138.1525  156.4913 H   0  0  0  0  0  0  0  0  0  0  0  0
  150.8380  137.3809  158.6596 H   0  0  0  0  0  0  0  0  0  0  0  0
  150.6984  138.5614  159.9533 H   0  0  0  0  0  0  0  0  0  0  0  0
  148.5091  135.7378  158.7920 H   0  0  0  0  0  0  0  0  0  0  0  0
  149.9794  135.8797  159.7600 H   0  0  0  0  0  0  0  0  0  0  0  0
  148.0451  133.8060  161.2154 H   0  0  0  0  0  0  0  0  0  0  0  0
  146.6062  134.5794  163.4235 H   0  0  0  0  0  0  0  0  0  0  0  0
  146.5952  137.3300  163.2842 H   0  0  0  0  0  0  0  0  0  0  0  0
  1  2  1  0  0  0  0
  1 22  1  0  0  0  0
  1 23  1  0  0  0  0
  1 24  1  0  0  0  0
  2 10  1  0  0  0  0
  2  3  2  0  0  0  0
  3  4  1  0  0  0  0
  4  9  2  0  0  0  0
  4  5  1  0  0  0  0
  5  6  2  0  0  0  0
  5 25  1  0  0  0  0
  6  7  1  0  0  0  0
  6 26  1  0  0  0  0
  7  8  2  0  0  0  0
  7 27  1  0  0  0  0
  8  9  1  0  0  0  0
  8 28  1  0  0  0  0
  9 10  1  0  0  0  0
 10 11  1  0  0  0  0
 11 12  1  0  0  0  0
 11 29  1  0  0  0  0
 11 30  1  0  0  0  0
 12 13  1  0  0  0  0
 12 14  1  0  0  0  0
 12 31  1  0  0  0  0
 13 32  1  0  0  0  0
 14 15  1  0  0  0  0
 14 33  1  0  0  0  0
 14 34  1  0  0  0  0
 15 16  1  0  0  0  0
 16 17  1  0  0  0  0
 16 35  1  0  0  0  0
 16 36  1  0  0  0  0
 17 21  1  0  0  0  0
 17 18  2  0  0  0  0
 18 19  1  0  0  0  0
 18 37  1  0  0  0  0
 19 20  2  0  0  0  0
 19 38  1  0  0  0  0
 20 21  1  0  0  0  0
 20 39  1  0  0  0  0
M  END
> <s_m_source_file>
AV-unprocessed.smi

> <i_m_source_file_index>
434

> <i_lp_mmshare_version>
43012

> <i_f3d_flags>
0

> <s_epik_input>
W2NIXTFbY0hdW2NIXVtjSF1jKGMxMiluKGMobjIpW0NIM10pW0NIMl1bQ0BIXShbT0hdKVtDSDJdT1tDSDJdYzNbY0hdW2NIXVtjSF1vMw==

> <s_epik_cmdline>
J2VwaWtfcHl0aG9uJywgJy1waCcsICc3LjAnLCAnLXRuJywgJzgnLCAnLW1hJywgJzIwMCcsICctbWV0YWxfYmluZGluZycsICctaW1hZScsICc8aW5maWxlLm1hZT4nLCAnLW9tYWUnLCAnPG91dGZpbGUubWFlPic=

> <r_epik_Ionization_Penalty>
0.126634

> <r_epik_Ionization_Penalty_Charging>
0

> <r_epik_Ionization_Penalty_Neutral>
0.126634

> <r_epik_State_Penalty>
0.116082

> <r_epik_Charging_Adjusted_Penalty>
0.116082

> <i_epik_Tot_Q>
0

> <i_epik_Tot_abs_Q>
0

> <r_epik_Metal_State_Penalty>
0.00012822

> <b_epik_Metal_Only>
0

> <s_lp_Force_Field>
OPLS_2005

> <r_lp_Energy>
9.69126

> <b_lp_Chiralities_Consistent>
1

> <s_lp_Variant>
AV-unprocessed.smi:434-2

> <Gold.Version>
5.8.1

> <Gold.Id.Protein>
6NUR|6NUR_protein|mol2

> <Gold.PLP.Fitness>
52.1608

> <Gold.PLP.PLP>
-48.7904

> <Gold.PLP.part.hbond>
-3.6657

> <Gold.PLP.part.metal>
0.0000

> <Gold.PLP.part.buried>
-5.8345

> <Gold.PLP.part.nonpolar>
-39.3432

> <Gold.PLP.part.repulsive>
0.0000

> <Gold.PLP.ligand.clash>
0.0000

> <Gold.PLP.ligand.torsion>
1.0362

> <Gold.PLP.Chemscore.Hbond>
1.7920

> <Gold.PLP.Chemscore.CHOScore>
0.0000

> <Gold.PLP.Chemscore.Metal>
0.0000

> <Gold.Chemscore.Hbonds>
donor molecule, donor type, donor heavy atom, donor atom, acceptor molecule, acceptor atom, score
      P1  H  6931  6943       L1    21  1.00
      P1  H  6934  6947       L1    21  0.59

> <Gold.PLP.Chemscore.Internal.Correction>
0.0667

> <Gold.Rescore>
     Score         DG    S(hbond)    S(metal)    S(lipo)     H(rot)  DE(clash)    DE(int)     intcor
     18.00     -19.20       1.54        0.00     125.03       2.36       0.05       1.16       ----

> <Gold.Chemscore.Fitness>
17.9958

> <Gold.Chemscore.DG>
-19.2020

> <Gold.Chemscore.ZeroCoef>
-5.4800

> <Gold.Chemscore.Hbond>
1.5367

> <Gold.Chemscore.Metal>
0.0000

> <Gold.Chemscore.Lipo>
125.0306

> <Gold.Chemscore.Internal_Hbond>
0.0000

> <Gold.Chemscore.DEClash>
0.0495

> <Gold.Chemscore.DEInternal>
1.1567

> <Gold.Chemscore.Rot>
2.3591

> <Gold.Chemscore.Internal.Correction>
   9.000000E+99

> <Gold.Chemscore.Hbonds>
donor molecule, donor type, donor heavy atom, donor atom, acceptor molecule, acceptor atom, score
      P1  H  6931  6943       L1    21  0.74
      P1  H  6934  6947       L1    21  0.54

> <Gold.Chemscore.Hbond.Weighted>
-5.1327

> <Gold.Chemscore.Metal.Weighted>
-0.0000

> <Gold.Chemscore.Lipo.Weighted>
-14.6286

> <Gold.Chemscore.Internal_Hbond.Weighted>
0.0000

> <Gold.Chemscore.DEClash.Weighted>
0.0495

> <Gold.Chemscore.DEInternal.Weighted>
1.1567

> <Gold.Chemscore.Rot.Weighted>
6.0393

> <Gold.Chemscore.Internal.Correction.Weighted>
   9.000000E+99

> <Gold.Protein.RotatedTorsions>
[ 6907 6896 6895 6894 ] final   -1.73 input  -60.11 | X-H torsion
[ 7974 7965 7964 7962 ] final  -18.32 input  175.53 | X-H torsion
[ 8008 7997 7996 7995 ] final   26.59 input   59.86 | X-H torsion
[ 10167 10162 10161 10158 ] final -117.30 input  -65.29 | X-H torsion
[ 10718 10713 10712 10709 ] final   25.28 input   66.30 | X-H torsion
[ 10763 10752 10751 10750 ] final  -50.55 input  -60.55 | X-H torsion
[ 11005 11000 10999 10996 ] final  114.45 input  -57.11 | X-H torsion

> <Gold.Protein.ActiveResidues>
 VAL166  LYS551  ARG553  GLY616  TRP617  ASP618  TYR619  PRO620  LYS621  CYS622 
 ASP623  PHE694  ASN695  SER759  ASP760  ASP761  ALA762  ILE779  LEU786  VAL792 
 PHE793  MET794  SER795  GLU796  ALA797  LYS798  CYS799  TRP800  GLU811  SER814 

> <Gold.Protein.RotatedAtoms>
  151.5414  135.1068  159.9926 H   0  0  0  0  0  0  0  0  0  0  0  0  # atno 6907 bound_to 6896
  152.4534  133.7669  159.6788 H   0  0  0  0  0  0  0  0  0  0  0  0  # atno 6908 bound_to 6896
  150.8469  133.7781  159.3064 H   0  0  0  0  0  0  0  0  0  0  0  0  # atno 6909 bound_to 6896
  146.1898  140.3904  142.8462 H   0  0  0  0  0  0  0  0  0  0  0  0  # atno 7974 bound_to 7965
  155.0296  140.3157  155.4763 H   0  0  0  0  0  0  0  0  0  0  0  0  # atno 8008 bound_to 7997
  156.2876  140.2182  156.5360 H   0  0  0  0  0  0  0  0  0  0  0  0  # atno 8009 bound_to 7997
  154.7381  140.0476  157.0775 H   0  0  0  0  0  0  0  0  0  0  0  0  # atno 8010 bound_to 7997
  140.0698  143.4888  152.1986 H   0  0  0  0  0  0  0  0  0  0  0  0  # atno 10167 bound_to 10162
  157.1913  130.6847  149.6151 H   0  0  0  0  0  0  0  0  0  0  0  0  # atno 10718 bound_to 10713
  154.1123  135.6547  153.4887 H   0  0  0  0  0  0  0  0  0  0  0  0  # atno 10763 bound_to 10752
  153.0252  135.5250  154.7180 H   0  0  0  0  0  0  0  0  0  0  0  0  # atno 10764 bound_to 10752
  154.6363  135.2982  155.0126 H   0  0  0  0  0  0  0  0  0  0  0  0  # atno 10765 bound_to 10752
  139.8981  134.9568  156.6893 H   0  0  0  0  0  0  0  0  0  0  0  0  # atno 11005 bound_to 11000
  144.8465  140.6937  143.6196 LP  0  0  0  0  0  0  0  0  0  0  0  0  # atno 17320 bound_to 7965
  145.3828  139.1633  143.4271 LP  0  0  0  0  0  0  0  0  0  0  0  0  # atno 17321 bound_to 7965
  139.5843  144.7524  151.3561 LP  0  0  0  0  0  0  0  0  0  0  0  0  # atno 17342 bound_to 10162
  140.7131  143.7338  150.7604 LP  0  0  0  0  0  0  0  0  0  0  0  0  # atno 17343 bound_to 10162
  155.9711  130.4614  150.6107 LP  0  0  0  0  0  0  0  0  0  0  0  0  # atno 17370 bound_to 10713
  157.3858  131.0788  151.1437 LP  0  0  0  0  0  0  0  0  0  0  0  0  # atno 17371 bound_to 10713
  140.7237  133.9118  155.8164 LP  0  0  0  0  0  0  0  0  0  0  0  0  # atno 17394 bound_to 11000
  141.0207  134.0893  157.4123 LP  0  0  0  0  0  0  0  0  0  0  0  0  # atno 17395 bound_to 11000

$$$$
