AV-unprocessed.smi:2453|AV-procd|sdf|9690|dock6
  -GOLD-   2272013323D 1   1.00000     0.00000
 Structure written by MMmdl.
 40 41  0  0  0  0  0  0  0  0  1 V2000
  150.7176  136.4438  154.7714 C   0  0  0  0  0  0  0  0  0  0  0  0
  149.9441  135.6909  155.8396 C   0  0  0  0  0  0  0  0  0  0  0  0
  150.3059  135.8266  157.1974 C   0  0  0  0  0  0  0  0  0  0  0  0
  149.6696  135.1961  158.2061 N   0  0  0  0  0  0  0  0  0  0  0  0
  148.6293  134.3980  157.8904 C   0  0  0  0  0  0  0  0  0  0  0  0
  148.1826  134.1908  156.5709 C   0  0  0  0  0  0  0  0  0  0  0  0
  148.8594  134.8419  155.5110 C   0  0  0  0  0  0  0  0  0  0  0  0
  148.4738  134.7217  154.1455 N   0  0  0  0  0  0  0  0  0  0  0  0
  147.4604  134.0170  153.6129 C   0  0  0  0  0  0  0  0  0  0  0  0
  146.6940  133.2843  154.2381 O   0  0  0  0  0  0  0  0  0  0  0  0
  147.3927  134.1982  152.2859 N   0  0  0  0  0  0  0  0  0  0  0  0
  146.4139  133.5756  151.3959 C   0  0  1  0  0  0  0  0  0  0  0  0
  146.3221  132.0645  151.6995 C   0  0  0  0  0  0  0  0  0  0  0  0
  145.2570  131.3738  150.8360 C   0  0  0  0  0  0  0  0  0  0  0  0
  143.8867  132.0413  151.0136 C   0  0  0  0  0  0  0  0  0  0  0  0
  143.9607  133.5415  150.6926 C   0  0  0  0  0  0  0  0  0  0  0  0
  145.0296  134.2607  151.5443 C   0  0  2  0  0  0  0  0  0  0  0  0
  145.0518  135.7800  151.2618 C   0  0  0  0  0  0  0  0  0  0  0  0
  145.2652  136.0558  149.8924 O   0  0  0  0  0  0  0  0  0  0  0  0
  151.5317  137.0247  155.2059 H   0  0  0  0  0  0  0  0  0  0  0  0
  150.0593  137.1307  154.2390 H   0  0  0  0  0  0  0  0  0  0  0  0
  151.1477  135.7474  154.0511 H   0  0  0  0  0  0  0  0  0  0  0  0
  151.1295  136.4631  157.4861 H   0  0  0  0  0  0  0  0  0  0  0  0
  148.1303  133.9141  158.7168 H   0  0  0  0  0  0  0  0  0  0  0  0
  147.3286  133.5532  156.4036 H   0  0  0  0  0  0  0  0  0  0  0  0
  149.0705  135.2011  153.4878 H   0  0  0  0  0  0  0  0  0  0  0  0
  148.0672  134.8140  151.8562 H   0  0  0  0  0  0  0  0  0  0  0  0
  146.7459  133.6988  150.3631 H   0  0  0  0  0  0  0  0  0  0  0  0
  147.2884  131.5871  151.5317 H   0  0  0  0  0  0  0  0  0  0  0  0
  146.0841  131.9136  152.7534 H   0  0  0  0  0  0  0  0  0  0  0  0
  145.5522  131.4157  149.7868 H   0  0  0  0  0  0  0  0  0  0  0  0
  145.1935  130.3174  151.0982 H   0  0  0  0  0  0  0  0  0  0  0  0
  143.1524  131.5593  150.3675 H   0  0  0  0  0  0  0  0  0  0  0  0
  143.5389  131.9003  152.0378 H   0  0  0  0  0  0  0  0  0  0  0  0
  144.1826  133.6690  149.6324 H   0  0  0  0  0  0  0  0  0  0  0  0
  142.9834  133.9961  150.8585 H   0  0  0  0  0  0  0  0  0  0  0  0
  144.7259  134.1472  152.5865 H   0  0  0  0  0  0  0  0  0  0  0  0
  144.1062  136.2320  151.5624 H   0  0  0  0  0  0  0  0  0  0  0  0
  145.8302  136.2741  151.8435 H   0  0  0  0  0  0  0  0  0  0  0  0
  144.8204  136.8607  149.6738 H   0  0  0  0  0  0  0  0  0  0  0  0
  1  2  1  0  0  0  0
  1 20  1  0  0  0  0
  1 21  1  0  0  0  0
  1 22  1  0  0  0  0
  2  7  1  0  0  0  0
  2  3  2  0  0  0  0
  3  4  1  0  0  0  0
  3 23  1  0  0  0  0
  4  5  2  0  0  0  0
  5  6  1  0  0  0  0
  5 24  1  0  0  0  0
  6  7  2  0  0  0  0
  6 25  1  0  0  0  0
  7  8  1  0  0  0  0
  8  9  1  0  0  0  0
  8 26  1  0  0  0  0
  9 10  2  0  0  0  0
  9 11  1  0  0  0  0
 11 12  1  0  0  0  0
 11 27  1  0  0  0  0
 12 17  1  0  0  0  0
 12 13  1  0  0  0  0
 12 28  1  0  0  0  0
 13 14  1  0  0  0  0
 13 29  1  0  0  0  0
 13 30  1  0  0  0  0
 14 15  1  0  0  0  0
 14 31  1  0  0  0  0
 14 32  1  0  0  0  0
 15 16  1  0  0  0  0
 15 33  1  0  0  0  0
 15 34  1  0  0  0  0
 16 17  1  0  0  0  0
 16 35  1  0  0  0  0
 16 36  1  0  0  0  0
 17 18  1  0  0  0  0
 17 37  1  0  0  0  0
 18 19  1  0  0  0  0
 18 38  1  0  0  0  0
 18 39  1  0  0  0  0
 19 40  1  0  0  0  0
M  END
> <s_m_source_file>
AV-unprocessed.smi

> <i_m_source_file_index>
2453

> <i_lp_mmshare_version>
43012

> <i_f3d_flags>
0

> <s_epik_input>
W0NIM11jMVtjSF1uW2NIXVtjSF1jMVtOSF1DKD1PKVtOSF1bQ0BASF0yW0NIMl1bQ0gyXVtDSDJdW0NIMl1bQ0BIXTJbQ0gyXVtPSF0=

> <s_epik_cmdline>
J2VwaWtfcHl0aG9uJywgJy1waCcsICc3LjAnLCAnLXRuJywgJzgnLCAnLW1hJywgJzIwMCcsICctbWV0YWxfYmluZGluZycsICctaW1hZScsICc8aW5maWxlLm1hZT4nLCAnLW9tYWUnLCAnPG91dGZpbGUubWFlPic=

> <r_epik_Ionization_Penalty>
0.210691

> <r_epik_Ionization_Penalty_Charging>
0

> <r_epik_Ionization_Penalty_Neutral>
0.210691

> <r_epik_State_Penalty>
0.200732

> <r_epik_Charging_Adjusted_Penalty>
0.200732

> <i_epik_Tot_Q>
0

> <i_epik_Tot_abs_Q>
0

> <r_epik_Metal_State_Penalty>
0.147519

> <b_epik_Metal_Only>
0

> <s_lp_Force_Field>
OPLS_2005

> <r_lp_Energy>
20.8004

> <b_lp_Chiralities_Consistent>
1

> <s_lp_Variant>
AV-unprocessed.smi:2453-4

> <Gold.Version>
5.8.1

> <Gold.Id.Protein>
6NUR|6NUR_protein|mol2

> <Gold.PLP.Fitness>
39.9099

> <Gold.PLP.PLP>
-28.7877

> <Gold.PLP.part.hbond>
-4.9623

> <Gold.PLP.part.metal>
0.0000

> <Gold.PLP.part.buried>
-2.9823

> <Gold.PLP.part.nonpolar>
-20.8822

> <Gold.PLP.part.repulsive>
0.0902

> <Gold.PLP.ligand.clash>
0.0000

> <Gold.PLP.ligand.torsion>
0.1955

> <Gold.PLP.Chemscore.Hbond>
3.8320

> <Gold.PLP.Chemscore.CHOScore>
0.0000

> <Gold.PLP.Chemscore.Metal>
0.0000

> <Gold.Chemscore.Hbonds>
donor molecule, donor type, donor heavy atom, donor atom, acceptor molecule, acceptor atom, score
      L1  H     8    26       P1  7948  0.83
      L1  H    11    27       P1  7948  0.90
      L1  H    19    40       P1 10171  1.00
      P1  H  6896  6907       L1     4  1.00

> <Gold.PLP.Chemscore.Internal.Correction>
0.0172

> <Gold.Rescore>
     Score         DG    S(hbond)    S(metal)    S(lipo)     H(rot)  DE(clash)    DE(int)     intcor
     18.50     -21.41       3.64        0.00      70.44       1.75       0.02       2.90       ----

> <Gold.Chemscore.Fitness>
18.4956

> <Gold.Chemscore.DG>
-21.4134

> <Gold.Chemscore.ZeroCoef>
-5.4800

> <Gold.Chemscore.Hbond>
3.6438

> <Gold.Chemscore.Metal>
0.0000

> <Gold.Chemscore.Lipo>
70.4377

> <Gold.Chemscore.Internal_Hbond>
0.0000

> <Gold.Chemscore.DEClash>
0.0208

> <Gold.Chemscore.DEInternal>
2.8970

> <Gold.Chemscore.Rot>
1.7493

> <Gold.Chemscore.Internal.Correction>
   9.000000E+99

> <Gold.Chemscore.Hbonds>
donor molecule, donor type, donor heavy atom, donor atom, acceptor molecule, acceptor atom, score
      L1  H     8    26       P1  7948  0.32
      L1  H    11    27       P1  7948  0.17
      L1  H    19    40       P1 10171  0.99
      P1  H  6896  6907       L1     4  0.66

> <Gold.Chemscore.Hbond.Weighted>
-12.1703

> <Gold.Chemscore.Metal.Weighted>
-0.0000

> <Gold.Chemscore.Lipo.Weighted>
-8.2412

> <Gold.Chemscore.Internal_Hbond.Weighted>
0.0000

> <Gold.Chemscore.DEClash.Weighted>
0.0208

> <Gold.Chemscore.DEInternal.Weighted>
2.8970

> <Gold.Chemscore.Rot.Weighted>
4.4782

> <Gold.Chemscore.Internal.Correction.Weighted>
   9.000000E+99

> <Gold.Protein.RotatedTorsions>
[ 6907 6896 6895 6894 ] final  -81.80 input  -60.11 | X-H torsion
[ 7974 7965 7964 7962 ] final  -30.63 input  175.53 | X-H torsion
[ 8008 7997 7996 7995 ] final -133.88 input   59.86 | X-H torsion
[ 10167 10162 10161 10158 ] final -130.07 input  -65.29 | X-H torsion
[ 10718 10713 10712 10709 ] final  -28.89 input   66.30 | X-H torsion
[ 10763 10752 10751 10750 ] final -142.68 input  -60.55 | X-H torsion
[ 11005 11000 10999 10996 ] final  -14.38 input  -57.11 | X-H torsion

> <Gold.Protein.ActiveResidues>
 VAL166  LYS551  ARG553  GLY616  TRP617  ASP618  TYR619  PRO620  LYS621  CYS622 
 ASP623  PHE694  ASN695  SER759  ASP760  ASP761  ALA762  ILE779  LEU786  VAL792 
 PHE793  MET794  SER795  GLU796  ALA797  LYS798  CYS799  TRP800  GLU811  SER814 

> <Gold.Protein.RotatedAtoms>
  150.6906  134.3762  159.5013 H   0  0  0  0  0  0  0  0  0  0  0  0  # atno 6907 bound_to 6896
  152.1571  134.8939  160.0553 H   0  0  0  0  0  0  0  0  0  0  0  0  # atno 6908 bound_to 6896
  152.0015  133.3792  159.4220 H   0  0  0  0  0  0  0  0  0  0  0  0  # atno 6909 bound_to 6896
  146.1128  140.5565  142.8770 H   0  0  0  0  0  0  0  0  0  0  0  0  # atno 7974 bound_to 7965
  155.3528  140.0478  157.3046 H   0  0  0  0  0  0  0  0  0  0  0  0  # atno 8008 bound_to 7997
  154.5218  140.2227  155.8926 H   0  0  0  0  0  0  0  0  0  0  0  0  # atno 8009 bound_to 7997
  156.1698  140.3098  155.8959 H   0  0  0  0  0  0  0  0  0  0  0  0  # atno 8010 bound_to 7997
  139.9332  143.6248  152.2524 H   0  0  0  0  0  0  0  0  0  0  0  0  # atno 10167 bound_to 10162
  156.4195  130.4423  149.7194 H   0  0  0  0  0  0  0  0  0  0  0  0  # atno 10718 bound_to 10713
  154.8499  135.3489  154.6067 H   0  0  0  0  0  0  0  0  0  0  0  0  # atno 10763 bound_to 10752
  153.6676  135.6986  153.5162 H   0  0  0  0  0  0  0  0  0  0  0  0  # atno 10764 bound_to 10752
  153.2768  135.4276  155.0998 H   0  0  0  0  0  0  0  0  0  0  0  0  # atno 10765 bound_to 10752
  140.7858  133.8327  155.9334 H   0  0  0  0  0  0  0  0  0  0  0  0  # atno 11005 bound_to 11000
  144.7526  140.5230  143.6791 LP  0  0  0  0  0  0  0  0  0  0  0  0  # atno 17320 bound_to 7965
  145.5628  139.1480  143.3332 LP  0  0  0  0  0  0  0  0  0  0  0  0  # atno 17321 bound_to 7965
  139.6765  144.7658  151.1686 LP  0  0  0  0  0  0  0  0  0  0  0  0  # atno 17342 bound_to 10162
  140.7632  143.5787  150.8918 LP  0  0  0  0  0  0  0  0  0  0  0  0  # atno 17343 bound_to 10162
  156.4140  130.7736  151.2750 LP  0  0  0  0  0  0  0  0  0  0  0  0  # atno 17370 bound_to 10713
  157.7508  131.0203  150.3701 LP  0  0  0  0  0  0  0  0  0  0  0  0  # atno 17371 bound_to 10713
  140.9438  134.1867  157.4778 LP  0  0  0  0  0  0  0  0  0  0  0  0  # atno 17394 bound_to 11000
  139.8737  134.9882  156.5403 LP  0  0  0  0  0  0  0  0  0  0  0  0  # atno 17395 bound_to 11000

$$$$
