AV-unprocessed.smi:290|AV-procd|sdf|2227|dock3
  -GOLD-   2262022 83D 1   1.00000     0.00000
 Structure written by MMmdl.
 59 62  0  0  0  0  0  0  0  0  2 V2000
  150.7953  141.8540  155.9588 C   0  0  0  0  0  0  0  0  0  0  0  0
  151.5969  140.5771  156.2558 C   0  0  2  0  0  0  0  0  0  0  0  0
  151.9854  140.0067  155.0091 O   0  0  0  0  0  0  0  0  0  0  0  0
  152.1069  138.6049  155.1706 C   0  0  0  0  0  0  0  0  0  0  0  0
  150.9053  138.2752  156.0424 C   0  0  0  0  0  0  0  0  0  0  0  0
  150.8575  139.4443  157.0239 C   0  0  1  0  0  0  0  0  0  0  0  0
  151.6493  139.0945  158.1470 O   0  0  0  0  0  0  0  0  0  0  0  0
  149.4260  139.7715  157.5252 C   0  0  0  0  0  0  0  0  0  0  0  0
  148.4122  138.8667  157.0054 N   0  0  0  0  0  0  0  0  0  0  0  0
  147.6993  137.9297  157.7185 C   0  0  0  0  0  0  0  0  0  0  0  0
  146.8329  137.2441  157.0245 N   0  0  0  0  0  0  0  0  0  0  0  0
  146.9662  137.7350  155.7306 C   0  0  0  0  0  0  0  0  0  0  0  0
  146.3318  137.4447  154.4884 C   0  0  0  0  0  0  0  0  0  0  0  0
  145.3643  136.4989  154.3554 N   0  0  0  0  0  0  0  0  0  0  0  0
  145.0153  135.7304  155.5480 C   0  0  0  0  0  0  0  0  0  0  0  0
  144.6914  134.3101  155.0730 C   0  0  0  0  0  0  0  0  0  0  0  0
  144.3346  134.5164  153.5971 C   0  0  2  0  0  0  0  0  0  0  0  0
  144.3984  133.3012  152.7358 N   0  3  2  0  0  0  0  0  0  0  0  0
  145.7720  132.7509  152.6512 C   0  0  0  0  0  0  0  0  0  0  0  0
  143.7457  133.4192  151.4033 C   0  0  0  0  0  0  0  0  0  0  0  0
  143.7864  132.0906  150.6325 C   0  0  0  0  0  0  0  0  0  0  0  0
  143.0103  132.1915  149.4568 O   0  0  0  0  0  0  0  0  0  0  0  0
  145.2742  135.6516  153.1668 C   0  0  1  0  0  0  0  0  0  0  0  0
  144.7623  136.4145  151.9317 C   0  0  0  0  0  0  0  0  0  0  0  0
  146.7325  138.1605  153.4039 N   0  0  0  0  0  0  0  0  0  0  0  0
  147.6850  139.0905  153.5189 C   0  0  0  0  0  0  0  0  0  0  0  0
  148.3593  139.4630  154.6078 N   0  0  0  0  0  0  0  0  0  0  0  0
  147.9597  138.7546  155.7023 C   0  0  0  0  0  0  0  0  0  0  0  0
  143.3162  134.9088  153.5561 H   0  0  0  0  0  0  0  0  0  0  0  0
  146.2678  135.2589  152.9546 H   0  0  0  0  0  0  0  0  0  0  0  0
  150.4800  142.3501  156.8767 H   0  0  0  0  0  0  0  0  0  0  0  0
  149.9086  141.6410  155.3617 H   0  0  0  0  0  0  0  0  0  0  0  0
  151.4021  142.5646  155.3971 H   0  0  0  0  0  0  0  0  0  0  0  0
  152.5101  140.8600  156.7836 H   0  0  0  0  0  0  0  0  0  0  0  0
  152.0908  138.0840  154.2132 H   0  0  0  0  0  0  0  0  0  0  0  0
  153.0420  138.3686  155.6809 H   0  0  0  0  0  0  0  0  0  0  0  0
  150.0118  138.2728  155.4167 H   0  0  0  0  0  0  0  0  0  0  0  0
  150.9771  137.2974  156.5214 H   0  0  0  0  0  0  0  0  0  0  0  0
  152.4448  139.6043  158.1247 H   0  0  0  0  0  0  0  0  0  0  0  0
  149.3855  139.7390  158.6147 H   0  0  0  0  0  0  0  0  0  0  0  0
  149.1420  140.7834  157.2354 H   0  0  0  0  0  0  0  0  0  0  0  0
  147.8373  137.7746  158.7787 H   0  0  0  0  0  0  0  0  0  0  0  0
  145.8171  135.7217  156.2880 H   0  0  0  0  0  0  0  0  0  0  0  0
  144.1374  136.1855  156.0078 H   0  0  0  0  0  0  0  0  0  0  0  0
  145.5790  133.6892  155.1919 H   0  0  0  0  0  0  0  0  0  0  0  0
  143.8849  133.8516  155.6458 H   0  0  0  0  0  0  0  0  0  0  0  0
  146.4436  133.4499  152.1514 H   0  0  0  0  0  0  0  0  0  0  0  0
  145.7891  131.8119  152.0986 H   0  0  0  0  0  0  0  0  0  0  0  0
  146.1702  132.5488  153.6459 H   0  0  0  0  0  0  0  0  0  0  0  0
  142.7054  133.7303  151.4887 H   0  0  0  0  0  0  0  0  0  0  0  0
  144.2403  134.2023  150.8265 H   0  0  0  0  0  0  0  0  0  0  0  0
  144.8121  131.8557  150.3466 H   0  0  0  0  0  0  0  0  0  0  0  0
  143.4269  131.2591  151.2383 H   0  0  0  0  0  0  0  0  0  0  0  0
  142.4004  132.9073  149.5552 H   0  0  0  0  0  0  0  0  0  0  0  0
  144.6695  135.7476  151.0742 H   0  0  0  0  0  0  0  0  0  0  0  0
  145.4373  137.2198  151.6433 H   0  0  0  0  0  0  0  0  0  0  0  0
  143.7827  136.8565  152.1165 H   0  0  0  0  0  0  0  0  0  0  0  0
  147.9430  139.6117  152.6088 H   0  0  0  0  0  0  0  0  0  0  0  0
  143.8584  132.6077  153.2346 H   0  0  0  0  0  0  0  0  0  0  0  0
  1  2  1  0  0  0  0
  1 31  1  0  0  0  0
  1 32  1  0  0  0  0
  1 33  1  0  0  0  0
  2  6  1  0  0  0  0
  2  3  1  0  0  0  0
  2 34  1  0  0  0  0
  3  4  1  0  0  0  0
  4  5  1  0  0  0  0
  4 35  1  0  0  0  0
  4 36  1  0  0  0  0
  5  6  1  0  0  0  0
  5 37  1  0  0  0  0
  5 38  1  0  0  0  0
  6  7  1  0  0  0  0
  6  8  1  0  0  0  0
  7 39  1  0  0  0  0
  8  9  1  0  0  0  0
  8 40  1  0  0  0  0
  8 41  1  0  0  0  0
  9 28  1  0  0  0  0
  9 10  1  0  0  0  0
 10 11  2  0  0  0  0
 10 42  1  0  0  0  0
 11 12  1  0  0  0  0
 12 28  2  0  0  0  0
 12 13  1  0  0  0  0
 13 14  1  0  0  0  0
 13 25  2  0  0  0  0
 14 23  1  0  0  0  0
 14 15  1  0  0  0  0
 15 16  1  0  0  0  0
 15 43  1  0  0  0  0
 15 44  1  0  0  0  0
 16 17  1  0  0  0  0
 16 45  1  0  0  0  0
 16 46  1  0  0  0  0
 17 29  1  0  0  0  0
 17 18  1  0  0  0  0
 17 23  1  0  0  0  0
 18 19  1  0  0  0  0
 18 20  1  0  0  0  0
 18 59  1  0  0  0  0
 19 47  1  0  0  0  0
 19 48  1  0  0  0  0
 19 49  1  0  0  0  0
 20 21  1  0  0  0  0
 20 50  1  0  0  0  0
 20 51  1  0  0  0  0
 21 22  1  0  0  0  0
 21 52  1  0  0  0  0
 21 53  1  0  0  0  0
 22 54  1  0  0  0  0
 23 30  1  0  0  0  0
 23 24  1  0  0  0  0
 24 55  1  0  0  0  0
 24 56  1  0  0  0  0
 24 57  1  0  0  0  0
 25 26  1  0  0  0  0
 26 27  2  0  0  0  0
 26 58  1  0  0  0  0
 27 28  1  0  0  0  0
M  CHG  1  18   1
M  END
> <s_m_source_file>
AV-unprocessed.smi

> <i_m_source_file_index>
290

> <i_lp_mmshare_version>
43012

> <i_f3d_flags>
0

> <s_epik_input>
W0NIMl0xW0NIMl1PW0NAQEhdKFtDSDNdKVtDQEBdMShbT0hdKVtDSDJdbihbY0hdbjIpYyhjMjMpbltjSF1uYzNONFtDSDJdW0NIMl1bQ0BIXShbQ0BIXTRbQ0gzXSlOKFtDSDNdKVtDSDJdW0NIMl1bT0hd

> <s_epik_cmdline>
J2VwaWtfcHl0aG9uJywgJy1waCcsICc3LjAnLCAnLXRuJywgJzgnLCAnLW1hJywgJzIwMCcsICctbWV0YWxfYmluZGluZycsICctaW1hZScsICc8aW5maWxlLm1hZT4nLCAnLW9tYWUnLCAnPG91dGZpbGUubWFlPic=

> <r_lp_tautomer_probability>
1

> <r_epik_Ionization_Penalty>
0.0036983

> <r_epik_Ionization_Penalty_Charging>
0.0032725

> <r_epik_Ionization_Penalty_Neutral>
0.000425798

> <r_epik_State_Penalty>
-0

> <r_epik_Charging_Adjusted_Penalty>
0.0032725

> <i_epik_Tot_Q>
1

> <i_epik_Tot_abs_Q>
1

> <r_epik_Metal_State_Penalty>
-0

> <b_epik_Metal_Only>
0

> <s_lp_Force_Field>
OPLS_2005

> <r_lp_Energy>
58.7997

> <b_lp_Chiralities_Consistent>
1

> <s_lp_Variant>
AV-unprocessed.smi:290-13

> <Gold.Version>
5.8.1

> <Gold.Id.Protein>
6NUR|6NUR_protein|mol2

> <Gold.PLP.Fitness>
42.5384

> <Gold.PLP.PLP>
-28.6957

> <Gold.PLP.part.hbond>
-4.6555

> <Gold.PLP.part.metal>
0.0000

> <Gold.PLP.part.buried>
-5.8809

> <Gold.PLP.part.nonpolar>
-18.7461

> <Gold.PLP.part.repulsive>
0.4008

> <Gold.PLP.ligand.clash>
0.0000

> <Gold.PLP.ligand.torsion>
1.6610

> <Gold.PLP.Chemscore.Hbond>
4.5040

> <Gold.PLP.Chemscore.CHOScore>
1.0000

> <Gold.PLP.Chemscore.Metal>
0.0000

> <Gold.Chemscore.Hbonds>
donor molecule, donor type, donor heavy atom, donor atom, acceptor molecule, acceptor atom, score
      L1  H    18    59       P1 10957  1.59
      L1  H    22    54       P1 10186  0.94
      P1  H  7989  7998       L1     3  0.85
      P1  H 10785 10796       L1    22  0.60
      L1  C    26    58       P1  7957  1.00

> <Gold.PLP.Chemscore.Internal.Correction>
0.6527

> <Gold.Rescore>
     Score         DG    S(hbond)    S(metal)    S(lipo)     H(rot)  DE(clash)    DE(int)     intcor
      7.72     -12.54       2.72        0.00      62.94       3.67       0.01       4.81       ----

> <Gold.Chemscore.Fitness>
7.7232

> <Gold.Chemscore.DG>
-12.5433

> <Gold.Chemscore.ZeroCoef>
-5.4800

> <Gold.Chemscore.Hbond>
2.7197

> <Gold.Chemscore.Metal>
0.0000

> <Gold.Chemscore.Lipo>
62.9407

> <Gold.Chemscore.Internal_Hbond>
0.0000

> <Gold.Chemscore.DEClash>
0.0089

> <Gold.Chemscore.DEInternal>
4.8112

> <Gold.Chemscore.Rot>
3.6658

> <Gold.Chemscore.Internal.Correction>
   9.000000E+99

> <Gold.Chemscore.Hbonds>
donor molecule, donor type, donor heavy atom, donor atom, acceptor molecule, acceptor atom, score
      L1  H    18    59       P1 10957  0.20
      L1  H    22    54       P1 10186  0.90
      P1  H  7989  7998       L1     3  0.81
      P1  H 10785 10796       L1    22  0.13

> <Gold.Chemscore.Hbond.Weighted>
-9.0837

> <Gold.Chemscore.Metal.Weighted>
-0.0000

> <Gold.Chemscore.Lipo.Weighted>
-7.3641

> <Gold.Chemscore.Internal_Hbond.Weighted>
0.0000

> <Gold.Chemscore.DEClash.Weighted>
0.0089

> <Gold.Chemscore.DEInternal.Weighted>
4.8112

> <Gold.Chemscore.Rot.Weighted>
9.3844

> <Gold.Chemscore.Internal.Correction.Weighted>
   9.000000E+99

> <Gold.Protein.RotatedTorsions>
[ 6907 6896 6895 6894 ] final -167.22 input  -60.11 | X-H torsion
[ 7974 7965 7964 7962 ] final  176.99 input  175.53 | X-H torsion
[ 8008 7997 7996 7995 ] final  175.13 input   59.86 | X-H torsion
[ 10167 10162 10161 10158 ] final   34.22 input  -65.29 | X-H torsion
[ 10718 10713 10712 10709 ] final   36.99 input   66.30 | X-H torsion
[ 10763 10752 10751 10750 ] final  -45.76 input  -60.55 | X-H torsion
[ 11005 11000 10999 10996 ] final   84.31 input  -57.11 | X-H torsion

> <Gold.Protein.ActiveResidues>
 VAL166  LYS551  ARG553  GLY616  TRP617  ASP618  TYR619  PRO620  LYS621  CYS622 
 ASP623  PHE694  ASN695  SER759  ASP760  ASP761  ALA762  ILE779  LEU786  VAL792 
 PHE793  MET794  SER795  GLU796  ALA797  LYS798  CYS799  TRP800  GLU811  SER814 

> <Gold.Protein.RotatedAtoms>
  151.4561  133.3604  159.2802 H   0  0  0  0  0  0  0  0  0  0  0  0  # atno 6907 bound_to 6896
  150.9057  134.8474  159.7402 H   0  0  0  0  0  0  0  0  0  0  0  0  # atno 6908 bound_to 6896
  152.4905  134.4486  159.9619 H   0  0  0  0  0  0  0  0  0  0  0  0  # atno 6909 bound_to 6896
  144.7176  140.0179  143.6440 H   0  0  0  0  0  0  0  0  0  0  0  0  # atno 7974 bound_to 7965
  156.0902  140.1417  156.9601 H   0  0  0  0  0  0  0  0  0  0  0  0  # atno 8008 bound_to 7997
  154.4637  140.0934  156.7011 H   0  0  0  0  0  0  0  0  0  0  0  0  # atno 8009 bound_to 7997
  155.4932  140.3448  155.4360 H   0  0  0  0  0  0  0  0  0  0  0  0  # atno 8010 bound_to 7997
  140.4335  144.1290  150.6163 H   0  0  0  0  0  0  0  0  0  0  0  0  # atno 10167 bound_to 10162
  157.3416  130.7551  149.6916 H   0  0  0  0  0  0  0  0  0  0  0  0  # atno 10718 bound_to 10713
  154.0339  135.6653  153.4783 H   0  0  0  0  0  0  0  0  0  0  0  0  # atno 10763 bound_to 10752
  153.0529  135.5073  154.7906 H   0  0  0  0  0  0  0  0  0  0  0  0  # atno 10764 bound_to 10752
  154.6861  135.3053  154.9511 H   0  0  0  0  0  0  0  0  0  0  0  0  # atno 10765 bound_to 10752
  139.9004  134.8207  156.2427 H   0  0  0  0  0  0  0  0  0  0  0  0  # atno 11005 bound_to 11000
  146.0204  139.3246  143.0816 LP  0  0  0  0  0  0  0  0  0  0  0  0  # atno 17320 bound_to 7965
  145.8574  140.9494  143.0718 LP  0  0  0  0  0  0  0  0  0  0  0  0  # atno 17321 bound_to 7965
  140.4400  143.2531  151.9486 LP  0  0  0  0  0  0  0  0  0  0  0  0  # atno 17342 bound_to 10162
  139.4786  144.5664  151.8159 LP  0  0  0  0  0  0  0  0  0  0  0  0  # atno 17343 bound_to 10162
  155.9708  130.4166  150.4239 LP  0  0  0  0  0  0  0  0  0  0  0  0  # atno 17370 bound_to 10713
  157.2287  131.0499  151.2505 LP  0  0  0  0  0  0  0  0  0  0  0  0  # atno 17371 bound_to 10713
  141.0274  133.7007  156.1371 LP  0  0  0  0  0  0  0  0  0  0  0  0  # atno 17394 bound_to 11000
  140.7146  134.4425  157.5579 LP  0  0  0  0  0  0  0  0  0  0  0  0  # atno 17395 bound_to 11000

$$$$
