AV-unprocessed.smi:1531|AV-procd|sdf|6158|dock2
  -GOLD-   22720 6303D 1   1.00000     0.00000
 Structure written by MMmdl.
 44 45  0  0  0  0  0  0  0  0  1 V2000
  151.2090  139.2784  154.9743 C   0  0  0  0  0  0  0  0  0  0  0  0
  149.8860  139.0906  154.2193 C   0  0  0  0  0  0  0  0  0  0  0  0
  148.9133  140.2861  154.3404 C   0  0  2  0  0  0  0  0  0  0  0  0
  148.4047  140.4351  155.7910 C   0  0  0  0  0  0  0  0  0  0  0  0
  147.4769  141.6496  155.9516 C   0  0  0  0  0  0  0  0  0  0  0  0
  146.2918  141.5759  154.9790 C   0  0  0  0  0  0  0  0  0  0  0  0
  146.7775  141.4387  153.5268 C   0  0  0  0  0  0  0  0  0  0  0  0
  147.7283  140.2387  153.3382 C   0  0  2  0  0  0  0  0  0  0  0  0
  146.9870  138.9811  153.4487 N   0  0  0  0  0  0  0  0  0  0  0  0
  146.6229  138.1908  152.4290 C   0  0  0  0  0  0  0  0  0  0  0  0
  146.8705  138.4374  151.2485 O   0  0  0  0  0  0  0  0  0  0  0  0
  145.9566  137.1102  152.8671 N   0  0  0  0  0  0  0  0  0  0  0  0
  145.4544  136.0367  152.0891 C   0  0  0  0  0  0  0  0  0  0  0  0
  144.3068  136.1057  151.2573 C   0  0  0  0  0  0  0  0  0  0  0  0
  144.0772  134.9459  150.6608 N   0  0  0  0  0  0  0  0  0  0  0  0
  145.0628  134.1226  151.0987 N   0  0  0  0  0  0  0  0  0  0  0  0
  145.1119  132.7476  150.6342 C   0  0  0  0  0  0  0  0  0  0  0  0
  143.8585  132.3851  149.8355 C   0  0  0  0  0  0  0  0  0  0  0  0
  142.6932  132.3978  150.4888 N   0  0  0  0  0  0  0  0  0  0  0  0
  143.9399  132.1018  148.6423 O   0  0  0  0  0  0  0  0  0  0  0  0
  145.9214  134.7580  151.9746 C   0  0  0  0  0  0  0  0  0  0  0  0
  151.8110  138.3707  154.9276 H   0  0  0  0  0  0  0  0  0  0  0  0
  151.0350  139.5065  156.0262 H   0  0  0  0  0  0  0  0  0  0  0  0
  151.8044  140.0851  154.5472 H   0  0  0  0  0  0  0  0  0  0  0  0
  150.0938  138.8734  153.1711 H   0  0  0  0  0  0  0  0  0  0  0  0
  149.3967  138.1992  154.6136 H   0  0  0  0  0  0  0  0  0  0  0  0
  149.4873  141.1862  154.1145 H   0  0  0  0  0  0  0  0  0  0  0  0
  147.8762  139.5309  156.0949 H   0  0  0  0  0  0  0  0  0  0  0  0
  149.2500  140.5370  156.4726 H   0  0  0  0  0  0  0  0  0  0  0  0
  147.1121  141.7057  156.9775 H   0  0  0  0  0  0  0  0  0  0  0  0
  148.0402  142.5664  155.7733 H   0  0  0  0  0  0  0  0  0  0  0  0
  145.6553  140.7292  155.2389 H   0  0  0  0  0  0  0  0  0  0  0  0
  145.6731  142.4677  155.0803 H   0  0  0  0  0  0  0  0  0  0  0  0
  145.9234  141.3540  152.8537 H   0  0  0  0  0  0  0  0  0  0  0  0
  147.2973  142.3537  153.2396 H   0  0  0  0  0  0  0  0  0  0  0  0
  148.1434  140.3207  152.3327 H   0  0  0  0  0  0  0  0  0  0  0  0
  146.7342  138.6918  154.3821 H   0  0  0  0  0  0  0  0  0  0  0  0
  145.7986  137.0440  153.8620 H   0  0  0  0  0  0  0  0  0  0  0  0
  143.6470  136.9401  151.0694 H   0  0  0  0  0  0  0  0  0  0  0  0
  146.0017  132.6157  150.0169 H   0  0  0  0  0  0  0  0  0  0  0  0
  145.2151  132.0787  151.4901 H   0  0  0  0  0  0  0  0  0  0  0  0
  141.8379  132.1691  150.0029 H   0  0  0  0  0  0  0  0  0  0  0  0
  142.6724  132.6405  151.4688 H   0  0  0  0  0  0  0  0  0  0  0  0
  146.7623  134.2496  152.4227 H   0  0  0  0  0  0  0  0  0  0  0  0
  1  2  1  0  0  0  0
  1 22  1  0  0  0  0
  1 23  1  0  0  0  0
  1 24  1  0  0  0  0
  2  3  1  0  0  0  0
  2 25  1  0  0  0  0
  2 26  1  0  0  0  0
  3  8  1  0  0  0  0
  3  4  1  0  0  0  0
  3 27  1  0  0  0  0
  4  5  1  0  0  0  0
  4 28  1  0  0  0  0
  4 29  1  0  0  0  0
  5  6  1  0  0  0  0
  5 30  1  0  0  0  0
  5 31  1  0  0  0  0
  6  7  1  0  0  0  0
  6 32  1  0  0  0  0
  6 33  1  0  0  0  0
  7  8  1  0  0  0  0
  7 34  1  0  0  0  0
  7 35  1  0  0  0  0
  8  9  1  0  0  0  0
  8 36  1  0  0  0  0
  9 10  1  0  0  0  0
  9 37  1  0  0  0  0
 10 11  2  0  0  0  0
 10 12  1  0  0  0  0
 12 13  1  0  0  0  0
 12 38  1  0  0  0  0
 13 21  2  0  0  0  0
 13 14  1  0  0  0  0
 14 15  2  0  0  0  0
 14 39  1  0  0  0  0
 15 16  1  0  0  0  0
 16 17  1  0  0  0  0
 16 21  1  0  0  0  0
 17 18  1  0  0  0  0
 17 40  1  0  0  0  0
 17 41  1  0  0  0  0
 18 19  1  0  0  0  0
 18 20  2  0  0  0  0
 19 42  1  0  0  0  0
 19 43  1  0  0  0  0
 21 44  1  0  0  0  0
M  END
> <s_m_source_file>
AV-unprocessed.smi

> <i_m_source_file_index>
1531

> <i_lp_mmshare_version>
43012

> <i_f3d_flags>
0

> <s_epik_input>
W0NIM11bQ0gyXVtDQEBIXTFbQ0gyXVtDSDJdW0NIMl1bQ0gyXVtDQEhdMVtOSF1DKD1PKVtOSF1jMltjSF1ubihbY0hdMilbQ0gyXUMoPU8pW05IMl0=

> <s_epik_cmdline>
J2VwaWtfcHl0aG9uJywgJy1waCcsICc3LjAnLCAnLXRuJywgJzgnLCAnLW1hJywgJzIwMCcsICctbWV0YWxfYmluZGluZycsICctaW1hZScsICc8aW5maWxlLm1hZT4nLCAnLW9tYWUnLCAnPG91dGZpbGUubWFlPic=

> <r_lp_tautomer_probability>
1

> <r_epik_Ionization_Penalty>
4.83437e-05

> <r_epik_Ionization_Penalty_Charging>
0

> <r_epik_Ionization_Penalty_Neutral>
4.83437e-05

> <r_epik_State_Penalty>
-0

> <r_epik_Charging_Adjusted_Penalty>
0

> <i_epik_Tot_Q>
0

> <i_epik_Tot_abs_Q>
0

> <r_epik_Metal_State_Penalty>
-0

> <b_epik_Metal_Only>
0

> <s_lp_Force_Field>
OPLS_2005

> <r_lp_Energy>
15.1652

> <b_lp_Chiralities_Consistent>
1

> <s_lp_Variant>
AV-unprocessed.smi:1531-3

> <Gold.Version>
5.8.1

> <Gold.Id.Protein>
6NUR|6NUR_protein|mol2

> <Gold.PLP.Fitness>
42.6253

> <Gold.PLP.PLP>
-35.2795

> <Gold.PLP.part.hbond>
-4.1424

> <Gold.PLP.part.metal>
0.0000

> <Gold.PLP.part.buried>
-2.7557

> <Gold.PLP.part.nonpolar>
-31.0768

> <Gold.PLP.part.repulsive>
1.5019

> <Gold.PLP.ligand.clash>
0.0000

> <Gold.PLP.ligand.torsion>
1.0018

> <Gold.PLP.Chemscore.Hbond>
2.1040

> <Gold.PLP.Chemscore.CHOScore>
1.0000

> <Gold.PLP.Chemscore.Metal>
0.0000

> <Gold.Chemscore.Hbonds>
donor molecule, donor type, donor heavy atom, donor atom, acceptor molecule, acceptor atom, score
      L1  H    19    42       P1 10952  0.56
      P1  H  7954  7966       L1    11  1.00
      P1  H 10785 10796       L1    20  0.48
      L1  C    14    39       P1 10171  1.00

> <Gold.PLP.Chemscore.Internal.Correction>
0.0376

> <Gold.Rescore>
     Score         DG    S(hbond)    S(metal)    S(lipo)     H(rot)  DE(clash)    DE(int)     intcor
     12.45     -14.18       1.81        0.00      69.29       2.13       0.81       0.93       ----

> <Gold.Chemscore.Fitness>
12.4479

> <Gold.Chemscore.DG>
-14.1819

> <Gold.Chemscore.ZeroCoef>
-5.4800

> <Gold.Chemscore.Hbond>
1.8134

> <Gold.Chemscore.Metal>
0.0000

> <Gold.Chemscore.Lipo>
69.2911

> <Gold.Chemscore.Internal_Hbond>
0.0000

> <Gold.Chemscore.DEClash>
0.8071

> <Gold.Chemscore.DEInternal>
0.9269

> <Gold.Chemscore.Rot>
2.1335

> <Gold.Chemscore.Internal.Correction>
   9.000000E+99

> <Gold.Chemscore.Hbonds>
donor molecule, donor type, donor heavy atom, donor atom, acceptor molecule, acceptor atom, score
      L1  H    19    42       P1 10952  0.48
      P1  H  7954  7966       L1    11  0.98
      P1  H 10785 10796       L1    20  0.11

> <Gold.Chemscore.Hbond.Weighted>
-6.0567

> <Gold.Chemscore.Metal.Weighted>
-0.0000

> <Gold.Chemscore.Lipo.Weighted>
-8.1071

> <Gold.Chemscore.Internal_Hbond.Weighted>
0.0000

> <Gold.Chemscore.DEClash.Weighted>
0.8071

> <Gold.Chemscore.DEInternal.Weighted>
0.9269

> <Gold.Chemscore.Rot.Weighted>
5.4618

> <Gold.Chemscore.Internal.Correction.Weighted>
   9.000000E+99

> <Gold.Protein.RotatedTorsions>
[ 6907 6896 6895 6894 ] final -107.91 input  -60.11 | X-H torsion
[ 7974 7965 7964 7962 ] final -171.89 input  175.53 | X-H torsion
[ 8008 7997 7996 7995 ] final  -48.80 input   59.86 | X-H torsion
[ 10167 10162 10161 10158 ] final   17.88 input  -65.29 | X-H torsion
[ 10718 10713 10712 10709 ] final  174.67 input   66.30 | X-H torsion
[ 10763 10752 10751 10750 ] final   10.40 input  -60.55 | X-H torsion
[ 11005 11000 10999 10996 ] final   50.42 input  -57.11 | X-H torsion

> <Gold.Protein.ActiveResidues>
 VAL166  LYS551  ARG553  GLY616  TRP617  ASP618  TYR619  PRO620  LYS621  CYS622 
 ASP623  PHE694  ASN695  SER759  ASP760  ASP761  ALA762  ILE779  LEU786  VAL792 
 PHE793  MET794  SER795  GLU796  ALA797  LYS798  CYS799  TRP800  GLU811  SER814 

> <Gold.Protein.RotatedAtoms>
  150.7471  133.9756  159.3559 H   0  0  0  0  0  0  0  0  0  0  0  0  # atno 6907 bound_to 6896
  151.7693  135.0788  160.0367 H   0  0  0  0  0  0  0  0  0  0  0  0  # atno 6908 bound_to 6896
  152.3350  133.5964  159.5872 H   0  0  0  0  0  0  0  0  0  0  0  0  # atno 6909 bound_to 6896
  144.7152  140.1855  143.6354 H   0  0  0  0  0  0  0  0  0  0  0  0  # atno 7974 bound_to 7965
  154.4034  140.1312  156.4398 H   0  0  0  0  0  0  0  0  0  0  0  0  # atno 8008 bound_to 7997
  155.7470  140.3489  155.5111 H   0  0  0  0  0  0  0  0  0  0  0  0  # atno 8009 bound_to 7997
  155.8986  140.1015  157.1357 H   0  0  0  0  0  0  0  0  0  0  0  0  # atno 8010 bound_to 7997
  140.5693  143.9190  150.6701 H   0  0  0  0  0  0  0  0  0  0  0  0  # atno 10167 bound_to 10162
  156.9462  131.0016  151.2958 H   0  0  0  0  0  0  0  0  0  0  0  0  # atno 10718 bound_to 10713
  153.2036  135.6859  153.8201 H   0  0  0  0  0  0  0  0  0  0  0  0  # atno 10763 bound_to 10752
  153.7458  135.3231  155.3313 H   0  0  0  0  0  0  0  0  0  0  0  0  # atno 10764 bound_to 10752
  154.8185  135.4669  154.0813 H   0  0  0  0  0  0  0  0  0  0  0  0  # atno 10765 bound_to 10752
  140.1019  134.5070  155.8755 H   0  0  0  0  0  0  0  0  0  0  0  0  # atno 11005 bound_to 11000
  145.8817  139.2326  143.1601 LP  0  0  0  0  0  0  0  0  0  0  0  0  # atno 17320 bound_to 7965
  145.9988  140.8538  143.0029 LP  0  0  0  0  0  0  0  0  0  0  0  0  # atno 17321 bound_to 7965
  140.2662  143.3489  152.1279 LP  0  0  0  0  0  0  0  0  0  0  0  0  # atno 17342 bound_to 10162
  139.5109  144.6892  151.5805 LP  0  0  0  0  0  0  0  0  0  0  0  0  # atno 17343 bound_to 10162
  157.5752  130.8338  149.8446 LP  0  0  0  0  0  0  0  0  0  0  0  0  # atno 17370 bound_to 10713
  156.0383  130.3745  150.1502 LP  0  0  0  0  0  0  0  0  0  0  0  0  # atno 17371 bound_to 10713
  141.2108  133.6699  156.6534 LP  0  0  0  0  0  0  0  0  0  0  0  0  # atno 17394 bound_to 11000
  140.3209  134.8009  157.4251 LP  0  0  0  0  0  0  0  0  0  0  0  0  # atno 17395 bound_to 11000

$$$$
