AV-unprocessed.smi:274|AV-procd|sdf|2059|dock6
  -GOLD-   2262021303D 1   1.00000     0.00000
 Structure written by MMmdl.
 50 53  0  0  0  0  0  0  0  0  1 V2000
  153.4471  141.7053  159.8178 C   0  0  0  0  0  0  0  0  0  0  0  0
  152.5288  142.2241  158.6926 C   0  0  0  0  0  0  0  0  0  0  0  0
  152.1935  143.7045  158.9641 C   0  0  0  0  0  0  0  0  0  0  0  0
  151.2670  141.3232  158.5082 C   0  0  1  0  0  0  0  0  0  0  0  0
  150.1402  142.0232  157.7074 C   0  0  0  0  0  0  0  0  0  0  0  0
  149.4398  142.8749  158.2508 O   0  0  0  0  0  0  0  0  0  0  0  0
  149.9223  141.6618  156.4299 N   0  0  0  0  0  0  0  0  0  0  0  0
  150.6264  140.6086  155.6978 C   0  0  0  0  0  0  0  0  0  0  0  0
  151.8762  140.0854  156.4281 C   0  0  0  0  0  0  0  0  0  0  0  0
  151.6506  140.0522  157.8710 N   0  0  0  0  0  0  0  0  0  0  0  0
  151.1188  138.8931  158.3380 C   0  0  0  0  0  0  0  0  0  0  0  0
  150.4742  138.8690  159.5349 N   0  0  0  0  0  0  0  0  0  0  0  0
  149.9379  137.7325  159.9885 C   0  0  0  0  0  0  0  0  0  0  0  0
  149.9319  136.5266  159.4173 N   0  0  0  0  0  0  0  0  0  0  0  0
  150.5814  136.5436  158.2181 C   0  0  0  0  0  0  0  0  0  0  0  0
  151.1930  137.6747  157.6081 C   0  0  0  0  0  0  0  0  0  0  0  0
  151.7535  137.3113  156.3897 N   0  0  0  0  0  0  0  0  0  0  0  0
  151.4835  136.0389  156.2828 C   0  0  0  0  0  0  0  0  0  0  0  0
  150.7928  135.4930  157.3416 N   0  0  0  0  0  0  0  0  0  0  0  0
  150.3691  134.1087  157.4909 C   0  0  0  0  0  0  0  0  0  0  0  0
  149.2661  133.6859  156.4913 C   0  0  1  0  0  0  0  0  0  0  0  0
  148.7749  134.8367  155.8255 O   0  0  0  0  0  0  0  0  0  0  0  0
  149.7666  132.7022  155.4416 C   0  0  0  0  0  0  0  0  0  0  0  0
  148.5114  131.9134  155.0939 C   0  0  0  0  0  0  0  0  0  0  0  0
  147.8781  131.7550  156.3520 O   0  0  0  0  0  0  0  0  0  0  0  0
  148.0728  132.9382  157.1218 C   0  0  0  0  0  0  0  0  0  0  0  0
  152.9177  141.6630  160.7702 H   0  0  0  0  0  0  0  0  0  0  0  0
  154.3132  142.3544  159.9497 H   0  0  0  0  0  0  0  0  0  0  0  0
  153.8319  140.7074  159.6057 H   0  0  0  0  0  0  0  0  0  0  0  0
  153.1103  142.2011  157.7705 H   0  0  0  0  0  0  0  0  0  0  0  0
  151.5293  143.8092  159.8224 H   0  0  0  0  0  0  0  0  0  0  0  0
  151.7160  144.1799  158.1078 H   0  0  0  0  0  0  0  0  0  0  0  0
  153.0960  144.2797  159.1728 H   0  0  0  0  0  0  0  0  0  0  0  0
  150.8757  141.1271  159.5082 H   0  0  0  0  0  0  0  0  0  0  0  0
  149.1783  142.1333  155.9362 H   0  0  0  0  0  0  0  0  0  0  0  0
  149.9200  139.7889  155.5626 H   0  0  0  0  0  0  0  0  0  0  0  0
  150.8871  140.9641  154.7009 H   0  0  0  0  0  0  0  0  0  0  0  0
  152.1614  139.1123  156.0274 H   0  0  0  0  0  0  0  0  0  0  0  0
  152.7212  140.7434  156.2267 H   0  0  0  0  0  0  0  0  0  0  0  0
  149.4423  137.7992  160.9458 H   0  0  0  0  0  0  0  0  0  0  0  0
  151.7869  135.4609  155.4223 H   0  0  0  0  0  0  0  0  0  0  0  0
  151.2448  133.4684  157.3749 H   0  0  0  0  0  0  0  0  0  0  0  0
  150.0231  133.9679  158.5157 H   0  0  0  0  0  0  0  0  0  0  0  0
  149.2404  134.9325  155.0088 H   0  0  0  0  0  0  0  0  0  0  0  0
  150.2284  133.1799  154.5762 H   0  0  0  0  0  0  0  0  0  0  0  0
  150.5021  132.0251  155.8784 H   0  0  0  0  0  0  0  0  0  0  0  0
  147.8627  132.4816  154.4254 H   0  0  0  0  0  0  0  0  0  0  0  0
  148.7303  130.9519  154.6292 H   0  0  0  0  0  0  0  0  0  0  0  0
  148.2719  132.6366  158.1495 H   0  0  0  0  0  0  0  0  0  0  0  0
  147.1622  133.5393  157.1281 H   0  0  0  0  0  0  0  0  0  0  0  0
  1  2  1  0  0  0  0
  1 27  1  0  0  0  0
  1 28  1  0  0  0  0
  1 29  1  0  0  0  0
  2  3  1  0  0  0  0
  2  4  1  0  0  0  0
  2 30  1  0  0  0  0
  3 31  1  0  0  0  0
  3 32  1  0  0  0  0
  3 33  1  0  0  0  0
  4 10  1  0  0  0  0
  4  5  1  0  0  0  0
  4 34  1  0  0  0  0
  5  6  2  0  0  0  0
  5  7  1  0  0  0  0
  7  8  1  0  0  0  0
  7 35  1  0  0  0  0
  8  9  1  0  0  0  0
  8 36  1  0  0  0  0
  8 37  1  0  0  0  0
  9 10  1  0  0  0  0
  9 38  1  0  0  0  0
  9 39  1  0  0  0  0
 10 11  1  0  0  0  0
 11 16  1  0  0  0  0
 11 12  2  0  0  0  0
 12 13  1  0  0  0  0
 13 14  2  0  0  0  0
 13 40  1  0  0  0  0
 14 15  1  0  0  0  0
 15 19  1  0  0  0  0
 15 16  2  0  0  0  0
 16 17  1  0  0  0  0
 17 18  2  0  0  0  0
 18 19  1  0  0  0  0
 18 41  1  0  0  0  0
 19 20  1  0  0  0  0
 20 21  1  0  0  0  0
 20 42  1  0  0  0  0
 20 43  1  0  0  0  0
 21 26  1  0  0  0  0
 21 22  1  0  0  0  0
 21 23  1  0  0  0  0
 22 44  1  0  0  0  0
 23 24  1  0  0  0  0
 23 45  1  0  0  0  0
 23 46  1  0  0  0  0
 24 25  1  0  0  0  0
 24 47  1  0  0  0  0
 24 48  1  0  0  0  0
 25 26  1  0  0  0  0
 26 49  1  0  0  0  0
 26 50  1  0  0  0  0
M  END
> <s_m_source_file>
AV-unprocessed.smi

> <i_m_source_file_index>
274

> <i_lp_mmshare_version>
43012

> <i_f3d_flags>
0

> <s_epik_input>
W0NIM11bQ0hdKFtDSDNdKVtDQEBIXTFDKD1PKVtOSF1bQ0gyXVtDSDJdTjFjKG5bY0hdbjIpYyhjMjMpbltjSF1uM1tDSDJdW0NAQF00KFtPSF0pW0NIMl1bQ0gyXU9bQ0gyXTQ=

> <s_epik_cmdline>
J2VwaWtfcHl0aG9uJywgJy1waCcsICc3LjAnLCAnLXRuJywgJzgnLCAnLW1hJywgJzIwMCcsICctbWV0YWxfYmluZGluZycsICctaW1hZScsICc8aW5maWxlLm1hZT4nLCAnLW9tYWUnLCAnPG91dGZpbGUubWFlPic=

> <r_lp_tautomer_probability>
1

> <r_epik_Ionization_Penalty>
0.000690079

> <r_epik_Ionization_Penalty_Charging>
0

> <r_epik_Ionization_Penalty_Neutral>
0.000690079

> <r_epik_State_Penalty>
0.000321372

> <r_epik_Charging_Adjusted_Penalty>
0.000321372

> <i_epik_Tot_Q>
0

> <i_epik_Tot_abs_Q>
0

> <r_epik_Metal_State_Penalty>
-0

> <b_epik_Metal_Only>
0

> <s_lp_Force_Field>
OPLS_2005

> <r_lp_Energy>
42.7916

> <b_lp_Chiralities_Consistent>
1

> <s_lp_Variant>
AV-unprocessed.smi:274-2

> <Gold.Version>
5.8.1

> <Gold.Id.Protein>
6NUR|6NUR_protein|mol2

> <Gold.PLP.Fitness>
44.9057

> <Gold.PLP.PLP>
-39.0813

> <Gold.PLP.part.hbond>
-4.0187

> <Gold.PLP.part.metal>
0.0000

> <Gold.PLP.part.buried>
-4.6491

> <Gold.PLP.part.nonpolar>
-29.8523

> <Gold.PLP.part.repulsive>
0.2082

> <Gold.PLP.ligand.clash>
0.0510

> <Gold.PLP.ligand.torsion>
1.5245

> <Gold.PLP.Chemscore.Hbond>
1.9411

> <Gold.PLP.Chemscore.CHOScore>
0.9354

> <Gold.PLP.Chemscore.Metal>
0.0000

> <Gold.Chemscore.Hbonds>
donor molecule, donor type, donor heavy atom, donor atom, acceptor molecule, acceptor atom, score
      P1  H  6896  6908       L1    14  0.25

> <Gold.PLP.Chemscore.Internal.Correction>
0.2950

> <Gold.Rescore>
     Score         DG    S(hbond)    S(metal)    S(lipo)     H(rot)  DE(clash)    DE(int)     intcor
     12.63     -15.13       1.97        0.00      73.09       2.14       0.15       2.34       ----

> <Gold.Chemscore.Fitness>
12.6338

> <Gold.Chemscore.DG>
-15.1302

> <Gold.Chemscore.ZeroCoef>
-5.4800

> <Gold.Chemscore.Hbond>
1.9715

> <Gold.Chemscore.Metal>
0.0000

> <Gold.Chemscore.Lipo>
73.0922

> <Gold.Chemscore.Internal_Hbond>
0.0000

> <Gold.Chemscore.DEClash>
0.1543

> <Gold.Chemscore.DEInternal>
2.3421

> <Gold.Chemscore.Rot>
2.1431

> <Gold.Chemscore.Internal.Correction>
   9.000000E+99

> <Gold.Chemscore.Hbond.Weighted>
-6.5847

> <Gold.Chemscore.Metal.Weighted>
-0.0000

> <Gold.Chemscore.Lipo.Weighted>
-8.5518

> <Gold.Chemscore.Internal_Hbond.Weighted>
0.0000

> <Gold.Chemscore.DEClash.Weighted>
0.1543

> <Gold.Chemscore.DEInternal.Weighted>
2.3421

> <Gold.Chemscore.Rot.Weighted>
5.4863

> <Gold.Chemscore.Internal.Correction.Weighted>
   9.000000E+99

> <Gold.Protein.RotatedTorsions>
[ 6907 6896 6895 6894 ] final -171.30 input  -60.11 | X-H torsion
[ 7974 7965 7964 7962 ] final  170.64 input  175.53 | X-H torsion
[ 8008 7997 7996 7995 ] final   37.49 input   59.86 | X-H torsion
[ 10167 10162 10161 10158 ] final   57.72 input  -65.29 | X-H torsion
[ 10718 10713 10712 10709 ] final   26.77 input   66.30 | X-H torsion
[ 10763 10752 10751 10750 ] final  163.03 input  -60.55 | X-H torsion
[ 11005 11000 10999 10996 ] final -104.02 input  -57.11 | X-H torsion

> <Gold.Protein.ActiveResidues>
 VAL166  LYS551  ARG553  GLY616  TRP617  ASP618  TYR619  PRO620  LYS621  CYS622 
 ASP623  PHE694  ASN695  SER759  ASP760  ASP761  ALA762  ILE779  LEU786  VAL792 
 PHE793  MET794  SER795  GLU796  ALA797  LYS798  CYS799  TRP800  GLU811  SER814 

> <Gold.Protein.RotatedAtoms>
  151.5216  133.3465  159.2902 H   0  0  0  0  0  0  0  0  0  0  0  0  # atno 6907 bound_to 6896
  150.8649  134.8012  159.7122 H   0  0  0  0  0  0  0  0  0  0  0  0  # atno 6908 bound_to 6896
  152.4657  134.5091  159.9800 H   0  0  0  0  0  0  0  0  0  0  0  0  # atno 6909 bound_to 6896
  144.7318  139.9231  143.6421 H   0  0  0  0  0  0  0  0  0  0  0  0  # atno 7974 bound_to 7965
  155.2047  140.3318  155.4338 H   0  0  0  0  0  0  0  0  0  0  0  0  # atno 8008 bound_to 7997
  156.2393  140.1887  156.7081 H   0  0  0  0  0  0  0  0  0  0  0  0  # atno 8009 bound_to 7997
  154.6118  140.0608  156.9489 H   0  0  0  0  0  0  0  0  0  0  0  0  # atno 8010 bound_to 7997
  140.1950  144.4047  150.6554 H   0  0  0  0  0  0  0  0  0  0  0  0  # atno 10167 bound_to 10162
  157.2113  130.6935  149.6230 H   0  0  0  0  0  0  0  0  0  0  0  0  # atno 10718 bound_to 10713
  154.2875  135.2762  155.2669 H   0  0  0  0  0  0  0  0  0  0  0  0  # atno 10763 bound_to 10752
  154.5163  135.5768  153.6648 H   0  0  0  0  0  0  0  0  0  0  0  0  # atno 10764 bound_to 10752
  152.9919  135.6193  154.3038 H   0  0  0  0  0  0  0  0  0  0  0  0  # atno 10765 bound_to 10752
  141.1119  133.8689  157.1559 H   0  0  0  0  0  0  0  0  0  0  0  0  # atno 11005 bound_to 11000
  146.0914  139.3904  143.0403 LP  0  0  0  0  0  0  0  0  0  0  0  0  # atno 17320 bound_to 7965
  145.7705  140.9898  143.1152 LP  0  0  0  0  0  0  0  0  0  0  0  0  # atno 17321 bound_to 7965
  140.6430  143.2207  151.6249 LP  0  0  0  0  0  0  0  0  0  0  0  0  # atno 17342 bound_to 10162
  139.5240  144.3116  152.0988 LP  0  0  0  0  0  0  0  0  0  0  0  0  # atno 17343 bound_to 10162
  155.9690  130.4550  150.5871 LP  0  0  0  0  0  0  0  0  0  0  0  0  # atno 17370 bound_to 10713
  157.3669  131.0759  151.1590 LP  0  0  0  0  0  0  0  0  0  0  0  0  # atno 17371 bound_to 10713
  140.0018  135.0024  157.0207 LP  0  0  0  0  0  0  0  0  0  0  0  0  # atno 17394 bound_to 11000
  140.4751  134.1346  155.7208 LP  0  0  0  0  0  0  0  0  0  0  0  0  # atno 17395 bound_to 11000

$$$$
