AV-unprocessed.smi:1278|AV-procd|sdf|5349|dock9
  -GOLD-   22720 4483D 1   1.00000     0.00000
 Structure written by MMmdl.
 39 40  0  0  0  0  0  0  0  0  2 V2000
  151.3532  137.5415  154.1040 C   0  0  0  0  0  0  0  0  0  0  0  0
  150.5346  138.4489  155.0393 C   0  0  2  0  0  0  0  0  0  0  0  0
  149.8414  137.6696  156.1722 C   0  0  0  0  0  0  0  0  0  0  0  0
  148.6357  136.8780  155.6466 C   0  0  0  0  0  0  0  0  0  0  0  0
  147.6727  137.7902  154.8701 C   0  0  0  0  0  0  0  0  0  0  0  0
  148.3730  138.4920  153.7634 N   0  3  1  0  0  0  0  0  0  0  0  0
  147.4369  139.2589  152.9033 C   0  0  0  0  0  0  0  0  0  0  0  0
  146.1700  138.4550  152.5523 C   0  0  0  0  0  0  0  0  0  0  0  0
  146.5006  137.1273  152.0473 N   0  0  0  0  0  0  0  0  0  0  0  0
  145.6033  136.1808  151.7356 C   0  0  0  0  0  0  0  0  0  0  0  0
  144.3869  136.3444  151.8366 O   0  0  0  0  0  0  0  0  0  0  0  0
  146.2056  135.0587  151.3043 N   0  0  0  0  0  0  0  0  0  0  0  0
  145.6017  133.8442  150.8848 C   0  0  0  0  0  0  0  0  0  0  0  0
  146.2533  132.8505  150.2693 N   0  0  0  0  0  0  0  0  0  0  0  0
  145.4100  131.7771  149.9699 C   0  0  0  0  0  0  0  0  0  0  0  0
  144.1113  131.9713  150.3694 C   0  0  0  0  0  0  0  0  0  0  0  0
  143.8934  133.5196  151.1410 S   0  0  0  0  0  0  0  0  0  0  0  0
  149.5111  139.3079  154.2677 C   0  0  0  0  0  0  0  0  0  0  0  0
  150.7227  136.8319  153.5683 H   0  0  0  0  0  0  0  0  0  0  0  0
  152.0944  136.9698  154.6629 H   0  0  0  0  0  0  0  0  0  0  0  0
  151.8893  138.1312  153.3600 H   0  0  0  0  0  0  0  0  0  0  0  0
  151.2476  139.1306  155.5052 H   0  0  0  0  0  0  0  0  0  0  0  0
  150.5471  137.0017  156.6677 H   0  0  0  0  0  0  0  0  0  0  0  0
  149.5003  138.3720  156.9343 H   0  0  0  0  0  0  0  0  0  0  0  0
  148.9738  136.0656  155.0026 H   0  0  0  0  0  0  0  0  0  0  0  0
  148.1108  136.4080  156.4787 H   0  0  0  0  0  0  0  0  0  0  0  0
  146.8582  137.1854  154.4696 H   0  0  0  0  0  0  0  0  0  0  0  0
  147.2233  138.5240  155.5410 H   0  0  0  0  0  0  0  0  0  0  0  0
  147.1324  140.1633  153.4318 H   0  0  0  0  0  0  0  0  0  0  0  0
  147.9504  139.5903  151.9994 H   0  0  0  0  0  0  0  0  0  0  0  0
  145.5399  138.3175  153.4301 H   0  0  0  0  0  0  0  0  0  0  0  0
  145.5668  138.9928  151.8183 H   0  0  0  0  0  0  0  0  0  0  0  0
  147.4805  136.9106  151.9365 H   0  0  0  0  0  0  0  0  0  0  0  0
  147.2144  135.0722  151.2734 H   0  0  0  0  0  0  0  0  0  0  0  0
  145.8189  130.9118  149.4693 H   0  0  0  0  0  0  0  0  0  0  0  0
  143.2729  131.3001  150.2567 H   0  0  0  0  0  0  0  0  0  0  0  0
  149.1234  140.0924  154.9199 H   0  0  0  0  0  0  0  0  0  0  0  0
  150.0166  139.8135  153.4459 H   0  0  0  0  0  0  0  0  0  0  0  0
  148.7656  137.7676  153.1788 H   0  0  0  0  0  0  0  0  0  0  0  0
  1  2  1  0  0  0  0
  1 19  1  0  0  0  0
  1 20  1  0  0  0  0
  1 21  1  0  0  0  0
  2 18  1  0  0  0  0
  2  3  1  0  0  0  0
  2 22  1  0  0  0  0
  3  4  1  0  0  0  0
  3 23  1  0  0  0  0
  3 24  1  0  0  0  0
  4  5  1  0  0  0  0
  4 25  1  0  0  0  0
  4 26  1  0  0  0  0
  5  6  1  0  0  0  0
  5 27  1  0  0  0  0
  5 28  1  0  0  0  0
  6  7  1  0  0  0  0
  6 18  1  0  0  0  0
  6 39  1  0  0  0  0
  7  8  1  0  0  0  0
  7 29  1  0  0  0  0
  7 30  1  0  0  0  0
  8  9  1  0  0  0  0
  8 31  1  0  0  0  0
  8 32  1  0  0  0  0
  9 10  1  0  0  0  0
  9 33  1  0  0  0  0
 10 11  2  0  0  0  0
 10 12  1  0  0  0  0
 12 13  1  0  0  0  0
 12 34  1  0  0  0  0
 13 17  1  0  0  0  0
 13 14  2  0  0  0  0
 14 15  1  0  0  0  0
 15 16  2  0  0  0  0
 15 35  1  0  0  0  0
 16 17  1  0  0  0  0
 16 36  1  0  0  0  0
 18 37  1  0  0  0  0
 18 38  1  0  0  0  0
M  CHG  1   6   1
M  END
> <s_m_source_file>
AV-unprocessed.smi

> <i_m_source_file_index>
1278

> <i_lp_mmshare_version>
43012

> <i_f3d_flags>
0

> <s_epik_input>
W0NIM11bQ0BASF0xW0NIMl1bQ0gyXVtDSDJdTihbQ0gyXTEpW0NIMl1bQ0gyXVtOSF1DKD1PKVtOSF1jMm5bY0hdW2NIXXMy

> <s_epik_cmdline>
J2VwaWtfcHl0aG9uJywgJy1waCcsICc3LjAnLCAnLXRuJywgJzgnLCAnLW1hJywgJzIwMCcsICctbWV0YWxfYmluZGluZycsICctaW1hZScsICc8aW5maWxlLm1hZT4nLCAnLW9tYWUnLCAnPG91dGZpbGUubWFlPic=

> <r_lp_tautomer_probability>
0.999

> <r_epik_Ionization_Penalty>
0.00222194

> <r_epik_Ionization_Penalty_Charging>
0.00208169

> <r_epik_Ionization_Penalty_Neutral>
0.000140251

> <r_epik_State_Penalty>
0.00142585

> <r_epik_Charging_Adjusted_Penalty>
0.00350754

> <i_epik_Tot_Q>
1

> <i_epik_Tot_abs_Q>
1

> <r_epik_Metal_State_Penalty>
0.0570424

> <b_epik_Metal_Only>
0

> <s_lp_Force_Field>
OPLS_2005

> <r_lp_Energy>
16.5942

> <b_lp_Chiralities_Consistent>
1

> <s_lp_Variant>
AV-unprocessed.smi:1278-3

> <Gold.Version>
5.8.1

> <Gold.Id.Protein>
6NUR|6NUR_protein|mol2

> <Gold.PLP.Fitness>
40.7059

> <Gold.PLP.PLP>
-28.1011

> <Gold.PLP.part.hbond>
-3.0627

> <Gold.PLP.part.metal>
0.0000

> <Gold.PLP.part.buried>
-2.2068

> <Gold.PLP.part.nonpolar>
-25.2828

> <Gold.PLP.part.repulsive>
1.2631

> <Gold.PLP.ligand.clash>
0.0000

> <Gold.PLP.ligand.torsion>
0.1351

> <Gold.PLP.Chemscore.Hbond>
3.7134

> <Gold.PLP.Chemscore.CHOScore>
0.5713

> <Gold.PLP.Chemscore.Metal>
0.0000

> <Gold.Chemscore.Hbonds>
donor molecule, donor type, donor heavy atom, donor atom, acceptor molecule, acceptor atom, score
      L1  H     6    39       P1  7948  2.00
      L1  H     9    33       P1  7948  1.00
      L1  H    12    34       P1  7948  0.71
      L1  C    16    36       P1 10952  0.53

> <Gold.PLP.Chemscore.Internal.Correction>
0.0207

> <Gold.Rescore>
     Score         DG    S(hbond)    S(metal)    S(lipo)     H(rot)  DE(clash)    DE(int)     intcor
     16.11     -17.64       2.47        0.00      68.35       1.60       0.23       1.29       ----

> <Gold.Chemscore.Fitness>
16.1126

> <Gold.Chemscore.DG>
-17.6369

> <Gold.Chemscore.ZeroCoef>
-5.4800

> <Gold.Chemscore.Hbond>
2.4718

> <Gold.Chemscore.Metal>
0.0000

> <Gold.Chemscore.Lipo>
68.3534

> <Gold.Chemscore.Internal_Hbond>
0.0000

> <Gold.Chemscore.DEClash>
0.2294

> <Gold.Chemscore.DEInternal>
1.2948

> <Gold.Chemscore.Rot>
1.6001

> <Gold.Chemscore.Internal.Correction>
   9.000000E+99

> <Gold.Chemscore.Hbonds>
donor molecule, donor type, donor heavy atom, donor atom, acceptor molecule, acceptor atom, score
      L1  H     6    39       P1  7948  0.95
      L1  H     9    33       P1  7948  0.99
      L1  H    12    34       P1  7948  0.45

> <Gold.Chemscore.Hbond.Weighted>
-8.2558

> <Gold.Chemscore.Metal.Weighted>
-0.0000

> <Gold.Chemscore.Lipo.Weighted>
-7.9973

> <Gold.Chemscore.Internal_Hbond.Weighted>
0.0000

> <Gold.Chemscore.DEClash.Weighted>
0.2294

> <Gold.Chemscore.DEInternal.Weighted>
1.2948

> <Gold.Chemscore.Rot.Weighted>
4.0963

> <Gold.Chemscore.Internal.Correction.Weighted>
   9.000000E+99

> <Gold.Protein.RotatedTorsions>
[ 6907 6896 6895 6894 ] final  -10.65 input  -60.11 | X-H torsion
[ 7974 7965 7964 7962 ] final   21.79 input  175.53 | X-H torsion
[ 8008 7997 7996 7995 ] final -104.28 input   59.86 | X-H torsion
[ 10167 10162 10161 10158 ] final  142.28 input  -65.29 | X-H torsion
[ 10718 10713 10712 10709 ] final -144.44 input   66.30 | X-H torsion
[ 10763 10752 10751 10750 ] final   89.32 input  -60.55 | X-H torsion
[ 11005 11000 10999 10996 ] final  -58.03 input  -57.11 | X-H torsion

> <Gold.Protein.ActiveResidues>
 VAL166  LYS551  ARG553  GLY616  TRP617  ASP618  TYR619  PRO620  LYS621  CYS622 
 ASP623  PHE694  ASN695  SER759  ASP760  ASP761  ALA762  ILE779  LEU786  VAL792 
 PHE793  MET794  SER795  GLU796  ALA797  LYS798  CYS799  TRP800  GLU811  SER814 

> <Gold.Protein.RotatedAtoms>
  151.3986  135.0967  159.9548 H   0  0  0  0  0  0  0  0  0  0  0  0  # atno 6907 bound_to 6896
  152.5057  133.8910  159.7404 H   0  0  0  0  0  0  0  0  0  0  0  0  # atno 6908 bound_to 6896
  150.9379  133.6634  159.2825 H   0  0  0  0  0  0  0  0  0  0  0  0  # atno 6909 bound_to 6896
  146.2056  139.7977  142.8728 H   0  0  0  0  0  0  0  0  0  0  0  0  # atno 7974 bound_to 7965
  154.8830  140.0418  157.1794 H   0  0  0  0  0  0  0  0  0  0  0  0  # atno 8008 bound_to 7997
  154.8619  140.2945  155.5513 H   0  0  0  0  0  0  0  0  0  0  0  0  # atno 8009 bound_to 7997
  156.2998  140.2445  156.3594 H   0  0  0  0  0  0  0  0  0  0  0  0  # atno 8010 bound_to 7997
  139.4998  144.6117  151.6256 H   0  0  0  0  0  0  0  0  0  0  0  0  # atno 10167 bound_to 10162
  156.3701  130.7783  151.1963 H   0  0  0  0  0  0  0  0  0  0  0  0  # atno 10718 bound_to 10713
  153.1858  135.4475  155.0087 H   0  0  0  0  0  0  0  0  0  0  0  0  # atno 10763 bound_to 10752
  154.8059  135.3274  154.7434 H   0  0  0  0  0  0  0  0  0  0  0  0  # atno 10764 bound_to 10752
  153.7893  135.6971  153.4929 H   0  0  0  0  0  0  0  0  0  0  0  0  # atno 10765 bound_to 10752
  141.1190  133.6611  156.4858 H   0  0  0  0  0  0  0  0  0  0  0  0  # atno 11005 bound_to 11000
  145.3329  141.0270  143.3436 LP  0  0  0  0  0  0  0  0  0  0  0  0  # atno 17320 bound_to 7965
  144.8786  139.4936  143.6734 LP  0  0  0  0  0  0  0  0  0  0  0  0  # atno 17321 bound_to 7965
  140.5794  143.9973  150.6259 LP  0  0  0  0  0  0  0  0  0  0  0  0  # atno 17342 bound_to 10162
  140.3117  143.3194  152.0873 LP  0  0  0  0  0  0  0  0  0  0  0  0  # atno 17343 bound_to 10162
  157.7483  131.0375  150.4457 LP  0  0  0  0  0  0  0  0  0  0  0  0  # atno 17370 bound_to 10713
  156.4683  130.4047  149.6534 LP  0  0  0  0  0  0  0  0  0  0  0  0  # atno 17371 bound_to 10713
  140.4563  134.6882  157.5064 LP  0  0  0  0  0  0  0  0  0  0  0  0  # atno 17394 bound_to 11000
  140.0132  134.6658  155.9348 LP  0  0  0  0  0  0  0  0  0  0  0  0  # atno 17395 bound_to 11000

$$$$
