AV-unprocessed.smi:2076|AV-procd|sdf|8460|dock8
  -GOLD-   2272011163D 1   1.00000     0.00000
 Structure written by MMmdl.
 45 46  0  0  0  0  0  0  0  0  2 V2000
  154.2304  141.3742  161.6658 C   0  0  0  0  0  0  0  0  0  0  0  0
  153.3615  142.3578  160.9393 C   0  0  0  0  0  0  0  0  0  0  0  0
  152.7606  143.5438  161.4455 C   0  0  0  0  0  0  0  0  0  0  0  0
  152.0833  144.0618  160.3778 C   0  0  0  0  0  0  0  0  0  0  0  0
  151.2534  145.2991  160.2723 C   0  0  0  0  0  0  0  0  0  0  0  0
  152.2942  143.2026  159.3139 N   0  0  0  0  0  0  0  0  0  0  0  0
  151.8061  143.2976  157.9470 C   0  0  0  0  0  0  0  0  0  0  0  0
  151.0009  142.0557  157.5625 C   0  0  0  0  0  0  0  0  0  0  0  0
  151.4756  140.9345  157.7404 O   0  0  0  0  0  0  0  0  0  0  0  0
  149.7860  142.2706  157.0330 N   0  0  0  0  0  0  0  0  0  0  0  0
  148.8294  141.2344  156.6515 C   0  0  0  0  0  0  0  0  0  0  0  0
  148.1717  141.4772  155.2634 C   0  0  1  0  0  0  0  0  0  0  0  0
  147.7120  140.1393  154.6325 C   0  0  0  0  0  0  0  0  0  0  0  0
  147.0443  142.4680  155.3406 N   0  3  0  0  0  0  0  0  0  0  0  0
  146.3755  142.7250  154.0332 C   0  0  0  0  0  0  0  0  0  0  0  0
  145.2318  143.7442  154.1692 C   0  0  0  0  0  0  0  0  0  0  0  0
  144.2937  143.2883  155.1298 O   0  0  0  0  0  0  0  0  0  0  0  0
  144.8900  143.1740  156.4112 C   0  0  0  0  0  0  0  0  0  0  0  0
  146.0182  142.1297  156.3678 C   0  0  0  0  0  0  0  0  0  0  0  0
  153.0795  142.1595  159.6620 N   0  0  0  0  0  0  0  0  0  0  0  0
  154.2841  141.6070  162.7294 H   0  0  0  0  0  0  0  0  0  0  0  0
  155.2471  141.3845  161.2723 H   0  0  0  0  0  0  0  0  0  0  0  0
  153.8439  140.3594  161.5683 H   0  0  0  0  0  0  0  0  0  0  0  0
  152.8186  143.9531  162.4432 H   0  0  0  0  0  0  0  0  0  0  0  0
  151.2504  145.8472  161.2145 H   0  0  0  0  0  0  0  0  0  0  0  0
  150.2207  145.0539  160.0238 H   0  0  0  0  0  0  0  0  0  0  0  0
  151.6409  145.9643  159.5007 H   0  0  0  0  0  0  0  0  0  0  0  0
  151.1887  144.1914  157.8417 H   0  0  0  0  0  0  0  0  0  0  0  0
  152.6539  143.4191  157.2722 H   0  0  0  0  0  0  0  0  0  0  0  0
  149.4861  143.2293  156.9254 H   0  0  0  0  0  0  0  0  0  0  0  0
  149.2865  140.2440  156.6863 H   0  0  0  0  0  0  0  0  0  0  0  0
  148.0837  141.2570  157.4441 H   0  0  0  0  0  0  0  0  0  0  0  0
  148.9346  141.9022  154.6087 H   0  0  0  0  0  0  0  0  0  0  0  0
  148.5088  139.3974  154.6146 H   0  0  0  0  0  0  0  0  0  0  0  0
  147.4146  140.2501  153.5910 H   0  0  0  0  0  0  0  0  0  0  0  0
  146.8752  139.7085  155.1832 H   0  0  0  0  0  0  0  0  0  0  0  0
  147.0751  143.1339  153.3070 H   0  0  0  0  0  0  0  0  0  0  0  0
  145.9931  141.7872  153.6270 H   0  0  0  0  0  0  0  0  0  0  0  0
  145.6154  144.7266  154.4501 H   0  0  0  0  0  0  0  0  0  0  0  0
  144.7235  143.8650  153.2122 H   0  0  0  0  0  0  0  0  0  0  0  0
  145.2666  144.1433  156.7426 H   0  0  0  0  0  0  0  0  0  0  0  0
  144.1265  142.8698  157.1274 H   0  0  0  0  0  0  0  0  0  0  0  0
  145.6038  141.1422  156.1586 H   0  0  0  0  0  0  0  0  0  0  0  0
  146.4553  142.0942  157.3638 H   0  0  0  0  0  0  0  0  0  0  0  0
  147.4545  143.3456  155.6269 H   0  0  0  0  0  0  0  0  0  0  0  0
  1  2  1  0  0  0  0
  1 21  1  0  0  0  0
  1 22  1  0  0  0  0
  1 23  1  0  0  0  0
  2 20  2  0  0  0  0
  2  3  1  0  0  0  0
  3  4  2  0  0  0  0
  3 24  1  0  0  0  0
  4  5  1  0  0  0  0
  4  6  1  0  0  0  0
  5 25  1  0  0  0  0
  5 26  1  0  0  0  0
  5 27  1  0  0  0  0
  6  7  1  0  0  0  0
  6 20  1  0  0  0  0
  7  8  1  0  0  0  0
  7 28  1  0  0  0  0
  7 29  1  0  0  0  0
  8  9  2  0  0  0  0
  8 10  1  0  0  0  0
 10 11  1  0  0  0  0
 10 30  1  0  0  0  0
 11 12  1  0  0  0  0
 11 31  1  0  0  0  0
 11 32  1  0  0  0  0
 12 13  1  0  0  0  0
 12 14  1  0  0  0  0
 12 33  1  0  0  0  0
 13 34  1  0  0  0  0
 13 35  1  0  0  0  0
 13 36  1  0  0  0  0
 14 19  1  0  0  0  0
 14 15  1  0  0  0  0
 14 45  1  0  0  0  0
 15 16  1  0  0  0  0
 15 37  1  0  0  0  0
 15 38  1  0  0  0  0
 16 17  1  0  0  0  0
 16 39  1  0  0  0  0
 16 40  1  0  0  0  0
 17 18  1  0  0  0  0
 18 19  1  0  0  0  0
 18 41  1  0  0  0  0
 18 42  1  0  0  0  0
 19 43  1  0  0  0  0
 19 44  1  0  0  0  0
M  CHG  1  14   1
M  END
> <s_m_source_file>
AV-unprocessed.smi

> <i_m_source_file_index>
2076

> <i_lp_mmshare_version>
43012

> <i_f3d_flags>
0

> <s_epik_input>
W0NIM11jMVtjSF1jKFtDSDNdKW4objEpW0NIMl1DKD1PKVtOSF1bQ0gyXVtDQEhdKFtDSDNdKU4yW0NIMl1bQ0gyXU9bQ0gyXVtDSDJdMg==

> <s_epik_cmdline>
J2VwaWtfcHl0aG9uJywgJy1waCcsICc3LjAnLCAnLXRuJywgJzgnLCAnLW1hJywgJzIwMCcsICctbWV0YWxfYmluZGluZycsICctaW1hZScsICc8aW5maWxlLm1hZT4nLCAnLW9tYWUnLCAnPG91dGZpbGUubWFlPic=

> <r_lp_tautomer_probability>
1

> <r_epik_Ionization_Penalty>
0.748594

> <r_epik_Ionization_Penalty_Charging>
0.748396

> <r_epik_Ionization_Penalty_Neutral>
0.000197403

> <r_epik_State_Penalty>
0.775162

> <r_epik_Charging_Adjusted_Penalty>
1.52356

> <i_epik_Tot_Q>
1

> <i_epik_Tot_abs_Q>
1

> <r_epik_Metal_State_Penalty>
0.77529

> <b_epik_Metal_Only>
0

> <s_lp_Force_Field>
OPLS_2005

> <r_lp_Energy>
19.0856

> <b_lp_Chiralities_Consistent>
1

> <s_lp_Variant>
AV-unprocessed.smi:2076-4

> <Gold.Version>
5.8.1

> <Gold.Id.Protein>
6NUR|6NUR_protein|mol2

> <Gold.PLP.Fitness>
52.2575

> <Gold.PLP.PLP>
-44.1236

> <Gold.PLP.part.hbond>
-2.0000

> <Gold.PLP.part.metal>
0.0000

> <Gold.PLP.part.buried>
-8.7773

> <Gold.PLP.part.nonpolar>
-33.7335

> <Gold.PLP.part.repulsive>
0.2954

> <Gold.PLP.ligand.clash>
0.0000

> <Gold.PLP.ligand.torsion>
0.4719

> <Gold.PLP.Chemscore.Hbond>
3.0000

> <Gold.PLP.Chemscore.CHOScore>
0.0000

> <Gold.PLP.Chemscore.Metal>
0.0000

> <Gold.Chemscore.Hbonds>
donor molecule, donor type, donor heavy atom, donor atom, acceptor molecule, acceptor atom, score
      L1  H    10    30       P1  8028  0.95
      L1  H    14    45       P1  8028  1.30

> <Gold.PLP.Chemscore.Internal.Correction>
0.0778

> <Gold.Rescore>
     Score         DG    S(hbond)    S(metal)    S(lipo)     H(rot)  DE(clash)    DE(int)     intcor
     15.81     -17.54       1.44        0.00     100.77       1.78       0.18       1.55       ----

> <Gold.Chemscore.Fitness>
15.8110

> <Gold.Chemscore.DG>
-17.5386

> <Gold.Chemscore.ZeroCoef>
-5.4800

> <Gold.Chemscore.Hbond>
1.4416

> <Gold.Chemscore.Metal>
0.0000

> <Gold.Chemscore.Lipo>
100.7696

> <Gold.Chemscore.Internal_Hbond>
0.0000

> <Gold.Chemscore.DEClash>
0.1792

> <Gold.Chemscore.DEInternal>
1.5484

> <Gold.Chemscore.Rot>
1.7760

> <Gold.Chemscore.Internal.Correction>
   9.000000E+99

> <Gold.Chemscore.Hbonds>
donor molecule, donor type, donor heavy atom, donor atom, acceptor molecule, acceptor atom, score
      L1  H    10    30       P1  8028  0.83
      L1  H    14    45       P1  8028  0.05

> <Gold.Chemscore.Hbond.Weighted>
-4.8150

> <Gold.Chemscore.Metal.Weighted>
-0.0000

> <Gold.Chemscore.Lipo.Weighted>
-11.7900

> <Gold.Chemscore.Internal_Hbond.Weighted>
0.0000

> <Gold.Chemscore.DEClash.Weighted>
0.1792

> <Gold.Chemscore.DEInternal.Weighted>
1.5484

> <Gold.Chemscore.Rot.Weighted>
4.5464

> <Gold.Chemscore.Internal.Correction.Weighted>
   9.000000E+99

> <Gold.Protein.RotatedTorsions>
[ 6907 6896 6895 6894 ] final  152.76 input  -60.11 | X-H torsion
[ 7974 7965 7964 7962 ] final   32.98 input  175.53 | X-H torsion
[ 8008 7997 7996 7995 ] final -144.22 input   59.86 | X-H torsion
[ 10167 10162 10161 10158 ] final  -32.88 input  -65.29 | X-H torsion
[ 10718 10713 10712 10709 ] final  133.17 input   66.30 | X-H torsion
[ 10763 10752 10751 10750 ] final  141.56 input  -60.55 | X-H torsion
[ 11005 11000 10999 10996 ] final  -17.71 input  -57.11 | X-H torsion

> <Gold.Protein.ActiveResidues>
 VAL166  LYS551  ARG553  GLY616  TRP617  ASP618  TYR619  PRO620  LYS621  CYS622 
 ASP623  PHE694  ASN695  SER759  ASP760  ASP761  ALA762  ILE779  LEU786  VAL792 
 PHE793  MET794  SER795  GLU796  ALA797  LYS798  CYS799  TRP800  GLU811  SER814 

> <Gold.Protein.RotatedAtoms>
  152.0823  133.4158  159.4506 H   0  0  0  0  0  0  0  0  0  0  0  0  # atno 6907 bound_to 6896
  150.6862  134.2968  159.4699 H   0  0  0  0  0  0  0  0  0  0  0  0  # atno 6908 bound_to 6896
  152.0811  134.9470  160.0624 H   0  0  0  0  0  0  0  0  0  0  0  0  # atno 6909 bound_to 6896
  146.1451  139.6456  142.9137 H   0  0  0  0  0  0  0  0  0  0  0  0  # atno 7974 bound_to 7965
  155.5233  140.0593  157.2902 H   0  0  0  0  0  0  0  0  0  0  0  0  # atno 8008 bound_to 7997
  154.4510  140.1948  156.0466 H   0  0  0  0  0  0  0  0  0  0  0  0  # atno 8009 bound_to 7997
  156.0703  140.3261  155.7572 H   0  0  0  0  0  0  0  0  0  0  0  0  # atno 8010 bound_to 7997
  140.7214  143.3662  151.1867 H   0  0  0  0  0  0  0  0  0  0  0  0  # atno 10167 bound_to 10162
  157.4799  131.1085  150.9695 H   0  0  0  0  0  0  0  0  0  0  0  0  # atno 10718 bound_to 10713
  153.9413  135.2979  155.3442 H   0  0  0  0  0  0  0  0  0  0  0  0  # atno 10763 bound_to 10752
  154.7476  135.4996  153.9234 H   0  0  0  0  0  0  0  0  0  0  0  0  # atno 10764 bound_to 10752
  153.1041  135.6742  153.9725 H   0  0  0  0  0  0  0  0  0  0  0  0  # atno 10765 bound_to 10752
  140.8196  133.8079  155.9645 H   0  0  0  0  0  0  0  0  0  0  0  0  # atno 11005 bound_to 11000
  145.4956  141.0438  143.2569 LP  0  0  0  0  0  0  0  0  0  0  0  0  # atno 17320 bound_to 7965
  144.7837  139.6472  143.7143 LP  0  0  0  0  0  0  0  0  0  0  0  0  # atno 17321 bound_to 7965
  139.7224  143.9203  152.2990 LP  0  0  0  0  0  0  0  0  0  0  0  0  # atno 17342 bound_to 10162
  139.8964  144.6937  150.8713 LP  0  0  0  0  0  0  0  0  0  0  0  0  # atno 17343 bound_to 10162
  157.0431  130.5757  149.5359 LP  0  0  0  0  0  0  0  0  0  0  0  0  # atno 17370 bound_to 10713
  156.0116  130.5208  150.8006 LP  0  0  0  0  0  0  0  0  0  0  0  0  # atno 17371 bound_to 10713
  140.9113  134.2257  157.4984 LP  0  0  0  0  0  0  0  0  0  0  0  0  # atno 17394 bound_to 11000
  139.8709  134.9751  156.4872 LP  0  0  0  0  0  0  0  0  0  0  0  0  # atno 17395 bound_to 11000

$$$$
