AV-unprocessed.smi:2183|AV-procd|sdf|8866|dock5
  -GOLD-   2272012 63D 1   1.00000     0.00000
 Structure written by MMmdl.
 40 42  0  0  0  0  0  0  0  0  1 V2000
  150.9658  137.1674  159.5770 O   0  0  0  0  0  0  0  0  0  0  0  0
  151.3471  137.8030  158.3733 C   0  0  0  0  0  0  0  0  0  0  0  0
  151.5896  139.2798  158.5109 C   0  0  0  0  0  0  0  0  0  0  0  0
  152.4861  139.7961  159.3555 N   0  0  0  0  0  0  0  0  0  0  0  0
  152.3711  141.1539  159.1333 C   0  0  0  0  0  0  0  0  0  0  0  0
  153.0558  142.2419  159.7208 C   0  0  0  0  0  0  0  0  0  0  0  0
  152.7671  143.5645  159.3256 C   0  0  0  0  0  0  0  0  0  0  0  0
  151.7907  143.8175  158.3406 C   0  0  0  0  0  0  0  0  0  0  0  0
  151.0962  142.7478  157.7431 C   0  0  0  0  0  0  0  0  0  0  0  0
  151.3892  141.4291  158.1402 C   0  0  0  0  0  0  0  0  0  0  0  0
  150.9036  140.1804  157.7628 N   0  0  0  0  0  0  0  0  0  0  0  0
  149.8751  139.9191  156.7642 C   0  0  0  0  0  0  0  0  0  0  0  0
  150.0661  140.7455  155.4754 C   0  0  1  0  0  0  0  0  0  0  0  0
  151.0946  140.1836  154.6847 O   0  0  0  0  0  0  0  0  0  0  0  0
  148.7876  140.8161  154.6279 C   0  0  0  0  0  0  0  0  0  0  0  0
  147.6658  140.9466  155.4915 O   0  0  0  0  0  0  0  0  0  0  0  0
  146.8094  142.0082  155.2929 C   0  0  0  0  0  0  0  0  0  0  0  0
  146.6879  142.4941  153.9745 C   0  0  0  0  0  0  0  0  0  0  0  0
  145.8336  143.5739  153.6795 C   0  0  0  0  0  0  0  0  0  0  0  0
  145.0871  144.1811  154.7064 C   0  0  0  0  0  0  0  0  0  0  0  0
  144.0366  145.5019  154.3477 Cl  0  0  0  0  0  0  0  0  0  0  0  0
  145.1994  143.7075  156.0269 C   0  0  0  0  0  0  0  0  0  0  0  0
  146.0549  142.6279  156.3215 C   0  0  0  0  0  0  0  0  0  0  0  0
  151.2050  137.7254  160.3006 H   0  0  0  0  0  0  0  0  0  0  0  0
  152.2553  137.3263  158.0041 H   0  0  0  0  0  0  0  0  0  0  0  0
  150.5641  137.6321  157.6352 H   0  0  0  0  0  0  0  0  0  0  0  0
  153.8048  142.0582  160.4768 H   0  0  0  0  0  0  0  0  0  0  0  0
  153.2969  144.3886  159.7810 H   0  0  0  0  0  0  0  0  0  0  0  0
  151.5747  144.8336  158.0441 H   0  0  0  0  0  0  0  0  0  0  0  0
  150.3471  142.9394  156.9899 H   0  0  0  0  0  0  0  0  0  0  0  0
  149.8805  138.8532  156.5335 H   0  0  0  0  0  0  0  0  0  0  0  0
  148.8990  140.1218  157.2053 H   0  0  0  0  0  0  0  0  0  0  0  0
  150.3737  141.7597  155.7301 H   0  0  0  0  0  0  0  0  0  0  0  0
  150.7523  139.4231  154.2406 H   0  0  0  0  0  0  0  0  0  0  0  0
  148.8375  141.6827  153.9660 H   0  0  0  0  0  0  0  0  0  0  0  0
  148.6969  139.9215  154.0091 H   0  0  0  0  0  0  0  0  0  0  0  0
  147.2562  142.0337  153.1795 H   0  0  0  0  0  0  0  0  0  0  0  0
  145.7512  143.9340  152.6646 H   0  0  0  0  0  0  0  0  0  0  0  0
  144.6279  144.1711  156.8176 H   0  0  0  0  0  0  0  0  0  0  0  0
  146.1121  142.2930  157.3460 H   0  0  0  0  0  0  0  0  0  0  0  0
  1  2  1  0  0  0  0
  1 24  1  0  0  0  0
  2  3  1  0  0  0  0
  2 25  1  0  0  0  0
  2 26  1  0  0  0  0
  3 11  1  0  0  0  0
  3  4  2  0  0  0  0
  4  5  1  0  0  0  0
  5 10  2  0  0  0  0
  5  6  1  0  0  0  0
  6  7  2  0  0  0  0
  6 27  1  0  0  0  0
  7  8  1  0  0  0  0
  7 28  1  0  0  0  0
  8  9  2  0  0  0  0
  8 29  1  0  0  0  0
  9 10  1  0  0  0  0
  9 30  1  0  0  0  0
 10 11  1  0  0  0  0
 11 12  1  0  0  0  0
 12 13  1  0  0  0  0
 12 31  1  0  0  0  0
 12 32  1  0  0  0  0
 13 14  1  0  0  0  0
 13 15  1  0  0  0  0
 13 33  1  0  0  0  0
 14 34  1  0  0  0  0
 15 16  1  0  0  0  0
 15 35  1  0  0  0  0
 15 36  1  0  0  0  0
 16 17  1  0  0  0  0
 17 23  1  0  0  0  0
 17 18  2  0  0  0  0
 18 19  1  0  0  0  0
 18 37  1  0  0  0  0
 19 20  2  0  0  0  0
 19 38  1  0  0  0  0
 20 21  1  0  0  0  0
 20 22  1  0  0  0  0
 22 23  2  0  0  0  0
 22 39  1  0  0  0  0
 23 40  1  0  0  0  0
M  END
> <s_m_source_file>
AV-unprocessed.smi

> <i_m_source_file_index>
2183

> <i_lp_mmshare_version>
43012

> <i_f3d_flags>
0

> <s_epik_input>
W2NIXTFbY0hdW2NIXVtjSF1jKGMxMiluKGMobjIpW0NIMl1bT0hdKVtDSDJdW0NASF0oW09IXSlbQ0gyXU9jM1tjSF1bY0hdYyhDbClbY0hdW2NIXTM=

> <s_epik_cmdline>
J2VwaWtfcHl0aG9uJywgJy1waCcsICc3LjAnLCAnLXRuJywgJzgnLCAnLW1hJywgJzIwMCcsICctbWV0YWxfYmluZGluZycsICctaW1hZScsICc8aW5maWxlLm1hZT4nLCAnLW9tYWUnLCAnPG91dGZpbGUubWFlPic=

> <r_lp_tautomer_probability>
1

> <r_epik_Ionization_Penalty>
0.0586933

> <r_epik_Ionization_Penalty_Charging>
0

> <r_epik_Ionization_Penalty_Neutral>
0.0586933

> <r_epik_State_Penalty>
0.0507031

> <r_epik_Charging_Adjusted_Penalty>
0.0507031

> <i_epik_Tot_Q>
0

> <i_epik_Tot_abs_Q>
0

> <r_epik_Metal_State_Penalty>
5.29335e-05

> <b_epik_Metal_Only>
0

> <s_lp_Force_Field>
OPLS_2005

> <r_lp_Energy>
14.4391

> <b_lp_Chiralities_Consistent>
1

> <s_lp_Variant>
AV-unprocessed.smi:2183-2

> <Gold.Version>
5.8.1

> <Gold.Id.Protein>
6NUR|6NUR_protein|mol2

> <Gold.PLP.Fitness>
52.0832

> <Gold.PLP.PLP>
-48.5756

> <Gold.PLP.part.hbond>
-1.9035

> <Gold.PLP.part.metal>
0.0000

> <Gold.PLP.part.buried>
-9.0828

> <Gold.PLP.part.nonpolar>
-38.7107

> <Gold.PLP.part.repulsive>
0.0573

> <Gold.PLP.ligand.clash>
0.0000

> <Gold.PLP.ligand.torsion>
1.2781

> <Gold.PLP.Chemscore.Hbond>
1.9825

> <Gold.PLP.Chemscore.CHOScore>
0.0000

> <Gold.PLP.Chemscore.Metal>
0.0000

> <Gold.Chemscore.Hbonds>
donor molecule, donor type, donor heavy atom, donor atom, acceptor molecule, acceptor atom, score
      P1  H  6896  6908       L1     1  0.88
      P1  H  7989  7998       L1    14  0.76

> <Gold.PLP.Chemscore.Internal.Correction>
0.1163

> <Gold.Rescore>
     Score         DG    S(hbond)    S(metal)    S(lipo)     H(rot)  DE(clash)    DE(int)     intcor
     16.88     -18.06       1.81        0.00     122.33       3.04       0.02       1.16       ----

> <Gold.Chemscore.Fitness>
16.8757

> <Gold.Chemscore.DG>
-18.0578

> <Gold.Chemscore.ZeroCoef>
-5.4800

> <Gold.Chemscore.Hbond>
1.8076

> <Gold.Chemscore.Metal>
0.0000

> <Gold.Chemscore.Lipo>
122.3254

> <Gold.Chemscore.Internal_Hbond>
0.0000

> <Gold.Chemscore.DEClash>
0.0234

> <Gold.Chemscore.DEInternal>
1.1586

> <Gold.Chemscore.Rot>
3.0358

> <Gold.Chemscore.Internal.Correction>
   9.000000E+99

> <Gold.Chemscore.Hbonds>
donor molecule, donor type, donor heavy atom, donor atom, acceptor molecule, acceptor atom, score
      P1  H  6896  6908       L1     1  0.69
      P1  H  7989  7998       L1    14  0.15

> <Gold.Chemscore.Hbond.Weighted>
-6.0373

> <Gold.Chemscore.Metal.Weighted>
-0.0000

> <Gold.Chemscore.Lipo.Weighted>
-14.3121

> <Gold.Chemscore.Internal_Hbond.Weighted>
0.0000

> <Gold.Chemscore.DEClash.Weighted>
0.0234

> <Gold.Chemscore.DEInternal.Weighted>
1.1586

> <Gold.Chemscore.Rot.Weighted>
7.7716

> <Gold.Chemscore.Internal.Correction.Weighted>
   9.000000E+99

> <Gold.Protein.RotatedTorsions>
[ 6907 6896 6895 6894 ] final -130.10 input  -60.11 | X-H torsion
[ 7974 7965 7964 7962 ] final   51.75 input  175.53 | X-H torsion
[ 8008 7997 7996 7995 ] final  -70.92 input   59.86 | X-H torsion
[ 10167 10162 10161 10158 ] final   60.93 input  -65.29 | X-H torsion
[ 10718 10713 10712 10709 ] final -100.05 input   66.30 | X-H torsion
[ 10763 10752 10751 10750 ] final   11.19 input  -60.55 | X-H torsion
[ 11005 11000 10999 10996 ] final   74.40 input  -57.11 | X-H torsion

> <Gold.Protein.ActiveResidues>
 VAL166  LYS551  ARG553  GLY616  TRP617  ASP618  TYR619  PRO620  LYS621  CYS622 
 ASP623  PHE694  ASN695  SER759  ASP760  ASP761  ALA762  ILE779  LEU786  VAL792 
 PHE793  MET794  SER795  GLU796  ALA797  LYS798  CYS799  TRP800  GLU811  SER814 

> <Gold.Protein.RotatedAtoms>
  150.9360  133.6711  159.2800 H   0  0  0  0  0  0  0  0  0  0  0  0  # atno 6907 bound_to 6896
  151.4117  135.0984  159.9596 H   0  0  0  0  0  0  0  0  0  0  0  0  # atno 6908 bound_to 6896
  152.5048  133.8832  159.7411 H   0  0  0  0  0  0  0  0  0  0  0  0  # atno 6909 bound_to 6896
  145.9882  139.4312  143.0090 H   0  0  0  0  0  0  0  0  0  0  0  0  # atno 7974 bound_to 7965
  154.5048  140.0825  156.7873 H   0  0  0  0  0  0  0  0  0  0  0  0  # atno 8008 bound_to 7997
  155.3918  140.3433  155.4233 H   0  0  0  0  0  0  0  0  0  0  0  0  # atno 8009 bound_to 7997
  156.1502  140.1556  156.8769 H   0  0  0  0  0  0  0  0  0  0  0  0  # atno 8010 bound_to 7997
  140.1603  144.4377  150.6713 H   0  0  0  0  0  0  0  0  0  0  0  0  # atno 10167 bound_to 10162
  156.0151  130.5310  150.6760 H   0  0  0  0  0  0  0  0  0  0  0  0  # atno 10718 bound_to 10713
  153.1952  135.6848  153.8301 H   0  0  0  0  0  0  0  0  0  0  0  0  # atno 10763 bound_to 10752
  153.7586  135.3213  155.3334 H   0  0  0  0  0  0  0  0  0  0  0  0  # atno 10764 bound_to 10752
  154.8140  135.4698  154.0693 H   0  0  0  0  0  0  0  0  0  0  0  0  # atno 10765 bound_to 10752
  139.9393  134.7429  156.1143 H   0  0  0  0  0  0  0  0  0  0  0  0  # atno 11005 bound_to 11000
  145.7669  140.9912  143.1170 LP  0  0  0  0  0  0  0  0  0  0  0  0  # atno 17320 bound_to 7965
  144.6881  139.9399  143.7474 LP  0  0  0  0  0  0  0  0  0  0  0  0  # atno 17321 bound_to 7965
  140.6647  143.2264  151.5771 LP  0  0  0  0  0  0  0  0  0  0  0  0  # atno 17342 bound_to 10162
  139.5384  144.2715  152.1301 LP  0  0  0  0  0  0  0  0  0  0  0  0  # atno 17343 bound_to 10162
  157.4472  131.0868  151.0883 LP  0  0  0  0  0  0  0  0  0  0  0  0  # atno 17370 bound_to 10713
  157.1409  130.6143  149.5555 LP  0  0  0  0  0  0  0  0  0  0  0  0  # atno 17371 bound_to 10713
  141.1021  133.6673  156.2778 LP  0  0  0  0  0  0  0  0  0  0  0  0  # atno 17394 bound_to 11000
  140.5993  134.5571  157.5514 LP  0  0  0  0  0  0  0  0  0  0  0  0  # atno 17395 bound_to 11000

$$$$
