AV-unprocessed.smi:668|AV-procd|sdf|3260|dock6
  -GOLD-   22720 0213D 1   1.00000     0.00000
 Structure written by MMmdl.
 38 39  0  0  0  0  0  0  0  0  1 V2000
  153.0386  131.3116  157.3054 C   0  0  0  0  0  0  0  0  0  0  0  0
  152.6742  132.6853  157.2267 O   0  0  0  0  0  0  0  0  0  0  0  0
  151.6700  133.0477  156.3526 C   0  0  0  0  0  0  0  0  0  0  0  0
  150.8342  132.0406  155.8311 C   0  0  0  0  0  0  0  0  0  0  0  0
  149.8088  132.4006  154.9360 C   0  0  0  0  0  0  0  0  0  0  0  0
  149.6459  133.7650  154.5946 C   0  0  0  0  0  0  0  0  0  0  0  0
  148.6649  134.2633  153.6939 N   0  0  0  0  0  0  0  0  0  0  0  0
  147.3911  133.8697  153.5244 C   0  0  0  0  0  0  0  0  0  0  0  0
  146.8214  132.9888  154.1675 O   0  0  0  0  0  0  0  0  0  0  0  0
  146.7958  134.5712  152.5496 N   0  0  0  0  0  0  0  0  0  0  0  0
  145.4159  134.3792  152.0999 C   0  0  1  0  0  0  0  0  0  0  0  0
  145.1385  135.1596  150.8014 C   0  0  0  0  0  0  0  0  0  0  0  0
  144.2802  134.2513  149.9112 C   0  0  0  0  0  0  0  0  0  0  0  0
  143.9005  133.0469  150.7777 C   0  0  0  0  0  0  0  0  0  0  0  0
  145.0236  132.9049  151.8157 C   0  0  1  0  0  0  0  0  0  0  0  0
  146.1660  132.0156  151.2774 C   0  0  0  0  0  0  0  0  0  0  0  0
  146.7927  132.4377  150.1764 N   0  0  0  0  0  0  0  0  0  0  0  0
  146.4737  130.9642  151.8367 O   0  0  0  0  0  0  0  0  0  0  0  0
  150.5410  134.6932  155.1656 C   0  0  0  0  0  0  0  0  0  0  0  0
  151.5264  134.3550  156.0234 N   0  0  0  0  0  0  0  0  0  0  0  0
  153.8400  131.1929  158.0345 H   0  0  0  0  0  0  0  0  0  0  0  0
  153.4054  130.9395  156.3477 H   0  0  0  0  0  0  0  0  0  0  0  0
  152.2002  130.6950  157.6323 H   0  0  0  0  0  0  0  0  0  0  0  0
  150.9799  131.0072  156.1093 H   0  0  0  0  0  0  0  0  0  0  0  0
  149.1845  131.6224  154.5271 H   0  0  0  0  0  0  0  0  0  0  0  0
  148.9635  135.0410  153.1234 H   0  0  0  0  0  0  0  0  0  0  0  0
  147.3359  135.2765  152.0700 H   0  0  0  0  0  0  0  0  0  0  0  0
  144.7417  134.7651  152.8675 H   0  0  0  0  0  0  0  0  0  0  0  0
  144.6260  136.0971  151.0209 H   0  0  0  0  0  0  0  0  0  0  0  0
  146.0617  135.4141  150.2784 H   0  0  0  0  0  0  0  0  0  0  0  0
  143.4004  134.7665  149.5242 H   0  0  0  0  0  0  0  0  0  0  0  0
  144.8657  133.9211  149.0524 H   0  0  0  0  0  0  0  0  0  0  0  0
  142.9609  133.2511  151.2928 H   0  0  0  0  0  0  0  0  0  0  0  0
  143.7468  132.1465  150.1807 H   0  0  0  0  0  0  0  0  0  0  0  0
  144.6326  132.4455  152.7254 H   0  0  0  0  0  0  0  0  0  0  0  0
  147.5502  131.8952  149.7874 H   0  0  0  0  0  0  0  0  0  0  0  0
  146.5094  133.3027  149.7394 H   0  0  0  0  0  0  0  0  0  0  0  0
  150.4646  135.7445  154.9283 H   0  0  0  0  0  0  0  0  0  0  0  0
  1  2  1  0  0  0  0
  1 21  1  0  0  0  0
  1 22  1  0  0  0  0
  1 23  1  0  0  0  0
  2  3  1  0  0  0  0
  3 20  1  0  0  0  0
  3  4  2  0  0  0  0
  4  5  1  0  0  0  0
  4 24  1  0  0  0  0
  5  6  2  0  0  0  0
  5 25  1  0  0  0  0
  6  7  1  0  0  0  0
  6 19  1  0  0  0  0
  7  8  1  0  0  0  0
  7 26  1  0  0  0  0
  8  9  2  0  0  0  0
  8 10  1  0  0  0  0
 10 11  1  0  0  0  0
 10 27  1  0  0  0  0
 11 15  1  0  0  0  0
 11 12  1  0  0  0  0
 11 28  1  0  0  0  0
 12 13  1  0  0  0  0
 12 29  1  0  0  0  0
 12 30  1  0  0  0  0
 13 14  1  0  0  0  0
 13 31  1  0  0  0  0
 13 32  1  0  0  0  0
 14 15  1  0  0  0  0
 14 33  1  0  0  0  0
 14 34  1  0  0  0  0
 15 16  1  0  0  0  0
 15 35  1  0  0  0  0
 16 17  1  0  0  0  0
 16 18  2  0  0  0  0
 17 36  1  0  0  0  0
 17 37  1  0  0  0  0
 19 20  2  0  0  0  0
 19 38  1  0  0  0  0
M  END
> <s_m_source_file>
AV-unprocessed.smi

> <i_m_source_file_index>
668

> <i_lp_mmshare_version>
43012

> <i_f3d_flags>
0

> <s_epik_input>
W0NIM11PYzFbY0hdW2NIXWMoW2NIXW4xKVtOSF1DKD1PKVtOSF1bQ0BASF0yW0NIMl1bQ0gyXVtDSDJdW0NASF0yQyg9TylbTkgyXQ==

> <s_epik_cmdline>
J2VwaWtfcHl0aG9uJywgJy1waCcsICc3LjAnLCAnLXRuJywgJzgnLCAnLW1hJywgJzIwMCcsICctbWV0YWxfYmluZGluZycsICctaW1hZScsICc8aW5maWxlLm1hZT4nLCAnLW9tYWUnLCAnPG91dGZpbGUubWFlPic=

> <r_lp_tautomer_probability>
1

> <r_epik_Ionization_Penalty>
9.0916e-05

> <r_epik_Ionization_Penalty_Charging>
0

> <r_epik_Ionization_Penalty_Neutral>
9.0916e-05

> <r_epik_State_Penalty>
-0

> <r_epik_Charging_Adjusted_Penalty>
0

> <i_epik_Tot_Q>
0

> <i_epik_Tot_abs_Q>
0

> <r_epik_Metal_State_Penalty>
-0

> <b_epik_Metal_Only>
0

> <s_lp_Force_Field>
OPLS_2005

> <r_lp_Energy>
16.947

> <b_lp_Chiralities_Consistent>
1

> <s_lp_Variant>
AV-unprocessed.smi:668-2

> <Gold.Version>
5.8.1

> <Gold.Id.Protein>
6NUR|6NUR_protein|mol2

> <Gold.PLP.Fitness>
41.6320

> <Gold.PLP.PLP>
-30.2635

> <Gold.PLP.part.hbond>
-4.9444

> <Gold.PLP.part.metal>
0.0000

> <Gold.PLP.part.buried>
-1.9004

> <Gold.PLP.part.nonpolar>
-22.9134

> <Gold.PLP.part.repulsive>
0.6205

> <Gold.PLP.ligand.clash>
0.0000

> <Gold.PLP.ligand.torsion>
0.6110

> <Gold.PLP.Chemscore.Hbond>
4.1898

> <Gold.PLP.Chemscore.CHOScore>
0.0000

> <Gold.PLP.Chemscore.Metal>
0.0000

> <Gold.Chemscore.Hbonds>
donor molecule, donor type, donor heavy atom, donor atom, acceptor molecule, acceptor atom, score
      L1  H     7    26       P1  7948  0.95
      L1  H    10    27       P1  7948  1.00
      L1  H    17    36       P1 10747  0.86
      P1  H  6896  6909       L1     2  0.20
      P1  H 10752 10763       L1    20  0.39

> <Gold.PLP.Chemscore.Internal.Correction>
0.0210

> <Gold.Rescore>
     Score         DG    S(hbond)    S(metal)    S(lipo)     H(rot)  DE(clash)    DE(int)     intcor
     15.52     -17.56       3.13        0.00      54.79       1.86       0.22       1.82       ----

> <Gold.Chemscore.Fitness>
15.5208

> <Gold.Chemscore.DG>
-17.5622

> <Gold.Chemscore.ZeroCoef>
-5.4800

> <Gold.Chemscore.Hbond>
3.1274

> <Gold.Chemscore.Metal>
0.0000

> <Gold.Chemscore.Lipo>
54.7913

> <Gold.Chemscore.Internal_Hbond>
0.0000

> <Gold.Chemscore.DEClash>
0.2228

> <Gold.Chemscore.DEInternal>
1.8187

> <Gold.Chemscore.Rot>
1.8648

> <Gold.Chemscore.Internal.Correction>
   9.000000E+99

> <Gold.Chemscore.Hbonds>
donor molecule, donor type, donor heavy atom, donor atom, acceptor molecule, acceptor atom, score
      L1  H     7    26       P1  7948  0.21
      L1  H    10    27       P1  7948  0.94
      L1  H    17    36       P1 10747  0.85
      P1  H  6896  6909       L1     2  0.03
      P1  H 10752 10763       L1    20  0.08

> <Gold.Chemscore.Hbond.Weighted>
-10.4456

> <Gold.Chemscore.Metal.Weighted>
-0.0000

> <Gold.Chemscore.Lipo.Weighted>
-6.4106

> <Gold.Chemscore.Internal_Hbond.Weighted>
0.0000

> <Gold.Chemscore.DEClash.Weighted>
0.2228

> <Gold.Chemscore.DEInternal.Weighted>
1.8187

> <Gold.Chemscore.Rot.Weighted>
4.7739

> <Gold.Chemscore.Internal.Correction.Weighted>
   9.000000E+99

> <Gold.Protein.RotatedTorsions>
[ 6907 6896 6895 6894 ] final  -61.02 input  -60.11 | X-H torsion
[ 7974 7965 7964 7962 ] final  145.06 input  175.53 | X-H torsion
[ 8008 7997 7996 7995 ] final   34.69 input   59.86 | X-H torsion
[ 10167 10162 10161 10158 ] final -177.46 input  -65.29 | X-H torsion
[ 10718 10713 10712 10709 ] final  -32.28 input   66.30 | X-H torsion
[ 10763 10752 10751 10750 ] final   89.51 input  -60.55 | X-H torsion
[ 11005 11000 10999 10996 ] final  -57.26 input  -57.11 | X-H torsion

> <Gold.Protein.ActiveResidues>
 VAL166  LYS551  ARG553  GLY616  TRP617  ASP618  TYR619  PRO620  LYS621  CYS622 
 ASP623  PHE694  ASN695  SER759  ASP760  ASP761  ALA762  ILE779  LEU786  VAL792 
 PHE793  MET794  SER795  GLU796  ALA797  LYS798  CYS799  TRP800  GLU811  SER814 

> <Gold.Protein.RotatedAtoms>
  150.7814  134.6760  159.6417 H   0  0  0  0  0  0  0  0  0  0  0  0  # atno 6907 bound_to 6896
  152.3900  134.6454  160.0120 H   0  0  0  0  0  0  0  0  0  0  0  0  # atno 6908 bound_to 6896
  151.6757  133.3276  159.3243 H   0  0  0  0  0  0  0  0  0  0  0  0  # atno 6909 bound_to 6896
  144.8784  139.5737  143.5854 H   0  0  0  0  0  0  0  0  0  0  0  0  # atno 7974 bound_to 7965
  155.1589  140.3281  155.4415 H   0  0  0  0  0  0  0  0  0  0  0  0  # atno 8008 bound_to 7997
  156.2549  140.1963  156.6648 H   0  0  0  0  0  0  0  0  0  0  0  0  # atno 8009 bound_to 7997
  154.6419  140.0569  156.9842 H   0  0  0  0  0  0  0  0  0  0  0  0  # atno 8010 bound_to 7997
  139.5479  144.2186  152.1023 H   0  0  0  0  0  0  0  0  0  0  0  0  # atno 10167 bound_to 10162
  156.3768  130.4349  149.7501 H   0  0  0  0  0  0  0  0  0  0  0  0  # atno 10718 bound_to 10713
  153.1878  135.4468  155.0111 H   0  0  0  0  0  0  0  0  0  0  0  0  # atno 10763 bound_to 10752
  154.8071  135.3279  154.7404 H   0  0  0  0  0  0  0  0  0  0  0  0  # atno 10764 bound_to 10752
  153.7861  135.6974  153.4935 H   0  0  0  0  0  0  0  0  0  0  0  0  # atno 10765 bound_to 10752
  141.1157  133.6610  156.4743 H   0  0  0  0  0  0  0  0  0  0  0  0  # atno 11005 bound_to 11000
  146.2978  139.7332  142.9114 LP  0  0  0  0  0  0  0  0  0  0  0  0  # atno 17320 bound_to 7965
  145.4000  141.0384  143.3076 LP  0  0  0  0  0  0  0  0  0  0  0  0  # atno 17321 bound_to 7965
  140.1676  144.4966  150.6597 LP  0  0  0  0  0  0  0  0  0  0  0  0  # atno 17342 bound_to 10162
  140.6733  143.2294  151.5570 LP  0  0  0  0  0  0  0  0  0  0  0  0  # atno 17343 bound_to 10162
  156.4607  130.7950  151.2970 LP  0  0  0  0  0  0  0  0  0  0  0  0  # atno 17370 bound_to 10713
  157.7489  131.0067  150.3160 LP  0  0  0  0  0  0  0  0  0  0  0  0  # atno 17371 bound_to 10713
  140.4653  134.6804  157.5104 LP  0  0  0  0  0  0  0  0  0  0  0  0  # atno 17394 bound_to 11000
  140.0078  134.6738  155.9428 LP  0  0  0  0  0  0  0  0  0  0  0  0  # atno 17395 bound_to 11000

$$$$
