AV-unprocessed.smi:686|AV-procd|sdf|3350|dock2
  -GOLD-   22720 0323D 1   1.00000     0.00000
 Structure written by MMmdl.
 40 41  0  0  0  0  0  0  0  0  3 V2000
  150.4278  132.3745  155.3487 C   0  0  0  0  0  0  0  0  0  0  0  0
  149.5169  133.4839  154.7879 C   0  0  1  0  0  0  0  0  0  0  0  0
  148.7176  133.0481  153.5581 C   0  0  0  0  0  0  0  0  0  0  0  0
  147.6266  134.0412  153.4370 N   0  3  1  0  0  0  0  0  0  0  0  0
  146.4521  133.6158  152.6235 C   0  0  0  0  0  0  0  0  0  0  0  0
  146.8591  133.2345  151.1876 C   0  0  0  0  0  0  0  0  0  0  0  0
  145.3803  134.7210  152.5781 C   0  0  0  0  0  0  0  0  0  0  0  0
  147.3108  134.5133  154.8098 C   0  0  0  0  0  0  0  0  0  0  0  0
  148.4172  133.9846  155.7381 C   0  0  2  0  0  0  0  0  0  0  0  0
  148.9091  135.0221  156.6313 N   0  5  0  0  0  0  0  0  0  0  0  0
  149.4787  134.6050  158.0906 S   0  0  0  0  0  0  0  0  0  0  0  0
  150.0939  133.2678  158.0909 O   0  0  0  0  0  0  0  0  0  0  0  0
  150.2415  135.6909  158.7279 O   0  0  0  0  0  0  0  0  0  0  0  0
  147.9076  134.4510  159.0428 C   0  0  0  0  0  0  0  0  0  0  0  0
  147.9609  135.3180  160.2694 C   0  0  0  0  0  0  0  0  0  0  0  0
  147.9340  134.9207  161.6352 C   0  0  0  0  0  0  0  0  0  0  0  0
  148.0116  136.1025  162.3133 C   0  0  0  0  0  0  0  0  0  0  0  0
  148.0905  137.1434  161.4464 O   0  0  0  0  0  0  0  0  0  0  0  0
  148.0606  136.6325  160.1438 N   0  0  0  0  0  0  0  0  0  0  0  0
  149.8661  131.4877  155.6482 H   0  0  0  0  0  0  0  0  0  0  0  0
  150.9970  132.7173  156.2145 H   0  0  0  0  0  0  0  0  0  0  0  0
  151.1509  132.0590  154.5966 H   0  0  0  0  0  0  0  0  0  0  0  0
  150.1430  134.3277  154.4907 H   0  0  0  0  0  0  0  0  0  0  0  0
  149.3394  133.0312  152.6621 H   0  0  0  0  0  0  0  0  0  0  0  0
  148.3023  132.0447  153.6904 H   0  0  0  0  0  0  0  0  0  0  0  0
  146.0161  132.7337  153.0951 H   0  0  0  0  0  0  0  0  0  0  0  0
  145.9846  132.9723  150.5916 H   0  0  0  0  0  0  0  0  0  0  0  0
  147.5233  132.3705  151.1660 H   0  0  0  0  0  0  0  0  0  0  0  0
  147.3647  134.0600  150.6855 H   0  0  0  0  0  0  0  0  0  0  0  0
  144.5297  134.4152  151.9683 H   0  0  0  0  0  0  0  0  0  0  0  0
  145.7789  135.6414  152.1499 H   0  0  0  0  0  0  0  0  0  0  0  0
  144.9904  134.9564  153.5682 H   0  0  0  0  0  0  0  0  0  0  0  0
  147.2563  135.6032  154.7967 H   0  0  0  0  0  0  0  0  0  0  0  0
  146.3436  134.1421  155.1522 H   0  0  0  0  0  0  0  0  0  0  0  0
  148.0143  133.1237  156.2738 H   0  0  0  0  0  0  0  0  0  0  0  0
  147.0840  134.7471  158.3938 H   0  0  0  0  0  0  0  0  0  0  0  0
  147.7666  133.4013  159.3015 H   0  0  0  0  0  0  0  0  0  0  0  0
  147.8611  133.9261  162.0492 H   0  0  0  0  0  0  0  0  0  0  0  0
  148.0236  136.3562  163.3628 H   0  0  0  0  0  0  0  0  0  0  0  0
  148.0384  134.8356  152.9687 H   0  0  0  0  0  0  0  0  0  0  0  0
  1  2  1  0  0  0  0
  1 20  1  0  0  0  0
  1 21  1  0  0  0  0
  1 22  1  0  0  0  0
  2  9  1  0  0  0  0
  2  3  1  0  0  0  0
  2 23  1  0  0  0  0
  3  4  1  0  0  0  0
  3 24  1  0  0  0  0
  3 25  1  0  0  0  0
  4  5  1  0  0  0  0
  4  8  1  0  0  0  0
  4 40  1  0  0  0  0
  5  6  1  0  0  0  0
  5  7  1  0  0  0  0
  5 26  1  0  0  0  0
  6 27  1  0  0  0  0
  6 28  1  0  0  0  0
  6 29  1  0  0  0  0
  7 30  1  0  0  0  0
  7 31  1  0  0  0  0
  7 32  1  0  0  0  0
  8  9  1  0  0  0  0
  8 33  1  0  0  0  0
  8 34  1  0  0  0  0
  9 10  1  0  0  0  0
  9 35  1  0  0  0  0
 10 11  1  0  0  0  0
 11 12  2  0  0  0  0
 11 13  2  0  0  0  0
 11 14  1  0  0  0  0
 14 15  1  0  0  0  0
 14 36  1  0  0  0  0
 14 37  1  0  0  0  0
 15 19  2  0  0  0  0
 15 16  1  0  0  0  0
 16 17  2  0  0  0  0
 16 38  1  0  0  0  0
 17 18  1  0  0  0  0
 17 39  1  0  0  0  0
 18 19  1  0  0  0  0
M  CHG  1   4   1
M  CHG  1  10  -1
M  END
> <s_m_source_file>
AV-unprocessed.smi

> <i_m_source_file_index>
686

> <i_lp_mmshare_version>
43012

> <i_f3d_flags>
0

> <s_epik_input>
W0NIM11bQ0BASF0xW0NIMl1OKFtDSF0oW0NIM10pW0NIM10pW0NIMl1bQ0BIXTFbTkhdUyg9TykoPU8pW0NIMl1jMltjSF1bY0hdb24y

> <s_epik_cmdline>
J2VwaWtfcHl0aG9uJywgJy1waCcsICc3LjAnLCAnLXRuJywgJzgnLCAnLW1hJywgJzIwMCcsICctbWV0YWxfYmluZGluZycsICctaW1hZScsICc8aW5maWxlLm1hZT4nLCAnLW9tYWUnLCAnPG91dGZpbGUubWFlPic=

> <r_epik_Ionization_Penalty>
3.62478

> <r_epik_Ionization_Penalty_Charging>
3.62478

> <r_epik_Ionization_Penalty_Neutral>
2.03645e-10

> <r_epik_State_Penalty>
3.6247

> <r_epik_Charging_Adjusted_Penalty>
7.24949

> <i_epik_Tot_Q>
0

> <i_epik_Tot_abs_Q>
2

> <r_epik_Metal_State_Penalty>
0.530836

> <b_epik_Metal_Only>
1

> <s_lp_Force_Field>
OPLS_2005

> <r_lp_Energy>
18.1903

> <b_lp_Chiralities_Consistent>
1

> <s_lp_Variant>
AV-unprocessed.smi:686-14

> <Gold.Version>
5.8.1

> <Gold.Id.Protein>
6NUR|6NUR_protein|mol2

> <Gold.PLP.Fitness>
43.0360

> <Gold.PLP.PLP>
-27.9453

> <Gold.PLP.part.hbond>
-5.0000

> <Gold.PLP.part.metal>
0.0000

> <Gold.PLP.part.buried>
-3.6158

> <Gold.PLP.part.nonpolar>
-19.7346

> <Gold.PLP.part.repulsive>
0.0243

> <Gold.PLP.ligand.clash>
0.0000

> <Gold.PLP.ligand.torsion>
0.9395

> <Gold.PLP.Chemscore.Hbond>
5.3120

> <Gold.PLP.Chemscore.CHOScore>
0.0000

> <Gold.PLP.Chemscore.Metal>
0.0000

> <Gold.Chemscore.Hbonds>
donor molecule, donor type, donor heavy atom, donor atom, acceptor molecule, acceptor atom, score
      L1  H     4    40       P1  7948  2.00
      P1  H  6896  6907       L1    12  0.90
      P1  H  6896  6908       L1    13  0.62
      P1  H  6931  6943       L1    18  0.99
      P1  H  6934  6947       L1    18  0.37

> <Gold.PLP.Chemscore.Internal.Correction>
1.0337

> <Gold.Rescore>
     Score         DG    S(hbond)    S(metal)    S(lipo)     H(rot)  DE(clash)    DE(int)     intcor
     16.49     -19.02       3.19        0.00      59.94       1.61       0.03       2.49       ----

> <Gold.Chemscore.Fitness>
16.4947

> <Gold.Chemscore.DG>
-19.0159

> <Gold.Chemscore.ZeroCoef>
-5.4800

> <Gold.Chemscore.Hbond>
3.1907

> <Gold.Chemscore.Metal>
0.0000

> <Gold.Chemscore.Lipo>
59.9398

> <Gold.Chemscore.Internal_Hbond>
0.0000

> <Gold.Chemscore.DEClash>
0.0270

> <Gold.Chemscore.DEInternal>
2.4942

> <Gold.Chemscore.Rot>
1.6149

> <Gold.Chemscore.Internal.Correction>
   9.000000E+99

> <Gold.Chemscore.Hbonds>
donor molecule, donor type, donor heavy atom, donor atom, acceptor molecule, acceptor atom, score
      L1  H     4    40       P1  7948  0.86
      P1  H  6896  6907       L1    12  0.18
      P1  H  6896  6908       L1    13  0.36
      P1  H  6931  6943       L1    18  0.80
      P1  H  6934  6947       L1    18  0.05

> <Gold.Chemscore.Hbond.Weighted>
-10.6571

> <Gold.Chemscore.Metal.Weighted>
-0.0000

> <Gold.Chemscore.Lipo.Weighted>
-7.0130

> <Gold.Chemscore.Internal_Hbond.Weighted>
0.0000

> <Gold.Chemscore.DEClash.Weighted>
0.0270

> <Gold.Chemscore.DEInternal.Weighted>
2.4942

> <Gold.Chemscore.Rot.Weighted>
4.1341

> <Gold.Chemscore.Internal.Correction.Weighted>
   9.000000E+99

> <Gold.Protein.RotatedTorsions>
[ 6907 6896 6895 6894 ] final -146.87 input  -60.11 | X-H torsion
[ 7974 7965 7964 7962 ] final  -61.61 input  175.53 | X-H torsion
[ 8008 7997 7996 7995 ] final  156.24 input   59.86 | X-H torsion
[ 10167 10162 10161 10158 ] final   59.66 input  -65.29 | X-H torsion
[ 10718 10713 10712 10709 ] final  115.89 input   66.30 | X-H torsion
[ 10763 10752 10751 10750 ] final  -78.11 input  -60.55 | X-H torsion
[ 11005 11000 10999 10996 ] final  -46.37 input  -57.11 | X-H torsion

> <Gold.Protein.ActiveResidues>
 VAL166  LYS551  ARG553  GLY616  TRP617  ASP618  TYR619  PRO620  LYS621  CYS622 
 ASP623  PHE694  ASN695  SER759  ASP760  ASP761  ALA762  ILE779  LEU786  VAL792 
 PHE793  MET794  SER795  GLU796  ALA797  LYS798  CYS799  TRP800  GLU811  SER814 

> <Gold.Protein.RotatedAtoms>
  151.1476  133.4929  159.2595 H   0  0  0  0  0  0  0  0  0  0  0  0  # atno 6907 bound_to 6896
  151.1588  135.0263  159.8711 H   0  0  0  0  0  0  0  0  0  0  0  0  # atno 6908 bound_to 6896
  152.5463  134.1353  159.8509 H   0  0  0  0  0  0  0  0  0  0  0  0  # atno 6909 bound_to 6896
  145.8014  140.8653  143.0229 H   0  0  0  0  0  0  0  0  0  0  0  0  # atno 7974 bound_to 7965
  156.2433  140.1917  156.6925 H   0  0  0  0  0  0  0  0  0  0  0  0  # atno 8008 bound_to 7997
  154.6241  140.0604  156.9678 H   0  0  0  0  0  0  0  0  0  0  0  0  # atno 8009 bound_to 7997
  155.1815  140.3277  155.4377 H   0  0  0  0  0  0  0  0  0  0  0  0  # atno 8010 bound_to 7997
  140.1740  144.4249  150.6647 H   0  0  0  0  0  0  0  0  0  0  0  0  # atno 10167 bound_to 10162
  157.6194  131.1018  150.7395 H   0  0  0  0  0  0  0  0  0  0  0  0  # atno 10718 bound_to 10713
  154.5216  135.5741  153.6686 H   0  0  0  0  0  0  0  0  0  0  0  0  # atno 10763 bound_to 10752
  152.9918  135.6183  154.2746 H   0  0  0  0  0  0  0  0  0  0  0  0  # atno 10764 bound_to 10752
  154.2668  135.2854  155.2735 H   0  0  0  0  0  0  0  0  0  0  0  0  # atno 10765 bound_to 10752
  141.0575  133.6721  156.3145 H   0  0  0  0  0  0  0  0  0  0  0  0  # atno 11005 bound_to 11000
  144.6768  140.0265  143.7483 LP  0  0  0  0  0  0  0  0  0  0  0  0  # atno 17320 bound_to 7965
  145.9873  139.2988  143.1006 LP  0  0  0  0  0  0  0  0  0  0  0  0  # atno 17321 bound_to 7965
  140.6563  143.2239  151.5960 LP  0  0  0  0  0  0  0  0  0  0  0  0  # atno 17342 bound_to 10162
  139.5325  144.2874  152.1180 LP  0  0  0  0  0  0  0  0  0  0  0  0  # atno 17343 bound_to 10162
  156.7755  130.4842  149.5410 LP  0  0  0  0  0  0  0  0  0  0  0  0  # atno 17370 bound_to 10713
  156.1332  130.6192  151.0363 LP  0  0  0  0  0  0  0  0  0  0  0  0  # atno 17371 bound_to 10713
  140.5936  134.5626  157.5504 LP  0  0  0  0  0  0  0  0  0  0  0  0  # atno 17394 bound_to 11000
  139.9403  134.7800  156.0697 LP  0  0  0  0  0  0  0  0  0  0  0  0  # atno 17395 bound_to 11000

$$$$
