AV-unprocessed.smi:115|AV-procd|sdf|1123|dock5
  -GOLD-   2262018243D 1   1.00000     0.00000
 Structure written by MMmdl.
 55 57  0  0  0  0  0  0  0  0  1 V2000
  150.7844  142.5190  157.5390 C   0  0  0  0  0  0  0  0  0  0  0  0
  150.7966  141.1159  157.3256 O   0  0  0  0  0  0  0  0  0  0  0  0
  151.5926  140.6986  156.2239 C   0  0  0  0  0  0  0  0  0  0  0  0
  151.8197  139.1708  156.2146 C   0  0  2  0  0  0  0  0  0  0  0  0
  152.7136  138.6819  155.0588 C   0  0  0  0  0  0  0  0  0  0  0  0
  150.5508  138.4331  156.3348 N   0  0  0  0  0  0  0  0  0  0  0  0
  150.1960  137.6851  157.4569 C   0  0  0  0  0  0  0  0  0  0  0  0
  151.0626  137.5502  158.6696 C   0  0  0  0  0  0  0  0  0  0  0  0
  148.9731  137.1325  157.2247 C   0  0  0  0  0  0  0  0  0  0  0  0
  148.5234  137.5488  155.9439 C   0  0  0  0  0  0  0  0  0  0  0  0
  147.2620  137.1695  155.2559 C   0  0  0  0  0  0  0  0  0  0  0  0
  146.6702  137.9105  154.4697 O   0  0  0  0  0  0  0  0  0  0  0  0
  146.7265  135.7599  155.5709 C   0  0  0  0  0  0  0  0  0  0  0  0
  147.0254  134.7891  154.5245 N   0  0  0  0  0  0  0  0  0  0  0  0
  148.0729  133.8651  154.7619 C   0  0  0  0  0  0  0  0  0  0  0  0
  148.7091  133.8517  155.8172 O   0  0  0  0  0  0  0  0  0  0  0  0
  148.3262  132.9438  153.6607 C   0  0  0  0  0  0  0  0  0  0  0  0
  149.3388  132.0647  153.7494 F   0  0  0  0  0  0  0  0  0  0  0  0
  147.5706  132.9694  152.5417 C   0  0  0  0  0  0  0  0  0  0  0  0
  146.5017  133.8337  152.3645 N   0  0  0  0  0  0  0  0  0  0  0  0
  145.7338  133.8918  151.0594 C   0  0  2  0  0  0  0  0  0  0  0  0
  144.2176  133.6765  151.2096 C   0  0  0  0  0  0  0  0  0  0  0  0
  144.0366  132.2647  150.6868 C   0  0  0  0  0  0  0  0  0  0  0  0
  145.1470  132.1767  149.6473 C   0  0  0  0  0  0  0  0  0  0  0  0
  146.2331  132.8817  150.2346 O   0  0  0  0  0  0  0  0  0  0  0  0
  146.2359  134.8136  153.3488 C   0  0  0  0  0  0  0  0  0  0  0  0
  145.3405  135.6467  153.1893 O   0  0  0  0  0  0  0  0  0  0  0  0
  149.4866  138.3830  155.4202 C   0  0  0  0  0  0  0  0  0  0  0  0
  149.4958  139.1417  154.1217 C   0  0  0  0  0  0  0  0  0  0  0  0
  150.1895  142.7439  158.4241 H   0  0  0  0  0  0  0  0  0  0  0  0
  150.3439  143.0579  156.7008 H   0  0  0  0  0  0  0  0  0  0  0  0
  151.7913  142.9012  157.7099 H   0  0  0  0  0  0  0  0  0  0  0  0
  151.1412  141.0298  155.2871 H   0  0  0  0  0  0  0  0  0  0  0  0
  152.5419  141.2245  156.2990 H   0  0  0  0  0  0  0  0  0  0  0  0
  152.4005  138.9306  157.1010 H   0  0  0  0  0  0  0  0  0  0  0  0
  153.7327  139.0472  155.1886 H   0  0  0  0  0  0  0  0  0  0  0  0
  152.3842  139.0312  154.0828 H   0  0  0  0  0  0  0  0  0  0  0  0
  152.7616  137.5929  155.0315 H   0  0  0  0  0  0  0  0  0  0  0  0
  150.5382  137.0170  159.4629 H   0  0  0  0  0  0  0  0  0  0  0  0
  151.3462  138.5273  159.0617 H   0  0  0  0  0  0  0  0  0  0  0  0
  151.9710  136.9921  158.4408 H   0  0  0  0  0  0  0  0  0  0  0  0
  148.4535  136.4835  157.9143 H   0  0  0  0  0  0  0  0  0  0  0  0
  147.1369  135.3864  156.5102 H   0  0  0  0  0  0  0  0  0  0  0  0
  145.6452  135.7765  155.7162 H   0  0  0  0  0  0  0  0  0  0  0  0
  147.8327  132.2769  151.7581 H   0  0  0  0  0  0  0  0  0  0  0  0
  145.9317  134.8760  150.6325 H   0  0  0  0  0  0  0  0  0  0  0  0
  143.8517  133.8439  152.2224 H   0  0  0  0  0  0  0  0  0  0  0  0
  143.7095  134.3811  150.5498 H   0  0  0  0  0  0  0  0  0  0  0  0
  144.2048  131.5337  151.4778 H   0  0  0  0  0  0  0  0  0  0  0  0
  143.0460  132.0893  150.2666 H   0  0  0  0  0  0  0  0  0  0  0  0
  145.4192  131.1494  149.4051 H   0  0  0  0  0  0  0  0  0  0  0  0
  144.8509  132.6798  148.7256 H   0  0  0  0  0  0  0  0  0  0  0  0
  148.4892  139.4134  153.8084 H   0  0  0  0  0  0  0  0  0  0  0  0
  149.9455  138.5457  153.3275 H   0  0  0  0  0  0  0  0  0  0  0  0
  150.0327  140.0828  154.1933 H   0  0  0  0  0  0  0  0  0  0  0  0
  1  2  1  0  0  0  0
  1 30  1  0  0  0  0
  1 31  1  0  0  0  0
  1 32  1  0  0  0  0
  2  3  1  0  0  0  0
  3  4  1  0  0  0  0
  3 33  1  0  0  0  0
  3 34  1  0  0  0  0
  4  5  1  0  0  0  0
  4  6  1  0  0  0  0
  4 35  1  0  0  0  0
  5 36  1  0  0  0  0
  5 37  1  0  0  0  0
  5 38  1  0  0  0  0
  6 28  1  0  0  0  0
  6  7  1  0  0  0  0
  7  8  1  0  0  0  0
  7  9  2  0  0  0  0
  8 39  1  0  0  0  0
  8 40  1  0  0  0  0
  8 41  1  0  0  0  0
  9 10  1  0  0  0  0
  9 42  1  0  0  0  0
 10 11  1  0  0  0  0
 10 28  2  0  0  0  0
 11 12  2  0  0  0  0
 11 13  1  0  0  0  0
 13 14  1  0  0  0  0
 13 43  1  0  0  0  0
 13 44  1  0  0  0  0
 14 26  1  0  0  0  0
 14 15  1  0  0  0  0
 15 16  2  0  0  0  0
 15 17  1  0  0  0  0
 17 18  1  0  0  0  0
 17 19  2  0  0  0  0
 19 20  1  0  0  0  0
 19 45  1  0  0  0  0
 20 21  1  0  0  0  0
 20 26  1  0  0  0  0
 21 25  1  0  0  0  0
 21 22  1  0  0  0  0
 21 46  1  0  0  0  0
 22 23  1  0  0  0  0
 22 47  1  0  0  0  0
 22 48  1  0  0  0  0
 23 24  1  0  0  0  0
 23 49  1  0  0  0  0
 23 50  1  0  0  0  0
 24 25  1  0  0  0  0
 24 51  1  0  0  0  0
 24 52  1  0  0  0  0
 26 27  2  0  0  0  0
 28 29  1  0  0  0  0
 29 53  1  0  0  0  0
 29 54  1  0  0  0  0
 29 55  1  0  0  0  0
M  END
> <s_m_source_file>
AV-unprocessed.smi

> <i_m_source_file_index>
115

> <i_lp_mmshare_version>
43012

> <i_f3d_flags>
0

> <s_epik_input>
W0NIM11PW0NIMl1bQ0BIXShbQ0gzXSluMWMoW0NIM10pW2NIXWMoYzFbQ0gzXSlDKD1PKVtDSDJdbjJjKD1PKWMoRilbY0hdbihjMj1PKVtDQEBIXTNbQ0gyXVtDSDJdW0NIMl1PMw==

> <s_epik_cmdline>
J2VwaWtfcHl0aG9uJywgJy1waCcsICc3LjAnLCAnLXRuJywgJzgnLCAnLW1hJywgJzIwMCcsICctbWV0YWxfYmluZGluZycsICctaW1hZScsICc8aW5maWxlLm1hZT4nLCAnLW9tYWUnLCAnPG91dGZpbGUubWFlPic=

> <r_lp_tautomer_probability>
1

> <r_epik_Ionization_Penalty>
5.02611e-09

> <r_epik_Ionization_Penalty_Charging>
5.01743e-09

> <r_epik_Ionization_Penalty_Neutral>
8.68114e-12

> <r_epik_State_Penalty>
-0

> <r_epik_Charging_Adjusted_Penalty>
5.01743e-09

> <i_epik_Tot_Q>
0

> <i_epik_Tot_abs_Q>
0

> <r_epik_Metal_State_Penalty>
-0

> <b_epik_Metal_Only>
0

> <s_epik_Chemistry_Notes>
This compound contains an acetal/aminal-like group ( X-CH(R)-Y where X, Y are N, S, or O) that may be acid/base labile, releasing an aldehyde.

> <s_lp_Force_Field>
OPLS_2005

> <r_lp_Energy>
47.9533

> <b_lp_Chiralities_Consistent>
1

> <s_lp_Variant>
AV-unprocessed.smi:115-1

> <Gold.Version>
5.8.1

> <Gold.Id.Protein>
6NUR|6NUR_protein|mol2

> <Gold.PLP.Fitness>
40.9111

> <Gold.PLP.PLP>
-39.5054

> <Gold.PLP.part.hbond>
0.0000

> <Gold.PLP.part.metal>
0.0000

> <Gold.PLP.part.buried>
-5.1153

> <Gold.PLP.part.nonpolar>
-34.3443

> <Gold.PLP.part.repulsive>
0.4640

> <Gold.PLP.ligand.clash>
0.0000

> <Gold.PLP.ligand.torsion>
1.0491

> <Gold.PLP.Chemscore.Hbond>
0.0000

> <Gold.PLP.Chemscore.CHOScore>
1.0000

> <Gold.PLP.Chemscore.Metal>
0.0000

> <Gold.Chemscore.Hbonds>
donor molecule, donor type, donor heavy atom, donor atom, acceptor molecule, acceptor atom, score
      L1  C    19    45       P1 10747  1.00

> <Gold.PLP.Chemscore.Internal.Correction>
0.5040

> <Gold.Rescore>
     Score         DG    S(hbond)    S(metal)    S(lipo)     H(rot)  DE(clash)    DE(int)     intcor
      8.69     -10.52       0.00        0.00      91.10       2.19       0.11       1.72       ----

> <Gold.Chemscore.Fitness>
8.6935

> <Gold.Chemscore.DG>
-10.5228

> <Gold.Chemscore.ZeroCoef>
-5.4800

> <Gold.Chemscore.Hbond>
0.0000

> <Gold.Chemscore.Metal>
0.0000

> <Gold.Chemscore.Lipo>
91.1009

> <Gold.Chemscore.Internal_Hbond>
0.0000

> <Gold.Chemscore.DEClash>
0.1116

> <Gold.Chemscore.DEInternal>
1.7177

> <Gold.Chemscore.Rot>
2.1938

> <Gold.Chemscore.Internal.Correction>
   9.000000E+99

> <Gold.Chemscore.Hbond.Weighted>
-0.0000

> <Gold.Chemscore.Metal.Weighted>
-0.0000

> <Gold.Chemscore.Lipo.Weighted>
-10.6588

> <Gold.Chemscore.Internal_Hbond.Weighted>
0.0000

> <Gold.Chemscore.DEClash.Weighted>
0.1116

> <Gold.Chemscore.DEInternal.Weighted>
1.7177

> <Gold.Chemscore.Rot.Weighted>
5.6160

> <Gold.Chemscore.Internal.Correction.Weighted>
   9.000000E+99

> <Gold.Protein.RotatedTorsions>
[ 6907 6896 6895 6894 ] final  -28.73 input  -60.11 | X-H torsion
[ 7974 7965 7964 7962 ] final  -79.48 input  175.53 | X-H torsion
[ 8008 7997 7996 7995 ] final    5.07 input   59.86 | X-H torsion
[ 10167 10162 10161 10158 ] final  161.98 input  -65.29 | X-H torsion
[ 10718 10713 10712 10709 ] final  -38.03 input   66.30 | X-H torsion
[ 10763 10752 10751 10750 ] final  -51.91 input  -60.55 | X-H torsion
[ 11005 11000 10999 10996 ] final -153.33 input  -57.11 | X-H torsion

> <Gold.Protein.ActiveResidues>
 VAL166  LYS551  ARG553  GLY616  TRP617  ASP618  TYR619  PRO620  LYS621  CYS622 
 ASP623  PHE694  ASN695  SER759  ASP760  ASP761  ALA762  ILE779  LEU786  VAL792 
 PHE793  MET794  SER795  GLU796  ALA797  LYS798  CYS799  TRP800  GLU811  SER814 

> <Gold.Protein.RotatedAtoms>
  151.1289  135.0119  159.8572 H   0  0  0  0  0  0  0  0  0  0  0  0  # atno 6907 bound_to 6896
  152.5450  134.1634  159.8577 H   0  0  0  0  0  0  0  0  0  0  0  0  # atno 6908 bound_to 6896
  151.1699  133.4746  159.2627 H   0  0  0  0  0  0  0  0  0  0  0  0  # atno 6909 bound_to 6896
  145.5727  140.9463  143.1387 H   0  0  0  0  0  0  0  0  0  0  0  0  # atno 7974 bound_to 7965
  154.7238  140.2717  155.6517 H   0  0  0  0  0  0  0  0  0  0  0  0  # atno 8008 bound_to 7997
  156.2831  140.2729  156.1842 H   0  0  0  0  0  0  0  0  0  0  0  0  # atno 8009 bound_to 7997
  155.0472  140.0371  157.2521 H   0  0  0  0  0  0  0  0  0  0  0  0  # atno 8010 bound_to 7997
  139.4855  144.4483  151.8863 H   0  0  0  0  0  0  0  0  0  0  0  0  # atno 10167 bound_to 10162
  156.3084  130.4249  149.8074 H   0  0  0  0  0  0  0  0  0  0  0  0  # atno 10718 bound_to 10713
  154.1343  135.6515  153.4928 H   0  0  0  0  0  0  0  0  0  0  0  0  # atno 10763 bound_to 10752
  153.0185  135.5300  154.6970 H   0  0  0  0  0  0  0  0  0  0  0  0  # atno 10764 bound_to 10752
  154.6213  135.2965  155.0293 H   0  0  0  0  0  0  0  0  0  0  0  0  # atno 10765 bound_to 10752
  140.7092  134.3851  157.5200 H   0  0  0  0  0  0  0  0  0  0  0  0  # atno 11005 bound_to 11000
  144.7430  139.7396  143.7303 LP  0  0  0  0  0  0  0  0  0  0  0  0  # atno 17320 bound_to 7965
  146.1773  139.4949  142.9889 LP  0  0  0  0  0  0  0  0  0  0  0  0  # atno 17321 bound_to 7965
  140.3938  144.2581  150.5897 LP  0  0  0  0  0  0  0  0  0  0  0  0  # atno 17342 bound_to 10162
  140.5121  143.2288  151.8519 LP  0  0  0  0  0  0  0  0  0  0  0  0  # atno 17343 bound_to 10162
  156.5427  130.8307  151.3274 LP  0  0  0  0  0  0  0  0  0  0  0  0  # atno 17370 bound_to 10713
  157.7385  130.9814  150.2256 LP  0  0  0  0  0  0  0  0  0  0  0  0  # atno 17371 bound_to 10713
  139.8876  134.8878  156.2520 LP  0  0  0  0  0  0  0  0  0  0  0  0  # atno 17394 bound_to 11000
  141.0098  133.7102  156.1094 LP  0  0  0  0  0  0  0  0  0  0  0  0  # atno 17395 bound_to 11000

$$$$
