AV-unprocessed.smi:3018|AV-procd|sdf|11479|dock2
  -GOLD-   2272016413D 1   1.00000     0.00000
 Structure written by MMmdl.
 45 46  0  0  0  0  0  0  0  0  1 V2000
  148.6302  141.3388  154.0707 C   0  0  0  0  0  0  0  0  0  0  0  0
  148.5205  141.3177  155.6002 C   0  0  0  0  0  0  0  0  0  0  0  0
  149.8778  141.0929  156.2918 C   0  0  2  0  0  0  0  0  0  0  0  0
  150.5921  142.3276  156.2618 O   0  0  0  0  0  0  0  0  0  0  0  0
  150.8351  142.9594  157.5167 C   0  0  0  0  0  0  0  0  0  0  0  0
  151.5321  144.3201  157.3118 C   0  0  0  0  0  0  0  0  0  0  0  0
  151.9290  144.9524  158.6561 C   0  0  0  0  0  0  0  0  0  0  0  0
  152.8060  144.0011  159.4863 C   0  0  0  0  0  0  0  0  0  0  0  0
  152.1172  142.6420  159.6861 C   0  0  0  0  0  0  0  0  0  0  0  0
  151.7298  142.0148  158.3374 C   0  0  0  0  0  0  0  0  0  0  0  0
  150.6876  140.0069  155.5676 C   0  0  0  0  0  0  0  0  0  0  0  0
  151.7893  140.2734  155.0870 O   0  0  0  0  0  0  0  0  0  0  0  0
  150.1291  138.7878  155.5044 N   0  0  0  0  0  0  0  0  0  0  0  0
  150.7092  137.6213  154.8438 C   0  0  0  0  0  0  0  0  0  0  0  0
  151.2265  136.5764  155.8548 C   0  0  0  0  0  0  0  0  0  0  0  0
  150.7412  135.1584  155.6005 C   0  0  0  0  0  0  0  0  0  0  0  0
  150.9298  134.1098  156.3218 N   0  0  0  0  0  0  0  0  0  0  0  0
  150.2464  133.1773  155.6125 N   0  0  0  0  0  0  0  0  0  0  0  0
  149.6622  133.6450  154.5031 C   0  0  0  0  0  0  0  0  0  0  0  0
  148.9843  133.0226  153.6891 O   0  0  0  0  0  0  0  0  0  0  0  0
  149.9815  134.9329  154.4801 N   0  0  0  0  0  0  0  0  0  0  0  0
  150.2145  132.2261  155.9506 H   0  0  0  0  0  0  0  0  0  0  0  0
  149.7093  135.6212  153.7938 H   0  0  0  0  0  0  0  0  0  0  0  0
  147.6539  141.5041  153.6148 H   0  0  0  0  0  0  0  0  0  0  0  0
  149.0189  140.3944  153.6890 H   0  0  0  0  0  0  0  0  0  0  0  0
  149.2940  142.1355  153.7341 H   0  0  0  0  0  0  0  0  0  0  0  0
  148.0910  142.2648  155.9310 H   0  0  0  0  0  0  0  0  0  0  0  0
  147.8153  140.5410  155.8997 H   0  0  0  0  0  0  0  0  0  0  0  0
  149.6943  140.7842  157.3218 H   0  0  0  0  0  0  0  0  0  0  0  0
  149.9061  143.1068  158.0688 H   0  0  0  0  0  0  0  0  0  0  0  0
  152.4220  144.1855  156.6957 H   0  0  0  0  0  0  0  0  0  0  0  0
  150.8835  145.0075  156.7696 H   0  0  0  0  0  0  0  0  0  0  0  0
  152.4589  145.8895  158.4839 H   0  0  0  0  0  0  0  0  0  0  0  0
  151.0297  145.2046  159.2197 H   0  0  0  0  0  0  0  0  0  0  0  0
  153.7628  143.8542  158.9838 H   0  0  0  0  0  0  0  0  0  0  0  0
  153.0310  144.4504  160.4539 H   0  0  0  0  0  0  0  0  0  0  0  0
  152.7756  141.9678  160.2345 H   0  0  0  0  0  0  0  0  0  0  0  0
  151.2246  142.7702  160.2997 H   0  0  0  0  0  0  0  0  0  0  0  0
  151.2150  141.0682  158.5032 H   0  0  0  0  0  0  0  0  0  0  0  0
  152.6328  141.7810  157.7722 H   0  0  0  0  0  0  0  0  0  0  0  0
  149.2248  138.6625  155.9363 H   0  0  0  0  0  0  0  0  0  0  0  0
  150.0083  137.1746  154.1363 H   0  0  0  0  0  0  0  0  0  0  0  0
  151.5475  137.9776  154.2449 H   0  0  0  0  0  0  0  0  0  0  0  0
  152.3167  136.5687  155.8362 H   0  0  0  0  0  0  0  0  0  0  0  0
  150.9457  136.8728  156.8665 H   0  0  0  0  0  0  0  0  0  0  0  0
  1  2  1  0  0  0  0
  1 24  1  0  0  0  0
  1 25  1  0  0  0  0
  1 26  1  0  0  0  0
  2  3  1  0  0  0  0
  2 27  1  0  0  0  0
  2 28  1  0  0  0  0
  3  4  1  0  0  0  0
  3 11  1  0  0  0  0
  3 29  1  0  0  0  0
  4  5  1  0  0  0  0
  5 10  1  0  0  0  0
  5  6  1  0  0  0  0
  5 30  1  0  0  0  0
  6  7  1  0  0  0  0
  6 31  1  0  0  0  0
  6 32  1  0  0  0  0
  7  8  1  0  0  0  0
  7 33  1  0  0  0  0
  7 34  1  0  0  0  0
  8  9  1  0  0  0  0
  8 35  1  0  0  0  0
  8 36  1  0  0  0  0
  9 10  1  0  0  0  0
  9 37  1  0  0  0  0
  9 38  1  0  0  0  0
 10 39  1  0  0  0  0
 10 40  1  0  0  0  0
 11 12  2  0  0  0  0
 11 13  1  0  0  0  0
 13 14  1  0  0  0  0
 13 41  1  0  0  0  0
 14 15  1  0  0  0  0
 14 42  1  0  0  0  0
 14 43  1  0  0  0  0
 15 16  1  0  0  0  0
 15 44  1  0  0  0  0
 15 45  1  0  0  0  0
 16 21  1  0  0  0  0
 16 17  2  0  0  0  0
 17 18  1  0  0  0  0
 18 22  1  0  0  0  0
 18 19  1  0  0  0  0
 19 20  2  0  0  0  0
 19 21  1  0  0  0  0
 21 23  1  0  0  0  0
M  END
> <s_m_source_file>
AV-unprocessed.smi

> <i_m_source_file_index>
3018

> <i_lp_mmshare_version>
43012

> <i_f3d_flags>
0

> <s_epik_input>
W0NIMl0xW0NIMl1bQ0gyXVtDSDJdW0NIMl1bQ0hdMU9bQ0BASF0oW0NIMl1bQ0gzXSlDKD1PKVtOSF1bQ0gyXVtDSDJdYzJuW25IXWMoPU8pW25IXTI=

> <s_epik_cmdline>
J2VwaWtfcHl0aG9uJywgJy1waCcsICc3LjAnLCAnLXRuJywgJzgnLCAnLW1hJywgJzIwMCcsICctbWV0YWxfYmluZGluZycsICctaW1hZScsICc8aW5maWxlLm1hZT4nLCAnLW9tYWUnLCAnPG91dGZpbGUubWFlPic=

> <r_lp_tautomer_probability>
1

> <r_epik_Ionization_Penalty>
0.000773817

> <r_epik_Ionization_Penalty_Charging>
0.000773741

> <r_epik_Ionization_Penalty_Neutral>
7.58514e-08

> <r_epik_State_Penalty>
-0

> <r_epik_Charging_Adjusted_Penalty>
0.000773741

> <i_epik_Tot_Q>
0

> <i_epik_Tot_abs_Q>
0

> <r_epik_Metal_State_Penalty>
0.495152

> <b_epik_Metal_Only>
0

> <s_lp_Force_Field>
OPLS_2005

> <r_lp_Energy>
32.5004

> <b_lp_Chiralities_Consistent>
1

> <s_lp_Variant>
AV-unprocessed.smi:3018-1

> <Gold.Version>
5.8.1

> <Gold.Id.Protein>
6NUR|6NUR_protein|mol2

> <Gold.PLP.Fitness>
45.4083

> <Gold.PLP.PLP>
-41.8223

> <Gold.PLP.part.hbond>
-2.0375

> <Gold.PLP.part.metal>
0.0000

> <Gold.PLP.part.buried>
-5.7356

> <Gold.PLP.part.nonpolar>
-34.8329

> <Gold.PLP.part.repulsive>
0.4343

> <Gold.PLP.ligand.clash>
0.0000

> <Gold.PLP.ligand.torsion>
1.3339

> <Gold.PLP.Chemscore.Hbond>
1.9120

> <Gold.PLP.Chemscore.CHOScore>
0.0000

> <Gold.PLP.Chemscore.Metal>
0.0000

> <Gold.Chemscore.Hbonds>
donor molecule, donor type, donor heavy atom, donor atom, acceptor molecule, acceptor atom, score
      L1  H    21    23       P1  7948  0.65
      P1  H  7989  7998       L1    12  0.85

> <Gold.PLP.Chemscore.Internal.Correction>
0.5177

> <Gold.Rescore>
     Score         DG    S(hbond)    S(metal)    S(lipo)     H(rot)  DE(clash)    DE(int)     intcor
     13.79     -15.37       1.81        0.00      99.22       3.04       0.01       1.58       ----

> <Gold.Chemscore.Fitness>
13.7855

> <Gold.Chemscore.DG>
-15.3685

> <Gold.Chemscore.ZeroCoef>
-5.4800

> <Gold.Chemscore.Hbond>
1.8126

> <Gold.Chemscore.Metal>
0.0000

> <Gold.Chemscore.Lipo>
99.2158

> <Gold.Chemscore.Internal_Hbond>
0.0000

> <Gold.Chemscore.DEClash>
0.0068

> <Gold.Chemscore.DEInternal>
1.5761

> <Gold.Chemscore.Rot>
3.0367

> <Gold.Chemscore.Internal.Correction>
   9.000000E+99

> <Gold.Chemscore.Hbonds>
donor molecule, donor type, donor heavy atom, donor atom, acceptor molecule, acceptor atom, score
      L1  H    21    23       P1  7948  0.11
      P1  H  7989  7998       L1    12  0.70

> <Gold.Chemscore.Hbond.Weighted>
-6.0541

> <Gold.Chemscore.Metal.Weighted>
-0.0000

> <Gold.Chemscore.Lipo.Weighted>
-11.6082

> <Gold.Chemscore.Internal_Hbond.Weighted>
0.0000

> <Gold.Chemscore.DEClash.Weighted>
0.0068

> <Gold.Chemscore.DEInternal.Weighted>
1.5761

> <Gold.Chemscore.Rot.Weighted>
7.7739

> <Gold.Chemscore.Internal.Correction.Weighted>
   9.000000E+99

> <Gold.Protein.RotatedTorsions>
[ 6907 6896 6895 6894 ] final  -80.73 input  -60.11 | X-H torsion
[ 7974 7965 7964 7962 ] final   97.25 input  175.53 | X-H torsion
[ 8008 7997 7996 7995 ] final  -53.20 input   59.86 | X-H torsion
[ 10167 10162 10161 10158 ] final  -48.01 input  -65.29 | X-H torsion
[ 10718 10713 10712 10709 ] final -103.57 input   66.30 | X-H torsion
[ 10763 10752 10751 10750 ] final   -3.78 input  -60.55 | X-H torsion
[ 11005 11000 10999 10996 ] final   18.95 input  -57.11 | X-H torsion

> <Gold.Protein.ActiveResidues>
 VAL166  LYS551  ARG553  GLY616  TRP617  ASP618  TYR619  PRO620  LYS621  CYS622 
 ASP623  PHE694  ASN695  SER759  ASP760  ASP761  ALA762  ILE779  LEU786  VAL792 
 PHE793  MET794  SER795  GLU796  ALA797  LYS798  CYS799  TRP800  GLU811  SER814 

> <Gold.Protein.RotatedAtoms>
  150.6924  134.3925  159.5082 H   0  0  0  0  0  0  0  0  0  0  0  0  # atno 6907 bound_to 6896
  152.1711  134.8830  160.0543 H   0  0  0  0  0  0  0  0  0  0  0  0  # atno 6908 bound_to 6896
  151.9856  133.3738  159.4161 H   0  0  0  0  0  0  0  0  0  0  0  0  # atno 6909 bound_to 6896
  145.4281  139.2313  143.3159 H   0  0  0  0  0  0  0  0  0  0  0  0  # atno 7974 bound_to 7965
  154.4127  140.1205  156.5115 H   0  0  0  0  0  0  0  0  0  0  0  0  # atno 8008 bound_to 7997
  155.6794  140.3496  155.4830 H   0  0  0  0  0  0  0  0  0  0  0  0  # atno 8009 bound_to 7997
  155.9565  140.1114  157.0923 H   0  0  0  0  0  0  0  0  0  0  0  0  # atno 8010 bound_to 7997
  140.6750  143.2759  151.4009 H   0  0  0  0  0  0  0  0  0  0  0  0  # atno 10167 bound_to 10162
  156.0270  130.5474  150.7272 H   0  0  0  0  0  0  0  0  0  0  0  0  # atno 10718 bound_to 10713
  153.3759  135.6996  153.6602 H   0  0  0  0  0  0  0  0  0  0  0  0  # atno 10763 bound_to 10752
  153.5233  135.3607  155.2642 H   0  0  0  0  0  0  0  0  0  0  0  0  # atno 10764 bound_to 10752
  154.8687  135.4163  154.3047 H   0  0  0  0  0  0  0  0  0  0  0  0  # atno 10765 bound_to 10752
  140.4191  134.1538  155.7671 H   0  0  0  0  0  0  0  0  0  0  0  0  # atno 11005 bound_to 11000
  146.2622  140.5014  142.8849 LP  0  0  0  0  0  0  0  0  0  0  0  0  # atno 17320 bound_to 7965
  144.8201  140.6535  143.6358 LP  0  0  0  0  0  0  0  0  0  0  0  0  # atno 17321 bound_to 7965
  139.6037  144.1241  152.2226 LP  0  0  0  0  0  0  0  0  0  0  0  0  # atno 17342 bound_to 10162
  140.0633  144.5838  150.7246 LP  0  0  0  0  0  0  0  0  0  0  0  0  # atno 17343 bound_to 10162
  157.4873  131.0908  151.0467 LP  0  0  0  0  0  0  0  0  0  0  0  0  # atno 17370 bound_to 10713
  157.0883  130.5932  149.5434 LP  0  0  0  0  0  0  0  0  0  0  0  0  # atno 17371 bound_to 10713
  141.1791  133.8452  157.1320 LP  0  0  0  0  0  0  0  0  0  0  0  0  # atno 17394 bound_to 11000
  140.0213  134.9944  157.0597 LP  0  0  0  0  0  0  0  0  0  0  0  0  # atno 17395 bound_to 11000

$$$$
