AV-unprocessed.smi:153|AV-procd|sdf|1255|dock2
  -GOLD-   2262018493D 1   1.00000     0.00000
 Structure written by MMmdl.
 60 63  0  0  0  0  0  0  0  0  2 V2000
  150.8763  141.1225  156.2955 C   0  0  0  0  0  0  0  0  0  0  0  0
  150.8800  139.6275  155.9362 C   0  0  1  0  0  0  0  0  0  0  0  0
  150.7932  139.5157  154.5172 O   0  0  0  0  0  0  0  0  0  0  0  0
  151.5445  138.3926  154.0923 C   0  0  0  0  0  0  0  0  0  0  0  0
  152.7545  138.4441  155.0097 C   0  0  0  0  0  0  0  0  0  0  0  0
  152.1371  138.8163  156.3576 C   0  0  1  0  0  0  0  0  0  0  0  0
  153.0759  139.5976  157.0767 O   0  0  0  0  0  0  0  0  0  0  0  0
  151.7441  137.5936  157.2307 C   0  0  0  0  0  0  0  0  0  0  0  0
  150.8509  136.6485  156.5758 N   0  0  0  0  0  0  0  0  0  0  0  0
  149.5600  136.8893  156.1678 C   0  0  0  0  0  0  0  0  0  0  0  0
  148.9648  135.8829  155.5909 N   0  0  0  0  0  0  0  0  0  0  0  0
  149.9027  134.8554  155.6213 C   0  0  0  0  0  0  0  0  0  0  0  0
  149.9280  133.5011  155.1631 C   0  0  0  0  0  0  0  0  0  0  0  0
  148.9044  132.8652  154.5250 N   0  0  0  0  0  0  0  0  0  0  0  0
  149.1209  131.5481  153.9380 C   0  0  0  0  0  0  0  0  0  0  0  0
  147.5258  133.2765  154.8016 C   0  0  0  0  0  0  0  0  0  0  0  0
  146.7273  133.5746  153.5158 C   0  0  1  0  0  0  0  0  0  0  0  0
  147.5615  134.2930  152.6278 O   0  0  0  0  0  0  0  0  0  0  0  0
  146.3014  132.2757  152.8023 C   0  0  0  0  0  0  0  0  0  0  0  0
  145.5007  132.5284  151.5766 N   0  3  0  0  0  0  0  0  0  0  0  0
  145.9267  131.6814  150.4370 C   0  0  0  0  0  0  0  0  0  0  0  0
  145.1163  132.0275  149.1765 C   0  0  0  0  0  0  0  0  0  0  0  0
  143.7285  131.8707  149.4442 O   0  0  0  0  0  0  0  0  0  0  0  0
  143.2852  132.7397  150.4787 C   0  0  0  0  0  0  0  0  0  0  0  0
  144.0350  132.4179  151.7828 C   0  0  0  0  0  0  0  0  0  0  0  0
  151.0744  132.8026  155.3801 N   0  0  0  0  0  0  0  0  0  0  0  0
  152.1163  133.3667  155.9953 C   0  0  0  0  0  0  0  0  0  0  0  0
  152.2324  134.6082  156.4642 N   0  0  0  0  0  0  0  0  0  0  0  0
  151.0940  135.3255  156.2493 C   0  0  0  0  0  0  0  0  0  0  0  0
  150.9202  141.2701  157.3749 H   0  0  0  0  0  0  0  0  0  0  0  0
  149.9677  141.6047  155.9346 H   0  0  0  0  0  0  0  0  0  0  0  0
  151.7246  141.6408  155.8470 H   0  0  0  0  0  0  0  0  0  0  0  0
  149.9828  139.1691  156.3553 H   0  0  0  0  0  0  0  0  0  0  0  0
  150.9695  137.4784  154.2469 H   0  0  0  0  0  0  0  0  0  0  0  0
  151.8109  138.4624  153.0375 H   0  0  0  0  0  0  0  0  0  0  0  0
  153.3301  137.5200  155.0061 H   0  0  0  0  0  0  0  0  0  0  0  0
  153.4177  139.2379  154.6612 H   0  0  0  0  0  0  0  0  0  0  0  0
  153.2739  139.1577  157.8892 H   0  0  0  0  0  0  0  0  0  0  0  0
  152.6389  137.0548  157.5458 H   0  0  0  0  0  0  0  0  0  0  0  0
  151.2571  137.9293  158.1472 H   0  0  0  0  0  0  0  0  0  0  0  0
  149.0752  137.8461  156.2987 H   0  0  0  0  0  0  0  0  0  0  0  0
  150.0215  131.5390  153.3234 H   0  0  0  0  0  0  0  0  0  0  0  0
  148.2865  131.2683  153.2947 H   0  0  0  0  0  0  0  0  0  0  0  0
  149.2140  130.7883  154.7144 H   0  0  0  0  0  0  0  0  0  0  0  0
  147.0003  132.5651  155.4398 H   0  0  0  0  0  0  0  0  0  0  0  0
  147.5874  134.1886  155.3959 H   0  0  0  0  0  0  0  0  0  0  0  0
  145.8527  134.1772  153.7586 H   0  0  0  0  0  0  0  0  0  0  0  0
  147.6169  135.1886  152.9264 H   0  0  0  0  0  0  0  0  0  0  0  0
  147.2000  131.7138  152.5410 H   0  0  0  0  0  0  0  0  0  0  0  0
  145.7293  131.6370  153.4774 H   0  0  0  0  0  0  0  0  0  0  0  0
  146.9890  131.8304  150.2398 H   0  0  0  0  0  0  0  0  0  0  0  0
  145.7911  130.6291  150.6921 H   0  0  0  0  0  0  0  0  0  0  0  0
  145.3236  133.0466  148.8462 H   0  0  0  0  0  0  0  0  0  0  0  0
  145.3950  131.3645  148.3572 H   0  0  0  0  0  0  0  0  0  0  0  0
  143.4388  133.7802  150.1877 H   0  0  0  0  0  0  0  0  0  0  0  0
  142.2127  132.6039  150.6189 H   0  0  0  0  0  0  0  0  0  0  0  0
  143.7858  131.4087  152.1151 H   0  0  0  0  0  0  0  0  0  0  0  0
  143.7030  133.1019  152.5627 H   0  0  0  0  0  0  0  0  0  0  0  0
  152.9819  132.7341  156.1265 H   0  0  0  0  0  0  0  0  0  0  0  0
  145.6922  133.4832  151.3070 H   0  0  0  0  0  0  0  0  0  0  0  0
  1  2  1  0  0  0  0
  1 30  1  0  0  0  0
  1 31  1  0  0  0  0
  1 32  1  0  0  0  0
  2  6  1  0  0  0  0
  2  3  1  0  0  0  0
  2 33  1  0  0  0  0
  3  4  1  0  0  0  0
  4  5  1  0  0  0  0
  4 34  1  0  0  0  0
  4 35  1  0  0  0  0
  5  6  1  0  0  0  0
  5 36  1  0  0  0  0
  5 37  1  0  0  0  0
  6  7  1  0  0  0  0
  6  8  1  0  0  0  0
  7 38  1  0  0  0  0
  8  9  1  0  0  0  0
  8 39  1  0  0  0  0
  8 40  1  0  0  0  0
  9 29  1  0  0  0  0
  9 10  1  0  0  0  0
 10 11  2  0  0  0  0
 10 41  1  0  0  0  0
 11 12  1  0  0  0  0
 12 29  2  0  0  0  0
 12 13  1  0  0  0  0
 13 14  1  0  0  0  0
 13 26  2  0  0  0  0
 14 15  1  0  0  0  0
 14 16  1  0  0  0  0
 15 42  1  0  0  0  0
 15 43  1  0  0  0  0
 15 44  1  0  0  0  0
 16 17  1  0  0  0  0
 16 45  1  0  0  0  0
 16 46  1  0  0  0  0
 17 18  1  0  0  0  0
 17 19  1  0  0  0  0
 17 47  1  0  0  0  0
 18 48  1  0  0  0  0
 19 20  1  0  0  0  0
 19 49  1  0  0  0  0
 19 50  1  0  0  0  0
 20 25  1  0  0  0  0
 20 21  1  0  0  0  0
 20 60  1  0  0  0  0
 21 22  1  0  0  0  0
 21 51  1  0  0  0  0
 21 52  1  0  0  0  0
 22 23  1  0  0  0  0
 22 53  1  0  0  0  0
 22 54  1  0  0  0  0
 23 24  1  0  0  0  0
 24 25  1  0  0  0  0
 24 55  1  0  0  0  0
 24 56  1  0  0  0  0
 25 57  1  0  0  0  0
 25 58  1  0  0  0  0
 26 27  1  0  0  0  0
 27 28  2  0  0  0  0
 27 59  1  0  0  0  0
 28 29  1  0  0  0  0
M  CHG  1  20   1
M  END
> <s_m_source_file>
AV-unprocessed.smi

> <i_m_source_file_index>
153

> <i_lp_mmshare_version>
43012

> <i_f3d_flags>
0

> <s_epik_input>
W0NIMl0xW0NIMl1PW0NAQEhdKFtDSDNdKVtDQEBdMShbT0hdKVtDSDJdbihbY0hdbjIpYyhjMjMpbltjSF1uYzNOKFtDSDNdKVtDSDJdW0NASF0oW09IXSlbQ0gyXU40W0NIMl1bQ0gyXU9bQ0gyXVtDSDJdNA==

> <s_epik_cmdline>
J2VwaWtfcHl0aG9uJywgJy1waCcsICc3LjAnLCAnLXRuJywgJzgnLCAnLW1hJywgJzIwMCcsICctbWV0YWxfYmluZGluZycsICctaW1hZScsICc8aW5maWxlLm1hZT4nLCAnLW9tYWUnLCAnPG91dGZpbGUubWFlPic=

> <r_lp_tautomer_probability>
1

> <r_epik_Ionization_Penalty>
0.403509

> <r_epik_Ionization_Penalty_Charging>
0.40072

> <r_epik_Ionization_Penalty_Neutral>
0.00278876

> <r_epik_State_Penalty>
0.400058

> <r_epik_Charging_Adjusted_Penalty>
0.800778

> <i_epik_Tot_Q>
1

> <i_epik_Tot_abs_Q>
1

> <r_epik_Metal_State_Penalty>
0.400321

> <b_epik_Metal_Only>
0

> <s_lp_Force_Field>
OPLS_2005

> <r_lp_Energy>
46.896

> <b_lp_Chiralities_Consistent>
1

> <s_lp_Variant>
AV-unprocessed.smi:153-6

> <Gold.Version>
5.8.1

> <Gold.Id.Protein>
6NUR|6NUR_protein|mol2

> <Gold.PLP.Fitness>
48.9284

> <Gold.PLP.PLP>
-39.4770

> <Gold.PLP.part.hbond>
-4.6195

> <Gold.PLP.part.metal>
0.0000

> <Gold.PLP.part.buried>
-2.2743

> <Gold.PLP.part.nonpolar>
-30.9579

> <Gold.PLP.part.repulsive>
0.4522

> <Gold.PLP.ligand.clash>
0.0000

> <Gold.PLP.ligand.torsion>
1.0275

> <Gold.PLP.Chemscore.Hbond>
3.6093

> <Gold.PLP.Chemscore.CHOScore>
0.0000

> <Gold.PLP.Chemscore.Metal>
0.0000

> <Gold.Chemscore.Hbonds>
donor molecule, donor type, donor heavy atom, donor atom, acceptor molecule, acceptor atom, score
      L1  H    18    48       P1  7948  0.19
      P1  H  7989  7998       L1     3  0.95
      P1  H  7997  8010       L1     7  0.84
      P1  H 10752 10763       L1    28  0.82
      P1  H 10785 10796       L1    23  0.88

> <Gold.PLP.Chemscore.Internal.Correction>
0.6788

> <Gold.Rescore>
     Score         DG    S(hbond)    S(metal)    S(lipo)     H(rot)  DE(clash)    DE(int)     intcor
     14.63     -16.92       2.75        0.00      98.39       3.62       0.55       1.74       ----

> <Gold.Chemscore.Fitness>
14.6342

> <Gold.Chemscore.DG>
-16.9180

> <Gold.Chemscore.ZeroCoef>
-5.4800

> <Gold.Chemscore.Hbond>
2.7512

> <Gold.Chemscore.Metal>
0.0000

> <Gold.Chemscore.Lipo>
98.3882

> <Gold.Chemscore.Internal_Hbond>
0.0000

> <Gold.Chemscore.DEClash>
0.5451

> <Gold.Chemscore.DEInternal>
1.7386

> <Gold.Chemscore.Rot>
3.6182

> <Gold.Chemscore.Internal.Correction>
   9.000000E+99

> <Gold.Chemscore.Hbonds>
donor molecule, donor type, donor heavy atom, donor atom, acceptor molecule, acceptor atom, score
      L1  H    18    48       P1  7948  0.20
      P1  H  7989  7998       L1     3  0.20
      P1  H  7997  8010       L1     7  0.45
      P1  H 10752 10763       L1    28  0.10
      P1  H 10785 10796       L1    23  0.52

> <Gold.Chemscore.Hbond.Weighted>
-9.1890

> <Gold.Chemscore.Metal.Weighted>
-0.0000

> <Gold.Chemscore.Lipo.Weighted>
-11.5114

> <Gold.Chemscore.Internal_Hbond.Weighted>
0.0000

> <Gold.Chemscore.DEClash.Weighted>
0.5451

> <Gold.Chemscore.DEInternal.Weighted>
1.7386

> <Gold.Chemscore.Rot.Weighted>
9.2625

> <Gold.Chemscore.Internal.Correction.Weighted>
   9.000000E+99

> <Gold.Protein.RotatedTorsions>
[ 6907 6896 6895 6894 ] final   78.01 input  -60.11 | X-H torsion
[ 7974 7965 7964 7962 ] final  176.04 input  175.53 | X-H torsion
[ 8008 7997 7996 7995 ] final   65.56 input   59.86 | X-H torsion
[ 10167 10162 10161 10158 ] final  120.67 input  -65.29 | X-H torsion
[ 10718 10713 10712 10709 ] final   53.78 input   66.30 | X-H torsion
[ 10763 10752 10751 10750 ] final  109.18 input  -60.55 | X-H torsion
[ 11005 11000 10999 10996 ] final    0.09 input  -57.11 | X-H torsion

> <Gold.Protein.ActiveResidues>
 VAL166  LYS551  ARG553  GLY616  TRP617  ASP618  TYR619  PRO620  LYS621  CYS622 
 ASP623  PHE694  ASN695  SER759  ASP760  ASP761  ALA762  ILE779  LEU786  VAL792 
 PHE793  MET794  SER795  GLU796  ALA797  LYS798  CYS799  TRP800  GLU811  SER814 

> <Gold.Protein.RotatedAtoms>
  152.5142  134.3730  159.9324 H   0  0  0  0  0  0  0  0  0  0  0  0  # atno 6907 bound_to 6896
  151.3685  133.3857  159.2705 H   0  0  0  0  0  0  0  0  0  0  0  0  # atno 6908 bound_to 6896
  150.9596  134.9006  159.7781 H   0  0  0  0  0  0  0  0  0  0  0  0  # atno 6909 bound_to 6896
  144.7191  140.0037  143.6440 H   0  0  0  0  0  0  0  0  0  0  0  0  # atno 7974 bound_to 7965
  155.6636  140.3497  155.4792 H   0  0  0  0  0  0  0  0  0  0  0  0  # atno 8008 bound_to 7997
  155.9747  140.1162  157.0803 H   0  0  0  0  0  0  0  0  0  0  0  0  # atno 8009 bound_to 7997
  154.4175  140.1150  156.5341 H   0  0  0  0  0  0  0  0  0  0  0  0  # atno 8010 bound_to 7997
  139.5967  144.7044  151.3159 H   0  0  0  0  0  0  0  0  0  0  0  0  # atno 10167 bound_to 10162
  157.5198  130.8557  149.8543 H   0  0  0  0  0  0  0  0  0  0  0  0  # atno 10718 bound_to 10713
  153.4312  135.3788  155.2171 H   0  0  0  0  0  0  0  0  0  0  0  0  # atno 10763 bound_to 10752
  154.8750  135.3840  154.4266 H   0  0  0  0  0  0  0  0  0  0  0  0  # atno 10764 bound_to 10752
  153.4799  135.7088  153.6007 H   0  0  0  0  0  0  0  0  0  0  0  0  # atno 10765 bound_to 10752
  140.6304  133.9580  155.8271 H   0  0  0  0  0  0  0  0  0  0  0  0  # atno 11005 bound_to 11000
  146.0315  139.3339  143.0752 LP  0  0  0  0  0  0  0  0  0  0  0  0  # atno 17320 bound_to 7965
  145.8447  140.9561  143.0781 LP  0  0  0  0  0  0  0  0  0  0  0  0  # atno 17321 bound_to 7965
  140.7217  143.7116  150.7765 LP  0  0  0  0  0  0  0  0  0  0  0  0  # atno 17342 bound_to 10162
  140.0684  143.5086  152.2592 LP  0  0  0  0  0  0  0  0  0  0  0  0  # atno 17343 bound_to 10162
  156.0345  130.3755  150.1597 LP  0  0  0  0  0  0  0  0  0  0  0  0  # atno 17370 bound_to 10713
  156.9785  130.9857  151.3443 LP  0  0  0  0  0  0  0  0  0  0  0  0  # atno 17371 bound_to 10713
  141.0679  134.0249  157.3567 LP  0  0  0  0  0  0  0  0  0  0  0  0  # atno 17394 bound_to 11000
  139.9118  135.0191  156.7723 LP  0  0  0  0  0  0  0  0  0  0  0  0  # atno 17395 bound_to 11000

$$$$
