AV-unprocessed.smi:2120|AV-procd|sdf|8638|dock5
  -GOLD-   2272011383D 1   1.00000     0.00000
 Structure written by MMmdl.
 45 48  0  0  0  0  0  0  0  0  1 V2000
  153.1961  140.4496  158.4610 O   0  0  0  0  0  0  0  0  0  0  0  0
  153.1814  141.1410  159.4805 C   0  0  0  0  0  0  0  0  0  0  0  0
  153.7959  140.7574  160.6123 N   0  0  0  0  0  0  0  0  0  0  0  0
  154.5337  139.5121  160.7881 C   0  0  0  0  0  0  0  0  0  0  0  0
  153.9169  138.6349  161.8906 C   0  0  0  0  0  0  0  0  0  0  0  0
  153.9920  137.1580  161.5566 C   0  0  0  0  0  0  0  0  0  0  0  0
  154.4198  136.2229  162.5217 C   0  0  0  0  0  0  0  0  0  0  0  0
  154.4770  134.8611  162.1686 C   0  0  0  0  0  0  0  0  0  0  0  0
  154.1002  134.4910  160.8621 C   0  0  0  0  0  0  0  0  0  0  0  0
  153.6880  135.3773  159.9300 N   0  0  0  0  0  0  0  0  0  0  0  0
  153.6376  136.6817  160.2763 C   0  0  0  0  0  0  0  0  0  0  0  0
  152.4412  142.4995  159.4713 C   0  0  0  0  0  0  0  0  0  0  0  0
  151.1130  142.3507  158.6801 C   0  0  0  0  0  0  0  0  0  0  0  0
  150.3249  143.6785  158.6989 C   0  0  1  0  0  0  0  0  0  0  0  0
  149.9936  144.0617  160.1564 C   0  0  0  0  0  0  0  0  0  0  0  0
  151.3074  144.2348  160.9471 C   0  0  2  0  0  0  0  0  0  0  0  0
  152.1556  145.3516  160.3047 C   0  0  0  0  0  0  0  0  0  0  0  0
  152.4810  144.9671  158.8465 C   0  0  2  0  0  0  0  0  0  0  0  0
  151.1709  144.7940  158.0500 C   0  0  0  0  0  0  0  0  0  0  0  0
  153.2766  143.6446  158.8243 C   0  0  0  0  0  0  0  0  0  0  0  0
  152.0978  142.9088  160.9310 C   0  0  0  0  0  0  0  0  0  0  0  0
  153.7432  141.3734  161.4106 H   0  0  0  0  0  0  0  0  0  0  0  0
  154.5223  138.9762  159.8387 H   0  0  0  0  0  0  0  0  0  0  0  0
  155.5798  139.7311  161.0088 H   0  0  0  0  0  0  0  0  0  0  0  0
  154.4306  138.7974  162.8390 H   0  0  0  0  0  0  0  0  0  0  0  0
  152.8756  138.9172  162.0526 H   0  0  0  0  0  0  0  0  0  0  0  0
  154.7017  136.5433  163.5141 H   0  0  0  0  0  0  0  0  0  0  0  0
  154.8016  134.1176  162.8815 H   0  0  0  0  0  0  0  0  0  0  0  0
  154.1314  133.4552  160.5580 H   0  0  0  0  0  0  0  0  0  0  0  0
  153.3049  137.3635  159.5075 H   0  0  0  0  0  0  0  0  0  0  0  0
  151.3168  142.0587  157.6486 H   0  0  0  0  0  0  0  0  0  0  0  0
  150.4968  141.5563  159.1048 H   0  0  0  0  0  0  0  0  0  0  0  0
  149.3977  143.5562  158.1383 H   0  0  0  0  0  0  0  0  0  0  0  0
  149.4120  144.9841  160.1823 H   0  0  0  0  0  0  0  0  0  0  0  0
  149.3731  143.2926  160.6180 H   0  0  0  0  0  0  0  0  0  0  0  0
  151.0757  144.5044  161.9778 H   0  0  0  0  0  0  0  0  0  0  0  0
  151.6170  146.2996  160.3344 H   0  0  0  0  0  0  0  0  0  0  0  0
  153.0754  145.5011  160.8713 H   0  0  0  0  0  0  0  0  0  0  0  0
  153.0793  145.7567  158.3906 H   0  0  0  0  0  0  0  0  0  0  0  0
  151.3899  144.5471  157.0104 H   0  0  0  0  0  0  0  0  0  0  0  0
  150.6123  145.7308  158.0338 H   0  0  0  0  0  0  0  0  0  0  0  0
  154.2198  143.7797  159.3564 H   0  0  0  0  0  0  0  0  0  0  0  0
  153.5344  143.4001  157.7923 H   0  0  0  0  0  0  0  0  0  0  0  0
  151.5090  142.1335  161.4242 H   0  0  0  0  0  0  0  0  0  0  0  0
  153.0109  143.0165  161.5187 H   0  0  0  0  0  0  0  0  0  0  0  0
  1  2  2  0  0  0  0
  2  3  1  0  0  0  0
  2 12  1  0  0  0  0
  3  4  1  0  0  0  0
  3 22  1  0  0  0  0
  4  5  1  0  0  0  0
  4 23  1  0  0  0  0
  4 24  1  0  0  0  0
  5  6  1  0  0  0  0
  5 25  1  0  0  0  0
  5 26  1  0  0  0  0
  6 11  1  0  0  0  0
  6  7  2  0  0  0  0
  7  8  1  0  0  0  0
  7 27  1  0  0  0  0
  8  9  2  0  0  0  0
  8 28  1  0  0  0  0
  9 10  1  0  0  0  0
  9 29  1  0  0  0  0
 10 11  2  0  0  0  0
 11 30  1  0  0  0  0
 12 20  1  0  0  0  0
 12 21  1  0  0  0  0
 12 13  1  0  0  0  0
 13 14  1  0  0  0  0
 13 31  1  0  0  0  0
 13 32  1  0  0  0  0
 14 19  1  0  0  0  0
 14 15  1  0  0  0  0
 14 33  1  0  0  0  0
 15 16  1  0  0  0  0
 15 34  1  0  0  0  0
 15 35  1  0  0  0  0
 16 17  1  0  0  0  0
 16 21  1  0  0  0  0
 16 36  1  0  0  0  0
 17 18  1  0  0  0  0
 17 37  1  0  0  0  0
 17 38  1  0  0  0  0
 18 19  1  0  0  0  0
 18 20  1  0  0  0  0
 18 39  1  0  0  0  0
 19 40  1  0  0  0  0
 19 41  1  0  0  0  0
 20 42  1  0  0  0  0
 20 43  1  0  0  0  0
 21 44  1  0  0  0  0
 21 45  1  0  0  0  0
M  END
> <s_m_source_file>
AV-unprocessed.smi

> <i_m_source_file_index>
2120

> <i_lp_mmshare_version>
43012

> <i_f3d_flags>
0

> <s_epik_input>
W0NIMl0xW0NASF0oW0NIMl0yKVtDSDJdW0NASF0oW0NIMl0zKVtDSDJdW0NAQEhdMVtDSDJdQzIzQyg9TylbTkhdW0NIMl1bQ0gyXWM0W2NIXVtjSF1bY0hdbltjSF00

> <s_epik_cmdline>
J2VwaWtfcHl0aG9uJywgJy1waCcsICc3LjAnLCAnLXRuJywgJzgnLCAnLW1hJywgJzIwMCcsICctbWV0YWxfYmluZGluZycsICctaW1hZScsICc8aW5maWxlLm1hZT4nLCAnLW9tYWUnLCAnPG91dGZpbGUubWFlPic=

> <r_epik_Ionization_Penalty>
0.0137322

> <r_epik_Ionization_Penalty_Charging>
0

> <r_epik_Ionization_Penalty_Neutral>
0.0137322

> <r_epik_State_Penalty>
0.0107033

> <r_epik_Charging_Adjusted_Penalty>
0.0107033

> <i_epik_Tot_Q>
0

> <i_epik_Tot_abs_Q>
0

> <r_epik_Metal_State_Penalty>
0.0104605

> <b_epik_Metal_Only>
0

> <s_lp_Force_Field>
OPLS_2005

> <r_lp_Energy>
34.8386

> <b_lp_Chiralities_Consistent>
1

> <s_lp_Variant>
AV-unprocessed.smi:2120-1

> <Gold.Version>
5.8.1

> <Gold.Id.Protein>
6NUR|6NUR_protein|mol2

> <Gold.PLP.Fitness>
45.3446

> <Gold.PLP.PLP>
-42.6115

> <Gold.PLP.part.hbond>
-2.0000

> <Gold.PLP.part.metal>
0.0000

> <Gold.PLP.part.buried>
-2.7314

> <Gold.PLP.part.nonpolar>
-37.0283

> <Gold.PLP.part.repulsive>
0.0238

> <Gold.PLP.ligand.clash>
0.0000

> <Gold.PLP.ligand.torsion>
1.3001

> <Gold.PLP.Chemscore.Hbond>
1.7753

> <Gold.PLP.Chemscore.CHOScore>
0.0000

> <Gold.PLP.Chemscore.Metal>
0.0000

> <Gold.Chemscore.Hbonds>
donor molecule, donor type, donor heavy atom, donor atom, acceptor molecule, acceptor atom, score
      P1  H  6896  6907       L1    10  0.22
      P1  H  7997  8010       L1     1  0.71

> <Gold.PLP.Chemscore.Internal.Correction>
0.0076

> <Gold.Rescore>
     Score         DG    S(hbond)    S(metal)    S(lipo)     H(rot)  DE(clash)    DE(int)     intcor
     23.11     -25.28       1.50        0.00     155.48       1.32       1.00       1.16       ----

> <Gold.Chemscore.Fitness>
23.1113

> <Gold.Chemscore.DG>
-25.2776

> <Gold.Chemscore.ZeroCoef>
-5.4800

> <Gold.Chemscore.Hbond>
1.4966

> <Gold.Chemscore.Metal>
0.0000

> <Gold.Chemscore.Lipo>
155.4790

> <Gold.Chemscore.Internal_Hbond>
0.0000

> <Gold.Chemscore.DEClash>
1.0024

> <Gold.Chemscore.DEInternal>
1.1638

> <Gold.Chemscore.Rot>
1.3250

> <Gold.Chemscore.Internal.Correction>
   9.000000E+99

> <Gold.Chemscore.Hbonds>
donor molecule, donor type, donor heavy atom, donor atom, acceptor molecule, acceptor atom, score
      P1  H  7997  8010       L1     1  0.67

> <Gold.Chemscore.Hbond.Weighted>
-4.9985

> <Gold.Chemscore.Metal.Weighted>
-0.0000

> <Gold.Chemscore.Lipo.Weighted>
-18.1910

> <Gold.Chemscore.Internal_Hbond.Weighted>
0.0000

> <Gold.Chemscore.DEClash.Weighted>
1.0024

> <Gold.Chemscore.DEInternal.Weighted>
1.1638

> <Gold.Chemscore.Rot.Weighted>
3.3920

> <Gold.Chemscore.Internal.Correction.Weighted>
   9.000000E+99

> <Gold.Protein.RotatedTorsions>
[ 6907 6896 6895 6894 ] final   55.66 input  -60.11 | X-H torsion
[ 7974 7965 7964 7962 ] final  -21.50 input  175.53 | X-H torsion
[ 8008 7997 7996 7995 ] final   21.62 input   59.86 | X-H torsion
[ 10167 10162 10161 10158 ] final -119.85 input  -65.29 | X-H torsion
[ 10718 10713 10712 10709 ] final -102.19 input   66.30 | X-H torsion
[ 10763 10752 10751 10750 ] final -166.88 input  -60.55 | X-H torsion
[ 11005 11000 10999 10996 ] final  -73.68 input  -57.11 | X-H torsion

> <Gold.Protein.ActiveResidues>
 VAL166  LYS551  ARG553  GLY616  TRP617  ASP618  TYR619  PRO620  LYS621  CYS622 
 ASP623  PHE694  ASN695  SER759  ASP760  ASP761  ALA762  ILE779  LEU786  VAL792 
 PHE793  MET794  SER795  GLU796  ALA797  LYS798  CYS799  TRP800  GLU811  SER814 

> <Gold.Protein.RotatedAtoms>
  152.3560  134.6939  160.0221 H   0  0  0  0  0  0  0  0  0  0  0  0  # atno 6907 bound_to 6896
  151.7278  133.3311  159.3340 H   0  0  0  0  0  0  0  0  0  0  0  0  # atno 6908 bound_to 6896
  150.7572  134.6324  159.6238 H   0  0  0  0  0  0  0  0  0  0  0  0  # atno 6909 bound_to 6896
  146.1729  140.4350  142.8525 H   0  0  0  0  0  0  0  0  0  0  0  0  # atno 7974 bound_to 7965
  154.9534  140.3068  155.5064 H   0  0  0  0  0  0  0  0  0  0  0  0  # atno 8008 bound_to 7997
  156.2985  140.2314  156.4552 H   0  0  0  0  0  0  0  0  0  0  0  0  # atno 8009 bound_to 7997
  154.8033  140.0433  157.1277 H   0  0  0  0  0  0  0  0  0  0  0  0  # atno 8010 bound_to 7997
  140.0421  143.5143  152.2125 H   0  0  0  0  0  0  0  0  0  0  0  0  # atno 10167 bound_to 10162
  156.0220  130.5409  150.7073 H   0  0  0  0  0  0  0  0  0  0  0  0  # atno 10718 bound_to 10713
  154.6789  135.2951  154.9641 H   0  0  0  0  0  0  0  0  0  0  0  0  # atno 10763 bound_to 10752
  154.0642  135.6627  153.4820 H   0  0  0  0  0  0  0  0  0  0  0  0  # atno 10764 bound_to 10752
  153.0534  135.5159  154.7822 H   0  0  0  0  0  0  0  0  0  0  0  0  # atno 10765 bound_to 10752
  141.1626  133.6886  156.7249 H   0  0  0  0  0  0  0  0  0  0  0  0  # atno 11005 bound_to 11000
  144.8191  140.6519  143.6365 LP  0  0  0  0  0  0  0  0  0  0  0  0  # atno 17320 bound_to 7965
  145.4291  139.1552  143.4032 LP  0  0  0  0  0  0  0  0  0  0  0  0  # atno 17321 bound_to 7965
  139.6007  144.7581  151.3179 LP  0  0  0  0  0  0  0  0  0  0  0  0  # atno 17342 bound_to 10162
  140.7255  143.7015  150.7841 LP  0  0  0  0  0  0  0  0  0  0  0  0  # atno 17343 bound_to 10162
  157.4719  131.0894  151.0632 LP  0  0  0  0  0  0  0  0  0  0  0  0  # atno 17370 bound_to 10713
  157.1090  130.6014  149.5477 LP  0  0  0  0  0  0  0  0  0  0  0  0  # atno 17371 bound_to 10713
  140.2788  134.8333  157.3915 LP  0  0  0  0  0  0  0  0  0  0  0  0  # atno 17394 bound_to 11000
  140.1452  134.4920  155.8001 LP  0  0  0  0  0  0  0  0  0  0  0  0  # atno 17395 bound_to 11000

$$$$
