AV-unprocessed.smi:3085|AV-procd|sdf|11751|dock1
  -GOLD-   2272017143D 1   1.00000     0.00000
 Structure written by MMmdl.
 28 29  0  0  0  0  0  0  0  0  2 V2000
  152.6563  142.5695  159.6224 C   0  0  0  0  0  0  0  0  0  0  0  0
  151.8090  143.1181  158.4695 C   0  0  0  0  0  0  0  0  0  0  0  0
  151.3345  142.0449  157.5455 C   0  0  0  0  0  0  0  0  0  0  0  0
  150.6046  142.2417  156.4526 N   0  0  0  0  0  0  0  0  0  0  0  0
  150.4401  140.9505  156.0331 C   0  0  0  0  0  0  0  0  0  0  0  0
  149.7074  140.6082  154.7728 C   0  0  1  0  0  0  0  0  0  0  0  0
  149.7358  139.0969  154.4746 C   0  0  0  0  0  0  0  0  0  0  0  0
  148.9207  138.8060  153.2792 N   0  3  0  0  0  0  0  0  0  0  0  0
  147.5463  139.3260  153.4229 C   0  0  0  0  0  0  0  0  0  0  0  0
  147.5791  140.8268  153.7622 C   0  0  0  0  0  0  0  0  0  0  0  0
  148.3570  141.0384  154.9359 O   0  0  0  0  0  0  0  0  0  0  0  0
  151.0348  140.0169  156.7770 N   0  0  0  0  0  0  0  0  0  0  0  0
  151.5945  140.7536  157.7594 N   0  0  0  0  0  0  0  0  0  0  0  0
  152.1275  140.3508  158.5173 H   0  0  0  0  0  0  0  0  0  0  0  0
  152.9862  143.3748  160.2790 H   0  0  0  0  0  0  0  0  0  0  0  0
  153.5442  142.0578  159.2496 H   0  0  0  0  0  0  0  0  0  0  0  0
  152.0884  141.8598  160.2244 H   0  0  0  0  0  0  0  0  0  0  0  0
  150.9417  143.6472  158.8662 H   0  0  0  0  0  0  0  0  0  0  0  0
  152.3849  143.8490  157.9006 H   0  0  0  0  0  0  0  0  0  0  0  0
  150.1615  141.1608  153.9480 H   0  0  0  0  0  0  0  0  0  0  0  0
  150.7576  138.7549  154.3084 H   0  0  0  0  0  0  0  0  0  0  0  0
  149.3399  138.5324  155.3204 H   0  0  0  0  0  0  0  0  0  0  0  0
  149.3515  139.2472  152.4792 H   0  0  0  0  0  0  0  0  0  0  0  0
  146.9951  139.1530  152.4983 H   0  0  0  0  0  0  0  0  0  0  0  0
  147.0347  138.7725  154.2115 H   0  0  0  0  0  0  0  0  0  0  0  0
  147.9889  141.4048  152.9323 H   0  0  0  0  0  0  0  0  0  0  0  0
  146.5680  141.1950  153.9367 H   0  0  0  0  0  0  0  0  0  0  0  0
  148.8892  137.8076  153.1281 H   0  0  0  0  0  0  0  0  0  0  0  0
  1  2  1  0  0  0  0
  1 15  1  0  0  0  0
  1 16  1  0  0  0  0
  1 17  1  0  0  0  0
  2  3  1  0  0  0  0
  2 18  1  0  0  0  0
  2 19  1  0  0  0  0
  3 13  1  0  0  0  0
  3  4  2  0  0  0  0
  4  5  1  0  0  0  0
  5  6  1  0  0  0  0
  5 12  2  0  0  0  0
  6 11  1  0  0  0  0
  6  7  1  0  0  0  0
  6 20  1  0  0  0  0
  7  8  1  0  0  0  0
  7 21  1  0  0  0  0
  7 22  1  0  0  0  0
  8  9  1  0  0  0  0
  8 23  1  0  0  0  0
  8 28  1  0  0  0  0
  9 10  1  0  0  0  0
  9 24  1  0  0  0  0
  9 25  1  0  0  0  0
 10 11  1  0  0  0  0
 10 26  1  0  0  0  0
 10 27  1  0  0  0  0
 12 13  1  0  0  0  0
 13 14  1  0  0  0  0
M  CHG  1   8   1
M  END
> <s_m_source_file>
AV-unprocessed.smi

> <i_m_source_file_index>
3085

> <i_lp_mmshare_version>
43012

> <i_f3d_flags>
0

> <s_epik_input>
W0NIM11bQ0gyXWMxbmMobltuSF0xKVtDQEBIXTJbQ0gyXVtOSF1bQ0gyXVtDSDJdTzI=

> <s_epik_cmdline>
J2VwaWtfcHl0aG9uJywgJy1waCcsICc3LjAnLCAnLXRuJywgJzgnLCAnLW1hJywgJzIwMCcsICctbWV0YWxfYmluZGluZycsICctaW1hZScsICc8aW5maWxlLm1hZT4nLCAnLW9tYWUnLCAnPG91dGZpbGUubWFlPic=

> <r_lp_tautomer_probability>
0.948284

> <r_epik_Ionization_Penalty>
0.107151

> <r_epik_Ionization_Penalty_Charging>
0.100865

> <r_epik_Ionization_Penalty_Neutral>
0.00628602

> <r_epik_State_Penalty>
0.429695

> <r_epik_Charging_Adjusted_Penalty>
0.530559

> <i_epik_Tot_Q>
1

> <i_epik_Tot_abs_Q>
1

> <r_epik_Metal_State_Penalty>
0.651827

> <b_epik_Metal_Only>
0

> <s_lp_Force_Field>
OPLS_2005

> <r_lp_Energy>
10.0575

> <b_lp_Chiralities_Consistent>
1

> <s_lp_Variant>
AV-unprocessed.smi:3085-2

> <Gold.Version>
5.8.1

> <Gold.Id.Protein>
6NUR|6NUR_protein|mol2

> <Gold.PLP.Fitness>
32.9672

> <Gold.PLP.PLP>
-24.1277

> <Gold.PLP.part.hbond>
-1.9685

> <Gold.PLP.part.metal>
0.0000

> <Gold.PLP.part.buried>
-3.0665

> <Gold.PLP.part.nonpolar>
-19.7781

> <Gold.PLP.part.repulsive>
0.3864

> <Gold.PLP.ligand.clash>
0.0000

> <Gold.PLP.ligand.torsion>
0.0159

> <Gold.PLP.Chemscore.Hbond>
2.9520

> <Gold.PLP.Chemscore.CHOScore>
0.0000

> <Gold.PLP.Chemscore.Metal>
0.0000

> <Gold.Chemscore.Hbonds>
donor molecule, donor type, donor heavy atom, donor atom, acceptor molecule, acceptor atom, score
      L1  H     8    23       P1  7957  1.00
      L1  H     8    28       P1  7948  1.95

> <Gold.PLP.Chemscore.Internal.Correction>
0.0153

> <Gold.Rescore>
     Score         DG    S(hbond)    S(metal)    S(lipo)     H(rot)  DE(clash)    DE(int)     intcor
     14.37     -14.45       1.93        0.00      50.01       1.30       0.07       0.01       ----

> <Gold.Chemscore.Fitness>
14.3722

> <Gold.Chemscore.DG>
-14.4522

> <Gold.Chemscore.ZeroCoef>
-5.4800

> <Gold.Chemscore.Hbond>
1.9316

> <Gold.Chemscore.Metal>
0.0000

> <Gold.Chemscore.Lipo>
50.0111

> <Gold.Chemscore.Internal_Hbond>
0.0000

> <Gold.Chemscore.DEClash>
0.0688

> <Gold.Chemscore.DEInternal>
0.0111

> <Gold.Chemscore.Rot>
1.3011

> <Gold.Chemscore.Internal.Correction>
   9.000000E+99

> <Gold.Chemscore.Hbonds>
donor molecule, donor type, donor heavy atom, donor atom, acceptor molecule, acceptor atom, score
      L1  H     8    23       P1  7957  0.95
      L1  H     8    28       P1  7948  0.90

> <Gold.Chemscore.Hbond.Weighted>
-6.4517

> <Gold.Chemscore.Metal.Weighted>
-0.0000

> <Gold.Chemscore.Lipo.Weighted>
-5.8513

> <Gold.Chemscore.Internal_Hbond.Weighted>
0.0000

> <Gold.Chemscore.DEClash.Weighted>
0.0688

> <Gold.Chemscore.DEInternal.Weighted>
0.0111

> <Gold.Chemscore.Rot.Weighted>
3.3308

> <Gold.Chemscore.Internal.Correction.Weighted>
   9.000000E+99

> <Gold.Protein.RotatedTorsions>
[ 6907 6896 6895 6894 ] final   40.67 input  -60.11 | X-H torsion
[ 7974 7965 7964 7962 ] final -106.62 input  175.53 | X-H torsion
[ 8008 7997 7996 7995 ] final -142.16 input   59.86 | X-H torsion
[ 10167 10162 10161 10158 ] final  -77.91 input  -65.29 | X-H torsion
[ 10718 10713 10712 10709 ] final -155.84 input   66.30 | X-H torsion
[ 10763 10752 10751 10750 ] final  -52.58 input  -60.55 | X-H torsion
[ 11005 11000 10999 10996 ] final   77.82 input  -57.11 | X-H torsion

> <Gold.Protein.ActiveResidues>
 VAL166  LYS551  ARG553  GLY616  TRP617  ASP618  TYR619  PRO620  LYS621  CYS622 
 ASP623  PHE694  ASN695  SER759  ASP760  ASP761  ALA762  ILE779  LEU786  VAL792 
 PHE793  MET794  SER795  GLU796  ALA797  LYS798  CYS799  TRP800  GLU811  SER814 

> <Gold.Protein.RotatedAtoms>
  152.1854  134.8718  160.0522 H   0  0  0  0  0  0  0  0  0  0  0  0  # atno 6907 bound_to 6896
  151.9626  133.3695  159.4049 H   0  0  0  0  0  0  0  0  0  0  0  0  # atno 6908 bound_to 6896
  150.6925  134.4147  159.5222 H   0  0  0  0  0  0  0  0  0  0  0  0  # atno 6909 bound_to 6896
  145.2155  140.9113  143.3289 H   0  0  0  0  0  0  0  0  0  0  0  0  # atno 7974 bound_to 7965
  155.4896  140.0567  157.2955 H   0  0  0  0  0  0  0  0  0  0  0  0  # atno 8008 bound_to 7997
  154.4628  140.2004  156.0149 H   0  0  0  0  0  0  0  0  0  0  0  0  # atno 8009 bound_to 7997
  156.0921  140.3232  155.7834 H   0  0  0  0  0  0  0  0  0  0  0  0  # atno 8010 bound_to 7997
  140.4729  143.2422  151.8177 H   0  0  0  0  0  0  0  0  0  0  0  0  # atno 10167 bound_to 10162
  156.5183  130.8466  151.2672 H   0  0  0  0  0  0  0  0  0  0  0  0  # atno 10718 bound_to 10713
  154.1450  135.6499  153.4950 H   0  0  0  0  0  0  0  0  0  0  0  0  # atno 10763 bound_to 10752
  153.0154  135.5324  154.6866 H   0  0  0  0  0  0  0  0  0  0  0  0  # atno 10764 bound_to 10752
  154.6138  135.2957  155.0374 H   0  0  0  0  0  0  0  0  0  0  0  0  # atno 10765 bound_to 10752
  139.9238  134.7713  156.1570 H   0  0  0  0  0  0  0  0  0  0  0  0  # atno 11005 bound_to 11000
  144.9815  139.3779  143.6260 LP  0  0  0  0  0  0  0  0  0  0  0  0  # atno 17320 bound_to 7965
  146.3388  139.8957  142.8802 LP  0  0  0  0  0  0  0  0  0  0  0  0  # atno 17321 bound_to 7965
  139.4821  144.4869  151.9235 LP  0  0  0  0  0  0  0  0  0  0  0  0  # atno 17342 bound_to 10162
  140.3955  144.2561  150.5896 LP  0  0  0  0  0  0  0  0  0  0  0  0  # atno 17343 bound_to 10162
  157.7440  130.9926  150.2642 LP  0  0  0  0  0  0  0  0  0  0  0  0  # atno 17370 bound_to 10713
  156.3174  130.3781  149.7606 LP  0  0  0  0  0  0  0  0  0  0  0  0  # atno 17371 bound_to 10713
  141.0781  133.6766  156.2278 LP  0  0  0  0  0  0  0  0  0  0  0  0  # atno 17394 bound_to 11000
  140.6395  134.5181  157.5568 LP  0  0  0  0  0  0  0  0  0  0  0  0  # atno 17395 bound_to 11000

$$$$
