AV-unprocessed.smi:1696|AV-procd|sdf|6802|dock2
  -GOLD-   22720 7573D 1   1.00000     0.00000
 Structure written by MMmdl.
 38 39  0  0  0  0  0  0  0  0  3 V2000
  147.1362  138.0055  155.5042 C   0  0  0  0  0  0  0  0  0  0  0  0
  147.1704  136.8063  154.5436 C   0  0  0  0  0  0  0  0  0  0  0  0
  148.0776  135.6325  155.0026 C   0  0  1  0  0  0  0  0  0  0  0  0
  147.5648  134.9525  156.2984 C   0  0  0  0  0  0  0  0  0  0  0  0
  147.7449  135.8058  157.4698 N   0  0  0  0  0  0  0  0  0  0  0  0
  148.7073  135.6995  158.3968 C   0  0  0  0  0  0  0  0  0  0  0  0
  149.5723  134.8268  158.2962 O   0  0  0  0  0  0  0  0  0  0  0  0
  148.6031  136.6139  159.3867 N   0  5  0  0  0  0  0  0  0  0  0  0
  147.9895  136.2915  160.5370 C   0  0  0  0  0  0  0  0  0  0  0  0
  147.3959  137.1945  161.3259 N   0  0  0  0  0  0  0  0  0  0  0  0
  146.8267  136.6396  162.4735 C   0  0  0  0  0  0  0  0  0  0  0  0
  146.9988  135.2838  162.5650 C   0  0  0  0  0  0  0  0  0  0  0  0
  147.8860  134.6597  161.2038 S   0  0  0  0  0  0  0  0  0  0  0  0
  148.2770  134.6481  153.8984 N   0  3  0  0  0  0  0  0  0  0  0  0
  149.3008  133.6032  154.1570 C   0  0  0  0  0  0  0  0  0  0  0  0
  148.7815  132.2947  153.5449 C   0  0  0  0  0  0  0  0  0  0  0  0
  147.5832  132.7095  152.6996 C   0  0  0  0  0  0  0  0  0  0  0  0
  147.0645  133.9438  153.4276 C   0  0  0  0  0  0  0  0  0  0  0  0
  146.4665  138.7784  155.1268 H   0  0  0  0  0  0  0  0  0  0  0  0
  148.1202  138.4584  155.6195 H   0  0  0  0  0  0  0  0  0  0  0  0
  146.7804  137.7177  156.4935 H   0  0  0  0  0  0  0  0  0  0  0  0
  146.1506  136.4546  154.3902 H   0  0  0  0  0  0  0  0  0  0  0  0
  147.4886  137.1558  153.5611 H   0  0  0  0  0  0  0  0  0  0  0  0
  149.0584  136.0523  155.2329 H   0  0  0  0  0  0  0  0  0  0  0  0
  146.5265  134.6409  156.1767 H   0  0  0  0  0  0  0  0  0  0  0  0
  148.1284  134.0429  156.5047 H   0  0  0  0  0  0  0  0  0  0  0  0
  147.0674  136.5427  157.6015 H   0  0  0  0  0  0  0  0  0  0  0  0
  146.3189  137.2858  163.1742 H   0  0  0  0  0  0  0  0  0  0  0  0
  146.6618  134.6179  163.3450 H   0  0  0  0  0  0  0  0  0  0  0  0
  150.2440  133.9072  153.7019 H   0  0  0  0  0  0  0  0  0  0  0  0
  149.4769  133.4629  155.2245 H   0  0  0  0  0  0  0  0  0  0  0  0
  149.5414  131.7721  152.9628 H   0  0  0  0  0  0  0  0  0  0  0  0
  148.4540  131.6230  154.3398 H   0  0  0  0  0  0  0  0  0  0  0  0
  147.9122  132.9817  151.6957 H   0  0  0  0  0  0  0  0  0  0  0  0
  146.8333  131.9232  152.6081 H   0  0  0  0  0  0  0  0  0  0  0  0
  146.4595  133.6384  154.2830 H   0  0  0  0  0  0  0  0  0  0  0  0
  146.4521  134.5720  152.7798 H   0  0  0  0  0  0  0  0  0  0  0  0
  148.6105  135.1722  153.1017 H   0  0  0  0  0  0  0  0  0  0  0  0
  1  2  1  0  0  0  0
  1 19  1  0  0  0  0
  1 20  1  0  0  0  0
  1 21  1  0  0  0  0
  2  3  1  0  0  0  0
  2 22  1  0  0  0  0
  2 23  1  0  0  0  0
  3  4  1  0  0  0  0
  3 14  1  0  0  0  0
  3 24  1  0  0  0  0
  4  5  1  0  0  0  0
  4 25  1  0  0  0  0
  4 26  1  0  0  0  0
  5  6  1  0  0  0  0
  5 27  1  0  0  0  0
  6  7  2  0  0  0  0
  6  8  1  0  0  0  0
  8  9  1  0  0  0  0
  9 13  1  0  0  0  0
  9 10  2  0  0  0  0
 10 11  1  0  0  0  0
 11 12  2  0  0  0  0
 11 28  1  0  0  0  0
 12 13  1  0  0  0  0
 12 29  1  0  0  0  0
 14 18  1  0  0  0  0
 14 15  1  0  0  0  0
 14 38  1  0  0  0  0
 15 16  1  0  0  0  0
 15 30  1  0  0  0  0
 15 31  1  0  0  0  0
 16 17  1  0  0  0  0
 16 32  1  0  0  0  0
 16 33  1  0  0  0  0
 17 18  1  0  0  0  0
 17 34  1  0  0  0  0
 17 35  1  0  0  0  0
 18 36  1  0  0  0  0
 18 37  1  0  0  0  0
M  CHG  1   8  -1
M  CHG  1  14   1
M  END
> <s_m_source_file>
AV-unprocessed.smi

> <i_m_source_file_index>
1696

> <i_lp_mmshare_version>
43012

> <i_f3d_flags>
0

> <s_epik_input>
W0NIMl0xW0NIMl1bQ0gyXVtDSDJdTjFbQ0BIXShbQ0gyXVtDSDNdKVtDSDJdW05IXUMoPU8pW05IXWMybltjSF1bY0hdczI=

> <s_epik_cmdline>
J2VwaWtfcHl0aG9uJywgJy1waCcsICc3LjAnLCAnLXRuJywgJzgnLCAnLW1hJywgJzIwMCcsICctbWV0YWxfYmluZGluZycsICctaW1hZScsICc8aW5maWxlLm1hZT4nLCAnLW9tYWUnLCAnPG91dGZpbGUubWFlPic=

> <r_lp_tautomer_probability>
1

> <r_epik_Ionization_Penalty>
7.71903

> <r_epik_Ionization_Penalty_Charging>
6.3282

> <r_epik_Ionization_Penalty_Neutral>
1.39083

> <r_epik_State_Penalty>
6.32705

> <r_epik_Charging_Adjusted_Penalty>
12.6552

> <i_epik_Tot_Q>
0

> <i_epik_Tot_abs_Q>
2

> <r_epik_Metal_State_Penalty>
2.26116

> <b_epik_Metal_Only>
1

> <s_lp_Force_Field>
OPLS_2005

> <r_lp_Energy>
23.2163

> <b_lp_Chiralities_Consistent>
1

> <s_lp_Variant>
AV-unprocessed.smi:1696-4

> <Gold.Version>
5.8.1

> <Gold.Id.Protein>
6NUR|6NUR_protein|mol2

> <Gold.PLP.Fitness>
40.8150

> <Gold.PLP.PLP>
-28.1632

> <Gold.PLP.part.hbond>
-4.0000

> <Gold.PLP.part.metal>
0.0000

> <Gold.PLP.part.buried>
-3.4112

> <Gold.PLP.part.nonpolar>
-20.5616

> <Gold.PLP.part.repulsive>
0.0087

> <Gold.PLP.ligand.clash>
0.0000

> <Gold.PLP.ligand.torsion>
1.1928

> <Gold.PLP.Chemscore.Hbond>
4.8560

> <Gold.PLP.Chemscore.CHOScore>
0.0000

> <Gold.PLP.Chemscore.Metal>
0.0000

> <Gold.Chemscore.Hbonds>
donor molecule, donor type, donor heavy atom, donor atom, acceptor molecule, acceptor atom, score
      L1  H    14    38       P1  7948  2.00
      P1  H  6896  6907       L1     7  1.00
      P1  H  6931  6943       L1    10  0.90
      P1  H  6934  6947       L1    10  0.96

> <Gold.PLP.Chemscore.Internal.Correction>
0.4695

> <Gold.Rescore>
     Score         DG    S(hbond)    S(metal)    S(lipo)     H(rot)  DE(clash)    DE(int)     intcor
     17.49     -18.62       3.41        0.00      52.79       1.73       0.01       1.12       ----

> <Gold.Chemscore.Fitness>
17.4904

> <Gold.Chemscore.DG>
-18.6232

> <Gold.Chemscore.ZeroCoef>
-5.4800

> <Gold.Chemscore.Hbond>
3.4097

> <Gold.Chemscore.Metal>
0.0000

> <Gold.Chemscore.Lipo>
52.7865

> <Gold.Chemscore.Internal_Hbond>
0.0000

> <Gold.Chemscore.DEClash>
0.0088

> <Gold.Chemscore.DEInternal>
1.1241

> <Gold.Chemscore.Rot>
1.7270

> <Gold.Chemscore.Internal.Correction>
   9.000000E+99

> <Gold.Chemscore.Hbonds>
donor molecule, donor type, donor heavy atom, donor atom, acceptor molecule, acceptor atom, score
      L1  H    14    38       P1  7948  0.74
      P1  H  6896  6907       L1     7  0.99
      P1  H  6931  6943       L1    10  0.12
      P1  H  6934  6947       L1    10  0.91

> <Gold.Chemscore.Hbond.Weighted>
-11.3884

> <Gold.Chemscore.Metal.Weighted>
-0.0000

> <Gold.Chemscore.Lipo.Weighted>
-6.1760

> <Gold.Chemscore.Internal_Hbond.Weighted>
0.0000

> <Gold.Chemscore.DEClash.Weighted>
0.0088

> <Gold.Chemscore.DEInternal.Weighted>
1.1241

> <Gold.Chemscore.Rot.Weighted>
4.4212

> <Gold.Chemscore.Internal.Correction.Weighted>
   9.000000E+99

> <Gold.Protein.RotatedTorsions>
[ 6907 6896 6895 6894 ] final  -82.20 input  -60.11 | X-H torsion
[ 7974 7965 7964 7962 ] final    5.37 input  175.53 | X-H torsion
[ 8008 7997 7996 7995 ] final -118.83 input   59.86 | X-H torsion
[ 10167 10162 10161 10158 ] final  145.91 input  -65.29 | X-H torsion
[ 10718 10713 10712 10709 ] final -171.52 input   66.30 | X-H torsion
[ 10763 10752 10751 10750 ] final -172.79 input  -60.55 | X-H torsion
[ 11005 11000 10999 10996 ] final  -28.12 input  -57.11 | X-H torsion

> <Gold.Protein.ActiveResidues>
 VAL166  LYS551  ARG553  GLY616  TRP617  ASP618  TYR619  PRO620  LYS621  CYS622 
 ASP623  PHE694  ASN695  SER759  ASP760  ASP761  ALA762  ILE779  LEU786  VAL792 
 PHE793  MET794  SER795  GLU796  ALA797  LYS798  CYS799  TRP800  GLU811  SER814 

> <Gold.Protein.RotatedAtoms>
  150.6901  134.3702  159.4988 H   0  0  0  0  0  0  0  0  0  0  0  0  # atno 6907 bound_to 6896
  152.1518  134.8979  160.0556 H   0  0  0  0  0  0  0  0  0  0  0  0  # atno 6908 bound_to 6896
  152.0074  133.3813  159.4243 H   0  0  0  0  0  0  0  0  0  0  0  0  # atno 6909 bound_to 6896
  146.2441  140.0393  142.8383 H   0  0  0  0  0  0  0  0  0  0  0  0  # atno 7974 bound_to 7965
  155.1059  140.0396  157.2710 H   0  0  0  0  0  0  0  0  0  0  0  0  # atno 8008 bound_to 7997
  154.6722  140.2614  155.6970 H   0  0  0  0  0  0  0  0  0  0  0  0  # atno 8009 bound_to 7997
  156.2662  140.2795  156.1235 H   0  0  0  0  0  0  0  0  0  0  0  0  # atno 8010 bound_to 7997
  139.4917  144.5868  151.6762 H   0  0  0  0  0  0  0  0  0  0  0  0  # atno 10167 bound_to 10162
  156.7421  130.9346  151.3110 H   0  0  0  0  0  0  0  0  0  0  0  0  # atno 10718 bound_to 10713
  154.6152  135.2869  155.0387 H   0  0  0  0  0  0  0  0  0  0  0  0  # atno 10763 bound_to 10752
  154.1603  135.6489  153.4988 H   0  0  0  0  0  0  0  0  0  0  0  0  # atno 10764 bound_to 10752
  153.0212  135.5376  154.6921 H   0  0  0  0  0  0  0  0  0  0  0  0  # atno 10765 bound_to 10752
  140.9180  133.7417  156.0762 H   0  0  0  0  0  0  0  0  0  0  0  0  # atno 11005 bound_to 11000
  145.1083  140.9389  143.4671 LP  0  0  0  0  0  0  0  0  0  0  0  0  # atno 17320 bound_to 7965
  145.0602  139.3112  143.5884 LP  0  0  0  0  0  0  0  0  0  0  0  0  # atno 17321 bound_to 7965
  140.5486  144.0463  150.6117 LP  0  0  0  0  0  0  0  0  0  0  0  0  # atno 17342 bound_to 10162
  140.3509  143.2963  152.0488 LP  0  0  0  0  0  0  0  0  0  0  0  0  # atno 17343 bound_to 10162
  157.6814  130.9143  150.0277 LP  0  0  0  0  0  0  0  0  0  0  0  0  # atno 17370 bound_to 10713
  156.1458  130.3642  149.9513 LP  0  0  0  0  0  0  0  0  0  0  0  0  # atno 17371 bound_to 10713
  140.8025  134.3493  157.5435 LP  0  0  0  0  0  0  0  0  0  0  0  0  # atno 17394 bound_to 11000
  139.8770  134.9206  156.3255 LP  0  0  0  0  0  0  0  0  0  0  0  0  # atno 17395 bound_to 11000

$$$$
