AV-unprocessed.smi:3143|AV-procd|sdf|11976|dock5
  -GOLD-   2272017373D 1   1.00000     0.00000
 Structure written by MMmdl.
 37 38  0  0  0  0  0  0  0  0  1 V2000
  151.9183  145.3239  157.0284 C   0  0  0  0  0  0  0  0  0  0  0  0
  151.8955  144.0685  157.9138 C   0  0  2  0  0  0  0  0  0  0  0  0
  150.6586  143.3074  157.6579 N   0  0  0  0  0  0  0  0  0  0  0  0
  150.8884  141.8866  157.4190 C   0  0  0  0  0  0  0  0  0  0  0  0
  150.7442  141.5952  155.9184 C   0  0  0  0  0  0  0  0  0  0  0  0
  151.2518  140.2804  155.5756 N   0  0  0  0  0  0  0  0  0  0  0  0
  151.9894  139.4153  156.3564 C   0  0  0  0  0  0  0  0  0  0  0  0
  152.2375  138.3019  155.6058 C   0  0  0  0  0  0  0  0  0  0  0  0
  151.6028  138.5835  154.3636 C   0  0  0  0  0  0  0  0  0  0  0  0
  151.0146  139.7687  154.3483 N   0  0  0  0  0  0  0  0  0  0  0  0
  152.0752  144.4713  159.3956 C   0  0  0  0  0  0  0  0  0  0  0  0
  151.8402  145.6349  159.7264 O   0  0  0  0  0  0  0  0  0  0  0  0
  152.4845  143.5476  160.2925 N   0  0  0  0  0  0  0  0  0  0  0  0
  152.8330  142.1551  160.0105 C   0  0  0  0  0  0  0  0  0  0  0  0
  153.4813  141.6209  161.2879 C   0  0  0  0  0  0  0  0  0  0  0  0
  152.8964  142.4896  162.3917 C   0  0  0  0  0  0  0  0  0  0  0  0
  152.6566  143.8390  161.7151 C   0  0  0  0  0  0  0  0  0  0  0  0
  152.8372  145.8941  157.1703 H   0  0  0  0  0  0  0  0  0  0  0  0
  151.0795  145.9853  157.2499 H   0  0  0  0  0  0  0  0  0  0  0  0
  151.8610  145.0591  155.9722 H   0  0  0  0  0  0  0  0  0  0  0  0
  152.7220  143.4339  157.5967 H   0  0  0  0  0  0  0  0  0  0  0  0
  150.1429  143.6961  156.8815 H   0  0  0  0  0  0  0  0  0  0  0  0
  151.8906  141.6168  157.7554 H   0  0  0  0  0  0  0  0  0  0  0  0
  150.1800  141.2761  157.9799 H   0  0  0  0  0  0  0  0  0  0  0  0
  149.6974  141.6524  155.6157 H   0  0  0  0  0  0  0  0  0  0  0  0
  151.2852  142.3382  155.3309 H   0  0  0  0  0  0  0  0  0  0  0  0
  152.2730  139.6610  157.3692 H   0  0  0  0  0  0  0  0  0  0  0  0
  152.7883  137.4206  155.8990 H   0  0  0  0  0  0  0  0  0  0  0  0
  151.5537  137.9672  153.4782 H   0  0  0  0  0  0  0  0  0  0  0  0
  151.9218  141.5986  159.7866 H   0  0  0  0  0  0  0  0  0  0  0  0
  153.5112  142.0616  159.1611 H   0  0  0  0  0  0  0  0  0  0  0  0
  153.2976  140.5575  161.4433 H   0  0  0  0  0  0  0  0  0  0  0  0
  154.5608  141.7702  161.2399 H   0  0  0  0  0  0  0  0  0  0  0  0
  151.9442  142.0705  162.7195 H   0  0  0  0  0  0  0  0  0  0  0  0
  153.5467  142.5635  163.2639 H   0  0  0  0  0  0  0  0  0  0  0  0
  153.5230  144.4900  161.8415 H   0  0  0  0  0  0  0  0  0  0  0  0
  151.7873  144.3449  162.1385 H   0  0  0  0  0  0  0  0  0  0  0  0
  1  2  1  0  0  0  0
  1 18  1  0  0  0  0
  1 19  1  0  0  0  0
  1 20  1  0  0  0  0
  2  3  1  0  0  0  0
  2 11  1  0  0  0  0
  2 21  1  0  0  0  0
  3  4  1  0  0  0  0
  3 22  1  0  0  0  0
  4  5  1  0  0  0  0
  4 23  1  0  0  0  0
  4 24  1  0  0  0  0
  5  6  1  0  0  0  0
  5 25  1  0  0  0  0
  5 26  1  0  0  0  0
  6 10  1  0  0  0  0
  6  7  1  0  0  0  0
  7  8  2  0  0  0  0
  7 27  1  0  0  0  0
  8  9  1  0  0  0  0
  8 28  1  0  0  0  0
  9 10  2  0  0  0  0
  9 29  1  0  0  0  0
 11 12  2  0  0  0  0
 11 13  1  0  0  0  0
 13 17  1  0  0  0  0
 13 14  1  0  0  0  0
 14 15  1  0  0  0  0
 14 30  1  0  0  0  0
 14 31  1  0  0  0  0
 15 16  1  0  0  0  0
 15 32  1  0  0  0  0
 15 33  1  0  0  0  0
 16 17  1  0  0  0  0
 16 34  1  0  0  0  0
 16 35  1  0  0  0  0
 17 36  1  0  0  0  0
 17 37  1  0  0  0  0
M  END
> <s_m_source_file>
AV-unprocessed.smi

> <i_m_source_file_index>
3143

> <i_lp_mmshare_version>
43012

> <i_f3d_flags>
0

> <s_epik_input>
W0NIMl0xW0NIMl1bQ0gyXVtDSDJdTjFDKD1PKVtDQEhdKFtDSDNdKVtOSF1bQ0gyXVtDSDJdbjJbY0hdW2NIXVtjSF1uMg==

> <s_epik_cmdline>
J2VwaWtfcHl0aG9uJywgJy1waCcsICc3LjAnLCAnLXRuJywgJzgnLCAnLW1hJywgJzIwMCcsICctbWV0YWxfYmluZGluZycsICctaW1hZScsICc8aW5maWxlLm1hZT4nLCAnLW9tYWUnLCAnPG91dGZpbGUubWFlPic=

> <r_lp_tautomer_probability>
1

> <r_epik_Ionization_Penalty>
0.733724

> <r_epik_Ionization_Penalty_Charging>
0

> <r_epik_Ionization_Penalty_Neutral>
0.733724

> <r_epik_State_Penalty>
0.75825

> <r_epik_Charging_Adjusted_Penalty>
0.75825

> <i_epik_Tot_Q>
0

> <i_epik_Tot_abs_Q>
0

> <r_epik_Metal_State_Penalty>
0.757598

> <b_epik_Metal_Only>
0

> <s_lp_Force_Field>
OPLS_2005

> <r_lp_Energy>
31.3447

> <b_lp_Chiralities_Consistent>
1

> <s_lp_Variant>
AV-unprocessed.smi:3143-3

> <Gold.Version>
5.8.1

> <Gold.Id.Protein>
6NUR|6NUR_protein|mol2

> <Gold.PLP.Fitness>
49.7914

> <Gold.PLP.PLP>
-46.2198

> <Gold.PLP.part.hbond>
-2.3764

> <Gold.PLP.part.metal>
0.0000

> <Gold.PLP.part.buried>
-6.4019

> <Gold.PLP.part.nonpolar>
-36.6313

> <Gold.PLP.part.repulsive>
0.2654

> <Gold.PLP.ligand.clash>
0.0000

> <Gold.PLP.ligand.torsion>
1.6430

> <Gold.PLP.Chemscore.Hbond>
2.0000

> <Gold.PLP.Chemscore.CHOScore>
0.2724

> <Gold.PLP.Chemscore.Metal>
0.0000

> <Gold.Chemscore.Hbonds>
donor molecule, donor type, donor heavy atom, donor atom, acceptor molecule, acceptor atom, score
      L1  H     3    22       P1  8028  1.00
      P1  H  7989  7998       L1    10  0.98
      L1  C     9    29       P1  7949  0.26

> <Gold.PLP.Chemscore.Internal.Correction>
0.0404

> <Gold.Rescore>
     Score         DG    S(hbond)    S(metal)    S(lipo)     H(rot)  DE(clash)    DE(int)     intcor
     15.45     -19.24       1.83        0.00     104.16       1.77       2.33       1.46       ----

> <Gold.Chemscore.Fitness>
15.4487

> <Gold.Chemscore.DG>
-19.2376

> <Gold.Chemscore.ZeroCoef>
-5.4800

> <Gold.Chemscore.Hbond>
1.8290

> <Gold.Chemscore.Metal>
0.0000

> <Gold.Chemscore.Lipo>
104.1601

> <Gold.Chemscore.Internal_Hbond>
0.0000

> <Gold.Chemscore.DEClash>
2.3314

> <Gold.Chemscore.DEInternal>
1.4575

> <Gold.Chemscore.Rot>
1.7726

> <Gold.Chemscore.Internal.Correction>
   9.000000E+99

> <Gold.Chemscore.Hbonds>
donor molecule, donor type, donor heavy atom, donor atom, acceptor molecule, acceptor atom, score
      L1  H     3    22       P1  8028  0.94
      P1  H  7989  7998       L1    10  0.22

> <Gold.Chemscore.Hbond.Weighted>
-6.1087

> <Gold.Chemscore.Metal.Weighted>
-0.0000

> <Gold.Chemscore.Lipo.Weighted>
-12.1867

> <Gold.Chemscore.Internal_Hbond.Weighted>
0.0000

> <Gold.Chemscore.DEClash.Weighted>
2.3314

> <Gold.Chemscore.DEInternal.Weighted>
1.4575

> <Gold.Chemscore.Rot.Weighted>
4.5378

> <Gold.Chemscore.Internal.Correction.Weighted>
   9.000000E+99

> <Gold.Protein.RotatedTorsions>
[ 6907 6896 6895 6894 ] final -126.98 input  -60.11 | X-H torsion
[ 7974 7965 7964 7962 ] final -119.89 input  175.53 | X-H torsion
[ 8008 7997 7996 7995 ] final  -13.90 input   59.86 | X-H torsion
[ 10167 10162 10161 10158 ] final -142.89 input  -65.29 | X-H torsion
[ 10718 10713 10712 10709 ] final   64.06 input   66.30 | X-H torsion
[ 10763 10752 10751 10750 ] final  145.83 input  -60.55 | X-H torsion
[ 11005 11000 10999 10996 ] final  107.96 input  -57.11 | X-H torsion

> <Gold.Protein.ActiveResidues>
 VAL166  LYS551  ARG553  GLY616  TRP617  ASP618  TYR619  PRO620  LYS621  CYS622 
 ASP623  PHE694  ASN695  SER759  ASP760  ASP761  ALA762  ILE779  LEU786  VAL792 
 PHE793  MET794  SER795  GLU796  ALA797  LYS798  CYS799  TRP800  GLU811  SER814 

> <Gold.Protein.RotatedAtoms>
  150.9025  133.7100  159.2875 H   0  0  0  0  0  0  0  0  0  0  0  0  # atno 6907 bound_to 6896
  151.4614  135.1037  159.9735 H   0  0  0  0  0  0  0  0  0  0  0  0  # atno 6908 bound_to 6896
  152.4885  133.8387  159.7197 H   0  0  0  0  0  0  0  0  0  0  0  0  # atno 6909 bound_to 6896
  145.0574  140.8265  143.4172 H   0  0  0  0  0  0  0  0  0  0  0  0  # atno 7974 bound_to 7965
  154.5254  140.2237  155.8899 H   0  0  0  0  0  0  0  0  0  0  0  0  # atno 8008 bound_to 7997
  156.1707  140.3122  155.8934 H   0  0  0  0  0  0  0  0  0  0  0  0  # atno 8009 bound_to 7997
  155.3563  140.0458  157.3037 H   0  0  0  0  0  0  0  0  0  0  0  0  # atno 8010 bound_to 7997
  139.8045  143.7787  152.2660 H   0  0  0  0  0  0  0  0  0  0  0  0  # atno 10167 bound_to 10162
  157.6014  130.9139  149.9797 H   0  0  0  0  0  0  0  0  0  0  0  0  # atno 10718 bound_to 10713
  154.0118  135.2914  155.3391 H   0  0  0  0  0  0  0  0  0  0  0  0  # atno 10763 bound_to 10752
  154.7099  135.5154  153.8653 H   0  0  0  0  0  0  0  0  0  0  0  0  # atno 10764 bound_to 10752
  153.0720  135.6651  154.0349 H   0  0  0  0  0  0  0  0  0  0  0  0  # atno 10765 bound_to 10752
  139.8836  134.9416  156.5899 H   0  0  0  0  0  0  0  0  0  0  0  0  # atno 11005 bound_to 11000
  145.1451  139.2548  143.5470 LP  0  0  0  0  0  0  0  0  0  0  0  0  # atno 17320 bound_to 7965
  146.3522  140.1138  142.8603 LP  0  0  0  0  0  0  0  0  0  0  0  0  # atno 17321 bound_to 7965
  139.7917  144.7407  150.9945 LP  0  0  0  0  0  0  0  0  0  0  0  0  # atno 17342 bound_to 10162
  140.7819  143.4435  151.0517 LP  0  0  0  0  0  0  0  0  0  0  0  0  # atno 17343 bound_to 10162
  156.1088  130.3651  150.0085 LP  0  0  0  0  0  0  0  0  0  0  0  0  # atno 17370 bound_to 10713
  156.8187  130.9351  151.3642 LP  0  0  0  0  0  0  0  0  0  0  0  0  # atno 17371 bound_to 10713
  140.7963  133.8541  155.8689 LP  0  0  0  0  0  0  0  0  0  0  0  0  # atno 17394 bound_to 11000
  140.9632  134.1628  157.4637 LP  0  0  0  0  0  0  0  0  0  0  0  0  # atno 17395 bound_to 11000

$$$$
