AV-unprocessed.smi:3056|AV-procd|sdf|11651|dock2
  -GOLD-   2272017 53D 1   1.00000     0.00000
 Structure written by MMmdl.
 48 49  0  0  0  0  0  0  0  0  2 V2000
  144.0057  132.0759  149.8559 C   0  0  0  0  0  0  0  0  0  0  0  0
  143.9749  133.3723  150.6132 C   0  0  0  0  0  0  0  0  0  0  0  0
  144.7041  134.5631  150.3379 C   0  0  0  0  0  0  0  0  0  0  0  0
  144.4465  135.5327  151.1999 N   0  0  0  0  0  0  0  0  0  0  0  0
  143.5555  134.9987  152.0630 N   0  0  0  0  0  0  0  0  0  0  0  0
  143.0318  135.8151  153.1543 C   0  0  2  0  0  0  0  0  0  0  0  0
  141.8162  135.1444  153.8186 C   0  0  0  0  0  0  0  0  0  0  0  0
  142.7848  137.2909  152.7387 C   0  0  1  0  0  0  0  0  0  0  0  0
  142.1820  138.1294  153.8778 C   0  0  0  0  0  0  0  0  0  0  0  0
  144.0246  137.9439  152.2606 N   0  3  0  0  0  0  0  0  0  0  0  0
  145.2652  137.5230  152.9475 C   0  0  0  0  0  0  0  0  0  0  0  0
  146.4384  138.4750  152.6729 C   0  0  0  0  0  0  0  0  0  0  0  0
  146.8641  138.5752  151.5209 O   0  0  0  0  0  0  0  0  0  0  0  0
  146.9664  139.1781  153.7032 N   0  0  0  0  0  0  0  0  0  0  0  0
  148.0471  140.1649  153.6120 C   0  0  0  0  0  0  0  0  0  0  0  0
  147.4763  141.5404  153.9989 C   0  0  0  0  0  0  0  0  0  0  0  0
  146.9174  141.4764  155.3088 O   0  0  0  0  0  0  0  0  0  0  0  0
  145.8809  140.5044  155.4395 C   0  0  2  0  0  0  0  0  0  0  0  0
  145.3558  140.5539  156.8782 C   0  0  0  0  0  0  0  0  0  0  0  0
  146.4428  139.1166  155.0704 C   0  0  0  0  0  0  0  0  0  0  0  0
  143.2495  133.6944  151.7247 C   0  0  0  0  0  0  0  0  0  0  0  0
  144.4331  132.1979  148.8605 H   0  0  0  0  0  0  0  0  0  0  0  0
  143.0062  131.6607  149.7265 H   0  0  0  0  0  0  0  0  0  0  0  0
  144.6030  131.3240  150.3719 H   0  0  0  0  0  0  0  0  0  0  0  0
  145.4067  134.7513  149.5394 H   0  0  0  0  0  0  0  0  0  0  0  0
  143.8042  135.8405  153.9255 H   0  0  0  0  0  0  0  0  0  0  0  0
  141.4611  135.7292  154.6674 H   0  0  0  0  0  0  0  0  0  0  0  0
  142.0761  134.1531  154.1913 H   0  0  0  0  0  0  0  0  0  0  0  0
  140.9841  135.0246  153.1249 H   0  0  0  0  0  0  0  0  0  0  0  0
  142.0529  137.2958  151.9290 H   0  0  0  0  0  0  0  0  0  0  0  0
  141.2648  137.6763  154.2550 H   0  0  0  0  0  0  0  0  0  0  0  0
  141.9324  139.1336  153.5339 H   0  0  0  0  0  0  0  0  0  0  0  0
  142.8715  138.2316  154.7162 H   0  0  0  0  0  0  0  0  0  0  0  0
  144.1359  137.7321  151.2793 H   0  0  0  0  0  0  0  0  0  0  0  0
  145.0908  137.4791  154.0224 H   0  0  0  0  0  0  0  0  0  0  0  0
  145.5244  136.5193  152.6078 H   0  0  0  0  0  0  0  0  0  0  0  0
  148.8461  139.8856  154.3003 H   0  0  0  0  0  0  0  0  0  0  0  0
  148.5116  140.2247  152.6294 H   0  0  0  0  0  0  0  0  0  0  0  0
  148.2648  142.2930  153.9891 H   0  0  0  0  0  0  0  0  0  0  0  0
  146.7173  141.8626  153.2843 H   0  0  0  0  0  0  0  0  0  0  0  0
  145.0650  140.7624  154.7618 H   0  0  0  0  0  0  0  0  0  0  0  0
  144.5473  139.8374  157.0257 H   0  0  0  0  0  0  0  0  0  0  0  0
  144.9690  141.5446  157.1183 H   0  0  0  0  0  0  0  0  0  0  0  0
  146.1444  140.3216  157.5944 H   0  0  0  0  0  0  0  0  0  0  0  0
  145.6689  138.3578  155.1936 H   0  0  0  0  0  0  0  0  0  0  0  0
  147.2480  138.8388  155.7523 H   0  0  0  0  0  0  0  0  0  0  0  0
  142.5477  133.1044  152.2956 H   0  0  0  0  0  0  0  0  0  0  0  0
  143.9188  138.9438  152.3556 H   0  0  0  0  0  0  0  0  0  0  0  0
  1  2  1  0  0  0  0
  1 22  1  0  0  0  0
  1 23  1  0  0  0  0
  1 24  1  0  0  0  0
  2 21  2  0  0  0  0
  2  3  1  0  0  0  0
  3  4  2  0  0  0  0
  3 25  1  0  0  0  0
  4  5  1  0  0  0  0
  5  6  1  0  0  0  0
  5 21  1  0  0  0  0
  6  7  1  0  0  0  0
  6  8  1  0  0  0  0
  6 26  1  0  0  0  0
  7 27  1  0  0  0  0
  7 28  1  0  0  0  0
  7 29  1  0  0  0  0
  8  9  1  0  0  0  0
  8 10  1  0  0  0  0
  8 30  1  0  0  0  0
  9 31  1  0  0  0  0
  9 32  1  0  0  0  0
  9 33  1  0  0  0  0
 10 11  1  0  0  0  0
 10 34  1  0  0  0  0
 10 48  1  0  0  0  0
 11 12  1  0  0  0  0
 11 35  1  0  0  0  0
 11 36  1  0  0  0  0
 12 13  2  0  0  0  0
 12 14  1  0  0  0  0
 14 20  1  0  0  0  0
 14 15  1  0  0  0  0
 15 16  1  0  0  0  0
 15 37  1  0  0  0  0
 15 38  1  0  0  0  0
 16 17  1  0  0  0  0
 16 39  1  0  0  0  0
 16 40  1  0  0  0  0
 17 18  1  0  0  0  0
 18 19  1  0  0  0  0
 18 20  1  0  0  0  0
 18 41  1  0  0  0  0
 19 42  1  0  0  0  0
 19 43  1  0  0  0  0
 19 44  1  0  0  0  0
 20 45  1  0  0  0  0
 20 46  1  0  0  0  0
 21 47  1  0  0  0  0
M  CHG  1  10   1
M  END
> <s_m_source_file>
AV-unprocessed.smi

> <i_m_source_file_index>
3056

> <i_lp_mmshare_version>
43012

> <i_f3d_flags>
0

> <s_epik_input>
W0NIM11jMVtjSF1ubihbY0hdMSlbQ0BIXShbQ0gzXSlbQ0BIXShbQ0gzXSlbTkhdW0NIMl1DKD1PKU4yW0NIMl1bQ0gyXU9bQ0BASF0oW0NIM10pW0NIMl0y

> <s_epik_cmdline>
J2VwaWtfcHl0aG9uJywgJy1waCcsICc3LjAnLCAnLXRuJywgJzgnLCAnLW1hJywgJzIwMCcsICctbWV0YWxfYmluZGluZycsICctaW1hZScsICc8aW5maWxlLm1hZT4nLCAnLW9tYWUnLCAnPG91dGZpbGUubWFlPic=

> <r_lp_tautomer_probability>
1

> <r_epik_Ionization_Penalty>
0.233715

> <r_epik_Ionization_Penalty_Charging>
0.233698

> <r_epik_Ionization_Penalty_Neutral>
1.68157e-05

> <r_epik_State_Penalty>
0.225221

> <r_epik_Charging_Adjusted_Penalty>
0.458919

> <i_epik_Tot_Q>
1

> <i_epik_Tot_abs_Q>
1

> <r_epik_Metal_State_Penalty>
0.225535

> <b_epik_Metal_Only>
0

> <s_lp_Force_Field>
OPLS_2005

> <r_lp_Energy>
29.3518

> <b_lp_Chiralities_Consistent>
1

> <s_lp_Variant>
AV-unprocessed.smi:3056-7

> <Gold.Version>
5.8.1

> <Gold.Id.Protein>
6NUR|6NUR_protein|mol2

> <Gold.PLP.Fitness>
47.5378

> <Gold.PLP.PLP>
-32.7684

> <Gold.PLP.part.hbond>
-2.8926

> <Gold.PLP.part.metal>
0.0000

> <Gold.PLP.part.buried>
-2.0693

> <Gold.PLP.part.nonpolar>
-30.1605

> <Gold.PLP.part.repulsive>
1.1190

> <Gold.PLP.ligand.clash>
0.0000

> <Gold.PLP.ligand.torsion>
0.8722

> <Gold.PLP.Chemscore.Hbond>
3.4520

> <Gold.PLP.Chemscore.CHOScore>
1.9969

> <Gold.PLP.Chemscore.Metal>
0.0000

> <Gold.Chemscore.Hbonds>
donor molecule, donor type, donor heavy atom, donor atom, acceptor molecule, acceptor atom, score
      L1  H    10    34       P1 10171  0.69
      L1  H    10    48       P1 10175  1.95
      P1  H  7954  7966       L1    13  0.59
      L1  C     3    25       P1  7921  1.00
      L1  C    21    47       P1 10957  0.30

> <Gold.PLP.Chemscore.Internal.Correction>
0.1672

> <Gold.Rescore>
     Score         DG    S(hbond)    S(metal)    S(lipo)     H(rot)  DE(clash)    DE(int)     intcor
     14.40     -18.07       2.56        0.00      72.57       1.74       1.70       1.98       ----

> <Gold.Chemscore.Fitness>
14.3976

> <Gold.Chemscore.DG>
-18.0699

> <Gold.Chemscore.ZeroCoef>
-5.4800

> <Gold.Chemscore.Hbond>
2.5574

> <Gold.Chemscore.Metal>
0.0000

> <Gold.Chemscore.Lipo>
72.5706

> <Gold.Chemscore.Internal_Hbond>
0.0000

> <Gold.Chemscore.DEClash>
1.6953

> <Gold.Chemscore.DEInternal>
1.9770

> <Gold.Chemscore.Rot>
1.7354

> <Gold.Chemscore.Internal.Correction>
   9.000000E+99

> <Gold.Chemscore.Hbonds>
donor molecule, donor type, donor heavy atom, donor atom, acceptor molecule, acceptor atom, score
      L1  H    10    34       P1 10171  0.70
      L1  H    10    48       P1 10175  0.91
      P1  H  7954  7966       L1    13  0.58

> <Gold.Chemscore.Hbond.Weighted>
-8.5418

> <Gold.Chemscore.Metal.Weighted>
-0.0000

> <Gold.Chemscore.Lipo.Weighted>
-8.4908

> <Gold.Chemscore.Internal_Hbond.Weighted>
0.0000

> <Gold.Chemscore.DEClash.Weighted>
1.6953

> <Gold.Chemscore.DEInternal.Weighted>
1.9770

> <Gold.Chemscore.Rot.Weighted>
4.4426

> <Gold.Chemscore.Internal.Correction.Weighted>
   9.000000E+99

> <Gold.Protein.RotatedTorsions>
[ 6907 6896 6895 6894 ] final  135.85 input  -60.11 | X-H torsion
[ 7974 7965 7964 7962 ] final  165.16 input  175.53 | X-H torsion
[ 8008 7997 7996 7995 ] final -111.60 input   59.86 | X-H torsion
[ 10167 10162 10161 10158 ] final   38.11 input  -65.29 | X-H torsion
[ 10718 10713 10712 10709 ] final  168.11 input   66.30 | X-H torsion
[ 10763 10752 10751 10750 ] final   39.26 input  -60.55 | X-H torsion
[ 11005 11000 10999 10996 ] final   40.03 input  -57.11 | X-H torsion

> <Gold.Protein.ActiveResidues>
 VAL166  LYS551  ARG553  GLY616  TRP617  ASP618  TYR619  PRO620  LYS621  CYS622 
 ASP623  PHE694  ASN695  SER759  ASP760  ASP761  ALA762  ILE779  LEU786  VAL792 
 PHE793  MET794  SER795  GLU796  ALA797  LYS798  CYS799  TRP800  GLU811  SER814 

> <Gold.Protein.RotatedAtoms>
  152.2959  133.5607  159.5587 H   0  0  0  0  0  0  0  0  0  0  0  0  # atno 6907 bound_to 6896
  150.7256  134.0361  159.3759 H   0  0  0  0  0  0  0  0  0  0  0  0  # atno 6908 bound_to 6896
  151.8264  135.0636  160.0482 H   0  0  0  0  0  0  0  0  0  0  0  0  # atno 6909 bound_to 6896
  144.7514  139.8430  143.6365 H   0  0  0  0  0  0  0  0  0  0  0  0  # atno 7974 bound_to 7965
  154.9924  140.0395  157.2325 H   0  0  0  0  0  0  0  0  0  0  0  0  # atno 8008 bound_to 7997
  154.7617  140.2785  155.6186 H   0  0  0  0  0  0  0  0  0  0  0  0  # atno 8009 bound_to 7997
  156.2905  140.2627  156.2397 H   0  0  0  0  0  0  0  0  0  0  0  0  # atno 8010 bound_to 7997
  140.3968  144.1777  150.6132 H   0  0  0  0  0  0  0  0  0  0  0  0  # atno 10167 bound_to 10162
  157.0419  131.0289  151.2710 H   0  0  0  0  0  0  0  0  0  0  0  0  # atno 10718 bound_to 10713
  152.9973  135.6225  154.2437 H   0  0  0  0  0  0  0  0  0  0  0  0  # atno 10763 bound_to 10752
  154.2177  135.2797  155.2938 H   0  0  0  0  0  0  0  0  0  0  0  0  # atno 10764 bound_to 10752
  154.5554  135.5721  153.7018 H   0  0  0  0  0  0  0  0  0  0  0  0  # atno 10765 bound_to 10752
  140.1970  134.3916  155.8116 H   0  0  0  0  0  0  0  0  0  0  0  0  # atno 11005 bound_to 11000
  146.1469  139.4541  143.0073 LP  0  0  0  0  0  0  0  0  0  0  0  0  # atno 17320 bound_to 7965
  145.6931  141.0158  143.1545 LP  0  0  0  0  0  0  0  0  0  0  0  0  # atno 17321 bound_to 7965
  140.4782  143.2388  151.8993 LP  0  0  0  0  0  0  0  0  0  0  0  0  # atno 17342 bound_to 10162
  139.4786  144.5298  151.8683 LP  0  0  0  0  0  0  0  0  0  0  0  0  # atno 17343 bound_to 10162
  157.5098  130.7931  149.7692 LP  0  0  0  0  0  0  0  0  0  0  0  0  # atno 17370 bound_to 10713
  156.0035  130.3867  150.2516 LP  0  0  0  0  0  0  0  0  0  0  0  0  # atno 17371 bound_to 10713
  141.2227  133.7075  156.8193 LP  0  0  0  0  0  0  0  0  0  0  0  0  # atno 17394 bound_to 11000
  140.2096  134.8837  157.3259 LP  0  0  0  0  0  0  0  0  0  0  0  0  # atno 17395 bound_to 11000

$$$$
