AV-unprocessed.smi:1225|AV-procd|sdf|5140|dock10
  -GOLD-   22720 4203D 1   1.00000     0.00000
 Structure written by MMmdl.
 49 51  0  0  0  0  0  0  0  0  2 V2000
  142.2952  135.5519  152.8331 C   0  0  0  0  0  0  0  0  0  0  0  0
  143.6090  136.2535  152.7834 C   0  0  0  0  0  0  0  0  0  0  0  0
  144.5028  136.0745  151.8084 N   0  0  0  0  0  0  0  0  0  0  0  0
  145.6506  136.8490  151.9873 C   0  0  0  0  0  0  0  0  0  0  0  0
  145.6282  137.6210  153.1228 C   0  0  0  0  0  0  0  0  0  0  0  0
  146.6869  138.5588  153.6084 C   0  0  0  0  0  0  0  0  0  0  0  0
  146.1720  139.9295  153.8539 N   0  3  1  0  0  0  0  0  0  0  0  0
  145.4049  140.0016  155.1200 C   0  0  0  0  0  0  0  0  0  0  0  0
  147.2231  140.9784  153.7508 C   0  0  0  0  0  0  0  0  0  0  0  0
  148.0268  141.1489  155.0546 C   0  0  2  0  0  0  0  0  0  0  0  0
  147.4903  142.2366  155.7833 O   0  0  0  0  0  0  0  0  0  0  0  0
  149.5169  141.4176  154.7719 C   0  0  0  0  0  0  0  0  0  0  0  0
  150.3843  140.8164  155.7683 N   0  0  0  0  0  0  0  0  0  0  0  0
  150.7092  139.5148  155.8920 C   0  0  0  0  0  0  0  0  0  0  0  0
  151.5286  139.1849  156.8863 N   0  0  0  0  0  0  0  0  0  0  0  0
  151.7559  140.4141  157.4816 C   0  0  0  0  0  0  0  0  0  0  0  0
  152.5420  140.7605  158.6021 C   0  0  0  0  0  0  0  0  0  0  0  0
  152.6278  142.1013  159.0406 C   0  0  0  0  0  0  0  0  0  0  0  0
  153.4817  142.4291  160.2526 C   0  0  0  0  0  0  0  0  0  0  0  0
  151.9221  143.1210  158.3523 C   0  0  0  0  0  0  0  0  0  0  0  0
  151.9983  144.5681  158.8059 C   0  0  0  0  0  0  0  0  0  0  0  0
  151.1336  142.7924  157.2299 C   0  0  0  0  0  0  0  0  0  0  0  0
  151.0544  141.4546  156.8056 C   0  0  0  0  0  0  0  0  0  0  0  0
  144.1354  137.4075  154.0022 S   0  0  0  0  0  0  0  0  0  0  0  0
  142.3991  134.5266  152.4771 H   0  0  0  0  0  0  0  0  0  0  0  0
  141.5714  136.0707  152.2043 H   0  0  0  0  0  0  0  0  0  0  0  0
  141.9181  135.5285  153.8557 H   0  0  0  0  0  0  0  0  0  0  0  0
  146.4425  136.7853  151.2554 H   0  0  0  0  0  0  0  0  0  0  0  0
  147.0984  138.1547  154.5344 H   0  0  0  0  0  0  0  0  0  0  0  0
  147.5152  138.6026  152.8995 H   0  0  0  0  0  0  0  0  0  0  0  0
  146.0524  139.8230  155.9794 H   0  0  0  0  0  0  0  0  0  0  0  0
  144.6115  139.2535  155.1328 H   0  0  0  0  0  0  0  0  0  0  0  0
  144.9268  140.9718  155.2479 H   0  0  0  0  0  0  0  0  0  0  0  0
  147.8888  140.7375  152.9206 H   0  0  0  0  0  0  0  0  0  0  0  0
  146.7765  141.9417  153.5047 H   0  0  0  0  0  0  0  0  0  0  0  0
  147.9472  140.2532  155.6697 H   0  0  0  0  0  0  0  0  0  0  0  0
  147.8699  143.0368  155.4517 H   0  0  0  0  0  0  0  0  0  0  0  0
  149.7941  141.0140  153.7972 H   0  0  0  0  0  0  0  0  0  0  0  0
  149.7150  142.4900  154.7325 H   0  0  0  0  0  0  0  0  0  0  0  0
  150.3262  138.7680  155.2118 H   0  0  0  0  0  0  0  0  0  0  0  0
  153.0798  139.9840  159.1260 H   0  0  0  0  0  0  0  0  0  0  0  0
  154.2887  143.1088  159.9779 H   0  0  0  0  0  0  0  0  0  0  0  0
  153.9301  141.5315  160.6794 H   0  0  0  0  0  0  0  0  0  0  0  0
  152.8792  142.9022  161.0281 H   0  0  0  0  0  0  0  0  0  0  0  0
  151.4120  145.2200  158.1577 H   0  0  0  0  0  0  0  0  0  0  0  0
  153.0299  144.9203  158.7895 H   0  0  0  0  0  0  0  0  0  0  0  0
  151.6128  144.6707  159.8205 H   0  0  0  0  0  0  0  0  0  0  0  0
  150.5903  143.5586  156.6972 H   0  0  0  0  0  0  0  0  0  0  0  0
  145.5153  140.1149  153.1087 H   0  0  0  0  0  0  0  0  0  0  0  0
  1  2  1  0  0  0  0
  1 25  1  0  0  0  0
  1 26  1  0  0  0  0
  1 27  1  0  0  0  0
  2 24  1  0  0  0  0
  2  3  2  0  0  0  0
  3  4  1  0  0  0  0
  4  5  2  0  0  0  0
  4 28  1  0  0  0  0
  5  6  1  0  0  0  0
  5 24  1  0  0  0  0
  6  7  1  0  0  0  0
  6 29  1  0  0  0  0
  6 30  1  0  0  0  0
  7  8  1  0  0  0  0
  7  9  1  0  0  0  0
  7 49  1  0  0  0  0
  8 31  1  0  0  0  0
  8 32  1  0  0  0  0
  8 33  1  0  0  0  0
  9 10  1  0  0  0  0
  9 34  1  0  0  0  0
  9 35  1  0  0  0  0
 10 11  1  0  0  0  0
 10 12  1  0  0  0  0
 10 36  1  0  0  0  0
 11 37  1  0  0  0  0
 12 13  1  0  0  0  0
 12 38  1  0  0  0  0
 12 39  1  0  0  0  0
 13 23  1  0  0  0  0
 13 14  1  0  0  0  0
 14 15  2  0  0  0  0
 14 40  1  0  0  0  0
 15 16  1  0  0  0  0
 16 23  2  0  0  0  0
 16 17  1  0  0  0  0
 17 18  2  0  0  0  0
 17 41  1  0  0  0  0
 18 19  1  0  0  0  0
 18 20  1  0  0  0  0
 19 42  1  0  0  0  0
 19 43  1  0  0  0  0
 19 44  1  0  0  0  0
 20 21  1  0  0  0  0
 20 22  2  0  0  0  0
 21 45  1  0  0  0  0
 21 46  1  0  0  0  0
 21 47  1  0  0  0  0
 22 23  1  0  0  0  0
 22 48  1  0  0  0  0
M  CHG  1   7   1
M  END
> <s_m_source_file>
AV-unprocessed.smi

> <i_m_source_file_index>
1225

> <i_lp_mmshare_version>
43012

> <i_f3d_flags>
0

> <s_epik_input>
W0NIM11jMW5bY0hdYyhzMSlbQ0gyXU4oW0NIM10pW0NIMl1bQ0BIXShbT0hdKVtDSDJdbihbY0hdbjIpYyhjMjMpW2NIXWMoW0NIM10pYyhbY0hdMylbQ0gzXQ==

> <s_epik_cmdline>
J2VwaWtfcHl0aG9uJywgJy1waCcsICc3LjAnLCAnLXRuJywgJzgnLCAnLW1hJywgJzIwMCcsICctbWV0YWxfYmluZGluZycsICctaW1hZScsICc8aW5maWxlLm1hZT4nLCAnLW9tYWUnLCAnPG91dGZpbGUubWFlPic=

> <r_epik_Ionization_Penalty>
1.62543

> <r_epik_Ionization_Penalty_Charging>
1.53932

> <r_epik_Ionization_Penalty_Neutral>
0.0861152

> <r_epik_State_Penalty>
1.73127

> <r_epik_Charging_Adjusted_Penalty>
3.27059

> <i_epik_Tot_Q>
1

> <i_epik_Tot_abs_Q>
1

> <r_epik_Metal_State_Penalty>
1.71387

> <b_epik_Metal_Only>
0

> <s_lp_Force_Field>
OPLS_2005

> <r_lp_Energy>
11.3728

> <b_lp_Chiralities_Consistent>
1

> <s_lp_Variant>
AV-unprocessed.smi:1225-5

> <Gold.Version>
5.8.1

> <Gold.Id.Protein>
6NUR|6NUR_protein|mol2

> <Gold.PLP.Fitness>
53.6035

> <Gold.PLP.PLP>
-44.9051

> <Gold.PLP.part.hbond>
-2.0000

> <Gold.PLP.part.metal>
0.0000

> <Gold.PLP.part.buried>
-5.4158

> <Gold.PLP.part.nonpolar>
-39.4101

> <Gold.PLP.part.repulsive>
0.1755

> <Gold.PLP.ligand.clash>
0.0000

> <Gold.PLP.ligand.torsion>
1.6161

> <Gold.PLP.Chemscore.Hbond>
3.0000

> <Gold.PLP.Chemscore.CHOScore>
0.9490

> <Gold.PLP.Chemscore.Metal>
0.0000

> <Gold.Chemscore.Hbonds>
donor molecule, donor type, donor heavy atom, donor atom, acceptor molecule, acceptor atom, score
      L1  H     7    49       P1 10175  2.00
      L1  H    11    37       P1  8028  1.00
      L1  C     4    28       P1  7948  0.73

> <Gold.PLP.Chemscore.Internal.Correction>
0.0836

> <Gold.Rescore>
     Score         DG    S(hbond)    S(metal)    S(lipo)     H(rot)  DE(clash)    DE(int)     intcor
     18.35     -19.96       1.69        0.00     127.50       2.37       0.16       1.45       ----

> <Gold.Chemscore.Fitness>
18.3501

> <Gold.Chemscore.DG>
-19.9600

> <Gold.Chemscore.ZeroCoef>
-5.4800

> <Gold.Chemscore.Hbond>
1.6894

> <Gold.Chemscore.Metal>
0.0000

> <Gold.Chemscore.Lipo>
127.4983

> <Gold.Chemscore.Internal_Hbond>
0.0000

> <Gold.Chemscore.DEClash>
0.1563

> <Gold.Chemscore.DEInternal>
1.4536

> <Gold.Chemscore.Rot>
2.3750

> <Gold.Chemscore.Internal.Correction>
   9.000000E+99

> <Gold.Chemscore.Hbonds>
donor molecule, donor type, donor heavy atom, donor atom, acceptor molecule, acceptor atom, score
      L1  H     7    49       P1 10175  0.93
      L1  H    11    37       P1  8028  0.68

> <Gold.Chemscore.Hbond.Weighted>
-5.6427

> <Gold.Chemscore.Metal.Weighted>
-0.0000

> <Gold.Chemscore.Lipo.Weighted>
-14.9173

> <Gold.Chemscore.Internal_Hbond.Weighted>
0.0000

> <Gold.Chemscore.DEClash.Weighted>
0.1563

> <Gold.Chemscore.DEInternal.Weighted>
1.4536

> <Gold.Chemscore.Rot.Weighted>
6.0800

> <Gold.Chemscore.Internal.Correction.Weighted>
   9.000000E+99

> <Gold.Protein.RotatedTorsions>
[ 6907 6896 6895 6894 ] final  -48.46 input  -60.11 | X-H torsion
[ 7974 7965 7964 7962 ] final  176.06 input  175.53 | X-H torsion
[ 8008 7997 7996 7995 ] final   -8.59 input   59.86 | X-H torsion
[ 10167 10162 10161 10158 ] final  174.64 input  -65.29 | X-H torsion
[ 10718 10713 10712 10709 ] final   85.62 input   66.30 | X-H torsion
[ 10763 10752 10751 10750 ] final  -28.59 input  -60.55 | X-H torsion
[ 11005 11000 10999 10996 ] final -160.73 input  -57.11 | X-H torsion

> <Gold.Protein.ActiveResidues>
 VAL166  LYS551  ARG553  GLY616  TRP617  ASP618  TYR619  PRO620  LYS621  CYS622 
 ASP623  PHE694  ASN695  SER759  ASP760  ASP761  ALA762  ILE779  LEU786  VAL792 
 PHE793  MET794  SER795  GLU796  ALA797  LYS798  CYS799  TRP800  GLU811  SER814 

> <Gold.Protein.RotatedAtoms>
  150.8903  134.8305  159.7288 H   0  0  0  0  0  0  0  0  0  0  0  0  # atno 6907 bound_to 6896
  152.4833  134.4659  159.9630 H   0  0  0  0  0  0  0  0  0  0  0  0  # atno 6908 bound_to 6896
  151.4722  133.3527  159.2860 H   0  0  0  0  0  0  0  0  0  0  0  0  # atno 6909 bound_to 6896
  144.7190  140.0040  143.6440 H   0  0  0  0  0  0  0  0  0  0  0  0  # atno 7974 bound_to 7965
  154.5727  140.2377  155.8168 H   0  0  0  0  0  0  0  0  0  0  0  0  # atno 8008 bound_to 7997
  156.2119  140.3023  155.9710 H   0  0  0  0  0  0  0  0  0  0  0  0  # atno 8009 bound_to 7997
  155.2683  140.0417  157.2995 H   0  0  0  0  0  0  0  0  0  0  0  0  # atno 8010 bound_to 7997
  139.5149  144.3123  152.0280 H   0  0  0  0  0  0  0  0  0  0  0  0  # atno 10167 bound_to 10162
  157.6917  131.0182  150.2850 H   0  0  0  0  0  0  0  0  0  0  0  0  # atno 10718 bound_to 10713
  153.7508  135.6926  153.4946 H   0  0  0  0  0  0  0  0  0  0  0  0  # atno 10763 bound_to 10752
  153.2005  135.4438  155.0259 H   0  0  0  0  0  0  0  0  0  0  0  0  # atno 10764 bound_to 10752
  154.8188  135.3412  154.7028 H   0  0  0  0  0  0  0  0  0  0  0  0  # atno 10765 bound_to 10752
  140.6283  134.4678  157.5228 H   0  0  0  0  0  0  0  0  0  0  0  0  # atno 11005 bound_to 11000
  146.0312  139.3337  143.0754 LP  0  0  0  0  0  0  0  0  0  0  0  0  # atno 17320 bound_to 7965
  145.8450  140.9560  143.0779 LP  0  0  0  0  0  0  0  0  0  0  0  0  # atno 17321 bound_to 7965
  140.2567  144.4111  150.6201 LP  0  0  0  0  0  0  0  0  0  0  0  0  # atno 17342 bound_to 10162
  140.6186  143.2174  151.6740 LP  0  0  0  0  0  0  0  0  0  0  0  0  # atno 17343 bound_to 10162
  156.3390  130.3812  149.7425 LP  0  0  0  0  0  0  0  0  0  0  0  0  # atno 17370 bound_to 10713
  156.4940  130.8098  151.3106 LP  0  0  0  0  0  0  0  0  0  0  0  0  # atno 17371 bound_to 10713
  139.9126  134.8313  156.1476 LP  0  0  0  0  0  0  0  0  0  0  0  0  # atno 17394 bound_to 11000
  141.0693  133.6804  156.2109 LP  0  0  0  0  0  0  0  0  0  0  0  0  # atno 17395 bound_to 11000

$$$$
