AV-unprocessed.smi:528|AV-procd|sdf|2833|dock1
  -GOLD-   2262023323D 1   1.00000     0.00000
 Structure written by MMmdl.
 45 47  0  0  0  0  0  0  0  0  1 V2000
  145.5700  135.8040  151.8445 C   0  0  0  0  0  0  0  0  0  0  0  0
  145.9022  134.7633  152.9284 C   0  0  2  0  0  0  0  0  0  0  0  0
  147.3515  134.7417  153.1219 N   0  0  0  0  0  0  0  0  0  0  0  0
  148.0082  134.0288  154.0496 C   0  0  0  0  0  0  0  0  0  0  0  0
  147.4466  133.2771  154.8478 O   0  0  0  0  0  0  0  0  0  0  0  0
  149.5351  134.1947  154.0583 C   0  0  0  0  0  0  0  0  0  0  0  0
  150.0274  135.0875  155.1214 N   0  0  0  0  0  0  0  0  0  0  0  0
  150.6242  136.2979  154.7168 C   0  0  0  0  0  0  0  0  0  0  0  0
  151.1012  137.2077  155.5881 C   0  0  0  0  0  0  0  0  0  0  0  0
  151.7899  138.4803  155.1198 C   0  0  0  0  0  0  0  0  0  0  0  0
  152.1930  139.2169  156.1552 F   0  0  0  0  0  0  0  0  0  0  0  0
  152.8527  138.2037  154.3632 F   0  0  0  0  0  0  0  0  0  0  0  0
  150.9444  139.2115  154.3947 F   0  0  0  0  0  0  0  0  0  0  0  0
  151.0048  136.8667  156.9938 C   0  0  0  0  0  0  0  0  0  0  0  0
  150.4484  135.7079  157.3975 C   0  0  0  0  0  0  0  0  0  0  0  0
  149.9140  134.7386  156.4381 C   0  0  0  0  0  0  0  0  0  0  0  0
  149.3984  133.6790  156.7952 O   0  0  0  0  0  0  0  0  0  0  0  0
  145.4063  133.3393  152.5741 C   0  0  1  0  0  0  0  0  0  0  0  0
  144.0287  133.3234  151.8638 C   0  0  0  0  0  0  0  0  0  0  0  0
  144.2945  132.5050  150.5879 C   0  0  2  0  0  0  0  0  0  0  0  0
  144.5382  131.0319  150.9623 C   0  0  0  0  0  0  0  0  0  0  0  0
  145.9347  131.0754  151.6096 C   0  0  0  0  0  0  0  0  0  0  0  0
  146.2891  132.5741  151.5549 C   0  0  1  0  0  0  0  0  0  0  0  0
  145.6922  132.9745  150.2093 C   0  0  0  0  0  0  0  0  0  0  0  0
  144.4960  135.9343  151.7213 H   0  0  0  0  0  0  0  0  0  0  0  0
  145.9852  135.5166  150.8779 H   0  0  0  0  0  0  0  0  0  0  0  0
  145.9794  136.7814  152.1025 H   0  0  0  0  0  0  0  0  0  0  0  0
  145.4175  135.0730  153.8557 H   0  0  0  0  0  0  0  0  0  0  0  0
  147.8968  135.3264  152.5051 H   0  0  0  0  0  0  0  0  0  0  0  0
  149.9836  133.2046  154.1518 H   0  0  0  0  0  0  0  0  0  0  0  0
  149.8593  134.5621  153.0826 H   0  0  0  0  0  0  0  0  0  0  0  0
  150.6764  136.4375  153.6467 H   0  0  0  0  0  0  0  0  0  0  0  0
  151.3832  137.5535  157.7367 H   0  0  0  0  0  0  0  0  0  0  0  0
  150.3930  135.4874  158.4533 H   0  0  0  0  0  0  0  0  0  0  0  0
  145.3433  132.7662  153.5008 H   0  0  0  0  0  0  0  0  0  0  0  0
  143.2479  132.8827  152.4843 H   0  0  0  0  0  0  0  0  0  0  0  0
  143.7044  134.3294  151.5931 H   0  0  0  0  0  0  0  0  0  0  0  0
  143.5376  132.6415  149.8151 H   0  0  0  0  0  0  0  0  0  0  0  0
  143.7759  130.6477  151.6409 H   0  0  0  0  0  0  0  0  0  0  0  0
  144.5470  130.3994  150.0738 H   0  0  0  0  0  0  0  0  0  0  0  0
  145.9373  130.6806  152.6261 H   0  0  0  0  0  0  0  0  0  0  0  0
  146.6447  130.4896  151.0243 H   0  0  0  0  0  0  0  0  0  0  0  0
  147.3591  132.7545  151.6483 H   0  0  0  0  0  0  0  0  0  0  0  0
  146.1183  132.4263  149.3669 H   0  0  0  0  0  0  0  0  0  0  0  0
  145.7510  134.0446  150.0044 H   0  0  0  0  0  0  0  0  0  0  0  0
  1  2  1  0  0  0  0
  1 25  1  0  0  0  0
  1 26  1  0  0  0  0
  1 27  1  0  0  0  0
  2  3  1  0  0  0  0
  2 18  1  0  0  0  0
  2 28  1  0  0  0  0
  3  4  1  0  0  0  0
  3 29  1  0  0  0  0
  4  5  2  0  0  0  0
  4  6  1  0  0  0  0
  6  7  1  0  0  0  0
  6 30  1  0  0  0  0
  6 31  1  0  0  0  0
  7 16  1  0  0  0  0
  7  8  1  0  0  0  0
  8  9  2  0  0  0  0
  8 32  1  0  0  0  0
  9 10  1  0  0  0  0
  9 14  1  0  0  0  0
 10 11  1  0  0  0  0
 10 12  1  0  0  0  0
 10 13  1  0  0  0  0
 14 15  2  0  0  0  0
 14 33  1  0  0  0  0
 15 16  1  0  0  0  0
 15 34  1  0  0  0  0
 16 17  2  0  0  0  0
 18 23  1  0  0  0  0
 18 19  1  0  0  0  0
 18 35  1  0  0  0  0
 19 20  1  0  0  0  0
 19 36  1  0  0  0  0
 19 37  1  0  0  0  0
 20 24  1  0  0  0  0
 20 21  1  0  0  0  0
 20 38  1  0  0  0  0
 21 22  1  0  0  0  0
 21 39  1  0  0  0  0
 21 40  1  0  0  0  0
 22 23  1  0  0  0  0
 22 41  1  0  0  0  0
 22 42  1  0  0  0  0
 23 24  1  0  0  0  0
 23 43  1  0  0  0  0
 24 44  1  0  0  0  0
 24 45  1  0  0  0  0
M  END
> <s_m_source_file>
AV-unprocessed.smi

> <i_m_source_file_index>
528

> <i_lp_mmshare_version>
43012

> <i_f3d_flags>
0

> <s_epik_input>
W0NIMl0xW0NIMl1bQ0BASF0oW0NIMl0yKVtDQEBIXShbQ0gyXVtDQEhdMTIpW0NASF0oW0NIM10pW05IXUMoPU8pW0NIMl1uM1tjSF1jKEMoRikoRilGKVtjSF1bY0hdYzM9Tw==

> <s_epik_cmdline>
J2VwaWtfcHl0aG9uJywgJy1waCcsICc3LjAnLCAnLXRuJywgJzgnLCAnLW1hJywgJzIwMCcsICctbWV0YWxfYmluZGluZycsICctaW1hZScsICc8aW5maWxlLm1hZT4nLCAnLW9tYWUnLCAnPG91dGZpbGUubWFlPic=

> <r_lp_tautomer_probability>
1

> <r_epik_Ionization_Penalty>
4.09479e-08

> <r_epik_Ionization_Penalty_Charging>
1.9321e-08

> <r_epik_Ionization_Penalty_Neutral>
2.16269e-08

> <r_epik_State_Penalty>
-0

> <r_epik_Charging_Adjusted_Penalty>
1.9321e-08

> <i_epik_Tot_Q>
0

> <i_epik_Tot_abs_Q>
0

> <r_epik_Metal_State_Penalty>
-0

> <b_epik_Metal_Only>
0

> <s_lp_Force_Field>
OPLS_2005

> <r_lp_Energy>
62.8308

> <b_lp_Chiralities_Consistent>
1

> <s_lp_Variant>
AV-unprocessed.smi:528-3

> <Gold.Version>
5.8.1

> <Gold.Id.Protein>
6NUR|6NUR_protein|mol2

> <Gold.PLP.Fitness>
43.3289

> <Gold.PLP.PLP>
-38.4889

> <Gold.PLP.part.hbond>
-1.0000

> <Gold.PLP.part.metal>
0.0000

> <Gold.PLP.part.buried>
-3.0557

> <Gold.PLP.part.nonpolar>
-35.2064

> <Gold.PLP.part.repulsive>
0.0266

> <Gold.PLP.ligand.clash>
0.0000

> <Gold.PLP.ligand.torsion>
0.6829

> <Gold.PLP.Chemscore.Hbond>
1.0000

> <Gold.PLP.Chemscore.CHOScore>
1.0381

> <Gold.PLP.Chemscore.Metal>
0.0000

> <Gold.Chemscore.Hbonds>
donor molecule, donor type, donor heavy atom, donor atom, acceptor molecule, acceptor atom, score
      L1  H     3    29       P1  7948  0.94
      L1  C     8    32       P1  7948  0.19
      L1  C     8    32       P1  7949  0.59

> <Gold.PLP.Chemscore.Internal.Correction>
0.0913

> <Gold.Rescore>
     Score         DG    S(hbond)    S(metal)    S(lipo)     H(rot)  DE(clash)    DE(int)     intcor
     13.10     -14.99       1.00        0.00      90.34       1.71       0.08       1.81       ----

> <Gold.Chemscore.Fitness>
13.1035

> <Gold.Chemscore.DG>
-14.9950

> <Gold.Chemscore.ZeroCoef>
-5.4800

> <Gold.Chemscore.Hbond>
0.9967

> <Gold.Chemscore.Metal>
0.0000

> <Gold.Chemscore.Lipo>
90.3421

> <Gold.Chemscore.Internal_Hbond>
0.0000

> <Gold.Chemscore.DEClash>
0.0795

> <Gold.Chemscore.DEInternal>
1.8119

> <Gold.Chemscore.Rot>
1.7125

> <Gold.Chemscore.Internal.Correction>
   9.000000E+99

> <Gold.Chemscore.Hbonds>
donor molecule, donor type, donor heavy atom, donor atom, acceptor molecule, acceptor atom, score
      L1  H     3    29       P1  7948  0.90

> <Gold.Chemscore.Hbond.Weighted>
-3.3289

> <Gold.Chemscore.Metal.Weighted>
-0.0000

> <Gold.Chemscore.Lipo.Weighted>
-10.5700

> <Gold.Chemscore.Internal_Hbond.Weighted>
0.0000

> <Gold.Chemscore.DEClash.Weighted>
0.0795

> <Gold.Chemscore.DEInternal.Weighted>
1.8119

> <Gold.Chemscore.Rot.Weighted>
4.3840

> <Gold.Chemscore.Internal.Correction.Weighted>
   9.000000E+99

> <Gold.Protein.RotatedTorsions>
[ 6907 6896 6895 6894 ] final   69.36 input  -60.11 | X-H torsion
[ 7974 7965 7964 7962 ] final  -51.76 input  175.53 | X-H torsion
[ 8008 7997 7996 7995 ] final   -3.40 input   59.86 | X-H torsion
[ 10167 10162 10161 10158 ] final -151.95 input  -65.29 | X-H torsion
[ 10718 10713 10712 10709 ] final   32.08 input   66.30 | X-H torsion
[ 10763 10752 10751 10750 ] final  -39.33 input  -60.55 | X-H torsion
[ 11005 11000 10999 10996 ] final -106.22 input  -57.11 | X-H torsion

> <Gold.Protein.ActiveResidues>
 VAL166  LYS551  ARG553  GLY616  TRP617  ASP618  TYR619  PRO620  LYS621  CYS622 
 ASP623  PHE694  ASN695  SER759  ASP760  ASP761  ALA762  ILE779  LEU786  VAL792 
 PHE793  MET794  SER795  GLU796  ALA797  LYS798  CYS799  TRP800  GLU811  SER814 

> <Gold.Protein.RotatedAtoms>
  152.4681  134.5028  159.9729 H   0  0  0  0  0  0  0  0  0  0  0  0  # atno 6907 bound_to 6896
  151.5061  133.3488  159.2885 H   0  0  0  0  0  0  0  0  0  0  0  0  # atno 6908 bound_to 6896
  150.8675  134.8070  159.7192 H   0  0  0  0  0  0  0  0  0  0  0  0  # atno 6909 bound_to 6896
  145.9155  140.7879  142.9674 H   0  0  0  0  0  0  0  0  0  0  0  0  # atno 7974 bound_to 7965
  154.6253  140.2510  155.7499 H   0  0  0  0  0  0  0  0  0  0  0  0  # atno 8008 bound_to 7997
  156.2450  140.2918  156.0500 H   0  0  0  0  0  0  0  0  0  0  0  0  # atno 8009 bound_to 7997
  155.1831  140.0389  157.2876 H   0  0  0  0  0  0  0  0  0  0  0  0  # atno 8010 bound_to 7997
  139.7223  143.8937  152.2507 H   0  0  0  0  0  0  0  0  0  0  0  0  # atno 10167 bound_to 10162
  157.2806  130.7253  149.6554 H   0  0  0  0  0  0  0  0  0  0  0  0  # atno 10718 bound_to 10713
  153.9277  135.6775  153.4746 H   0  0  0  0  0  0  0  0  0  0  0  0  # atno 10763 bound_to 10752
  153.0996  135.4834  154.8839 H   0  0  0  0  0  0  0  0  0  0  0  0  # atno 10764 bound_to 10752
  154.7445  135.3169  154.8627 H   0  0  0  0  0  0  0  0  0  0  0  0  # atno 10765 bound_to 10752
  141.1015  133.8875  157.1830 H   0  0  0  0  0  0  0  0  0  0  0  0  # atno 11005 bound_to 11000
  144.6747  140.1892  143.7398 LP  0  0  0  0  0  0  0  0  0  0  0  0  # atno 17320 bound_to 7965
  145.8617  139.2226  143.1712 LP  0  0  0  0  0  0  0  0  0  0  0  0  # atno 17321 bound_to 7965
  139.8837  144.7004  150.8849 LP  0  0  0  0  0  0  0  0  0  0  0  0  # atno 17342 bound_to 10162
  140.7756  143.3641  151.1772 LP  0  0  0  0  0  0  0  0  0  0  0  0  # atno 17343 bound_to 10162
  155.9664  130.4339  150.5027 LP  0  0  0  0  0  0  0  0  0  0  0  0  # atno 17370 bound_to 10713
  157.2970  131.0637  151.2095 LP  0  0  0  0  0  0  0  0  0  0  0  0  # atno 17371 bound_to 10713
  139.9868  135.0079  156.9882 LP  0  0  0  0  0  0  0  0  0  0  0  0  # atno 17394 bound_to 11000
  140.5010  134.1097  155.7250 LP  0  0  0  0  0  0  0  0  0  0  0  0  # atno 17395 bound_to 11000

$$$$
