AV-unprocessed.smi:46|AV-procd|sdf|422|dock1
  -GOLD-   2262016303D 1   1.00000     0.00000
 Structure written by MMmdl.
 35 36  0  0  0  0  0  0  0  0  2 V2000
  151.9424  144.3734  157.9456 C   0  0  0  0  0  0  0  0  0  0  0  0
  151.8273  143.0324  158.6854 C   0  0  0  0  0  0  0  0  0  0  0  0
  153.1730  142.5807  159.2726 C   0  0  0  0  0  0  0  0  0  0  0  0
  151.2722  142.0077  157.8142 N   0  0  0  0  0  0  0  0  0  0  0  0
  150.7835  142.1373  156.5302 C   0  0  0  0  0  0  0  0  0  0  0  0
  150.3661  140.9024  156.1175 C   0  0  0  0  0  0  0  0  0  0  0  0
  149.7603  140.4893  154.8009 C   0  0  1  0  0  0  0  0  0  0  0  0
  150.3487  139.1903  154.2485 C   0  0  0  0  0  0  0  0  0  0  0  0
  149.3742  138.7269  153.2461 N   0  3  0  0  0  0  0  0  0  0  0  0
  148.0657  139.3336  153.5698 C   0  0  0  0  0  0  0  0  0  0  0  0
  148.2645  140.1656  154.8502 C   0  0  2  0  0  0  0  0  0  0  0  0
  147.3565  141.4042  154.9436 C   0  0  0  0  0  0  0  0  0  0  0  0
  147.8417  142.4264  154.1002 O   0  0  0  0  0  0  0  0  0  0  0  0
  150.6450  140.0718  157.2396 C   0  0  0  0  0  0  0  0  0  0  0  0
  151.1832  140.7333  158.2499 N   0  0  0  0  0  0  0  0  0  0  0  0
  149.9174  141.2723  154.0565 H   0  0  0  0  0  0  0  0  0  0  0  0
  148.0783  139.5163  155.7080 H   0  0  0  0  0  0  0  0  0  0  0  0
  152.3005  145.1579  158.6127 H   0  0  0  0  0  0  0  0  0  0  0  0
  150.9749  144.6897  157.5547 H   0  0  0  0  0  0  0  0  0  0  0  0
  152.6364  144.3090  157.1069 H   0  0  0  0  0  0  0  0  0  0  0  0
  151.1362  143.1737  159.5186 H   0  0  0  0  0  0  0  0  0  0  0  0
  153.5625  143.3213  159.9715 H   0  0  0  0  0  0  0  0  0  0  0  0
  153.9217  142.4353  158.4934 H   0  0  0  0  0  0  0  0  0  0  0  0
  153.0687  141.6401  159.8144 H   0  0  0  0  0  0  0  0  0  0  0  0
  150.7746  143.0896  156.0206 H   0  0  0  0  0  0  0  0  0  0  0  0
  151.3447  139.3191  153.8241 H   0  0  0  0  0  0  0  0  0  0  0  0
  150.4107  138.4313  155.0298 H   0  0  0  0  0  0  0  0  0  0  0  0
  149.6595  139.0450  152.3309 H   0  0  0  0  0  0  0  0  0  0  0  0
  147.7698  139.9664  152.7321 H   0  0  0  0  0  0  0  0  0  0  0  0
  147.2985  138.5691  153.6968 H   0  0  0  0  0  0  0  0  0  0  0  0
  146.3417  141.1544  154.6329 H   0  0  0  0  0  0  0  0  0  0  0  0
  147.2987  141.7756  155.9672 H   0  0  0  0  0  0  0  0  0  0  0  0
  148.1463  143.1420  154.6381 H   0  0  0  0  0  0  0  0  0  0  0  0
  150.4727  139.0112  157.3484 H   0  0  0  0  0  0  0  0  0  0  0  0
  149.3165  137.7185  153.2536 H   0  0  0  0  0  0  0  0  0  0  0  0
  1  2  1  0  0  0  0
  1 18  1  0  0  0  0
  1 19  1  0  0  0  0
  1 20  1  0  0  0  0
  2  3  1  0  0  0  0
  2  4  1  0  0  0  0
  2 21  1  0  0  0  0
  3 22  1  0  0  0  0
  3 23  1  0  0  0  0
  3 24  1  0  0  0  0
  4 15  1  0  0  0  0
  4  5  1  0  0  0  0
  5  6  2  0  0  0  0
  5 25  1  0  0  0  0
  6  7  1  0  0  0  0
  6 14  1  0  0  0  0
  7 16  1  0  0  0  0
  7 11  1  0  0  0  0
  7  8  1  0  0  0  0
  8  9  1  0  0  0  0
  8 26  1  0  0  0  0
  8 27  1  0  0  0  0
  9 10  1  0  0  0  0
  9 28  1  0  0  0  0
  9 35  1  0  0  0  0
 10 11  1  0  0  0  0
 10 29  1  0  0  0  0
 10 30  1  0  0  0  0
 11 17  1  0  0  0  0
 11 12  1  0  0  0  0
 12 13  1  0  0  0  0
 12 31  1  0  0  0  0
 12 32  1  0  0  0  0
 13 33  1  0  0  0  0
 14 15  2  0  0  0  0
 14 34  1  0  0  0  0
M  CHG  1   9   1
M  END
> <s_m_source_file>
AV-unprocessed.smi

> <i_m_source_file_index>
46

> <i_lp_mmshare_version>
43012

> <i_f3d_flags>
0

> <s_epik_input>
W0NIM11bQ0hdKFtDSDNdKW4xW2NIXWMoW2NIXW4xKVtDQEBIXTJbQ0gyXVtOSF1bQ0gyXVtDQEhdMltDSDJdW09IXQ==

> <s_epik_cmdline>
J2VwaWtfcHl0aG9uJywgJy1waCcsICc3LjAnLCAnLXRuJywgJzgnLCAnLW1hJywgJzIwMCcsICctbWV0YWxfYmluZGluZycsICctaW1hZScsICc8aW5maWxlLm1hZT4nLCAnLW9tYWUnLCAnPG91dGZpbGUubWFlPic=

> <r_lp_tautomer_probability>
1

> <r_epik_Ionization_Penalty>
0.000236226

> <r_epik_Ionization_Penalty_Charging>
0.00021985

> <r_epik_Ionization_Penalty_Neutral>
1.63752e-05

> <r_epik_State_Penalty>
-0

> <r_epik_Charging_Adjusted_Penalty>
0.00021985

> <i_epik_Tot_Q>
1

> <i_epik_Tot_abs_Q>
1

> <r_epik_Metal_State_Penalty>
-0

> <b_epik_Metal_Only>
0

> <s_lp_Force_Field>
OPLS_2005

> <r_lp_Energy>
29.3902

> <b_lp_Chiralities_Consistent>
1

> <s_lp_Variant>
AV-unprocessed.smi:46-4

> <Gold.Version>
5.8.1

> <Gold.Id.Protein>
6NUR|6NUR_protein|mol2

> <Gold.PLP.Fitness>
44.4858

> <Gold.PLP.PLP>
-32.4739

> <Gold.PLP.part.hbond>
-3.6172

> <Gold.PLP.part.metal>
0.0000

> <Gold.PLP.part.buried>
-0.7756

> <Gold.PLP.part.nonpolar>
-28.0556

> <Gold.PLP.part.repulsive>
0.1026

> <Gold.PLP.ligand.clash>
0.0000

> <Gold.PLP.ligand.torsion>
0.6175

> <Gold.PLP.Chemscore.Hbond>
3.4024

> <Gold.PLP.Chemscore.CHOScore>
1.0000

> <Gold.PLP.Chemscore.Metal>
0.0000

> <Gold.Chemscore.Hbonds>
donor molecule, donor type, donor heavy atom, donor atom, acceptor molecule, acceptor atom, score
      L1  H     9    28       P1  7957  0.98
      L1  H     9    35       P1  7948  1.40
      L1  H    13    33       P1  8028  1.00
      L1  C     5    25       P1  8028  1.00

> <Gold.PLP.Chemscore.Internal.Correction>
0.0397

> <Gold.Rescore>
     Score         DG    S(hbond)    S(metal)    S(lipo)     H(rot)  DE(clash)    DE(int)     intcor
     18.30     -18.84       2.47        0.00      85.12       1.90       0.12       0.42       ----

> <Gold.Chemscore.Fitness>
18.3034

> <Gold.Chemscore.DG>
-18.8365

> <Gold.Chemscore.ZeroCoef>
-5.4800

> <Gold.Chemscore.Hbond>
2.4718

> <Gold.Chemscore.Metal>
0.0000

> <Gold.Chemscore.Lipo>
85.1153

> <Gold.Chemscore.Internal_Hbond>
0.0000

> <Gold.Chemscore.DEClash>
0.1151

> <Gold.Chemscore.DEInternal>
0.4181

> <Gold.Chemscore.Rot>
1.8976

> <Gold.Chemscore.Internal.Correction>
   9.000000E+99

> <Gold.Chemscore.Hbonds>
donor molecule, donor type, donor heavy atom, donor atom, acceptor molecule, acceptor atom, score
      L1  H     9    28       P1  7957  0.66
      L1  H     9    35       P1  7948  0.65
      L1  H    13    33       P1  8028  0.94

> <Gold.Chemscore.Hbond.Weighted>
-8.2559

> <Gold.Chemscore.Metal.Weighted>
-0.0000

> <Gold.Chemscore.Lipo.Weighted>
-9.9585

> <Gold.Chemscore.Internal_Hbond.Weighted>
0.0000

> <Gold.Chemscore.DEClash.Weighted>
0.1151

> <Gold.Chemscore.DEInternal.Weighted>
0.4181

> <Gold.Chemscore.Rot.Weighted>
4.8579

> <Gold.Chemscore.Internal.Correction.Weighted>
   9.000000E+99

> <Gold.Protein.RotatedTorsions>
[ 6907 6896 6895 6894 ] final  -72.92 input  -60.11 | X-H torsion
[ 7974 7965 7964 7962 ] final  -93.89 input  175.53 | X-H torsion
[ 8008 7997 7996 7995 ] final    1.62 input   59.86 | X-H torsion
[ 10167 10162 10161 10158 ] final -179.12 input  -65.29 | X-H torsion
[ 10718 10713 10712 10709 ] final  171.52 input   66.30 | X-H torsion
[ 10763 10752 10751 10750 ] final   73.96 input  -60.55 | X-H torsion
[ 11005 11000 10999 10996 ] final  -53.35 input  -57.11 | X-H torsion

> <Gold.Protein.ActiveResidues>
 VAL166  LYS551  ARG553  GLY616  TRP617  ASP618  TYR619  PRO620  LYS621  CYS622 
 ASP623  PHE694  ASN695  SER759  ASP760  ASP761  ALA762  ILE779  LEU786  VAL792 
 PHE793  MET794  SER795  GLU796  ALA797  LYS798  CYS799  TRP800  GLU811  SER814 

> <Gold.Protein.RotatedAtoms>
  150.7150  134.5093  159.5599 H   0  0  0  0  0  0  0  0  0  0  0  0  # atno 6907 bound_to 6896
  152.2673  134.7968  160.0429 H   0  0  0  0  0  0  0  0  0  0  0  0  # atno 6908 bound_to 6896
  151.8660  133.3431  159.3756 H   0  0  0  0  0  0  0  0  0  0  0  0  # atno 6909 bound_to 6896
  145.3806  140.9517  143.2396 H   0  0  0  0  0  0  0  0  0  0  0  0  # atno 7974 bound_to 7965
  154.6819  140.2634  155.6899 H   0  0  0  0  0  0  0  0  0  0  0  0  # atno 8008 bound_to 7997
  156.2700  140.2808  156.1289 H   0  0  0  0  0  0  0  0  0  0  0  0  # atno 8009 bound_to 7997
  155.1019  140.0374  157.2689 H   0  0  0  0  0  0  0  0  0  0  0  0  # atno 8010 bound_to 7997
  139.5401  144.2388  152.0876 H   0  0  0  0  0  0  0  0  0  0  0  0  # atno 10167 bound_to 10162
  156.9923  131.0151  151.2853 H   0  0  0  0  0  0  0  0  0  0  0  0  # atno 10718 bound_to 10713
  153.0556  135.5043  154.7972 H   0  0  0  0  0  0  0  0  0  0  0  0  # atno 10763 bound_to 10752
  154.6801  135.2967  154.9627 H   0  0  0  0  0  0  0  0  0  0  0  0  # atno 10764 bound_to 10752
  154.0417  135.6716  153.4843 H   0  0  0  0  0  0  0  0  0  0  0  0  # atno 10765 bound_to 10752
  141.0971  133.6623  156.4159 H   0  0  0  0  0  0  0  0  0  0  0  0  # atno 11005 bound_to 11000
  144.8510  139.5321  143.6856 LP  0  0  0  0  0  0  0  0  0  0  0  0  # atno 17320 bound_to 7965
  146.2844  139.6963  142.9206 LP  0  0  0  0  0  0  0  0  0  0  0  0  # atno 17321 bound_to 7965
  140.1865  144.4794  150.6501 LP  0  0  0  0  0  0  0  0  0  0  0  0  # atno 17342 bound_to 10162
  140.6626  143.2257  151.5819 LP  0  0  0  0  0  0  0  0  0  0  0  0  # atno 17343 bound_to 10162
  157.5450  130.8145  149.8075 LP  0  0  0  0  0  0  0  0  0  0  0  0  # atno 17370 bound_to 10713
  156.0202  130.3798  150.1984 LP  0  0  0  0  0  0  0  0  0  0  0  0  # atno 17371 bound_to 10713
  140.5112  134.6393  157.5285 LP  0  0  0  0  0  0  0  0  0  0  0  0  # atno 17394 bound_to 11000
  139.9811  134.7135  155.9857 LP  0  0  0  0  0  0  0  0  0  0  0  0  # atno 17395 bound_to 11000

$$$$
