AV-unprocessed.smi:1041|AV-procd|sdf|4528|dock5
  -GOLD-   22720 2543D 1   1.00000     0.00000
 Structure written by MMmdl.
 53 54  0  0  0  0  0  0  0  0  2 V2000
  146.4045  133.7545  150.7088 C   0  0  0  0  0  0  0  0  0  0  0  0
  145.1897  134.4102  150.3873 O   0  0  0  0  0  0  0  0  0  0  0  0
  145.2345  135.8008  150.6605 C   0  0  0  0  0  0  0  0  0  0  0  0
  145.2711  136.0108  152.1825 C   0  0  0  0  0  0  0  0  0  0  0  0
  146.3404  136.9507  152.6070 N   0  3  2  0  0  0  0  0  0  0  0  0
  146.5280  136.9545  154.0806 C   0  0  0  0  0  0  0  0  0  0  0  0
  147.7250  137.8283  154.4918 C   0  0  0  0  0  0  0  0  0  0  0  0
  147.5759  139.2705  153.9673 C   0  0  1  0  0  0  0  0  0  0  0  0
  148.7797  140.1615  154.3269 C   0  0  0  0  0  0  0  0  0  0  0  0
  149.3961  139.7315  155.5737 N   0  0  0  0  0  0  0  0  0  0  0  0
  150.7134  139.7301  155.8206 C   0  0  0  0  0  0  0  0  0  0  0  0
  151.5546  140.1414  155.0225 O   0  0  0  0  0  0  0  0  0  0  0  0
  151.1438  139.1718  157.1776 C   0  0  0  0  0  0  0  0  0  0  0  0
  151.5647  140.2195  158.2073 C   0  0  0  0  0  0  0  0  0  0  0  0
  150.7477  141.2379  158.6063 C   0  0  0  0  0  0  0  0  0  0  0  0
  149.3388  141.4215  158.0696 C   0  0  0  0  0  0  0  0  0  0  0  0
  151.1648  142.1876  159.5494 N   0  0  0  0  0  0  0  0  0  0  0  0
  152.3522  142.0877  160.0496 C   0  0  0  0  0  0  0  0  0  0  0  0
  152.9198  143.0450  161.0760 C   0  0  0  0  0  0  0  0  0  0  0  0
  153.2363  141.0746  159.6830 N   0  0  0  0  0  0  0  0  0  0  0  0
  152.9235  140.1227  158.7758 C   0  0  0  0  0  0  0  0  0  0  0  0
  153.7489  139.2651  158.4652 O   0  0  0  0  0  0  0  0  0  0  0  0
  147.3504  139.2269  152.4467 C   0  0  0  0  0  0  0  0  0  0  0  0
  146.1574  138.3291  152.0799 C   0  0  0  0  0  0  0  0  0  0  0  0
  154.1534  141.0492  160.1044 H   0  0  0  0  0  0  0  0  0  0  0  0
  146.3205  132.6925  150.4787 H   0  0  0  0  0  0  0  0  0  0  0  0
  146.6359  133.8514  151.7705 H   0  0  0  0  0  0  0  0  0  0  0  0
  147.2368  134.1584  150.1309 H   0  0  0  0  0  0  0  0  0  0  0  0
  146.0900  136.2636  150.1686 H   0  0  0  0  0  0  0  0  0  0  0  0
  144.3406  136.2771  150.2546 H   0  0  0  0  0  0  0  0  0  0  0  0
  144.3054  136.3705  152.5405 H   0  0  0  0  0  0  0  0  0  0  0  0
  145.4277  135.0382  152.6516 H   0  0  0  0  0  0  0  0  0  0  0  0
  145.6174  137.3127  154.5636 H   0  0  0  0  0  0  0  0  0  0  0  0
  146.6946  135.9359  154.4335 H   0  0  0  0  0  0  0  0  0  0  0  0
  147.8123  137.8240  155.5789 H   0  0  0  0  0  0  0  0  0  0  0  0
  148.6468  137.3884  154.1085 H   0  0  0  0  0  0  0  0  0  0  0  0
  146.6870  139.7080  154.4252 H   0  0  0  0  0  0  0  0  0  0  0  0
  149.5155  140.1372  153.5210 H   0  0  0  0  0  0  0  0  0  0  0  0
  148.4614  141.1990  154.4369 H   0  0  0  0  0  0  0  0  0  0  0  0
  148.7796  139.3854  156.2952 H   0  0  0  0  0  0  0  0  0  0  0  0
  150.3220  138.5827  157.5854 H   0  0  0  0  0  0  0  0  0  0  0  0
  151.9455  138.4497  157.0180 H   0  0  0  0  0  0  0  0  0  0  0  0
  148.7098  140.5774  158.3525 H   0  0  0  0  0  0  0  0  0  0  0  0
  149.3461  141.5011  156.9824 H   0  0  0  0  0  0  0  0  0  0  0  0
  148.8787  142.3273  158.4661 H   0  0  0  0  0  0  0  0  0  0  0  0
  152.9671  144.0528  160.6630 H   0  0  0  0  0  0  0  0  0  0  0  0
  153.9246  142.7548  161.3860 H   0  0  0  0  0  0  0  0  0  0  0  0
  152.2833  143.0665  161.9609 H   0  0  0  0  0  0  0  0  0  0  0  0
  147.1769  140.2346  152.0674 H   0  0  0  0  0  0  0  0  0  0  0  0
  148.2492  138.8603  151.9484 H   0  0  0  0  0  0  0  0  0  0  0  0
  146.0539  138.3128  150.9958 H   0  0  0  0  0  0  0  0  0  0  0  0
  145.2342  138.7532  152.4782 H   0  0  0  0  0  0  0  0  0  0  0  0
  147.2014  136.5954  152.2154 H   0  0  0  0  0  0  0  0  0  0  0  0
  1  2  1  0  0  0  0
  1 26  1  0  0  0  0
  1 27  1  0  0  0  0
  1 28  1  0  0  0  0
  2  3  1  0  0  0  0
  3  4  1  0  0  0  0
  3 29  1  0  0  0  0
  3 30  1  0  0  0  0
  4  5  1  0  0  0  0
  4 31  1  0  0  0  0
  4 32  1  0  0  0  0
  5 24  1  0  0  0  0
  5  6  1  0  0  0  0
  5 53  1  0  0  0  0
  6  7  1  0  0  0  0
  6 33  1  0  0  0  0
  6 34  1  0  0  0  0
  7  8  1  0  0  0  0
  7 35  1  0  0  0  0
  7 36  1  0  0  0  0
  8  9  1  0  0  0  0
  8 23  1  0  0  0  0
  8 37  1  0  0  0  0
  9 10  1  0  0  0  0
  9 38  1  0  0  0  0
  9 39  1  0  0  0  0
 10 11  1  0  0  0  0
 10 40  1  0  0  0  0
 11 12  2  0  0  0  0
 11 13  1  0  0  0  0
 13 14  1  0  0  0  0
 13 41  1  0  0  0  0
 13 42  1  0  0  0  0
 14 21  1  0  0  0  0
 14 15  2  0  0  0  0
 15 16  1  0  0  0  0
 15 17  1  0  0  0  0
 16 43  1  0  0  0  0
 16 44  1  0  0  0  0
 16 45  1  0  0  0  0
 17 18  2  0  0  0  0
 18 19  1  0  0  0  0
 18 20  1  0  0  0  0
 19 46  1  0  0  0  0
 19 47  1  0  0  0  0
 19 48  1  0  0  0  0
 20 25  1  0  0  0  0
 20 21  1  0  0  0  0
 21 22  2  0  0  0  0
 23 24  1  0  0  0  0
 23 49  1  0  0  0  0
 23 50  1  0  0  0  0
 24 51  1  0  0  0  0
 24 52  1  0  0  0  0
M  CHG  1   5   1
M  END
> <s_m_source_file>
AV-unprocessed.smi

> <i_m_source_file_index>
1041

> <i_lp_mmshare_version>
43012

> <i_f3d_flags>
0

> <s_epik_input>
W0NIM11PW0NIMl1bQ0gyXU4xW0NIMl1bQ0gyXVtDSF0oW0NIMl1bQ0gyXTEpW0NIMl1bTkhdQyg9TylbQ0gyXWMyYyhbQ0gzXSluYyhbQ0gzXSlbbkhdYzI9Tw==

> <s_epik_cmdline>
J2VwaWtfcHl0aG9uJywgJy1waCcsICc3LjAnLCAnLXRuJywgJzgnLCAnLW1hJywgJzIwMCcsICctbWV0YWxfYmluZGluZycsICctaW1hZScsICc8aW5maWxlLm1hZT4nLCAnLW9tYWUnLCAnPG91dGZpbGUubWFlPic=

> <r_lp_tautomer_probability>
0.839158

> <r_epik_Ionization_Penalty>
0.00964357

> <r_epik_Ionization_Penalty_Charging>
0.00961423

> <r_epik_Ionization_Penalty_Neutral>
2.93415e-05

> <r_epik_State_Penalty>
0.0972512

> <r_epik_Charging_Adjusted_Penalty>
0.106865

> <i_epik_Tot_Q>
1

> <i_epik_Tot_abs_Q>
1

> <r_epik_Metal_State_Penalty>
0.270886

> <b_epik_Metal_Only>
0

> <s_lp_Force_Field>
OPLS_2005

> <r_lp_Energy>
21.4676

> <b_lp_Chiralities_Consistent>
1

> <s_lp_Variant>
AV-unprocessed.smi:1041-1

> <Gold.Version>
5.8.1

> <Gold.Id.Protein>
6NUR|6NUR_protein|mol2

> <Gold.PLP.Fitness>
46.6166

> <Gold.PLP.PLP>
-36.6943

> <Gold.PLP.part.hbond>
-3.6290

> <Gold.PLP.part.metal>
0.0000

> <Gold.PLP.part.buried>
-3.6284

> <Gold.PLP.part.nonpolar>
-30.6771

> <Gold.PLP.part.repulsive>
0.3847

> <Gold.PLP.ligand.clash>
0.0000

> <Gold.PLP.ligand.torsion>
1.1119

> <Gold.PLP.Chemscore.Hbond>
4.0000

> <Gold.PLP.Chemscore.CHOScore>
0.0000

> <Gold.PLP.Chemscore.Metal>
0.0000

> <Gold.Chemscore.Hbonds>
donor molecule, donor type, donor heavy atom, donor atom, acceptor molecule, acceptor atom, score
      L1  H     5    53       P1  7948  2.00
      P1  H  7989  7998       L1    12  1.00
      P1  H  7997  8008       L1    22  1.00

> <Gold.PLP.Chemscore.Internal.Correction>
0.1461

> <Gold.Rescore>
     Score         DG    S(hbond)    S(metal)    S(lipo)     H(rot)  DE(clash)    DE(int)     intcor
     16.22     -18.56       2.95        0.00      80.75       2.43       1.22       1.13       ----

> <Gold.Chemscore.Fitness>
16.2204

> <Gold.Chemscore.DG>
-18.5629

> <Gold.Chemscore.ZeroCoef>
-5.4800

> <Gold.Chemscore.Hbond>
2.9503

> <Gold.Chemscore.Metal>
0.0000

> <Gold.Chemscore.Lipo>
80.7486

> <Gold.Chemscore.Internal_Hbond>
0.0000

> <Gold.Chemscore.DEClash>
1.2174

> <Gold.Chemscore.DEInternal>
1.1251

> <Gold.Chemscore.Rot>
2.4291

> <Gold.Chemscore.Internal.Correction>
   9.000000E+99

> <Gold.Chemscore.Hbonds>
donor molecule, donor type, donor heavy atom, donor atom, acceptor molecule, acceptor atom, score
      L1  H     5    53       P1  7948  1.00
      P1  H  7989  7998       L1    12  0.96
      P1  H  7997  8008       L1    22  0.65

> <Gold.Chemscore.Hbond.Weighted>
-9.8539

> <Gold.Chemscore.Metal.Weighted>
-0.0000

> <Gold.Chemscore.Lipo.Weighted>
-9.4476

> <Gold.Chemscore.Internal_Hbond.Weighted>
0.0000

> <Gold.Chemscore.DEClash.Weighted>
1.2174

> <Gold.Chemscore.DEInternal.Weighted>
1.1251

> <Gold.Chemscore.Rot.Weighted>
6.2186

> <Gold.Chemscore.Internal.Correction.Weighted>
   9.000000E+99

> <Gold.Protein.RotatedTorsions>
[ 6907 6896 6895 6894 ] final   25.80 input  -60.11 | X-H torsion
[ 7974 7965 7964 7962 ] final   23.07 input  175.53 | X-H torsion
[ 8008 7997 7996 7995 ] final -108.99 input   59.86 | X-H torsion
[ 10167 10162 10161 10158 ] final   94.46 input  -65.29 | X-H torsion
[ 10718 10713 10712 10709 ] final   57.95 input   66.30 | X-H torsion
[ 10763 10752 10751 10750 ] final  123.38 input  -60.55 | X-H torsion
[ 11005 11000 10999 10996 ] final  -50.24 input  -57.11 | X-H torsion

> <Gold.Protein.ActiveResidues>
 VAL166  LYS551  ARG553  GLY616  TRP617  ASP618  TYR619  PRO620  LYS621  CYS622 
 ASP623  PHE694  ASN695  SER759  ASP760  ASP761  ALA762  ILE779  LEU786  VAL792 
 PHE793  MET794  SER795  GLU796  ALA797  LYS798  CYS799  TRP800  GLU811  SER814 

> <Gold.Protein.RotatedAtoms>
  151.9780  135.0043  160.0555 H   0  0  0  0  0  0  0  0  0  0  0  0  # atno 6907 bound_to 6896
  152.1722  133.4646  159.4923 H   0  0  0  0  0  0  0  0  0  0  0  0  # atno 6908 bound_to 6896
  150.6903  134.1856  159.4308 H   0  0  0  0  0  0  0  0  0  0  0  0  # atno 6909 bound_to 6896
  146.2001  139.7796  142.8768 H   0  0  0  0  0  0  0  0  0  0  0  0  # atno 7974 bound_to 7965
  154.9526  140.0400  157.2151 H   0  0  0  0  0  0  0  0  0  0  0  0  # atno 8008 bound_to 7997
  154.7964  140.2844  155.5932 H   0  0  0  0  0  0  0  0  0  0  0  0  # atno 8009 bound_to 7997
  156.2956  140.2563  156.2822 H   0  0  0  0  0  0  0  0  0  0  0  0  # atno 8010 bound_to 7997
  139.8081  144.6785  150.9676 H   0  0  0  0  0  0  0  0  0  0  0  0  # atno 10167 bound_to 10162
  157.5557  130.8798  149.9032 H   0  0  0  0  0  0  0  0  0  0  0  0  # atno 10718 bound_to 10713
  153.6446  135.3373  155.3082 H   0  0  0  0  0  0  0  0  0  0  0  0  # atno 10763 bound_to 10752
  154.8551  135.4326  154.1968 H   0  0  0  0  0  0  0  0  0  0  0  0  # atno 10764 bound_to 10752
  153.2895  135.7016  153.7381 H   0  0  0  0  0  0  0  0  0  0  0  0  # atno 10765 bound_to 10752
  141.0805  133.6654  156.3703 H   0  0  0  0  0  0  0  0  0  0  0  0  # atno 11005 bound_to 11000
  145.3513  141.0308  143.3337 LP  0  0  0  0  0  0  0  0  0  0  0  0  # atno 17320 bound_to 7965
  144.8664  139.5101  143.6788 LP  0  0  0  0  0  0  0  0  0  0  0  0  # atno 17321 bound_to 7965
  140.7818  143.4213  151.0838 LP  0  0  0  0  0  0  0  0  0  0  0  0  # atno 17342 bound_to 10162
  139.7881  143.8258  152.3148 LP  0  0  0  0  0  0  0  0  0  0  0  0  # atno 17343 bound_to 10162
  156.0616  130.3699  150.0969 LP  0  0  0  0  0  0  0  0  0  0  0  0  # atno 17370 bound_to 10713
  156.9138  130.9660  151.3559 LP  0  0  0  0  0  0  0  0  0  0  0  0  # atno 17371 bound_to 10713
  140.5479  134.6056  157.5399 LP  0  0  0  0  0  0  0  0  0  0  0  0  # atno 17394 bound_to 11000
  139.9619  134.7439  156.0220 LP  0  0  0  0  0  0  0  0  0  0  0  0  # atno 17395 bound_to 11000

$$$$
