AV-unprocessed.smi:1448|AV-procd|sdf|5894|dock7
  -GOLD-   22720 5573D 1   1.00000     0.00000
 Structure written by MMmdl.
 49 50  0  0  0  0  0  0  0  0  2 V2000
  150.8666  141.8281  156.6854 C   0  0  0  0  0  0  0  0  0  0  0  0
  150.8449  140.5277  155.9373 C   0  0  0  0  0  0  0  0  0  0  0  0
  149.7278  139.6801  155.6825 C   0  0  0  0  0  0  0  0  0  0  0  0
  150.2847  138.6538  154.9695 C   0  0  0  0  0  0  0  0  0  0  0  0
  149.6861  137.5478  154.4525 N   0  0  0  0  0  0  0  0  0  0  0  0
  148.8045  136.7198  155.0390 C   0  0  0  0  0  0  0  0  0  0  0  0
  148.3658  136.8374  156.1828 O   0  0  0  0  0  0  0  0  0  0  0  0
  148.4620  135.7160  154.2186 N   0  0  0  0  0  0  0  0  0  0  0  0
  147.5229  134.6362  154.5265 C   0  0  0  0  0  0  0  0  0  0  0  0
  147.3684  133.5945  153.3707 C   0  0  0  0  0  0  0  0  0  0  0  0
  146.7002  134.2832  152.2019 N   0  3  0  0  0  0  0  0  0  0  0  0
  145.4203  134.9829  152.4822 C   0  0  0  0  0  0  0  0  0  0  0  0
  146.5745  133.4644  150.9673 C   0  0  0  0  0  0  0  0  0  0  0  0
  148.7673  133.0412  152.9597 C   0  0  0  0  0  0  0  0  0  0  0  0
  149.4549  132.1947  154.0493 C   0  0  0  0  0  0  0  0  0  0  0  0
  148.5599  131.0462  154.5332 C   0  0  0  0  0  0  0  0  0  0  0  0
  147.1917  131.5640  154.9943 C   0  0  0  0  0  0  0  0  0  0  0  0
  146.5156  132.3843  153.8808 C   0  0  0  0  0  0  0  0  0  0  0  0
  151.6324  138.8950  154.8213 N   0  0  0  0  0  0  0  0  0  0  0  0
  152.6410  138.1030  154.1447 C   0  0  0  0  0  0  0  0  0  0  0  0
  151.9744  140.0544  155.4233 N   0  0  0  0  0  0  0  0  0  0  0  0
  149.8665  142.1106  157.0142 H   0  0  0  0  0  0  0  0  0  0  0  0
  151.2498  142.6350  156.0602 H   0  0  0  0  0  0  0  0  0  0  0  0
  151.4998  141.7611  157.5705 H   0  0  0  0  0  0  0  0  0  0  0  0
  148.7002  139.8230  155.9806 H   0  0  0  0  0  0  0  0  0  0  0  0
  149.9576  137.3159  153.5083 H   0  0  0  0  0  0  0  0  0  0  0  0
  148.8725  135.7030  153.2960 H   0  0  0  0  0  0  0  0  0  0  0  0
  147.8019  134.1528  155.4626 H   0  0  0  0  0  0  0  0  0  0  0  0
  146.5733  135.1160  154.7540 H   0  0  0  0  0  0  0  0  0  0  0  0
  144.6829  134.3058  152.9147 H   0  0  0  0  0  0  0  0  0  0  0  0
  144.9960  135.3946  151.5656 H   0  0  0  0  0  0  0  0  0  0  0  0
  145.5626  135.8295  153.1534 H   0  0  0  0  0  0  0  0  0  0  0  0
  145.7897  132.7137  151.0657 H   0  0  0  0  0  0  0  0  0  0  0  0
  147.4997  132.9559  150.7029 H   0  0  0  0  0  0  0  0  0  0  0  0
  146.3145  134.1013  150.1212 H   0  0  0  0  0  0  0  0  0  0  0  0
  148.6672  132.4262  152.0645 H   0  0  0  0  0  0  0  0  0  0  0  0
  149.4429  133.8541  152.6935 H   0  0  0  0  0  0  0  0  0  0  0  0
  150.3881  131.7875  153.6588 H   0  0  0  0  0  0  0  0  0  0  0  0
  149.7365  132.8231  154.8942 H   0  0  0  0  0  0  0  0  0  0  0  0
  148.4238  130.3268  153.7246 H   0  0  0  0  0  0  0  0  0  0  0  0
  149.0498  130.5077  155.3451 H   0  0  0  0  0  0  0  0  0  0  0  0
  146.5568  130.7183  155.2605 H   0  0  0  0  0  0  0  0  0  0  0  0
  147.2972  132.1528  155.9050 H   0  0  0  0  0  0  0  0  0  0  0  0
  145.5307  132.7138  154.2133 H   0  0  0  0  0  0  0  0  0  0  0  0
  146.3368  131.6753  153.0730 H   0  0  0  0  0  0  0  0  0  0  0  0
  152.6403  137.0889  154.5446 H   0  0  0  0  0  0  0  0  0  0  0  0
  153.6312  138.5374  154.2881 H   0  0  0  0  0  0  0  0  0  0  0  0
  152.4218  138.0662  153.0774 H   0  0  0  0  0  0  0  0  0  0  0  0
  147.3403  135.0241  151.9530 H   0  0  0  0  0  0  0  0  0  0  0  0
  1  2  1  0  0  0  0
  1 22  1  0  0  0  0
  1 23  1  0  0  0  0
  1 24  1  0  0  0  0
  2 21  2  0  0  0  0
  2  3  1  0  0  0  0
  3  4  2  0  0  0  0
  3 25  1  0  0  0  0
  4  5  1  0  0  0  0
  4 19  1  0  0  0  0
  5  6  1  0  0  0  0
  5 26  1  0  0  0  0
  6  7  2  0  0  0  0
  6  8  1  0  0  0  0
  8  9  1  0  0  0  0
  8 27  1  0  0  0  0
  9 10  1  0  0  0  0
  9 28  1  0  0  0  0
  9 29  1  0  0  0  0
 10 18  1  0  0  0  0
 10 11  1  0  0  0  0
 10 14  1  0  0  0  0
 11 12  1  0  0  0  0
 11 13  1  0  0  0  0
 11 49  1  0  0  0  0
 12 30  1  0  0  0  0
 12 31  1  0  0  0  0
 12 32  1  0  0  0  0
 13 33  1  0  0  0  0
 13 34  1  0  0  0  0
 13 35  1  0  0  0  0
 14 15  1  0  0  0  0
 14 36  1  0  0  0  0
 14 37  1  0  0  0  0
 15 16  1  0  0  0  0
 15 38  1  0  0  0  0
 15 39  1  0  0  0  0
 16 17  1  0  0  0  0
 16 40  1  0  0  0  0
 16 41  1  0  0  0  0
 17 18  1  0  0  0  0
 17 42  1  0  0  0  0
 17 43  1  0  0  0  0
 18 44  1  0  0  0  0
 18 45  1  0  0  0  0
 19 20  1  0  0  0  0
 19 21  1  0  0  0  0
 20 46  1  0  0  0  0
 20 47  1  0  0  0  0
 20 48  1  0  0  0  0
M  CHG  1  11   1
M  END
> <s_m_source_file>
AV-unprocessed.smi

> <i_m_source_file_index>
1448

> <i_lp_mmshare_version>
43012

> <i_f3d_flags>
0

> <s_epik_input>
W0NIM11jMVtjSF1jKG4objEpW0NIM10pW05IXUMoPU8pW05IXVtDSDJdQzIoTihbQ0gzXSlbQ0gzXSlbQ0gyXVtDSDJdW0NIMl1bQ0gyXVtDSDJdMg==

> <s_epik_cmdline>
J2VwaWtfcHl0aG9uJywgJy1waCcsICc3LjAnLCAnLXRuJywgJzgnLCAnLW1hJywgJzIwMCcsICctbWV0YWxfYmluZGluZycsICctaW1hZScsICc8aW5maWxlLm1hZT4nLCAnLW9tYWUnLCAnPG91dGZpbGUubWFlPic=

> <r_lp_tautomer_probability>
1

> <r_epik_Ionization_Penalty>
0.00238996

> <r_epik_Ionization_Penalty_Charging>
0.00230992

> <r_epik_Ionization_Penalty_Neutral>
8.00361e-05

> <r_epik_State_Penalty>
0.00159337

> <r_epik_Charging_Adjusted_Penalty>
0.00390329

> <i_epik_Tot_Q>
1

> <i_epik_Tot_abs_Q>
1

> <r_epik_Metal_State_Penalty>
-0

> <b_epik_Metal_Only>
0

> <s_lp_Force_Field>
OPLS_2005

> <r_lp_Energy>
34.408

> <b_lp_Chiralities_Consistent>
1

> <s_lp_Variant>
AV-unprocessed.smi:1448-1

> <Gold.Version>
5.8.1

> <Gold.Id.Protein>
6NUR|6NUR_protein|mol2

> <Gold.PLP.Fitness>
42.7983

> <Gold.PLP.PLP>
-33.2602

> <Gold.PLP.part.hbond>
-3.6198

> <Gold.PLP.part.metal>
0.0000

> <Gold.PLP.part.buried>
-3.3374

> <Gold.PLP.part.nonpolar>
-26.3632

> <Gold.PLP.part.repulsive>
0.0800

> <Gold.PLP.ligand.clash>
0.0000

> <Gold.PLP.ligand.torsion>
0.4739

> <Gold.PLP.Chemscore.Hbond>
3.4487

> <Gold.PLP.Chemscore.CHOScore>
0.0000

> <Gold.PLP.Chemscore.Metal>
0.0000

> <Gold.Chemscore.Hbonds>
donor molecule, donor type, donor heavy atom, donor atom, acceptor molecule, acceptor atom, score
      L1  H     5    26       P1  7948  0.46
      L1  H     8    27       P1  7948  0.94
      L1  H    11    49       P1  7948  2.00
      P1  H  7989  7998       L1    21  0.10

> <Gold.PLP.Chemscore.Internal.Correction>
0.1398

> <Gold.Rescore>
     Score         DG    S(hbond)    S(metal)    S(lipo)     H(rot)  DE(clash)    DE(int)     intcor
     17.31     -17.85       2.50        0.00      66.71       1.47       0.05       0.49       ----

> <Gold.Chemscore.Fitness>
17.3147

> <Gold.Chemscore.DG>
-17.8523

> <Gold.Chemscore.ZeroCoef>
-5.4800

> <Gold.Chemscore.Hbond>
2.4962

> <Gold.Chemscore.Metal>
0.0000

> <Gold.Chemscore.Lipo>
66.7108

> <Gold.Chemscore.Internal_Hbond>
0.0000

> <Gold.Chemscore.DEClash>
0.0458

> <Gold.Chemscore.DEInternal>
0.4918

> <Gold.Chemscore.Rot>
1.4727

> <Gold.Chemscore.Internal.Correction>
   9.000000E+99

> <Gold.Chemscore.Hbonds>
donor molecule, donor type, donor heavy atom, donor atom, acceptor molecule, acceptor atom, score
      L1  H     5    26       P1  7948  0.20
      L1  H     8    27       P1  7948  0.81
      L1  H    11    49       P1  7948  0.92

> <Gold.Chemscore.Hbond.Weighted>
-8.3372

> <Gold.Chemscore.Metal.Weighted>
-0.0000

> <Gold.Chemscore.Lipo.Weighted>
-7.8052

> <Gold.Chemscore.Internal_Hbond.Weighted>
0.0000

> <Gold.Chemscore.DEClash.Weighted>
0.0458

> <Gold.Chemscore.DEInternal.Weighted>
0.4918

> <Gold.Chemscore.Rot.Weighted>
3.7700

> <Gold.Chemscore.Internal.Correction.Weighted>
   9.000000E+99

> <Gold.Protein.RotatedTorsions>
[ 6907 6896 6895 6894 ] final -170.37 input  -60.11 | X-H torsion
[ 7974 7965 7964 7962 ] final   59.13 input  175.53 | X-H torsion
[ 8008 7997 7996 7995 ] final  -11.05 input   59.86 | X-H torsion
[ 10167 10162 10161 10158 ] final -102.70 input  -65.29 | X-H torsion
[ 10718 10713 10712 10709 ] final  137.78 input   66.30 | X-H torsion
[ 10763 10752 10751 10750 ] final   67.93 input  -60.55 | X-H torsion
[ 11005 11000 10999 10996 ] final  -63.96 input  -57.11 | X-H torsion

> <Gold.Protein.ActiveResidues>
 VAL166  LYS551  ARG553  GLY616  TRP617  ASP618  TYR619  PRO620  LYS621  CYS622 
 ASP623  PHE694  ASN695  SER759  ASP760  ASP761  ALA762  ILE779  LEU786  VAL792 
 PHE793  MET794  SER795  GLU796  ALA797  LYS798  CYS799  TRP800  GLU811  SER814 

> <Gold.Protein.RotatedAtoms>
  151.5065  133.3493  159.2877 H   0  0  0  0  0  0  0  0  0  0  0  0  # atno 6907 bound_to 6896
  150.8739  134.8120  159.7186 H   0  0  0  0  0  0  0  0  0  0  0  0  # atno 6908 bound_to 6896
  152.4717  134.4954  159.9760 H   0  0  0  0  0  0  0  0  0  0  0  0  # atno 6909 bound_to 6896
  145.9105  139.3650  143.0538 H   0  0  0  0  0  0  0  0  0  0  0  0  # atno 7974 bound_to 7965
  154.5499  140.2313  155.8502 H   0  0  0  0  0  0  0  0  0  0  0  0  # atno 8008 bound_to 7997
  156.1937  140.3070  155.9345 H   0  0  0  0  0  0  0  0  0  0  0  0  # atno 8009 bound_to 7997
  155.3091  140.0435  157.3024 H   0  0  0  0  0  0  0  0  0  0  0  0  # atno 8010 bound_to 7997
  140.2279  143.3628  152.0913 H   0  0  0  0  0  0  0  0  0  0  0  0  # atno 10167 bound_to 10162
  157.4324  131.1050  151.0235 H   0  0  0  0  0  0  0  0  0  0  0  0  # atno 10718 bound_to 10713
  153.0210  135.5266  154.7056 H   0  0  0  0  0  0  0  0  0  0  0  0  # atno 10763 bound_to 10752
  154.6153  135.2883  155.0389 H   0  0  0  0  0  0  0  0  0  0  0  0  # atno 10764 bound_to 10752
  154.1396  135.6580  153.4992 H   0  0  0  0  0  0  0  0  0  0  0  0  # atno 10765 bound_to 10752
  141.1410  133.6659  156.5759 H   0  0  0  0  0  0  0  0  0  0  0  0  # atno 11005 bound_to 11000
  145.8677  140.9438  143.0667 LP  0  0  0  0  0  0  0  0  0  0  0  0  # atno 17320 bound_to 7965
  144.6743  140.0614  143.7476 LP  0  0  0  0  0  0  0  0  0  0  0  0  # atno 17321 bound_to 7965
  139.5120  144.6910  151.5758 LP  0  0  0  0  0  0  0  0  0  0  0  0  # atno 17342 bound_to 10162
  140.6207  143.9264  150.6524 LP  0  0  0  0  0  0  0  0  0  0  0  0  # atno 17343 bound_to 10162
  157.1127  130.6028  149.5486 LP  0  0  0  0  0  0  0  0  0  0  0  0  # atno 17370 bound_to 10713
  155.9918  130.4974  150.7313 LP  0  0  0  0  0  0  0  0  0  0  0  0  # atno 17371 bound_to 10713
  140.3876  134.7469  157.4701 LP  0  0  0  0  0  0  0  0  0  0  0  0  # atno 17394 bound_to 11000
  140.0591  134.6022  155.8770 LP  0  0  0  0  0  0  0  0  0  0  0  0  # atno 17395 bound_to 11000

$$$$
