AV-unprocessed.smi:2567|AV-procd|sdf|10080|dock8
  -GOLD-   2272014103D 1   1.00000     0.00000
 Structure written by MMmdl.
 33 34  0  0  0  0  0  0  0  0  1 V2000
  149.8922  144.3679  159.5450 C   0  0  0  0  0  0  0  0  0  0  0  0
  151.3942  144.0263  159.5961 C   0  0  0  0  0  0  0  0  0  0  0  0
  152.2109  145.1785  158.9801 C   0  0  0  0  0  0  0  0  0  0  0  0
  151.8005  143.8859  161.0802 C   0  0  0  0  0  0  0  0  0  0  0  0
  151.6526  142.7544  158.8239 C   0  0  0  0  0  0  0  0  0  0  0  0
  152.1992  141.6596  159.3642 N   0  0  0  0  0  0  0  0  0  0  0  0
  152.3267  140.7016  158.4229 N   0  0  0  0  0  0  0  0  0  0  0  0
  151.8210  141.3014  157.3471 C   0  0  0  0  0  0  0  0  0  0  0  0
  151.7995  140.6080  156.0203 C   0  0  2  0  0  0  0  0  0  0  0  0
  150.3633  140.3521  155.5232 C   0  0  0  0  0  0  0  0  0  0  0  0
  150.3870  139.5857  154.2781 N   0  0  0  0  0  0  0  0  0  0  0  0
  151.1461  138.3459  154.4358 C   0  0  0  0  0  0  0  0  0  0  0  0
  152.5606  138.6459  154.9645 C   0  0  0  0  0  0  0  0  0  0  0  0
  152.4707  139.3616  156.1918 O   0  0  0  0  0  0  0  0  0  0  0  0
  151.4024  142.5917  157.5266 N   0  0  0  0  0  0  0  0  0  0  0  0
  149.6718  145.2787  160.1028 H   0  0  0  0  0  0  0  0  0  0  0  0
  149.2895  143.5656  159.9725 H   0  0  0  0  0  0  0  0  0  0  0  0
  149.5510  144.5244  158.5210 H   0  0  0  0  0  0  0  0  0  0  0  0
  151.9353  145.3525  157.9392 H   0  0  0  0  0  0  0  0  0  0  0  0
  153.2797  144.9627  159.0045 H   0  0  0  0  0  0  0  0  0  0  0  0
  152.0511  146.1127  159.5194 H   0  0  0  0  0  0  0  0  0  0  0  0
  151.6026  144.8045  161.6339 H   0  0  0  0  0  0  0  0  0  0  0  0
  152.8641  143.6688  161.1869 H   0  0  0  0  0  0  0  0  0  0  0  0
  151.2465  143.0860  161.5730 H   0  0  0  0  0  0  0  0  0  0  0  0
  152.3464  141.2167  155.2971 H   0  0  0  0  0  0  0  0  0  0  0  0
  149.8024  139.8047  156.2822 H   0  0  0  0  0  0  0  0  0  0  0  0
  149.8432  141.2981  155.3707 H   0  0  0  0  0  0  0  0  0  0  0  0
  150.6308  137.6808  155.1300 H   0  0  0  0  0  0  0  0  0  0  0  0
  151.2056  137.8197  153.4830 H   0  0  0  0  0  0  0  0  0  0  0  0
  153.1006  137.7153  155.1390 H   0  0  0  0  0  0  0  0  0  0  0  0
  153.1379  139.2165  154.2353 H   0  0  0  0  0  0  0  0  0  0  0  0
  149.4368  139.3687  153.9946 H   0  0  0  0  0  0  0  0  0  0  0  0
  152.4918  141.5320  160.3223 H   0  0  0  0  0  0  0  0  0  0  0  0
  1  2  1  0  0  0  0
  1 16  1  0  0  0  0
  1 17  1  0  0  0  0
  1 18  1  0  0  0  0
  2  3  1  0  0  0  0
  2  4  1  0  0  0  0
  2  5  1  0  0  0  0
  3 19  1  0  0  0  0
  3 20  1  0  0  0  0
  3 21  1  0  0  0  0
  4 22  1  0  0  0  0
  4 23  1  0  0  0  0
  4 24  1  0  0  0  0
  5 15  2  0  0  0  0
  5  6  1  0  0  0  0
  6  7  1  0  0  0  0
  6 33  1  0  0  0  0
  7  8  2  0  0  0  0
  8  9  1  0  0  0  0
  8 15  1  0  0  0  0
  9 14  1  0  0  0  0
  9 10  1  0  0  0  0
  9 25  1  0  0  0  0
 10 11  1  0  0  0  0
 10 26  1  0  0  0  0
 10 27  1  0  0  0  0
 11 12  1  0  0  0  0
 11 32  1  0  0  0  0
 12 13  1  0  0  0  0
 12 28  1  0  0  0  0
 12 29  1  0  0  0  0
 13 14  1  0  0  0  0
 13 30  1  0  0  0  0
 13 31  1  0  0  0  0
M  END
> <s_m_source_file>
AV-unprocessed.smi

> <i_m_source_file_index>
2567

> <i_lp_mmshare_version>
43012

> <i_f3d_flags>
0

> <s_epik_input>
W0NIM11DKFtDSDNdKShbQ0gzXSljMW5bbkhdYyhuMSlbQ0BASF0yW0NIMl1bTkhdW0NIMl1bQ0gyXU8y

> <s_epik_cmdline>
J2VwaWtfcHl0aG9uJywgJy1waCcsICc3LjAnLCAnLXRuJywgJzgnLCAnLW1hJywgJzIwMCcsICctbWV0YWxfYmluZGluZycsICctaW1hZScsICc8aW5maWxlLm1hZT4nLCAnLW9tYWUnLCAnPG91dGZpbGUubWFlPic=

> <r_lp_tautomer_probability>
0.948284

> <r_epik_Ionization_Penalty>
1.10045

> <r_epik_Ionization_Penalty_Charging>
0

> <r_epik_Ionization_Penalty_Neutral>
1.10045

> <r_epik_State_Penalty>
1.2625

> <r_epik_Charging_Adjusted_Penalty>
1.2625

> <i_epik_Tot_Q>
0

> <i_epik_Tot_abs_Q>
0

> <r_epik_Metal_State_Penalty>
1.57133

> <b_epik_Metal_Only>
0

> <s_lp_Force_Field>
OPLS_2005

> <r_lp_Energy>
14.8987

> <b_lp_Chiralities_Consistent>
1

> <s_lp_Variant>
AV-unprocessed.smi:2567-5

> <Gold.Version>
5.8.1

> <Gold.Id.Protein>
6NUR|6NUR_protein|mol2

> <Gold.PLP.Fitness>
35.6520

> <Gold.PLP.PLP>
-31.2928

> <Gold.PLP.part.hbond>
-2.5830

> <Gold.PLP.part.metal>
0.0000

> <Gold.PLP.part.buried>
-5.6422

> <Gold.PLP.part.nonpolar>
-22.4093

> <Gold.PLP.part.repulsive>
0.1826

> <Gold.PLP.ligand.clash>
0.0000

> <Gold.PLP.ligand.torsion>
0.0802

> <Gold.PLP.Chemscore.Hbond>
1.5000

> <Gold.PLP.Chemscore.CHOScore>
0.0000

> <Gold.PLP.Chemscore.Metal>
0.0000

> <Gold.Chemscore.Hbonds>
donor molecule, donor type, donor heavy atom, donor atom, acceptor molecule, acceptor atom, score
      P1  H  7989  7998       L1    11  0.55
      P1  H  7997  8008       L1    14  0.57

> <Gold.PLP.Chemscore.Internal.Correction>
0.0195

> <Gold.Rescore>
     Score         DG    S(hbond)    S(metal)    S(lipo)     H(rot)  DE(clash)    DE(int)     intcor
     13.24     -13.95       0.94        0.00      72.89       1.25       0.04       0.67       ----

> <Gold.Chemscore.Fitness>
13.2448

> <Gold.Chemscore.DG>
-13.9533

> <Gold.Chemscore.ZeroCoef>
-5.4800

> <Gold.Chemscore.Hbond>
0.9378

> <Gold.Chemscore.Metal>
0.0000

> <Gold.Chemscore.Lipo>
72.8909

> <Gold.Chemscore.Internal_Hbond>
0.0000

> <Gold.Chemscore.DEClash>
0.0356

> <Gold.Chemscore.DEInternal>
0.6729

> <Gold.Chemscore.Rot>
1.2450

> <Gold.Chemscore.Internal.Correction>
   9.000000E+99

> <Gold.Chemscore.Hbonds>
donor molecule, donor type, donor heavy atom, donor atom, acceptor molecule, acceptor atom, score
      P1  H  7989  7998       L1    11  0.02
      P1  H  7997  8008       L1    14  0.01

> <Gold.Chemscore.Hbond.Weighted>
-3.1323

> <Gold.Chemscore.Metal.Weighted>
-0.0000

> <Gold.Chemscore.Lipo.Weighted>
-8.5282

> <Gold.Chemscore.Internal_Hbond.Weighted>
0.0000

> <Gold.Chemscore.DEClash.Weighted>
0.0356

> <Gold.Chemscore.DEInternal.Weighted>
0.6729

> <Gold.Chemscore.Rot.Weighted>
3.1872

> <Gold.Chemscore.Internal.Correction.Weighted>
   9.000000E+99

> <Gold.Protein.RotatedTorsions>
[ 6907 6896 6895 6894 ] final -121.72 input  -60.11 | X-H torsion
[ 7974 7965 7964 7962 ] final  -34.59 input  175.53 | X-H torsion
[ 8008 7997 7996 7995 ] final  -29.63 input   59.86 | X-H torsion
[ 10167 10162 10161 10158 ] final -161.40 input  -65.29 | X-H torsion
[ 10718 10713 10712 10709 ] final  107.42 input   66.30 | X-H torsion
[ 10763 10752 10751 10750 ] final   99.45 input  -60.55 | X-H torsion
[ 11005 11000 10999 10996 ] final  -59.65 input  -57.11 | X-H torsion

> <Gold.Protein.ActiveResidues>
 VAL166  LYS551  ARG553  GLY616  TRP617  ASP618  TYR619  PRO620  LYS621  CYS622 
 ASP623  PHE694  ASN695  SER759  ASP760  ASP761  ALA762  ILE779  LEU786  VAL792 
 PHE793  MET794  SER795  GLU796  ALA797  LYS798  CYS799  TRP800  GLU811  SER814 

> <Gold.Protein.RotatedAtoms>
  150.8509  133.7788  159.3025 H   0  0  0  0  0  0  0  0  0  0  0  0  # atno 6907 bound_to 6896
  151.5460  135.1066  159.9947 H   0  0  0  0  0  0  0  0  0  0  0  0  # atno 6908 bound_to 6896
  152.4552  133.7665  159.6831 H   0  0  0  0  0  0  0  0  0  0  0  0  # atno 6909 bound_to 6896
  146.0817  140.6057  142.8905 H   0  0  0  0  0  0  0  0  0  0  0  0  # atno 7974 bound_to 7965
  154.4282  140.1813  156.1278 H   0  0  0  0  0  0  0  0  0  0  0  0  # atno 8008 bound_to 7997
  156.0091  140.3352  155.6898 H   0  0  0  0  0  0  0  0  0  0  0  0  # atno 8009 bound_to 7997
  155.6135  140.0652  157.2690 H   0  0  0  0  0  0  0  0  0  0  0  0  # atno 8010 bound_to 7997
  139.6467  144.0158  152.2132 H   0  0  0  0  0  0  0  0  0  0  0  0  # atno 10167 bound_to 10162
  157.6629  131.0872  150.6154 H   0  0  0  0  0  0  0  0  0  0  0  0  # atno 10718 bound_to 10713
  153.3016  135.4113  155.1257 H   0  0  0  0  0  0  0  0  0  0  0  0  # atno 10763 bound_to 10752
  154.8551  135.3542  154.5845 H   0  0  0  0  0  0  0  0  0  0  0  0  # atno 10764 bound_to 10752
  153.6270  135.7062  153.5347 H   0  0  0  0  0  0  0  0  0  0  0  0  # atno 10765 bound_to 10752
  141.1256  133.6617  156.5103 H   0  0  0  0  0  0  0  0  0  0  0  0  # atno 11005 bound_to 11000
  144.7297  140.4635  143.6946 LP  0  0  0  0  0  0  0  0  0  0  0  0  # atno 17320 bound_to 7965
  145.6206  139.1523  143.3024 LP  0  0  0  0  0  0  0  0  0  0  0  0  # atno 17321 bound_to 7965
  139.9862  144.6394  150.7856 LP  0  0  0  0  0  0  0  0  0  0  0  0  # atno 17342 bound_to 10162
  140.7518  143.2979  151.3156 LP  0  0  0  0  0  0  0  0  0  0  0  0  # atno 17343 bound_to 10162
  156.6456  130.4471  149.5737 LP  0  0  0  0  0  0  0  0  0  0  0  0  # atno 17370 bound_to 10713
  156.2176  130.6717  151.1335 LP  0  0  0  0  0  0  0  0  0  0  0  0  # atno 17371 bound_to 10713
  140.4374  134.7047  157.4974 LP  0  0  0  0  0  0  0  0  0  0  0  0  # atno 17394 bound_to 11000
  140.0252  134.6487  155.9183 LP  0  0  0  0  0  0  0  0  0  0  0  0  # atno 17395 bound_to 11000

$$$$
