AV-unprocessed.smi:2177|AV-procd|sdf|8850|dock7
  -GOLD-   2272012 43D 1   1.00000     0.00000
 Structure written by MMmdl.
 42 43  0  0  0  0  0  0  0  0  1 V2000
  152.7513  138.3844  156.0521 C   0  0  0  0  0  0  0  0  0  0  0  0
  151.5318  139.2570  156.1360 C   0  0  0  0  0  0  0  0  0  0  0  0
  151.0412  139.7977  155.0330 N   0  0  0  0  0  0  0  0  0  0  0  0
  149.9795  140.5185  155.4458 N   0  0  0  0  0  0  0  0  0  0  0  0
  149.2032  141.2592  154.4703 C   0  0  0  0  0  0  0  0  0  0  0  0
  149.7928  140.4246  156.8113 C   0  0  0  0  0  0  0  0  0  0  0  0
  148.6821  141.1373  157.5141 C   0  0  0  0  0  0  0  0  0  0  0  0
  150.7851  139.6142  157.2965 C   0  0  0  0  0  0  0  0  0  0  0  0
  151.0559  139.1951  158.7203 C   0  0  0  0  0  0  0  0  0  0  0  0
  150.7112  137.7157  158.8888 C   0  0  0  0  0  0  0  0  0  0  0  0
  151.6027  136.8674  158.8755 O   0  0  0  0  0  0  0  0  0  0  0  0
  149.4126  137.4278  159.0623 N   0  0  0  0  0  0  0  0  0  0  0  0
  148.8613  136.1105  159.3592 C   0  0  2  0  0  0  0  0  0  0  0  0
  148.1567  135.5479  158.1133 C   0  0  0  0  0  0  0  0  0  0  0  0
  147.9108  136.2387  160.5641 C   0  0  1  0  0  0  0  0  0  0  0  0
  147.4041  134.9116  161.1298 C   0  0  0  0  0  0  0  0  0  0  0  0
  147.0811  135.2399  162.5797 C   0  0  0  0  0  0  0  0  0  0  0  0
  147.7753  136.5826  162.8242 C   0  0  0  0  0  0  0  0  0  0  0  0
  148.5914  136.7909  161.6810 O   0  0  0  0  0  0  0  0  0  0  0  0
  153.5105  138.7076  156.7646 H   0  0  0  0  0  0  0  0  0  0  0  0
  153.2002  138.4095  155.0586 H   0  0  0  0  0  0  0  0  0  0  0  0
  152.5037  137.3475  156.2789 H   0  0  0  0  0  0  0  0  0  0  0  0
  148.2735  140.7282  154.2656 H   0  0  0  0  0  0  0  0  0  0  0  0
  149.7617  141.3698  153.5398 H   0  0  0  0  0  0  0  0  0  0  0  0
  148.9707  142.2513  154.8577 H   0  0  0  0  0  0  0  0  0  0  0  0
  148.5629  140.7750  158.5348 H   0  0  0  0  0  0  0  0  0  0  0  0
  147.7338  140.9896  156.9972 H   0  0  0  0  0  0  0  0  0  0  0  0
  148.8809  142.2081  157.5603 H   0  0  0  0  0  0  0  0  0  0  0  0
  152.0986  139.3549  158.9966 H   0  0  0  0  0  0  0  0  0  0  0  0
  150.4654  139.7809  159.4258 H   0  0  0  0  0  0  0  0  0  0  0  0
  148.7591  138.1973  159.0571 H   0  0  0  0  0  0  0  0  0  0  0  0
  149.6757  135.4379  159.6351 H   0  0  0  0  0  0  0  0  0  0  0  0
  147.7637  134.5481  158.2977 H   0  0  0  0  0  0  0  0  0  0  0  0
  148.8451  135.4739  157.2707 H   0  0  0  0  0  0  0  0  0  0  0  0
  147.3238  136.1821  157.8075 H   0  0  0  0  0  0  0  0  0  0  0  0
  147.0652  136.8837  160.3160 H   0  0  0  0  0  0  0  0  0  0  0  0
  146.5444  134.5220  160.5837 H   0  0  0  0  0  0  0  0  0  0  0  0
  148.1937  134.1597  161.0945 H   0  0  0  0  0  0  0  0  0  0  0  0
  146.0063  135.3292  162.7403 H   0  0  0  0  0  0  0  0  0  0  0  0
  147.4571  134.4638  163.2470 H   0  0  0  0  0  0  0  0  0  0  0  0
  147.0419  137.3873  162.8916 H   0  0  0  0  0  0  0  0  0  0  0  0
  148.3710  136.5870  163.7372 H   0  0  0  0  0  0  0  0  0  0  0  0
  1  2  1  0  0  0  0
  1 20  1  0  0  0  0
  1 21  1  0  0  0  0
  1 22  1  0  0  0  0
  2  8  1  0  0  0  0
  2  3  2  0  0  0  0
  3  4  1  0  0  0  0
  4  5  1  0  0  0  0
  4  6  1  0  0  0  0
  5 23  1  0  0  0  0
  5 24  1  0  0  0  0
  5 25  1  0  0  0  0
  6  7  1  0  0  0  0
  6  8  2  0  0  0  0
  7 26  1  0  0  0  0
  7 27  1  0  0  0  0
  7 28  1  0  0  0  0
  8  9  1  0  0  0  0
  9 10  1  0  0  0  0
  9 29  1  0  0  0  0
  9 30  1  0  0  0  0
 10 11  2  0  0  0  0
 10 12  1  0  0  0  0
 12 13  1  0  0  0  0
 12 31  1  0  0  0  0
 13 14  1  0  0  0  0
 13 15  1  0  0  0  0
 13 32  1  0  0  0  0
 14 33  1  0  0  0  0
 14 34  1  0  0  0  0
 14 35  1  0  0  0  0
 15 19  1  0  0  0  0
 15 16  1  0  0  0  0
 15 36  1  0  0  0  0
 16 17  1  0  0  0  0
 16 37  1  0  0  0  0
 16 38  1  0  0  0  0
 17 18  1  0  0  0  0
 17 39  1  0  0  0  0
 17 40  1  0  0  0  0
 18 19  1  0  0  0  0
 18 41  1  0  0  0  0
 18 42  1  0  0  0  0
M  END
> <s_m_source_file>
AV-unprocessed.smi

> <i_m_source_file_index>
2177

> <i_lp_mmshare_version>
43012

> <i_f3d_flags>
0

> <s_epik_input>
W0NIM11jMW5uKFtDSDNdKWMoW0NIM10pYzFbQ0gyXUMoPU8pW05IXVtDQEhdKFtDSDNdKVtDQEBIXTJbQ0gyXVtDSDJdW0NIMl1PMg==

> <s_epik_cmdline>
J2VwaWtfcHl0aG9uJywgJy1waCcsICc3LjAnLCAnLXRuJywgJzgnLCAnLW1hJywgJzIwMCcsICctbWV0YWxfYmluZGluZycsICctaW1hZScsICc8aW5maWxlLm1hZT4nLCAnLW9tYWUnLCAnPG91dGZpbGUubWFlPic=

> <r_lp_tautomer_probability>
1

> <r_epik_Ionization_Penalty>
0.00310467

> <r_epik_Ionization_Penalty_Charging>
0

> <r_epik_Ionization_Penalty_Neutral>
0.00310467

> <r_epik_State_Penalty>
0.00218493

> <r_epik_Charging_Adjusted_Penalty>
0.00218493

> <i_epik_Tot_Q>
0

> <i_epik_Tot_abs_Q>
0

> <r_epik_Metal_State_Penalty>
-0

> <b_epik_Metal_Only>
0

> <s_lp_Force_Field>
OPLS_2005

> <r_lp_Energy>
12.0116

> <b_lp_Chiralities_Consistent>
1

> <s_lp_Variant>
AV-unprocessed.smi:2177-3

> <Gold.Version>
5.8.1

> <Gold.Id.Protein>
6NUR|6NUR_protein|mol2

> <Gold.PLP.Fitness>
41.9248

> <Gold.PLP.PLP>
-34.1266

> <Gold.PLP.part.hbond>
-3.0000

> <Gold.PLP.part.metal>
0.0000

> <Gold.PLP.part.buried>
-4.1293

> <Gold.PLP.part.nonpolar>
-26.9147

> <Gold.PLP.part.repulsive>
0.2515

> <Gold.PLP.ligand.clash>
0.0000

> <Gold.PLP.ligand.torsion>
0.5552

> <Gold.PLP.Chemscore.Hbond>
2.9600

> <Gold.PLP.Chemscore.CHOScore>
0.0000

> <Gold.PLP.Chemscore.Metal>
0.0000

> <Gold.Chemscore.Hbonds>
donor molecule, donor type, donor heavy atom, donor atom, acceptor molecule, acceptor atom, score
      P1  H  6896  6907       L1    11  0.93
      P1  H  6931  6943       L1    19  1.00
      P1  H  7989  7998       L1     3  1.00

> <Gold.PLP.Chemscore.Internal.Correction>
0.0285

> <Gold.Rescore>
     Score         DG    S(hbond)    S(metal)    S(lipo)     H(rot)  DE(clash)    DE(int)     intcor
     17.53     -18.22       2.47        0.00      70.36       1.46       0.02       0.67       ----

> <Gold.Chemscore.Fitness>
17.5258

> <Gold.Chemscore.DG>
-18.2195

> <Gold.Chemscore.ZeroCoef>
-5.4800

> <Gold.Chemscore.Hbond>
2.4707

> <Gold.Chemscore.Metal>
0.0000

> <Gold.Chemscore.Lipo>
70.3575

> <Gold.Chemscore.Internal_Hbond>
0.0000

> <Gold.Chemscore.DEClash>
0.0202

> <Gold.Chemscore.DEInternal>
0.6735

> <Gold.Chemscore.Rot>
1.4627

> <Gold.Chemscore.Internal.Correction>
   9.000000E+99

> <Gold.Chemscore.Hbonds>
donor molecule, donor type, donor heavy atom, donor atom, acceptor molecule, acceptor atom, score
      P1  H  6896  6907       L1    11  0.85
      P1  H  6931  6943       L1    19  0.28
      P1  H  7989  7998       L1     3  0.30

> <Gold.Chemscore.Hbond.Weighted>
-8.2521

> <Gold.Chemscore.Metal.Weighted>
-0.0000

> <Gold.Chemscore.Lipo.Weighted>
-8.2318

> <Gold.Chemscore.Internal_Hbond.Weighted>
0.0000

> <Gold.Chemscore.DEClash.Weighted>
0.0202

> <Gold.Chemscore.DEInternal.Weighted>
0.6735

> <Gold.Chemscore.Rot.Weighted>
3.7445

> <Gold.Chemscore.Internal.Correction.Weighted>
   9.000000E+99

> <Gold.Protein.RotatedTorsions>
[ 6907 6896 6895 6894 ] final   -8.90 input  -60.11 | X-H torsion
[ 7974 7965 7964 7962 ] final   92.91 input  175.53 | X-H torsion
[ 8008 7997 7996 7995 ] final   92.51 input   59.86 | X-H torsion
[ 10167 10162 10161 10158 ] final  137.19 input  -65.29 | X-H torsion
[ 10718 10713 10712 10709 ] final  105.35 input   66.30 | X-H torsion
[ 10763 10752 10751 10750 ] final  165.00 input  -60.55 | X-H torsion
[ 11005 11000 10999 10996 ] final  -31.58 input  -57.11 | X-H torsion

> <Gold.Protein.ActiveResidues>
 VAL166  LYS551  ARG553  GLY616  TRP617  ASP618  TYR619  PRO620  LYS621  CYS622 
 ASP623  PHE694  ASN695  SER759  ASP760  ASP761  ALA762  ILE779  LEU786  VAL792 
 PHE793  MET794  SER795  GLU796  ALA797  LYS798  CYS799  TRP800  GLU811  SER814 

> <Gold.Protein.RotatedAtoms>
  151.4264  135.1004  159.9628 H   0  0  0  0  0  0  0  0  0  0  0  0  # atno 6907 bound_to 6896
  152.4971  133.8659  159.7284 H   0  0  0  0  0  0  0  0  0  0  0  0  # atno 6908 bound_to 6896
  150.9186  133.6850  159.2865 H   0  0  0  0  0  0  0  0  0  0  0  0  # atno 6909 bound_to 6896
  145.4860  139.2277  143.2856 H   0  0  0  0  0  0  0  0  0  0  0  0  # atno 7974 bound_to 7965
  156.0361  140.3324  155.7193 H   0  0  0  0  0  0  0  0  0  0  0  0  # atno 8008 bound_to 7997
  155.5813  140.0637  157.2800 H   0  0  0  0  0  0  0  0  0  0  0  0  # atno 8009 bound_to 7997
  154.4373  140.1843  156.0967 H   0  0  0  0  0  0  0  0  0  0  0  0  # atno 8010 bound_to 7997
  139.5153  144.6423  151.5534 H   0  0  0  0  0  0  0  0  0  0  0  0  # atno 10167 bound_to 10162
  157.6708  131.0826  150.5844 H   0  0  0  0  0  0  0  0  0  0  0  0  # atno 10718 bound_to 10713
  154.3174  135.2756  155.2536 H   0  0  0  0  0  0  0  0  0  0  0  0  # atno 10763 bound_to 10752
  154.4905  135.5835  153.6459 H   0  0  0  0  0  0  0  0  0  0  0  0  # atno 10764 bound_to 10752
  152.9880  135.6133  154.3356 H   0  0  0  0  0  0  0  0  0  0  0  0  # atno 10765 bound_to 10752
  140.9480  133.7238  156.1176 H   0  0  0  0  0  0  0  0  0  0  0  0  # atno 11005 bound_to 11000
  146.2313  140.5650  142.8974 LP  0  0  0  0  0  0  0  0  0  0  0  0  # atno 17320 bound_to 7965
  144.7861  140.5940  143.6572 LP  0  0  0  0  0  0  0  0  0  0  0  0  # atno 17321 bound_to 7965
  140.6195  143.9285  150.6515 LP  0  0  0  0  0  0  0  0  0  0  0  0  # atno 17342 bound_to 10162
  140.2554  143.3563  152.1369 LP  0  0  0  0  0  0  0  0  0  0  0  0  # atno 17343 bound_to 10162
  156.6145  130.4389  149.5846 LP  0  0  0  0  0  0  0  0  0  0  0  0  # atno 17370 bound_to 10713
  156.2404  130.6848  151.1550 LP  0  0  0  0  0  0  0  0  0  0  0  0  # atno 17371 bound_to 10713
  140.7642  134.3905  157.5520 LP  0  0  0  0  0  0  0  0  0  0  0  0  # atno 17394 bound_to 11000
  139.8839  134.8981  156.2737 LP  0  0  0  0  0  0  0  0  0  0  0  0  # atno 17395 bound_to 11000

$$$$
