AV-unprocessed.smi:2093|AV-procd|sdf|8549|dock5
  -GOLD-   2272011273D 1   1.00000     0.00000
 Structure written by MMmdl.
 30 31  0  0  0  0  0  0  0  0  2 V2000
  151.8399  140.1958  158.5464 C   0  0  0  0  0  0  0  0  0  0  0  0
  151.3388  138.8978  157.8959 C   0  0  1  0  0  0  0  0  0  0  0  0
  150.0198  138.5800  158.4433 N   0  0  0  0  0  0  0  0  0  0  0  0
  149.6722  137.4692  159.1101 C   0  0  0  0  0  0  0  0  0  0  0  0
  150.5054  136.5836  159.3153 O   0  0  0  0  0  0  0  0  0  0  0  0
  148.3746  137.4503  159.4913 N   0  5  0  0  0  0  0  0  0  0  0  0
  147.9888  136.6821  160.5231 C   0  0  0  0  0  0  0  0  0  0  0  0
  147.8637  137.1453  161.7723 N   0  0  0  0  0  0  0  0  0  0  0  0
  147.4469  136.1748  162.6851 C   0  0  0  0  0  0  0  0  0  0  0  0
  147.2393  134.9465  162.1161 C   0  0  0  0  0  0  0  0  0  0  0  0
  147.5644  134.9719  160.4062 S   0  0  0  0  0  0  0  0  0  0  0  0
  151.2733  139.0187  156.3589 C   0  0  2  0  0  0  0  0  0  0  0  0
  150.7284  137.7905  155.6310 C   0  0  0  0  0  0  0  0  0  0  0  0
  151.2410  138.0006  154.2217 C   0  0  0  0  0  0  0  0  0  0  0  0
  152.5476  138.7697  154.4319 C   0  0  0  0  0  0  0  0  0  0  0  0
  152.5775  139.1422  155.8070 O   0  0  0  0  0  0  0  0  0  0  0  0
  152.8397  140.4527  158.1956 H   0  0  0  0  0  0  0  0  0  0  0  0
  151.8900  140.0967  159.6312 H   0  0  0  0  0  0  0  0  0  0  0  0
  151.1813  141.0345  158.3184 H   0  0  0  0  0  0  0  0  0  0  0  0
  152.0470  138.1090  158.1547 H   0  0  0  0  0  0  0  0  0  0  0  0
  149.2971  139.2705  158.3032 H   0  0  0  0  0  0  0  0  0  0  0  0
  147.3224  136.4475  163.7225 H   0  0  0  0  0  0  0  0  0  0  0  0
  146.9167  134.0340  162.5939 H   0  0  0  0  0  0  0  0  0  0  0  0
  150.6926  139.8980  156.0733 H   0  0  0  0  0  0  0  0  0  0  0  0
  151.1574  136.8792  156.0502 H   0  0  0  0  0  0  0  0  0  0  0  0
  149.6420  137.7102  155.6796 H   0  0  0  0  0  0  0  0  0  0  0  0
  151.3835  137.0627  153.6839 H   0  0  0  0  0  0  0  0  0  0  0  0
  150.5359  138.6112  153.6564 H   0  0  0  0  0  0  0  0  0  0  0  0
  153.4189  138.1547  154.2052 H   0  0  0  0  0  0  0  0  0  0  0  0
  152.5853  139.6567  153.7989 H   0  0  0  0  0  0  0  0  0  0  0  0
  1  2  1  0  0  0  0
  1 17  1  0  0  0  0
  1 18  1  0  0  0  0
  1 19  1  0  0  0  0
  2  3  1  0  0  0  0
  2 12  1  0  0  0  0
  2 20  1  0  0  0  0
  3  4  1  0  0  0  0
  3 21  1  0  0  0  0
  4  5  2  0  0  0  0
  4  6  1  0  0  0  0
  6  7  1  0  0  0  0
  7 11  1  0  0  0  0
  7  8  2  0  0  0  0
  8  9  1  0  0  0  0
  9 10  2  0  0  0  0
  9 22  1  0  0  0  0
 10 11  1  0  0  0  0
 10 23  1  0  0  0  0
 12 16  1  0  0  0  0
 12 13  1  0  0  0  0
 12 24  1  0  0  0  0
 13 14  1  0  0  0  0
 13 25  1  0  0  0  0
 13 26  1  0  0  0  0
 14 15  1  0  0  0  0
 14 27  1  0  0  0  0
 14 28  1  0  0  0  0
 15 16  1  0  0  0  0
 15 29  1  0  0  0  0
 15 30  1  0  0  0  0
M  CHG  1   6  -1
M  END
> <s_m_source_file>
AV-unprocessed.smi

> <i_m_source_file_index>
2093

> <i_lp_mmshare_version>
43012

> <i_f3d_flags>
0

> <s_epik_input>
TzFbQ0gyXVtDSDJdW0NIMl1bQ0BIXTFbQ0BIXShbQ0gzXSlbTkhdQyg9TylbTkhdYzJuW2NIXVtjSF1zMg==

> <s_epik_cmdline>
J2VwaWtfcHl0aG9uJywgJy1waCcsICc3LjAnLCAnLXRuJywgJzgnLCAnLW1hJywgJzIwMCcsICctbWV0YWxfYmluZGluZycsICctaW1hZScsICc8aW5maWxlLm1hZT4nLCAnLW9tYWUnLCAnPG91dGZpbGUubWFlPic=

> <r_lp_tautomer_probability>
0.999

> <r_epik_Ionization_Penalty>
8.26346

> <r_epik_Ionization_Penalty_Charging>
6.6559

> <r_epik_Ionization_Penalty_Neutral>
1.60756

> <r_epik_State_Penalty>
6.65607

> <r_epik_Charging_Adjusted_Penalty>
13.312

> <i_epik_Tot_Q>
-1

> <i_epik_Tot_abs_Q>
1

> <r_epik_Metal_State_Penalty>
2.5789

> <b_epik_Metal_Only>
1

> <s_lp_Force_Field>
OPLS_2005

> <r_lp_Energy>
13.6903

> <b_lp_Chiralities_Consistent>
1

> <s_lp_Variant>
AV-unprocessed.smi:2093-6

> <Gold.Version>
5.8.1

> <Gold.Id.Protein>
6NUR|6NUR_protein|mol2

> <Gold.PLP.Fitness>
40.2245

> <Gold.PLP.PLP>
-30.7383

> <Gold.PLP.part.hbond>
-4.2422

> <Gold.PLP.part.metal>
0.0000

> <Gold.PLP.part.buried>
-4.7119

> <Gold.PLP.part.nonpolar>
-22.5924

> <Gold.PLP.part.repulsive>
0.1514

> <Gold.PLP.ligand.clash>
0.0000

> <Gold.PLP.ligand.torsion>
0.8986

> <Gold.PLP.Chemscore.Hbond>
3.7520

> <Gold.PLP.Chemscore.CHOScore>
0.0000

> <Gold.PLP.Chemscore.Metal>
0.0000

> <Gold.Chemscore.Hbonds>
donor molecule, donor type, donor heavy atom, donor atom, acceptor molecule, acceptor atom, score
      P1  H  6896  6908       L1     5  1.00
      P1  H  6931  6943       L1     8  1.00
      P1  H  6934  6947       L1     8  0.20
      P1  H  7997  8008       L1    16  0.88

> <Gold.PLP.Chemscore.Internal.Correction>
0.0274

> <Gold.Rescore>
     Score         DG    S(hbond)    S(metal)    S(lipo)     H(rot)  DE(clash)    DE(int)     intcor
     18.04     -19.13       3.00        0.00      59.00       1.28       0.11       0.97       ----

> <Gold.Chemscore.Fitness>
18.0425

> <Gold.Chemscore.DG>
-19.1261

> <Gold.Chemscore.ZeroCoef>
-5.4800

> <Gold.Chemscore.Hbond>
2.9983

> <Gold.Chemscore.Metal>
0.0000

> <Gold.Chemscore.Lipo>
59.0002

> <Gold.Chemscore.Internal_Hbond>
0.0000

> <Gold.Chemscore.DEClash>
0.1137

> <Gold.Chemscore.DEInternal>
0.9699

> <Gold.Chemscore.Rot>
1.2778

> <Gold.Chemscore.Internal.Correction>
   9.000000E+99

> <Gold.Chemscore.Hbonds>
donor molecule, donor type, donor heavy atom, donor atom, acceptor molecule, acceptor atom, score
      P1  H  6896  6908       L1     5  1.00
      P1  H  6931  6943       L1     8  0.49
      P1  H  6934  6947       L1     8  0.01
      P1  H  7997  8008       L1    16  0.70

> <Gold.Chemscore.Hbond.Weighted>
-10.0142

> <Gold.Chemscore.Metal.Weighted>
-0.0000

> <Gold.Chemscore.Lipo.Weighted>
-6.9030

> <Gold.Chemscore.Internal_Hbond.Weighted>
0.0000

> <Gold.Chemscore.DEClash.Weighted>
0.1137

> <Gold.Chemscore.DEInternal.Weighted>
0.9699

> <Gold.Chemscore.Rot.Weighted>
3.2711

> <Gold.Chemscore.Internal.Correction.Weighted>
   9.000000E+99

> <Gold.Protein.RotatedTorsions>
[ 6907 6896 6895 6894 ] final -161.45 input  -60.11 | X-H torsion
[ 7974 7965 7964 7962 ] final -102.11 input  175.53 | X-H torsion
[ 8008 7997 7996 7995 ] final  -42.47 input   59.86 | X-H torsion
[ 10167 10162 10161 10158 ] final -105.43 input  -65.29 | X-H torsion
[ 10718 10713 10712 10709 ] final   55.21 input   66.30 | X-H torsion
[ 10763 10752 10751 10750 ] final    5.30 input  -60.55 | X-H torsion
[ 11005 11000 10999 10996 ] final  -27.74 input  -57.11 | X-H torsion

> <Gold.Protein.ActiveResidues>
 VAL166  LYS551  ARG553  GLY616  TRP617  ASP618  TYR619  PRO620  LYS621  CYS622 
 ASP623  PHE694  ASN695  SER759  ASP760  ASP761  ALA762  ILE779  LEU786  VAL792 
 PHE793  MET794  SER795  GLU796  ALA797  LYS798  CYS799  TRP800  GLU811  SER814 

> <Gold.Protein.RotatedAtoms>
  151.3648  133.3876  159.2693 H   0  0  0  0  0  0  0  0  0  0  0  0  # atno 6907 bound_to 6896
  150.9697  134.9073  159.7791 H   0  0  0  0  0  0  0  0  0  0  0  0  # atno 6908 bound_to 6896
  152.5180  134.3610  159.9337 H   0  0  0  0  0  0  0  0  0  0  0  0  # atno 6909 bound_to 6896
  145.2729  140.9304  143.2976 H   0  0  0  0  0  0  0  0  0  0  0  0  # atno 7974 bound_to 7965
  154.3999  140.1473  156.3360 H   0  0  0  0  0  0  0  0  0  0  0  0  # atno 8008 bound_to 7997
  155.8400  140.3462  155.5605 H   0  0  0  0  0  0  0  0  0  0  0  0  # atno 8009 bound_to 7997
  155.8097  140.0882  157.1901 H   0  0  0  0  0  0  0  0  0  0  0  0  # atno 8010 bound_to 7997
  140.1987  143.3836  152.1147 H   0  0  0  0  0  0  0  0  0  0  0  0  # atno 10167 bound_to 10162
  157.5325  130.8640  149.8708 H   0  0  0  0  0  0  0  0  0  0  0  0  # atno 10718 bound_to 10713
  153.2610  135.6923  153.7578 H   0  0  0  0  0  0  0  0  0  0  0  0  # atno 10763 bound_to 10752
  153.6637  135.3356  155.3135 H   0  0  0  0  0  0  0  0  0  0  0  0  # atno 10764 bound_to 10752
  154.8430  135.4483  154.1601 H   0  0  0  0  0  0  0  0  0  0  0  0  # atno 10765 bound_to 10752
  140.9147  133.7438  156.0718 H   0  0  0  0  0  0  0  0  0  0  0  0  # atno 11005 bound_to 11000
  144.9319  139.4288  143.6491 LP  0  0  0  0  0  0  0  0  0  0  0  0  # atno 17320 bound_to 7965
  146.3241  139.8235  142.8922 LP  0  0  0  0  0  0  0  0  0  0  0  0  # atno 17321 bound_to 7965
  139.5226  144.7061  151.5350 LP  0  0  0  0  0  0  0  0  0  0  0  0  # atno 17342 bound_to 10162
  140.6406  143.8897  150.6688 LP  0  0  0  0  0  0  0  0  0  0  0  0  # atno 17343 bound_to 10162
  156.0433  130.3733  150.1379 LP  0  0  0  0  0  0  0  0  0  0  0  0  # atno 17370 bound_to 10713
  156.9563  130.9791  151.3488 LP  0  0  0  0  0  0  0  0  0  0  0  0  # atno 17371 bound_to 10713
  140.8065  134.3448  157.5424 LP  0  0  0  0  0  0  0  0  0  0  0  0  # atno 17394 bound_to 11000
  139.8764  134.9229  156.3311 LP  0  0  0  0  0  0  0  0  0  0  0  0  # atno 17395 bound_to 11000

$$$$
