AV-unprocessed.smi:1448|AV-procd|sdf|5894|dock10
  -GOLD-   22720 5583D 1   1.00000     0.00000
 Structure written by MMmdl.
 49 50  0  0  0  0  0  0  0  0  2 V2000
  150.5097  142.2734  156.1677 C   0  0  0  0  0  0  0  0  0  0  0  0
  150.4113  140.9062  155.5574 C   0  0  0  0  0  0  0  0  0  0  0  0
  149.2334  140.1748  155.2275 C   0  0  0  0  0  0  0  0  0  0  0  0
  149.7357  139.0125  154.7092 C   0  0  0  0  0  0  0  0  0  0  0  0
  149.0667  137.9334  154.2227 N   0  0  0  0  0  0  0  0  0  0  0  0
  147.8884  137.4261  154.6245 C   0  0  0  0  0  0  0  0  0  0  0  0
  147.1858  137.8800  155.5272 O   0  0  0  0  0  0  0  0  0  0  0  0
  147.5669  136.3308  153.9211 N   0  0  0  0  0  0  0  0  0  0  0  0
  146.3550  135.5269  154.0878 C   0  0  0  0  0  0  0  0  0  0  0  0
  145.7676  134.9956  152.7396 C   0  0  0  0  0  0  0  0  0  0  0  0
  146.8047  134.1055  152.0922 N   0  3  0  0  0  0  0  0  0  0  0  0
  146.4167  133.4451  150.8195 C   0  0  0  0  0  0  0  0  0  0  0  0
  147.4565  133.1237  152.9987 C   0  0  0  0  0  0  0  0  0  0  0  0
  144.4498  134.2053  153.0056 C   0  0  0  0  0  0  0  0  0  0  0  0
  143.2885  135.0744  153.5278 C   0  0  0  0  0  0  0  0  0  0  0  0
  143.0056  136.2677  152.6058 C   0  0  0  0  0  0  0  0  0  0  0  0
  144.2732  137.0972  152.3653 C   0  0  0  0  0  0  0  0  0  0  0  0
  145.4090  136.2121  151.8211 C   0  0  0  0  0  0  0  0  0  0  0  0
  151.1113  139.0712  154.7364 N   0  0  0  0  0  0  0  0  0  0  0  0
  152.0840  138.0900  154.2967 C   0  0  0  0  0  0  0  0  0  0  0  0
  151.5244  140.2438  155.2637 N   0  0  0  0  0  0  0  0  0  0  0  0
  149.5224  142.7105  156.3169 H   0  0  0  0  0  0  0  0  0  0  0  0
  151.0778  142.9495  155.5281 H   0  0  0  0  0  0  0  0  0  0  0  0
  151.0053  142.2353  157.1380 H   0  0  0  0  0  0  0  0  0  0  0  0
  148.2043  140.4739  155.3565 H   0  0  0  0  0  0  0  0  0  0  0  0
  149.5309  137.4449  153.4713 H   0  0  0  0  0  0  0  0  0  0  0  0
  148.2055  136.0335  153.1974 H   0  0  0  0  0  0  0  0  0  0  0  0
  146.5389  134.7132  154.7892 H   0  0  0  0  0  0  0  0  0  0  0  0
  145.6394  136.1614  154.6065 H   0  0  0  0  0  0  0  0  0  0  0  0
  145.5152  132.8440  150.9417 H   0  0  0  0  0  0  0  0  0  0  0  0
  147.2111  132.7851  150.4688 H   0  0  0  0  0  0  0  0  0  0  0  0
  146.2555  134.1702  150.0222 H   0  0  0  0  0  0  0  0  0  0  0  0
  146.7883  132.2948  153.2343 H   0  0  0  0  0  0  0  0  0  0  0  0
  147.7877  133.5696  153.9346 H   0  0  0  0  0  0  0  0  0  0  0  0
  148.3426  132.7047  152.5207 H   0  0  0  0  0  0  0  0  0  0  0  0
  144.1236  133.7204  152.0847 H   0  0  0  0  0  0  0  0  0  0  0  0
  144.6167  133.4043  153.7258 H   0  0  0  0  0  0  0  0  0  0  0  0
  142.3893  134.4642  153.6177 H   0  0  0  0  0  0  0  0  0  0  0  0
  143.5065  135.4306  154.5346 H   0  0  0  0  0  0  0  0  0  0  0  0
  142.6204  135.9057  151.6516 H   0  0  0  0  0  0  0  0  0  0  0  0
  142.2236  136.8944  153.0356 H   0  0  0  0  0  0  0  0  0  0  0  0
  144.0549  137.8907  151.6498 H   0  0  0  0  0  0  0  0  0  0  0  0
  144.5754  137.6012  153.2828 H   0  0  0  0  0  0  0  0  0  0  0  0
  146.2895  136.8242  151.6231 H   0  0  0  0  0  0  0  0  0  0  0  0
  145.0600  135.8666  150.8484 H   0  0  0  0  0  0  0  0  0  0  0  0
  151.8932  137.1372  154.7909 H   0  0  0  0  0  0  0  0  0  0  0  0
  153.0962  138.4162  154.5393 H   0  0  0  0  0  0  0  0  0  0  0  0
  152.0049  137.9547  153.2178 H   0  0  0  0  0  0  0  0  0  0  0  0
  147.5450  134.7403  151.8284 H   0  0  0  0  0  0  0  0  0  0  0  0
  1  2  1  0  0  0  0
  1 22  1  0  0  0  0
  1 23  1  0  0  0  0
  1 24  1  0  0  0  0
  2 21  2  0  0  0  0
  2  3  1  0  0  0  0
  3  4  2  0  0  0  0
  3 25  1  0  0  0  0
  4  5  1  0  0  0  0
  4 19  1  0  0  0  0
  5  6  1  0  0  0  0
  5 26  1  0  0  0  0
  6  7  2  0  0  0  0
  6  8  1  0  0  0  0
  8  9  1  0  0  0  0
  8 27  1  0  0  0  0
  9 10  1  0  0  0  0
  9 28  1  0  0  0  0
  9 29  1  0  0  0  0
 10 18  1  0  0  0  0
 10 11  1  0  0  0  0
 10 14  1  0  0  0  0
 11 12  1  0  0  0  0
 11 13  1  0  0  0  0
 11 49  1  0  0  0  0
 12 30  1  0  0  0  0
 12 31  1  0  0  0  0
 12 32  1  0  0  0  0
 13 33  1  0  0  0  0
 13 34  1  0  0  0  0
 13 35  1  0  0  0  0
 14 15  1  0  0  0  0
 14 36  1  0  0  0  0
 14 37  1  0  0  0  0
 15 16  1  0  0  0  0
 15 38  1  0  0  0  0
 15 39  1  0  0  0  0
 16 17  1  0  0  0  0
 16 40  1  0  0  0  0
 16 41  1  0  0  0  0
 17 18  1  0  0  0  0
 17 42  1  0  0  0  0
 17 43  1  0  0  0  0
 18 44  1  0  0  0  0
 18 45  1  0  0  0  0
 19 20  1  0  0  0  0
 19 21  1  0  0  0  0
 20 46  1  0  0  0  0
 20 47  1  0  0  0  0
 20 48  1  0  0  0  0
M  CHG  1  11   1
M  END
> <s_m_source_file>
AV-unprocessed.smi

> <i_m_source_file_index>
1448

> <i_lp_mmshare_version>
43012

> <i_f3d_flags>
0

> <s_epik_input>
W0NIM11jMVtjSF1jKG4objEpW0NIM10pW05IXUMoPU8pW05IXVtDSDJdQzIoTihbQ0gzXSlbQ0gzXSlbQ0gyXVtDSDJdW0NIMl1bQ0gyXVtDSDJdMg==

> <s_epik_cmdline>
J2VwaWtfcHl0aG9uJywgJy1waCcsICc3LjAnLCAnLXRuJywgJzgnLCAnLW1hJywgJzIwMCcsICctbWV0YWxfYmluZGluZycsICctaW1hZScsICc8aW5maWxlLm1hZT4nLCAnLW9tYWUnLCAnPG91dGZpbGUubWFlPic=

> <r_lp_tautomer_probability>
1

> <r_epik_Ionization_Penalty>
0.00238996

> <r_epik_Ionization_Penalty_Charging>
0.00230992

> <r_epik_Ionization_Penalty_Neutral>
8.00361e-05

> <r_epik_State_Penalty>
0.00159337

> <r_epik_Charging_Adjusted_Penalty>
0.00390329

> <i_epik_Tot_Q>
1

> <i_epik_Tot_abs_Q>
1

> <r_epik_Metal_State_Penalty>
-0

> <b_epik_Metal_Only>
0

> <s_lp_Force_Field>
OPLS_2005

> <r_lp_Energy>
34.408

> <b_lp_Chiralities_Consistent>
1

> <s_lp_Variant>
AV-unprocessed.smi:1448-1

> <Gold.Version>
5.8.1

> <Gold.Id.Protein>
6NUR|6NUR_protein|mol2

> <Gold.PLP.Fitness>
43.6667

> <Gold.PLP.PLP>
-32.9357

> <Gold.PLP.part.hbond>
-3.7884

> <Gold.PLP.part.metal>
0.0000

> <Gold.PLP.part.buried>
-3.4756

> <Gold.PLP.part.nonpolar>
-27.2470

> <Gold.PLP.part.repulsive>
0.0803

> <Gold.PLP.ligand.clash>
0.0000

> <Gold.PLP.ligand.torsion>
0.5468

> <Gold.PLP.Chemscore.Hbond>
3.8949

> <Gold.PLP.Chemscore.CHOScore>
0.0000

> <Gold.PLP.Chemscore.Metal>
0.0000

> <Gold.Chemscore.Hbonds>
donor molecule, donor type, donor heavy atom, donor atom, acceptor molecule, acceptor atom, score
      L1  H     5    26       P1  7948  0.68
      L1  H     8    27       P1  7948  1.00
      L1  H    11    49       P1  7948  2.00
      P1  H  7989  7998       L1    21  0.27

> <Gold.PLP.Chemscore.Internal.Correction>
0.1398

> <Gold.Rescore>
     Score         DG    S(hbond)    S(metal)    S(lipo)     H(rot)  DE(clash)    DE(int)     intcor
     17.21     -18.01       2.61        0.00      64.85       1.47       0.26       0.54       ----

> <Gold.Chemscore.Fitness>
17.2149

> <Gold.Chemscore.DG>
-18.0110

> <Gold.Chemscore.ZeroCoef>
-5.4800

> <Gold.Chemscore.Hbond>
2.6087

> <Gold.Chemscore.Metal>
0.0000

> <Gold.Chemscore.Lipo>
64.8543

> <Gold.Chemscore.Internal_Hbond>
0.0000

> <Gold.Chemscore.DEClash>
0.2555

> <Gold.Chemscore.DEInternal>
0.5406

> <Gold.Chemscore.Rot>
1.4727

> <Gold.Chemscore.Internal.Correction>
   9.000000E+99

> <Gold.Chemscore.Hbonds>
donor molecule, donor type, donor heavy atom, donor atom, acceptor molecule, acceptor atom, score
      L1  H     5    26       P1  7948  0.60
      L1  H     8    27       P1  7948  0.92
      L1  H    11    49       P1  7948  0.58

> <Gold.Chemscore.Hbond.Weighted>
-8.7130

> <Gold.Chemscore.Metal.Weighted>
-0.0000

> <Gold.Chemscore.Lipo.Weighted>
-7.5879

> <Gold.Chemscore.Internal_Hbond.Weighted>
0.0000

> <Gold.Chemscore.DEClash.Weighted>
0.2555

> <Gold.Chemscore.DEInternal.Weighted>
0.5406

> <Gold.Chemscore.Rot.Weighted>
3.7700

> <Gold.Chemscore.Internal.Correction.Weighted>
   9.000000E+99

> <Gold.Protein.RotatedTorsions>
[ 6907 6896 6895 6894 ] final  -72.30 input  -60.11 | X-H torsion
[ 7974 7965 7964 7962 ] final  -17.52 input  175.53 | X-H torsion
[ 8008 7997 7996 7995 ] final  -36.60 input   59.86 | X-H torsion
[ 10167 10162 10161 10158 ] final  -55.54 input  -65.29 | X-H torsion
[ 10718 10713 10712 10709 ] final -110.16 input   66.30 | X-H torsion
[ 10763 10752 10751 10750 ] final  -64.34 input  -60.55 | X-H torsion
[ 11005 11000 10999 10996 ] final   41.30 input  -57.11 | X-H torsion

> <Gold.Protein.ActiveResidues>
 VAL166  LYS551  ARG553  GLY616  TRP617  ASP618  TYR619  PRO620  LYS621  CYS622 
 ASP623  PHE694  ASN695  SER759  ASP760  ASP761  ALA762  ILE779  LEU786  VAL792 
 PHE793  MET794  SER795  GLU796  ALA797  LYS798  CYS799  TRP800  GLU811  SER814 

> <Gold.Protein.RotatedAtoms>
  150.7176  134.5183  159.5640 H   0  0  0  0  0  0  0  0  0  0  0  0  # atno 6907 bound_to 6896
  152.2744  134.7895  160.0417 H   0  0  0  0  0  0  0  0  0  0  0  0  # atno 6908 bound_to 6896
  151.8563  133.3413  159.3726 H   0  0  0  0  0  0  0  0  0  0  0  0  # atno 6909 bound_to 6896
  146.1937  140.3790  142.8448 H   0  0  0  0  0  0  0  0  0  0  0  0  # atno 7974 bound_to 7965
  154.4070  140.1626  156.2400 H   0  0  0  0  0  0  0  0  0  0  0  0  # atno 8008 bound_to 7997
  155.9209  140.3421  155.6149 H   0  0  0  0  0  0  0  0  0  0  0  0  # atno 8009 bound_to 7997
  155.7223  140.0770  157.2316 H   0  0  0  0  0  0  0  0  0  0  0  0  # atno 8010 bound_to 7997
  140.6369  143.2487  151.5094 H   0  0  0  0  0  0  0  0  0  0  0  0  # atno 10167 bound_to 10162
  156.0575  130.5801  150.8198 H   0  0  0  0  0  0  0  0  0  0  0  0  # atno 10718 bound_to 10713
  154.3286  135.6181  153.5541 H   0  0  0  0  0  0  0  0  0  0  0  0  # atno 10763 bound_to 10752
  152.9813  135.5741  154.4987 H   0  0  0  0  0  0  0  0  0  0  0  0  # atno 10764 bound_to 10752
  154.4669  135.2858  155.1648 H   0  0  0  0  0  0  0  0  0  0  0  0  # atno 10765 bound_to 10752
  140.1847  134.4060  155.8180 H   0  0  0  0  0  0  0  0  0  0  0  0  # atno 11005 bound_to 11000
  144.8537  140.7039  143.6151 LP  0  0  0  0  0  0  0  0  0  0  0  0  # atno 17320 bound_to 7965
  145.3711  139.1658  143.4331 LP  0  0  0  0  0  0  0  0  0  0  0  0  # atno 17321 bound_to 7965
  139.5579  144.2230  152.1643 LP  0  0  0  0  0  0  0  0  0  0  0  0  # atno 17342 bound_to 10162
  140.1489  144.5133  150.6699 LP  0  0  0  0  0  0  0  0  0  0  0  0  # atno 17343 bound_to 10162
  157.5558  131.0945  150.9631 LP  0  0  0  0  0  0  0  0  0  0  0  0  # atno 17370 bound_to 10713
  156.9880  130.5552  149.5301 LP  0  0  0  0  0  0  0  0  0  0  0  0  # atno 17371 bound_to 10713
  141.2224  133.7017  156.7992 LP  0  0  0  0  0  0  0  0  0  0  0  0  # atno 17394 bound_to 11000
  140.2227  134.8745  157.3394 LP  0  0  0  0  0  0  0  0  0  0  0  0  # atno 17395 bound_to 11000

$$$$
