AV-unprocessed.smi:613|AV-procd|sdf|3064|dock6
  -GOLD-   2262023583D 1   1.00000     0.00000
 Structure written by MMmdl.
 38 39  0  0  0  0  0  0  0  0  1 V2000
  149.0540  141.4181  157.9462 C   0  0  0  0  0  0  0  0  0  0  0  0
  150.2265  142.1722  157.5175 N   0  0  0  0  0  0  0  0  0  0  0  0
  151.0252  141.6490  156.4076 C   0  0  0  0  0  0  0  0  0  0  0  0
  150.5772  140.2454  155.9581 C   0  0  2  0  0  0  0  0  0  0  0  0
  151.0863  139.1510  156.9171 C   0  0  0  0  0  0  0  0  0  0  0  0
  150.7295  137.8091  156.4630 N   0  0  0  0  0  0  0  0  0  0  0  0
  151.1755  136.7823  157.4138 C   0  0  0  0  0  0  0  0  0  0  0  0
  152.6934  136.7310  157.6287 C   0  0  0  0  0  0  0  0  0  0  0  0
  153.1430  136.9531  158.8663 N   0  0  0  0  0  0  0  0  0  0  0  0
  153.4496  136.4984  156.6880 O   0  0  0  0  0  0  0  0  0  0  0  0
  151.2124  137.6070  155.0944 C   0  0  0  0  0  0  0  0  0  0  0  0
  150.7249  138.7160  154.1471 C   0  0  0  0  0  0  0  0  0  0  0  0
  151.1092  139.9862  154.6610 O   0  0  0  0  0  0  0  0  0  0  0  0
  150.7689  143.1492  158.3869 C   0  0  0  0  0  0  0  0  0  0  0  0
  151.7499  144.0717  157.9470 C   0  0  0  0  0  0  0  0  0  0  0  0
  152.2393  145.0108  158.8710 C   0  0  0  0  0  0  0  0  0  0  0  0
  151.7182  144.9672  160.1749 C   0  0  0  0  0  0  0  0  0  0  0  0
  150.7849  144.0677  160.5527 N   0  0  0  0  0  0  0  0  0  0  0  0
  150.3227  143.1753  159.6706 N   0  0  0  0  0  0  0  0  0  0  0  0
  148.1870  142.0728  158.0376 H   0  0  0  0  0  0  0  0  0  0  0  0
  149.2344  140.9349  158.9071 H   0  0  0  0  0  0  0  0  0  0  0  0
  148.8041  140.6400  157.2244 H   0  0  0  0  0  0  0  0  0  0  0  0
  150.9624  142.3398  155.5662 H   0  0  0  0  0  0  0  0  0  0  0  0
  152.0790  141.6364  156.6877 H   0  0  0  0  0  0  0  0  0  0  0  0
  149.4871  140.2034  155.9174 H   0  0  0  0  0  0  0  0  0  0  0  0
  152.1701  139.2325  157.0191 H   0  0  0  0  0  0  0  0  0  0  0  0
  150.6684  139.3266  157.9095 H   0  0  0  0  0  0  0  0  0  0  0  0
  150.6755  136.9236  158.3740 H   0  0  0  0  0  0  0  0  0  0  0  0
  150.8719  135.7974  157.0563 H   0  0  0  0  0  0  0  0  0  0  0  0
  154.1345  136.9281  159.0549 H   0  0  0  0  0  0  0  0  0  0  0  0
  152.4872  137.1443  159.6101 H   0  0  0  0  0  0  0  0  0  0  0  0
  152.3033  137.5801  155.0862 H   0  0  0  0  0  0  0  0  0  0  0  0
  150.8742  136.6490  154.6993 H   0  0  0  0  0  0  0  0  0  0  0  0
  151.1588  138.5860  153.1556 H   0  0  0  0  0  0  0  0  0  0  0  0
  149.6408  138.6760  154.0297 H   0  0  0  0  0  0  0  0  0  0  0  0
  152.1316  144.0761  156.9375 H   0  0  0  0  0  0  0  0  0  0  0  0
  152.9872  145.7373  158.5900 H   0  0  0  0  0  0  0  0  0  0  0  0
  152.0555  145.6630  160.9289 H   0  0  0  0  0  0  0  0  0  0  0  0
  1  2  1  0  0  0  0
  1 20  1  0  0  0  0
  1 21  1  0  0  0  0
  1 22  1  0  0  0  0
  2  3  1  0  0  0  0
  2 14  1  0  0  0  0
  3  4  1  0  0  0  0
  3 23  1  0  0  0  0
  3 24  1  0  0  0  0
  4 13  1  0  0  0  0
  4  5  1  0  0  0  0
  4 25  1  0  0  0  0
  5  6  1  0  0  0  0
  5 26  1  0  0  0  0
  5 27  1  0  0  0  0
  6  7  1  0  0  0  0
  6 11  1  0  0  0  0
  7  8  1  0  0  0  0
  7 28  1  0  0  0  0
  7 29  1  0  0  0  0
  8  9  1  0  0  0  0
  8 10  2  0  0  0  0
  9 30  1  0  0  0  0
  9 31  1  0  0  0  0
 11 12  1  0  0  0  0
 11 32  1  0  0  0  0
 11 33  1  0  0  0  0
 12 13  1  0  0  0  0
 12 34  1  0  0  0  0
 12 35  1  0  0  0  0
 14 19  1  0  0  0  0
 14 15  2  0  0  0  0
 15 16  1  0  0  0  0
 15 36  1  0  0  0  0
 16 17  2  0  0  0  0
 16 37  1  0  0  0  0
 17 18  1  0  0  0  0
 17 38  1  0  0  0  0
 18 19  2  0  0  0  0
M  END
> <s_m_source_file>
AV-unprocessed.smi

> <i_m_source_file_index>
613

> <i_lp_mmshare_version>
43012

> <i_f3d_flags>
0

> <s_epik_input>
bjFuW2NIXVtjSF1bY0hdYzFOKFtDSDNdKVtDSDJdW0NAQEhdMltDSDJdTihbQ0gyXVtDSDJdTzIpW0NIMl1DKD1PKVtOSDJd

> <s_epik_cmdline>
J2VwaWtfcHl0aG9uJywgJy1waCcsICc3LjAnLCAnLXRuJywgJzgnLCAnLW1hJywgJzIwMCcsICctbWV0YWxfYmluZGluZycsICctaW1hZScsICc8aW5maWxlLm1hZT4nLCAnLW9tYWUnLCAnPG91dGZpbGUubWFlPic=

> <r_lp_tautomer_probability>
1

> <r_epik_Ionization_Penalty>
0.0398875

> <r_epik_Ionization_Penalty_Charging>
0

> <r_epik_Ionization_Penalty_Neutral>
0.0398875

> <r_epik_State_Penalty>
0.0543012

> <r_epik_Charging_Adjusted_Penalty>
0.0543012

> <i_epik_Tot_Q>
0

> <i_epik_Tot_abs_Q>
0

> <r_epik_Metal_State_Penalty>
0.0489294

> <b_epik_Metal_Only>
0

> <s_lp_Force_Field>
OPLS_2005

> <r_lp_Energy>
27.5025

> <b_lp_Chiralities_Consistent>
1

> <s_lp_Variant>
AV-unprocessed.smi:613-1

> <Gold.Version>
5.8.1

> <Gold.Id.Protein>
6NUR|6NUR_protein|mol2

> <Gold.PLP.Fitness>
41.0572

> <Gold.PLP.PLP>
-35.9168

> <Gold.PLP.part.hbond>
-3.3589

> <Gold.PLP.part.metal>
0.0000

> <Gold.PLP.part.buried>
-6.9038

> <Gold.PLP.part.nonpolar>
-26.5856

> <Gold.PLP.part.repulsive>
0.3839

> <Gold.PLP.ligand.clash>
0.0000

> <Gold.PLP.ligand.torsion>
0.5525

> <Gold.PLP.Chemscore.Hbond>
1.9920

> <Gold.PLP.Chemscore.CHOScore>
0.0000

> <Gold.PLP.Chemscore.Metal>
0.0000

> <Gold.Chemscore.Hbonds>
donor molecule, donor type, donor heavy atom, donor atom, acceptor molecule, acceptor atom, score
      P1  H  7989  7998       L1    13  1.00
      P1  H 10752 10765       L1    10  1.00

> <Gold.PLP.Chemscore.Internal.Correction>
0.2694

> <Gold.Rescore>
     Score         DG    S(hbond)    S(metal)    S(lipo)     H(rot)  DE(clash)    DE(int)     intcor
     15.17     -15.74       1.92        0.00      80.78       2.18       0.03       0.54       ----

> <Gold.Chemscore.Fitness>
15.1742

> <Gold.Chemscore.DG>
-15.7415

> <Gold.Chemscore.ZeroCoef>
-5.4800

> <Gold.Chemscore.Hbond>
1.9152

> <Gold.Chemscore.Metal>
0.0000

> <Gold.Chemscore.Lipo>
80.7823

> <Gold.Chemscore.Internal_Hbond>
0.0000

> <Gold.Chemscore.DEClash>
0.0293

> <Gold.Chemscore.DEInternal>
0.5380

> <Gold.Chemscore.Rot>
2.1823

> <Gold.Chemscore.Internal.Correction>
   9.000000E+99

> <Gold.Chemscore.Hbonds>
donor molecule, donor type, donor heavy atom, donor atom, acceptor molecule, acceptor atom, score
      P1  H  7989  7998       L1    13  0.67
      P1  H 10752 10765       L1    10  0.94

> <Gold.Chemscore.Hbond.Weighted>
-6.3967

> <Gold.Chemscore.Metal.Weighted>
-0.0000

> <Gold.Chemscore.Lipo.Weighted>
-9.4515

> <Gold.Chemscore.Internal_Hbond.Weighted>
0.0000

> <Gold.Chemscore.DEClash.Weighted>
0.0293

> <Gold.Chemscore.DEInternal.Weighted>
0.5380

> <Gold.Chemscore.Rot.Weighted>
5.5867

> <Gold.Chemscore.Internal.Correction.Weighted>
   9.000000E+99

> <Gold.Protein.RotatedTorsions>
[ 6907 6896 6895 6894 ] final   41.67 input  -60.11 | X-H torsion
[ 7974 7965 7964 7962 ] final -121.66 input  175.53 | X-H torsion
[ 8008 7997 7996 7995 ] final   54.37 input   59.86 | X-H torsion
[ 10167 10162 10161 10158 ] final   49.27 input  -65.29 | X-H torsion
[ 10718 10713 10712 10709 ] final  -86.46 input   66.30 | X-H torsion
[ 10763 10752 10751 10750 ] final -113.76 input  -60.55 | X-H torsion
[ 11005 11000 10999 10996 ] final   96.97 input  -57.11 | X-H torsion

> <Gold.Protein.ActiveResidues>
 VAL166  LYS551  ARG553  GLY616  TRP617  ASP618  TYR619  PRO620  LYS621  CYS622 
 ASP623  PHE694  ASN695  SER759  ASP760  ASP761  ALA762  ILE779  LEU786  VAL792 
 PHE793  MET794  SER795  GLU796  ALA797  LYS798  CYS799  TRP800  GLU811  SER814 

> <Gold.Protein.RotatedAtoms>
  152.1982  134.8612  160.0510 H   0  0  0  0  0  0  0  0  0  0  0  0  # atno 6907 bound_to 6896
  151.9475  133.3651  159.3996 H   0  0  0  0  0  0  0  0  0  0  0  0  # atno 6908 bound_to 6896
  150.6949  134.4299  159.5287 H   0  0  0  0  0  0  0  0  0  0  0  0  # atno 6909 bound_to 6896
  145.0379  140.8120  143.4284 H   0  0  0  0  0  0  0  0  0  0  0  0  # atno 7974 bound_to 7965
  155.4836  140.3469  155.4343 H   0  0  0  0  0  0  0  0  0  0  0  0  # atno 8008 bound_to 7997
  156.1023  140.1438  156.9479 H   0  0  0  0  0  0  0  0  0  0  0  0  # atno 8009 bound_to 7997
  154.4702  140.0903  156.7102 H   0  0  0  0  0  0  0  0  0  0  0  0  # atno 8010 bound_to 7997
  140.2846  144.3116  150.6255 H   0  0  0  0  0  0  0  0  0  0  0  0  # atno 10167 bound_to 10162
  155.9990  130.4766  150.4718 H   0  0  0  0  0  0  0  0  0  0  0  0  # atno 10718 bound_to 10713
  154.8410  135.4442  154.1400 H   0  0  0  0  0  0  0  0  0  0  0  0  # atno 10763 bound_to 10752
  153.2588  135.6934  153.7607 H   0  0  0  0  0  0  0  0  0  0  0  0  # atno 10764 bound_to 10752
  153.6892  135.3390  155.3173 H   0  0  0  0  0  0  0  0  0  0  0  0  # atno 10765 bound_to 10752
  139.8778  134.8977  156.4238 H   0  0  0  0  0  0  0  0  0  0  0  0  # atno 11005 bound_to 11000
  145.1686  139.2417  143.5354 LP  0  0  0  0  0  0  0  0  0  0  0  0  # atno 17320 bound_to 7965
  146.3506  140.1431  142.8594 LP  0  0  0  0  0  0  0  0  0  0  0  0  # atno 17321 bound_to 7965
  140.5783  143.2174  151.7475 LP  0  0  0  0  0  0  0  0  0  0  0  0  # atno 17342 bound_to 10162
  139.4953  144.4117  152.0073 LP  0  0  0  0  0  0  0  0  0  0  0  0  # atno 17343 bound_to 10162
  157.2732  131.0591  151.2246 LP  0  0  0  0  0  0  0  0  0  0  0  0  # atno 17370 bound_to 10713
  157.3319  130.6989  149.6329 LP  0  0  0  0  0  0  0  0  0  0  0  0  # atno 17371 bound_to 10713
  140.9115  133.7708  155.9797 LP  0  0  0  0  0  0  0  0  0  0  0  0  # atno 17394 bound_to 11000
  140.8541  134.2919  157.5263 LP  0  0  0  0  0  0  0  0  0  0  0  0  # atno 17395 bound_to 11000

$$$$
