AV-unprocessed.smi:72|AV-procd|sdf|751|dock2
  -GOLD-   2262017 83D 1   1.00000     0.00000
 Structure written by MMmdl.
 29 30  0  0  0  0  0  0  0  0  1 V2000
  148.1945  134.0637  158.6426 N   0  0  0  0  0  0  0  0  0  0  0  0
  148.7913  135.0889  157.9387 C   0  0  0  0  0  0  0  0  0  0  0  0
  148.0606  136.2807  157.8330 N   0  0  0  0  0  0  0  0  0  0  0  0
  148.6211  137.2482  157.1787 C   0  0  0  0  0  0  0  0  0  0  0  0
  149.9428  137.0978  156.5965 N   0  0  0  0  0  0  0  0  0  0  0  0
  150.5960  138.2299  155.8305 C   0  0  2  0  0  0  0  0  0  0  0  0
  150.5608  139.3806  156.6146 O   0  0  0  0  0  0  0  0  0  0  0  0
  150.4879  140.5101  155.7588 C   0  0  2  0  0  0  0  0  0  0  0  0
  149.9571  141.7243  156.5364 C   0  0  0  0  0  0  0  0  0  0  0  0
  150.8968  142.7770  156.4958 O   0  0  0  0  0  0  0  0  0  0  0  0
  149.5426  140.0312  154.6515 C   0  0  1  0  0  0  0  0  0  0  0  0
  149.7895  140.7442  153.4556 O   0  0  0  0  0  0  0  0  0  0  0  0
  149.9016  138.5566  154.4882 C   0  0  2  0  0  0  0  0  0  0  0  0
  148.7430  137.7867  154.2210 O   0  0  0  0  0  0  0  0  0  0  0  0
  150.6189  135.8539  156.7230 C   0  0  0  0  0  0  0  0  0  0  0  0
  151.7236  135.6923  156.2044 O   0  0  0  0  0  0  0  0  0  0  0  0
  149.9708  134.8433  157.4437 N   0  0  0  0  0  0  0  0  0  0  0  0
  151.6450  137.9590  155.7018 H   0  0  0  0  0  0  0  0  0  0  0  0
  151.4790  140.7062  155.3435 H   0  0  0  0  0  0  0  0  0  0  0  0
  148.5035  140.1490  154.9644 H   0  0  0  0  0  0  0  0  0  0  0  0
  150.6315  138.4036  153.6918 H   0  0  0  0  0  0  0  0  0  0  0  0
  148.6253  133.1613  158.7823 H   0  0  0  0  0  0  0  0  0  0  0  0
  147.2824  134.1384  159.0691 H   0  0  0  0  0  0  0  0  0  0  0  0
  148.1465  138.2176  157.0195 H   0  0  0  0  0  0  0  0  0  0  0  0
  149.0382  142.0909  156.0777 H   0  0  0  0  0  0  0  0  0  0  0  0
  149.7214  141.4625  157.5683 H   0  0  0  0  0  0  0  0  0  0  0  0
  150.4330  143.5886  156.3582 H   0  0  0  0  0  0  0  0  0  0  0  0
  149.6761  140.1545  152.7261 H   0  0  0  0  0  0  0  0  0  0  0  0
  148.9090  137.2486  153.4620 H   0  0  0  0  0  0  0  0  0  0  0  0
  1  2  1  0  0  0  0
  1 22  1  0  0  0  0
  1 23  1  0  0  0  0
  2 17  2  0  0  0  0
  2  3  1  0  0  0  0
  3  4  2  0  0  0  0
  4  5  1  0  0  0  0
  4 24  1  0  0  0  0
  5  6  1  0  0  0  0
  5 15  1  0  0  0  0
  6 18  1  0  0  0  0
  6 13  1  0  0  0  0
  6  7  1  0  0  0  0
  7  8  1  0  0  0  0
  8 19  1  0  0  0  0
  8  9  1  0  0  0  0
  8 11  1  0  0  0  0
  9 10  1  0  0  0  0
  9 25  1  0  0  0  0
  9 26  1  0  0  0  0
 10 27  1  0  0  0  0
 11 20  1  0  0  0  0
 11 12  1  0  0  0  0
 11 13  1  0  0  0  0
 12 28  1  0  0  0  0
 13 21  1  0  0  0  0
 13 14  1  0  0  0  0
 14 29  1  0  0  0  0
 15 16  2  0  0  0  0
 15 17  1  0  0  0  0
M  END
> <s_m_source_file>
AV-unprocessed.smi

> <i_m_source_file_index>
72

> <i_lp_mmshare_version>
43012

> <i_f3d_flags>
0

> <s_epik_input>
W05IMl1jMW5bY0hdbihjKD1PKW4xKVtDQEBIXTJPW0NASF0oW0NIMl1bT0hdKVtDQEBIXShbT0hdKVtDQEhdMltPSF0=

> <s_epik_cmdline>
J2VwaWtfcHl0aG9uJywgJy1waCcsICc3LjAnLCAnLXRuJywgJzgnLCAnLW1hJywgJzIwMCcsICctbWV0YWxfYmluZGluZycsICctaW1hZScsICc8aW5maWxlLm1hZT4nLCAnLW9tYWUnLCAnPG91dGZpbGUubWFlPic=

> <r_lp_tautomer_probability>
4.77166e-05

> <r_epik_Ionization_Penalty>
1.3546

> <r_epik_Ionization_Penalty_Charging>
1.46833e-10

> <r_epik_Ionization_Penalty_Neutral>
1.3546

> <r_epik_State_Penalty>
3.51908

> <r_epik_Charging_Adjusted_Penalty>
3.51908

> <i_epik_Tot_Q>
0

> <i_epik_Tot_abs_Q>
0

> <r_epik_Metal_State_Penalty>
3.44088

> <b_epik_Metal_Only>
1

> <s_epik_Chemistry_Notes>
This compound contains an acetal/aminal-like group ( X-CH(R)-Y where X, Y are N, S, or O) that may be acid/base labile, releasing an aldehyde.

> <s_lp_Force_Field>
OPLS_2005

> <r_lp_Energy>
32.6436

> <b_lp_Chiralities_Consistent>
1

> <s_lp_Variant>
AV-unprocessed.smi:72-89

> <Gold.Version>
5.8.1

> <Gold.Id.Protein>
6NUR|6NUR_protein|mol2

> <Gold.PLP.Fitness>
34.3894

> <Gold.PLP.PLP>
-19.6698

> <Gold.PLP.part.hbond>
-6.2981

> <Gold.PLP.part.metal>
0.0000

> <Gold.PLP.part.buried>
-3.1512

> <Gold.PLP.part.nonpolar>
-10.4074

> <Gold.PLP.part.repulsive>
0.0880

> <Gold.PLP.ligand.clash>
0.0000

> <Gold.PLP.ligand.torsion>
0.8967

> <Gold.PLP.Chemscore.Hbond>
5.4111

> <Gold.PLP.Chemscore.CHOScore>
0.0000

> <Gold.PLP.Chemscore.Metal>
0.0000

> <Gold.Chemscore.Hbonds>
donor molecule, donor type, donor heavy atom, donor atom, acceptor molecule, acceptor atom, score
      L1  H    10    27       P1  8028  1.00
      L1  H    12    28       P1  7957  0.90
      L1  H    14    29       P1  7948  1.00
      P1  H  6896  6909       L1    17  0.32
      P1  H  7989  7998       L1    12  0.35
      P1  H  8011  8017       L1    12  0.75
      P1  H 10752 10763       L1    16  1.00

> <Gold.PLP.Chemscore.Internal.Correction>
0.2798

> <Gold.Rescore>
     Score         DG    S(hbond)    S(metal)    S(lipo)     H(rot)  DE(clash)    DE(int)     intcor
     10.44     -11.53       4.01        0.00      26.16       4.06       0.00       1.09       ----

> <Gold.Chemscore.Fitness>
10.4353

> <Gold.Chemscore.DG>
-11.5261

> <Gold.Chemscore.ZeroCoef>
-5.4800

> <Gold.Chemscore.Hbond>
4.0056

> <Gold.Chemscore.Metal>
0.0000

> <Gold.Chemscore.Lipo>
26.1633

> <Gold.Chemscore.Internal_Hbond>
0.0000

> <Gold.Chemscore.DEClash>
0.0029

> <Gold.Chemscore.DEInternal>
1.0879

> <Gold.Chemscore.Rot>
4.0600

> <Gold.Chemscore.Internal.Correction>
   9.000000E+99

> <Gold.Chemscore.Hbonds>
donor molecule, donor type, donor heavy atom, donor atom, acceptor molecule, acceptor atom, score
      L1  H    10    27       P1  8028  0.92
      L1  H    12    28       P1  7957  0.85
      L1  H    14    29       P1  7948  1.00
      P1  H  6896  6909       L1    17  0.04
      P1  H  7989  7998       L1    12  0.04
      P1  H  8011  8017       L1    12  0.09
      P1  H 10752 10763       L1    16  1.00

> <Gold.Chemscore.Hbond.Weighted>
-13.3786

> <Gold.Chemscore.Metal.Weighted>
-0.0000

> <Gold.Chemscore.Lipo.Weighted>
-3.0611

> <Gold.Chemscore.Internal_Hbond.Weighted>
0.0000

> <Gold.Chemscore.DEClash.Weighted>
0.0029

> <Gold.Chemscore.DEInternal.Weighted>
1.0879

> <Gold.Chemscore.Rot.Weighted>
10.3936

> <Gold.Chemscore.Internal.Correction.Weighted>
   9.000000E+99

> <Gold.Protein.RotatedTorsions>
[ 6907 6896 6895 6894 ] final    7.73 input  -60.11 | X-H torsion
[ 7974 7965 7964 7962 ] final   95.27 input  175.53 | X-H torsion
[ 8008 7997 7996 7995 ] final   79.13 input   59.86 | X-H torsion
[ 10167 10162 10161 10158 ] final -124.20 input  -65.29 | X-H torsion
[ 10718 10713 10712 10709 ] final  122.37 input   66.30 | X-H torsion
[ 10763 10752 10751 10750 ] final   77.53 input  -60.55 | X-H torsion
[ 11005 11000 10999 10996 ] final  -83.24 input  -57.11 | X-H torsion

> <Gold.Protein.ActiveResidues>
 VAL166  LYS551  ARG553  GLY616  TRP617  ASP618  TYR619  PRO620  LYS621  CYS622 
 ASP623  PHE694  ASN695  SER759  ASP760  ASP761  ALA762  ILE779  LEU786  VAL792 
 PHE793  MET794  SER795  GLU796  ALA797  LYS798  CYS799  TRP800  GLU811  SER814 

> <Gold.Protein.RotatedAtoms>
  151.6946  135.0940  160.0239 H   0  0  0  0  0  0  0  0  0  0  0  0  # atno 6907 bound_to 6896
  152.3758  133.6475  159.6130 H   0  0  0  0  0  0  0  0  0  0  0  0  # atno 6908 bound_to 6896
  150.7708  133.9112  159.3411 H   0  0  0  0  0  0  0  0  0  0  0  0  # atno 6909 bound_to 6896
  145.4544  139.2291  143.3022 H   0  0  0  0  0  0  0  0  0  0  0  0  # atno 7974 bound_to 7965
  155.8654  140.3451  155.5784 H   0  0  0  0  0  0  0  0  0  0  0  0  # atno 8008 bound_to 7997
  155.7887  140.0868  157.2040 H   0  0  0  0  0  0  0  0  0  0  0  0  # atno 8009 bound_to 7997
  154.4014  140.1487  156.3125 H   0  0  0  0  0  0  0  0  0  0  0  0  # atno 8010 bound_to 7997
  139.9953  143.5597  152.2325 H   0  0  0  0  0  0  0  0  0  0  0  0  # atno 10167 bound_to 10162
  157.5747  131.1080  150.8301 H   0  0  0  0  0  0  0  0  0  0  0  0  # atno 10718 bound_to 10713
  153.0805  135.4911  154.8493 H   0  0  0  0  0  0  0  0  0  0  0  0  # atno 10763 bound_to 10752
  154.7145  135.3026  154.9148 H   0  0  0  0  0  0  0  0  0  0  0  0  # atno 10764 bound_to 10752
  153.9832  135.6787  153.4804 H   0  0  0  0  0  0  0  0  0  0  0  0  # atno 10765 bound_to 10752
  141.1659  133.7284  156.8691 H   0  0  0  0  0  0  0  0  0  0  0  0  # atno 11005 bound_to 11000
  146.2486  140.5307  142.8903 LP  0  0  0  0  0  0  0  0  0  0  0  0  # atno 17320 bound_to 7965
  144.8041  140.6268  143.6458 LP  0  0  0  0  0  0  0  0  0  0  0  0  # atno 17321 bound_to 7965
  139.6310  144.7644  151.2536 LP  0  0  0  0  0  0  0  0  0  0  0  0  # atno 17342 bound_to 10162
  140.7439  143.6479  150.8275 LP  0  0  0  0  0  0  0  0  0  0  0  0  # atno 17343 bound_to 10162
  156.8764  130.5164  149.5293 LP  0  0  0  0  0  0  0  0  0  0  0  0  # atno 17370 bound_to 10713
  156.0792  130.5806  150.9531 LP  0  0  0  0  0  0  0  0  0  0  0  0  # atno 17371 bound_to 10713
  140.1794  134.9044  157.2930 LP  0  0  0  0  0  0  0  0  0  0  0  0  # atno 17394 bound_to 11000
  140.2412  134.3793  155.7480 LP  0  0  0  0  0  0  0  0  0  0  0  0  # atno 17395 bound_to 11000

$$$$
