AV-unprocessed.smi:1272|AV-procd|sdf|5334|dock8
  -GOLD-   22720 4463D 1   1.00000     0.00000
 Structure written by MMmdl.
 45 47  0  0  0  0  0  0  0  0  1 V2000
  153.6854  141.7208  162.0103 C   0  0  0  0  0  0  0  0  0  0  0  0
  154.0975  141.0366  160.7008 C   0  0  0  0  0  0  0  0  0  0  0  0
  153.1118  141.2710  159.6485 N   0  0  0  0  0  0  0  0  0  0  0  0
  152.5618  140.3387  158.8354 C   0  0  0  0  0  0  0  0  0  0  0  0
  152.8025  139.1315  158.8516 O   0  0  0  0  0  0  0  0  0  0  0  0
  151.7108  140.9671  157.9903 N   0  0  0  0  0  0  0  0  0  0  0  0
  150.9079  140.3413  156.9409 C   0  0  0  0  0  0  0  0  0  0  0  0
  151.7896  139.6503  155.8815 C   0  0  2  0  0  0  0  0  0  0  0  0
  151.0530  139.5800  154.6770 O   0  0  0  0  0  0  0  0  0  0  0  0
  152.1313  138.2035  156.2927 C   0  0  0  0  0  0  0  0  0  0  0  0
  150.9886  137.3591  156.6473 N   0  0  0  0  0  0  0  0  0  0  0  0
  151.2417  135.9365  156.4234 C   0  0  0  0  0  0  0  0  0  0  0  0
  150.0393  135.0682  156.8337 C   0  0  0  0  0  0  0  0  0  0  0  0
  149.7093  135.3173  158.1959 O   0  0  0  0  0  0  0  0  0  0  0  0
  149.4089  136.6863  158.4450 C   0  0  0  0  0  0  0  0  0  0  0  0
  150.6119  137.5568  158.0432 C   0  0  0  0  0  0  0  0  0  0  0  0
  151.7361  142.3443  158.2536 C   0  0  0  0  0  0  0  0  0  0  0  0
  151.0604  143.4164  157.6447 C   0  0  0  0  0  0  0  0  0  0  0  0
  151.3181  144.7131  158.1479 C   0  0  0  0  0  0  0  0  0  0  0  0
  152.2243  144.9091  159.2223 C   0  0  0  0  0  0  0  0  0  0  0  0
  152.8928  143.8126  159.8155 C   0  0  0  0  0  0  0  0  0  0  0  0
  152.6177  142.5352  159.2969 C   0  0  0  0  0  0  0  0  0  0  0  0
  154.4158  141.5257  162.7956 H   0  0  0  0  0  0  0  0  0  0  0  0
  152.7180  141.3570  162.3580 H   0  0  0  0  0  0  0  0  0  0  0  0
  153.6126  142.8015  161.8845 H   0  0  0  0  0  0  0  0  0  0  0  0
  155.0751  141.4025  160.3834 H   0  0  0  0  0  0  0  0  0  0  0  0
  154.2137  139.9644  160.8598 H   0  0  0  0  0  0  0  0  0  0  0  0
  150.2637  139.6010  157.4181 H   0  0  0  0  0  0  0  0  0  0  0  0
  150.2296  141.0628  156.4838 H   0  0  0  0  0  0  0  0  0  0  0  0
  152.6979  140.2307  155.7234 H   0  0  0  0  0  0  0  0  0  0  0  0
  150.8042  138.6791  154.5348 H   0  0  0  0  0  0  0  0  0  0  0  0
  152.6862  137.7238  155.4848 H   0  0  0  0  0  0  0  0  0  0  0  0
  152.8213  138.2473  157.1368 H   0  0  0  0  0  0  0  0  0  0  0  0
  151.4580  135.7467  155.3733 H   0  0  0  0  0  0  0  0  0  0  0  0
  152.1221  135.6234  156.9868 H   0  0  0  0  0  0  0  0  0  0  0  0
  149.1770  135.2792  156.1994 H   0  0  0  0  0  0  0  0  0  0  0  0
  150.2756  134.0112  156.7116 H   0  0  0  0  0  0  0  0  0  0  0  0
  148.5169  136.9783  157.8886 H   0  0  0  0  0  0  0  0  0  0  0  0
  149.1836  136.8153  159.5036 H   0  0  0  0  0  0  0  0  0  0  0  0
  151.4577  137.3222  158.6916 H   0  0  0  0  0  0  0  0  0  0  0  0
  150.3690  138.6057  158.2162 H   0  0  0  0  0  0  0  0  0  0  0  0
  150.3763  143.2625  156.8234 H   0  0  0  0  0  0  0  0  0  0  0  0
  150.8208  145.5643  157.7070 H   0  0  0  0  0  0  0  0  0  0  0  0
  152.4078  145.9078  159.5901 H   0  0  0  0  0  0  0  0  0  0  0  0
  153.5874  143.9565  160.6298 H   0  0  0  0  0  0  0  0  0  0  0  0
  1  2  1  0  0  0  0
  1 23  1  0  0  0  0
  1 24  1  0  0  0  0
  1 25  1  0  0  0  0
  2  3  1  0  0  0  0
  2 26  1  0  0  0  0
  2 27  1  0  0  0  0
  3 22  1  0  0  0  0
  3  4  1  0  0  0  0
  4  5  2  0  0  0  0
  4  6  1  0  0  0  0
  6  7  1  0  0  0  0
  6 17  1  0  0  0  0
  7  8  1  0  0  0  0
  7 28  1  0  0  0  0
  7 29  1  0  0  0  0
  8  9  1  0  0  0  0
  8 10  1  0  0  0  0
  8 30  1  0  0  0  0
  9 31  1  0  0  0  0
 10 11  1  0  0  0  0
 10 32  1  0  0  0  0
 10 33  1  0  0  0  0
 11 16  1  0  0  0  0
 11 12  1  0  0  0  0
 12 13  1  0  0  0  0
 12 34  1  0  0  0  0
 12 35  1  0  0  0  0
 13 14  1  0  0  0  0
 13 36  1  0  0  0  0
 13 37  1  0  0  0  0
 14 15  1  0  0  0  0
 15 16  1  0  0  0  0
 15 38  1  0  0  0  0
 15 39  1  0  0  0  0
 16 40  1  0  0  0  0
 16 41  1  0  0  0  0
 17 22  2  0  0  0  0
 17 18  1  0  0  0  0
 18 19  2  0  0  0  0
 18 42  1  0  0  0  0
 19 20  1  0  0  0  0
 19 43  1  0  0  0  0
 20 21  2  0  0  0  0
 20 44  1  0  0  0  0
 21 22  1  0  0  0  0
 21 45  1  0  0  0  0
M  END
> <s_m_source_file>
AV-unprocessed.smi

> <i_m_source_file_index>
1272

> <i_lp_mmshare_version>
43012

> <i_f3d_flags>
0

> <s_epik_input>
W2NIXTFbY0hdW2NIXVtjSF1jKGMxMiluKFtDSDJdW0NIM10pYyg9TyluMltDSDJdW0NASF0oW09IXSlbQ0gyXU4zW0NIMl1bQ0gyXU9bQ0gyXVtDSDJdMw==

> <s_epik_cmdline>
J2VwaWtfcHl0aG9uJywgJy1waCcsICc3LjAnLCAnLXRuJywgJzgnLCAnLW1hJywgJzIwMCcsICctbWV0YWxfYmluZGluZycsICctaW1hZScsICc8aW5maWxlLm1hZT4nLCAnLW9tYWUnLCAnPG91dGZpbGUubWFlPic=

> <r_epik_Ionization_Penalty>
0.214359

> <r_epik_Ionization_Penalty_Charging>
2.31431e-09

> <r_epik_Ionization_Penalty_Neutral>
0.214359

> <r_epik_State_Penalty>
0.204533

> <r_epik_Charging_Adjusted_Penalty>
0.204533

> <i_epik_Tot_Q>
0

> <i_epik_Tot_abs_Q>
0

> <r_epik_Metal_State_Penalty>
0.204533

> <b_epik_Metal_Only>
0

> <s_lp_Force_Field>
OPLS_2005

> <r_lp_Energy>
61.4886

> <b_lp_Chiralities_Consistent>
1

> <s_lp_Variant>
AV-unprocessed.smi:1272-1

> <Gold.Version>
5.8.1

> <Gold.Id.Protein>
6NUR|6NUR_protein|mol2

> <Gold.PLP.Fitness>
50.7305

> <Gold.PLP.PLP>
-46.0424

> <Gold.PLP.part.hbond>
-2.0000

> <Gold.PLP.part.metal>
0.0000

> <Gold.PLP.part.buried>
-5.9250

> <Gold.PLP.part.nonpolar>
-38.7431

> <Gold.PLP.part.repulsive>
0.0000

> <Gold.PLP.ligand.clash>
0.0000

> <Gold.PLP.ligand.torsion>
0.7036

> <Gold.PLP.Chemscore.Hbond>
2.0000

> <Gold.PLP.Chemscore.CHOScore>
0.0000

> <Gold.PLP.Chemscore.Metal>
0.0000

> <Gold.Chemscore.Hbonds>
donor molecule, donor type, donor heavy atom, donor atom, acceptor molecule, acceptor atom, score
      P1  H  6896  6909       L1    14  1.00
      P1  H  7989  7998       L1     9  1.00

> <Gold.PLP.Chemscore.Internal.Correction>
0.0955

> <Gold.Rescore>
     Score         DG    S(hbond)    S(metal)    S(lipo)     H(rot)  DE(clash)    DE(int)     intcor
     15.87     -20.47       1.80        0.00     123.59       2.14       0.10       4.50       ----

> <Gold.Chemscore.Fitness>
15.8684

> <Gold.Chemscore.DG>
-20.4685

> <Gold.Chemscore.ZeroCoef>
-5.4800

> <Gold.Chemscore.Hbond>
1.7974

> <Gold.Chemscore.Metal>
0.0000

> <Gold.Chemscore.Lipo>
123.5908

> <Gold.Chemscore.Internal_Hbond>
0.0000

> <Gold.Chemscore.DEClash>
0.0998

> <Gold.Chemscore.DEInternal>
4.5003

> <Gold.Chemscore.Rot>
2.1386

> <Gold.Chemscore.Internal.Correction>
   9.000000E+99

> <Gold.Chemscore.Hbonds>
donor molecule, donor type, donor heavy atom, donor atom, acceptor molecule, acceptor atom, score
      P1  H  6896  6909       L1    14  0.86
      P1  H  7989  7998       L1     9  0.74

> <Gold.Chemscore.Hbond.Weighted>
-6.0032

> <Gold.Chemscore.Metal.Weighted>
-0.0000

> <Gold.Chemscore.Lipo.Weighted>
-14.4601

> <Gold.Chemscore.Internal_Hbond.Weighted>
0.0000

> <Gold.Chemscore.DEClash.Weighted>
0.0998

> <Gold.Chemscore.DEInternal.Weighted>
4.5003

> <Gold.Chemscore.Rot.Weighted>
5.4749

> <Gold.Chemscore.Internal.Correction.Weighted>
   9.000000E+99

> <Gold.Protein.RotatedTorsions>
[ 6907 6896 6895 6894 ] final   34.91 input  -60.11 | X-H torsion
[ 7974 7965 7964 7962 ] final  -43.70 input  175.53 | X-H torsion
[ 8008 7997 7996 7995 ] final -148.55 input   59.86 | X-H torsion
[ 10167 10162 10161 10158 ] final   -3.39 input  -65.29 | X-H torsion
[ 10718 10713 10712 10709 ] final  -36.52 input   66.30 | X-H torsion
[ 10763 10752 10751 10750 ] final  -51.23 input  -60.55 | X-H torsion
[ 11005 11000 10999 10996 ] final  172.19 input  -57.11 | X-H torsion

> <Gold.Protein.ActiveResidues>
 VAL166  LYS551  ARG553  GLY616  TRP617  ASP618  TYR619  PRO620  LYS621  CYS622 
 ASP623  PHE694  ASN695  SER759  ASP760  ASP761  ALA762  ILE779  LEU786  VAL792 
 PHE793  MET794  SER795  GLU796  ALA797  LYS798  CYS799  TRP800  GLU811  SER814 

> <Gold.Protein.RotatedAtoms>
  152.1089  134.9288  160.0567 H   0  0  0  0  0  0  0  0  0  0  0  0  # atno 6907 bound_to 6896
  152.0473  133.3999  159.4370 H   0  0  0  0  0  0  0  0  0  0  0  0  # atno 6908 bound_to 6896
  150.6842  134.3268  159.4853 H   0  0  0  0  0  0  0  0  0  0  0  0  # atno 6909 bound_to 6896
  145.9993  140.7093  142.9278 H   0  0  0  0  0  0  0  0  0  0  0  0  # atno 7974 bound_to 7965
  155.5934  140.0655  157.2752 H   0  0  0  0  0  0  0  0  0  0  0  0  # atno 8008 bound_to 7997
  154.4299  140.1831  156.1145 H   0  0  0  0  0  0  0  0  0  0  0  0  # atno 8009 bound_to 7997
  156.0215  140.3316  155.7047 H   0  0  0  0  0  0  0  0  0  0  0  0  # atno 8010 bound_to 7997
  140.6888  143.6546  150.8320 H   0  0  0  0  0  0  0  0  0  0  0  0  # atno 10167 bound_to 10162
  156.3258  130.4272  149.7917 H   0  0  0  0  0  0  0  0  0  0  0  0  # atno 10718 bound_to 10713
  154.1232  135.6531  153.4907 H   0  0  0  0  0  0  0  0  0  0  0  0  # atno 10763 bound_to 10752
  153.0218  135.5275  154.7076 H   0  0  0  0  0  0  0  0  0  0  0  0  # atno 10764 bound_to 10752
  154.6289  135.2974  155.0209 H   0  0  0  0  0  0  0  0  0  0  0  0  # atno 10765 bound_to 10752
  140.3271  134.7389  157.4107 H   0  0  0  0  0  0  0  0  0  0  0  0  # atno 11005 bound_to 11000
  144.6914  140.3205  143.7233 LP  0  0  0  0  0  0  0  0  0  0  0  0  # atno 17320 bound_to 7965
  145.7512  139.1794  143.2320 LP  0  0  0  0  0  0  0  0  0  0  0  0  # atno 17321 bound_to 7965
  140.0256  143.5497  152.2782 LP  0  0  0  0  0  0  0  0  0  0  0  0  # atno 17342 bound_to 10162
  139.6271  144.7639  151.2615 LP  0  0  0  0  0  0  0  0  0  0  0  0  # atno 17343 bound_to 10162
  156.5208  130.8214  151.3203 LP  0  0  0  0  0  0  0  0  0  0  0  0  # atno 17370 bound_to 10713
  157.7421  130.9883  150.2492 LP  0  0  0  0  0  0  0  0  0  0  0  0  # atno 17371 bound_to 10713
  140.0892  134.5624  155.8461 LP  0  0  0  0  0  0  0  0  0  0  0  0  # atno 17394 bound_to 11000
  141.2072  133.6662  156.6294 LP  0  0  0  0  0  0  0  0  0  0  0  0  # atno 17395 bound_to 11000

$$$$
