AV-unprocessed.smi:746|AV-procd|sdf|3577|dock1
  -GOLD-   22720 0573D 1   1.00000     0.00000
 Structure written by MMmdl.
 48 50  0  0  0  0  0  0  0  0  1 V2000
  152.7186  139.0028  158.6709 C   0  0  0  0  0  0  0  0  0  0  0  0
  153.4302  138.7687  157.4680 O   0  0  0  0  0  0  0  0  0  0  0  0
  153.5957  137.3870  157.1969 C   0  0  0  0  0  0  0  0  0  0  0  0
  152.2257  136.7602  156.9238 C   0  0  0  0  0  0  0  0  0  0  0  0
  152.4088  135.3733  156.6568 O   0  0  0  0  0  0  0  0  0  0  0  0
  151.4044  134.6879  156.0051 C   0  0  0  0  0  0  0  0  0  0  0  0
  151.4326  133.2795  156.0206 C   0  0  0  0  0  0  0  0  0  0  0  0
  150.4127  132.5702  155.3586 C   0  0  0  0  0  0  0  0  0  0  0  0
  149.3876  133.2957  154.7064 C   0  0  0  0  0  0  0  0  0  0  0  0
  148.3154  132.6980  153.9900 N   0  0  0  0  0  0  0  0  0  0  0  0
  147.1773  133.2667  153.5445 C   0  0  0  0  0  0  0  0  0  0  0  0
  146.9744  134.4806  153.5579 O   0  0  0  0  0  0  0  0  0  0  0  0
  146.3490  132.3872  152.9298 N   0  0  0  0  0  0  0  0  0  0  0  0
  146.3080  130.9604  153.2956 C   0  0  0  0  0  0  0  0  0  0  0  0
  146.4316  130.0768  152.0400 C   0  0  0  0  0  0  0  0  0  0  0  0
  145.7421  130.7008  150.8115 C   0  0  0  0  0  0  0  0  0  0  0  0
  144.6232  131.6820  151.2187 C   0  0  2  0  0  0  0  0  0  0  0  0
  143.9944  132.4024  150.0095 C   0  0  0  0  0  0  0  0  0  0  0  0
  144.1565  133.9029  150.2662 C   0  0  0  0  0  0  0  0  0  0  0  0
  145.3338  134.0085  151.2315 C   0  0  0  0  0  0  0  0  0  0  0  0
  145.1508  132.7969  152.1615 C   0  0  2  0  0  0  0  0  0  0  0  0
  149.4585  134.7038  154.7376 C   0  0  0  0  0  0  0  0  0  0  0  0
  150.4333  135.3900  155.3708 N   0  0  0  0  0  0  0  0  0  0  0  0
  152.6182  140.0757  158.8347 H   0  0  0  0  0  0  0  0  0  0  0  0
  153.2431  138.5793  159.5285 H   0  0  0  0  0  0  0  0  0  0  0  0
  151.7165  138.5743  158.6267 H   0  0  0  0  0  0  0  0  0  0  0  0
  154.2462  137.2498  156.3316 H   0  0  0  0  0  0  0  0  0  0  0  0
  154.0683  136.8931  158.0473 H   0  0  0  0  0  0  0  0  0  0  0  0
  151.5783  136.8967  157.7920 H   0  0  0  0  0  0  0  0  0  0  0  0
  151.7584  137.2555  156.0709 H   0  0  0  0  0  0  0  0  0  0  0  0
  152.2259  132.7513  156.5284 H   0  0  0  0  0  0  0  0  0  0  0  0
  150.4469  131.4920  155.3542 H   0  0  0  0  0  0  0  0  0  0  0  0
  148.4292  131.7174  153.7781 H   0  0  0  0  0  0  0  0  0  0  0  0
  147.0558  130.6666  154.0333 H   0  0  0  0  0  0  0  0  0  0  0  0
  145.3485  130.7690  153.7789 H   0  0  0  0  0  0  0  0  0  0  0  0
  147.4825  129.9001  151.8079 H   0  0  0  0  0  0  0  0  0  0  0  0
  145.9995  129.0985  152.2536 H   0  0  0  0  0  0  0  0  0  0  0  0
  146.4891  131.2425  150.2293 H   0  0  0  0  0  0  0  0  0  0  0  0
  145.3548  129.9183  150.1581 H   0  0  0  0  0  0  0  0  0  0  0  0
  143.8483  131.1175  151.7399 H   0  0  0  0  0  0  0  0  0  0  0  0
  144.5105  132.1306  149.0877 H   0  0  0  0  0  0  0  0  0  0  0  0
  142.9452  132.1351  149.8785 H   0  0  0  0  0  0  0  0  0  0  0  0
  144.3150  134.4699  149.3484 H   0  0  0  0  0  0  0  0  0  0  0  0
  143.2574  134.2928  150.7454 H   0  0  0  0  0  0  0  0  0  0  0  0
  146.2724  133.9280  150.6807 H   0  0  0  0  0  0  0  0  0  0  0  0
  145.3313  134.9628  151.7583 H   0  0  0  0  0  0  0  0  0  0  0  0
  144.3636  133.0401  152.8775 H   0  0  0  0  0  0  0  0  0  0  0  0
  148.7077  135.3018  154.2419 H   0  0  0  0  0  0  0  0  0  0  0  0
  1  2  1  0  0  0  0
  1 24  1  0  0  0  0
  1 25  1  0  0  0  0
  1 26  1  0  0  0  0
  2  3  1  0  0  0  0
  3  4  1  0  0  0  0
  3 27  1  0  0  0  0
  3 28  1  0  0  0  0
  4  5  1  0  0  0  0
  4 29  1  0  0  0  0
  4 30  1  0  0  0  0
  5  6  1  0  0  0  0
  6 23  1  0  0  0  0
  6  7  2  0  0  0  0
  7  8  1  0  0  0  0
  7 31  1  0  0  0  0
  8  9  2  0  0  0  0
  8 32  1  0  0  0  0
  9 10  1  0  0  0  0
  9 22  1  0  0  0  0
 10 11  1  0  0  0  0
 10 33  1  0  0  0  0
 11 12  2  0  0  0  0
 11 13  1  0  0  0  0
 13 21  1  0  0  0  0
 13 14  1  0  0  0  0
 14 15  1  0  0  0  0
 14 34  1  0  0  0  0
 14 35  1  0  0  0  0
 15 16  1  0  0  0  0
 15 36  1  0  0  0  0
 15 37  1  0  0  0  0
 16 17  1  0  0  0  0
 16 38  1  0  0  0  0
 16 39  1  0  0  0  0
 17 21  1  0  0  0  0
 17 18  1  0  0  0  0
 17 40  1  0  0  0  0
 18 19  1  0  0  0  0
 18 41  1  0  0  0  0
 18 42  1  0  0  0  0
 19 20  1  0  0  0  0
 19 43  1  0  0  0  0
 19 44  1  0  0  0  0
 20 21  1  0  0  0  0
 20 45  1  0  0  0  0
 20 46  1  0  0  0  0
 21 47  1  0  0  0  0
 22 23  2  0  0  0  0
 22 48  1  0  0  0  0
M  END
> <s_m_source_file>
AV-unprocessed.smi

> <i_m_source_file_index>
746

> <i_lp_mmshare_version>
43012

> <i_f3d_flags>
0

> <s_epik_input>
W0NIM11PW0NIMl1bQ0gyXU9jMVtjSF1bY0hdYyhbY0hdbjEpW05IXUMoPU8pTihbQ0gyXVtDSDJdW0NIMl0yKVtDQEhdKFtDQEBIXTIzKVtDSDJdW0NIMl1bQ0gyXTM=

> <s_epik_cmdline>
J2VwaWtfcHl0aG9uJywgJy1waCcsICc3LjAnLCAnLXRuJywgJzgnLCAnLW1hJywgJzIwMCcsICctbWV0YWxfYmluZGluZycsICctaW1hZScsICc8aW5maWxlLm1hZT4nLCAnLW9tYWUnLCAnPG91dGZpbGUubWFlPic=

> <r_lp_tautomer_probability>
1

> <r_epik_Ionization_Penalty>
8.29966e-05

> <r_epik_Ionization_Penalty_Charging>
0

> <r_epik_Ionization_Penalty_Neutral>
8.29966e-05

> <r_epik_State_Penalty>
-0

> <r_epik_Charging_Adjusted_Penalty>
0

> <i_epik_Tot_Q>
0

> <i_epik_Tot_abs_Q>
0

> <r_epik_Metal_State_Penalty>
-0

> <b_epik_Metal_Only>
0

> <s_lp_Force_Field>
OPLS_2005

> <r_lp_Energy>
61.4405

> <b_lp_Chiralities_Consistent>
1

> <s_lp_Variant>
AV-unprocessed.smi:746-2

> <Gold.Version>
5.8.1

> <Gold.Id.Protein>
6NUR|6NUR_protein|mol2

> <Gold.PLP.Fitness>
42.2846

> <Gold.PLP.PLP>
-34.7775

> <Gold.PLP.part.hbond>
-2.0000

> <Gold.PLP.part.metal>
0.0000

> <Gold.PLP.part.buried>
-4.5876

> <Gold.PLP.part.nonpolar>
-26.9313

> <Gold.PLP.part.repulsive>
0.8215

> <Gold.PLP.ligand.clash>
0.2089

> <Gold.PLP.ligand.torsion>
0.4860

> <Gold.PLP.Chemscore.Hbond>
1.7729

> <Gold.PLP.Chemscore.CHOScore>
0.9940

> <Gold.PLP.Chemscore.Metal>
0.0000

> <Gold.Chemscore.Hbonds>
donor molecule, donor type, donor heavy atom, donor atom, acceptor molecule, acceptor atom, score
      P1  H  7997  8008       L1     2  1.00
      P1  H 10752 10764       L1     5  0.84
      L1  C    22    48       P1  7948  0.83

> <Gold.PLP.Chemscore.Internal.Correction>
0.3871

> <Gold.Rescore>
     Score         DG    S(hbond)    S(metal)    S(lipo)     H(rot)  DE(clash)    DE(int)     intcor
     12.41     -15.97       1.00        0.00      94.29       1.52       0.37       3.20       ----

> <Gold.Chemscore.Fitness>
12.4074

> <Gold.Chemscore.DG>
-15.9701

> <Gold.Chemscore.ZeroCoef>
-5.4800

> <Gold.Chemscore.Hbond>
1.0005

> <Gold.Chemscore.Metal>
0.0000

> <Gold.Chemscore.Lipo>
94.2941

> <Gold.Chemscore.Internal_Hbond>
0.0000

> <Gold.Chemscore.DEClash>
0.3672

> <Gold.Chemscore.DEInternal>
3.1954

> <Gold.Chemscore.Rot>
1.5172

> <Gold.Chemscore.Internal.Correction>
   9.000000E+99

> <Gold.Chemscore.Hbonds>
donor molecule, donor type, donor heavy atom, donor atom, acceptor molecule, acceptor atom, score
      P1  H  7997  8008       L1     2  0.87
      P1  H 10752 10764       L1     5  0.08

> <Gold.Chemscore.Hbond.Weighted>
-3.3418

> <Gold.Chemscore.Metal.Weighted>
-0.0000

> <Gold.Chemscore.Lipo.Weighted>
-11.0324

> <Gold.Chemscore.Internal_Hbond.Weighted>
0.0000

> <Gold.Chemscore.DEClash.Weighted>
0.3672

> <Gold.Chemscore.DEInternal.Weighted>
3.1954

> <Gold.Chemscore.Rot.Weighted>
3.8841

> <Gold.Chemscore.Internal.Correction.Weighted>
   9.000000E+99

> <Gold.Protein.RotatedTorsions>
[ 6907 6896 6895 6894 ] final  -62.74 input  -60.11 | X-H torsion
[ 7974 7965 7964 7962 ] final   88.81 input  175.53 | X-H torsion
[ 8008 7997 7996 7995 ] final  -91.02 input   59.86 | X-H torsion
[ 10167 10162 10161 10158 ] final   42.23 input  -65.29 | X-H torsion
[ 10718 10713 10712 10709 ] final  -55.29 input   66.30 | X-H torsion
[ 10763 10752 10751 10750 ] final    9.23 input  -60.55 | X-H torsion
[ 11005 11000 10999 10996 ] final  136.76 input  -57.11 | X-H torsion

> <Gold.Protein.ActiveResidues>
 VAL166  LYS551  ARG553  GLY616  TRP617  ASP618  TYR619  PRO620  LYS621  CYS622 
 ASP623  PHE694  ASN695  SER759  ASP760  ASP761  ALA762  ILE779  LEU786  VAL792 
 PHE793  MET794  SER795  GLU796  ALA797  LYS798  CYS799  TRP800  GLU811  SER814 

> <Gold.Protein.RotatedAtoms>
  150.7695  134.6530  159.6297 H   0  0  0  0  0  0  0  0  0  0  0  0  # atno 6907 bound_to 6896
  152.3742  134.6685  160.0174 H   0  0  0  0  0  0  0  0  0  0  0  0  # atno 6908 bound_to 6896
  151.7036  133.3275  159.3309 H   0  0  0  0  0  0  0  0  0  0  0  0  # atno 6909 bound_to 6896
  145.5407  139.2288  143.2567 H   0  0  0  0  0  0  0  0  0  0  0  0  # atno 7974 bound_to 7965
  154.7056  140.0524  157.0501 H   0  0  0  0  0  0  0  0  0  0  0  0  # atno 8008 bound_to 7997
  155.0624  140.3191  155.4637 H   0  0  0  0  0  0  0  0  0  0  0  0  # atno 8009 bound_to 7997
  156.2774  140.2096  156.5751 H   0  0  0  0  0  0  0  0  0  0  0  0  # atno 8010 bound_to 7997
  140.3564  144.2284  150.6141 H   0  0  0  0  0  0  0  0  0  0  0  0  # atno 10167 bound_to 10162
  156.1381  130.4156  150.0151 H   0  0  0  0  0  0  0  0  0  0  0  0  # atno 10718 bound_to 10713
  153.2162  135.6875  153.8054 H   0  0  0  0  0  0  0  0  0  0  0  0  # atno 10763 bound_to 10752
  153.7269  135.3258  155.3279 H   0  0  0  0  0  0  0  0  0  0  0  0  # atno 10764 bound_to 10752
  154.8247  135.4626  154.0991 H   0  0  0  0  0  0  0  0  0  0  0  0  # atno 10765 bound_to 10752
  140.0068  134.9456  157.0192 H   0  0  0  0  0  0  0  0  0  0  0  0  # atno 11005 bound_to 11000
  146.1983  140.6227  142.9114 LP  0  0  0  0  0  0  0  0  0  0  0  0  # atno 17320 bound_to 7965
  144.7578  140.5350  143.6756 LP  0  0  0  0  0  0  0  0  0  0  0  0  # atno 17321 bound_to 7965
  140.5169  143.2275  151.8449 LP  0  0  0  0  0  0  0  0  0  0  0  0  # atno 17342 bound_to 10162
  139.4819  144.4883  151.9218 LP  0  0  0  0  0  0  0  0  0  0  0  0  # atno 17343 bound_to 10162
  156.8044  130.9302  151.3645 LP  0  0  0  0  0  0  0  0  0  0  0  0  # atno 17370 bound_to 10713
  157.6550  130.8917  149.9711 LP  0  0  0  0  0  0  0  0  0  0  0  0  # atno 17371 bound_to 10713
  140.4627  134.1468  155.7193 LP  0  0  0  0  0  0  0  0  0  0  0  0  # atno 17394 bound_to 11000
  141.1682  133.8660  157.1650 LP  0  0  0  0  0  0  0  0  0  0  0  0  # atno 17395 bound_to 11000

$$$$
