AV-unprocessed.smi:1795|AV-procd|sdf|7239|dock10
  -GOLD-   22720 8483D 1   1.00000     0.00000
 Structure written by MMmdl.
 47 48  0  0  0  0  0  0  0  0  1 V2000
  145.5788  136.0779  150.8510 C   0  0  0  0  0  0  0  0  0  0  0  0
  145.0130  134.9604  151.7444 C   0  0  2  0  0  0  0  0  0  0  0  0
  145.8161  134.7523  153.0442 C   0  0  0  0  0  0  0  0  0  0  0  0
  147.1044  134.0783  152.8405 N   0  0  0  0  0  0  0  0  0  0  0  0
  147.8453  133.8663  154.1066 C   0  0  1  0  0  0  0  0  0  0  0  0
  149.2504  133.2489  153.8844 C   0  0  0  0  0  0  0  0  0  0  0  0
  147.9995  135.1623  154.9495 C   0  0  0  0  0  0  0  0  0  0  0  0
  148.9829  136.0796  154.3824 N   0  0  0  0  0  0  0  0  0  0  0  0
  149.9379  136.7115  155.0797 C   0  0  0  0  0  0  0  0  0  0  0  0
  150.0870  136.5745  156.2948 O   0  0  0  0  0  0  0  0  0  0  0  0
  150.8510  137.6409  154.2661 C   0  0  0  0  0  0  0  0  0  0  0  0
  150.6602  139.0699  154.5665 N   0  0  0  0  0  0  0  0  0  0  0  0
  149.4733  139.6678  154.0980 C   0  0  0  0  0  0  0  0  0  0  0  0
  149.1957  140.9626  154.3172 C   0  0  0  0  0  0  0  0  0  0  0  0
  150.1537  141.7500  155.0563 C   0  0  0  0  0  0  0  0  0  0  0  0
  151.2899  141.1872  155.5133 C   0  0  0  0  0  0  0  0  0  0  0  0
  151.5962  139.7713  155.2781 C   0  0  0  0  0  0  0  0  0  0  0  0
  152.6303  139.2485  155.6949 O   0  0  0  0  0  0  0  0  0  0  0  0
  146.8490  132.8291  152.1173 C   0  0  0  0  0  0  0  0  0  0  0  0
  146.1057  133.0511  150.7882 C   0  0  1  0  0  0  0  0  0  0  0  0
  145.7828  131.7302  150.0814 C   0  0  0  0  0  0  0  0  0  0  0  0
  144.8795  133.7294  151.0379 O   0  0  0  0  0  0  0  0  0  0  0  0
  145.5528  137.0373  151.3681 H   0  0  0  0  0  0  0  0  0  0  0  0
  144.9929  136.1805  149.9375 H   0  0  0  0  0  0  0  0  0  0  0  0
  146.6139  135.8913  150.5664 H   0  0  0  0  0  0  0  0  0  0  0  0
  144.0025  135.2610  152.0223 H   0  0  0  0  0  0  0  0  0  0  0  0
  145.9533  135.7330  153.4942 H   0  0  0  0  0  0  0  0  0  0  0  0
  145.2117  134.1709  153.7423 H   0  0  0  0  0  0  0  0  0  0  0  0
  147.2787  133.1565  154.7117 H   0  0  0  0  0  0  0  0  0  0  0  0
  149.8215  133.1614  154.8081 H   0  0  0  0  0  0  0  0  0  0  0  0
  149.8405  133.8518  153.1931 H   0  0  0  0  0  0  0  0  0  0  0  0
  149.1974  132.2355  153.4893 H   0  0  0  0  0  0  0  0  0  0  0  0
  147.0284  135.6511  155.0471 H   0  0  0  0  0  0  0  0  0  0  0  0
  148.3525  134.9515  155.9572 H   0  0  0  0  0  0  0  0  0  0  0  0
  148.9288  136.2480  153.3884 H   0  0  0  0  0  0  0  0  0  0  0  0
  151.8897  137.3514  154.4365 H   0  0  0  0  0  0  0  0  0  0  0  0
  150.6751  137.4536  153.2056 H   0  0  0  0  0  0  0  0  0  0  0  0
  148.8074  139.0084  153.5605 H   0  0  0  0  0  0  0  0  0  0  0  0
  148.2785  141.4028  153.9541 H   0  0  0  0  0  0  0  0  0  0  0  0
  149.9574  142.7953  155.2450 H   0  0  0  0  0  0  0  0  0  0  0  0
  151.9941  141.7917  156.0663 H   0  0  0  0  0  0  0  0  0  0  0  0
  147.7846  132.3292  151.8742 H   0  0  0  0  0  0  0  0  0  0  0  0
  146.2788  132.1464  152.7494 H   0  0  0  0  0  0  0  0  0  0  0  0
  146.7250  133.6516  150.1214 H   0  0  0  0  0  0  0  0  0  0  0  0
  146.6929  131.1764  149.8502 H   0  0  0  0  0  0  0  0  0  0  0  0
  145.2565  131.9090  149.1435 H   0  0  0  0  0  0  0  0  0  0  0  0
  145.1513  131.0939  150.7021 H   0  0  0  0  0  0  0  0  0  0  0  0
  1  2  1  0  0  0  0
  1 23  1  0  0  0  0
  1 24  1  0  0  0  0
  1 25  1  0  0  0  0
  2 22  1  0  0  0  0
  2  3  1  0  0  0  0
  2 26  1  0  0  0  0
  3  4  1  0  0  0  0
  3 27  1  0  0  0  0
  3 28  1  0  0  0  0
  4  5  1  0  0  0  0
  4 19  1  0  0  0  0
  5  6  1  0  0  0  0
  5  7  1  0  0  0  0
  5 29  1  0  0  0  0
  6 30  1  0  0  0  0
  6 31  1  0  0  0  0
  6 32  1  0  0  0  0
  7  8  1  0  0  0  0
  7 33  1  0  0  0  0
  7 34  1  0  0  0  0
  8  9  1  0  0  0  0
  8 35  1  0  0  0  0
  9 10  2  0  0  0  0
  9 11  1  0  0  0  0
 11 12  1  0  0  0  0
 11 36  1  0  0  0  0
 11 37  1  0  0  0  0
 12 17  1  0  0  0  0
 12 13  1  0  0  0  0
 13 14  2  0  0  0  0
 13 38  1  0  0  0  0
 14 15  1  0  0  0  0
 14 39  1  0  0  0  0
 15 16  2  0  0  0  0
 15 40  1  0  0  0  0
 16 17  1  0  0  0  0
 16 41  1  0  0  0  0
 17 18  2  0  0  0  0
 19 20  1  0  0  0  0
 19 42  1  0  0  0  0
 19 43  1  0  0  0  0
 20 21  1  0  0  0  0
 20 22  1  0  0  0  0
 20 44  1  0  0  0  0
 21 45  1  0  0  0  0
 21 46  1  0  0  0  0
 21 47  1  0  0  0  0
M  END
> <s_m_source_file>
AV-unprocessed.smi

> <i_m_source_file_index>
1795

> <i_lp_mmshare_version>
43012

> <i_f3d_flags>
0

> <s_epik_input>
W0NIM11bQ0BASF0xW0NIMl1OKFtDSDJdW0NASF0oTzEpW0NIM10pW0NASF0oW0NIM10pW0NIMl1bTkhdQyg9TylbQ0gyXW4yW2NIXVtjSF1bY0hdW2NIXWMyPU8=

> <s_epik_cmdline>
J2VwaWtfcHl0aG9uJywgJy1waCcsICc3LjAnLCAnLXRuJywgJzgnLCAnLW1hJywgJzIwMCcsICctbWV0YWxfYmluZGluZycsICctaW1hZScsICc8aW5maWxlLm1hZT4nLCAnLW9tYWUnLCAnPG91dGZpbGUubWFlPic=

> <r_lp_tautomer_probability>
1

> <r_epik_Ionization_Penalty>
0.237383

> <r_epik_Ionization_Penalty_Charging>
3.58805e-07

> <r_epik_Ionization_Penalty_Neutral>
0.237382

> <r_epik_State_Penalty>
0.228245

> <r_epik_Charging_Adjusted_Penalty>
0.228245

> <i_epik_Tot_Q>
0

> <i_epik_Tot_abs_Q>
0

> <r_epik_Metal_State_Penalty>
0.228221

> <b_epik_Metal_Only>
0

> <s_lp_Force_Field>
OPLS_2005

> <r_lp_Energy>
40.7521

> <b_lp_Chiralities_Consistent>
1

> <s_lp_Variant>
AV-unprocessed.smi:1795-3

> <Gold.Version>
5.8.1

> <Gold.Id.Protein>
6NUR|6NUR_protein|mol2

> <Gold.PLP.Fitness>
47.2943

> <Gold.PLP.PLP>
-42.0325

> <Gold.PLP.part.hbond>
-2.0000

> <Gold.PLP.part.metal>
0.0000

> <Gold.PLP.part.buried>
-4.7385

> <Gold.PLP.part.nonpolar>
-36.4835

> <Gold.PLP.part.repulsive>
1.3759

> <Gold.PLP.ligand.clash>
0.0000

> <Gold.PLP.ligand.torsion>
0.3940

> <Gold.PLP.Chemscore.Hbond>
2.0000

> <Gold.PLP.Chemscore.CHOScore>
0.0000

> <Gold.PLP.Chemscore.Metal>
0.0000

> <Gold.Chemscore.Hbonds>
donor molecule, donor type, donor heavy atom, donor atom, acceptor molecule, acceptor atom, score
      L1  H     8    35       P1  7948  0.96
      P1  H  7997  8010       L1    18  1.00
      L1  C    13    38       P1  7957  0.12

> <Gold.PLP.Chemscore.Internal.Correction>
0.0499

> <Gold.Rescore>
     Score         DG    S(hbond)    S(metal)    S(lipo)     H(rot)  DE(clash)    DE(int)     intcor
     17.09     -17.44       1.97        0.00      85.86       1.83       0.07       0.28       ----

> <Gold.Chemscore.Fitness>
17.0932

> <Gold.Chemscore.DG>
-17.4357

> <Gold.Chemscore.ZeroCoef>
-5.4800

> <Gold.Chemscore.Hbond>
1.9707

> <Gold.Chemscore.Metal>
0.0000

> <Gold.Chemscore.Lipo>
85.8635

> <Gold.Chemscore.Internal_Hbond>
0.0000

> <Gold.Chemscore.DEClash>
0.0664

> <Gold.Chemscore.DEInternal>
0.2761

> <Gold.Chemscore.Rot>
1.8251

> <Gold.Chemscore.Internal.Correction>
   9.000000E+99

> <Gold.Chemscore.Hbonds>
donor molecule, donor type, donor heavy atom, donor atom, acceptor molecule, acceptor atom, score
      L1  H     8    35       P1  7948  0.90
      P1  H  7997  8010       L1    18  0.96

> <Gold.Chemscore.Hbond.Weighted>
-6.5820

> <Gold.Chemscore.Metal.Weighted>
-0.0000

> <Gold.Chemscore.Lipo.Weighted>
-10.0460

> <Gold.Chemscore.Internal_Hbond.Weighted>
0.0000

> <Gold.Chemscore.DEClash.Weighted>
0.0664

> <Gold.Chemscore.DEInternal.Weighted>
0.2761

> <Gold.Chemscore.Rot.Weighted>
4.6724

> <Gold.Chemscore.Internal.Correction.Weighted>
   9.000000E+99

> <Gold.Protein.RotatedTorsions>
[ 6907 6896 6895 6894 ] final  125.28 input  -60.11 | X-H torsion
[ 7974 7965 7964 7962 ] final   31.90 input  175.53 | X-H torsion
[ 8008 7997 7996 7995 ] final   86.58 input   59.86 | X-H torsion
[ 10167 10162 10161 10158 ] final  -32.25 input  -65.29 | X-H torsion
[ 10718 10713 10712 10709 ] final  136.52 input   66.30 | X-H torsion
[ 10763 10752 10751 10750 ] final  -18.23 input  -60.55 | X-H torsion
[ 11005 11000 10999 10996 ] final -156.79 input  -57.11 | X-H torsion

> <Gold.Protein.ActiveResidues>
 VAL166  LYS551  ARG553  GLY616  TRP617  ASP618  TYR619  PRO620  LYS621  CYS622 
 ASP623  PHE694  ASN695  SER759  ASP760  ASP761  ALA762  ILE779  LEU786  VAL792 
 PHE793  MET794  SER795  GLU796  ALA797  LYS798  CYS799  TRP800  GLU811  SER814 

> <Gold.Protein.RotatedAtoms>
  152.4005  133.6811  159.6312 H   0  0  0  0  0  0  0  0  0  0  0  0  # atno 6907 bound_to 6896
  150.7897  133.8798  159.3291 H   0  0  0  0  0  0  0  0  0  0  0  0  # atno 6908 bound_to 6896
  151.6565  135.0996  160.0222 H   0  0  0  0  0  0  0  0  0  0  0  0  # atno 6909 bound_to 6896
  146.1521  139.6596  142.9092 H   0  0  0  0  0  0  0  0  0  0  0  0  # atno 7974 bound_to 7965
  155.9646  140.3390  155.6521 H   0  0  0  0  0  0  0  0  0  0  0  0  # atno 8008 bound_to 7997
  155.6754  140.0731  157.2523 H   0  0  0  0  0  0  0  0  0  0  0  0  # atno 8009 bound_to 7997
  154.4151  140.1684  156.1912 H   0  0  0  0  0  0  0  0  0  0  0  0  # atno 8010 bound_to 7997
  140.7224  143.3708  151.1781 H   0  0  0  0  0  0  0  0  0  0  0  0  # atno 10167 bound_to 10162
  157.4458  131.1061  151.0091 H   0  0  0  0  0  0  0  0  0  0  0  0  # atno 10718 bound_to 10713
  153.5861  135.7003  153.5443 H   0  0  0  0  0  0  0  0  0  0  0  0  # atno 10763 bound_to 10752
  153.3219  135.4072  155.1423 H   0  0  0  0  0  0  0  0  0  0  0  0  # atno 10764 bound_to 10752
  154.8609  135.3697  154.5391 H   0  0  0  0  0  0  0  0  0  0  0  0  # atno 10765 bound_to 10752
  140.6717  134.4240  157.5231 H   0  0  0  0  0  0  0  0  0  0  0  0  # atno 11005 bound_to 11000
  145.4798  141.0437  143.2652 LP  0  0  0  0  0  0  0  0  0  0  0  0  # atno 17320 bound_to 7965
  144.7917  139.6315  143.7110 LP  0  0  0  0  0  0  0  0  0  0  0  0  # atno 17321 bound_to 7965
  139.7279  143.9119  152.3009 LP  0  0  0  0  0  0  0  0  0  0  0  0  # atno 17342 bound_to 10162
  139.8898  144.6972  150.8783 LP  0  0  0  0  0  0  0  0  0  0  0  0  # atno 17343 bound_to 10162
  157.0938  130.5953  149.5445 LP  0  0  0  0  0  0  0  0  0  0  0  0  # atno 17370 bound_to 10713
  155.9967  130.5036  150.7505 LP  0  0  0  0  0  0  0  0  0  0  0  0  # atno 17371 bound_to 10713
  139.8979  134.8625  156.2022 LP  0  0  0  0  0  0  0  0  0  0  0  0  # atno 17394 bound_to 11000
  141.0387  133.6949  156.1559 LP  0  0  0  0  0  0  0  0  0  0  0  0  # atno 17395 bound_to 11000

$$$$
