AV-unprocessed.smi:3335|AV-procd|sdf|12851|dock3
  -GOLD-   2272019243D 1   1.00000     0.00000
 Structure written by MMmdl.
 46 47  0  0  0  0  0  0  0  0  1 V2000
  152.4486  144.9402  158.7166 C   0  0  0  0  0  0  0  0  0  0  0  0
  151.8567  143.5679  158.5776 C   0  0  0  0  0  0  0  0  0  0  0  0
  150.9025  143.1168  157.6226 C   0  0  0  0  0  0  0  0  0  0  0  0
  150.5551  141.8531  157.8010 N   0  0  0  0  0  0  0  0  0  0  0  0
  151.2934  141.4414  158.8565 N   0  0  0  0  0  0  0  0  0  0  0  0
  151.1390  140.0920  159.3946 C   0  0  2  0  0  0  0  0  0  0  0  0
  152.5021  139.3736  159.4535 C   0  0  0  0  0  0  0  0  0  0  0  0
  150.0594  139.2819  158.6206 C   0  0  1  0  0  0  0  0  0  0  0  0
  150.4360  139.0365  157.1497 C   0  0  0  0  0  0  0  0  0  0  0  0
  149.9043  137.9615  159.2307 N   0  0  0  0  0  0  0  0  0  0  0  0
  148.5115  137.4795  159.2569 C   0  0  1  0  0  0  0  0  0  0  0  0
  147.8792  137.5939  157.8581 C   0  0  0  0  0  0  0  0  0  0  0  0
  148.4498  136.0218  159.7561 C   0  0  0  0  0  0  0  0  0  0  0  0
  149.0408  135.1448  159.1230 O   0  0  0  0  0  0  0  0  0  0  0  0
  147.7644  135.7386  160.8862 N   0  0  0  0  0  0  0  0  0  0  0  0
  147.7075  134.4001  161.4719 C   0  0  0  0  0  0  0  0  0  0  0  0
  147.0627  134.5737  162.8470 C   0  0  0  0  0  0  0  0  0  0  0  0
  146.2136  135.8273  162.6997 C   0  0  0  0  0  0  0  0  0  0  0  0
  146.9814  136.6787  161.6892 C   0  0  0  0  0  0  0  0  0  0  0  0
  152.0879  142.4600  159.3414 C   0  0  0  0  0  0  0  0  0  0  0  0
  151.9072  145.6773  158.1232 H   0  0  0  0  0  0  0  0  0  0  0  0
  153.4887  144.9644  158.3917 H   0  0  0  0  0  0  0  0  0  0  0  0
  152.4244  145.2838  159.7511 H   0  0  0  0  0  0  0  0  0  0  0  0
  150.4379  143.6745  156.8231 H   0  0  0  0  0  0  0  0  0  0  0  0
  150.7984  140.2086  160.4248 H   0  0  0  0  0  0  0  0  0  0  0  0
  152.4449  138.4521  160.0323 H   0  0  0  0  0  0  0  0  0  0  0  0
  153.2545  140.0020  159.9312 H   0  0  0  0  0  0  0  0  0  0  0  0
  152.8653  139.1180  158.4576 H   0  0  0  0  0  0  0  0  0  0  0  0
  149.1151  139.8291  158.6304 H   0  0  0  0  0  0  0  0  0  0  0  0
  150.4838  139.9685  156.5872 H   0  0  0  0  0  0  0  0  0  0  0  0
  149.6950  138.4075  156.6548 H   0  0  0  0  0  0  0  0  0  0  0  0
  151.4040  138.5418  157.0606 H   0  0  0  0  0  0  0  0  0  0  0  0
  150.2980  137.9929  160.1603 H   0  0  0  0  0  0  0  0  0  0  0  0
  147.9478  138.0995  159.9522 H   0  0  0  0  0  0  0  0  0  0  0  0
  146.8549  137.2210  157.8490 H   0  0  0  0  0  0  0  0  0  0  0  0
  148.4437  137.0243  157.1188 H   0  0  0  0  0  0  0  0  0  0  0  0
  147.8473  138.6299  157.5207 H   0  0  0  0  0  0  0  0  0  0  0  0
  147.0917  133.7609  160.8375 H   0  0  0  0  0  0  0  0  0  0  0  0
  148.6961  133.9458  161.5547 H   0  0  0  0  0  0  0  0  0  0  0  0
  146.4837  133.7031  163.1565 H   0  0  0  0  0  0  0  0  0  0  0  0
  147.8367  134.7445  163.5963 H   0  0  0  0  0  0  0  0  0  0  0  0
  145.2386  135.5613  162.2892 H   0  0  0  0  0  0  0  0  0  0  0  0
  146.0494  136.3415  163.6471 H   0  0  0  0  0  0  0  0  0  0  0  0
  147.6573  137.3558  162.2103 H   0  0  0  0  0  0  0  0  0  0  0  0
  146.2993  137.2762  161.0837 H   0  0  0  0  0  0  0  0  0  0  0  0
  152.7313  142.3194  160.1974 H   0  0  0  0  0  0  0  0  0  0  0  0
  1  2  1  0  0  0  0
  1 21  1  0  0  0  0
  1 22  1  0  0  0  0
  1 23  1  0  0  0  0
  2 20  2  0  0  0  0
  2  3  1  0  0  0  0
  3  4  2  0  0  0  0
  3 24  1  0  0  0  0
  4  5  1  0  0  0  0
  5  6  1  0  0  0  0
  5 20  1  0  0  0  0
  6  7  1  0  0  0  0
  6  8  1  0  0  0  0
  6 25  1  0  0  0  0
  7 26  1  0  0  0  0
  7 27  1  0  0  0  0
  7 28  1  0  0  0  0
  8  9  1  0  0  0  0
  8 10  1  0  0  0  0
  8 29  1  0  0  0  0
  9 30  1  0  0  0  0
  9 31  1  0  0  0  0
  9 32  1  0  0  0  0
 10 11  1  0  0  0  0
 10 33  1  0  0  0  0
 11 12  1  0  0  0  0
 11 13  1  0  0  0  0
 11 34  1  0  0  0  0
 12 35  1  0  0  0  0
 12 36  1  0  0  0  0
 12 37  1  0  0  0  0
 13 14  2  0  0  0  0
 13 15  1  0  0  0  0
 15 19  1  0  0  0  0
 15 16  1  0  0  0  0
 16 17  1  0  0  0  0
 16 38  1  0  0  0  0
 16 39  1  0  0  0  0
 17 18  1  0  0  0  0
 17 40  1  0  0  0  0
 17 41  1  0  0  0  0
 18 19  1  0  0  0  0
 18 42  1  0  0  0  0
 18 43  1  0  0  0  0
 19 44  1  0  0  0  0
 19 45  1  0  0  0  0
 20 46  1  0  0  0  0
M  END
> <s_m_source_file>
AV-unprocessed.smi

> <i_m_source_file_index>
3335

> <i_lp_mmshare_version>
43012

> <i_f3d_flags>
0

> <s_epik_input>
W0NIM11jMVtjSF1ubihbY0hdMSlbQ0BIXShbQ0gzXSlbQ0BIXShbQ0gzXSlbTkhdW0NASF0oW0NIM10pQyg9TylOMltDSDJdW0NIMl1bQ0gyXVtDSDJdMg==

> <s_epik_cmdline>
J2VwaWtfcHl0aG9uJywgJy1waCcsICc3LjAnLCAnLXRuJywgJzgnLCAnLW1hJywgJzIwMCcsICctbWV0YWxfYmluZGluZycsICctaW1hZScsICc8aW5maWxlLm1hZT4nLCAnLW9tYWUnLCAnPG91dGZpbGUubWFlPic=

> <r_lp_tautomer_probability>
1

> <r_epik_Ionization_Penalty>
0.918803

> <r_epik_Ionization_Penalty_Charging>
0

> <r_epik_Ionization_Penalty_Neutral>
0.918803

> <r_epik_State_Penalty>
0.958258

> <r_epik_Charging_Adjusted_Penalty>
0.958258

> <i_epik_Tot_Q>
0

> <i_epik_Tot_abs_Q>
0

> <r_epik_Metal_State_Penalty>
0.956786

> <b_epik_Metal_Only>
0

> <s_lp_Force_Field>
OPLS_2005

> <r_lp_Energy>
36.8756

> <b_lp_Chiralities_Consistent>
1

> <s_lp_Variant>
AV-unprocessed.smi:3335-15

> <Gold.Version>
5.8.1

> <Gold.Id.Protein>
6NUR|6NUR_protein|mol2

> <Gold.PLP.Fitness>
43.1288

> <Gold.PLP.PLP>
-38.1123

> <Gold.PLP.part.hbond>
-1.0000

> <Gold.PLP.part.metal>
0.0000

> <Gold.PLP.part.buried>
-5.0979

> <Gold.PLP.part.nonpolar>
-31.8793

> <Gold.PLP.part.repulsive>
0.0557

> <Gold.PLP.ligand.clash>
0.0000

> <Gold.PLP.ligand.torsion>
0.5815

> <Gold.PLP.Chemscore.Hbond>
1.0000

> <Gold.PLP.Chemscore.CHOScore>
1.0000

> <Gold.PLP.Chemscore.Metal>
0.0000

> <Gold.Chemscore.Hbonds>
donor molecule, donor type, donor heavy atom, donor atom, acceptor molecule, acceptor atom, score
      P1  H  6896  6909       L1    14  1.00
      L1  C     3    24       P1  8028  1.00

> <Gold.PLP.Chemscore.Internal.Correction>
0.1796

> <Gold.Rescore>
     Score         DG    S(hbond)    S(metal)    S(lipo)     H(rot)  DE(clash)    DE(int)     intcor
     15.54     -16.49       0.99        0.00     101.31       1.62       0.03       0.92       ----

> <Gold.Chemscore.Fitness>
15.5370

> <Gold.Chemscore.DG>
-16.4874

> <Gold.Chemscore.ZeroCoef>
-5.4800

> <Gold.Chemscore.Hbond>
0.9886

> <Gold.Chemscore.Metal>
0.0000

> <Gold.Chemscore.Lipo>
101.3128

> <Gold.Chemscore.Internal_Hbond>
0.0000

> <Gold.Chemscore.DEClash>
0.0333

> <Gold.Chemscore.DEInternal>
0.9171

> <Gold.Chemscore.Rot>
1.6204

> <Gold.Chemscore.Internal.Correction>
   9.000000E+99

> <Gold.Chemscore.Hbonds>
donor molecule, donor type, donor heavy atom, donor atom, acceptor molecule, acceptor atom, score
      P1  H  6896  6909       L1    14  1.00

> <Gold.Chemscore.Hbond.Weighted>
-3.3020

> <Gold.Chemscore.Metal.Weighted>
-0.0000

> <Gold.Chemscore.Lipo.Weighted>
-11.8536

> <Gold.Chemscore.Internal_Hbond.Weighted>
0.0000

> <Gold.Chemscore.DEClash.Weighted>
0.0333

> <Gold.Chemscore.DEInternal.Weighted>
0.9171

> <Gold.Chemscore.Rot.Weighted>
4.1482

> <Gold.Chemscore.Internal.Correction.Weighted>
   9.000000E+99

> <Gold.Protein.RotatedTorsions>
[ 6907 6896 6895 6894 ] final   40.59 input  -60.11 | X-H torsion
[ 7974 7965 7964 7962 ] final   86.09 input  175.53 | X-H torsion
[ 8008 7997 7996 7995 ] final  136.04 input   59.86 | X-H torsion
[ 10167 10162 10161 10158 ] final   51.65 input  -65.29 | X-H torsion
[ 10718 10713 10712 10709 ] final  125.28 input   66.30 | X-H torsion
[ 10763 10752 10751 10750 ] final -150.21 input  -60.55 | X-H torsion
[ 11005 11000 10999 10996 ] final  -93.92 input  -57.11 | X-H torsion

> <Gold.Protein.ActiveResidues>
 VAL166  LYS551  ARG553  GLY616  TRP617  ASP618  TYR619  PRO620  LYS621  CYS622 
 ASP623  PHE694  ASN695  SER759  ASP760  ASP761  ALA762  ILE779  LEU786  VAL792 
 PHE793  MET794  SER795  GLU796  ALA797  LYS798  CYS799  TRP800  GLU811  SER814 

> <Gold.Protein.RotatedAtoms>
  152.1844  134.8726  160.0523 H   0  0  0  0  0  0  0  0  0  0  0  0  # atno 6907 bound_to 6896
  151.9639  133.3699  159.4053 H   0  0  0  0  0  0  0  0  0  0  0  0  # atno 6908 bound_to 6896
  150.6923  134.4135  159.5216 H   0  0  0  0  0  0  0  0  0  0  0  0  # atno 6909 bound_to 6896
  145.5768  139.2320  143.2375 H   0  0  0  0  0  0  0  0  0  0  0  0  # atno 7974 bound_to 7965
  156.3004  140.2455  156.3681 H   0  0  0  0  0  0  0  0  0  0  0  0  # atno 8008 bound_to 7997
  154.8814  140.0412  157.1804 H   0  0  0  0  0  0  0  0  0  0  0  0  # atno 8009 bound_to 7997
  154.8691  140.2932  155.5496 H   0  0  0  0  0  0  0  0  0  0  0  0  # atno 8010 bound_to 7997
  140.2597  144.3386  150.6322 H   0  0  0  0  0  0  0  0  0  0  0  0  # atno 10167 bound_to 10162
  157.5516  131.1094  150.8692 H   0  0  0  0  0  0  0  0  0  0  0  0  # atno 10718 bound_to 10713
  154.8132  135.3290  154.7247 H   0  0  0  0  0  0  0  0  0  0  0  0  # atno 10763 bound_to 10752
  153.7893  135.6912  153.4879 H   0  0  0  0  0  0  0  0  0  0  0  0  # atno 10764 bound_to 10752
  153.1928  135.4545  155.0117 H   0  0  0  0  0  0  0  0  0  0  0  0  # atno 10765 bound_to 10752
  141.1484  133.7920  157.0226 H   0  0  0  0  0  0  0  0  0  0  0  0  # atno 11005 bound_to 11000
  146.1745  140.6595  142.9218 LP  0  0  0  0  0  0  0  0  0  0  0  0  # atno 17320 bound_to 7965
  144.7412  140.4947  143.6868 LP  0  0  0  0  0  0  0  0  0  0  0  0  # atno 17321 bound_to 7965
  140.5975  143.2167  151.7135 LP  0  0  0  0  0  0  0  0  0  0  0  0  # atno 17342 bound_to 10162
  139.5020  144.3844  152.0343 LP  0  0  0  0  0  0  0  0  0  0  0  0  # atno 17343 bound_to 10162
  156.9215  130.5317  149.5279 LP  0  0  0  0  0  0  0  0  0  0  0  0  # atno 17370 bound_to 10713
  156.0582  130.5639  150.9136 LP  0  0  0  0  0  0  0  0  0  0  0  0  # atno 17371 bound_to 10713
  140.0806  134.9650  157.1617 LP  0  0  0  0  0  0  0  0  0  0  0  0  # atno 17394 bound_to 11000
  140.3582  134.2523  155.7190 LP  0  0  0  0  0  0  0  0  0  0  0  0  # atno 17395 bound_to 11000

$$$$
