AV-unprocessed.smi:184|AV-procd|sdf|1464|dock1
  -GOLD-   2262019273D 1   1.00000     0.00000
 Structure written by MMmdl.
 54 58  0  0  0  0  0  0  0  0  1 V2000
  147.7998  131.1912  153.7410 O   0  0  0  0  0  0  0  0  0  0  0  0
  147.3057  132.0800  153.0514 C   0  0  0  0  0  0  0  0  0  0  0  0
  146.9721  133.4389  153.6934 C   0  0  0  0  0  0  0  0  0  0  0  0
  146.4688  134.4467  152.7450 N   0  0  0  0  0  0  0  0  0  0  0  0
  146.2120  135.6960  153.2128 C   0  0  0  0  0  0  0  0  0  0  0  0
  145.4084  136.5261  152.4962 N   0  0  0  0  0  0  0  0  0  0  0  0
  145.1550  137.7639  152.9300 C   0  0  0  0  0  0  0  0  0  0  0  0
  145.5890  138.3640  154.0394 N   0  0  0  0  0  0  0  0  0  0  0  0
  146.3803  137.5317  154.7744 C   0  0  0  0  0  0  0  0  0  0  0  0
  146.7408  136.1957  154.4376 C   0  0  0  0  0  0  0  0  0  0  0  0
  147.5502  135.6622  155.4345 N   0  0  0  0  0  0  0  0  0  0  0  0
  147.6757  136.6310  156.2990 C   0  0  0  0  0  0  0  0  0  0  0  0
  146.9967  137.7867  155.9871 N   0  0  0  0  0  0  0  0  0  0  0  0
  146.9569  139.0105  156.7730 C   0  0  0  0  0  0  0  0  0  0  0  0
  148.0597  140.0347  156.4054 C   0  0  0  0  0  0  0  0  0  0  0  0
  147.7794  141.2388  157.0972 O   0  0  0  0  0  0  0  0  0  0  0  0
  149.4739  139.5610  156.8076 C   0  0  0  0  0  0  0  0  0  0  0  0
  150.5748  140.4796  156.2481 C   0  0  0  0  0  0  0  0  0  0  0  0
  150.4447  140.5972  154.8368 O   0  0  0  0  0  0  0  0  0  0  0  0
  149.2183  141.2027  154.4472 C   0  0  0  0  0  0  0  0  0  0  0  0
  148.0349  140.3250  154.8911 C   0  0  0  0  0  0  0  0  0  0  0  0
  145.6826  133.9810  151.6010 C   0  0  2  0  0  0  0  0  0  0  0  0
  144.2935  133.4603  152.0435 C   0  0  0  0  0  0  0  0  0  0  0  0
  143.5101  132.8617  150.8666 C   0  0  0  0  0  0  0  0  0  0  0  0
  144.3140  131.7463  150.1828 C   0  0  0  0  0  0  0  0  0  0  0  0
  145.6780  132.2685  149.7039 C   0  0  0  0  0  0  0  0  0  0  0  0
  146.4958  132.9050  150.8449 C   0  0  2  0  0  0  0  0  0  0  0  0
  147.0317  131.8881  151.7496 N   0  0  0  0  0  0  0  0  0  0  0  0
  146.2319  133.2590  154.4743 H   0  0  0  0  0  0  0  0  0  0  0  0
  147.8703  133.8199  154.1811 H   0  0  0  0  0  0  0  0  0  0  0  0
  144.5128  138.3587  152.2974 H   0  0  0  0  0  0  0  0  0  0  0  0
  148.2625  136.5249  157.1998 H   0  0  0  0  0  0  0  0  0  0  0  0
  145.9726  139.4602  156.6365 H   0  0  0  0  0  0  0  0  0  0  0  0
  147.0226  138.7436  157.8288 H   0  0  0  0  0  0  0  0  0  0  0  0
  147.0264  141.6473  156.6985 H   0  0  0  0  0  0  0  0  0  0  0  0
  149.5701  139.4988  157.8921 H   0  0  0  0  0  0  0  0  0  0  0  0
  149.6369  138.5522  156.4262 H   0  0  0  0  0  0  0  0  0  0  0  0
  150.5364  141.4665  156.7114 H   0  0  0  0  0  0  0  0  0  0  0  0
  151.5566  140.0640  156.4752 H   0  0  0  0  0  0  0  0  0  0  0  0
  149.1444  142.2067  154.8672 H   0  0  0  0  0  0  0  0  0  0  0  0
  149.2123  141.3142  153.3629 H   0  0  0  0  0  0  0  0  0  0  0  0
  148.0824  139.3831  154.3428 H   0  0  0  0  0  0  0  0  0  0  0  0
  147.0926  140.7954  154.6063 H   0  0  0  0  0  0  0  0  0  0  0  0
  145.5082  134.7950  150.8992 H   0  0  0  0  0  0  0  0  0  0  0  0
  144.3981  132.6998  152.8178 H   0  0  0  0  0  0  0  0  0  0  0  0
  143.7180  134.2714  152.4908 H   0  0  0  0  0  0  0  0  0  0  0  0
  142.5550  132.4703  151.2179 H   0  0  0  0  0  0  0  0  0  0  0  0
  143.2777  133.6443  150.1435 H   0  0  0  0  0  0  0  0  0  0  0  0
  144.4564  130.9160  150.8754 H   0  0  0  0  0  0  0  0  0  0  0  0
  143.7519  131.3503  149.3368 H   0  0  0  0  0  0  0  0  0  0  0  0
  146.2448  131.4623  149.2365 H   0  0  0  0  0  0  0  0  0  0  0  0
  145.5167  133.0148  148.9249 H   0  0  0  0  0  0  0  0  0  0  0  0
  147.3665  133.3891  150.3998 H   0  0  0  0  0  0  0  0  0  0  0  0
  147.2410  130.9846  151.3506 H   0  0  0  0  0  0  0  0  0  0  0  0
  1  2  2  0  0  0  0
  2 28  1  0  0  0  0
  2  3  1  0  0  0  0
  3  4  1  0  0  0  0
  3 29  1  0  0  0  0
  3 30  1  0  0  0  0
  4  5  1  0  0  0  0
  4 22  1  0  0  0  0
  5 10  1  0  0  0  0
  5  6  2  0  0  0  0
  6  7  1  0  0  0  0
  7  8  2  0  0  0  0
  7 31  1  0  0  0  0
  8  9  1  0  0  0  0
  9 13  1  0  0  0  0
  9 10  2  0  0  0  0
 10 11  1  0  0  0  0
 11 12  2  0  0  0  0
 12 13  1  0  0  0  0
 12 32  1  0  0  0  0
 13 14  1  0  0  0  0
 14 15  1  0  0  0  0
 14 33  1  0  0  0  0
 14 34  1  0  0  0  0
 15 21  1  0  0  0  0
 15 16  1  0  0  0  0
 15 17  1  0  0  0  0
 16 35  1  0  0  0  0
 17 18  1  0  0  0  0
 17 36  1  0  0  0  0
 17 37  1  0  0  0  0
 18 19  1  0  0  0  0
 18 38  1  0  0  0  0
 18 39  1  0  0  0  0
 19 20  1  0  0  0  0
 20 21  1  0  0  0  0
 20 40  1  0  0  0  0
 20 41  1  0  0  0  0
 21 42  1  0  0  0  0
 21 43  1  0  0  0  0
 22 27  1  0  0  0  0
 22 23  1  0  0  0  0
 22 44  1  0  0  0  0
 23 24  1  0  0  0  0
 23 45  1  0  0  0  0
 23 46  1  0  0  0  0
 24 25  1  0  0  0  0
 24 47  1  0  0  0  0
 24 48  1  0  0  0  0
 25 26  1  0  0  0  0
 25 49  1  0  0  0  0
 25 50  1  0  0  0  0
 26 27  1  0  0  0  0
 26 51  1  0  0  0  0
 26 52  1  0  0  0  0
 27 28  1  0  0  0  0
 27 53  1  0  0  0  0
 28 54  1  0  0  0  0
M  END
> <s_m_source_file>
AV-unprocessed.smi

> <i_m_source_file_index>
184

> <i_lp_mmshare_version>
43012

> <i_f3d_flags>
0

> <s_epik_input>
W0NIMl0xW0NIMl1bQ0gyXVtDSDJdW0NASF0oW0NASF0xMilbTkhdQyg9TylbQ0gyXU4yYyhuW2NIXW4zKWMoYzM0KW5bY0hdbjRbQ0gyXUM1KFtPSF0pW0NIMl1bQ0gyXU9bQ0gyXVtDSDJdNQ==

> <s_epik_cmdline>
J2VwaWtfcHl0aG9uJywgJy1waCcsICc3LjAnLCAnLXRuJywgJzgnLCAnLW1hJywgJzIwMCcsICctbWV0YWxfYmluZGluZycsICctaW1hZScsICc8aW5maWxlLm1hZT4nLCAnLW9tYWUnLCAnPG91dGZpbGUubWFlPic=

> <r_lp_tautomer_probability>
1

> <r_epik_Ionization_Penalty>
0.000822761

> <r_epik_Ionization_Penalty_Charging>
0

> <r_epik_Ionization_Penalty_Neutral>
0.000822761

> <r_epik_State_Penalty>
0.000403048

> <r_epik_Charging_Adjusted_Penalty>
0.000403048

> <i_epik_Tot_Q>
0

> <i_epik_Tot_abs_Q>
0

> <r_epik_Metal_State_Penalty>
-0

> <b_epik_Metal_Only>
0

> <s_lp_Force_Field>
OPLS_2005

> <r_lp_Energy>
36.9453

> <b_lp_Chiralities_Consistent>
1

> <s_lp_Variant>
AV-unprocessed.smi:184-4

> <Gold.Version>
5.8.1

> <Gold.Id.Protein>
6NUR|6NUR_protein|mol2

> <Gold.PLP.Fitness>
39.3886

> <Gold.PLP.PLP>
-30.3864

> <Gold.PLP.part.hbond>
-2.0000

> <Gold.PLP.part.metal>
0.0000

> <Gold.PLP.part.buried>
-0.1203

> <Gold.PLP.part.nonpolar>
-27.6145

> <Gold.PLP.part.repulsive>
0.5535

> <Gold.PLP.ligand.clash>
0.0000

> <Gold.PLP.ligand.torsion>
0.5244

> <Gold.PLP.Chemscore.Hbond>
1.2716

> <Gold.PLP.Chemscore.CHOScore>
2.0000

> <Gold.PLP.Chemscore.Metal>
0.0000

> <Gold.Chemscore.Hbonds>
donor molecule, donor type, donor heavy atom, donor atom, acceptor molecule, acceptor atom, score
      L1  H    28    54       P1 10747  0.33
      P1  H  7989  7998       L1    19  0.94
      L1  C     7    31       P1 10171  0.91
      L1  C     7    31       P1 10175  1.00

> <Gold.PLP.Chemscore.Internal.Correction>
0.2361

> <Gold.Rescore>
     Score         DG    S(hbond)    S(metal)    S(lipo)     H(rot)  DE(clash)    DE(int)     intcor
     11.22     -12.99       1.05        0.00      74.30       1.83       0.01       1.76       ----

> <Gold.Chemscore.Fitness>
11.2175

> <Gold.Chemscore.DG>
-12.9933

> <Gold.Chemscore.ZeroCoef>
-5.4800

> <Gold.Chemscore.Hbond>
1.0459

> <Gold.Chemscore.Metal>
0.0000

> <Gold.Chemscore.Lipo>
74.3020

> <Gold.Chemscore.Internal_Hbond>
0.0000

> <Gold.Chemscore.DEClash>
0.0140

> <Gold.Chemscore.DEInternal>
1.7618

> <Gold.Chemscore.Rot>
1.8255

> <Gold.Chemscore.Internal.Correction>
   9.000000E+99

> <Gold.Chemscore.Hbonds>
donor molecule, donor type, donor heavy atom, donor atom, acceptor molecule, acceptor atom, score
      L1  H    28    54       P1 10747  0.31
      P1  H  7989  7998       L1    19  0.55

> <Gold.Chemscore.Hbond.Weighted>
-3.4932

> <Gold.Chemscore.Metal.Weighted>
-0.0000

> <Gold.Chemscore.Lipo.Weighted>
-8.6933

> <Gold.Chemscore.Internal_Hbond.Weighted>
0.0000

> <Gold.Chemscore.DEClash.Weighted>
0.0140

> <Gold.Chemscore.DEInternal.Weighted>
1.7618

> <Gold.Chemscore.Rot.Weighted>
4.6732

> <Gold.Chemscore.Internal.Correction.Weighted>
   9.000000E+99

> <Gold.Protein.RotatedTorsions>
[ 6907 6896 6895 6894 ] final -168.31 input  -60.11 | X-H torsion
[ 7974 7965 7964 7962 ] final   44.42 input  175.53 | X-H torsion
[ 8008 7997 7996 7995 ] final -116.60 input   59.86 | X-H torsion
[ 10167 10162 10161 10158 ] final  -27.30 input  -65.29 | X-H torsion
[ 10718 10713 10712 10709 ] final  -19.03 input   66.30 | X-H torsion
[ 10763 10752 10751 10750 ] final  -78.04 input  -60.55 | X-H torsion
[ 11005 11000 10999 10996 ] final  -33.70 input  -57.11 | X-H torsion

> <Gold.Protein.ActiveResidues>
 VAL166  LYS551  ARG553  GLY616  TRP617  ASP618  TYR619  PRO620  LYS621  CYS622 
 ASP623  PHE694  ASN695  SER759  ASP760  ASP761  ALA762  ILE779  LEU786  VAL792 
 PHE793  MET794  SER795  GLU796  ALA797  LYS798  CYS799  TRP800  GLU811  SER814 

> <Gold.Protein.RotatedAtoms>
  151.4735  133.3563  159.2826 H   0  0  0  0  0  0  0  0  0  0  0  0  # atno 6907 bound_to 6896
  150.8945  134.8354  159.7327 H   0  0  0  0  0  0  0  0  0  0  0  0  # atno 6908 bound_to 6896
  152.4843  134.4649  159.9669 H   0  0  0  0  0  0  0  0  0  0  0  0  # atno 6909 bound_to 6896
  146.0569  139.5076  142.9682 H   0  0  0  0  0  0  0  0  0  0  0  0  # atno 7974 bound_to 7965
  155.0704  140.0393  157.2607 H   0  0  0  0  0  0  0  0  0  0  0  0  # atno 8008 bound_to 7997
  154.6987  140.2668  155.6716 H   0  0  0  0  0  0  0  0  0  0  0  0  # atno 8009 bound_to 7997
  156.2753  140.2745  156.1590 H   0  0  0  0  0  0  0  0  0  0  0  0  # atno 8010 bound_to 7997
  140.7278  143.4105  151.1113 H   0  0  0  0  0  0  0  0  0  0  0  0  # atno 10167 bound_to 10162
  156.5513  130.4702  149.6451 H   0  0  0  0  0  0  0  0  0  0  0  0  # atno 10718 bound_to 10713
  154.5207  135.5743  153.6678 H   0  0  0  0  0  0  0  0  0  0  0  0  # atno 10763 bound_to 10752
  152.9916  135.6181  154.2758 H   0  0  0  0  0  0  0  0  0  0  0  0  # atno 10764 bound_to 10752
  154.2679  135.2854  155.2730 H   0  0  0  0  0  0  0  0  0  0  0  0  # atno 10765 bound_to 10752
  140.9656  133.7139  156.1440 H   0  0  0  0  0  0  0  0  0  0  0  0  # atno 11005 bound_to 11000
  145.6627  141.0236  143.1700 LP  0  0  0  0  0  0  0  0  0  0  0  0  # atno 17320 bound_to 7965
  144.7153  139.8219  143.7401 LP  0  0  0  0  0  0  0  0  0  0  0  0  # atno 17321 bound_to 7965
  139.7738  143.8456  152.3125 LP  0  0  0  0  0  0  0  0  0  0  0  0  # atno 17342 bound_to 10162
  139.8383  144.7222  150.9363 LP  0  0  0  0  0  0  0  0  0  0  0  0  # atno 17343 bound_to 10162
  156.2882  130.7109  151.1951 LP  0  0  0  0  0  0  0  0  0  0  0  0  # atno 17370 bound_to 10713
  157.7387  131.0538  150.5279 LP  0  0  0  0  0  0  0  0  0  0  0  0  # atno 17371 bound_to 10713
  140.7404  134.4157  157.5555 LP  0  0  0  0  0  0  0  0  0  0  0  0  # atno 17394 bound_to 11000
  139.8893  134.8833  156.2426 LP  0  0  0  0  0  0  0  0  0  0  0  0  # atno 17395 bound_to 11000

$$$$
