AV-unprocessed.smi:2735|AV-procd|sdf|10541|dock8
  -GOLD-   2272014593D 1   1.00000     0.00000
 Structure written by MMmdl.
 42 42  0  0  0  0  0  0  0  0  2 V2000
  152.8743  143.6763  163.3330 C   0  0  0  0  0  0  0  0  0  0  0  0
  153.0110  142.9625  162.0208 C   0  0  0  0  0  0  0  0  0  0  0  0
  153.5810  141.6851  161.7676 C   0  0  0  0  0  0  0  0  0  0  0  0
  153.4422  141.5148  160.4191 C   0  0  0  0  0  0  0  0  0  0  0  0
  153.8355  140.3578  159.5600 C   0  0  0  0  0  0  0  0  0  0  0  0
  152.8357  142.6583  159.9230 N   0  0  0  0  0  0  0  0  0  0  0  0
  152.4243  142.9537  158.5498 C   0  0  2  0  0  0  0  0  0  0  0  0
  151.8780  144.3867  158.3811 C   0  0  0  0  0  0  0  0  0  0  0  0
  151.4155  141.9024  158.0648 C   0  0  0  0  0  0  0  0  0  0  0  0
  150.7679  141.2384  158.8749 O   0  0  0  0  0  0  0  0  0  0  0  0
  151.3000  141.7609  156.7350 N   0  0  0  0  0  0  0  0  0  0  0  0
  150.4616  140.7778  156.0507 C   0  0  1  0  0  0  0  0  0  0  0  0
  149.5802  141.5025  155.0052 C   0  0  0  0  0  0  0  0  0  0  0  0
  148.6067  140.5918  154.2220 C   0  0  0  0  0  0  0  0  0  0  0  0
  147.5194  141.3888  153.4817 C   0  0  0  0  0  0  0  0  0  0  0  0
  147.9661  139.5565  155.1587 C   0  0  0  0  0  0  0  0  0  0  0  0
  151.3589  139.7737  155.3088 C   0  0  0  0  0  0  0  0  0  0  0  0
  150.7842  138.8961  154.6287 O   0  0  0  0  0  0  0  0  0  0  0  0
  152.5992  139.9011  155.4240 O   0  5  0  0  0  0  0  0  0  0  0  0
  152.5606  143.5351  160.9181 N   0  0  0  0  0  0  0  0  0  0  0  0
  149.8368  140.2362  156.7624 H   0  0  0  0  0  0  0  0  0  0  0  0
  153.2680  143.0736  164.1517 H   0  0  0  0  0  0  0  0  0  0  0  0
  151.8293  143.8944  163.5546 H   0  0  0  0  0  0  0  0  0  0  0  0
  153.4186  144.6206  163.3243 H   0  0  0  0  0  0  0  0  0  0  0  0
  154.0173  140.9922  162.4716 H   0  0  0  0  0  0  0  0  0  0  0  0
  154.3218  139.5824  160.1518 H   0  0  0  0  0  0  0  0  0  0  0  0
  154.5314  140.6689  158.7811 H   0  0  0  0  0  0  0  0  0  0  0  0
  152.9629  139.9129  159.0825 H   0  0  0  0  0  0  0  0  0  0  0  0
  153.3148  142.8849  157.9235 H   0  0  0  0  0  0  0  0  0  0  0  0
  151.6540  144.5977  157.3350 H   0  0  0  0  0  0  0  0  0  0  0  0
  152.6106  145.1234  158.7116 H   0  0  0  0  0  0  0  0  0  0  0  0
  150.9623  144.5502  158.9508 H   0  0  0  0  0  0  0  0  0  0  0  0
  151.8791  142.3412  156.1464 H   0  0  0  0  0  0  0  0  0  0  0  0
  149.0006  142.2823  155.5030 H   0  0  0  0  0  0  0  0  0  0  0  0
  150.2213  142.0220  154.2909 H   0  0  0  0  0  0  0  0  0  0  0  0
  149.1750  140.0344  153.4769 H   0  0  0  0  0  0  0  0  0  0  0  0
  146.9469  142.0126  154.1689 H   0  0  0  0  0  0  0  0  0  0  0  0
  146.8199  140.7216  152.9775 H   0  0  0  0  0  0  0  0  0  0  0  0
  147.9470  142.0374  152.7175 H   0  0  0  0  0  0  0  0  0  0  0  0
  147.3720  140.0392  155.9354 H   0  0  0  0  0  0  0  0  0  0  0  0
  148.7250  138.9473  155.6504 H   0  0  0  0  0  0  0  0  0  0  0  0
  147.3104  138.8805  154.6094 H   0  0  0  0  0  0  0  0  0  0  0  0
  1  2  1  0  0  0  0
  1 22  1  0  0  0  0
  1 23  1  0  0  0  0
  1 24  1  0  0  0  0
  2 20  2  0  0  0  0
  2  3  1  0  0  0  0
  3  4  2  0  0  0  0
  3 25  1  0  0  0  0
  4  5  1  0  0  0  0
  4  6  1  0  0  0  0
  5 26  1  0  0  0  0
  5 27  1  0  0  0  0
  5 28  1  0  0  0  0
  6  7  1  0  0  0  0
  6 20  1  0  0  0  0
  7  8  1  0  0  0  0
  7  9  1  0  0  0  0
  7 29  1  0  0  0  0
  8 30  1  0  0  0  0
  8 31  1  0  0  0  0
  8 32  1  0  0  0  0
  9 10  2  0  0  0  0
  9 11  1  0  0  0  0
 11 12  1  0  0  0  0
 11 33  1  0  0  0  0
 12 21  1  0  0  0  0
 12 13  1  0  0  0  0
 12 17  1  0  0  0  0
 13 14  1  0  0  0  0
 13 34  1  0  0  0  0
 13 35  1  0  0  0  0
 14 15  1  0  0  0  0
 14 16  1  0  0  0  0
 14 36  1  0  0  0  0
 15 37  1  0  0  0  0
 15 38  1  0  0  0  0
 15 39  1  0  0  0  0
 16 40  1  0  0  0  0
 16 41  1  0  0  0  0
 16 42  1  0  0  0  0
 17 18  2  0  0  0  0
 17 19  1  0  0  0  0
M  CHG  1  19  -1
M  END
> <s_m_source_file>
AV-unprocessed.smi

> <i_m_source_file_index>
2735

> <i_lp_mmshare_version>
43012

> <i_f3d_flags>
0

> <s_epik_input>
W0NIM11jMVtjSF1jKFtDSDNdKW4objEpW0NASF0oW0NIM10pQyg9TylbTkhdW0NASF0oQyg9TylbT0hdKVtDSDJdW0NIXShbQ0gzXSlbQ0gzXQ==

> <s_epik_cmdline>
J2VwaWtfcHl0aG9uJywgJy1waCcsICc3LjAnLCAnLXRuJywgJzgnLCAnLW1hJywgJzIwMCcsICctbWV0YWxfYmluZGluZycsICctaW1hZScsICc8aW5maWxlLm1hZT4nLCAnLW9tYWUnLCAnPG91dGZpbGUubWFlPic=

> <r_lp_tautomer_probability>
1

> <r_epik_Ionization_Penalty>
0.0012303

> <r_epik_Ionization_Penalty_Charging>
0.000186407

> <r_epik_Ionization_Penalty_Neutral>
0.0010439

> <r_epik_State_Penalty>
-0

> <r_epik_Charging_Adjusted_Penalty>
0.000186407

> <i_epik_Tot_Q>
-1

> <i_epik_Tot_abs_Q>
1

> <r_epik_Metal_State_Penalty>
-0

> <b_epik_Metal_Only>
0

> <s_lp_Force_Field>
OPLS_2005

> <r_lp_Energy>
6.85708

> <b_lp_Chiralities_Consistent>
1

> <s_lp_Variant>
AV-unprocessed.smi:2735-1

> <Gold.Version>
5.8.1

> <Gold.Id.Protein>
6NUR|6NUR_protein|mol2

> <Gold.PLP.Fitness>
51.2179

> <Gold.PLP.PLP>
-46.6387

> <Gold.PLP.part.hbond>
-2.1100

> <Gold.PLP.part.metal>
0.0000

> <Gold.PLP.part.buried>
-3.4137

> <Gold.PLP.part.nonpolar>
-40.1945

> <Gold.PLP.part.repulsive>
0.3019

> <Gold.PLP.ligand.clash>
0.0000

> <Gold.PLP.ligand.torsion>
0.7718

> <Gold.PLP.Chemscore.Hbond>
2.0000

> <Gold.PLP.Chemscore.CHOScore>
0.0000

> <Gold.PLP.Chemscore.Metal>
0.0000

> <Gold.Chemscore.Hbonds>
donor molecule, donor type, donor heavy atom, donor atom, acceptor molecule, acceptor atom, score
      P1  H  7997  8008       L1    19  2.00

> <Gold.PLP.Chemscore.Internal.Correction>
0.1227

> <Gold.Rescore>
     Score         DG    S(hbond)    S(metal)    S(lipo)     H(rot)  DE(clash)    DE(int)     intcor
     13.53     -15.84       1.00        0.00     109.10       2.24       0.32       1.99       ----

> <Gold.Chemscore.Fitness>
13.5346

> <Gold.Chemscore.DG>
-15.8450

> <Gold.Chemscore.ZeroCoef>
-5.4800

> <Gold.Chemscore.Hbond>
0.9975

> <Gold.Chemscore.Metal>
0.0000

> <Gold.Chemscore.Lipo>
109.0988

> <Gold.Chemscore.Internal_Hbond>
0.0000

> <Gold.Chemscore.DEClash>
0.3190

> <Gold.Chemscore.DEInternal>
1.9914

> <Gold.Chemscore.Rot>
2.2388

> <Gold.Chemscore.Internal.Correction>
   9.000000E+99

> <Gold.Chemscore.Hbonds>
donor molecule, donor type, donor heavy atom, donor atom, acceptor molecule, acceptor atom, score
      P1  H  7997  8008       L1    19  1.00

> <Gold.Chemscore.Hbond.Weighted>
-3.3318

> <Gold.Chemscore.Metal.Weighted>
-0.0000

> <Gold.Chemscore.Lipo.Weighted>
-12.7646

> <Gold.Chemscore.Internal_Hbond.Weighted>
0.0000

> <Gold.Chemscore.DEClash.Weighted>
0.3190

> <Gold.Chemscore.DEInternal.Weighted>
1.9914

> <Gold.Chemscore.Rot.Weighted>
5.7314

> <Gold.Chemscore.Internal.Correction.Weighted>
   9.000000E+99

> <Gold.Protein.RotatedTorsions>
[ 6907 6896 6895 6894 ] final  126.40 input  -60.11 | X-H torsion
[ 7974 7965 7964 7962 ] final  -65.72 input  175.53 | X-H torsion
[ 8008 7997 7996 7995 ] final  -29.57 input   59.86 | X-H torsion
[ 10167 10162 10161 10158 ] final   81.70 input  -65.29 | X-H torsion
[ 10718 10713 10712 10709 ] final  -93.92 input   66.30 | X-H torsion
[ 10763 10752 10751 10750 ] final -113.18 input  -60.55 | X-H torsion
[ 11005 11000 10999 10996 ] final  -36.09 input  -57.11 | X-H torsion

> <Gold.Protein.ActiveResidues>
 VAL166  LYS551  ARG553  GLY616  TRP617  ASP618  TYR619  PRO620  LYS621  CYS622 
 ASP623  PHE694  ASN695  SER759  ASP760  ASP761  ALA762  ILE779  LEU786  VAL792 
 PHE793  MET794  SER795  GLU796  ALA797  LYS798  CYS799  TRP800  GLU811  SER814 

> <Gold.Protein.RotatedAtoms>
  152.3906  133.6674  159.6234 H   0  0  0  0  0  0  0  0  0  0  0  0  # atno 6907 bound_to 6896
  150.7815  133.8960  159.3336 H   0  0  0  0  0  0  0  0  0  0  0  0  # atno 6908 bound_to 6896
  151.6748  135.0972  160.0256 H   0  0  0  0  0  0  0  0  0  0  0  0  # atno 6909 bound_to 6896
  145.7508  140.8909  143.0481 H   0  0  0  0  0  0  0  0  0  0  0  0  # atno 7974 bound_to 7965
  154.4285  140.1815  156.1268 H   0  0  0  0  0  0  0  0  0  0  0  0  # atno 8008 bound_to 7997
  156.0099  140.3351  155.6905 H   0  0  0  0  0  0  0  0  0  0  0  0  # atno 8009 bound_to 7997
  155.6125  140.0651  157.2693 H   0  0  0  0  0  0  0  0  0  0  0  0  # atno 8010 bound_to 7997
  139.9365  144.6117  150.8293 H   0  0  0  0  0  0  0  0  0  0  0  0  # atno 10167 bound_to 10162
  156.0020  130.5047  150.5849 H   0  0  0  0  0  0  0  0  0  0  0  0  # atno 10718 bound_to 10713
  154.8384  135.4463  154.1309 H   0  0  0  0  0  0  0  0  0  0  0  0  # atno 10763 bound_to 10752
  153.2520  135.6927  153.7675 H   0  0  0  0  0  0  0  0  0  0  0  0  # atno 10764 bound_to 10752
  153.6984  135.3376  155.3194 H   0  0  0  0  0  0  0  0  0  0  0  0  # atno 10765 bound_to 10752
  140.9847  133.7037  156.1745 H   0  0  0  0  0  0  0  0  0  0  0  0  # atno 11005 bound_to 11000
  144.6850  139.9588  143.7480 LP  0  0  0  0  0  0  0  0  0  0  0  0  # atno 17320 bound_to 7965
  146.0359  139.3377  143.0727 LP  0  0  0  0  0  0  0  0  0  0  0  0  # atno 17321 bound_to 7965
  140.7623  143.3194  151.2656 LP  0  0  0  0  0  0  0  0  0  0  0  0  # atno 17342 bound_to 10162
  139.6739  143.9972  152.2769 LP  0  0  0  0  0  0  0  0  0  0  0  0  # atno 17343 bound_to 10162
  157.3724  131.0767  151.1547 LP  0  0  0  0  0  0  0  0  0  0  0  0  # atno 17370 bound_to 10713
  157.2296  130.6519  149.5844 LP  0  0  0  0  0  0  0  0  0  0  0  0  # atno 17371 bound_to 10713
  140.7132  134.4439  157.5580 LP  0  0  0  0  0  0  0  0  0  0  0  0  # atno 17394 bound_to 11000
  139.8965  134.8657  156.2083 LP  0  0  0  0  0  0  0  0  0  0  0  0  # atno 17395 bound_to 11000

$$$$
