AV-unprocessed.smi:1769|AV-procd|sdf|7151|dock9
  -GOLD-   22720 8393D 1   1.00000     0.00000
 Structure written by MMmdl.
 41 42  0  0  0  0  0  0  0  0  1 V2000
  152.4998  144.1712  162.0156 C   0  0  0  0  0  0  0  0  0  0  0  0
  152.8325  142.8946  161.2400 C   0  0  0  0  0  0  0  0  0  0  0  0
  153.0991  141.8797  161.8839 O   0  0  0  0  0  0  0  0  0  0  0  0
  152.8200  142.9202  159.8854 N   0  0  0  0  0  0  0  0  0  0  0  0
  152.4272  144.0710  159.0619 C   0  0  0  0  0  0  0  0  0  0  0  0
  151.0674  143.7662  158.4088 C   0  0  0  0  0  0  0  0  0  0  0  0
  151.1290  142.4607  157.5926 C   0  0  0  0  0  0  0  0  0  0  0  0
  151.7190  141.2924  158.4182 C   0  0  1  0  0  0  0  0  0  0  0  0
  151.9091  140.0416  157.5499 C   0  0  0  0  0  0  0  0  0  0  0  0
  153.0180  139.5143  157.4551 O   0  0  0  0  0  0  0  0  0  0  0  0
  150.8191  139.5779  156.9192 N   0  0  0  0  0  0  0  0  0  0  0  0
  150.7927  138.4137  156.0423 C   0  0  0  0  0  0  0  0  0  0  0  0
  150.6324  138.8219  154.5692 C   0  0  0  0  0  0  0  0  0  0  0  0
  149.3171  139.5310  154.3155 C   0  0  0  0  0  0  0  0  0  0  0  0
  149.2038  140.9259  154.4874 C   0  0  0  0  0  0  0  0  0  0  0  0
  147.9628  141.5413  154.2344 C   0  0  0  0  0  0  0  0  0  0  0  0
  146.8859  140.7335  153.8174 C   0  0  0  0  0  0  0  0  0  0  0  0
  146.9832  139.3971  153.6487 N   0  0  0  0  0  0  0  0  0  0  0  0
  148.1764  138.8145  153.8947 C   0  0  0  0  0  0  0  0  0  0  0  0
  153.0542  141.7239  159.0666 C   0  0  0  0  0  0  0  0  0  0  0  0
  151.5041  144.5333  161.7573 H   0  0  0  0  0  0  0  0  0  0  0  0
  153.2291  144.9533  161.8024 H   0  0  0  0  0  0  0  0  0  0  0  0
  152.5170  143.9840  163.0900 H   0  0  0  0  0  0  0  0  0  0  0  0
  152.3725  145.0073  159.6150 H   0  0  0  0  0  0  0  0  0  0  0  0
  153.1820  144.2335  158.2911 H   0  0  0  0  0  0  0  0  0  0  0  0
  150.3034  143.6791  159.1825 H   0  0  0  0  0  0  0  0  0  0  0  0
  150.7654  144.5934  157.7660 H   0  0  0  0  0  0  0  0  0  0  0  0
  150.1319  142.2040  157.2326 H   0  0  0  0  0  0  0  0  0  0  0  0
  151.7398  142.6342  156.7051 H   0  0  0  0  0  0  0  0  0  0  0  0
  151.0157  141.0531  159.2183 H   0  0  0  0  0  0  0  0  0  0  0  0
  149.9469  140.0685  157.0539 H   0  0  0  0  0  0  0  0  0  0  0  0
  151.6988  137.8207  156.1792 H   0  0  0  0  0  0  0  0  0  0  0  0
  149.9589  137.7799  156.3456 H   0  0  0  0  0  0  0  0  0  0  0  0
  151.4526  139.4758  154.2698 H   0  0  0  0  0  0  0  0  0  0  0  0
  150.6879  137.9439  153.9240 H   0  0  0  0  0  0  0  0  0  0  0  0
  150.0518  141.5148  154.8054 H   0  0  0  0  0  0  0  0  0  0  0  0
  147.8391  142.6071  154.3560 H   0  0  0  0  0  0  0  0  0  0  0  0
  145.9207  141.1728  153.6133 H   0  0  0  0  0  0  0  0  0  0  0  0
  148.2224  137.7451  153.7483 H   0  0  0  0  0  0  0  0  0  0  0  0
  153.7962  141.9574  158.3011 H   0  0  0  0  0  0  0  0  0  0  0  0
  153.4780  140.9004  159.6440 H   0  0  0  0  0  0  0  0  0  0  0  0
  1  2  1  0  0  0  0
  1 21  1  0  0  0  0
  1 22  1  0  0  0  0
  1 23  1  0  0  0  0
  2  3  2  0  0  0  0
  2  4  1  0  0  0  0
  4 20  1  0  0  0  0
  4  5  1  0  0  0  0
  5  6  1  0  0  0  0
  5 24  1  0  0  0  0
  5 25  1  0  0  0  0
  6  7  1  0  0  0  0
  6 26  1  0  0  0  0
  6 27  1  0  0  0  0
  7  8  1  0  0  0  0
  7 28  1  0  0  0  0
  7 29  1  0  0  0  0
  8  9  1  0  0  0  0
  8 20  1  0  0  0  0
  8 30  1  0  0  0  0
  9 10  2  0  0  0  0
  9 11  1  0  0  0  0
 11 12  1  0  0  0  0
 11 31  1  0  0  0  0
 12 13  1  0  0  0  0
 12 32  1  0  0  0  0
 12 33  1  0  0  0  0
 13 14  1  0  0  0  0
 13 34  1  0  0  0  0
 13 35  1  0  0  0  0
 14 19  1  0  0  0  0
 14 15  2  0  0  0  0
 15 16  1  0  0  0  0
 15 36  1  0  0  0  0
 16 17  2  0  0  0  0
 16 37  1  0  0  0  0
 17 18  1  0  0  0  0
 17 38  1  0  0  0  0
 18 19  2  0  0  0  0
 19 39  1  0  0  0  0
 20 40  1  0  0  0  0
 20 41  1  0  0  0  0
M  END
> <s_m_source_file>
AV-unprocessed.smi

> <i_m_source_file_index>
1769

> <i_lp_mmshare_version>
43012

> <i_f3d_flags>
0

> <s_epik_input>
W0NIM11DKD1PKU4xW0NIMl1bQ0gyXVtDSDJdW0NASF0oW0NIMl0xKUMoPU8pW05IXVtDSDJdW0NIMl1jMltjSF1bY0hdW2NIXW5bY0hdMg==

> <s_epik_cmdline>
J2VwaWtfcHl0aG9uJywgJy1waCcsICc3LjAnLCAnLXRuJywgJzgnLCAnLW1hJywgJzIwMCcsICctbWV0YWxfYmluZGluZycsICctaW1hZScsICc8aW5maWxlLm1hZT4nLCAnLW9tYWUnLCAnPG91dGZpbGUubWFlPic=

> <r_epik_Ionization_Penalty>
0.0134099

> <r_epik_Ionization_Penalty_Charging>
0

> <r_epik_Ionization_Penalty_Neutral>
0.0134099

> <r_epik_State_Penalty>
0.010434

> <r_epik_Charging_Adjusted_Penalty>
0.010434

> <i_epik_Tot_Q>
0

> <i_epik_Tot_abs_Q>
0

> <r_epik_Metal_State_Penalty>
0.0102025

> <b_epik_Metal_Only>
0

> <s_lp_Force_Field>
OPLS_2005

> <r_lp_Energy>
22.5889

> <b_lp_Chiralities_Consistent>
1

> <s_lp_Variant>
AV-unprocessed.smi:1769-1

> <Gold.Version>
5.8.1

> <Gold.Id.Protein>
6NUR|6NUR_protein|mol2

> <Gold.PLP.Fitness>
51.7251

> <Gold.PLP.PLP>
-43.7829

> <Gold.PLP.part.hbond>
-1.0000

> <Gold.PLP.part.metal>
0.0000

> <Gold.PLP.part.buried>
-4.0390

> <Gold.PLP.part.nonpolar>
-38.5912

> <Gold.PLP.part.repulsive>
0.2714

> <Gold.PLP.ligand.clash>
0.0000

> <Gold.PLP.ligand.torsion>
0.4522

> <Gold.PLP.Chemscore.Hbond>
1.0000

> <Gold.PLP.Chemscore.CHOScore>
1.9407

> <Gold.PLP.Chemscore.Metal>
0.0000

> <Gold.Chemscore.Hbonds>
donor molecule, donor type, donor heavy atom, donor atom, acceptor molecule, acceptor atom, score
      P1  H  7997  8008       L1    10  1.00
      L1  C    17    38       P1 10175  0.84
      L1  C    19    39       P1  7948  1.00

> <Gold.PLP.Chemscore.Internal.Correction>
0.0245

> <Gold.Rescore>
     Score         DG    S(hbond)    S(metal)    S(lipo)     H(rot)  DE(clash)    DE(int)     intcor
     16.63     -17.33       1.00        0.00     106.01       1.52       0.16       0.54       ----

> <Gold.Chemscore.Fitness>
16.6335

> <Gold.Chemscore.DG>
-17.3302

> <Gold.Chemscore.ZeroCoef>
-5.4800

> <Gold.Chemscore.Hbond>
1.0000

> <Gold.Chemscore.Metal>
0.0000

> <Gold.Chemscore.Lipo>
106.0067

> <Gold.Chemscore.Internal_Hbond>
0.0000

> <Gold.Chemscore.DEClash>
0.1576

> <Gold.Chemscore.DEInternal>
0.5391

> <Gold.Chemscore.Rot>
1.5205

> <Gold.Chemscore.Internal.Correction>
   9.000000E+99

> <Gold.Chemscore.Hbonds>
donor molecule, donor type, donor heavy atom, donor atom, acceptor molecule, acceptor atom, score
      P1  H  7997  8008       L1    10  1.00

> <Gold.Chemscore.Hbond.Weighted>
-3.3400

> <Gold.Chemscore.Metal.Weighted>
-0.0000

> <Gold.Chemscore.Lipo.Weighted>
-12.4028

> <Gold.Chemscore.Internal_Hbond.Weighted>
0.0000

> <Gold.Chemscore.DEClash.Weighted>
0.1576

> <Gold.Chemscore.DEInternal.Weighted>
0.5391

> <Gold.Chemscore.Rot.Weighted>
3.8926

> <Gold.Chemscore.Internal.Correction.Weighted>
   9.000000E+99

> <Gold.Protein.RotatedTorsions>
[ 6907 6896 6895 6894 ] final -153.40 input  -60.11 | X-H torsion
[ 7974 7965 7964 7962 ] final   88.72 input  175.53 | X-H torsion
[ 8008 7997 7996 7995 ] final  -71.76 input   59.86 | X-H torsion
[ 10167 10162 10161 10158 ] final  -50.98 input  -65.29 | X-H torsion
[ 10718 10713 10712 10709 ] final -101.78 input   66.30 | X-H torsion
[ 10763 10752 10751 10750 ] final -170.09 input  -60.55 | X-H torsion
[ 11005 11000 10999 10996 ] final -112.16 input  -57.11 | X-H torsion

> <Gold.Protein.ActiveResidues>
 VAL166  LYS551  ARG553  GLY616  TRP617  ASP618  TYR619  PRO620  LYS621  CYS622 
 ASP623  PHE694  ASN695  SER759  ASP760  ASP761  ALA762  ILE779  LEU786  VAL792 
 PHE793  MET794  SER795  GLU796  ALA797  LYS798  CYS799  TRP800  GLU811  SER814 

> <Gold.Protein.RotatedAtoms>
  151.2420  133.4394  159.2607 H   0  0  0  0  0  0  0  0  0  0  0  0  # atno 6907 bound_to 6896
  151.0696  134.9790  159.8312 H   0  0  0  0  0  0  0  0  0  0  0  0  # atno 6908 bound_to 6896
  152.5410  134.2366  159.8898 H   0  0  0  0  0  0  0  0  0  0  0  0  # atno 6909 bound_to 6896
  145.5420  139.2289  143.2561 H   0  0  0  0  0  0  0  0  0  0  0  0  # atno 7974 bound_to 7965
  154.5113  140.0809  156.7995 H   0  0  0  0  0  0  0  0  0  0  0  0  # atno 8008 bound_to 7997
  155.3779  140.3426  155.4227 H   0  0  0  0  0  0  0  0  0  0  0  0  # atno 8009 bound_to 7997
  156.1576  140.1578  156.8654 H   0  0  0  0  0  0  0  0  0  0  0  0  # atno 8010 bound_to 7997
  140.6611  143.2637  151.4438 H   0  0  0  0  0  0  0  0  0  0  0  0  # atno 10167 bound_to 10162
  156.0206  130.5389  150.7012 H   0  0  0  0  0  0  0  0  0  0  0  0  # atno 10718 bound_to 10713
  154.6453  135.2904  155.0054 H   0  0  0  0  0  0  0  0  0  0  0  0  # atno 10763 bound_to 10752
  154.1166  135.6554  153.4899 H   0  0  0  0  0  0  0  0  0  0  0  0  # atno 10764 bound_to 10752
  153.0347  135.5278  154.7337 H   0  0  0  0  0  0  0  0  0  0  0  0  # atno 10765 bound_to 10752
  141.0692  133.9409  157.2519 H   0  0  0  0  0  0  0  0  0  0  0  0  # atno 11005 bound_to 11000
  146.1975  140.6240  142.9117 LP  0  0  0  0  0  0  0  0  0  0  0  0  # atno 17320 bound_to 7965
  144.7572  140.5336  143.6760 LP  0  0  0  0  0  0  0  0  0  0  0  0  # atno 17321 bound_to 7965
  139.5845  144.1635  152.2011 LP  0  0  0  0  0  0  0  0  0  0  0  0  # atno 17342 bound_to 10162
  140.0971  144.5572  150.7015 LP  0  0  0  0  0  0  0  0  0  0  0  0  # atno 17343 bound_to 10162
  157.4672  131.0889  151.0682 LP  0  0  0  0  0  0  0  0  0  0  0  0  # atno 17370 bound_to 10713
  157.1153  130.6039  149.5492 LP  0  0  0  0  0  0  0  0  0  0  0  0  # atno 17371 bound_to 10713
  139.9506  135.0176  156.8982 LP  0  0  0  0  0  0  0  0  0  0  0  0  # atno 17394 bound_to 11000
  140.5710  134.0443  155.7430 LP  0  0  0  0  0  0  0  0  0  0  0  0  # atno 17395 bound_to 11000

$$$$
