AV-unprocessed.smi:731|AV-procd|sdf|3526|dock9
  -GOLD-   22720 0523D 1   1.00000     0.00000
 Structure written by MMmdl.
 34 35  0  0  0  0  0  0  0  0  1 V2000
  151.6387  141.6016  160.3750 O   0  0  0  0  0  0  0  0  0  0  0  0
  152.3499  141.9990  159.4513 C   0  0  0  0  0  0  0  0  0  0  0  0
  152.7008  141.2298  158.4079 N   0  0  0  0  0  0  0  0  0  0  0  0
  152.3287  139.8288  158.2231 C   0  0  0  0  0  0  0  0  0  0  0  0
  152.7709  139.2734  156.8551 C   0  0  0  0  0  0  0  0  0  0  0  0
  151.6817  139.2291  155.8322 C   0  0  0  0  0  0  0  0  0  0  0  0
  150.5680  139.9610  155.9139 N   0  0  0  0  0  0  0  0  0  0  0  0
  149.6717  139.7024  154.8712 C   0  0  0  0  0  0  0  0  0  0  0  0
  148.3622  140.4347  154.8154 C   0  0  0  0  0  0  0  0  0  0  0  0
  147.6931  140.3323  155.9641 F   0  0  0  0  0  0  0  0  0  0  0  0
  148.5475  141.7322  154.5734 F   0  0  0  0  0  0  0  0  0  0  0  0
  147.5807  139.9488  153.8513 F   0  0  0  0  0  0  0  0  0  0  0  0
  150.1334  138.7565  153.9881 C   0  0  0  0  0  0  0  0  0  0  0  0
  151.7051  138.1557  154.4370 S   0  0  0  0  0  0  0  0  0  0  0  0
  152.9045  143.4324  159.4593 C   0  0  0  0  0  0  0  0  0  0  0  0
  152.3954  144.2378  160.6782 C   0  0  0  0  0  0  0  0  0  0  0  0
  151.6347  145.4501  160.1272 C   0  0  0  0  0  0  0  0  0  0  0  0
  151.2617  145.0733  158.6966 C   0  0  0  0  0  0  0  0  0  0  0  0
  152.4446  144.2302  158.2233 C   0  0  0  0  0  0  0  0  0  0  0  0
  153.2871  141.6412  157.6963 H   0  0  0  0  0  0  0  0  0  0  0  0
  152.7409  139.2130  159.0245 H   0  0  0  0  0  0  0  0  0  0  0  0
  151.2449  139.7526  158.3124 H   0  0  0  0  0  0  0  0  0  0  0  0
  153.5918  139.8747  156.4627 H   0  0  0  0  0  0  0  0  0  0  0  0
  153.1644  138.2639  156.9797 H   0  0  0  0  0  0  0  0  0  0  0  0
  149.6429  138.3755  153.1047 H   0  0  0  0  0  0  0  0  0  0  0  0
  153.9949  143.3902  159.4716 H   0  0  0  0  0  0  0  0  0  0  0  0
  151.7290  143.6448  161.3072 H   0  0  0  0  0  0  0  0  0  0  0  0
  153.2208  144.5565  161.3156 H   0  0  0  0  0  0  0  0  0  0  0  0
  150.7644  145.7078  160.7314 H   0  0  0  0  0  0  0  0  0  0  0  0
  152.2949  146.3186  160.1127 H   0  0  0  0  0  0  0  0  0  0  0  0
  150.3518  144.4713  158.6968 H   0  0  0  0  0  0  0  0  0  0  0  0
  151.0866  145.9442  158.0644 H   0  0  0  0  0  0  0  0  0  0  0  0
  153.2521  144.8860  157.8951 H   0  0  0  0  0  0  0  0  0  0  0  0
  152.1792  143.6017  157.3716 H   0  0  0  0  0  0  0  0  0  0  0  0
  1  2  2  0  0  0  0
  2  3  1  0  0  0  0
  2 15  1  0  0  0  0
  3  4  1  0  0  0  0
  3 20  1  0  0  0  0
  4  5  1  0  0  0  0
  4 21  1  0  0  0  0
  4 22  1  0  0  0  0
  5  6  1  0  0  0  0
  5 23  1  0  0  0  0
  5 24  1  0  0  0  0
  6 14  1  0  0  0  0
  6  7  2  0  0  0  0
  7  8  1  0  0  0  0
  8  9  1  0  0  0  0
  8 13  2  0  0  0  0
  9 10  1  0  0  0  0
  9 11  1  0  0  0  0
  9 12  1  0  0  0  0
 13 14  1  0  0  0  0
 13 25  1  0  0  0  0
 15 19  1  0  0  0  0
 15 16  1  0  0  0  0
 15 26  1  0  0  0  0
 16 17  1  0  0  0  0
 16 27  1  0  0  0  0
 16 28  1  0  0  0  0
 17 18  1  0  0  0  0
 17 29  1  0  0  0  0
 17 30  1  0  0  0  0
 18 19  1  0  0  0  0
 18 31  1  0  0  0  0
 18 32  1  0  0  0  0
 19 33  1  0  0  0  0
 19 34  1  0  0  0  0
M  END
> <s_m_source_file>
AV-unprocessed.smi

> <i_m_source_file_index>
731

> <i_lp_mmshare_version>
43012

> <i_f3d_flags>
0

> <s_epik_input>
W0NIMl0xW0NIMl1bQ0gyXVtDSDJdW0NIXTFDKD1PKVtOSF1bQ0gyXVtDSDJdYzJuYyhDKEYpKEYpRilbY0hdczI=

> <s_epik_cmdline>
J2VwaWtfcHl0aG9uJywgJy1waCcsICc3LjAnLCAnLXRuJywgJzgnLCAnLW1hJywgJzIwMCcsICctbWV0YWxfYmluZGluZycsICctaW1hZScsICc8aW5maWxlLm1hZT4nLCAnLW9tYWUnLCAnPG91dGZpbGUubWFlPic=

> <r_lp_tautomer_probability>
1

> <r_epik_Ionization_Penalty>
2.28973e-08

> <r_epik_Ionization_Penalty_Charging>
0

> <r_epik_Ionization_Penalty_Neutral>
2.28973e-08

> <r_epik_State_Penalty>
-0

> <r_epik_Charging_Adjusted_Penalty>
0

> <i_epik_Tot_Q>
0

> <i_epik_Tot_abs_Q>
0

> <r_epik_Metal_State_Penalty>
-0

> <b_epik_Metal_Only>
0

> <s_lp_Force_Field>
OPLS_2005

> <r_lp_Energy>
15.4873

> <b_lp_Chiralities_Consistent>
1

> <s_lp_Variant>
AV-unprocessed.smi:731-1

> <Gold.Version>
5.8.1

> <Gold.Id.Protein>
6NUR|6NUR_protein|mol2

> <Gold.PLP.Fitness>
43.1541

> <Gold.PLP.PLP>
-39.5747

> <Gold.PLP.part.hbond>
-1.0000

> <Gold.PLP.part.metal>
0.0000

> <Gold.PLP.part.buried>
2.1481

> <Gold.PLP.part.nonpolar>
-40.0160

> <Gold.PLP.part.repulsive>
0.1162

> <Gold.PLP.ligand.clash>
0.0000

> <Gold.PLP.ligand.torsion>
0.7588

> <Gold.PLP.Chemscore.Hbond>
0.0005

> <Gold.PLP.Chemscore.CHOScore>
1.6886

> <Gold.PLP.Chemscore.Metal>
0.0000

> <Gold.Chemscore.Hbonds>
donor molecule, donor type, donor heavy atom, donor atom, acceptor molecule, acceptor atom, score
      L1  C    13    25       P1  7948  1.00
      L1  C    13    25       P1  7957  0.66

> <Gold.PLP.Chemscore.Internal.Correction>
0.0295

> <Gold.Rescore>
     Score         DG    S(hbond)    S(metal)    S(lipo)     H(rot)  DE(clash)    DE(int)     intcor
     12.96     -13.74       0.00        0.00     108.40       1.73       0.08       0.70       ----

> <Gold.Chemscore.Fitness>
12.9609

> <Gold.Chemscore.DG>
-13.7446

> <Gold.Chemscore.ZeroCoef>
-5.4800

> <Gold.Chemscore.Hbond>
0.0004

> <Gold.Chemscore.Metal>
0.0000

> <Gold.Chemscore.Lipo>
108.4011

> <Gold.Chemscore.Internal_Hbond>
0.0000

> <Gold.Chemscore.DEClash>
0.0801

> <Gold.Chemscore.DEInternal>
0.7036

> <Gold.Chemscore.Rot>
1.7264

> <Gold.Chemscore.Internal.Correction>
   9.000000E+99

> <Gold.Chemscore.Hbonds>
donor molecule, donor type, donor heavy atom, donor atom, acceptor molecule, acceptor atom, score
      P1  H  6933  6945       L1     1  0.01

> <Gold.Chemscore.Hbond.Weighted>
-0.0012

> <Gold.Chemscore.Metal.Weighted>
-0.0000

> <Gold.Chemscore.Lipo.Weighted>
-12.6829

> <Gold.Chemscore.Internal_Hbond.Weighted>
0.0000

> <Gold.Chemscore.DEClash.Weighted>
0.0801

> <Gold.Chemscore.DEInternal.Weighted>
0.7036

> <Gold.Chemscore.Rot.Weighted>
4.4196

> <Gold.Chemscore.Internal.Correction.Weighted>
   9.000000E+99

> <Gold.Protein.RotatedTorsions>
[ 6907 6896 6895 6894 ] final  128.48 input  -60.11 | X-H torsion
[ 7974 7965 7964 7962 ] final   99.83 input  175.53 | X-H torsion
[ 8008 7997 7996 7995 ] final  149.17 input   59.86 | X-H torsion
[ 10167 10162 10161 10158 ] final -179.07 input  -65.29 | X-H torsion
[ 10718 10713 10712 10709 ] final  114.38 input   66.30 | X-H torsion
[ 10763 10752 10751 10750 ] final   26.22 input  -60.55 | X-H torsion
[ 11005 11000 10999 10996 ] final -111.18 input  -57.11 | X-H torsion

> <Gold.Protein.ActiveResidues>
 VAL166  LYS551  ARG553  GLY616  TRP617  ASP618  TYR619  PRO620  LYS621  CYS622 
 ASP623  PHE694  ASN695  SER759  ASP760  ASP761  ALA762  ILE779  LEU786  VAL792 
 PHE793  MET794  SER795  GLU796  ALA797  LYS798  CYS799  TRP800  GLU811  SER814 

> <Gold.Protein.RotatedAtoms>
  152.3715  133.6425  159.6090 H   0  0  0  0  0  0  0  0  0  0  0  0  # atno 6907 bound_to 6896
  150.7672  133.9262  159.3422 H   0  0  0  0  0  0  0  0  0  0  0  0  # atno 6908 bound_to 6896
  151.7084  135.0918  160.0314 H   0  0  0  0  0  0  0  0  0  0  0  0  # atno 6909 bound_to 6896
  145.3936  139.2359  143.3338 H   0  0  0  0  0  0  0  0  0  0  0  0  # atno 7974 bound_to 7965
  156.2765  140.2109  156.5815 H   0  0  0  0  0  0  0  0  0  0  0  0  # atno 8008 bound_to 7997
  154.7055  140.0517  157.0522 H   0  0  0  0  0  0  0  0  0  0  0  0  # atno 8009 bound_to 7997
  155.0677  140.3173  155.4643 H   0  0  0  0  0  0  0  0  0  0  0  0  # atno 8010 bound_to 7997
  139.5403  144.2381  152.0881 H   0  0  0  0  0  0  0  0  0  0  0  0  # atno 10167 bound_to 10162
  157.6285  131.0997  150.7177 H   0  0  0  0  0  0  0  0  0  0  0  0  # atno 10718 bound_to 10713
  153.0637  135.6565  154.0403 H   0  0  0  0  0  0  0  0  0  0  0  0  # atno 10763 bound_to 10752
  154.0065  135.2932  155.3398 H   0  0  0  0  0  0  0  0  0  0  0  0  # atno 10764 bound_to 10752
  154.6986  135.5253  153.8563 H   0  0  0  0  0  0  0  0  0  0  0  0  # atno 10765 bound_to 10752
  141.0749  133.9317  157.2409 H   0  0  0  0  0  0  0  0  0  0  0  0  # atno 11005 bound_to 11000
  146.2786  140.4623  142.8785 LP  0  0  0  0  0  0  0  0  0  0  0  0  # atno 17320 bound_to 7965
  144.8423  140.6876  143.6221 LP  0  0  0  0  0  0  0  0  0  0  0  0  # atno 17321 bound_to 7965
  140.1859  144.4799  150.6504 LP  0  0  0  0  0  0  0  0  0  0  0  0  # atno 17342 bound_to 10162
  140.6630  143.2258  151.5811 LP  0  0  0  0  0  0  0  0  0  0  0  0  # atno 17343 bound_to 10162
  156.7520  130.4772  149.5454 LP  0  0  0  0  0  0  0  0  0  0  0  0  # atno 17370 bound_to 10713
  156.1472  130.6285  151.0547 LP  0  0  0  0  0  0  0  0  0  0  0  0  # atno 17371 bound_to 10713
  139.9562  135.0165  156.9134 LP  0  0  0  0  0  0  0  0  0  0  0  0  # atno 17394 bound_to 11000
  140.5594  134.0550  155.7394 LP  0  0  0  0  0  0  0  0  0  0  0  0  # atno 17395 bound_to 11000

$$$$
