AV-unprocessed.smi:2171|AV-procd|sdf|8833|dock1
  -GOLD-   2272012 23D 1   1.00000     0.00000
 Structure written by MMmdl.
 39 41  0  0  0  0  0  0  0  0  2 V2000
  150.7215  141.1759  158.2312 O   0  0  0  0  0  0  0  0  0  0  0  0
  150.2378  142.2634  157.9187 C   0  0  0  0  0  0  0  0  0  0  0  0
  150.5920  143.5175  158.7193 C   0  0  0  0  0  0  0  0  0  0  0  0
  151.4986  143.2057  159.8099 N   0  0  0  0  0  0  0  0  0  0  0  0
  152.7193  142.5660  159.7521 C   0  0  0  0  0  0  0  0  0  0  0  0
  153.1987  142.4901  161.0283 C   0  0  0  0  0  0  0  0  0  0  0  0
  152.1881  143.1193  161.8075 C   0  0  0  0  0  0  0  0  0  0  0  0
  151.1708  143.5451  161.0762 N   0  0  0  0  0  0  0  0  0  0  0  0
  149.3968  142.4309  156.8860 N   0  0  0  0  0  0  0  0  0  0  0  0
  148.9075  141.3696  156.0118 C   0  0  1  0  0  0  0  0  0  0  0  0
  147.6903  141.7976  155.1796 C   0  0  0  0  0  0  0  0  0  0  0  0
  147.8912  141.1487  153.7956 C   0  0  0  0  0  0  0  0  0  0  0  0
  149.1129  140.3170  153.8889 N   0  3  2  0  0  0  0  0  0  0  0  0
  148.7949  138.8845  154.1431 C   0  0  0  0  0  0  0  0  0  0  0  0
  150.0466  138.0628  154.4779 C   0  0  0  0  0  0  0  0  0  0  0  0
  150.7615  138.6584  155.6934 C   0  0  0  0  0  0  0  0  0  0  0  0
  151.1355  140.1144  155.3988 C   0  0  0  0  0  0  0  0  0  0  0  0
  149.9309  140.9680  154.9411 C   0  0  2  0  0  0  0  0  0  0  0  0
  151.0662  144.2548  158.0702 H   0  0  0  0  0  0  0  0  0  0  0  0
  149.6848  143.9755  159.1165 H   0  0  0  0  0  0  0  0  0  0  0  0
  153.1383  142.2208  158.8185 H   0  0  0  0  0  0  0  0  0  0  0  0
  154.1299  142.0521  161.3555 H   0  0  0  0  0  0  0  0  0  0  0  0
  152.1631  143.2771  162.8757 H   0  0  0  0  0  0  0  0  0  0  0  0
  149.0507  143.3638  156.7114 H   0  0  0  0  0  0  0  0  0  0  0  0
  148.6247  140.4950  156.6003 H   0  0  0  0  0  0  0  0  0  0  0  0
  146.7623  141.4690  155.6491 H   0  0  0  0  0  0  0  0  0  0  0  0
  147.6363  142.8825  155.0750 H   0  0  0  0  0  0  0  0  0  0  0  0
  147.0195  140.5779  153.4719 H   0  0  0  0  0  0  0  0  0  0  0  0
  148.0625  141.9255  153.0494 H   0  0  0  0  0  0  0  0  0  0  0  0
  148.0799  138.8015  154.9632 H   0  0  0  0  0  0  0  0  0  0  0  0
  148.3053  138.4686  153.2618 H   0  0  0  0  0  0  0  0  0  0  0  0
  149.7686  137.0280  154.6804 H   0  0  0  0  0  0  0  0  0  0  0  0
  150.7203  138.0423  153.6203 H   0  0  0  0  0  0  0  0  0  0  0  0
  150.1198  138.6034  156.5735 H   0  0  0  0  0  0  0  0  0  0  0  0
  151.6572  138.0811  155.9244 H   0  0  0  0  0  0  0  0  0  0  0  0
  151.6159  140.5637  156.2678 H   0  0  0  0  0  0  0  0  0  0  0  0
  151.8875  140.1231  154.6088 H   0  0  0  0  0  0  0  0  0  0  0  0
  150.3296  141.8852  154.5024 H   0  0  0  0  0  0  0  0  0  0  0  0
  149.6161  140.3611  153.0142 H   0  0  0  0  0  0  0  0  0  0  0  0
  1  2  2  0  0  0  0
  2  3  1  0  0  0  0
  2  9  1  0  0  0  0
  3  4  1  0  0  0  0
  3 19  1  0  0  0  0
  3 20  1  0  0  0  0
  4  8  1  0  0  0  0
  4  5  1  0  0  0  0
  5  6  2  0  0  0  0
  5 21  1  0  0  0  0
  6  7  1  0  0  0  0
  6 22  1  0  0  0  0
  7  8  2  0  0  0  0
  7 23  1  0  0  0  0
  9 10  1  0  0  0  0
  9 24  1  0  0  0  0
 10 18  1  0  0  0  0
 10 11  1  0  0  0  0
 10 25  1  0  0  0  0
 11 12  1  0  0  0  0
 11 26  1  0  0  0  0
 11 27  1  0  0  0  0
 12 13  1  0  0  0  0
 12 28  1  0  0  0  0
 12 29  1  0  0  0  0
 13 18  1  0  0  0  0
 13 14  1  0  0  0  0
 13 39  1  0  0  0  0
 14 15  1  0  0  0  0
 14 30  1  0  0  0  0
 14 31  1  0  0  0  0
 15 16  1  0  0  0  0
 15 32  1  0  0  0  0
 15 33  1  0  0  0  0
 16 17  1  0  0  0  0
 16 34  1  0  0  0  0
 16 35  1  0  0  0  0
 17 18  1  0  0  0  0
 17 36  1  0  0  0  0
 17 37  1  0  0  0  0
 18 38  1  0  0  0  0
M  CHG  1  13   1
M  END
> <s_m_source_file>
AV-unprocessed.smi

> <i_m_source_file_index>
2171

> <i_lp_mmshare_version>
43012

> <i_f3d_flags>
0

> <s_epik_input>
bjFbY0hdW2NIXVtjSF1uMVtDSDJdQyg9TylbTkhdW0NASF0oW0NIMl1bQ0gyXTIpW0NAQEhdKE4yMylbQ0gyXVtDSDJdW0NIMl1bQ0gyXTM=

> <s_epik_cmdline>
J2VwaWtfcHl0aG9uJywgJy1waCcsICc3LjAnLCAnLXRuJywgJzgnLCAnLW1hJywgJzIwMCcsICctbWV0YWxfYmluZGluZycsICctaW1hZScsICc8aW5maWxlLm1hZT4nLCAnLW9tYWUnLCAnPG91dGZpbGUubWFlPic=

> <r_lp_tautomer_probability>
1

> <r_epik_Ionization_Penalty>
0.00204179

> <r_epik_Ionization_Penalty_Charging>
0.00203239

> <r_epik_Ionization_Penalty_Neutral>
9.40205e-06

> <r_epik_State_Penalty>
0.00138983

> <r_epik_Charging_Adjusted_Penalty>
0.00342221

> <i_epik_Tot_Q>
1

> <i_epik_Tot_abs_Q>
1

> <r_epik_Metal_State_Penalty>
-0

> <b_epik_Metal_Only>
0

> <s_lp_Force_Field>
OPLS_2005

> <r_lp_Energy>
36.6444

> <b_lp_Chiralities_Consistent>
1

> <s_lp_Variant>
AV-unprocessed.smi:2171-8

> <Gold.Version>
5.8.1

> <Gold.Id.Protein>
6NUR|6NUR_protein|mol2

> <Gold.PLP.Fitness>
43.5753

> <Gold.PLP.PLP>
-38.0775

> <Gold.PLP.part.hbond>
-2.8704

> <Gold.PLP.part.metal>
0.0000

> <Gold.PLP.part.buried>
-1.7482

> <Gold.PLP.part.nonpolar>
-33.6497

> <Gold.PLP.part.repulsive>
0.3155

> <Gold.PLP.ligand.clash>
0.0000

> <Gold.PLP.ligand.torsion>
0.2600

> <Gold.PLP.Chemscore.Hbond>
2.0000

> <Gold.PLP.Chemscore.CHOScore>
0.0000

> <Gold.PLP.Chemscore.Metal>
0.0000

> <Gold.Chemscore.Hbonds>
donor molecule, donor type, donor heavy atom, donor atom, acceptor molecule, acceptor atom, score
      L1  H     9    24       P1  8028  1.00
      L1  H    13    39       P1  7957  0.96

> <Gold.PLP.Chemscore.Internal.Correction>
0.0179

> <Gold.Rescore>
     Score         DG    S(hbond)    S(metal)    S(lipo)     H(rot)  DE(clash)    DE(int)     intcor
     17.48     -19.07       1.98        0.00      91.06       1.44       0.09       1.51       ----

> <Gold.Chemscore.Fitness>
17.4792

> <Gold.Chemscore.DG>
-19.0731

> <Gold.Chemscore.ZeroCoef>
-5.4800

> <Gold.Chemscore.Hbond>
1.9846

> <Gold.Chemscore.Metal>
0.0000

> <Gold.Chemscore.Lipo>
91.0564

> <Gold.Chemscore.Internal_Hbond>
0.0000

> <Gold.Chemscore.DEClash>
0.0853

> <Gold.Chemscore.DEInternal>
1.5086

> <Gold.Chemscore.Rot>
1.4410

> <Gold.Chemscore.Internal.Correction>
   9.000000E+99

> <Gold.Chemscore.Hbonds>
donor molecule, donor type, donor heavy atom, donor atom, acceptor molecule, acceptor atom, score
      L1  H     9    24       P1  8028  0.88
      L1  H    13    39       P1  7957  0.92

> <Gold.Chemscore.Hbond.Weighted>
-6.6285

> <Gold.Chemscore.Metal.Weighted>
-0.0000

> <Gold.Chemscore.Lipo.Weighted>
-10.6536

> <Gold.Chemscore.Internal_Hbond.Weighted>
0.0000

> <Gold.Chemscore.DEClash.Weighted>
0.0853

> <Gold.Chemscore.DEInternal.Weighted>
1.5086

> <Gold.Chemscore.Rot.Weighted>
3.6889

> <Gold.Chemscore.Internal.Correction.Weighted>
   9.000000E+99

> <Gold.Protein.RotatedTorsions>
[ 6907 6896 6895 6894 ] final   23.86 input  -60.11 | X-H torsion
[ 7974 7965 7964 7962 ] final  149.01 input  175.53 | X-H torsion
[ 8008 7997 7996 7995 ] final  -36.00 input   59.86 | X-H torsion
[ 10167 10162 10161 10158 ] final   56.24 input  -65.29 | X-H torsion
[ 10718 10713 10712 10709 ] final   38.37 input   66.30 | X-H torsion
[ 10763 10752 10751 10750 ] final  -31.29 input  -60.55 | X-H torsion
[ 11005 11000 10999 10996 ] final  106.01 input  -57.11 | X-H torsion

> <Gold.Protein.ActiveResidues>
 VAL166  LYS551  ARG553  GLY616  TRP617  ASP618  TYR619  PRO620  LYS621  CYS622 
 ASP623  PHE694  ASN695  SER759  ASP760  ASP761  ALA762  ILE779  LEU786  VAL792 
 PHE793  MET794  SER795  GLU796  ALA797  LYS798  CYS799  TRP800  GLU811  SER814 

> <Gold.Protein.RotatedAtoms>
  151.9488  135.0179  160.0540 H   0  0  0  0  0  0  0  0  0  0  0  0  # atno 6907 bound_to 6896
  152.1972  133.4810  159.5047 H   0  0  0  0  0  0  0  0  0  0  0  0  # atno 6908 bound_to 6896
  150.6947  134.1554  159.4199 H   0  0  0  0  0  0  0  0  0  0  0  0  # atno 6909 bound_to 6896
  144.8470  139.6226  143.5991 H   0  0  0  0  0  0  0  0  0  0  0  0  # atno 7974 bound_to 7965
  154.4083  140.1642  156.2302 H   0  0  0  0  0  0  0  0  0  0  0  0  # atno 8008 bound_to 7997
  155.9289  140.3416  155.6210 H   0  0  0  0  0  0  0  0  0  0  0  0  # atno 8009 bound_to 7997
  155.7131  140.0759  157.2353 H   0  0  0  0  0  0  0  0  0  0  0  0  # atno 8010 bound_to 7997
  140.2109  144.3890  150.6489 H   0  0  0  0  0  0  0  0  0  0  0  0  # atno 10167 bound_to 10162
  157.3581  130.7634  149.7027 H   0  0  0  0  0  0  0  0  0  0  0  0  # atno 10718 bound_to 10713
  153.7949  135.6895  153.4865 H   0  0  0  0  0  0  0  0  0  0  0  0  # atno 10763 bound_to 10752
  153.1726  135.4537  154.9921 H   0  0  0  0  0  0  0  0  0  0  0  0  # atno 10764 bound_to 10752
  154.8030  135.3345  154.7442 H   0  0  0  0  0  0  0  0  0  0  0  0  # atno 10765 bound_to 10752
  139.8809  134.9355  156.5601 H   0  0  0  0  0  0  0  0  0  0  0  0  # atno 11005 bound_to 11000
  146.2752  139.6736  142.9268 LP  0  0  0  0  0  0  0  0  0  0  0  0  # atno 17320 bound_to 7965
  145.4577  141.0431  143.2769 LP  0  0  0  0  0  0  0  0  0  0  0  0  # atno 17321 bound_to 7965
  140.6324  143.2189  151.6467 LP  0  0  0  0  0  0  0  0  0  0  0  0  # atno 17342 bound_to 10162
  139.5180  144.3297  152.0837 LP  0  0  0  0  0  0  0  0  0  0  0  0  # atno 17343 bound_to 10162
  155.9732  130.4121  150.4018 LP  0  0  0  0  0  0  0  0  0  0  0  0  # atno 17370 bound_to 10713
  157.2091  131.0456  151.2609 LP  0  0  0  0  0  0  0  0  0  0  0  0  # atno 17371 bound_to 10713
  140.8175  133.8380  155.8865 LP  0  0  0  0  0  0  0  0  0  0  0  0  # atno 17394 bound_to 11000
  140.9449  134.1853  157.4771 LP  0  0  0  0  0  0  0  0  0  0  0  0  # atno 17395 bound_to 11000

$$$$
