AV-unprocessed.smi:2768|AV-procd|sdf|10653|dock5
  -GOLD-   2272015103D 1   1.00000     0.00000
 Structure written by MMmdl.
 34 35  0  0  0  0  0  0  0  0  2 V2000
  152.1150  140.1093  155.8748 O   0  0  0  0  0  0  0  0  0  0  0  0
  150.9563  139.9250  156.2647 C   0  0  0  0  0  0  0  0  0  0  0  0
  150.2914  140.4805  157.3190 N   0  5  0  0  0  0  0  0  0  0  0  0
  150.8901  141.4153  158.2761 C   0  0  1  0  0  0  0  0  0  0  0  0
  152.4058  141.1346  158.4380 C   0  0  0  0  0  0  0  0  0  0  0  0
  153.1223  142.1646  159.3479 C   0  0  0  0  0  0  0  0  0  0  0  0
  152.9269  143.6195  158.8713 C   0  0  0  0  0  0  0  0  0  0  0  0
  151.4201  143.9200  158.7078 C   0  0  0  0  0  0  0  0  0  0  0  0
  150.6793  142.8869  157.8160 C   0  0  1  0  0  0  0  0  0  0  0  0
  151.1004  143.0602  156.4750 O   0  0  0  0  0  0  0  0  0  0  0  0
  150.0652  138.9404  155.4775 C   0  0  0  0  0  0  0  0  0  0  0  0
  150.8150  138.3008  154.5754 F   0  0  0  0  0  0  0  0  0  0  0  0
  149.5691  138.0155  156.3065 F   0  0  0  0  0  0  0  0  0  0  0  0
  148.9325  139.6848  154.7722 C   0  0  0  0  0  0  0  0  0  0  0  0
  147.9039  138.9803  154.1054 C   0  0  0  0  0  0  0  0  0  0  0  0
  146.8758  139.7125  153.4820 C   0  0  0  0  0  0  0  0  0  0  0  0
  146.9109  141.1184  153.5432 C   0  0  0  0  0  0  0  0  0  0  0  0
  147.9757  141.7308  154.2326 C   0  0  0  0  0  0  0  0  0  0  0  0
  148.9649  141.0382  154.8355 N   0  0  0  0  0  0  0  0  0  0  0  0
  150.4361  141.3246  159.2643 H   0  0  0  0  0  0  0  0  0  0  0  0
  149.6116  143.1090  157.8394 H   0  0  0  0  0  0  0  0  0  0  0  0
  152.5525  140.1331  158.8439 H   0  0  0  0  0  0  0  0  0  0  0  0
  152.8871  141.1355  157.4587 H   0  0  0  0  0  0  0  0  0  0  0  0
  152.7658  142.0687  160.3756 H   0  0  0  0  0  0  0  0  0  0  0  0
  154.1880  141.9367  159.3822 H   0  0  0  0  0  0  0  0  0  0  0  0
  153.3787  144.3159  159.5780 H   0  0  0  0  0  0  0  0  0  0  0  0
  153.4371  143.7653  157.9186 H   0  0  0  0  0  0  0  0  0  0  0  0
  150.9575  143.9474  159.6963 H   0  0  0  0  0  0  0  0  0  0  0  0
  151.2901  144.9224  158.2981 H   0  0  0  0  0  0  0  0  0  0  0  0
  150.5037  143.6730  156.0710 H   0  0  0  0  0  0  0  0  0  0  0  0
  147.8960  137.9004  154.0827 H   0  0  0  0  0  0  0  0  0  0  0  0
  146.0735  139.2047  152.9675 H   0  0  0  0  0  0  0  0  0  0  0  0
  146.1398  141.7128  153.0761 H   0  0  0  0  0  0  0  0  0  0  0  0
  148.0346  142.8070  154.3008 H   0  0  0  0  0  0  0  0  0  0  0  0
  1  2  2  0  0  0  0
  2  3  1  0  0  0  0
  2 11  1  0  0  0  0
  3  4  1  0  0  0  0
  4 20  1  0  0  0  0
  4  9  1  0  0  0  0
  4  5  1  0  0  0  0
  5  6  1  0  0  0  0
  5 22  1  0  0  0  0
  5 23  1  0  0  0  0
  6  7  1  0  0  0  0
  6 24  1  0  0  0  0
  6 25  1  0  0  0  0
  7  8  1  0  0  0  0
  7 26  1  0  0  0  0
  7 27  1  0  0  0  0
  8  9  1  0  0  0  0
  8 28  1  0  0  0  0
  8 29  1  0  0  0  0
  9 21  1  0  0  0  0
  9 10  1  0  0  0  0
 10 30  1  0  0  0  0
 11 12  1  0  0  0  0
 11 13  1  0  0  0  0
 11 14  1  0  0  0  0
 14 19  1  0  0  0  0
 14 15  2  0  0  0  0
 15 16  1  0  0  0  0
 15 31  1  0  0  0  0
 16 17  2  0  0  0  0
 16 32  1  0  0  0  0
 17 18  1  0  0  0  0
 17 33  1  0  0  0  0
 18 19  2  0  0  0  0
 18 34  1  0  0  0  0
M  CHG  1   3  -1
M  END
> <s_m_source_file>
AV-unprocessed.smi

> <i_m_source_file_index>
2768

> <i_lp_mmshare_version>
43012

> <i_f3d_flags>
0

> <s_epik_input>
bjFbY0hdW2NIXVtjSF1bY0hdYzFDKEYpKEYpQyg9TylbTkhdW0NAQEhdMltDSDJdW0NIMl1bQ0gyXVtDSDJdW0NASF0yW09IXQ==

> <s_epik_cmdline>
J2VwaWtfcHl0aG9uJywgJy1waCcsICc3LjAnLCAnLXRuJywgJzgnLCAnLW1hJywgJzIwMCcsICctbWV0YWxfYmluZGluZycsICctaW1hZScsICc8aW5maWxlLm1hZT4nLCAnLW9tYWUnLCAnPG91dGZpbGUubWFlPic=

> <r_lp_tautomer_probability>
1

> <r_epik_Ionization_Penalty>
5.70553

> <r_epik_Ionization_Penalty_Charging>
5.70553

> <r_epik_Ionization_Penalty_Neutral>
5.5493e-06

> <r_epik_State_Penalty>
5.70549

> <r_epik_Charging_Adjusted_Penalty>
11.411

> <i_epik_Tot_Q>
-1

> <i_epik_Tot_abs_Q>
1

> <r_epik_Metal_State_Penalty>
1.6859

> <b_epik_Metal_Only>
1

> <s_lp_Force_Field>
OPLS_2005

> <r_lp_Energy>
27.4562

> <b_lp_Chiralities_Consistent>
1

> <s_lp_Variant>
AV-unprocessed.smi:2768-6

> <Gold.Version>
5.8.1

> <Gold.Id.Protein>
6NUR|6NUR_protein|mol2

> <Gold.PLP.Fitness>
44.4782

> <Gold.PLP.PLP>
-36.9655

> <Gold.PLP.part.hbond>
-2.9156

> <Gold.PLP.part.metal>
0.0000

> <Gold.PLP.part.buried>
-2.0022

> <Gold.PLP.part.nonpolar>
-30.9594

> <Gold.PLP.part.repulsive>
0.1425

> <Gold.PLP.ligand.clash>
0.0000

> <Gold.PLP.ligand.torsion>
0.6728

> <Gold.PLP.Chemscore.Hbond>
1.9459

> <Gold.PLP.Chemscore.CHOScore>
1.0000

> <Gold.PLP.Chemscore.Metal>
0.0000

> <Gold.Chemscore.Hbonds>
donor molecule, donor type, donor heavy atom, donor atom, acceptor molecule, acceptor atom, score
      L1  H    10    30       P1  8028  1.00
      P1  H  7997  8008       L1     1  0.41
      L1  C    18    34       P1  8028  1.00

> <Gold.PLP.Chemscore.Internal.Correction>
0.0207

> <Gold.Rescore>
     Score         DG    S(hbond)    S(metal)    S(lipo)     H(rot)  DE(clash)    DE(int)     intcor
     14.04     -17.69       1.85        0.00      94.31       1.95       0.32       3.33       ----

> <Gold.Chemscore.Fitness>
14.0388

> <Gold.Chemscore.DG>
-17.6874

> <Gold.Chemscore.ZeroCoef>
-5.4800

> <Gold.Chemscore.Hbond>
1.8461

> <Gold.Chemscore.Metal>
0.0000

> <Gold.Chemscore.Lipo>
94.3097

> <Gold.Chemscore.Internal_Hbond>
0.0000

> <Gold.Chemscore.DEClash>
0.3214

> <Gold.Chemscore.DEInternal>
3.3273

> <Gold.Chemscore.Rot>
1.9503

> <Gold.Chemscore.Internal.Correction>
   9.000000E+99

> <Gold.Chemscore.Hbonds>
donor molecule, donor type, donor heavy atom, donor atom, acceptor molecule, acceptor atom, score
      L1  H    10    30       P1  8028  0.98
      P1  H  7997  8008       L1     1  0.41

> <Gold.Chemscore.Hbond.Weighted>
-6.1660

> <Gold.Chemscore.Metal.Weighted>
-0.0000

> <Gold.Chemscore.Lipo.Weighted>
-11.0342

> <Gold.Chemscore.Internal_Hbond.Weighted>
0.0000

> <Gold.Chemscore.DEClash.Weighted>
0.3214

> <Gold.Chemscore.DEInternal.Weighted>
3.3273

> <Gold.Chemscore.Rot.Weighted>
4.9928

> <Gold.Chemscore.Internal.Correction.Weighted>
   9.000000E+99

> <Gold.Protein.RotatedTorsions>
[ 6907 6896 6895 6894 ] final  -36.68 input  -60.11 | X-H torsion
[ 7974 7965 7964 7962 ] final  115.48 input  175.53 | X-H torsion
[ 8008 7997 7996 7995 ] final  -27.32 input   59.86 | X-H torsion
[ 10167 10162 10161 10158 ] final  -13.73 input  -65.29 | X-H torsion
[ 10718 10713 10712 10709 ] final  102.38 input   66.30 | X-H torsion
[ 10763 10752 10751 10750 ] final -162.63 input  -60.55 | X-H torsion
[ 11005 11000 10999 10996 ] final   84.22 input  -57.11 | X-H torsion

> <Gold.Protein.ActiveResidues>
 VAL166  LYS551  ARG553  GLY616  TRP617  ASP618  TYR619  PRO620  LYS621  CYS622 
 ASP623  PHE694  ASN695  SER759  ASP760  ASP761  ALA762  ILE779  LEU786  VAL792 
 PHE793  MET794  SER795  GLU796  ALA797  LYS798  CYS799  TRP800  GLU811  SER814 

> <Gold.Protein.RotatedAtoms>
  151.0241  134.9491  159.8075 H   0  0  0  0  0  0  0  0  0  0  0  0  # atno 6907 bound_to 6896
  152.5331  134.2865  159.9037 H   0  0  0  0  0  0  0  0  0  0  0  0  # atno 6908 bound_to 6896
  151.2873  133.4140  159.2665 H   0  0  0  0  0  0  0  0  0  0  0  0  # atno 6909 bound_to 6896
  145.1914  139.2998  143.4366 H   0  0  0  0  0  0  0  0  0  0  0  0  # atno 7974 bound_to 7965
  154.4383  140.1875  156.0913 H   0  0  0  0  0  0  0  0  0  0  0  0  # atno 8008 bound_to 7997
  156.0364  140.3325  155.7169 H   0  0  0  0  0  0  0  0  0  0  0  0  # atno 8009 bound_to 7997
  155.5765  140.0617  157.2784 H   0  0  0  0  0  0  0  0  0  0  0  0  # atno 8010 bound_to 7997
  140.7188  143.5395  150.9425 H   0  0  0  0  0  0  0  0  0  0  0  0  # atno 10167 bound_to 10162
  157.6803  131.0751  150.5395 H   0  0  0  0  0  0  0  0  0  0  0  0  # atno 10718 bound_to 10713
  154.7197  135.3023  154.9068 H   0  0  0  0  0  0  0  0  0  0  0  0  # atno 10763 bound_to 10752
  153.9943  135.6715  153.4760 H   0  0  0  0  0  0  0  0  0  0  0  0  # atno 10764 bound_to 10752
  153.0823  135.5002  154.8444 H   0  0  0  0  0  0  0  0  0  0  0  0  # atno 10765 bound_to 10752
  139.9007  134.8200  156.2415 H   0  0  0  0  0  0  0  0  0  0  0  0  # atno 11005 bound_to 11000
  146.3435  140.2128  142.8590 LP  0  0  0  0  0  0  0  0  0  0  0  0  # atno 17320 bound_to 7965
  145.0037  140.8654  143.5266 LP  0  0  0  0  0  0  0  0  0  0  0  0  # atno 17321 bound_to 7965
  139.9117  143.6712  152.3114 LP  0  0  0  0  0  0  0  0  0  0  0  0  # atno 17342 bound_to 10162
  139.7097  144.7622  151.1133 LP  0  0  0  0  0  0  0  0  0  0  0  0  # atno 17343 bound_to 10162
  156.5703  130.4278  149.6022 LP  0  0  0  0  0  0  0  0  0  0  0  0  # atno 17370 bound_to 10713
  156.2746  130.7036  151.1844 LP  0  0  0  0  0  0  0  0  0  0  0  0  # atno 17371 bound_to 10713
  141.0282  133.7003  156.1384 LP  0  0  0  0  0  0  0  0  0  0  0  0  # atno 17394 bound_to 11000
  140.7135  134.4435  157.5580 LP  0  0  0  0  0  0  0  0  0  0  0  0  # atno 17395 bound_to 11000

$$$$
