AV-unprocessed.smi:113|AV-procd|sdf|1106|dock6
  -GOLD-   2262018223D 1   1.00000     0.00000
 Structure written by MMmdl.
 53 56  0  0  0  0  0  0  0  0  2 V2000
  147.6675  141.5436  155.8645 C   0  0  0  0  0  0  0  0  0  0  0  0
  148.9286  141.3743  156.6848 C   0  0  0  0  0  0  0  0  0  0  0  0
  149.3984  140.1089  157.0865 C   0  0  0  0  0  0  0  0  0  0  0  0
  150.5859  140.0057  157.8528 C   0  0  0  0  0  0  0  0  0  0  0  0
  151.1185  138.6429  158.3085 C   0  0  0  0  0  0  0  0  0  0  0  0
  150.2426  137.4955  158.1174 N   0  0  0  0  0  0  0  0  0  0  0  0
  149.5499  136.9949  159.2463 C   0  0  0  0  0  0  0  0  0  0  0  0
  149.6856  137.5018  160.3619 O   0  0  0  0  0  0  0  0  0  0  0  0
  148.6954  135.8338  158.9871 C   0  0  0  0  0  0  0  0  0  0  0  0
  147.9114  135.2475  160.1506 C   0  0  0  0  0  0  0  0  0  0  0  0
  148.6268  135.3132  157.7382 C   0  0  0  0  0  0  0  0  0  0  0  0
  149.3310  135.8127  156.6533 N   0  0  0  0  0  0  0  0  0  0  0  0
  149.2442  135.1839  155.2754 C   0  0  1  0  0  0  0  0  0  0  0  0
  149.6616  133.7140  155.3302 C   0  0  0  0  0  0  0  0  0  0  0  0
  148.3373  133.0342  155.6071 C   0  0  2  0  0  0  0  0  0  0  0  0
  148.3626  131.6745  155.2211 O   0  0  0  0  0  0  0  0  0  0  0  0
  147.3356  133.9131  154.8356 C   0  0  2  0  0  0  0  0  0  0  0  0
  147.0849  133.5145  153.3671 C   0  0  0  0  0  0  0  0  0  0  0  0
  146.4096  132.2764  153.2927 O   0  0  0  0  0  0  0  0  0  0  0  0
  147.9231  135.2174  154.8180 O   0  0  0  0  0  0  0  0  0  0  0  0
  150.1763  136.9278  156.8258 C   0  0  0  0  0  0  0  0  0  0  0  0
  150.8429  137.3695  155.8866 O   0  0  0  0  0  0  0  0  0  0  0  0
  151.2762  141.2021  158.1904 C   0  0  0  0  0  0  0  0  0  0  0  0
  152.4719  141.1945  158.9481 C   0  0  0  0  0  0  0  0  0  0  0  0
  153.1289  142.4009  159.2602 C   0  0  0  0  0  0  0  0  0  0  0  0
  152.6018  143.6302  158.8224 C   0  0  0  0  0  0  0  0  0  0  0  0
  151.4132  143.6563  158.0698 C   0  0  0  0  0  0  0  0  0  0  0  0
  150.7551  142.4507  157.7553 C   0  0  0  0  0  0  0  0  0  0  0  0
  149.6165  142.4817  157.0306 N   0  3  0  0  0  0  0  0  0  0  0  0
  147.0680  140.6327  155.8769 H   0  0  0  0  0  0  0  0  0  0  0  0
  147.9188  141.7732  154.8288 H   0  0  0  0  0  0  0  0  0  0  0  0
  147.0567  142.3556  156.2603 H   0  0  0  0  0  0  0  0  0  0  0  0
  148.8394  139.2306  156.7999 H   0  0  0  0  0  0  0  0  0  0  0  0
  152.0620  138.4212  157.8072 H   0  0  0  0  0  0  0  0  0  0  0  0
  151.3787  138.6760  159.3676 H   0  0  0  0  0  0  0  0  0  0  0  0
  147.3005  134.3984  159.8429 H   0  0  0  0  0  0  0  0  0  0  0  0
  147.2458  135.9977  160.5790 H   0  0  0  0  0  0  0  0  0  0  0  0
  148.5895  134.9037  160.9324 H   0  0  0  0  0  0  0  0  0  0  0  0
  147.9885  134.4546  157.5972 H   0  0  0  0  0  0  0  0  0  0  0  0
  149.8688  135.7996  154.6262 H   0  0  0  0  0  0  0  0  0  0  0  0
  150.0509  133.4314  154.3509 H   0  0  0  0  0  0  0  0  0  0  0  0
  150.4275  133.5229  156.0829 H   0  0  0  0  0  0  0  0  0  0  0  0
  148.1197  133.0900  156.6744 H   0  0  0  0  0  0  0  0  0  0  0  0
  147.4820  131.3333  155.2652 H   0  0  0  0  0  0  0  0  0  0  0  0
  146.3833  133.9674  155.3648 H   0  0  0  0  0  0  0  0  0  0  0  0
  146.4505  134.2584  152.8846 H   0  0  0  0  0  0  0  0  0  0  0  0
  148.0143  133.4719  152.7984 H   0  0  0  0  0  0  0  0  0  0  0  0
  146.2434  132.0796  152.3834 H   0  0  0  0  0  0  0  0  0  0  0  0
  152.9070  140.2716  159.3006 H   0  0  0  0  0  0  0  0  0  0  0  0
  154.0419  142.3822  159.8377 H   0  0  0  0  0  0  0  0  0  0  0  0
  153.1102  144.5523  159.0636 H   0  0  0  0  0  0  0  0  0  0  0  0
  151.0133  144.6032  157.7366 H   0  0  0  0  0  0  0  0  0  0  0  0
  149.2591  143.3877  156.7285 H   0  0  0  0  0  0  0  0  0  0  0  0
  1  2  1  0  0  0  0
  1 30  1  0  0  0  0
  1 31  1  0  0  0  0
  1 32  1  0  0  0  0
  2 29  1  0  0  0  0
  2  3  2  0  0  0  0
  3  4  1  0  0  0  0
  3 33  1  0  0  0  0
  4  5  1  0  0  0  0
  4 23  2  0  0  0  0
  5  6  1  0  0  0  0
  5 34  1  0  0  0  0
  5 35  1  0  0  0  0
  6 21  1  0  0  0  0
  6  7  1  0  0  0  0
  7  8  2  0  0  0  0
  7  9  1  0  0  0  0
  9 10  1  0  0  0  0
  9 11  2  0  0  0  0
 10 36  1  0  0  0  0
 10 37  1  0  0  0  0
 10 38  1  0  0  0  0
 11 12  1  0  0  0  0
 11 39  1  0  0  0  0
 12 13  1  0  0  0  0
 12 21  1  0  0  0  0
 13 20  1  0  0  0  0
 13 14  1  0  0  0  0
 13 40  1  0  0  0  0
 14 15  1  0  0  0  0
 14 41  1  0  0  0  0
 14 42  1  0  0  0  0
 15 16  1  0  0  0  0
 15 17  1  0  0  0  0
 15 43  1  0  0  0  0
 16 44  1  0  0  0  0
 17 18  1  0  0  0  0
 17 20  1  0  0  0  0
 17 45  1  0  0  0  0
 18 19  1  0  0  0  0
 18 46  1  0  0  0  0
 18 47  1  0  0  0  0
 19 48  1  0  0  0  0
 21 22  2  0  0  0  0
 23 28  1  0  0  0  0
 23 24  1  0  0  0  0
 24 25  2  0  0  0  0
 24 49  1  0  0  0  0
 25 26  1  0  0  0  0
 25 50  1  0  0  0  0
 26 27  2  0  0  0  0
 26 51  1  0  0  0  0
 27 28  1  0  0  0  0
 27 52  1  0  0  0  0
 28 29  2  0  0  0  0
 29 53  1  0  0  0  0
M  CHG  1  29   1
M  END
> <s_m_source_file>
AV-unprocessed.smi

> <i_m_source_file_index>
113

> <i_lp_mmshare_version>
43012

> <i_f3d_flags>
0

> <s_epik_input>
W2NIXTFbY0hdW2NIXVtjSF1jKGMxMiluYyhbQ0gzXSlbY0hdYzJbQ0gyXW4zYyg9TyljKFtDSDNdKVtjSF1uKGMzPU8pW0NAQEhdNFtDSDJdW0NAQEhdKFtPSF0pW0NASF0oTzQpW0NIMl1bT0hd

> <s_epik_cmdline>
J2VwaWtfcHl0aG9uJywgJy1waCcsICc3LjAnLCAnLXRuJywgJzgnLCAnLW1hJywgJzIwMCcsICctbWV0YWxfYmluZGluZycsICctaW1hZScsICc8aW5maWxlLm1hZT4nLCAnLW9tYWUnLCAnPG91dGZpbGUubWFlPic=

> <r_lp_tautomer_probability>
1

> <r_epik_Ionization_Penalty>
0.705471

> <r_epik_Ionization_Penalty_Charging>
0.70547

> <r_epik_Ionization_Penalty_Neutral>
1.19947e-07

> <r_epik_State_Penalty>
0.728574

> <r_epik_Charging_Adjusted_Penalty>
1.43404

> <i_epik_Tot_Q>
1

> <i_epik_Tot_abs_Q>
1

> <r_epik_Metal_State_Penalty>
4.61665

> <b_epik_Metal_Only>
0

> <s_epik_Chemistry_Notes>
This compound contains an acetal/aminal-like group ( X-CH(R)-Y where X, Y are N, S, or O) that may be acid/base labile, releasing an aldehyde.

> <s_lp_Force_Field>
OPLS_2005

> <r_lp_Energy>
45.4749

> <b_lp_Chiralities_Consistent>
1

> <s_lp_Variant>
AV-unprocessed.smi:113-16

> <Gold.Version>
5.8.1

> <Gold.Id.Protein>
6NUR|6NUR_protein|mol2

> <Gold.PLP.Fitness>
54.9072

> <Gold.PLP.PLP>
-45.9688

> <Gold.PLP.part.hbond>
-4.0000

> <Gold.PLP.part.metal>
0.0000

> <Gold.PLP.part.buried>
-7.4858

> <Gold.PLP.part.nonpolar>
-36.6468

> <Gold.PLP.part.repulsive>
1.7029

> <Gold.PLP.ligand.clash>
0.0000

> <Gold.PLP.ligand.torsion>
0.3746

> <Gold.PLP.Chemscore.Hbond>
3.2240

> <Gold.PLP.Chemscore.CHOScore>
0.0000

> <Gold.PLP.Chemscore.Metal>
0.0000

> <Gold.Chemscore.Hbonds>
donor molecule, donor type, donor heavy atom, donor atom, acceptor molecule, acceptor atom, score
      L1  H    29    53       P1  8028  2.00
      P1  H  6931  6943       L1     8  0.21

> <Gold.PLP.Chemscore.Internal.Correction>
0.0156

> <Gold.Rescore>
     Score         DG    S(hbond)    S(metal)    S(lipo)     H(rot)  DE(clash)    DE(int)     intcor
     17.91     -18.60       2.63        0.00     102.85       3.01       0.31       0.37       ----

> <Gold.Chemscore.Fitness>
17.9137

> <Gold.Chemscore.DG>
-18.5992

> <Gold.Chemscore.ZeroCoef>
-5.4800

> <Gold.Chemscore.Hbond>
2.6336

> <Gold.Chemscore.Metal>
0.0000

> <Gold.Chemscore.Lipo>
102.8520

> <Gold.Chemscore.Internal_Hbond>
0.0000

> <Gold.Chemscore.DEClash>
0.3122

> <Gold.Chemscore.DEInternal>
0.3732

> <Gold.Chemscore.Rot>
3.0120

> <Gold.Chemscore.Internal.Correction>
   9.000000E+99

> <Gold.Chemscore.Hbonds>
donor molecule, donor type, donor heavy atom, donor atom, acceptor molecule, acceptor atom, score
      L1  H    29    53       P1  8028  0.97
      P1  H  6931  6943       L1     8  0.22

> <Gold.Chemscore.Hbond.Weighted>
-8.7963

> <Gold.Chemscore.Metal.Weighted>
-0.0000

> <Gold.Chemscore.Lipo.Weighted>
-12.0337

> <Gold.Chemscore.Internal_Hbond.Weighted>
0.0000

> <Gold.Chemscore.DEClash.Weighted>
0.3122

> <Gold.Chemscore.DEInternal.Weighted>
0.3732

> <Gold.Chemscore.Rot.Weighted>
7.7108

> <Gold.Chemscore.Internal.Correction.Weighted>
   9.000000E+99

> <Gold.Protein.RotatedTorsions>
[ 6907 6896 6895 6894 ] final   26.13 input  -60.11 | X-H torsion
[ 7974 7965 7964 7962 ] final   57.77 input  175.53 | X-H torsion
[ 8008 7997 7996 7995 ] final   38.62 input   59.86 | X-H torsion
[ 10167 10162 10161 10158 ] final  125.95 input  -65.29 | X-H torsion
[ 10718 10713 10712 10709 ] final   34.37 input   66.30 | X-H torsion
[ 10763 10752 10751 10750 ] final  -73.76 input  -60.55 | X-H torsion
[ 11005 11000 10999 10996 ] final   52.54 input  -57.11 | X-H torsion

> <Gold.Protein.ActiveResidues>
 VAL166  LYS551  ARG553  GLY616  TRP617  ASP618  TYR619  PRO620  LYS621  CYS622 
 ASP623  PHE694  ASN695  SER759  ASP760  ASP761  ALA762  ILE779  LEU786  VAL792 
 PHE793  MET794  SER795  GLU796  ALA797  LYS798  CYS799  TRP800  GLU811  SER814 

> <Gold.Protein.RotatedAtoms>
  151.9828  135.0020  160.0557 H   0  0  0  0  0  0  0  0  0  0  0  0  # atno 6907 bound_to 6896
  152.1680  133.4620  159.4903 H   0  0  0  0  0  0  0  0  0  0  0  0  # atno 6908 bound_to 6896
  150.6897  134.1906  159.4326 H   0  0  0  0  0  0  0  0  0  0  0  0  # atno 6909 bound_to 6896
  145.9254  139.3764  143.0453 H   0  0  0  0  0  0  0  0  0  0  0  0  # atno 7974 bound_to 7965
  155.2232  140.3332  155.4313 H   0  0  0  0  0  0  0  0  0  0  0  0  # atno 8008 bound_to 7997
  156.2325  140.1857  156.7253 H   0  0  0  0  0  0  0  0  0  0  0  0  # atno 8009 bound_to 7997
  154.6002  140.0624  156.9343 H   0  0  0  0  0  0  0  0  0  0  0  0  # atno 8010 bound_to 7997
  139.5657  144.6910  151.3916 H   0  0  0  0  0  0  0  0  0  0  0  0  # atno 10167 bound_to 10162
  157.3095  130.7392  149.6716 H   0  0  0  0  0  0  0  0  0  0  0  0  # atno 10718 bound_to 10713
  154.4639  135.5887  153.6274 H   0  0  0  0  0  0  0  0  0  0  0  0  # atno 10763 bound_to 10752
  152.9826  135.6050  154.3452 H   0  0  0  0  0  0  0  0  0  0  0  0  # atno 10764 bound_to 10752
  154.3327  135.2842  155.2442 H   0  0  0  0  0  0  0  0  0  0  0  0  # atno 10765 bound_to 10752
  140.0840  134.5299  155.8917 H   0  0  0  0  0  0  0  0  0  0  0  0  # atno 11005 bound_to 11000
  145.8495  140.9537  143.0757 LP  0  0  0  0  0  0  0  0  0  0  0  0  # atno 17320 bound_to 7965
  144.6758  140.0388  143.7481 LP  0  0  0  0  0  0  0  0  0  0  0  0  # atno 17321 bound_to 7965
  140.6941  143.7792  150.7299 LP  0  0  0  0  0  0  0  0  0  0  0  0  # atno 17342 bound_to 10162
  140.1283  143.4549  152.2270 LP  0  0  0  0  0  0  0  0  0  0  0  0  # atno 17343 bound_to 10162
  155.9677  130.4255  150.4659 LP  0  0  0  0  0  0  0  0  0  0  0  0  # atno 17370 bound_to 10713
  157.2655  131.0576  151.2293 LP  0  0  0  0  0  0  0  0  0  0  0  0  # atno 17371 bound_to 10713
  141.2056  133.6648  156.6193 LP  0  0  0  0  0  0  0  0  0  0  0  0  # atno 17394 bound_to 11000
  140.3446  134.7820  157.4423 LP  0  0  0  0  0  0  0  0  0  0  0  0  # atno 17395 bound_to 11000

$$$$
