AV-unprocessed.smi:35|AV-procd|sdf|268|dock5
  -GOLD-   2262016 33D 1   1.00000     0.00000
 Structure written by MMmdl.
 28 29  0  0  0  0  0  0  0  0  2 V2000
  152.0001  136.8671  159.4337 O   0  0  0  0  0  0  0  0  0  0  0  0
  151.7044  137.5312  158.4418 C   0  0  0  0  0  0  0  0  0  0  0  0
  152.6381  138.0540  157.5949 N   0  5  0  0  0  0  0  0  0  0  0  0
  152.3049  138.7887  156.4929 C   0  0  0  0  0  0  0  0  0  0  0  0
  153.1401  139.2918  155.7414 O   0  0  0  0  0  0  0  0  0  0  0  0
  150.9303  139.0024  156.2009 N   0  0  0  0  0  0  0  0  0  0  0  0
  150.5405  139.8164  154.9859 C   0  0  1  0  0  0  0  0  0  0  0  0
  149.5296  139.1433  154.3028 O   0  0  0  0  0  0  0  0  0  0  0  0
  148.6989  140.1010  153.6654 C   0  0  1  0  0  0  0  0  0  0  0  0
  147.3380  139.4735  153.3258 C   0  0  0  0  0  0  0  0  0  0  0  0
  147.4401  138.6901  152.1556 O   0  0  0  0  0  0  0  0  0  0  0  0
  148.6140  141.2147  154.7143 C   0  0  2  0  0  0  0  0  0  0  0  0
  148.3338  142.4552  154.0971 O   0  0  0  0  0  0  0  0  0  0  0  0
  150.0076  141.2251  155.3346 C   0  0  1  0  0  0  0  0  0  0  0  0
  149.9288  141.4997  156.7222 O   0  0  0  0  0  0  0  0  0  0  0  0
  149.9601  138.5020  157.0522 C   0  0  0  0  0  0  0  0  0  0  0  0
  150.2970  137.7852  158.1433 C   0  0  0  0  0  0  0  0  0  0  0  0
  148.8068  137.1342  159.2757 Br  0  0  0  0  0  0  0  0  0  0  0  0
  151.4145  139.8449  154.3331 H   0  0  0  0  0  0  0  0  0  0  0  0
  149.2020  140.4708  152.7691 H   0  0  0  0  0  0  0  0  0  0  0  0
  146.9595  138.8740  154.1545 H   0  0  0  0  0  0  0  0  0  0  0  0
  146.6038  140.2556  153.1307 H   0  0  0  0  0  0  0  0  0  0  0  0
  148.0206  137.9649  152.3288 H   0  0  0  0  0  0  0  0  0  0  0  0
  147.8550  140.9733  155.4606 H   0  0  0  0  0  0  0  0  0  0  0  0
  148.5894  143.1452  154.6903 H   0  0  0  0  0  0  0  0  0  0  0  0
  150.6617  141.9542  154.8537 H   0  0  0  0  0  0  0  0  0  0  0  0
  150.5453  140.9396  157.1699 H   0  0  0  0  0  0  0  0  0  0  0  0
  148.9163  138.6914  156.8500 H   0  0  0  0  0  0  0  0  0  0  0  0
  1  2  2  0  0  0  0
  2 17  1  0  0  0  0
  2  3  1  0  0  0  0
  3  4  1  0  0  0  0
  4  5  2  0  0  0  0
  4  6  1  0  0  0  0
  6  7  1  0  0  0  0
  6 16  1  0  0  0  0
  7 14  1  0  0  0  0
  7  8  1  0  0  0  0
  7 19  1  0  0  0  0
  8  9  1  0  0  0  0
  9 10  1  0  0  0  0
  9 12  1  0  0  0  0
  9 20  1  0  0  0  0
 10 11  1  0  0  0  0
 10 21  1  0  0  0  0
 10 22  1  0  0  0  0
 11 23  1  0  0  0  0
 12 13  1  0  0  0  0
 12 14  1  0  0  0  0
 12 24  1  0  0  0  0
 13 25  1  0  0  0  0
 14 15  1  0  0  0  0
 14 26  1  0  0  0  0
 15 27  1  0  0  0  0
 16 17  2  0  0  0  0
 16 28  1  0  0  0  0
 17 18  1  0  0  0  0
M  CHG  1   3  -1
M  END
> <s_m_source_file>
AV-unprocessed.smi

> <i_m_source_file_index>
35

> <i_lp_mmshare_version>
43012

> <i_f3d_flags>
0

> <s_epik_input>
Tz1jMVtuSF1jKD1PKW4oW2NIXWMxQnIpW0NAQEhdMk9bQ0BASF0oW0NIMl1bT0hdKVtDQEBIXShbT0hdKVtDQEhdMltPSF0=

> <s_epik_cmdline>
J2VwaWtfcHl0aG9uJywgJy1waCcsICc3LjAnLCAnLXRuJywgJzgnLCAnLW1hJywgJzIwMCcsICctbWV0YWxfYmluZGluZycsICctaW1hZScsICc8aW5maWxlLm1hZT4nLCAnLW9tYWUnLCAnPG91dGZpbGUubWFlPic=

> <r_epik_Ionization_Penalty>
1.06112

> <r_epik_Ionization_Penalty_Charging>
2.1796e-09

> <r_epik_Ionization_Penalty_Neutral>
1.06112

> <r_epik_State_Penalty>
1.11484

> <r_epik_Charging_Adjusted_Penalty>
1.11484

> <i_epik_Tot_Q>
-1

> <i_epik_Tot_abs_Q>
1

> <r_epik_Metal_State_Penalty>
0.0032876

> <b_epik_Metal_Only>
0

> <s_epik_Chemistry_Notes>
This compound contains an acetal/aminal-like group ( X-CH(R)-Y where X, Y are N, S, or O) that may be acid/base labile, releasing an aldehyde.

> <s_lp_Force_Field>
OPLS_2005

> <r_lp_Energy>
42.419

> <b_lp_Chiralities_Consistent>
1

> <s_lp_Variant>
AV-unprocessed.smi:35-22

> <Gold.Version>
5.8.1

> <Gold.Id.Protein>
6NUR|6NUR_protein|mol2

> <Gold.PLP.Fitness>
37.7303

> <Gold.PLP.PLP>
-26.0363

> <Gold.PLP.part.hbond>
-6.1453

> <Gold.PLP.part.metal>
0.0000

> <Gold.PLP.part.buried>
0.4013

> <Gold.PLP.part.nonpolar>
-19.2787

> <Gold.PLP.part.repulsive>
0.1816

> <Gold.PLP.ligand.clash>
0.0000

> <Gold.PLP.ligand.torsion>
0.4178

> <Gold.PLP.Chemscore.Hbond>
4.0686

> <Gold.PLP.Chemscore.CHOScore>
0.0000

> <Gold.PLP.Chemscore.Metal>
0.0000

> <Gold.Chemscore.Hbonds>
donor molecule, donor type, donor heavy atom, donor atom, acceptor molecule, acceptor atom, score
      L1  H    11    23       P1  7948  1.00
      L1  H    13    25       P1  8028  1.00
      P1  H  6896  6907       L1     1  1.00
      P1  H  7997  8010       L1     5  1.00
      P1  H  8011  8017       L1    13  0.07

> <Gold.PLP.Chemscore.Internal.Correction>
0.3237

> <Gold.Rescore>
     Score         DG    S(hbond)    S(metal)    S(lipo)     H(rot)  DE(clash)    DE(int)     intcor
     11.09     -13.78       3.95        0.00      37.49       3.63       1.26       1.42       ----

> <Gold.Chemscore.Fitness>
11.0945

> <Gold.Chemscore.DG>
-13.7767

> <Gold.Chemscore.ZeroCoef>
-5.4800

> <Gold.Chemscore.Hbond>
3.9500

> <Gold.Chemscore.Metal>
0.0000

> <Gold.Chemscore.Lipo>
37.4901

> <Gold.Chemscore.Internal_Hbond>
0.0000

> <Gold.Chemscore.DEClash>
1.2648

> <Gold.Chemscore.DEInternal>
1.4173

> <Gold.Chemscore.Rot>
3.6261

> <Gold.Chemscore.Internal.Correction>
   9.000000E+99

> <Gold.Chemscore.Hbonds>
donor molecule, donor type, donor heavy atom, donor atom, acceptor molecule, acceptor atom, score
      L1  H    11    23       P1  7948  0.93
      L1  H    13    25       P1  8028  1.00
      P1  H  6896  6907       L1     1  0.99
      P1  H  7997  8010       L1     5  0.95
      P1  H  8011  8017       L1    13  0.02

> <Gold.Chemscore.Hbond.Weighted>
-13.1931

> <Gold.Chemscore.Metal.Weighted>
-0.0000

> <Gold.Chemscore.Lipo.Weighted>
-4.3863

> <Gold.Chemscore.Internal_Hbond.Weighted>
0.0000

> <Gold.Chemscore.DEClash.Weighted>
1.2648

> <Gold.Chemscore.DEInternal.Weighted>
1.4173

> <Gold.Chemscore.Rot.Weighted>
9.2828

> <Gold.Chemscore.Internal.Correction.Weighted>
   9.000000E+99

> <Gold.Protein.RotatedTorsions>
[ 6907 6896 6895 6894 ] final    8.02 input  -60.11 | X-H torsion
[ 7974 7965 7964 7962 ] final   83.97 input  175.53 | X-H torsion
[ 8008 7997 7996 7995 ] final   93.74 input   59.86 | X-H torsion
[ 10167 10162 10161 10158 ] final  -56.33 input  -65.29 | X-H torsion
[ 10718 10713 10712 10709 ] final    3.37 input   66.30 | X-H torsion
[ 10763 10752 10751 10750 ] final  118.26 input  -60.55 | X-H torsion
[ 11005 11000 10999 10996 ] final  107.07 input  -57.11 | X-H torsion

> <Gold.Protein.ActiveResidues>
 VAL166  LYS551  ARG553  GLY616  TRP617  ASP618  TYR619  PRO620  LYS621  CYS622 
 ASP623  PHE694  ASN695  SER759  ASP760  ASP761  ALA762  ILE779  LEU786  VAL792 
 PHE793  MET794  SER795  GLU796  ALA797  LYS798  CYS799  TRP800  GLU811  SER814 

> <Gold.Protein.RotatedAtoms>
  151.6993  135.0933  160.0247 H   0  0  0  0  0  0  0  0  0  0  0  0  # atno 6907 bound_to 6896
  152.3730  133.6440  159.6110 H   0  0  0  0  0  0  0  0  0  0  0  0  # atno 6908 bound_to 6896
  150.7688  133.9155  159.3423 H   0  0  0  0  0  0  0  0  0  0  0  0  # atno 6909 bound_to 6896
  145.6049  139.2358  143.2225 H   0  0  0  0  0  0  0  0  0  0  0  0  # atno 7974 bound_to 7965
  156.0501  140.3309  155.7341 H   0  0  0  0  0  0  0  0  0  0  0  0  # atno 8008 bound_to 7997
  155.5614  140.0619  157.2845 H   0  0  0  0  0  0  0  0  0  0  0  0  # atno 8009 bound_to 7997
  154.4432  140.1877  156.0774 H   0  0  0  0  0  0  0  0  0  0  0  0  # atno 8010 bound_to 7997
  140.6323  143.2465  151.5208 H   0  0  0  0  0  0  0  0  0  0  0  0  # atno 10167 bound_to 10162
  156.8768  130.5639  149.5655 H   0  0  0  0  0  0  0  0  0  0  0  0  # atno 10718 bound_to 10713
  153.5650  135.3513  155.2814 H   0  0  0  0  0  0  0  0  0  0  0  0  # atno 10763 bound_to 10752
  154.8690  135.4145  154.2789 H   0  0  0  0  0  0  0  0  0  0  0  0  # atno 10764 bound_to 10752
  153.3543  135.7056  153.6833 H   0  0  0  0  0  0  0  0  0  0  0  0  # atno 10765 bound_to 10752
  139.8823  134.9389  156.5763 H   0  0  0  0  0  0  0  0  0  0  0  0  # atno 11005 bound_to 11000
  146.1548  140.6873  142.9305 LP  0  0  0  0  0  0  0  0  0  0  0  0  # atno 17320 bound_to 7965
  144.7294  140.4626  143.6949 LP  0  0  0  0  0  0  0  0  0  0  0  0  # atno 17321 bound_to 7965
  139.5536  144.2332  152.1574 LP  0  0  0  0  0  0  0  0  0  0  0  0  # atno 17342 bound_to 10162
  140.1579  144.5054  150.6649 LP  0  0  0  0  0  0  0  0  0  0  0  0  # atno 17343 bound_to 10162
  156.0698  130.5733  150.9361 LP  0  0  0  0  0  0  0  0  0  0  0  0  # atno 17370 bound_to 10713
  157.6164  131.0933  150.8703 LP  0  0  0  0  0  0  0  0  0  0  0  0  # atno 17371 bound_to 10713
  140.8060  133.8467  155.8768 LP  0  0  0  0  0  0  0  0  0  0  0  0  # atno 17394 bound_to 11000
  140.9549  134.1730  157.4699 LP  0  0  0  0  0  0  0  0  0  0  0  0  # atno 17395 bound_to 11000

$$$$
