AV-unprocessed.smi:584|AV-procd|sdf|2999|dock7
  -GOLD-   2262023503D 1   1.00000     0.00000
 Structure written by MMmdl.
 41 42  0  0  0  0  0  0  0  0  1 V2000
  149.9459  143.1733  158.1927 O   0  0  0  0  0  0  0  0  0  0  0  0
  151.0656  143.0954  157.6848 C   0  0  0  0  0  0  0  0  0  0  0  0
  152.2704  143.8173  158.3053 C   0  0  0  0  0  0  0  0  0  0  0  0
  152.5532  143.4011  159.6892 N   0  0  0  0  0  0  0  0  0  0  0  0
  153.3768  142.2707  159.8568 C   0  0  0  0  0  0  0  0  0  0  0  0
  153.6953  141.7679  161.0647 C   0  0  0  0  0  0  0  0  0  0  0  0
  154.6236  140.5726  161.2125 C   0  0  0  0  0  0  0  0  0  0  0  0
  154.0621  139.4642  160.7294 F   0  0  0  0  0  0  0  0  0  0  0  0
  155.7536  140.7923  160.5420 F   0  0  0  0  0  0  0  0  0  0  0  0
  154.9350  140.3613  162.4920 F   0  0  0  0  0  0  0  0  0  0  0  0
  153.1711  142.4757  162.2161 C   0  0  0  0  0  0  0  0  0  0  0  0
  152.3845  143.5605  162.0736 C   0  0  0  0  0  0  0  0  0  0  0  0
  152.0243  144.0786  160.7517 C   0  0  0  0  0  0  0  0  0  0  0  0
  151.2935  145.0591  160.6093 O   0  0  0  0  0  0  0  0  0  0  0  0
  151.3229  142.3813  156.5783 N   0  0  0  0  0  0  0  0  0  0  0  0
  150.3471  141.5961  155.8277 C   0  0  0  0  0  0  0  0  0  0  0  0
  150.7189  140.0991  155.7631 C   0  0  0  0  0  0  0  0  0  0  0  0
  152.2517  139.9221  155.7680 C   0  0  0  0  0  0  0  0  0  0  0  0
  152.6587  138.4407  155.7163 C   0  0  0  0  0  0  0  0  0  0  0  0
  152.0417  137.7356  154.4997 C   0  0  0  0  0  0  0  0  0  0  0  0
  150.5145  137.8933  154.4909 C   0  0  0  0  0  0  0  0  0  0  0  0
  150.1049  139.3743  154.5429 C   0  0  0  0  0  0  0  0  0  0  0  0
  153.1454  143.6350  157.6792 H   0  0  0  0  0  0  0  0  0  0  0  0
  152.1002  144.8938  158.2480 H   0  0  0  0  0  0  0  0  0  0  0  0
  153.7284  141.8318  158.9341 H   0  0  0  0  0  0  0  0  0  0  0  0
  153.4074  142.1266  163.2105 H   0  0  0  0  0  0  0  0  0  0  0  0
  152.0074  144.0603  162.9537 H   0  0  0  0  0  0  0  0  0  0  0  0
  152.2713  142.3744  156.2318 H   0  0  0  0  0  0  0  0  0  0  0  0
  149.3430  141.7217  156.2361 H   0  0  0  0  0  0  0  0  0  0  0  0
  150.3130  142.0064  154.8182 H   0  0  0  0  0  0  0  0  0  0  0  0
  150.3294  139.6220  156.6639 H   0  0  0  0  0  0  0  0  0  0  0  0
  152.6863  140.4474  154.9162 H   0  0  0  0  0  0  0  0  0  0  0  0
  152.6770  140.3817  156.6608 H   0  0  0  0  0  0  0  0  0  0  0  0
  153.7451  138.3549  155.6840 H   0  0  0  0  0  0  0  0  0  0  0  0
  152.3357  137.9413  156.6306 H   0  0  0  0  0  0  0  0  0  0  0  0
  152.4588  138.1536  153.5826 H   0  0  0  0  0  0  0  0  0  0  0  0
  152.3070  136.6780  154.5075 H   0  0  0  0  0  0  0  0  0  0  0  0
  150.0974  137.4231  153.5999 H   0  0  0  0  0  0  0  0  0  0  0  0
  150.0881  137.3668  155.3458 H   0  0  0  0  0  0  0  0  0  0  0  0
  149.0169  139.4334  154.5706 H   0  0  0  0  0  0  0  0  0  0  0  0
  150.4165  139.8716  153.6234 H   0  0  0  0  0  0  0  0  0  0  0  0
  1  2  2  0  0  0  0
  2  3  1  0  0  0  0
  2 15  1  0  0  0  0
  3  4  1  0  0  0  0
  3 23  1  0  0  0  0
  3 24  1  0  0  0  0
  4 13  1  0  0  0  0
  4  5  1  0  0  0  0
  5  6  2  0  0  0  0
  5 25  1  0  0  0  0
  6  7  1  0  0  0  0
  6 11  1  0  0  0  0
  7  8  1  0  0  0  0
  7  9  1  0  0  0  0
  7 10  1  0  0  0  0
 11 12  2  0  0  0  0
 11 26  1  0  0  0  0
 12 13  1  0  0  0  0
 12 27  1  0  0  0  0
 13 14  2  0  0  0  0
 15 16  1  0  0  0  0
 15 28  1  0  0  0  0
 16 17  1  0  0  0  0
 16 29  1  0  0  0  0
 16 30  1  0  0  0  0
 17 22  1  0  0  0  0
 17 18  1  0  0  0  0
 17 31  1  0  0  0  0
 18 19  1  0  0  0  0
 18 32  1  0  0  0  0
 18 33  1  0  0  0  0
 19 20  1  0  0  0  0
 19 34  1  0  0  0  0
 19 35  1  0  0  0  0
 20 21  1  0  0  0  0
 20 36  1  0  0  0  0
 20 37  1  0  0  0  0
 21 22  1  0  0  0  0
 21 38  1  0  0  0  0
 21 39  1  0  0  0  0
 22 40  1  0  0  0  0
 22 41  1  0  0  0  0
M  END
> <s_m_source_file>
AV-unprocessed.smi

> <i_m_source_file_index>
584

> <i_lp_mmshare_version>
43012

> <i_f3d_flags>
0

> <s_epik_input>
W0NIMl0xW0NIMl1bQ0gyXVtDSDJdW0NIMl1bQ0hdMVtDSDJdW05IXUMoPU8pW0NIMl1uMltjSF1jKEMoRikoRilGKVtjSF1bY0hdYzI9Tw==

> <s_epik_cmdline>
J2VwaWtfcHl0aG9uJywgJy1waCcsICc3LjAnLCAnLXRuJywgJzgnLCAnLW1hJywgJzIwMCcsICctbWV0YWxfYmluZGluZycsICctaW1hZScsICc8aW5maWxlLm1hZT4nLCAnLW9tYWUnLCAnPG91dGZpbGUubWFlPic=

> <r_lp_tautomer_probability>
1

> <r_epik_Ionization_Penalty>
3.78989e-08

> <r_epik_Ionization_Penalty_Charging>
1.81011e-08

> <r_epik_Ionization_Penalty_Neutral>
1.97978e-08

> <r_epik_State_Penalty>
-0

> <r_epik_Charging_Adjusted_Penalty>
1.81011e-08

> <i_epik_Tot_Q>
0

> <i_epik_Tot_abs_Q>
0

> <r_epik_Metal_State_Penalty>
-0

> <b_epik_Metal_Only>
0

> <s_lp_Force_Field>
OPLS_2005

> <r_lp_Energy>
22.635

> <b_lp_Chiralities_Consistent>
1

> <s_lp_Variant>
AV-unprocessed.smi:584-1

> <Gold.Version>
5.8.1

> <Gold.Id.Protein>
6NUR|6NUR_protein|mol2

> <Gold.PLP.Fitness>
54.4310

> <Gold.PLP.PLP>
-55.9722

> <Gold.PLP.part.hbond>
-0.0672

> <Gold.PLP.part.metal>
0.0000

> <Gold.PLP.part.buried>
-3.9709

> <Gold.PLP.part.nonpolar>
-53.5199

> <Gold.PLP.part.repulsive>
0.4743

> <Gold.PLP.ligand.clash>
0.0000

> <Gold.PLP.ligand.torsion>
0.7865

> <Gold.PLP.Chemscore.Hbond>
0.0000

> <Gold.PLP.Chemscore.CHOScore>
0.0000

> <Gold.PLP.Chemscore.Metal>
0.0000

> <Gold.PLP.Chemscore.Internal.Correction>
0.0319

> <Gold.Rescore>
     Score         DG    S(hbond)    S(metal)    S(lipo)     H(rot)  DE(clash)    DE(int)     intcor
     13.10     -13.85       0.00        0.00     109.75       1.75       0.29       0.46       ----

> <Gold.Chemscore.Fitness>
13.1044

> <Gold.Chemscore.DG>
-13.8516

> <Gold.Chemscore.ZeroCoef>
-5.4800

> <Gold.Chemscore.Hbond>
0.0000

> <Gold.Chemscore.Metal>
0.0000

> <Gold.Chemscore.Lipo>
109.7539

> <Gold.Chemscore.Internal_Hbond>
0.0000

> <Gold.Chemscore.DEClash>
0.2909

> <Gold.Chemscore.DEInternal>
0.4562

> <Gold.Chemscore.Rot>
1.7459

> <Gold.Chemscore.Internal.Correction>
   9.000000E+99

> <Gold.Chemscore.Hbond.Weighted>
-0.0000

> <Gold.Chemscore.Metal.Weighted>
-0.0000

> <Gold.Chemscore.Lipo.Weighted>
-12.8412

> <Gold.Chemscore.Internal_Hbond.Weighted>
0.0000

> <Gold.Chemscore.DEClash.Weighted>
0.2909

> <Gold.Chemscore.DEInternal.Weighted>
0.4562

> <Gold.Chemscore.Rot.Weighted>
4.4696

> <Gold.Chemscore.Internal.Correction.Weighted>
   9.000000E+99

> <Gold.Protein.RotatedTorsions>
[ 6907 6896 6895 6894 ] final  126.89 input  -60.11 | X-H torsion
[ 7974 7965 7964 7962 ] final  -57.39 input  175.53 | X-H torsion
[ 8008 7997 7996 7995 ] final  -20.13 input   59.86 | X-H torsion
[ 10167 10162 10161 10158 ] final   44.84 input  -65.29 | X-H torsion
[ 10718 10713 10712 10709 ] final  -22.25 input   66.30 | X-H torsion
[ 10763 10752 10751 10750 ] final -126.97 input  -60.55 | X-H torsion
[ 11005 11000 10999 10996 ] final   25.45 input  -57.11 | X-H torsion

> <Gold.Protein.ActiveResidues>
 VAL166  LYS551  ARG553  GLY616  TRP617  ASP618  TYR619  PRO620  LYS621  CYS622 
 ASP623  PHE694  ASN695  SER759  ASP760  ASP761  ALA762  ILE779  LEU786  VAL792 
 PHE793  MET794  SER795  GLU796  ALA797  LYS798  CYS799  TRP800  GLU811  SER814 

> <Gold.Protein.RotatedAtoms>
  152.3863  133.6615  159.6200 H   0  0  0  0  0  0  0  0  0  0  0  0  # atno 6907 bound_to 6896
  150.7781  133.9030  159.3356 H   0  0  0  0  0  0  0  0  0  0  0  0  # atno 6908 bound_to 6896
  151.6826  135.0960  160.0270 H   0  0  0  0  0  0  0  0  0  0  0  0  # atno 6909 bound_to 6896
  145.8516  140.8348  142.9983 H   0  0  0  0  0  0  0  0  0  0  0  0  # atno 7974 bound_to 7965
  154.4790  140.2070  155.9808 H   0  0  0  0  0  0  0  0  0  0  0  0  # atno 8008 bound_to 7997
  156.1135  140.3225  155.8076 H   0  0  0  0  0  0  0  0  0  0  0  0  # atno 8009 bound_to 7997
  155.4592  140.0523  157.2983 H   0  0  0  0  0  0  0  0  0  0  0  0  # atno 8010 bound_to 7997
  140.3302  144.2598  150.6169 H   0  0  0  0  0  0  0  0  0  0  0  0  # atno 10167 bound_to 10162
  156.5071  130.4601  149.6668 H   0  0  0  0  0  0  0  0  0  0  0  0  # atno 10718 bound_to 10713
  154.8749  135.3977  154.3517 H   0  0  0  0  0  0  0  0  0  0  0  0  # atno 10763 bound_to 10752
  153.4302  135.7025  153.6241 H   0  0  0  0  0  0  0  0  0  0  0  0  # atno 10764 bound_to 10752
  153.4866  135.3757  155.2439 H   0  0  0  0  0  0  0  0  0  0  0  0  # atno 10765 bound_to 10752
  140.3477  134.2263  155.7683 H   0  0  0  0  0  0  0  0  0  0  0  0  # atno 11005 bound_to 11000
  144.6729  140.0962  143.7463 LP  0  0  0  0  0  0  0  0  0  0  0  0  # atno 17320 bound_to 7965
  145.9351  139.2632  143.1302 LP  0  0  0  0  0  0  0  0  0  0  0  0  # atno 17321 bound_to 7965
  140.5404  143.2224  151.8093 LP  0  0  0  0  0  0  0  0  0  0  0  0  # atno 17342 bound_to 10162
  139.4858  144.4607  151.9544 LP  0  0  0  0  0  0  0  0  0  0  0  0  # atno 17343 bound_to 10162
  156.3276  130.7314  151.2238 LP  0  0  0  0  0  0  0  0  0  0  0  0  # atno 17370 bound_to 10713
  157.7455  131.0438  150.4764 LP  0  0  0  0  0  0  0  0  0  0  0  0  # atno 17371 bound_to 10713
  141.2021  133.7946  157.0408 LP  0  0  0  0  0  0  0  0  0  0  0  0  # atno 17394 bound_to 11000
  140.0729  134.9692  157.1497 LP  0  0  0  0  0  0  0  0  0  0  0  0  # atno 17395 bound_to 11000

$$$$
