AV-unprocessed.smi:971|AV-procd|sdf|4295|dock3
  -GOLD-   22720 2203D 1   1.00000     0.00000
 Structure written by MMmdl.
 34 35  0  0  0  0  0  0  0  0  1 V2000
  151.8438  144.3808  157.4596 C   0  0  0  0  0  0  0  0  0  0  0  0
  151.5882  142.9658  157.9894 C   0  0  0  0  0  0  0  0  0  0  0  0
  152.2684  142.7199  159.3041 C   0  0  0  0  0  0  0  0  0  0  0  0
  153.1035  141.6075  159.4453 N   0  0  0  0  0  0  0  0  0  0  0  0
  153.6515  141.5239  160.6590 C   0  0  0  0  0  0  0  0  0  0  0  0
  154.5558  140.4148  161.0794 C   0  0  0  0  0  0  0  0  0  0  0  0
  153.9399  139.0285  160.8314 C   0  0  0  0  0  0  0  0  0  0  0  0
  154.2694  138.0939  161.9015 N   0  0  0  0  0  0  0  0  0  0  0  0
  154.1012  136.7639  161.8439 C   0  0  0  0  0  0  0  0  0  0  0  0
  153.6383  136.1883  160.8579 O   0  0  0  0  0  0  0  0  0  0  0  0
  154.5296  136.0443  163.0806 C   0  0  0  0  0  0  0  0  0  0  0  0
  153.8467  136.4163  164.3812 C   0  0  0  0  0  0  0  0  0  0  0  0
  155.2733  136.8384  164.1355 C   0  0  0  0  0  0  0  0  0  0  0  0
  153.1461  142.8187  161.7351 S   0  0  0  0  0  0  0  0  0  0  0  0
  152.1811  143.4863  160.4432 C   0  0  0  0  0  0  0  0  0  0  0  0
  151.3919  144.7370  160.6469 C   0  0  0  0  0  0  0  0  0  0  0  0
  151.3396  144.5358  156.5057 H   0  0  0  0  0  0  0  0  0  0  0  0
  152.9087  144.5582  157.3057 H   0  0  0  0  0  0  0  0  0  0  0  0
  151.4758  145.1332  158.1578 H   0  0  0  0  0  0  0  0  0  0  0  0
  150.5137  142.8065  158.0821 H   0  0  0  0  0  0  0  0  0  0  0  0
  151.9312  142.2399  157.2513 H   0  0  0  0  0  0  0  0  0  0  0  0
  155.4997  140.5147  160.5418 H   0  0  0  0  0  0  0  0  0  0  0  0
  154.7858  140.5383  162.1384 H   0  0  0  0  0  0  0  0  0  0  0  0
  152.8541  139.1101  160.7771 H   0  0  0  0  0  0  0  0  0  0  0  0
  154.2700  138.6287  159.8710 H   0  0  0  0  0  0  0  0  0  0  0  0
  154.6549  138.4868  162.7481 H   0  0  0  0  0  0  0  0  0  0  0  0
  154.8161  135.0002  162.9618 H   0  0  0  0  0  0  0  0  0  0  0  0
  153.0851  137.1941  164.3655 H   0  0  0  0  0  0  0  0  0  0  0  0
  153.6668  135.6120  165.0915 H   0  0  0  0  0  0  0  0  0  0  0  0
  156.0601  136.3204  164.6799 H   0  0  0  0  0  0  0  0  0  0  0  0
  155.4580  137.8967  163.9579 H   0  0  0  0  0  0  0  0  0  0  0  0
  151.5873  145.4528  159.8480 H   0  0  0  0  0  0  0  0  0  0  0  0
  151.6449  145.2148  161.5935 H   0  0  0  0  0  0  0  0  0  0  0  0
  150.3234  144.5217  160.6536 H   0  0  0  0  0  0  0  0  0  0  0  0
  1  2  1  0  0  0  0
  1 17  1  0  0  0  0
  1 18  1  0  0  0  0
  1 19  1  0  0  0  0
  2  3  1  0  0  0  0
  2 20  1  0  0  0  0
  2 21  1  0  0  0  0
  3 15  2  0  0  0  0
  3  4  1  0  0  0  0
  4  5  2  0  0  0  0
  5  6  1  0  0  0  0
  5 14  1  0  0  0  0
  6  7  1  0  0  0  0
  6 22  1  0  0  0  0
  6 23  1  0  0  0  0
  7  8  1  0  0  0  0
  7 24  1  0  0  0  0
  7 25  1  0  0  0  0
  8  9  1  0  0  0  0
  8 26  1  0  0  0  0
  9 10  2  0  0  0  0
  9 11  1  0  0  0  0
 11 13  1  0  0  0  0
 11 12  1  0  0  0  0
 11 27  1  0  0  0  0
 12 13  1  0  0  0  0
 12 28  1  0  0  0  0
 12 29  1  0  0  0  0
 13 30  1  0  0  0  0
 13 31  1  0  0  0  0
 14 15  1  0  0  0  0
 15 16  1  0  0  0  0
 16 32  1  0  0  0  0
 16 33  1  0  0  0  0
 16 34  1  0  0  0  0
M  END
> <s_m_source_file>
AV-unprocessed.smi

> <i_m_source_file_index>
971

> <i_lp_mmshare_version>
43012

> <i_f3d_flags>
0

> <s_epik_input>
W0NIM11bQ0gyXWMxbmMoc2MxW0NIM10pW0NIMl1bQ0gyXVtOSF1DKD1PKVtDSF0yW0NIMl1bQ0gyXTI=

> <s_epik_cmdline>
J2VwaWtfcHl0aG9uJywgJy1waCcsICc3LjAnLCAnLXRuJywgJzgnLCAnLW1hJywgJzIwMCcsICctbWV0YWxfYmluZGluZycsICctaW1hZScsICc8aW5maWxlLm1hZT4nLCAnLW9tYWUnLCAnPG91dGZpbGUubWFlPic=

> <r_epik_Ionization_Penalty>
0.00242093

> <r_epik_Ionization_Penalty_Charging>
0

> <r_epik_Ionization_Penalty_Neutral>
0.00242093

> <r_epik_State_Penalty>
0.00167523

> <r_epik_Charging_Adjusted_Penalty>
0.00167523

> <i_epik_Tot_Q>
0

> <i_epik_Tot_abs_Q>
0

> <r_epik_Metal_State_Penalty>
-0

> <b_epik_Metal_Only>
0

> <s_lp_Force_Field>
OPLS_2005

> <r_lp_Energy>
-4.35298

> <b_lp_Chiralities_Consistent>
1

> <s_lp_Variant>
AV-unprocessed.smi:971-1

> <Gold.Version>
5.8.1

> <Gold.Id.Protein>
6NUR|6NUR_protein|mol2

> <Gold.PLP.Fitness>
43.1242

> <Gold.PLP.PLP>
-41.0468

> <Gold.PLP.part.hbond>
-1.0000

> <Gold.PLP.part.metal>
0.0000

> <Gold.PLP.part.buried>
-5.1088

> <Gold.PLP.part.nonpolar>
-35.6577

> <Gold.PLP.part.repulsive>
0.0023

> <Gold.PLP.ligand.clash>
0.0000

> <Gold.PLP.ligand.torsion>
0.5045

> <Gold.PLP.Chemscore.Hbond>
0.9913

> <Gold.PLP.Chemscore.CHOScore>
0.0000

> <Gold.PLP.Chemscore.Metal>
0.0000

> <Gold.Chemscore.Hbonds>
donor molecule, donor type, donor heavy atom, donor atom, acceptor molecule, acceptor atom, score
      P1  H  6896  6908       L1    10  0.96

> <Gold.PLP.Chemscore.Internal.Correction>
0.1127

> <Gold.Rescore>
     Score         DG    S(hbond)    S(metal)    S(lipo)     H(rot)  DE(clash)    DE(int)     intcor
     18.54     -19.08       1.00        0.00     121.47       1.54       0.02       0.51       ----

> <Gold.Chemscore.Fitness>
18.5440

> <Gold.Chemscore.DG>
-19.0774

> <Gold.Chemscore.ZeroCoef>
-5.4800

> <Gold.Chemscore.Hbond>
0.9994

> <Gold.Chemscore.Metal>
0.0000

> <Gold.Chemscore.Lipo>
121.4728

> <Gold.Chemscore.Internal_Hbond>
0.0000

> <Gold.Chemscore.DEClash>
0.0202

> <Gold.Chemscore.DEInternal>
0.5132

> <Gold.Chemscore.Rot>
1.5441

> <Gold.Chemscore.Internal.Correction>
   9.000000E+99

> <Gold.Chemscore.Hbonds>
donor molecule, donor type, donor heavy atom, donor atom, acceptor molecule, acceptor atom, score
      P1  H  6896  6908       L1    10  0.91

> <Gold.Chemscore.Hbond.Weighted>
-3.3380

> <Gold.Chemscore.Metal.Weighted>
-0.0000

> <Gold.Chemscore.Lipo.Weighted>
-14.2123

> <Gold.Chemscore.Internal_Hbond.Weighted>
0.0000

> <Gold.Chemscore.DEClash.Weighted>
0.0202

> <Gold.Chemscore.DEInternal.Weighted>
0.5132

> <Gold.Chemscore.Rot.Weighted>
3.9529

> <Gold.Chemscore.Internal.Correction.Weighted>
   9.000000E+99

> <Gold.Protein.RotatedTorsions>
[ 6907 6896 6895 6894 ] final  -75.39 input  -60.11 | X-H torsion
[ 7974 7965 7964 7962 ] final  -27.13 input  175.53 | X-H torsion
[ 8008 7997 7996 7995 ] final -135.06 input   59.86 | X-H torsion
[ 10167 10162 10161 10158 ] final   11.05 input  -65.29 | X-H torsion
[ 10718 10713 10712 10709 ] final  133.35 input   66.30 | X-H torsion
[ 10763 10752 10751 10750 ] final -131.06 input  -60.55 | X-H torsion
[ 11005 11000 10999 10996 ] final -167.14 input  -57.11 | X-H torsion

> <Gold.Protein.ActiveResidues>
 VAL166  LYS551  ARG553  GLY616  TRP617  ASP618  TYR619  PRO620  LYS621  CYS622 
 ASP623  PHE694  ASN695  SER759  ASP760  ASP761  ALA762  ILE779  LEU786  VAL792 
 PHE793  MET794  SER795  GLU796  ALA797  LYS798  CYS799  TRP800  GLU811  SER814 

> <Gold.Protein.RotatedAtoms>
  150.7060  134.4728  159.5433 H   0  0  0  0  0  0  0  0  0  0  0  0  # atno 6907 bound_to 6896
  152.2381  134.8253  160.0473 H   0  0  0  0  0  0  0  0  0  0  0  0  # atno 6908 bound_to 6896
  151.9045  133.3511  159.3879 H   0  0  0  0  0  0  0  0  0  0  0  0  # atno 6909 bound_to 6896
  146.1378  140.5112  142.8665 H   0  0  0  0  0  0  0  0  0  0  0  0  # atno 7974 bound_to 7965
  155.3723  140.0489  157.3045 H   0  0  0  0  0  0  0  0  0  0  0  0  # atno 8008 bound_to 7997
  154.5123  140.2196  155.9094 H   0  0  0  0  0  0  0  0  0  0  0  0  # atno 8009 bound_to 7997
  156.1597  140.3119  155.8792 H   0  0  0  0  0  0  0  0  0  0  0  0  # atno 8010 bound_to 7997
  140.6156  143.8315  150.7114 H   0  0  0  0  0  0  0  0  0  0  0  0  # atno 10167 bound_to 10162
  157.4781  131.1084  150.9716 H   0  0  0  0  0  0  0  0  0  0  0  0  # atno 10718 bound_to 10713
  154.8753  135.3842  154.4185 H   0  0  0  0  0  0  0  0  0  0  0  0  # atno 10763 bound_to 10752
  153.4891  135.7030  153.5899 H   0  0  0  0  0  0  0  0  0  0  0  0  # atno 10764 bound_to 10752
  153.4281  135.3885  155.2120 H   0  0  0  0  0  0  0  0  0  0  0  0  # atno 10765 bound_to 10752
  140.5565  134.5375  157.5134 H   0  0  0  0  0  0  0  0  0  0  0  0  # atno 11005 bound_to 11000
  144.7759  140.5738  143.6638 LP  0  0  0  0  0  0  0  0  0  0  0  0  # atno 17320 bound_to 7965
  145.5115  139.1479  143.3602 LP  0  0  0  0  0  0  0  0  0  0  0  0  # atno 17321 bound_to 7965
  140.1894  143.4049  152.1875 LP  0  0  0  0  0  0  0  0  0  0  0  0  # atno 17342 bound_to 10162
  139.5396  144.7243  151.4779 LP  0  0  0  0  0  0  0  0  0  0  0  0  # atno 17343 bound_to 10162
  157.0459  130.5767  149.5363 LP  0  0  0  0  0  0  0  0  0  0  0  0  # atno 17370 bound_to 10713
  156.0107  130.5199  150.7980 LP  0  0  0  0  0  0  0  0  0  0  0  0  # atno 17371 bound_to 10713
  139.9429  134.7755  156.0634 LP  0  0  0  0  0  0  0  0  0  0  0  0  # atno 17394 bound_to 11000
  141.1140  133.6634  156.3048 LP  0  0  0  0  0  0  0  0  0  0  0  0  # atno 17395 bound_to 11000

$$$$
