AV-unprocessed.smi:3031|AV-procd|sdf|11546|dock5
  -GOLD-   2272016503D 1   1.00000     0.00000
 Structure written by MMmdl.
 47 48  0  0  0  0  0  0  0  0  2 V2000
  151.8564  145.6179  159.9999 C   0  0  0  0  0  0  0  0  0  0  0  0
  151.7500  144.3516  159.2002 C   0  0  0  0  0  0  0  0  0  0  0  0
  152.4444  143.1258  159.4069 C   0  0  0  0  0  0  0  0  0  0  0  0
  152.1217  142.1961  158.5226 N   0  0  0  0  0  0  0  0  0  0  0  0
  151.2153  142.7942  157.7205 N   0  0  0  0  0  0  0  0  0  0  0  0
  150.6267  142.0587  156.6152 C   0  0  0  0  0  0  0  0  0  0  0  0
  151.3689  140.7355  156.3046 C   0  0  1  0  0  0  0  0  0  0  0  0
  151.2643  139.7172  157.4535 C   0  0  0  0  0  0  0  0  0  0  0  0
  150.8779  140.1121  155.0714 N   0  0  0  0  0  0  0  0  0  0  0  0
  149.4261  140.1259  154.8894 C   0  0  0  0  0  0  0  0  0  0  0  0
  148.9191  138.7857  154.3309 C   0  0  2  0  0  0  0  0  0  0  0  0
  149.8767  138.3280  153.3975 O   0  0  0  0  0  0  0  0  0  0  0  0
  147.5627  138.9145  153.6049 C   0  0  0  0  0  0  0  0  0  0  0  0
  146.9794  137.5953  153.2512 N   0  3  0  0  0  0  0  0  0  0  0  0
  146.6634  136.7486  154.4287 C   0  0  0  0  0  0  0  0  0  0  0  0
  146.1057  135.3881  153.9772 C   0  0  0  0  0  0  0  0  0  0  0  0
  144.9570  135.5891  153.1633 O   0  0  0  0  0  0  0  0  0  0  0  0
  145.2625  136.3248  151.9855 C   0  0  0  0  0  0  0  0  0  0  0  0
  145.7940  137.7164  152.3693 C   0  0  0  0  0  0  0  0  0  0  0  0
  150.9691  144.0937  158.1092 C   0  0  0  0  0  0  0  0  0  0  0  0
  152.7927  145.6679  160.5561 H   0  0  0  0  0  0  0  0  0  0  0  0
  151.0465  145.7034  160.7245 H   0  0  0  0  0  0  0  0  0  0  0  0
  151.8138  146.5019  159.3635 H   0  0  0  0  0  0  0  0  0  0  0  0
  153.1694  142.8856  160.1703 H   0  0  0  0  0  0  0  0  0  0  0  0
  149.5787  141.8579  156.8446 H   0  0  0  0  0  0  0  0  0  0  0  0
  150.6348  142.7213  155.7500 H   0  0  0  0  0  0  0  0  0  0  0  0
  152.4273  140.9676  156.1776 H   0  0  0  0  0  0  0  0  0  0  0  0
  151.7345  140.0877  158.3647 H   0  0  0  0  0  0  0  0  0  0  0  0
  151.7637  138.7827  157.1960 H   0  0  0  0  0  0  0  0  0  0  0  0
  150.2244  139.4858  157.6858 H   0  0  0  0  0  0  0  0  0  0  0  0
  151.2208  139.1584  155.0164 H   0  0  0  0  0  0  0  0  0  0  0  0
  148.9185  140.3358  155.8308 H   0  0  0  0  0  0  0  0  0  0  0  0
  149.1576  140.9292  154.2016 H   0  0  0  0  0  0  0  0  0  0  0  0
  148.8656  138.0611  155.1432 H   0  0  0  0  0  0  0  0  0  0  0  0
  149.4555  137.7276  152.8013 H   0  0  0  0  0  0  0  0  0  0  0  0
  146.8454  139.4653  154.2151 H   0  0  0  0  0  0  0  0  0  0  0  0
  147.7072  139.5083  152.7007 H   0  0  0  0  0  0  0  0  0  0  0  0
  147.5531  136.5881  155.0361 H   0  0  0  0  0  0  0  0  0  0  0  0
  145.9333  137.2567  155.0607 H   0  0  0  0  0  0  0  0  0  0  0  0
  146.8594  134.8189  153.4308 H   0  0  0  0  0  0  0  0  0  0  0  0
  145.8234  134.7913  154.8447 H   0  0  0  0  0  0  0  0  0  0  0  0
  145.9905  135.7818  151.3806 H   0  0  0  0  0  0  0  0  0  0  0  0
  144.3579  136.4207  151.3849 H   0  0  0  0  0  0  0  0  0  0  0  0
  145.0156  138.2873  152.8781 H   0  0  0  0  0  0  0  0  0  0  0  0
  146.0584  138.2674  151.4659 H   0  0  0  0  0  0  0  0  0  0  0  0
  150.2670  144.7215  157.5807 H   0  0  0  0  0  0  0  0  0  0  0  0
  147.6832  137.1080  152.7145 H   0  0  0  0  0  0  0  0  0  0  0  0
  1  2  1  0  0  0  0
  1 21  1  0  0  0  0
  1 22  1  0  0  0  0
  1 23  1  0  0  0  0
  2 20  2  0  0  0  0
  2  3  1  0  0  0  0
  3  4  2  0  0  0  0
  3 24  1  0  0  0  0
  4  5  1  0  0  0  0
  5  6  1  0  0  0  0
  5 20  1  0  0  0  0
  6  7  1  0  0  0  0
  6 25  1  0  0  0  0
  6 26  1  0  0  0  0
  7  8  1  0  0  0  0
  7  9  1  0  0  0  0
  7 27  1  0  0  0  0
  8 28  1  0  0  0  0
  8 29  1  0  0  0  0
  8 30  1  0  0  0  0
  9 10  1  0  0  0  0
  9 31  1  0  0  0  0
 10 11  1  0  0  0  0
 10 32  1  0  0  0  0
 10 33  1  0  0  0  0
 11 12  1  0  0  0  0
 11 13  1  0  0  0  0
 11 34  1  0  0  0  0
 12 35  1  0  0  0  0
 13 14  1  0  0  0  0
 13 36  1  0  0  0  0
 13 37  1  0  0  0  0
 14 19  1  0  0  0  0
 14 15  1  0  0  0  0
 14 47  1  0  0  0  0
 15 16  1  0  0  0  0
 15 38  1  0  0  0  0
 15 39  1  0  0  0  0
 16 17  1  0  0  0  0
 16 40  1  0  0  0  0
 16 41  1  0  0  0  0
 17 18  1  0  0  0  0
 18 19  1  0  0  0  0
 18 42  1  0  0  0  0
 18 43  1  0  0  0  0
 19 44  1  0  0  0  0
 19 45  1  0  0  0  0
 20 46  1  0  0  0  0
M  CHG  1  14   1
M  END
> <s_m_source_file>
AV-unprocessed.smi

> <i_m_source_file_index>
3031

> <i_lp_mmshare_version>
43012

> <i_f3d_flags>
0

> <s_epik_input>
W0NIM11jMVtjSF1ubihbY0hdMSlbQ0gyXVtDQEhdKFtDSDNdKVtOSF1bQ0gyXVtDQEhdKFtPSF0pW0NIMl1OMltDSDJdW0NIMl1PW0NIMl1bQ0gyXTI=

> <s_epik_cmdline>
J2VwaWtfcHl0aG9uJywgJy1waCcsICc3LjAnLCAnLXRuJywgJzgnLCAnLW1hJywgJzIwMCcsICctbWV0YWxfYmluZGluZycsICctaW1hZScsICc8aW5maWxlLm1hZT4nLCAnLW9tYWUnLCAnPG91dGZpbGUubWFlPic=

> <r_epik_Ionization_Penalty>
0.467051

> <r_epik_Ionization_Penalty_Charging>
0.202493

> <r_epik_Ionization_Penalty_Neutral>
0.264558

> <r_epik_State_Penalty>
1.34287

> <r_epik_Charging_Adjusted_Penalty>
1.54537

> <i_epik_Tot_Q>
1

> <i_epik_Tot_abs_Q>
1

> <r_epik_Metal_State_Penalty>
1.34281

> <b_epik_Metal_Only>
0

> <s_lp_Force_Field>
OPLS_2005

> <r_lp_Energy>
23.2864

> <b_lp_Chiralities_Consistent>
1

> <s_lp_Variant>
AV-unprocessed.smi:3031-6

> <Gold.Version>
5.8.1

> <Gold.Id.Protein>
6NUR|6NUR_protein|mol2

> <Gold.PLP.Fitness>
54.7803

> <Gold.PLP.PLP>
-41.4145

> <Gold.PLP.part.hbond>
-4.3944

> <Gold.PLP.part.metal>
0.0000

> <Gold.PLP.part.buried>
-4.1844

> <Gold.PLP.part.nonpolar>
-34.1488

> <Gold.PLP.part.repulsive>
0.1061

> <Gold.PLP.ligand.clash>
0.0000

> <Gold.PLP.ligand.torsion>
0.9552

> <Gold.PLP.Chemscore.Hbond>
4.0000

> <Gold.PLP.Chemscore.CHOScore>
1.0293

> <Gold.PLP.Chemscore.Metal>
0.0000

> <Gold.Chemscore.Hbonds>
donor molecule, donor type, donor heavy atom, donor atom, acceptor molecule, acceptor atom, score
      L1  H    12    35       P1  7948  1.00
      L1  H    14    47       P1  7948  2.00
      P1  H  7989  7998       L1     9  1.00
      L1  C    20    46       P1  8028  0.91
      L1  C    20    46       P1  8029  0.09

> <Gold.PLP.Chemscore.Internal.Correction>
0.1880

> <Gold.Rescore>
     Score         DG    S(hbond)    S(metal)    S(lipo)     H(rot)  DE(clash)    DE(int)     intcor
     15.05     -17.77       2.06        0.00     104.29       2.65       0.28       2.44       ----

> <Gold.Chemscore.Fitness>
15.0511

> <Gold.Chemscore.DG>
-17.7723

> <Gold.Chemscore.ZeroCoef>
-5.4800

> <Gold.Chemscore.Hbond>
2.0597

> <Gold.Chemscore.Metal>
0.0000

> <Gold.Chemscore.Lipo>
104.2935

> <Gold.Chemscore.Internal_Hbond>
0.0000

> <Gold.Chemscore.DEClash>
0.2809

> <Gold.Chemscore.DEInternal>
2.4403

> <Gold.Chemscore.Rot>
2.6521

> <Gold.Chemscore.Internal.Correction>
   9.000000E+99

> <Gold.Chemscore.Hbonds>
donor molecule, donor type, donor heavy atom, donor atom, acceptor molecule, acceptor atom, score
      L1  H    12    35       P1  7948  0.82
      L1  H    14    47       P1  7948  1.00
      P1  H  7989  7998       L1     9  0.15

> <Gold.Chemscore.Hbond.Weighted>
-6.8793

> <Gold.Chemscore.Metal.Weighted>
-0.0000

> <Gold.Chemscore.Lipo.Weighted>
-12.2023

> <Gold.Chemscore.Internal_Hbond.Weighted>
0.0000

> <Gold.Chemscore.DEClash.Weighted>
0.2809

> <Gold.Chemscore.DEInternal.Weighted>
2.4403

> <Gold.Chemscore.Rot.Weighted>
6.7894

> <Gold.Chemscore.Internal.Correction.Weighted>
   9.000000E+99

> <Gold.Protein.RotatedTorsions>
[ 6907 6896 6895 6894 ] final   60.87 input  -60.11 | X-H torsion
[ 7974 7965 7964 7962 ] final  146.72 input  175.53 | X-H torsion
[ 8008 7997 7996 7995 ] final -174.29 input   59.86 | X-H torsion
[ 10167 10162 10161 10158 ] final  159.53 input  -65.29 | X-H torsion
[ 10718 10713 10712 10709 ] final   82.15 input   66.30 | X-H torsion
[ 10763 10752 10751 10750 ] final -138.53 input  -60.55 | X-H torsion
[ 11005 11000 10999 10996 ] final   70.72 input  -57.11 | X-H torsion

> <Gold.Protein.ActiveResidues>
 VAL166  LYS551  ARG553  GLY616  TRP617  ASP618  TYR619  PRO620  LYS621  CYS622 
 ASP623  PHE694  ASN695  SER759  ASP760  ASP761  ALA762  ILE779  LEU786  VAL792 
 PHE793  MET794  SER795  GLU796  ALA797  LYS798  CYS799  TRP800  GLU811  SER814 

> <Gold.Protein.RotatedAtoms>
  152.4040  134.6237  160.0057 H   0  0  0  0  0  0  0  0  0  0  0  0  # atno 6907 bound_to 6896
  151.6434  133.3319  159.3143 H   0  0  0  0  0  0  0  0  0  0  0  0  # atno 6908 bound_to 6896
  150.7937  134.7023  159.6602 H   0  0  0  0  0  0  0  0  0  0  0  0  # atno 6909 bound_to 6896
  144.8648  139.5940  143.5914 H   0  0  0  0  0  0  0  0  0  0  0  0  # atno 7974 bound_to 7965
  155.9683  140.1158  157.0835 H   0  0  0  0  0  0  0  0  0  0  0  0  # atno 8008 bound_to 7997
  154.4149  140.1168  156.5339 H   0  0  0  0  0  0  0  0  0  0  0  0  # atno 8009 bound_to 7997
  155.6630  140.3473  155.4792 H   0  0  0  0  0  0  0  0  0  0  0  0  # atno 8010 bound_to 7997
  139.4833  144.4721  151.8561 H   0  0  0  0  0  0  0  0  0  0  0  0  # atno 10167 bound_to 10162
  157.6850  131.0035  150.2332 H   0  0  0  0  0  0  0  0  0  0  0  0  # atno 10718 bound_to 10713
  154.8634  135.3609  154.5400 H   0  0  0  0  0  0  0  0  0  0  0  0  # atno 10763 bound_to 10752
  153.6022  135.7012  153.5384 H   0  0  0  0  0  0  0  0  0  0  0  0  # atno 10764 bound_to 10752
  153.3281  135.4132  155.1434 H   0  0  0  0  0  0  0  0  0  0  0  0  # atno 10765 bound_to 10752
  139.9582  134.7107  156.0705 H   0  0  0  0  0  0  0  0  0  0  0  0  # atno 11005 bound_to 11000
  146.2887  139.7078  142.9176 LP  0  0  0  0  0  0  0  0  0  0  0  0  # atno 17320 bound_to 7965
  145.4242  141.0409  143.2946 LP  0  0  0  0  0  0  0  0  0  0  0  0  # atno 17321 bound_to 7965
  140.4191  144.2267  150.5887 LP  0  0  0  0  0  0  0  0  0  0  0  0  # atno 17342 bound_to 10162
  140.4892  143.2353  151.8844 LP  0  0  0  0  0  0  0  0  0  0  0  0  # atno 17343 bound_to 10162
  156.2961  130.3752  149.7795 LP  0  0  0  0  0  0  0  0  0  0  0  0  # atno 17370 bound_to 10713
  156.5439  130.8312  151.3278 LP  0  0  0  0  0  0  0  0  0  0  0  0  # atno 17371 bound_to 10713
  141.1256  133.6600  156.3328 LP  0  0  0  0  0  0  0  0  0  0  0  0  # atno 17394 bound_to 11000
  140.5561  134.5980  157.5421 LP  0  0  0  0  0  0  0  0  0  0  0  0  # atno 17395 bound_to 11000

$$$$
