AV-unprocessed.smi:1888|AV-procd|sdf|7658|dock8
  -GOLD-   22720 9393D 1   1.00000     0.00000
 Structure written by MMmdl.
 43 45  0  0  0  0  0  0  0  0  2 V2000
  148.2085  141.3972  153.7869 C   0  0  0  0  0  0  0  0  0  0  0  0
  148.7433  141.2285  155.2108 C   0  0  0  0  0  0  0  0  0  0  0  0
  148.3935  139.9387  155.6830 O   0  0  0  0  0  0  0  0  0  0  0  0
  148.8217  139.7106  157.0149 C   0  0  0  0  0  0  0  0  0  0  0  0
  148.9910  138.2009  157.2275 C   0  0  0  0  0  0  0  0  0  0  0  0
  150.0885  137.9008  158.1409 N   0  0  0  0  0  0  0  0  0  0  0  0
  150.0212  137.2560  159.3335 C   0  0  0  0  0  0  0  0  0  0  0  0
  148.7945  136.7829  159.8457 N   0  0  0  0  0  0  0  0  0  0  0  0
  148.3262  137.2463  161.0250 N   0  0  0  0  0  0  0  0  0  0  0  0
  147.1812  136.6108  161.2096 C   0  0  0  0  0  0  0  0  0  0  0  0
  146.3699  136.8965  162.4385 C   0  0  0  0  0  0  0  0  0  0  0  0
  146.8900  135.7066  160.1501 C   0  0  0  0  0  0  0  0  0  0  0  0
  147.9468  135.8400  159.2940 C   0  0  0  0  0  0  0  0  0  0  0  0
  148.2286  135.1629  157.9929 C   0  0  0  0  0  0  0  0  0  0  0  0
  151.1915  137.0931  159.9536 N   0  0  0  0  0  0  0  0  0  0  0  0
  152.0833  137.7026  159.0818 C   0  0  0  0  0  0  0  0  0  0  0  0
  151.4448  138.1979  157.9872 C   0  0  0  0  0  0  0  0  0  0  0  0
  152.1275  138.9032  156.8816 C   0  0  0  0  0  0  0  0  0  0  0  0
  151.4959  139.3338  155.9190 O   0  0  0  0  0  0  0  0  0  0  0  0
  153.4796  138.9963  157.0865 N   0  5  0  0  0  0  0  0  0  0  0  0
  154.1696  138.5087  158.1761 C   0  0  0  0  0  0  0  0  0  0  0  0
  155.3902  138.6357  158.2825 O   0  0  0  0  0  0  0  0  0  0  0  0
  153.4930  137.8618  159.1774 N   0  0  0  0  0  0  0  0  0  0  0  0
  154.2012  137.3310  160.3457 C   0  0  0  0  0  0  0  0  0  0  0  0
  148.4557  142.3829  153.3923 H   0  0  0  0  0  0  0  0  0  0  0  0
  147.1240  141.2881  153.7608 H   0  0  0  0  0  0  0  0  0  0  0  0
  148.6376  140.6511  153.1177 H   0  0  0  0  0  0  0  0  0  0  0  0
  149.8275  141.3517  155.2179 H   0  0  0  0  0  0  0  0  0  0  0  0
  148.3187  141.9947  155.8611 H   0  0  0  0  0  0  0  0  0  0  0  0
  149.7637  140.2288  157.1991 H   0  0  0  0  0  0  0  0  0  0  0  0
  148.0866  140.1102  157.7146 H   0  0  0  0  0  0  0  0  0  0  0  0
  148.0679  137.7742  157.6203 H   0  0  0  0  0  0  0  0  0  0  0  0
  149.1659  137.6934  156.2793 H   0  0  0  0  0  0  0  0  0  0  0  0
  145.4189  136.3641  162.4154 H   0  0  0  0  0  0  0  0  0  0  0  0
  146.1513  137.9611  162.5266 H   0  0  0  0  0  0  0  0  0  0  0  0
  146.9012  136.5886  163.3392 H   0  0  0  0  0  0  0  0  0  0  0  0
  146.0335  135.0590  160.0356 H   0  0  0  0  0  0  0  0  0  0  0  0
  147.3779  134.5605  157.6744 H   0  0  0  0  0  0  0  0  0  0  0  0
  149.0938  134.5054  158.0787 H   0  0  0  0  0  0  0  0  0  0  0  0
  148.4344  135.8937  157.2105 H   0  0  0  0  0  0  0  0  0  0  0  0
  154.7112  138.1337  160.8792 H   0  0  0  0  0  0  0  0  0  0  0  0
  154.9469  136.5966  160.0388 H   0  0  0  0  0  0  0  0  0  0  0  0
  153.5353  136.8415  161.0557 H   0  0  0  0  0  0  0  0  0  0  0  0
  1  2  1  0  0  0  0
  1 25  1  0  0  0  0
  1 26  1  0  0  0  0
  1 27  1  0  0  0  0
  2  3  1  0  0  0  0
  2 28  1  0  0  0  0
  2 29  1  0  0  0  0
  3  4  1  0  0  0  0
  4  5  1  0  0  0  0
  4 30  1  0  0  0  0
  4 31  1  0  0  0  0
  5  6  1  0  0  0  0
  5 32  1  0  0  0  0
  5 33  1  0  0  0  0
  6 17  1  0  0  0  0
  6  7  1  0  0  0  0
  7  8  1  0  0  0  0
  7 15  2  0  0  0  0
  8 13  1  0  0  0  0
  8  9  1  0  0  0  0
  9 10  2  0  0  0  0
 10 11  1  0  0  0  0
 10 12  1  0  0  0  0
 11 34  1  0  0  0  0
 11 35  1  0  0  0  0
 11 36  1  0  0  0  0
 12 13  2  0  0  0  0
 12 37  1  0  0  0  0
 13 14  1  0  0  0  0
 14 38  1  0  0  0  0
 14 39  1  0  0  0  0
 14 40  1  0  0  0  0
 15 16  1  0  0  0  0
 16 23  1  0  0  0  0
 16 17  2  0  0  0  0
 17 18  1  0  0  0  0
 18 19  2  0  0  0  0
 18 20  1  0  0  0  0
 20 21  1  0  0  0  0
 21 22  2  0  0  0  0
 21 23  1  0  0  0  0
 23 24  1  0  0  0  0
 24 41  1  0  0  0  0
 24 42  1  0  0  0  0
 24 43  1  0  0  0  0
M  CHG  1  20  -1
M  END
> <s_m_source_file>
AV-unprocessed.smi

> <i_m_source_file_index>
1888

> <i_lp_mmshare_version>
43012

> <i_f3d_flags>
0

> <s_epik_input>
W0NIM11uMWMoPU8pW25IXWMoPU8pYyhjMTIpbihbQ0gyXVtDSDJdT1tDSDJdW0NIM10pYyhuMiktbjNuYyhbQ0gzXSlbY0hdYzNbQ0gzXQ==

> <s_epik_cmdline>
J2VwaWtfcHl0aG9uJywgJy1waCcsICc3LjAnLCAnLXRuJywgJzgnLCAnLW1hJywgJzIwMCcsICctbWV0YWxfYmluZGluZycsICctaW1hZScsICc8aW5maWxlLm1hZT4nLCAnLW9tYWUnLCAnPG91dGZpbGUubWFlPic=

> <r_lp_tautomer_probability>
1

> <r_epik_Ionization_Penalty>
3.99912

> <r_epik_Ionization_Penalty_Charging>
0.0169474

> <r_epik_Ionization_Penalty_Neutral>
3.98217

> <r_epik_State_Penalty>
3.98062

> <r_epik_Charging_Adjusted_Penalty>
3.99756

> <i_epik_Tot_Q>
-1

> <i_epik_Tot_abs_Q>
1

> <r_epik_Metal_State_Penalty>
0.61592

> <b_epik_Metal_Only>
1

> <s_lp_Force_Field>
OPLS_2005

> <r_lp_Energy>
30.4579

> <b_lp_Chiralities_Consistent>
1

> <s_lp_Variant>
AV-unprocessed.smi:1888-2

> <Gold.Version>
5.8.1

> <Gold.Id.Protein>
6NUR|6NUR_protein|mol2

> <Gold.PLP.Fitness>
40.4089

> <Gold.PLP.PLP>
-27.7698

> <Gold.PLP.part.hbond>
-5.4164

> <Gold.PLP.part.metal>
0.0000

> <Gold.PLP.part.buried>
-2.9133

> <Gold.PLP.part.nonpolar>
-20.0860

> <Gold.PLP.part.repulsive>
0.0096

> <Gold.PLP.ligand.clash>
0.0000

> <Gold.PLP.ligand.torsion>
1.5340

> <Gold.PLP.Chemscore.Hbond>
5.0544

> <Gold.PLP.Chemscore.CHOScore>
0.0000

> <Gold.PLP.Chemscore.Metal>
0.0000

> <Gold.Chemscore.Hbonds>
donor molecule, donor type, donor heavy atom, donor atom, acceptor molecule, acceptor atom, score
      P1  H  6896  6908       L1    15  0.75
      P1  H  6931  6943       L1     9  0.90
      P1  H  6934  6947       L1     9  0.18
      P1  H  7997  8008       L1    20  1.79
      P1  H  7997  8010       L1    22  0.53

> <Gold.PLP.Chemscore.Internal.Correction>
0.5439

> <Gold.Rescore>
     Score         DG    S(hbond)    S(metal)    S(lipo)     H(rot)  DE(clash)    DE(int)     intcor
     12.79     -14.49       2.47        0.00      42.86       1.67       0.10       1.59       ----

> <Gold.Chemscore.Fitness>
12.7930

> <Gold.Chemscore.DG>
-14.4900

> <Gold.Chemscore.ZeroCoef>
-5.4800

> <Gold.Chemscore.Hbond>
2.4744

> <Gold.Chemscore.Metal>
0.0000

> <Gold.Chemscore.Lipo>
42.8584

> <Gold.Chemscore.Internal_Hbond>
0.0000

> <Gold.Chemscore.DEClash>
0.1023

> <Gold.Chemscore.DEInternal>
1.5947

> <Gold.Chemscore.Rot>
1.6675

> <Gold.Chemscore.Internal.Correction>
   9.000000E+99

> <Gold.Chemscore.Hbonds>
donor molecule, donor type, donor heavy atom, donor atom, acceptor molecule, acceptor atom, score
      P1  H  6896  6908       L1    15  0.08
      P1  H  6931  6943       L1     9  0.83
      P1  H  7997  8008       L1    20  0.45
      P1  H  7997  8010       L1    22  0.33

> <Gold.Chemscore.Hbond.Weighted>
-8.2645

> <Gold.Chemscore.Metal.Weighted>
-0.0000

> <Gold.Chemscore.Lipo.Weighted>
-5.0144

> <Gold.Chemscore.Internal_Hbond.Weighted>
0.0000

> <Gold.Chemscore.DEClash.Weighted>
0.1023

> <Gold.Chemscore.DEInternal.Weighted>
1.5947

> <Gold.Chemscore.Rot.Weighted>
4.2689

> <Gold.Chemscore.Internal.Correction.Weighted>
   9.000000E+99

> <Gold.Protein.RotatedTorsions>
[ 6907 6896 6895 6894 ] final -146.10 input  -60.11 | X-H torsion
[ 7974 7965 7964 7962 ] final -117.48 input  175.53 | X-H torsion
[ 8008 7997 7996 7995 ] final  -48.74 input   59.86 | X-H torsion
[ 10167 10162 10161 10158 ] final  -73.88 input  -65.29 | X-H torsion
[ 10718 10713 10712 10709 ] final -173.99 input   66.30 | X-H torsion
[ 10763 10752 10751 10750 ] final  162.62 input  -60.55 | X-H torsion
[ 11005 11000 10999 10996 ] final -123.85 input  -57.11 | X-H torsion

> <Gold.Protein.ActiveResidues>
 VAL166  LYS551  ARG553  GLY616  TRP617  ASP618  TYR619  PRO620  LYS621  CYS622 
 ASP623  PHE694  ASN695  SER759  ASP760  ASP761  ALA762  ILE779  LEU786  VAL792 
 PHE793  MET794  SER795  GLU796  ALA797  LYS798  CYS799  TRP800  GLU811  SER814 

> <Gold.Protein.RotatedAtoms>
  151.1369  133.4998  159.2597 H   0  0  0  0  0  0  0  0  0  0  0  0  # atno 6907 bound_to 6896
  151.1697  135.0311  159.8756 H   0  0  0  0  0  0  0  0  0  0  0  0  # atno 6908 bound_to 6896
  152.5461  134.1234  159.8462 H   0  0  0  0  0  0  0  0  0  0  0  0  # atno 6909 bound_to 6896
  145.0847  140.8449  143.4018 H   0  0  0  0  0  0  0  0  0  0  0  0  # atno 7974 bound_to 7965
  154.4033  140.1314  156.4388 H   0  0  0  0  0  0  0  0  0  0  0  0  # atno 8008 bound_to 7997
  155.7479  140.3488  155.5116 H   0  0  0  0  0  0  0  0  0  0  0  0  # atno 8009 bound_to 7997
  155.8977  140.1014  157.1363 H   0  0  0  0  0  0  0  0  0  0  0  0  # atno 8010 bound_to 7997
  140.5073  143.2350  151.7652 H   0  0  0  0  0  0  0  0  0  0  0  0  # atno 10167 bound_to 10162
  156.7784  130.9474  151.3120 H   0  0  0  0  0  0  0  0  0  0  0  0  # atno 10718 bound_to 10713
  154.2811  135.2763  155.2696 H   0  0  0  0  0  0  0  0  0  0  0  0  # atno 10763 bound_to 10752
  154.5217  135.5754  153.6690 H   0  0  0  0  0  0  0  0  0  0  0  0  # atno 10764 bound_to 10752
  152.9929  135.6206  154.2971 H   0  0  0  0  0  0  0  0  0  0  0  0  # atno 10765 bound_to 10752
  140.9887  134.0570  157.3681 H   0  0  0  0  0  0  0  0  0  0  0  0  # atno 11005 bound_to 11000
  145.1137  139.2740  143.5624 LP  0  0  0  0  0  0  0  0  0  0  0  0  # atno 17320 bound_to 7965
  146.3531  140.0740  142.8621 LP  0  0  0  0  0  0  0  0  0  0  0  0  # atno 17321 bound_to 7965
  139.4887  144.4439  151.9732 LP  0  0  0  0  0  0  0  0  0  0  0  0  # atno 17342 bound_to 10162
  140.3530  144.3065  150.5946 LP  0  0  0  0  0  0  0  0  0  0  0  0  # atno 17343 bound_to 10162
  157.6658  130.9006  149.9929 LP  0  0  0  0  0  0  0  0  0  0  0  0  # atno 17370 bound_to 10713
  156.1233  130.3645  149.9851 LP  0  0  0  0  0  0  0  0  0  0  0  0  # atno 17371 bound_to 10713
  139.8982  135.0153  156.7137 LP  0  0  0  0  0  0  0  0  0  0  0  0  # atno 17394 bound_to 11000
  140.7074  133.9253  155.8063 LP  0  0  0  0  0  0  0  0  0  0  0  0  # atno 17395 bound_to 11000

$$$$
