AV-unprocessed.smi:1005|AV-procd|sdf|4368|dock9
  -GOLD-   22720 2273D 1   1.00000     0.00000
 Structure written by MMmdl.
 57 59  0  0  0  0  0  0  0  0  3 V2000
  153.2616  142.8571  161.3466 C   0  0  0  0  0  0  0  0  0  0  0  0
  152.6272  142.5204  160.0086 C   0  0  0  0  0  0  0  0  0  0  0  0
  152.9200  141.2779  159.4026 C   0  0  0  0  0  0  0  0  0  0  0  0
  152.3514  140.9271  158.1587 C   0  0  0  0  0  0  0  0  0  0  0  0
  152.4985  139.7830  157.3932 N   0  0  0  0  0  0  0  0  0  0  0  0
  151.7192  140.0549  156.3512 C   0  0  0  0  0  0  0  0  0  0  0  0
  151.0859  141.2436  156.3480 N   0  0  0  0  0  0  0  0  0  0  0  0
  150.1943  141.7554  155.3223 C   0  0  0  0  0  0  0  0  0  0  0  0
  149.8165  140.6833  154.2822 C   0  0  2  0  0  0  0  0  0  0  0  0
  149.6474  141.2952  153.0180 O   0  0  0  0  0  0  0  0  0  0  0  0
  148.5057  139.9641  154.6569 C   0  0  0  0  0  0  0  0  0  0  0  0
  147.3259  140.5274  153.9460 N   0  3  2  0  0  0  0  0  0  0  0  0
  146.1304  140.6883  154.8084 C   0  0  0  0  0  0  0  0  0  0  0  0
  145.4107  139.3451  155.0154 C   0  0  0  0  0  0  0  0  0  0  0  0
  145.0606  138.8003  153.7487 O   0  0  0  0  0  0  0  0  0  0  0  0
  146.1981  138.5179  152.9396 C   0  0  1  0  0  0  0  0  0  0  0  0
  145.7001  137.8880  151.6246 C   0  0  0  0  0  0  0  0  0  0  0  0
  145.7773  136.4043  151.6269 N   0  3  0  0  0  0  0  0  0  0  0  0
  145.0271  135.7720  150.5167 C   0  0  0  0  0  0  0  0  0  0  0  0
  145.3911  135.8305  152.9354 C   0  0  0  0  0  0  0  0  0  0  0  0
  146.9672  139.8346  152.6811 C   0  0  0  0  0  0  0  0  0  0  0  0
  151.4740  141.8603  157.5329 C   0  0  0  0  0  0  0  0  0  0  0  0
  151.1752  143.0998  158.1256 C   0  0  0  0  0  0  0  0  0  0  0  0
  151.7521  143.4346  159.3686 C   0  0  0  0  0  0  0  0  0  0  0  0
  151.4234  144.7757  160.0005 C   0  0  0  0  0  0  0  0  0  0  0  0
  153.9030  142.0484  161.6983 H   0  0  0  0  0  0  0  0  0  0  0  0
  152.4937  143.0269  162.1016 H   0  0  0  0  0  0  0  0  0  0  0  0
  153.8724  143.7562  161.2646 H   0  0  0  0  0  0  0  0  0  0  0  0
  153.5866  140.5814  159.8899 H   0  0  0  0  0  0  0  0  0  0  0  0
  151.6037  139.3502  155.5405 H   0  0  0  0  0  0  0  0  0  0  0  0
  149.2975  142.1372  155.8121 H   0  0  0  0  0  0  0  0  0  0  0  0
  150.6710  142.6093  154.8389 H   0  0  0  0  0  0  0  0  0  0  0  0
  150.6365  139.9696  154.2074 H   0  0  0  0  0  0  0  0  0  0  0  0
  149.6142  140.6188  152.3576 H   0  0  0  0  0  0  0  0  0  0  0  0
  148.5885  138.8959  154.4573 H   0  0  0  0  0  0  0  0  0  0  0  0
  148.3635  140.0556  155.7349 H   0  0  0  0  0  0  0  0  0  0  0  0
  146.3997  141.1383  155.7647 H   0  0  0  0  0  0  0  0  0  0  0  0
  145.4496  141.3894  154.3235 H   0  0  0  0  0  0  0  0  0  0  0  0
  146.0319  138.6429  155.5735 H   0  0  0  0  0  0  0  0  0  0  0  0
  144.5008  139.4946  155.5969 H   0  0  0  0  0  0  0  0  0  0  0  0
  146.8483  137.8151  153.4596 H   0  0  0  0  0  0  0  0  0  0  0  0
  144.6647  138.1960  151.4705 H   0  0  0  0  0  0  0  0  0  0  0  0
  146.2640  138.2765  150.7751 H   0  0  0  0  0  0  0  0  0  0  0  0
  143.9643  136.0098  150.5773 H   0  0  0  0  0  0  0  0  0  0  0  0
  145.1324  134.6871  150.5529 H   0  0  0  0  0  0  0  0  0  0  0  0
  145.3952  136.0968  149.5443 H   0  0  0  0  0  0  0  0  0  0  0  0
  144.3506  136.0584  153.1711 H   0  0  0  0  0  0  0  0  0  0  0  0
  146.0183  136.2275  153.7345 H   0  0  0  0  0  0  0  0  0  0  0  0
  145.5112  134.7465  152.9331 H   0  0  0  0  0  0  0  0  0  0  0  0
  146.3392  140.5112  152.0996 H   0  0  0  0  0  0  0  0  0  0  0  0
  147.8528  139.6490  152.0741 H   0  0  0  0  0  0  0  0  0  0  0  0
  150.5087  143.7881  157.6273 H   0  0  0  0  0  0  0  0  0  0  0  0
  150.7328  145.3488  159.3811 H   0  0  0  0  0  0  0  0  0  0  0  0
  152.3290  145.3689  160.1290 H   0  0  0  0  0  0  0  0  0  0  0  0
  150.9589  144.6350  160.9767 H   0  0  0  0  0  0  0  0  0  0  0  0
  146.7510  136.1661  151.4982 H   0  0  0  0  0  0  0  0  0  0  0  0
  147.6074  141.4650  153.6941 H   0  0  0  0  0  0  0  0  0  0  0  0
  1  2  1  0  0  0  0
  1 26  1  0  0  0  0
  1 27  1  0  0  0  0
  1 28  1  0  0  0  0
  2 24  1  0  0  0  0
  2  3  2  0  0  0  0
  3  4  1  0  0  0  0
  3 29  1  0  0  0  0
  4 22  2  0  0  0  0
  4  5  1  0  0  0  0
  5  6  2  0  0  0  0
  6  7  1  0  0  0  0
  6 30  1  0  0  0  0
  7  8  1  0  0  0  0
  7 22  1  0  0  0  0
  8  9  1  0  0  0  0
  8 31  1  0  0  0  0
  8 32  1  0  0  0  0
  9 10  1  0  0  0  0
  9 11  1  0  0  0  0
  9 33  1  0  0  0  0
 10 34  1  0  0  0  0
 11 12  1  0  0  0  0
 11 35  1  0  0  0  0
 11 36  1  0  0  0  0
 12 21  1  0  0  0  0
 12 13  1  0  0  0  0
 12 57  1  0  0  0  0
 13 14  1  0  0  0  0
 13 37  1  0  0  0  0
 13 38  1  0  0  0  0
 14 15  1  0  0  0  0
 14 39  1  0  0  0  0
 14 40  1  0  0  0  0
 15 16  1  0  0  0  0
 16 17  1  0  0  0  0
 16 21  1  0  0  0  0
 16 41  1  0  0  0  0
 17 18  1  0  0  0  0
 17 42  1  0  0  0  0
 17 43  1  0  0  0  0
 18 19  1  0  0  0  0
 18 20  1  0  0  0  0
 18 56  1  0  0  0  0
 19 44  1  0  0  0  0
 19 45  1  0  0  0  0
 19 46  1  0  0  0  0
 20 47  1  0  0  0  0
 20 48  1  0  0  0  0
 20 49  1  0  0  0  0
 21 50  1  0  0  0  0
 21 51  1  0  0  0  0
 22 23  1  0  0  0  0
 23 24  2  0  0  0  0
 23 52  1  0  0  0  0
 24 25  1  0  0  0  0
 25 53  1  0  0  0  0
 25 54  1  0  0  0  0
 25 55  1  0  0  0  0
M  CHG  1  12   1
M  CHG  1  18   1
M  END
> <s_m_source_file>
AV-unprocessed.smi

> <i_m_source_file_index>
1005

> <i_lp_mmshare_version>
43012

> <i_f3d_flags>
0

> <s_epik_input>
W0NIM11jKFtjSF0xKWMoW0NIM10pW2NIXWMoYzEyKW4oW2NIXW4yKVtDSDJdW0NASF0oW09IXSlbQ0gyXU4zW0NIMl1bQ0gyXU9bQ0BIXShbQ0gyXTMpW0NIMl1OKFtDSDNdKVtDSDNd

> <s_epik_cmdline>
J2VwaWtfcHl0aG9uJywgJy1waCcsICc3LjAnLCAnLXRuJywgJzgnLCAnLW1hJywgJzIwMCcsICctbWV0YWxfYmluZGluZycsICctaW1hZScsICc8aW5maWxlLm1hZT4nLCAnLW9tYWUnLCAnPG91dGZpbGUubWFlPic=

> <r_epik_Ionization_Penalty>
1.0968

> <r_epik_Ionization_Penalty_Charging>
1.0096

> <r_epik_Ionization_Penalty_Neutral>
0.0871956

> <r_epik_State_Penalty>
1.31185

> <r_epik_Charging_Adjusted_Penalty>
2.32145

> <i_epik_Tot_Q>
2

> <i_epik_Tot_abs_Q>
2

> <r_epik_Metal_State_Penalty>
1.22442

> <b_epik_Metal_Only>
0

> <s_lp_Force_Field>
OPLS_2005

> <r_lp_Energy>
35.7023

> <b_lp_Chiralities_Consistent>
1

> <s_lp_Variant>
AV-unprocessed.smi:1005-7

> <Gold.Version>
5.8.1

> <Gold.Id.Protein>
6NUR|6NUR_protein|mol2

> <Gold.PLP.Fitness>
56.4889

> <Gold.PLP.PLP>
-46.3045

> <Gold.PLP.part.hbond>
-4.3286

> <Gold.PLP.part.metal>
0.0000

> <Gold.PLP.part.buried>
-3.9260

> <Gold.PLP.part.nonpolar>
-38.4496

> <Gold.PLP.part.repulsive>
0.1771

> <Gold.PLP.ligand.clash>
0.0000

> <Gold.PLP.ligand.torsion>
2.2312

> <Gold.PLP.Chemscore.Hbond>
4.8382

> <Gold.PLP.Chemscore.CHOScore>
0.0000

> <Gold.PLP.Chemscore.Metal>
0.0000

> <Gold.Chemscore.Hbonds>
donor molecule, donor type, donor heavy atom, donor atom, acceptor molecule, acceptor atom, score
      L1  H    10    34       P1  7957  0.47
      L1  H    18    56       P1  7948  1.17
      P1  H  7997  8010       L1     5  0.93
      P1  H  8011  8017       L1    10  0.47

> <Gold.PLP.Chemscore.Internal.Correction>
0.1321

> <Gold.Rescore>
     Score         DG    S(hbond)    S(metal)    S(lipo)     H(rot)  DE(clash)    DE(int)     intcor
     19.97     -22.50       2.79        0.00     120.21       2.48       0.07       2.45       ----

> <Gold.Chemscore.Fitness>
19.9740

> <Gold.Chemscore.DG>
-22.4960

> <Gold.Chemscore.ZeroCoef>
-5.4800

> <Gold.Chemscore.Hbond>
2.7856

> <Gold.Chemscore.Metal>
0.0000

> <Gold.Chemscore.Lipo>
120.2102

> <Gold.Chemscore.Internal_Hbond>
0.0000

> <Gold.Chemscore.DEClash>
0.0674

> <Gold.Chemscore.DEInternal>
2.4545

> <Gold.Chemscore.Rot>
2.4814

> <Gold.Chemscore.Internal.Correction>
   9.000000E+99

> <Gold.Chemscore.Hbonds>
donor molecule, donor type, donor heavy atom, donor atom, acceptor molecule, acceptor atom, score
      L1  H    10    34       P1  7957  0.47
      L1  H    18    56       P1  7948  0.58
      P1  H  7997  8010       L1     5  0.10
      P1  H  8011  8017       L1    10  0.20

> <Gold.Chemscore.Hbond.Weighted>
-9.3037

> <Gold.Chemscore.Metal.Weighted>
-0.0000

> <Gold.Chemscore.Lipo.Weighted>
-14.0646

> <Gold.Chemscore.Internal_Hbond.Weighted>
0.0000

> <Gold.Chemscore.DEClash.Weighted>
0.0674

> <Gold.Chemscore.DEInternal.Weighted>
2.4545

> <Gold.Chemscore.Rot.Weighted>
6.3524

> <Gold.Chemscore.Internal.Correction.Weighted>
   9.000000E+99

> <Gold.Protein.RotatedTorsions>
[ 6907 6896 6895 6894 ] final  -43.10 input  -60.11 | X-H torsion
[ 7974 7965 7964 7962 ] final   58.33 input  175.53 | X-H torsion
[ 8008 7997 7996 7995 ] final   54.50 input   59.86 | X-H torsion
[ 10167 10162 10161 10158 ] final   75.61 input  -65.29 | X-H torsion
[ 10718 10713 10712 10709 ] final   35.75 input   66.30 | X-H torsion
[ 10763 10752 10751 10750 ] final  118.58 input  -60.55 | X-H torsion
[ 11005 11000 10999 10996 ] final  117.13 input  -57.11 | X-H torsion

> <Gold.Protein.ActiveResidues>
 VAL166  LYS551  ARG553  GLY616  TRP617  ASP618  TYR619  PRO620  LYS621  CYS622 
 ASP623  PHE694  ASN695  SER759  ASP760  ASP761  ALA762  ILE779  LEU786  VAL792 
 PHE793  MET794  SER795  GLU796  ALA797  LYS798  CYS799  TRP800  GLU811  SER814 

> <Gold.Protein.RotatedAtoms>
  150.9477  134.8881  159.7652 H   0  0  0  0  0  0  0  0  0  0  0  0  # atno 6907 bound_to 6896
  152.5107  134.3850  159.9374 H   0  0  0  0  0  0  0  0  0  0  0  0  # atno 6908 bound_to 6896
  151.3868  133.3762  159.2751 H   0  0  0  0  0  0  0  0  0  0  0  0  # atno 6909 bound_to 6896
  145.9193  139.3716  143.0488 H   0  0  0  0  0  0  0  0  0  0  0  0  # atno 7974 bound_to 7965
  155.4858  140.3470  155.4347 H   0  0  0  0  0  0  0  0  0  0  0  0  # atno 8008 bound_to 7997
  156.1009  140.1435  156.9496 H   0  0  0  0  0  0  0  0  0  0  0  0  # atno 8009 bound_to 7997
  154.4693  140.0906  156.7082 H   0  0  0  0  0  0  0  0  0  0  0  0  # atno 8010 bound_to 7997
  140.0011  144.5685  150.7736 H   0  0  0  0  0  0  0  0  0  0  0  0  # atno 10167 bound_to 10162
  157.3265  130.7475  149.6819 H   0  0  0  0  0  0  0  0  0  0  0  0  # atno 10718 bound_to 10713
  153.5699  135.3504  155.2833 H   0  0  0  0  0  0  0  0  0  0  0  0  # atno 10763 bound_to 10752
  154.8683  135.4157  154.2737 H   0  0  0  0  0  0  0  0  0  0  0  0  # atno 10764 bound_to 10752
  153.3501  135.7054  153.6865 H   0  0  0  0  0  0  0  0  0  0  0  0  # atno 10765 bound_to 10752
  139.9064  134.9606  156.7304 H   0  0  0  0  0  0  0  0  0  0  0  0  # atno 11005 bound_to 11000
  145.8570  140.9496  143.0719 LP  0  0  0  0  0  0  0  0  0  0  0  0  # atno 17320 bound_to 7965
  144.6751  140.0481  143.7479 LP  0  0  0  0  0  0  0  0  0  0  0  0  # atno 17321 bound_to 7965
  140.7418  143.2823  151.3562 LP  0  0  0  0  0  0  0  0  0  0  0  0  # atno 17342 bound_to 10162
  139.6271  144.0793  152.2444 LP  0  0  0  0  0  0  0  0  0  0  0  0  # atno 17343 bound_to 10162
  155.9691  130.4208  150.4438 LP  0  0  0  0  0  0  0  0  0  0  0  0  # atno 17370 bound_to 10713
  157.2463  131.0536  151.2406 LP  0  0  0  0  0  0  0  0  0  0  0  0  # atno 17371 bound_to 10713
  140.6930  133.9373  155.7977 LP  0  0  0  0  0  0  0  0  0  0  0  0  # atno 17394 bound_to 11000
  141.0428  134.0597  157.3881 LP  0  0  0  0  0  0  0  0  0  0  0  0  # atno 17395 bound_to 11000

$$$$
