AV-unprocessed.smi:3116|AV-procd|sdf|11867|dock3
  -GOLD-   2272017253D 1   1.00000     0.00000
 Structure written by MMmdl.
 34 34  0  0  0  0  0  0  0  0  2 V2000
  151.8483  138.1343  154.3730 C   0  0  0  0  0  0  0  0  0  0  0  0
  150.3593  137.9456  154.6978 C   0  0  1  0  0  0  0  0  0  0  0  0
  149.5341  138.5068  153.6018 N   0  3  0  0  0  0  0  0  0  0  0  0
  148.3388  139.2816  154.0193 C   0  0  2  0  0  0  0  0  0  0  0  0
  147.1918  138.9726  153.0422 C   0  0  0  0  0  0  0  0  0  0  0  0
  148.6696  140.7978  154.0877 C   0  0  1  0  0  0  0  0  0  0  0  0
  147.4173  141.6883  154.2035 C   0  0  0  0  0  0  0  0  0  0  0  0
  149.5937  141.0998  155.1752 N   0  0  0  0  0  0  0  0  0  0  0  0
  149.3662  141.8690  156.2982 C   0  0  0  0  0  0  0  0  0  0  0  0
  150.5207  141.8806  157.0268 C   0  0  0  0  0  0  0  0  0  0  0  0
  151.4108  141.0757  156.2633 C   0  0  0  0  0  0  0  0  0  0  0  0
  150.8546  140.6114  155.1562 N   0  0  0  0  0  0  0  0  0  0  0  0
  150.0525  136.4600  154.9330 C   0  0  0  0  0  0  0  0  0  0  0  0
  148.7778  136.1295  155.1548 N   0  0  0  0  0  0  0  0  0  0  0  0
  150.9536  135.6232  154.9278 O   0  0  0  0  0  0  0  0  0  0  0  0
  152.4811  137.7520  155.1750 H   0  0  0  0  0  0  0  0  0  0  0  0
  152.0877  139.1908  154.2466 H   0  0  0  0  0  0  0  0  0  0  0  0
  152.1281  137.6185  153.4533 H   0  0  0  0  0  0  0  0  0  0  0  0
  150.1486  138.4989  155.6133 H   0  0  0  0  0  0  0  0  0  0  0  0
  150.1169  139.1216  153.0526 H   0  0  0  0  0  0  0  0  0  0  0  0
  148.0186  138.9478  155.0078 H   0  0  0  0  0  0  0  0  0  0  0  0
  146.2527  139.4194  153.3677 H   0  0  0  0  0  0  0  0  0  0  0  0
  147.0191  137.8984  152.9671 H   0  0  0  0  0  0  0  0  0  0  0  0
  147.4115  139.3430  152.0405 H   0  0  0  0  0  0  0  0  0  0  0  0
  149.1766  141.0730  153.1613 H   0  0  0  0  0  0  0  0  0  0  0  0
  146.7953  141.6272  153.3111 H   0  0  0  0  0  0  0  0  0  0  0  0
  147.6934  142.7364  154.3249 H   0  0  0  0  0  0  0  0  0  0  0  0
  146.8023  141.4067  155.0589 H   0  0  0  0  0  0  0  0  0  0  0  0
  148.4126  142.3408  156.4840 H   0  0  0  0  0  0  0  0  0  0  0  0
  150.7013  142.3845  157.9650 H   0  0  0  0  0  0  0  0  0  0  0  0
  152.4375  140.8178  156.4780 H   0  0  0  0  0  0  0  0  0  0  0  0
  148.5213  135.1656  155.3126 H   0  0  0  0  0  0  0  0  0  0  0  0
  148.0692  136.8495  155.1611 H   0  0  0  0  0  0  0  0  0  0  0  0
  149.2364  137.7402  153.0153 H   0  0  0  0  0  0  0  0  0  0  0  0
  1  2  1  0  0  0  0
  1 16  1  0  0  0  0
  1 17  1  0  0  0  0
  1 18  1  0  0  0  0
  2  3  1  0  0  0  0
  2 13  1  0  0  0  0
  2 19  1  0  0  0  0
  3  4  1  0  0  0  0
  3 20  1  0  0  0  0
  3 34  1  0  0  0  0
  4  5  1  0  0  0  0
  4  6  1  0  0  0  0
  4 21  1  0  0  0  0
  5 22  1  0  0  0  0
  5 23  1  0  0  0  0
  5 24  1  0  0  0  0
  6  7  1  0  0  0  0
  6  8  1  0  0  0  0
  6 25  1  0  0  0  0
  7 26  1  0  0  0  0
  7 27  1  0  0  0  0
  7 28  1  0  0  0  0
  8 12  1  0  0  0  0
  8  9  1  0  0  0  0
  9 10  2  0  0  0  0
  9 29  1  0  0  0  0
 10 11  1  0  0  0  0
 10 30  1  0  0  0  0
 11 12  2  0  0  0  0
 11 31  1  0  0  0  0
 13 14  1  0  0  0  0
 13 15  2  0  0  0  0
 14 32  1  0  0  0  0
 14 33  1  0  0  0  0
M  CHG  1   3   1
M  END
> <s_m_source_file>
AV-unprocessed.smi

> <i_m_source_file_index>
3116

> <i_lp_mmshare_version>
43012

> <i_f3d_flags>
0

> <s_epik_input>
W05IMl1DKD1PKVtDQEhdKFtDSDNdKVtOSF1bQ0BIXShbQ0gzXSlbQ0BIXShbQ0gzXSluMVtjSF1bY0hdW2NIXW4x

> <s_epik_cmdline>
J2VwaWtfcHl0aG9uJywgJy1waCcsICc3LjAnLCAnLXRuJywgJzgnLCAnLW1hJywgJzIwMCcsICctbWV0YWxfYmluZGluZycsICctaW1hZScsICc8aW5maWxlLm1hZT4nLCAnLW9tYWUnLCAnPG91dGZpbGUubWFlPic=

> <r_lp_tautomer_probability>
1

> <r_epik_Ionization_Penalty>
0.15658

> <r_epik_Ionization_Penalty_Charging>
0.156568

> <r_epik_Ionization_Penalty_Neutral>
1.19778e-05

> <r_epik_State_Penalty>
0.145866

> <r_epik_Charging_Adjusted_Penalty>
0.302434

> <i_epik_Tot_Q>
1

> <i_epik_Tot_abs_Q>
1

> <r_epik_Metal_State_Penalty>
0.146064

> <b_epik_Metal_Only>
0

> <s_lp_Force_Field>
OPLS_2005

> <r_lp_Energy>
9.77371

> <b_lp_Chiralities_Consistent>
1

> <s_lp_Variant>
AV-unprocessed.smi:3116-6

> <Gold.Version>
5.8.1

> <Gold.Id.Protein>
6NUR|6NUR_protein|mol2

> <Gold.PLP.Fitness>
39.9693

> <Gold.PLP.PLP>
-28.6279

> <Gold.PLP.part.hbond>
-4.2114

> <Gold.PLP.part.metal>
0.0000

> <Gold.PLP.part.buried>
-0.7971

> <Gold.PLP.part.nonpolar>
-23.3494

> <Gold.PLP.part.repulsive>
0.2855

> <Gold.PLP.ligand.clash>
0.0015

> <Gold.PLP.ligand.torsion>
1.3912

> <Gold.PLP.Chemscore.Hbond>
4.3055

> <Gold.PLP.Chemscore.CHOScore>
0.3550

> <Gold.PLP.Chemscore.Metal>
0.0000

> <Gold.Chemscore.Hbonds>
donor molecule, donor type, donor heavy atom, donor atom, acceptor molecule, acceptor atom, score
      L1  H     3    20       P1  7957  0.38
      L1  H     3    34       P1  7948  2.00
      P1  H  7989  7998       L1    12  0.94
      P1  H 10752 10763       L1    15  1.00
      L1  C     9    29       P1  8028  0.41

> <Gold.PLP.Chemscore.Internal.Correction>
0.1439

> <Gold.Rescore>
     Score         DG    S(hbond)    S(metal)    S(lipo)     H(rot)  DE(clash)    DE(int)     intcor
     11.88     -17.77       3.47        0.00      59.64       2.45       0.57       5.32       ----

> <Gold.Chemscore.Fitness>
11.8850

> <Gold.Chemscore.DG>
-17.7746

> <Gold.Chemscore.ZeroCoef>
-5.4800

> <Gold.Chemscore.Hbond>
3.4671

> <Gold.Chemscore.Metal>
0.0000

> <Gold.Chemscore.Lipo>
59.6377

> <Gold.Chemscore.Internal_Hbond>
0.0000

> <Gold.Chemscore.DEClash>
0.5655

> <Gold.Chemscore.DEInternal>
5.3241

> <Gold.Chemscore.Rot>
2.4465

> <Gold.Chemscore.Internal.Correction>
   9.000000E+99

> <Gold.Chemscore.Hbonds>
donor molecule, donor type, donor heavy atom, donor atom, acceptor molecule, acceptor atom, score
      L1  H     3    20       P1  7957  0.33
      L1  H     3    34       P1  7948  0.98
      P1  H  7989  7998       L1    12  0.70
      P1  H 10752 10763       L1    15  0.93

> <Gold.Chemscore.Hbond.Weighted>
-11.5801

> <Gold.Chemscore.Metal.Weighted>
-0.0000

> <Gold.Chemscore.Lipo.Weighted>
-6.9776

> <Gold.Chemscore.Internal_Hbond.Weighted>
0.0000

> <Gold.Chemscore.DEClash.Weighted>
0.5655

> <Gold.Chemscore.DEInternal.Weighted>
5.3241

> <Gold.Chemscore.Rot.Weighted>
6.2631

> <Gold.Chemscore.Internal.Correction.Weighted>
   9.000000E+99

> <Gold.Protein.RotatedTorsions>
[ 6907 6896 6895 6894 ] final  -36.46 input  -60.11 | X-H torsion
[ 7974 7965 7964 7962 ] final  -57.51 input  175.53 | X-H torsion
[ 8008 7997 7996 7995 ] final -165.64 input   59.86 | X-H torsion
[ 10167 10162 10161 10158 ] final  123.86 input  -65.29 | X-H torsion
[ 10718 10713 10712 10709 ] final  -44.38 input   66.30 | X-H torsion
[ 10763 10752 10751 10750 ] final   69.03 input  -60.55 | X-H torsion
[ 11005 11000 10999 10996 ] final  131.06 input  -57.11 | X-H torsion

> <Gold.Protein.ActiveResidues>
 VAL166  LYS551  ARG553  GLY616  TRP617  ASP618  TYR619  PRO620  LYS621  CYS622 
 ASP623  PHE694  ASN695  SER759  ASP760  ASP761  ALA762  ILE779  LEU786  VAL792 
 PHE793  MET794  SER795  GLU796  ALA797  LYS798  CYS799  TRP800  GLU811  SER814 

> <Gold.Protein.RotatedAtoms>
  151.0269  134.9511  159.8089 H   0  0  0  0  0  0  0  0  0  0  0  0  # atno 6907 bound_to 6896
  152.5337  134.2830  159.9025 H   0  0  0  0  0  0  0  0  0  0  0  0  # atno 6908 bound_to 6896
  151.2839  133.4154  159.2663 H   0  0  0  0  0  0  0  0  0  0  0  0  # atno 6909 bound_to 6896
  145.8502  140.8357  142.9989 H   0  0  0  0  0  0  0  0  0  0  0  0  # atno 7974 bound_to 7965
  155.8527  140.0965  157.1664 H   0  0  0  0  0  0  0  0  0  0  0  0  # atno 8008 bound_to 7997
  154.3986  140.1380  156.3926 H   0  0  0  0  0  0  0  0  0  0  0  0  # atno 8009 bound_to 7997
  155.7943  140.3455  155.5369 H   0  0  0  0  0  0  0  0  0  0  0  0  # atno 8010 bound_to 7997
  139.5775  144.6970  151.3615 H   0  0  0  0  0  0  0  0  0  0  0  0  # atno 10167 bound_to 10162
  156.2392  130.4178  149.8781 H   0  0  0  0  0  0  0  0  0  0  0  0  # atno 10718 bound_to 10713
  153.0266  135.5225  154.7226 H   0  0  0  0  0  0  0  0  0  0  0  0  # atno 10763 bound_to 10752
  154.6277  135.2896  155.0255 H   0  0  0  0  0  0  0  0  0  0  0  0  # atno 10764 bound_to 10752
  154.1219  135.6606  153.4957 H   0  0  0  0  0  0  0  0  0  0  0  0  # atno 10765 bound_to 10752
  139.9708  134.9578  156.9383 H   0  0  0  0  0  0  0  0  0  0  0  0  # atno 11005 bound_to 11000
  144.6729  140.0942  143.7463 LP  0  0  0  0  0  0  0  0  0  0  0  0  # atno 17320 bound_to 7965
  145.9366  139.2641  143.1294 LP  0  0  0  0  0  0  0  0  0  0  0  0  # atno 17321 bound_to 7965
  140.7056  143.7521  150.7477 LP  0  0  0  0  0  0  0  0  0  0  0  0  # atno 17342 bound_to 10162
  140.1045  143.4757  152.2406 LP  0  0  0  0  0  0  0  0  0  0  0  0  # atno 17343 bound_to 10162
  156.6369  130.8688  151.3506 LP  0  0  0  0  0  0  0  0  0  0  0  0  # atno 17370 bound_to 10713
  157.7168  130.9507  150.1284 LP  0  0  0  0  0  0  0  0  0  0  0  0  # atno 17371 bound_to 10713
  140.5298  134.0825  155.7313 LP  0  0  0  0  0  0  0  0  0  0  0  0  # atno 17394 bound_to 11000
  141.1387  133.9176  157.2375 LP  0  0  0  0  0  0  0  0  0  0  0  0  # atno 17395 bound_to 11000

$$$$
