AV-unprocessed.smi:476|AV-procd|sdf|2669|dock10
  -GOLD-   2262023 83D 1   1.00000     0.00000
 Structure written by MMmdl.
 39 40  0  0  0  0  0  0  0  0  1 V2000
  147.8694  134.4758  158.4702 C   0  0  0  0  0  0  0  0  0  0  0  0
  147.6362  134.8105  159.9330 C   0  0  0  0  0  0  0  0  0  0  0  0
  147.4397  133.9217  160.9126 C   0  0  0  0  0  0  0  0  0  0  0  0
  147.2499  134.6724  162.4784 S   0  0  0  0  0  0  0  0  0  0  0  0
  147.4583  136.2978  161.7336 C   0  0  0  0  0  0  0  0  0  0  0  0
  147.4265  137.3398  162.3864 O   0  0  0  0  0  0  0  0  0  0  0  0
  147.6459  136.1457  160.3598 N   0  0  0  0  0  0  0  0  0  0  0  0
  147.8258  137.2900  159.4568 C   0  0  0  0  0  0  0  0  0  0  0  0
  149.2522  137.3900  158.9029 C   0  0  0  0  0  0  0  0  0  0  0  0
  150.0594  136.4742  159.0670 O   0  0  0  0  0  0  0  0  0  0  0  0
  149.5448  138.5172  158.2374 N   0  0  0  0  0  0  0  0  0  0  0  0
  150.8522  138.8500  157.6795 C   0  0  0  0  0  0  0  0  0  0  0  0
  151.8550  139.3209  158.7533 C   0  0  0  0  0  0  0  0  0  0  0  0
  152.0082  140.8332  158.8301 C   0  0  0  0  0  0  0  0  0  0  0  0
  151.3355  141.6609  158.0064 C   0  0  0  0  0  0  0  0  0  0  0  0
  151.4760  143.1725  158.0161 C   0  0  0  0  0  0  0  0  0  0  0  0
  152.7130  143.6384  158.8014 C   0  0  0  0  0  0  0  0  0  0  0  0
  152.8520  142.8693  160.1213 C   0  0  0  0  0  0  0  0  0  0  0  0
  152.9844  141.3551  159.8780 C   0  0  0  0  0  0  0  0  0  0  0  0
  148.1266  133.4221  158.3582 H   0  0  0  0  0  0  0  0  0  0  0  0
  148.6907  135.0585  158.0529 H   0  0  0  0  0  0  0  0  0  0  0  0
  146.9679  134.6683  157.8885 H   0  0  0  0  0  0  0  0  0  0  0  0
  147.4069  132.8474  160.8055 H   0  0  0  0  0  0  0  0  0  0  0  0
  147.1201  137.2650  158.6274 H   0  0  0  0  0  0  0  0  0  0  0  0
  147.5938  138.2067  160.0025 H   0  0  0  0  0  0  0  0  0  0  0  0
  148.8194  139.2134  158.1425 H   0  0  0  0  0  0  0  0  0  0  0  0
  151.2555  137.9963  157.1329 H   0  0  0  0  0  0  0  0  0  0  0  0
  150.7047  139.6408  156.9437 H   0  0  0  0  0  0  0  0  0  0  0  0
  151.5371  138.9463  159.7272 H   0  0  0  0  0  0  0  0  0  0  0  0
  152.8328  138.8760  158.5674 H   0  0  0  0  0  0  0  0  0  0  0  0
  150.6452  141.2544  157.2815 H   0  0  0  0  0  0  0  0  0  0  0  0
  151.5312  143.5354  156.9897 H   0  0  0  0  0  0  0  0  0  0  0  0
  150.5700  143.5928  158.4534 H   0  0  0  0  0  0  0  0  0  0  0  0
  153.6079  143.4791  158.1984 H   0  0  0  0  0  0  0  0  0  0  0  0
  152.6533  144.7107  158.9892 H   0  0  0  0  0  0  0  0  0  0  0  0
  153.7130  143.2321  160.6835 H   0  0  0  0  0  0  0  0  0  0  0  0
  151.9754  143.0624  160.7411 H   0  0  0  0  0  0  0  0  0  0  0  0
  152.8333  140.8207  160.8163 H   0  0  0  0  0  0  0  0  0  0  0  0
  153.9960  141.1244  159.5426 H   0  0  0  0  0  0  0  0  0  0  0  0
  1  2  1  0  0  0  0
  1 20  1  0  0  0  0
  1 21  1  0  0  0  0
  1 22  1  0  0  0  0
  2  7  1  0  0  0  0
  2  3  2  0  0  0  0
  3  4  1  0  0  0  0
  3 23  1  0  0  0  0
  4  5  1  0  0  0  0
  5  6  2  0  0  0  0
  5  7  1  0  0  0  0
  7  8  1  0  0  0  0
  8  9  1  0  0  0  0
  8 24  1  0  0  0  0
  8 25  1  0  0  0  0
  9 10  2  0  0  0  0
  9 11  1  0  0  0  0
 11 12  1  0  0  0  0
 11 26  1  0  0  0  0
 12 13  1  0  0  0  0
 12 27  1  0  0  0  0
 12 28  1  0  0  0  0
 13 14  1  0  0  0  0
 13 29  1  0  0  0  0
 13 30  1  0  0  0  0
 14 19  1  0  0  0  0
 14 15  2  0  0  0  0
 15 16  1  0  0  0  0
 15 31  1  0  0  0  0
 16 17  1  0  0  0  0
 16 32  1  0  0  0  0
 16 33  1  0  0  0  0
 17 18  1  0  0  0  0
 17 34  1  0  0  0  0
 17 35  1  0  0  0  0
 18 19  1  0  0  0  0
 18 36  1  0  0  0  0
 18 37  1  0  0  0  0
 19 38  1  0  0  0  0
 19 39  1  0  0  0  0
M  END
> <s_m_source_file>
AV-unprocessed.smi

> <i_m_source_file_index>
476

> <i_lp_mmshare_version>
43012

> <i_f3d_flags>
0

> <s_epik_input>
W0NIM11jMVtjSF1zYyg9TyluMVtDSDJdQyg9TylbTkhdW0NIMl1bQ0gyXUMyPVtDSF1bQ0gyXVtDSDJdW0NIMl1bQ0gyXTI=

> <s_epik_cmdline>
J2VwaWtfcHl0aG9uJywgJy1waCcsICc3LjAnLCAnLXRuJywgJzgnLCAnLW1hJywgJzIwMCcsICctbWV0YWxfYmluZGluZycsICctaW1hZScsICc8aW5maWxlLm1hZT4nLCAnLW9tYWUnLCAnPG91dGZpbGUubWFlPic=

> <r_lp_tautomer_probability>
1

> <r_epik_Ionization_Penalty>
1.31088e-06

> <r_epik_Ionization_Penalty_Charging>
1.18065e-06

> <r_epik_Ionization_Penalty_Neutral>
1.30231e-07

> <r_epik_State_Penalty>
-0

> <r_epik_Charging_Adjusted_Penalty>
1.18065e-06

> <i_epik_Tot_Q>
0

> <i_epik_Tot_abs_Q>
0

> <r_epik_Metal_State_Penalty>
-0

> <b_epik_Metal_Only>
0

> <s_lp_Force_Field>
OPLS_2005

> <r_lp_Energy>
10.5339

> <b_lp_Chiralities_Consistent>
1

> <s_lp_Variant>
AV-unprocessed.smi:476-1

> <Gold.Version>
5.8.1

> <Gold.Id.Protein>
6NUR|6NUR_protein|mol2

> <Gold.PLP.Fitness>
46.9817

> <Gold.PLP.PLP>
-41.2757

> <Gold.PLP.part.hbond>
-3.0000

> <Gold.PLP.part.metal>
0.0000

> <Gold.PLP.part.buried>
-4.1174

> <Gold.PLP.part.nonpolar>
-33.9874

> <Gold.PLP.part.repulsive>
0.1309

> <Gold.PLP.ligand.clash>
0.0000

> <Gold.PLP.ligand.torsion>
0.5822

> <Gold.PLP.Chemscore.Hbond>
2.2800

> <Gold.PLP.Chemscore.CHOScore>
0.0000

> <Gold.PLP.Chemscore.Metal>
0.0000

> <Gold.Chemscore.Hbonds>
donor molecule, donor type, donor heavy atom, donor atom, acceptor molecule, acceptor atom, score
      P1  H  6896  6907       L1    10  1.00
      P1  H  6931  6943       L1     6  0.77
      P1  H  6934  6947       L1     6  0.27

> <Gold.PLP.Chemscore.Internal.Correction>
0.0304

> <Gold.Rescore>
     Score         DG    S(hbond)    S(metal)    S(lipo)     H(rot)  DE(clash)    DE(int)     intcor
     20.25     -20.99       2.63        0.00      95.26       1.72       0.02       0.72       ----

> <Gold.Chemscore.Fitness>
20.2459

> <Gold.Chemscore.DG>
-20.9854

> <Gold.Chemscore.ZeroCoef>
-5.4800

> <Gold.Chemscore.Hbond>
2.6250

> <Gold.Chemscore.Metal>
0.0000

> <Gold.Chemscore.Lipo>
95.2562

> <Gold.Chemscore.Internal_Hbond>
0.0000

> <Gold.Chemscore.DEClash>
0.0161

> <Gold.Chemscore.DEInternal>
0.7234

> <Gold.Chemscore.Rot>
1.7215

> <Gold.Chemscore.Internal.Correction>
   9.000000E+99

> <Gold.Chemscore.Hbonds>
donor molecule, donor type, donor heavy atom, donor atom, acceptor molecule, acceptor atom, score
      P1  H  6896  6907       L1    10  1.00
      P1  H  6931  6943       L1     6  0.42
      P1  H  6934  6947       L1     6  0.18

> <Gold.Chemscore.Hbond.Weighted>
-8.7675

> <Gold.Chemscore.Metal.Weighted>
-0.0000

> <Gold.Chemscore.Lipo.Weighted>
-11.1450

> <Gold.Chemscore.Internal_Hbond.Weighted>
0.0000

> <Gold.Chemscore.DEClash.Weighted>
0.0161

> <Gold.Chemscore.DEInternal.Weighted>
0.7234

> <Gold.Chemscore.Rot.Weighted>
4.4070

> <Gold.Chemscore.Internal.Correction.Weighted>
   9.000000E+99

> <Gold.Protein.RotatedTorsions>
[ 6907 6896 6895 6894 ] final  -38.06 input  -60.11 | X-H torsion
[ 7974 7965 7964 7962 ] final -165.76 input  175.53 | X-H torsion
[ 8008 7997 7996 7995 ] final -128.31 input   59.86 | X-H torsion
[ 10167 10162 10161 10158 ] final   88.30 input  -65.29 | X-H torsion
[ 10718 10713 10712 10709 ] final -140.24 input   66.30 | X-H torsion
[ 10763 10752 10751 10750 ] final  177.32 input  -60.55 | X-H torsion
[ 11005 11000 10999 10996 ] final  130.00 input  -57.11 | X-H torsion

> <Gold.Protein.ActiveResidues>
 VAL166  LYS551  ARG553  GLY616  TRP617  ASP618  TYR619  PRO620  LYS621  CYS622 
 ASP623  PHE694  ASN695  SER759  ASP760  ASP761  ALA762  ILE779  LEU786  VAL792 
 PHE793  MET794  SER795  GLU796  ALA797  LYS798  CYS799  TRP800  GLU811  SER814 

> <Gold.Protein.RotatedAtoms>
  151.0071  134.9368  159.7986 H   0  0  0  0  0  0  0  0  0  0  0  0  # atno 6907 bound_to 6896
  152.5293  134.3077  159.9112 H   0  0  0  0  0  0  0  0  0  0  0  0  # atno 6908 bound_to 6896
  151.3083  133.4050  159.2679 H   0  0  0  0  0  0  0  0  0  0  0  0  # atno 6909 bound_to 6896
  144.7262  140.2766  143.6242 H   0  0  0  0  0  0  0  0  0  0  0  0  # atno 7974 bound_to 7965
  155.2605  140.0436  157.2997 H   0  0  0  0  0  0  0  0  0  0  0  0  # atno 8008 bound_to 7997
  154.5713  140.2374  155.8156 H   0  0  0  0  0  0  0  0  0  0  0  0  # atno 8009 bound_to 7997
  156.2125  140.2994  155.9772 H   0  0  0  0  0  0  0  0  0  0  0  0  # atno 8010 bound_to 7997
  139.8687  144.6505  150.8974 H   0  0  0  0  0  0  0  0  0  0  0  0  # atno 10167 bound_to 10162
  156.3200  130.7529  151.1624 H   0  0  0  0  0  0  0  0  0  0  0  0  # atno 10718 bound_to 10713
  154.4929  135.2780  155.1482 H   0  0  0  0  0  0  0  0  0  0  0  0  # atno 10763 bound_to 10752
  154.3146  135.6222  153.5484 H   0  0  0  0  0  0  0  0  0  0  0  0  # atno 10764 bound_to 10752
  152.9890  135.5728  154.5355 H   0  0  0  0  0  0  0  0  0  0  0  0  # atno 10765 bound_to 10752
  139.9647  134.9593  156.9230 H   0  0  0  0  0  0  0  0  0  0  0  0  # atno 11005 bound_to 11000
  145.7990  139.1957  143.2059 LP  0  0  0  0  0  0  0  0  0  0  0  0  # atno 17320 bound_to 7965
  146.0692  140.7887  142.9696 LP  0  0  0  0  0  0  0  0  0  0  0  0  # atno 17321 bound_to 7965
  140.7764  143.3682  151.1699 LP  0  0  0  0  0  0  0  0  0  0  0  0  # atno 17342 bound_to 10162
  139.7304  143.9081  152.3017 LP  0  0  0  0  0  0  0  0  0  0  0  0  # atno 17343 bound_to 10162
  157.7410  131.0510  150.5130 LP  0  0  0  0  0  0  0  0  0  0  0  0  # atno 17370 bound_to 10713
  156.5281  130.4178  149.6216 LP  0  0  0  0  0  0  0  0  0  0  0  0  # atno 17371 bound_to 10713
  140.5423  134.0708  155.7345 LP  0  0  0  0  0  0  0  0  0  0  0  0  # atno 17394 bound_to 11000
  141.1326  133.9276  157.2502 LP  0  0  0  0  0  0  0  0  0  0  0  0  # atno 17395 bound_to 11000

$$$$
