AV-unprocessed.smi:1885|AV-procd|sdf|7650|dock5
  -GOLD-   22720 9383D 1   1.00000     0.00000
 Structure written by MMmdl.
 43 45  0  0  0  0  0  0  0  0  1 V2000
  153.2115  143.1031  162.9747 C   0  0  0  0  0  0  0  0  0  0  0  0
  153.3436  142.1146  161.9636 O   0  0  0  0  0  0  0  0  0  0  0  0
  152.7686  142.3622  160.7355 C   0  0  0  0  0  0  0  0  0  0  0  0
  152.3156  143.6365  160.3103 C   0  0  0  0  0  0  0  0  0  0  0  0
  151.7376  143.7997  159.0362 C   0  0  0  0  0  0  0  0  0  0  0  0
  151.6090  142.6995  158.1649 C   0  0  0  0  0  0  0  0  0  0  0  0
  150.9667  142.8827  156.8024 C   0  0  0  0  0  0  0  0  0  0  0  0
  150.6260  141.6443  156.2008 O   0  0  0  0  0  0  0  0  0  0  0  0
  149.3336  141.6478  155.6177 C   0  0  0  0  0  0  0  0  0  0  0  0
  149.1697  140.3790  154.7687 C   0  0  2  0  0  0  0  0  0  0  0  0
  150.1744  140.3659  153.7737 O   0  0  0  0  0  0  0  0  0  0  0  0
  147.7804  140.2873  154.1081 C   0  0  0  0  0  0  0  0  0  0  0  0
  146.7444  140.9032  154.9170 N   0  0  0  0  0  0  0  0  0  0  0  0
  146.3079  140.5059  156.1279 C   0  0  0  0  0  0  0  0  0  0  0  0
  145.3415  141.2249  156.6926 N   0  0  0  0  0  0  0  0  0  0  0  0
  145.1257  142.2032  155.7369 C   0  0  0  0  0  0  0  0  0  0  0  0
  144.2206  143.2884  155.7218 C   0  0  0  0  0  0  0  0  0  0  0  0
  144.1789  144.1697  154.6211 C   0  0  0  0  0  0  0  0  0  0  0  0
  143.3055  145.2046  154.6231 F   0  0  0  0  0  0  0  0  0  0  0  0
  145.0403  143.9790  153.5202 C   0  0  0  0  0  0  0  0  0  0  0  0
  144.9936  144.8297  152.4677 F   0  0  0  0  0  0  0  0  0  0  0  0
  145.9502  142.9046  153.5124 C   0  0  0  0  0  0  0  0  0  0  0  0
  145.9879  142.0289  154.6128 C   0  0  0  0  0  0  0  0  0  0  0  0
  152.0499  141.4284  158.5865 C   0  0  0  0  0  0  0  0  0  0  0  0
  152.6271  141.2658  159.8604 C   0  0  0  0  0  0  0  0  0  0  0  0
  153.7183  142.7638  163.8779 H   0  0  0  0  0  0  0  0  0  0  0  0
  152.1650  143.2756  163.2294 H   0  0  0  0  0  0  0  0  0  0  0  0
  153.6710  144.0454  162.6734 H   0  0  0  0  0  0  0  0  0  0  0  0
  152.3984  144.5059  160.9446 H   0  0  0  0  0  0  0  0  0  0  0  0
  151.3931  144.7764  158.7294 H   0  0  0  0  0  0  0  0  0  0  0  0
  150.0728  143.4960  156.9256 H   0  0  0  0  0  0  0  0  0  0  0  0
  151.6511  143.4286  156.1509 H   0  0  0  0  0  0  0  0  0  0  0  0
  148.5638  141.6936  156.3900 H   0  0  0  0  0  0  0  0  0  0  0  0
  149.2256  142.5352  154.9915 H   0  0  0  0  0  0  0  0  0  0  0  0
  149.3296  139.5077  155.4054 H   0  0  0  0  0  0  0  0  0  0  0  0
  149.7605  140.4373  152.9273 H   0  0  0  0  0  0  0  0  0  0  0  0
  147.7892  140.7856  153.1379 H   0  0  0  0  0  0  0  0  0  0  0  0
  147.5102  139.2470  153.9201 H   0  0  0  0  0  0  0  0  0  0  0  0
  146.7251  139.6415  156.6237 H   0  0  0  0  0  0  0  0  0  0  0  0
  143.5569  143.4446  156.5591 H   0  0  0  0  0  0  0  0  0  0  0  0
  146.6117  142.7553  152.6720 H   0  0  0  0  0  0  0  0  0  0  0  0
  151.9483  140.5714  157.9369 H   0  0  0  0  0  0  0  0  0  0  0  0
  152.9633  140.2873  160.1707 H   0  0  0  0  0  0  0  0  0  0  0  0
  1  2  1  0  0  0  0
  1 26  1  0  0  0  0
  1 27  1  0  0  0  0
  1 28  1  0  0  0  0
  2  3  1  0  0  0  0
  3 25  1  0  0  0  0
  3  4  2  0  0  0  0
  4  5  1  0  0  0  0
  4 29  1  0  0  0  0
  5  6  2  0  0  0  0
  5 30  1  0  0  0  0
  6  7  1  0  0  0  0
  6 24  1  0  0  0  0
  7  8  1  0  0  0  0
  7 31  1  0  0  0  0
  7 32  1  0  0  0  0
  8  9  1  0  0  0  0
  9 10  1  0  0  0  0
  9 33  1  0  0  0  0
  9 34  1  0  0  0  0
 10 11  1  0  0  0  0
 10 12  1  0  0  0  0
 10 35  1  0  0  0  0
 11 36  1  0  0  0  0
 12 13  1  0  0  0  0
 12 37  1  0  0  0  0
 12 38  1  0  0  0  0
 13 23  1  0  0  0  0
 13 14  1  0  0  0  0
 14 15  2  0  0  0  0
 14 39  1  0  0  0  0
 15 16  1  0  0  0  0
 16 23  2  0  0  0  0
 16 17  1  0  0  0  0
 17 18  2  0  0  0  0
 17 40  1  0  0  0  0
 18 19  1  0  0  0  0
 18 20  1  0  0  0  0
 20 21  1  0  0  0  0
 20 22  2  0  0  0  0
 22 23  1  0  0  0  0
 22 41  1  0  0  0  0
 24 25  2  0  0  0  0
 24 42  1  0  0  0  0
 25 43  1  0  0  0  0
M  END
> <s_m_source_file>
AV-unprocessed.smi

> <i_m_source_file_index>
1885

> <i_lp_mmshare_version>
43012

> <i_f3d_flags>
0

> <s_epik_input>
W0NIM11PYzFbY0hdW2NIXWMoW2NIXVtjSF0xKVtDSDJdT1tDSDJdW0NASF0oW09IXSlbQ0gyXW4oW2NIXW4yKWMoYzIzKVtjSF1jKEYpYyhGKVtjSF0z

> <s_epik_cmdline>
J2VwaWtfcHl0aG9uJywgJy1waCcsICc3LjAnLCAnLXRuJywgJzgnLCAnLW1hJywgJzIwMCcsICctbWV0YWxfYmluZGluZycsICctaW1hZScsICc8aW5maWxlLm1hZT4nLCAnLW9tYWUnLCAnPG91dGZpbGUubWFlPic=

> <r_lp_tautomer_probability>
1

> <r_epik_Ionization_Penalty>
0.0160256

> <r_epik_Ionization_Penalty_Charging>
0

> <r_epik_Ionization_Penalty_Neutral>
0.0160256

> <r_epik_State_Penalty>
0.0126263

> <r_epik_Charging_Adjusted_Penalty>
0.0126263

> <i_epik_Tot_Q>
0

> <i_epik_Tot_abs_Q>
0

> <r_epik_Metal_State_Penalty>
1.27616e-05

> <b_epik_Metal_Only>
0

> <s_lp_Force_Field>
OPLS_2005

> <r_lp_Energy>
16.1682

> <b_lp_Chiralities_Consistent>
1

> <s_lp_Variant>
AV-unprocessed.smi:1885-1

> <Gold.Version>
5.8.1

> <Gold.Id.Protein>
6NUR|6NUR_protein|mol2

> <Gold.PLP.Fitness>
58.7789

> <Gold.PLP.PLP>
-55.3711

> <Gold.PLP.part.hbond>
-1.8037

> <Gold.PLP.part.metal>
0.0000

> <Gold.PLP.part.buried>
-7.5348

> <Gold.PLP.part.nonpolar>
-44.8615

> <Gold.PLP.part.repulsive>
0.1161

> <Gold.PLP.ligand.clash>
0.0000

> <Gold.PLP.ligand.torsion>
1.0482

> <Gold.PLP.Chemscore.Hbond>
1.8000

> <Gold.PLP.Chemscore.CHOScore>
0.0000

> <Gold.PLP.Chemscore.Metal>
0.0000

> <Gold.Chemscore.Hbonds>
donor molecule, donor type, donor heavy atom, donor atom, acceptor molecule, acceptor atom, score
      L1  H    11    36       P1  7957  1.00
      P1  H  7989  7998       L1    11  0.72

> <Gold.PLP.Chemscore.Internal.Correction>
0.1043

> <Gold.Rescore>
     Score         DG    S(hbond)    S(metal)    S(lipo)     H(rot)  DE(clash)    DE(int)     intcor
     14.21     -17.60       0.96        0.00     140.23       2.93       2.13       1.26       ----

> <Gold.Chemscore.Fitness>
14.2111

> <Gold.Chemscore.DG>
-17.5997

> <Gold.Chemscore.ZeroCoef>
-5.4800

> <Gold.Chemscore.Hbond>
0.9648

> <Gold.Chemscore.Metal>
0.0000

> <Gold.Chemscore.Lipo>
140.2301

> <Gold.Chemscore.Internal_Hbond>
0.0000

> <Gold.Chemscore.DEClash>
2.1302

> <Gold.Chemscore.DEInternal>
1.2584

> <Gold.Chemscore.Rot>
2.9335

> <Gold.Chemscore.Internal.Correction>
   9.000000E+99

> <Gold.Chemscore.Hbonds>
donor molecule, donor type, donor heavy atom, donor atom, acceptor molecule, acceptor atom, score
      L1  H    11    36       P1  7957  0.97
      P1  H  7989  7998       L1    11  0.21

> <Gold.Chemscore.Hbond.Weighted>
-3.2225

> <Gold.Chemscore.Metal.Weighted>
-0.0000

> <Gold.Chemscore.Lipo.Weighted>
-16.4069

> <Gold.Chemscore.Internal_Hbond.Weighted>
0.0000

> <Gold.Chemscore.DEClash.Weighted>
2.1302

> <Gold.Chemscore.DEInternal.Weighted>
1.2584

> <Gold.Chemscore.Rot.Weighted>
7.5097

> <Gold.Chemscore.Internal.Correction.Weighted>
   9.000000E+99

> <Gold.Protein.RotatedTorsions>
[ 6907 6896 6895 6894 ] final  169.45 input  -60.11 | X-H torsion
[ 7974 7965 7964 7962 ] final   36.85 input  175.53 | X-H torsion
[ 8008 7997 7996 7995 ] final  175.75 input   59.86 | X-H torsion
[ 10167 10162 10161 10158 ] final   72.82 input  -65.29 | X-H torsion
[ 10718 10713 10712 10709 ] final -162.54 input   66.30 | X-H torsion
[ 10763 10752 10751 10750 ] final  -92.43 input  -60.55 | X-H torsion
[ 11005 11000 10999 10996 ] final -142.94 input  -57.11 | X-H torsion

> <Gold.Protein.ActiveResidues>
 VAL166  LYS551  ARG553  GLY616  TRP617  ASP618  TYR619  PRO620  LYS621  CYS622 
 ASP623  PHE694  ASN695  SER759  ASP760  ASP761  ALA762  ILE779  LEU786  VAL792 
 PHE793  MET794  SER795  GLU796  ALA797  LYS798  CYS799  TRP800  GLU811  SER814 

> <Gold.Protein.RotatedAtoms>
  151.8318  133.3409  159.3615 H   0  0  0  0  0  0  0  0  0  0  0  0  # atno 6907 bound_to 6896
  150.7262  134.5476  159.5788 H   0  0  0  0  0  0  0  0  0  0  0  0  # atno 6908 bound_to 6896
  152.2930  134.7700  160.0425 H   0  0  0  0  0  0  0  0  0  0  0  0  # atno 6909 bound_to 6896
  146.1181  139.5966  142.9308 H   0  0  0  0  0  0  0  0  0  0  0  0  # atno 7974 bound_to 7965
  156.0838  140.1401  156.9679 H   0  0  0  0  0  0  0  0  0  0  0  0  # atno 8008 bound_to 7997
  154.4600  140.0946  156.6916 H   0  0  0  0  0  0  0  0  0  0  0  0  # atno 8009 bound_to 7997
  155.5033  140.3451  155.4377 H   0  0  0  0  0  0  0  0  0  0  0  0  # atno 8010 bound_to 7997
  140.0312  144.5464  150.7506 H   0  0  0  0  0  0  0  0  0  0  0  0  # atno 10167 bound_to 10162
  156.6118  130.8854  151.2938 H   0  0  0  0  0  0  0  0  0  0  0  0  # atno 10718 bound_to 10713
  154.6860  135.5231  153.8327 H   0  0  0  0  0  0  0  0  0  0  0  0  # atno 10763 bound_to 10752
  153.0598  135.6564  154.0500 H   0  0  0  0  0  0  0  0  0  0  0  0  # atno 10764 bound_to 10752
  154.0381  135.2979  155.3339 H   0  0  0  0  0  0  0  0  0  0  0  0  # atno 10765 bound_to 10752
  140.8175  134.2671  157.4915 H   0  0  0  0  0  0  0  0  0  0  0  0  # atno 11005 bound_to 11000
  145.5524  141.0412  143.2271 LP  0  0  0  0  0  0  0  0  0  0  0  0  # atno 17320 bound_to 7965
  144.7571  139.7047  143.7249 LP  0  0  0  0  0  0  0  0  0  0  0  0  # atno 17321 bound_to 7965
  140.7301  143.2680  151.3981 LP  0  0  0  0  0  0  0  0  0  0  0  0  # atno 17342 bound_to 10162
  139.6075  144.1167  152.2264 LP  0  0  0  0  0  0  0  0  0  0  0  0  # atno 17343 bound_to 10162
  157.7252  130.9613  150.1604 LP  0  0  0  0  0  0  0  0  0  0  0  0  # atno 17370 bound_to 10713
  156.2383  130.3688  149.8366 LP  0  0  0  0  0  0  0  0  0  0  0  0  # atno 17371 bound_to 10713
  139.8710  134.9517  156.4093 LP  0  0  0  0  0  0  0  0  0  0  0  0  # atno 17394 bound_to 11000
  140.9134  133.7696  155.9818 LP  0  0  0  0  0  0  0  0  0  0  0  0  # atno 17395 bound_to 11000

$$$$
