AV-unprocessed.smi:203|AV-procd|sdf|1585|dock8
  -GOLD-   2262019483D 1   1.00000     0.00000
 Structure written by MMmdl.
 57 61  0  0  0  0  0  0  0  0  1 V2000
  146.3468  130.8274  157.8760 O   0  0  0  0  0  0  0  0  0  0  0  0
  146.8580  131.9196  158.1113 C   0  0  0  0  0  0  0  0  0  0  0  0
  147.7767  132.1784  159.2927 C   0  0  0  0  0  0  0  0  0  0  0  0
  147.9586  133.7100  159.2829 C   0  0  2  0  0  0  0  0  0  0  0  0
  147.2896  134.4515  160.4846 C   0  0  1  0  0  0  0  0  0  0  0  0
  147.3640  133.6442  161.8074 C   0  0  0  0  0  0  0  0  0  0  0  0
  146.6898  134.3912  162.9659 C   0  0  0  0  0  0  0  0  0  0  0  0
  147.3110  135.7836  163.1210 C   0  0  0  0  0  0  0  0  0  0  0  0
  147.2225  136.5593  161.8000 C   0  0  0  0  0  0  0  0  0  0  0  0
  147.8265  135.8076  160.7006 N   0  0  0  0  0  0  0  0  0  0  0  0
  147.9438  136.5893  159.6043 C   0  0  0  0  0  0  0  0  0  0  0  0
  146.8010  136.9211  158.9552 N   0  0  0  0  0  0  0  0  0  0  0  0
  146.8502  137.7219  157.8864 C   0  0  0  0  0  0  0  0  0  0  0  0
  147.9153  138.2923  157.3186 N   0  0  0  0  0  0  0  0  0  0  0  0
  149.0660  137.9510  157.9665 C   0  0  0  0  0  0  0  0  0  0  0  0
  149.1730  137.0992  159.1006 C   0  0  0  0  0  0  0  0  0  0  0  0
  150.5052  136.9704  159.4752 N   0  0  0  0  0  0  0  0  0  0  0  0
  151.1476  137.7212  158.6233 C   0  0  0  0  0  0  0  0  0  0  0  0
  150.3576  138.3705  157.7013 N   0  0  0  0  0  0  0  0  0  0  0  0
  150.8023  139.2897  156.6690 C   0  0  0  0  0  0  0  0  0  0  0  0
  151.9720  140.1984  157.1172 C   0  0  2  0  0  0  0  0  0  0  0  0
  153.1501  139.4205  157.1702 O   0  0  0  0  0  0  0  0  0  0  0  0
  151.8095  140.9493  158.4615 C   0  0  2  0  0  0  0  0  0  0  0  0
  151.0793  142.2935  158.4164 C   0  0  0  0  0  0  0  0  0  0  0  0
  151.5694  142.9402  159.6930 C   0  0  0  0  0  0  0  0  0  0  0  0
  153.0233  142.4767  159.7499 C   0  0  0  0  0  0  0  0  0  0  0  0
  153.0638  141.2166  159.0846 O   0  0  0  0  0  0  0  0  0  0  0  0
  147.4236  134.1670  157.9088 C   0  0  0  0  0  0  0  0  0  0  0  0
  146.6975  133.0256  157.3877 N   0  0  0  0  0  0  0  0  0  0  0  0
  147.3496  131.7986  160.2210 H   0  0  0  0  0  0  0  0  0  0  0  0
  148.7271  131.6700  159.1262 H   0  0  0  0  0  0  0  0  0  0  0  0
  149.0268  133.9269  159.2803 H   0  0  0  0  0  0  0  0  0  0  0  0
  146.2318  134.5647  160.2457 H   0  0  0  0  0  0  0  0  0  0  0  0
  146.8919  132.6688  161.6959 H   0  0  0  0  0  0  0  0  0  0  0  0
  148.4027  133.4505  162.0752 H   0  0  0  0  0  0  0  0  0  0  0  0
  145.6197  134.4820  162.7755 H   0  0  0  0  0  0  0  0  0  0  0  0
  146.7975  133.8257  163.8919 H   0  0  0  0  0  0  0  0  0  0  0  0
  146.8050  136.3350  163.9138 H   0  0  0  0  0  0  0  0  0  0  0  0
  148.3551  135.6901  163.4225 H   0  0  0  0  0  0  0  0  0  0  0  0
  146.1778  136.7672  161.5644 H   0  0  0  0  0  0  0  0  0  0  0  0
  147.7208  137.5236  161.9113 H   0  0  0  0  0  0  0  0  0  0  0  0
  145.8993  137.9449  157.4255 H   0  0  0  0  0  0  0  0  0  0  0  0
  152.2210  137.8387  158.6594 H   0  0  0  0  0  0  0  0  0  0  0  0
  151.0874  138.7082  155.7913 H   0  0  0  0  0  0  0  0  0  0  0  0
  149.9491  139.8992  156.3682 H   0  0  0  0  0  0  0  0  0  0  0  0
  152.1400  140.9472  156.3427 H   0  0  0  0  0  0  0  0  0  0  0  0
  152.9068  138.5079  157.1989 H   0  0  0  0  0  0  0  0  0  0  0  0
  151.2763  140.2999  159.1584 H   0  0  0  0  0  0  0  0  0  0  0  0
  151.3889  142.8936  157.5619 H   0  0  0  0  0  0  0  0  0  0  0  0
  149.9948  142.1862  158.3818 H   0  0  0  0  0  0  0  0  0  0  0  0
  151.4683  144.0259  159.6906 H   0  0  0  0  0  0  0  0  0  0  0  0
  151.0166  142.5469  160.5472 H   0  0  0  0  0  0  0  0  0  0  0  0
  153.6657  143.1736  159.2112 H   0  0  0  0  0  0  0  0  0  0  0  0
  153.3947  142.3991  160.7721 H   0  0  0  0  0  0  0  0  0  0  0  0
  146.7880  135.0508  157.9650 H   0  0  0  0  0  0  0  0  0  0  0  0
  148.2452  134.3976  157.2295 H   0  0  0  0  0  0  0  0  0  0  0  0
  146.1269  133.0779  156.5561 H   0  0  0  0  0  0  0  0  0  0  0  0
  1  2  2  0  0  0  0
  2 29  1  0  0  0  0
  2  3  1  0  0  0  0
  3  4  1  0  0  0  0
  3 30  1  0  0  0  0
  3 31  1  0  0  0  0
  4  5  1  0  0  0  0
  4 28  1  0  0  0  0
  4 32  1  0  0  0  0
  5 10  1  0  0  0  0
  5  6  1  0  0  0  0
  5 33  1  0  0  0  0
  6  7  1  0  0  0  0
  6 34  1  0  0  0  0
  6 35  1  0  0  0  0
  7  8  1  0  0  0  0
  7 36  1  0  0  0  0
  7 37  1  0  0  0  0
  8  9  1  0  0  0  0
  8 38  1  0  0  0  0
  8 39  1  0  0  0  0
  9 10  1  0  0  0  0
  9 40  1  0  0  0  0
  9 41  1  0  0  0  0
 10 11  1  0  0  0  0
 11 16  1  0  0  0  0
 11 12  2  0  0  0  0
 12 13  1  0  0  0  0
 13 14  2  0  0  0  0
 13 42  1  0  0  0  0
 14 15  1  0  0  0  0
 15 19  1  0  0  0  0
 15 16  2  0  0  0  0
 16 17  1  0  0  0  0
 17 18  2  0  0  0  0
 18 19  1  0  0  0  0
 18 43  1  0  0  0  0
 19 20  1  0  0  0  0
 20 21  1  0  0  0  0
 20 44  1  0  0  0  0
 20 45  1  0  0  0  0
 21 22  1  0  0  0  0
 21 23  1  0  0  0  0
 21 46  1  0  0  0  0
 22 47  1  0  0  0  0
 23 27  1  0  0  0  0
 23 24  1  0  0  0  0
 23 48  1  0  0  0  0
 24 25  1  0  0  0  0
 24 49  1  0  0  0  0
 24 50  1  0  0  0  0
 25 26  1  0  0  0  0
 25 51  1  0  0  0  0
 25 52  1  0  0  0  0
 26 27  1  0  0  0  0
 26 53  1  0  0  0  0
 26 54  1  0  0  0  0
 28 29  1  0  0  0  0
 28 55  1  0  0  0  0
 28 56  1  0  0  0  0
 29 57  1  0  0  0  0
M  END
> <s_m_source_file>
AV-unprocessed.smi

> <i_m_source_file_index>
203

> <i_lp_mmshare_version>
43012

> <i_f3d_flags>
0

> <s_epik_input>
Tz1DMVtDSDJdW0NASF0oW0NIMl1bTkhdMSlbQ0BASF0yW0NIMl1bQ0gyXVtDSDJdW0NIMl1OMmMobltjSF1uMyljKGMzNCluW2NIXW40W0NIMl1bQ0BIXShbT0hdKVtDQEBIXTVbQ0gyXVtDSDJdW0NIMl1PNQ==

> <s_epik_cmdline>
J2VwaWtfcHl0aG9uJywgJy1waCcsICc3LjAnLCAnLXRuJywgJzgnLCAnLW1hJywgJzIwMCcsICctbWV0YWxfYmluZGluZycsICctaW1hZScsICc8aW5maWxlLm1hZT4nLCAnLW9tYWUnLCAnPG91dGZpbGUubWFlPic=

> <r_lp_tautomer_probability>
1

> <r_epik_Ionization_Penalty>
0.00175146

> <r_epik_Ionization_Penalty_Charging>
0

> <r_epik_Ionization_Penalty_Neutral>
0.00175146

> <r_epik_State_Penalty>
0.00109045

> <r_epik_Charging_Adjusted_Penalty>
0.00109045

> <i_epik_Tot_Q>
0

> <i_epik_Tot_abs_Q>
0

> <r_epik_Metal_State_Penalty>
-0

> <b_epik_Metal_Only>
0

> <s_lp_Force_Field>
OPLS_2005

> <r_lp_Energy>
55.4262

> <b_lp_Chiralities_Consistent>
1

> <s_lp_Variant>
AV-unprocessed.smi:203-4

> <Gold.Version>
5.8.1

> <Gold.Id.Protein>
6NUR|6NUR_protein|mol2

> <Gold.PLP.Fitness>
42.0530

> <Gold.PLP.PLP>
-39.4092

> <Gold.PLP.part.hbond>
-1.6354

> <Gold.PLP.part.metal>
0.0000

> <Gold.PLP.part.buried>
-4.1089

> <Gold.PLP.part.nonpolar>
-33.7671

> <Gold.PLP.part.repulsive>
0.0526

> <Gold.PLP.ligand.clash>
0.0000

> <Gold.PLP.ligand.torsion>
1.6343

> <Gold.PLP.Chemscore.Hbond>
1.8860

> <Gold.PLP.Chemscore.CHOScore>
0.0000

> <Gold.PLP.Chemscore.Metal>
0.0000

> <Gold.Chemscore.Hbonds>
donor molecule, donor type, donor heavy atom, donor atom, acceptor molecule, acceptor atom, score
      P1  H  6896  6908       L1    17  0.81
      P1  H  7997  8009       L1    22  0.99

> <Gold.PLP.Chemscore.Internal.Correction>
0.2544

> <Gold.Rescore>
     Score         DG    S(hbond)    S(metal)    S(lipo)     H(rot)  DE(clash)    DE(int)     intcor
     12.55     -15.59       1.72        0.00      96.67       2.72       0.15       2.89       ----

> <Gold.Chemscore.Fitness>
12.5538

> <Gold.Chemscore.DG>
-15.5879

> <Gold.Chemscore.ZeroCoef>
-5.4800

> <Gold.Chemscore.Hbond>
1.7227

> <Gold.Chemscore.Metal>
0.0000

> <Gold.Chemscore.Lipo>
96.6653

> <Gold.Chemscore.Internal_Hbond>
0.0000

> <Gold.Chemscore.DEClash>
0.1461

> <Gold.Chemscore.DEInternal>
2.8880

> <Gold.Chemscore.Rot>
2.7171

> <Gold.Chemscore.Internal.Correction>
   9.000000E+99

> <Gold.Chemscore.Hbonds>
donor molecule, donor type, donor heavy atom, donor atom, acceptor molecule, acceptor atom, score
      P1  H  6896  6908       L1    17  0.46
      P1  H  7997  8009       L1    22  0.78

> <Gold.Chemscore.Hbond.Weighted>
-5.7537

> <Gold.Chemscore.Metal.Weighted>
-0.0000

> <Gold.Chemscore.Lipo.Weighted>
-11.3098

> <Gold.Chemscore.Internal_Hbond.Weighted>
0.0000

> <Gold.Chemscore.DEClash.Weighted>
0.1461

> <Gold.Chemscore.DEInternal.Weighted>
2.8880

> <Gold.Chemscore.Rot.Weighted>
6.9557

> <Gold.Chemscore.Internal.Correction.Weighted>
   9.000000E+99

> <Gold.Protein.RotatedTorsions>
[ 6907 6896 6895 6894 ] final -167.22 input  -60.11 | X-H torsion
[ 7974 7965 7964 7962 ] final  -82.79 input  175.53 | X-H torsion
[ 8008 7997 7996 7995 ] final -170.80 input   59.86 | X-H torsion
[ 10167 10162 10161 10158 ] final   50.99 input  -65.29 | X-H torsion
[ 10718 10713 10712 10709 ] final  -99.14 input   66.30 | X-H torsion
[ 10763 10752 10751 10750 ] final   98.71 input  -60.55 | X-H torsion
[ 11005 11000 10999 10996 ] final   42.56 input  -57.11 | X-H torsion

> <Gold.Protein.ActiveResidues>
 VAL166  LYS551  ARG553  GLY616  TRP617  ASP618  TYR619  PRO620  LYS621  CYS622 
 ASP623  PHE694  ASN695  SER759  ASP760  ASP761  ALA762  ILE779  LEU786  VAL792 
 PHE793  MET794  SER795  GLU796  ALA797  LYS798  CYS799  TRP800  GLU811  SER814 

> <Gold.Protein.RotatedAtoms>
  151.4560  133.3605  159.2801 H   0  0  0  0  0  0  0  0  0  0  0  0  # atno 6907 bound_to 6896
  150.9058  134.8474  159.7402 H   0  0  0  0  0  0  0  0  0  0  0  0  # atno 6908 bound_to 6896
  152.4905  134.4485  159.9618 H   0  0  0  0  0  0  0  0  0  0  0  0  # atno 6909 bound_to 6896
  145.5286  140.9524  143.1615 H   0  0  0  0  0  0  0  0  0  0  0  0  # atno 7974 bound_to 7965
  155.9231  140.1078  157.1191 H   0  0  0  0  0  0  0  0  0  0  0  0  # atno 8008 bound_to 7997
  154.4057  140.1252  156.4771 H   0  0  0  0  0  0  0  0  0  0  0  0  # atno 8009 bound_to 7997
  155.7171  140.3470  155.5002 H   0  0  0  0  0  0  0  0  0  0  0  0  # atno 8010 bound_to 7997
  140.2666  144.3313  150.6302 H   0  0  0  0  0  0  0  0  0  0  0  0  # atno 10167 bound_to 10162
  156.0126  130.5269  150.6626 H   0  0  0  0  0  0  0  0  0  0  0  0  # atno 10718 bound_to 10713
  153.2924  135.4139  155.1179 H   0  0  0  0  0  0  0  0  0  0  0  0  # atno 10763 bound_to 10752
  154.8524  135.3521  154.5963 H   0  0  0  0  0  0  0  0  0  0  0  0  # atno 10764 bound_to 10752
  153.6386  135.7058  153.5308 H   0  0  0  0  0  0  0  0  0  0  0  0  # atno 10765 bound_to 10752
  140.1727  134.4201  155.8247 H   0  0  0  0  0  0  0  0  0  0  0  0  # atno 11005 bound_to 11000
  144.7638  139.6894  143.7223 LP  0  0  0  0  0  0  0  0  0  0  0  0  # atno 17320 bound_to 7965
  146.2059  139.5383  142.9713 LP  0  0  0  0  0  0  0  0  0  0  0  0  # atno 17321 bound_to 7965
  140.5923  143.2167  151.7229 LP  0  0  0  0  0  0  0  0  0  0  0  0  # atno 17342 bound_to 10162
  139.5001  144.3920  152.0270 LP  0  0  0  0  0  0  0  0  0  0  0  0  # atno 17343 bound_to 10162
  157.4365  131.0856  151.0987 LP  0  0  0  0  0  0  0  0  0  0  0  0  # atno 17370 bound_to 10713
  157.1544  130.6198  149.5592 LP  0  0  0  0  0  0  0  0  0  0  0  0  # atno 17371 bound_to 10713
  141.2218  133.6963  156.7792 LP  0  0  0  0  0  0  0  0  0  0  0  0  # atno 17394 bound_to 11000
  140.2358  134.8651  157.3523 LP  0  0  0  0  0  0  0  0  0  0  0  0  # atno 17395 bound_to 11000

$$$$
